PCCDB-ID:  8185
public computational chemistry database (PCCDB) project, http://pccdb.org

 34 33  0  0  0  0  0  0  0  0999 V2000
    4.2729    2.1144   -2.8864 C   0  0  0  0  0  0  0  0  0  0  0  0
    3.8537    1.7891   -1.6630 C   0  0  0  0  0  0  0  0  0  0  0  0
    4.5433    0.8296   -0.7314 C   0  0  0  0  0  0  0  0  0  0  0  0
    4.9912    1.4992    0.5834 C   0  0  0  0  0  0  0  0  0  0  0  0
    5.5737    0.5263    1.6235 C   0  0  0  0  0  0  0  0  0  0  0  0
    6.8554   -0.2182    1.2079 C   0  0  0  0  0  0  0  0  0  0  0  0
    8.0611    0.6878    0.9223 C   0  0  0  0  0  0  0  0  0  0  0  0
    9.3420   -0.0928    0.5963 C   0  0  0  0  0  0  0  0  0  0  0  0
   10.5387    0.8176    0.2878 C   0  0  0  0  0  0  0  0  0  0  0  0
   11.8579    0.0765    0.0146 C   0  0  0  0  0  0  0  0  0  0  0  0
   11.8642   -0.7642   -1.2586 C   0  0  0  0  0  0  0  0  0  0  0  0
   11.6277    0.1025   -2.3662 O   0  0  0  0  0  0  0  0  0  0  0  0
    3.7337    2.8238   -3.5088 H   0  0  0  0  0  0  0  0  0  0  0  0
    5.1745    1.6805   -3.3152 H   0  0  0  0  0  0  0  0  0  0  0  0
    2.9452    2.2545   -1.2748 H   0  0  0  0  0  0  0  0  0  0  0  0
    5.4033    0.3804   -1.2435 H   0  0  0  0  0  0  0  0  0  0  0  0
    3.8575    0.0031   -0.4854 H   0  0  0  0  0  0  0  0  0  0  0  0
    4.1264    2.0080    1.0320 H   0  0  0  0  0  0  0  0  0  0  0  0
    5.7167    2.2894    0.3518 H   0  0  0  0  0  0  0  0  0  0  0  0
    4.8042   -0.2165    1.8792 H   0  0  0  0  0  0  0  0  0  0  0  0
    5.7749    1.0854    2.5484 H   0  0  0  0  0  0  0  0  0  0  0  0
    6.6549   -0.8430    0.3260 H   0  0  0  0  0  0  0  0  0  0  0  0
    7.1219   -0.9180    2.0130 H   0  0  0  0  0  0  0  0  0  0  0  0
    8.2419    1.3363    1.7930 H   0  0  0  0  0  0  0  0  0  0  0  0
    7.8343    1.3614    0.0846 H   0  0  0  0  0  0  0  0  0  0  0  0
    9.1448   -0.7540   -0.2592 H   0  0  0  0  0  0  0  0  0  0  0  0
    9.5908   -0.7524    1.4418 H   0  0  0  0  0  0  0  0  0  0  0  0
   10.6939    1.4984    1.1367 H   0  0  0  0  0  0  0  0  0  0  0  0
   10.3042    1.4490   -0.5778 H   0  0  0  0  0  0  0  0  0  0  0  0
   12.1013   -0.5829    0.8600 H   0  0  0  0  0  0  0  0  0  0  0  0
   12.6728    0.8080   -0.0613 H   0  0  0  0  0  0  0  0  0  0  0  0
   11.0938   -1.5499   -1.2028 H   0  0  0  0  0  0  0  0  0  0  0  0
   12.8387   -1.2704   -1.3558 H   0  0  0  0  0  0  0  0  0  0  0  0
   11.5942   -0.4402   -3.1680 H   0  0  0  0  0  0  0  0  0  0  0  0
  1  2  2  0  0  0  0
  2 15  1  0  0  0  0
  2  3  1  0  0  0  0
  3 17  1  0  0  0  0
  3  4  1  0  0  0  0
  4 18  1  0  0  0  0
  4  5  1  0  0  0  0
  5 20  1  0  0  0  0
  5 21  1  0  0  0  0
  6  5  1  0  0  0  0
  6 23  1  0  0  0  0
  7  6  1  0  0  0  0
  7 24  1  0  0  0  0
  8  7  1  0  0  0  0
  8 27  1  0  0  0  0
  9  8  1  0  0  0  0
  9 28  1  0  0  0  0
 10  9  1  0  0  0  0
 10 30  1  0  0  0  0
 11 32  1  0  0  0  0
 11 10  1  0  0  0  0
 12 11  1  0  0  0  0
 13  1  1  0  0  0  0
 14  1  1  0  0  0  0
 16  3  1  0  0  0  0
 19  4  1  0  0  0  0
 22  6  1  0  0  0  0
 25  7  1  0  0  0  0
 26  8  1  0  0  0  0
 29  9  1  0  0  0  0
 31 10  1  0  0  0  0
 33 11  1  0  0  0  0
 34 12  1  0  0  0  0
M  END
>  <HBA>
1

>  <HBD>
1

>  <TPSA>
20.23

>  <cid>
8185

>  <dipole>
1.55

>  <excitation_energy_1>
6.304

>  <excitation_energy_2>
6.387

>  <excitation_energy_3>
6.538

>  <excitation_energy_4>
6.747

>  <homo_energy>
-6.729

>  <homo_lumo_gap>
7.489

>  <logP>
3.285

>  <lumo_energy>
0.759

>  <melting_point>
-31.86

>  <molecular_refractivity>
55.68

>  <oscillator_strength_1>
0.0002

>  <oscillator_strength_2>
0.0196

>  <oscillator_strength_3>
0.0067

>  <oscillator_strength_4>
0.0451

>  <open_babel_can_smiles>
OCCCCCCCCCC=C

>  <mulliken_charges>
34
1   -0.342059
2   -0.041135
3   -0.302258
4   -0.25782
5   -0.258109
6   -0.257592
7   -0.254816
8   -0.256751
9   -0.253702
10   -0.266636
11   -0.033804
12   -0.616799
13   0.136043
14   0.132948
15   0.121574
16   0.140802
17   0.13751
18   0.128391
19   0.143342
20   0.125636
21   0.128123
22   0.130279
23   0.126502
24   0.125588
25   0.136188
26   0.13071
27   0.121641
28   0.12464
29   0.155186
30   0.126241
31   0.142652
32   0.119316
33   0.117309
34   0.390859

>  <lowdin_charges>
34
1   -0.347618
2   -0.143447
3   -0.275693
4   -0.278512
5   -0.277631
6   -0.279547
7   -0.277412
8   -0.277314
9   -0.278905
10   -0.283911
11   -0.135939
12   -0.476539
13   0.158048
14   0.153084
15   0.147561
16   0.147099
17   0.146878
18   0.142156
19   0.145195
20   0.140241
21   0.140976
22   0.138074
23   0.141064
24   0.137314
25   0.141628
26   0.138591
27   0.134866
28   0.140045
29   0.152485
30   0.14306
31   0.150185
32   0.12409
33   0.125472
34   0.344353

$$$$

