PCCDB-ID:  18165
public computational chemistry database (PCCDB) project, http://pccdb.org

 28 28  0  0  0  0  0  0  0  0999 V2000
    0.7362    1.3936    0.2025 C   0  0  0  0  0  0  0  0  0  0  0  0
   11.0640    1.7108    0.8770 C   0  0  0  0  0  0  0  0  0  0  0  0
    2.1335    2.0034    0.2828 C   0  0  0  0  0  0  0  0  0  0  0  0
    9.6662    1.1014    0.8033 C   0  0  0  0  0  0  0  0  0  0  0  0
    5.4256    0.2676    0.7313 C   0  0  0  0  0  0  0  0  0  0  0  0
    5.0124    2.5775    0.2286 C   0  0  0  0  0  0  0  0  0  0  0  0
    6.7875    0.5283    0.8583 C   0  0  0  0  0  0  0  0  0  0  0  0
    6.3743    2.8383    0.3558 C   0  0  0  0  0  0  0  0  0  0  0  0
    4.5062    1.2791    0.4112 C   0  0  0  0  0  0  0  0  0  0  0  0
    7.2938    1.8266    0.6752 C   0  0  0  0  0  0  0  0  0  0  0  0
    3.1483    0.9604    0.2394 N   0  0  0  0  0  0  0  0  0  0  0  0
    8.6520    2.1448    0.8447 N   0  0  0  0  0  0  0  0  0  0  0  0
   -0.0273    2.1784    0.2021 H   0  0  0  0  0  0  0  0  0  0  0  0
    0.5388    0.7393    1.0614 H   0  0  0  0  0  0  0  0  0  0  0  0
    0.6243    0.7998   -0.7109 H   0  0  0  0  0  0  0  0  0  0  0  0
   11.8273    0.9258    0.8768 H   0  0  0  0  0  0  0  0  0  0  0  0
   11.1794    2.3070    1.7884 H   0  0  0  0  0  0  0  0  0  0  0  0
   11.2584    2.3629    0.0158 H   0  0  0  0  0  0  0  0  0  0  0  0
    2.2194    2.6315    1.1884 H   0  0  0  0  0  0  0  0  0  0  0  0
    2.2833    2.6719   -0.5746 H   0  0  0  0  0  0  0  0  0  0  0  0
    9.5182    0.4364    1.6638 H   0  0  0  0  0  0  0  0  0  0  0  0
    9.5774    0.4693   -0.0993 H   0  0  0  0  0  0  0  0  0  0  0  0
    5.0674   -0.7510    0.8701 H   0  0  0  0  0  0  0  0  0  0  0  0
    4.3446    3.3967   -0.0167 H   0  0  0  0  0  0  0  0  0  0  0  0
    7.4552   -0.2909    1.1039 H   0  0  0  0  0  0  0  0  0  0  0  0
    6.7325    3.8569    0.2168 H   0  0  0  0  0  0  0  0  0  0  0  0
    2.8784    0.1397    0.7705 H   0  0  0  0  0  0  0  0  0  0  0  0
    8.9220    2.9651    0.3130 H   0  0  0  0  0  0  0  0  0  0  0  0
  1  3  1  0  0  0  0
  1 14  1  0  0  0  0
  2 17  1  0  0  0  0
  3 19  1  0  0  0  0
  4 12  1  0  0  0  0
  4  2  1  0  0  0  0
  4 21  1  0  0  0  0
  5  7  1  0  0  0  0
  5 23  1  0  0  0  0
  6  8  2  0  0  0  0
  6  9  1  0  0  0  0
  7 25  1  0  0  0  0
  8 10  1  0  0  0  0
  9  5  2  0  0  0  0
 10 12  1  0  0  0  0
 10  7  2  0  0  0  0
 11  3  1  0  0  0  0
 11  9  1  0  0  0  0
 11 27  1  0  0  0  0
 13  1  1  0  0  0  0
 15  1  1  0  0  0  0
 16  2  1  0  0  0  0
 18  2  1  0  0  0  0
 20  3  1  0  0  0  0
 22  4  1  0  0  0  0
 24  6  1  0  0  0  0
 26  8  1  0  0  0  0
 28 12  1  0  0  0  0
M  END
>  <HBA>
2

>  <HBD>
2

>  <TPSA>
24.06

>  <cid>
18165

>  <dipole>
0.0

>  <excitation_energy_1>
3.958

>  <excitation_energy_2>
4.143

>  <excitation_energy_3>
4.319

>  <excitation_energy_4>
4.456

>  <homo_energy>
-4.397

>  <homo_lumo_gap>
4.787

>  <logP>
2.696

>  <lumo_energy>
0.389

>  <melting_point>
72.1

>  <molecular_refractivity>
54.67

>  <oscillator_strength_1>
0.0425

>  <oscillator_strength_2>
0.0

>  <oscillator_strength_3>
0.0112

>  <oscillator_strength_4>
0.0453

>  <open_babel_can_smiles>
CCNc1ccc(cc1)NCC

>  <mulliken_charges>
28
1   -0.466585
2   -0.466714
3   -0.102485
4   -0.10225
5   -0.201359
6   -0.185123
7   -0.185356
8   -0.201498
9   0.343187
10   0.343588
11   -0.65385
12   -0.654126
13   0.151734
14   0.142403
15   0.161108
16   0.15181
17   0.161079
18   0.142439
19   0.128934
20   0.148624
21   0.14857
22   0.128941
23   0.110186
24   0.119801
25   0.11983
26   0.110196
27   0.303427
28   0.303488

>  <lowdin_charges>
28
1   -0.449911
2   -0.44989
3   -0.193646
4   -0.193599
5   -0.187745
6   -0.197409
7   -0.197495
8   -0.187753
9   0.036862
10   0.036944
11   -0.313546
12   -0.313544
13   0.157608
14   0.147043
15   0.156858
16   0.157659
17   0.156843
18   0.14705
19   0.12648
20   0.145099
21   0.145027
22   0.126491
23   0.148479
24   0.157186
25   0.157201
26   0.148486
27   0.266575
28   0.266647

$$$$

