PCCDB-ID:  15730
public computational chemistry database (PCCDB) project, http://pccdb.org

 37 37  0  0  0  0  0  0  0  0999 V2000
    6.2100    1.9974    1.9664 C   0  0  0  0  0  0  0  0  0  0  0  0
    7.2197    0.8477    2.0691 C   0  0  0  0  0  0  0  0  0  0  0  0
    6.7192   -0.5011    1.5213 C   0  0  0  0  0  0  0  0  0  0  0  0
    6.4961   -0.5198    0.0009 C   0  0  0  0  0  0  0  0  0  0  0  0
    5.9387   -1.8309   -0.5918 C   0  0  0  0  0  0  0  0  0  0  0  0
    6.9389   -2.9805   -0.8314 C   0  0  0  0  0  0  0  0  0  0  0  0
    7.3742   -3.7838    0.4026 C   0  0  0  0  0  0  0  0  0  0  0  0
    8.2279   -5.0270    0.0634 C   0  0  0  0  0  0  0  0  0  0  0  0
   10.6405   -4.2797    0.2945 C   0  0  0  0  0  0  0  0  0  0  0  0
    9.8437   -4.8243   -1.8986 C   0  0  0  0  0  0  0  0  0  0  0  0
   11.8944   -3.9689   -0.2304 C   0  0  0  0  0  0  0  0  0  0  0  0
   11.0893   -4.5179   -2.4419 C   0  0  0  0  0  0  0  0  0  0  0  0
    9.5885   -4.7102   -0.5244 C   0  0  0  0  0  0  0  0  0  0  0  0
   12.1221   -4.0864   -1.6052 C   0  0  0  0  0  0  0  0  0  0  0  0
   13.3306   -3.8002   -2.1838 O   0  0  0  0  0  0  0  0  0  0  0  0
    6.6071    2.9102    2.4256 H   0  0  0  0  0  0  0  0  0  0  0  0
    5.2743    1.7470    2.4821 H   0  0  0  0  0  0  0  0  0  0  0  0
    5.9622    2.2370    0.9265 H   0  0  0  0  0  0  0  0  0  0  0  0
    7.4954    0.7146    3.1241 H   0  0  0  0  0  0  0  0  0  0  0  0
    8.1464    1.1271    1.5471 H   0  0  0  0  0  0  0  0  0  0  0  0
    5.7782   -0.7680    2.0262 H   0  0  0  0  0  0  0  0  0  0  0  0
    7.4434   -1.2749    1.8008 H   0  0  0  0  0  0  0  0  0  0  0  0
    7.4386   -0.2672   -0.5082 H   0  0  0  0  0  0  0  0  0  0  0  0
    5.7939    0.2846   -0.2555 H   0  0  0  0  0  0  0  0  0  0  0  0
    5.4923   -1.5865   -1.5652 H   0  0  0  0  0  0  0  0  0  0  0  0
    5.1070   -2.1902    0.0330 H   0  0  0  0  0  0  0  0  0  0  0  0
    7.8256   -2.5835   -1.3443 H   0  0  0  0  0  0  0  0  0  0  0  0
    6.4746   -3.6835   -1.5393 H   0  0  0  0  0  0  0  0  0  0  0  0
    6.4798   -4.1161    0.9491 H   0  0  0  0  0  0  0  0  0  0  0  0
    7.9414   -3.1508    1.0955 H   0  0  0  0  0  0  0  0  0  0  0  0
    7.6680   -5.6645   -0.6338 H   0  0  0  0  0  0  0  0  0  0  0  0
    8.3595   -5.6151    0.9816 H   0  0  0  0  0  0  0  0  0  0  0  0
   10.4821   -4.1891    1.3673 H   0  0  0  0  0  0  0  0  0  0  0  0
    9.0504   -5.1654   -2.5599 H   0  0  0  0  0  0  0  0  0  0  0  0
   12.6973   -3.6413    0.4284 H   0  0  0  0  0  0  0  0  0  0  0  0
   11.2781   -4.6105   -3.5069 H   0  0  0  0  0  0  0  0  0  0  0  0
   13.9483   -3.5156   -1.4927 H   0  0  0  0  0  0  0  0  0  0  0  0
  1  2  1  0  0  0  0
  1 16  1  0  0  0  0
  1 17  1  0  0  0  0
  2 19  1  0  0  0  0
  3 22  1  0  0  0  0
  3 21  1  0  0  0  0
  3  2  1  0  0  0  0
  4  3  1  0  0  0  0
  5  4  1  0  0  0  0
  5 26  1  0  0  0  0
  6  5  1  0  0  0  0
  6  7  1  0  0  0  0
  7 29  1  0  0  0  0
  7 30  1  0  0  0  0
  8  7  1  0  0  0  0
  8 32  1  0  0  0  0
  9 33  1  0  0  0  0
 10 13  1  0  0  0  0
 11  9  1  0  0  0  0
 11 35  1  0  0  0  0
 12 10  2  0  0  0  0
 12 14  1  0  0  0  0
 13  8  1  0  0  0  0
 13  9  2  0  0  0  0
 14 11  2  0  0  0  0
 15 14  1  0  0  0  0
 15 37  1  0  0  0  0
 18  1  1  0  0  0  0
 20  2  1  0  0  0  0
 23  4  1  0  0  0  0
 24  4  1  0  0  0  0
 25  5  1  0  0  0  0
 27  6  1  0  0  0  0
 28  6  1  0  0  0  0
 31  8  1  0  0  0  0
 34 10  1  0  0  0  0
 36 12  1  0  0  0  0
M  END
>  <HBA>
1

>  <HBD>
1

>  <TPSA>
20.23

>  <cid>
15730

>  <dipole>
1.35

>  <excitation_energy_1>
4.917

>  <excitation_energy_2>
5.049

>  <excitation_energy_3>
5.416

>  <excitation_energy_4>
5.632

>  <homo_energy>
-5.747

>  <homo_lumo_gap>
5.791

>  <logP>
4.295

>  <lumo_energy>
0.044

>  <melting_point>
43.48

>  <molecular_refractivity>
67.08

>  <oscillator_strength_1>
0.03

>  <oscillator_strength_2>
0.0005

>  <oscillator_strength_3>
0.0642

>  <oscillator_strength_4>
0.0297

>  <open_babel_can_smiles>
CCCCCCCCc1ccc(cc1)O

>  <mulliken_charges>
37
1   -0.44311
2   -0.248614
3   -0.253038
4   -0.253681
5   -0.260914
6   -0.253953
7   -0.251591
8   -0.353735
9   -0.189181
10   -0.192258
11   -0.192331
12   -0.157388
13   0.178167
14   0.346789
15   -0.644959
16   0.140841
17   0.139804
18   0.146407
19   0.12839
20   0.129624
21   0.12364
22   0.135252
23   0.127506
24   0.131042
25   0.127763
26   0.124714
27   0.141521
28   0.122075
29   0.126723
30   0.141668
31   0.136862
32   0.139244
33   0.123479
34   0.124722
35   0.115619
36   0.137257
37   0.405645

>  <lowdin_charges>
37
1   -0.446897
2   -0.27216
3   -0.280616
4   -0.279304
5   -0.276832
6   -0.281039
7   -0.277704
8   -0.275364
9   -0.153862
10   -0.157732
11   -0.214916
12   -0.184961
13   -0.021457
14   0.099777
15   -0.383751
16   0.14944
17   0.145432
18   0.146013
19   0.139193
20   0.138727
21   0.135931
22   0.142532
23   0.138271
24   0.141955
25   0.142981
26   0.137741
27   0.146179
28   0.138873
29   0.139744
30   0.14282
31   0.146913
32   0.149506
33   0.152782
34   0.156916
35   0.152705
36   0.164625
37   0.357538

$$$$

