PCCDB-ID:  24370
public computational chemistry database (PCCDB) project, http://pccdb.org

 22 23  0  0  0  0  0  0  0  0999 V2000
   -1.9534   -0.4746   -0.1397 C   0  0  0  0  0  0  0  0  0  0  0  0
   -1.5089    0.8447   -0.0116 C   0  0  0  0  0  0  0  0  0  0  0  0
   -1.0311   -1.5222   -0.1449 C   0  0  0  0  0  0  0  0  0  0  0  0
    4.6784   -1.7630   -1.5292 C   0  0  0  0  0  0  0  0  0  0  0  0
   -0.1483    1.1130    0.1065 C   0  0  0  0  0  0  0  0  0  0  0  0
    0.3342   -1.2540   -0.0422 C   0  0  0  0  0  0  0  0  0  0  0  0
    3.3204   -1.4468   -1.3051 C   0  0  0  0  0  0  0  0  0  0  0  0
    5.4361   -0.9080   -0.7393 C   0  0  0  0  0  0  0  0  0  0  0  0
    0.7884    0.0682    0.0746 C   0  0  0  0  0  0  0  0  0  0  0  0
    3.2759   -0.4043   -0.3768 C   0  0  0  0  0  0  0  0  0  0  0  0
    2.2330    0.4255    0.2286 C   0  0  0  0  0  0  0  0  0  0  0  0
    4.5832   -0.0990   -0.0594 N   0  0  0  0  0  0  0  0  0  0  0  0
    2.5626    1.4372    0.8570 O   0  0  0  0  0  0  0  0  0  0  0  0
   -3.0161   -0.6850   -0.2261 H   0  0  0  0  0  0  0  0  0  0  0  0
   -2.2253    1.6617    0.0019 H   0  0  0  0  0  0  0  0  0  0  0  0
   -1.3743   -2.5504   -0.2221 H   0  0  0  0  0  0  0  0  0  0  0  0
    5.0669   -2.5231   -2.1931 H   0  0  0  0  0  0  0  0  0  0  0  0
    0.2150    2.1287    0.2247 H   0  0  0  0  0  0  0  0  0  0  0  0
    1.0445   -2.0734   -0.0152 H   0  0  0  0  0  0  0  0  0  0  0  0
    2.4672   -1.9000   -1.7882 H   0  0  0  0  0  0  0  0  0  0  0  0
    6.5071   -0.8243   -0.6200 H   0  0  0  0  0  0  0  0  0  0  0  0
    4.8038    0.6599    0.5716 H   0  0  0  0  0  0  0  0  0  0  0  0
  1  2  1  0  0  0  0
  2 15  1  0  0  0  0
  2  5  2  0  0  0  0
  3  1  2  0  0  0  0
  3  6  1  0  0  0  0
  4  7  1  0  0  0  0
  4  8  2  0  0  0  0
  5 18  1  0  0  0  0
  6 19  1  0  0  0  0
  6  9  2  0  0  0  0
  7 10  2  0  0  0  0
  8 21  1  0  0  0  0
  8 12  1  0  0  0  0
  9  5  1  0  0  0  0
  9 11  1  0  0  0  0
 10 12  1  0  0  0  0
 10 11  1  0  0  0  0
 11 13  2  0  0  0  0
 12 22  1  0  0  0  0
 14  1  1  0  0  0  0
 16  3  1  0  0  0  0
 17  4  1  0  0  0  0
 20  7  1  0  0  0  0
M  END
>  <HBA>
1

>  <HBD>
1

>  <TPSA>
32.86

>  <cid>
24370

>  <dipole>
1.79

>  <excitation_energy_1>
3.782

>  <excitation_energy_2>
4.12

>  <excitation_energy_3>
4.577

>  <excitation_energy_4>
4.648

>  <homo_energy>
-6.068

>  <homo_lumo_gap>
4.544

>  <logP>
2.246

>  <lumo_energy>
-1.524

>  <melting_point>
111.03

>  <molecular_refractivity>
50.67

>  <oscillator_strength_1>
0.0013

>  <oscillator_strength_2>
0.3351

>  <oscillator_strength_3>
0.0163

>  <oscillator_strength_4>
0.0127

>  <open_babel_can_smiles>
O=C(c1ccc[nH]1)c1ccccc1

>  <mulliken_charges>
22
1   -0.119181
2   -0.135523
3   -0.139168
4   -0.198898
5   -0.152685
6   -0.174064
7   -0.196401
8   0.07067
9   0.0853
10   0.246513
11   0.325449
12   -0.587978
13   -0.518755
14   0.135054
15   0.136191
16   0.134457
17   0.135337
18   0.157615
19   0.145517
20   0.144336
21   0.155988
22   0.350223

>  <lowdin_charges>
22
1   -0.141869
2   -0.156323
3   -0.156662
4   -0.213069
5   -0.130836
6   -0.154977
7   -0.191468
8   -0.119235
9   -0.033754
10   -0.037777
11   0.144036
12   -0.145143
13   -0.288081
14   0.158635
15   0.161714
16   0.158939
17   0.165251
18   0.173082
19   0.16693
20   0.169946
21   0.16738
22   0.30328

$$$$

