PCCDB-ID:  18591
public computational chemistry database (PCCDB) project, http://pccdb.org

 29 28  0  0  0  0  0  0  0  0999 V2000
    0.3313   -0.6277   -3.2302 C   0  0  0  0  0  0  0  0  0  0  0  0
    7.2554   -4.6637   -2.2143 C   0  0  0  0  0  0  0  0  0  0  0  0
    8.4390   -3.3006   -0.4497 C   0  0  0  0  0  0  0  0  0  0  0  0
    1.7831   -0.3735   -2.8116 C   0  0  0  0  0  0  0  0  0  0  0  0
    2.5653   -1.6611   -2.5225 C   0  0  0  0  0  0  0  0  0  0  0  0
    4.0209   -1.4152   -2.1055 C   0  0  0  0  0  0  0  0  0  0  0  0
    4.8045   -2.7032   -1.8188 C   0  0  0  0  0  0  0  0  0  0  0  0
    6.2621   -2.4450   -1.4127 C   0  0  0  0  0  0  0  0  0  0  0  0
    7.0744   -3.6989   -1.0320 C   0  0  0  0  0  0  0  0  0  0  0  0
   -0.1999    0.3110   -3.4250 H   0  0  0  0  0  0  0  0  0  0  0  0
   -0.2185   -1.1652   -2.4477 H   0  0  0  0  0  0  0  0  0  0  0  0
    0.2821   -1.2336   -4.1434 H   0  0  0  0  0  0  0  0  0  0  0  0
    7.8413   -5.5419   -1.9179 H   0  0  0  0  0  0  0  0  0  0  0  0
    7.7883   -4.1724   -3.0395 H   0  0  0  0  0  0  0  0  0  0  0  0
    6.2969   -5.0230   -2.6039 H   0  0  0  0  0  0  0  0  0  0  0  0
    9.0139   -4.1823   -0.1421 H   0  0  0  0  0  0  0  0  0  0  0  0
    8.3253   -2.6513    0.4267 H   0  0  0  0  0  0  0  0  0  0  0  0
    9.0381   -2.7563   -1.1917 H   0  0  0  0  0  0  0  0  0  0  0  0
    1.7996    0.2680   -1.9189 H   0  0  0  0  0  0  0  0  0  0  0  0
    2.2978    0.1928   -3.6009 H   0  0  0  0  0  0  0  0  0  0  0  0
    2.5459   -2.3039   -3.4155 H   0  0  0  0  0  0  0  0  0  0  0  0
    2.0506   -2.2273   -1.7317 H   0  0  0  0  0  0  0  0  0  0  0  0
    4.0394   -0.7725   -1.2126 H   0  0  0  0  0  0  0  0  0  0  0  0
    4.5333   -0.8475   -2.8966 H   0  0  0  0  0  0  0  0  0  0  0  0
    4.7687   -3.3462   -2.7087 H   0  0  0  0  0  0  0  0  0  0  0  0
    4.2985   -3.2633   -1.0179 H   0  0  0  0  0  0  0  0  0  0  0  0
    6.2698   -1.7524   -0.5580 H   0  0  0  0  0  0  0  0  0  0  0  0
    6.7803   -1.9203   -2.2305 H   0  0  0  0  0  0  0  0  0  0  0  0
    6.5164   -4.2305   -0.2451 H   0  0  0  0  0  0  0  0  0  0  0  0
  1  4  1  0  0  0  0
  1 11  1  0  0  0  0
  2 13  1  0  0  0  0
  2  9  1  0  0  0  0
  3 16  1  0  0  0  0
  3 17  1  0  0  0  0
  4  5  1  0  0  0  0
  4 19  1  0  0  0  0
  5  6  1  0  0  0  0
  5 22  1  0  0  0  0
  6  7  1  0  0  0  0
  6 23  1  0  0  0  0
  7  8  1  0  0  0  0
  7 26  1  0  0  0  0
  8  9  1  0  0  0  0
  8 27  1  0  0  0  0
  9  3  1  0  0  0  0
  9 29  1  0  0  0  0
 10  1  1  0  0  0  0
 12  1  1  0  0  0  0
 14  2  1  0  0  0  0
 15  2  1  0  0  0  0
 18  3  1  0  0  0  0
 20  4  1  0  0  0  0
 21  5  1  0  0  0  0
 24  6  1  0  0  0  0
 25  7  1  0  0  0  0
 28  8  1  0  0  0  0
M  END
>  <HBA>
0

>  <HBD>
0

>  <TPSA>
0.0

>  <cid>
18591

>  <dipole>
0.06

>  <excitation_energy_1>
7.656

>  <excitation_energy_2>
7.939

>  <excitation_energy_3>
7.984

>  <excitation_energy_4>
8.053

>  <homo_energy>
-7.973

>  <homo_lumo_gap>
10.351

>  <logP>
3.613

>  <lumo_energy>
2.378

>  <melting_point>
-28.56

>  <molecular_refractivity>
45.38

>  <oscillator_strength_1>
0.0178

>  <oscillator_strength_2>
0.0102

>  <oscillator_strength_3>
0.0373

>  <oscillator_strength_4>
0.0241

>  <open_babel_can_smiles>
CCCCCCC(C)C

>  <mulliken_charges>
29
1   -0.441125
2   -0.444773
3   -0.441651
4   -0.246452
5   -0.245491
6   -0.252791
7   -0.258837
8   -0.245839
9   -0.064478
10   0.140918
11   0.140753
12   0.14079
13   0.138731
14   0.136772
15   0.144612
16   0.138128
17   0.138437
18   0.13761
19   0.129548
20   0.129533
21   0.125648
22   0.125743
23   0.126146
24   0.126524
25   0.131315
26   0.125554
27   0.123847
28   0.122298
29   0.118531

>  <lowdin_charges>
29
1   -0.446068
2   -0.448361
3   -0.446437
4   -0.273525
5   -0.276138
6   -0.275298
7   -0.277802
8   -0.276878
9   -0.121447
10   0.148937
11   0.147112
12   0.146035
13   0.148157
14   0.145428
15   0.148454
16   0.147468
17   0.146878
18   0.146165
19   0.138718
20   0.139658
21   0.137036
22   0.138079
23   0.13719
24   0.138488
25   0.139316
26   0.138084
27   0.138692
28   0.137113
29   0.134945

$$$$

