PCCDB-ID:  35698
public computational chemistry database (PCCDB) project, http://pccdb.org

 25 24  0  0  0  0  0  0  0  0999 V2000
    0.5547    0.5780    2.6641 C   0  0  0  0  0  0  0  0  0  0  0  0
    1.6933    0.6611    2.2701 C   0  0  0  0  0  0  0  0  0  0  0  0
    3.0789    0.7383    1.8050 C   0  0  0  0  0  0  0  0  0  0  0  0
    3.9763   -0.3727    2.3914 C   0  0  0  0  0  0  0  0  0  0  0  0
    5.4164   -0.2988    1.8725 C   0  0  0  0  0  0  0  0  0  0  0  0
    6.3187   -1.4059    2.4327 C   0  0  0  0  0  0  0  0  0  0  0  0
    7.7671   -1.3035    1.9414 C   0  0  0  0  0  0  0  0  0  0  0  0
    8.6591   -2.4306    2.4691 C   0  0  0  0  0  0  0  0  0  0  0  0
   10.1397   -2.2024    2.1799 C   0  0  0  0  0  0  0  0  0  0  0  0
   10.6229   -1.1426    1.8715 O   0  0  0  0  0  0  0  0  0  0  0  0
   10.9401   -3.2966    2.3231 O   0  0  0  0  0  0  0  0  0  0  0  0
   -0.4515    0.5111    3.0102 H   0  0  0  0  0  0  0  0  0  0  0  0
    3.4980    1.7204    2.0657 H   0  0  0  0  0  0  0  0  0  0  0  0
    3.0977    0.6787    0.7076 H   0  0  0  0  0  0  0  0  0  0  0  0
    3.5388   -1.3491    2.1460 H   0  0  0  0  0  0  0  0  0  0  0  0
    3.9682   -0.2974    3.4863 H   0  0  0  0  0  0  0  0  0  0  0  0
    5.8473    0.6821    2.1213 H   0  0  0  0  0  0  0  0  0  0  0  0
    5.4118   -0.3576    0.7741 H   0  0  0  0  0  0  0  0  0  0  0  0
    5.8992   -2.3854    2.1577 H   0  0  0  0  0  0  0  0  0  0  0  0
    6.3036   -1.3676    3.5319 H   0  0  0  0  0  0  0  0  0  0  0  0
    8.2044   -0.3445    2.2410 H   0  0  0  0  0  0  0  0  0  0  0  0
    7.7905   -1.3150    0.8439 H   0  0  0  0  0  0  0  0  0  0  0  0
    8.3466   -3.3999    2.0549 H   0  0  0  0  0  0  0  0  0  0  0  0
    8.5535   -2.5195    3.5616 H   0  0  0  0  0  0  0  0  0  0  0  0
   10.4074   -4.0657    2.5845 H   0  0  0  0  0  0  0  0  0  0  0  0
  1 12  1  0  0  0  0
  2  1  3  0  0  0  0
  3 13  1  0  0  0  0
  3  2  1  0  0  0  0
  3  4  1  0  0  0  0
  4 16  1  0  0  0  0
  5 17  1  0  0  0  0
  5  4  1  0  0  0  0
  5  6  1  0  0  0  0
  6 20  1  0  0  0  0
  7 21  1  0  0  0  0
  7  6  1  0  0  0  0
  7  8  1  0  0  0  0
  8 24  1  0  0  0  0
  9 11  1  0  0  0  0
  9  8  1  0  0  0  0
 10  9  2  0  0  0  0
 11 25  1  0  0  0  0
 14  3  1  0  0  0  0
 15  4  1  0  0  0  0
 18  5  1  0  0  0  0
 19  6  1  0  0  0  0
 22  7  1  0  0  0  0
 23  8  1  0  0  0  0
M  END
>  <HBA>
2

>  <HBD>
1

>  <TPSA>
37.3

>  <cid>
35698

>  <dipole>
3.65

>  <excitation_energy_1>
5.73

>  <excitation_energy_2>
6.437

>  <excitation_energy_3>
6.509

>  <excitation_energy_4>
6.581

>  <homo_energy>
-7.067

>  <homo_lumo_gap>
7.334

>  <logP>
2.045

>  <lumo_energy>
0.267

>  <melting_point>
65.95

>  <molecular_refractivity>
45.31

>  <oscillator_strength_1>
0.0004

>  <oscillator_strength_2>
0.0175

>  <oscillator_strength_3>
0.0002

>  <oscillator_strength_4>
0.0007

>  <open_babel_can_smiles>
C#CCCCCCCC(=O)O

>  <mulliken_charges>
25
1   -0.524081
2   0.360947
3   -0.402945
4   -0.25795
5   -0.254101
6   -0.260637
7   -0.250599
8   -0.403305
9   0.607442
10   -0.436991
11   -0.567846
12   0.185263
13   0.168639
14   0.167623
15   0.145287
16   0.146191
17   0.136145
18   0.133291
19   0.129072
20   0.131859
21   0.167999
22   0.146666
23   0.149862
24   0.174686
25   0.407483

>  <lowdin_charges>
25
1   -0.265084
2   -0.039797
3   -0.258001
4   -0.265247
5   -0.272372
6   -0.271814
7   -0.268167
8   -0.319091
9   0.195714
10   -0.237074
11   -0.360256
12   0.201809
13   0.165131
14   0.162852
15   0.147269
16   0.145838
17   0.141854
18   0.138603
19   0.137662
20   0.137412
21   0.160124
22   0.14706
23   0.152474
24   0.165299
25   0.357803

$$$$

