PCCDB-ID:  19545
public computational chemistry database (PCCDB) project, http://pccdb.org

 19 19  0  0  0  0  0  0  0  0999 V2000
    1.0540   -0.1239   -0.0697 C   0  0  0  0  0  0  0  0  0  0  0  0
    5.3593   -2.4229   -0.0656 C   0  0  0  0  0  0  0  0  0  0  0  0
    5.4385    2.9144    1.8277 C   0  0  0  0  0  0  0  0  0  0  0  0
    2.5551   -0.0873   -0.0483 C   0  0  0  0  0  0  0  0  0  0  0  0
    4.5545   -1.1553   -0.0469 C   0  0  0  0  0  0  0  0  0  0  0  0
    4.4750    1.1017   -0.0021 C   0  0  0  0  0  0  0  0  0  0  0  0
    3.2177   -1.2526   -0.0728 N   0  0  0  0  0  0  0  0  0  0  0  0
    3.1402    1.1227   -0.0126 N   0  0  0  0  0  0  0  0  0  0  0  0
    5.2348    0.0040   -0.0110 N   0  0  0  0  0  0  0  0  0  0  0  0
    5.3272    2.6975    0.0089 S   0  0  0  0  0  0  0  0  0  0  0  0
    0.6966   -1.1539   -0.0282 H   0  0  0  0  0  0  0  0  0  0  0  0
    0.6832    0.3552   -0.9831 H   0  0  0  0  0  0  0  0  0  0  0  0
    0.6518    0.4466    0.7741 H   0  0  0  0  0  0  0  0  0  0  0  0
    4.7019   -3.2932   -0.0348 H   0  0  0  0  0  0  0  0  0  0  0  0
    6.0475   -2.4436    0.7861 H   0  0  0  0  0  0  0  0  0  0  0  0
    5.9741   -2.4603   -0.9721 H   0  0  0  0  0  0  0  0  0  0  0  0
    5.9480    3.8674    1.9917 H   0  0  0  0  0  0  0  0  0  0  0  0
    6.0257    2.1107    2.2789 H   0  0  0  0  0  0  0  0  0  0  0  0
    4.4422    2.9581    2.2746 H   0  0  0  0  0  0  0  0  0  0  0  0
  1  4  1  0  0  0  0
  1 11  1  0  0  0  0
  1 13  1  0  0  0  0
  2  5  1  0  0  0  0
  2 14  1  0  0  0  0
  2 15  1  0  0  0  0
  3 17  1  0  0  0  0
  3 19  1  0  0  0  0
  3 18  1  0  0  0  0
  4  8  1  0  0  0  0
  5  9  1  0  0  0  0
  6 10  1  0  0  0  0
  7  4  2  0  0  0  0
  7  5  2  0  0  0  0
  8  6  2  0  0  0  0
  9  6  1  0  0  0  0
 10  3  1  0  0  0  0
 12  1  1  0  0  0  0
 16  2  1  0  0  0  0
M  RAD  1   9   2
M  END
>  <HBA>
4

>  <HBD>
0

>  <TPSA>
63.97

>  <cid>
19545

>  <dipole>
1.98

>  <excitation_energy_1>
3.522

>  <excitation_energy_2>
3.912

>  <excitation_energy_3>
4.474

>  <excitation_energy_4>
4.489

>  <homo_energy>
-6.188

>  <homo_lumo_gap>
4.729

>  <logP>
1.21

>  <lumo_energy>
-1.459

>  <melting_point>
72.33

>  <molecular_refractivity>
41.48

>  <oscillator_strength_1>
0.0001

>  <oscillator_strength_2>
0.0007

>  <oscillator_strength_3>
0.0057

>  <oscillator_strength_4>
0.0

>  <open_babel_can_smiles>
CSC1=NC(=[N]=C([N]1)C)C

>  <mulliken_charges>
19
1   -0.503264
2   -0.503154
3   -0.589914
4   0.419626
5   0.419532
6   0.190997
7   -0.440037
8   -0.397839
9   -0.397915
10   0.145969
11   0.178098
12   0.18421
13   0.180473
14   0.178045
15   0.180506
16   0.184179
17   0.18835
18   0.191054
19   0.191084

>  <lowdin_charges>
19
1   -0.446848
2   -0.446805
3   -0.535697
4   0.121677
5   0.121739
6   -0.003643
7   -0.180272
8   -0.17151
9   -0.171766
10   0.141185
11   0.170898
12   0.179185
13   0.177417
14   0.172141
15   0.177069
16   0.178964
17   0.178078
18   0.169845
19   0.168343

$$$$

