PCCDB-ID:  7091
public computational chemistry database (PCCDB) project, http://pccdb.org

 20 21  0  0  0  0  0  0  0  0999 V2000
   -2.4218   -0.7522   -0.0025 C   0  0  0  0  0  0  0  0  0  0  0  0
   -2.4449    0.6620    0.0002 C   0  0  0  0  0  0  0  0  0  0  0  0
   -1.2194   -1.4265   -0.0137 C   0  0  0  0  0  0  0  0  0  0  0  0
   -1.2652    1.3753   -0.0082 C   0  0  0  0  0  0  0  0  0  0  0  0
    1.2697   -1.3824   -0.0326 C   0  0  0  0  0  0  0  0  0  0  0  0
    1.2241    1.4127   -0.0263 C   0  0  0  0  0  0  0  0  0  0  0  0
    0.0113   -0.7210   -0.0214 C   0  0  0  0  0  0  0  0  0  0  0  0
   -0.0121    0.7104   -0.0184 C   0  0  0  0  0  0  0  0  0  0  0  0
    2.4523   -0.6805   -0.0395 C   0  0  0  0  0  0  0  0  0  0  0  0
    2.4290    0.7499   -0.0361 C   0  0  0  0  0  0  0  0  0  0  0  0
    3.6874   -1.2596   -0.0496 O   0  0  0  0  0  0  0  0  0  0  0  0
    3.6445    1.3691   -0.0429 O   0  0  0  0  0  0  0  0  0  0  0  0
   -3.3564   -1.3064    0.0043 H   0  0  0  0  0  0  0  0  0  0  0  0
   -3.3971    1.1854    0.0087 H   0  0  0  0  0  0  0  0  0  0  0  0
   -1.1992   -2.5141   -0.0151 H   0  0  0  0  0  0  0  0  0  0  0  0
   -1.2805    2.4629   -0.0055 H   0  0  0  0  0  0  0  0  0  0  0  0
    1.2935   -2.4714   -0.0346 H   0  0  0  0  0  0  0  0  0  0  0  0
    1.2121    2.5019   -0.0227 H   0  0  0  0  0  0  0  0  0  0  0  0
    3.5729   -2.2229   -0.0471 H   0  0  0  0  0  0  0  0  0  0  0  0
    3.4987    2.3282   -0.0414 H   0  0  0  0  0  0  0  0  0  0  0  0
  1  2  1  0  0  0  0
  1 13  1  0  0  0  0
  2 14  1  0  0  0  0
  3  1  2  0  0  0  0
  4 16  1  0  0  0  0
  4  2  2  0  0  0  0
  5  7  2  0  0  0  0
  6 18  1  0  0  0  0
  6  8  2  0  0  0  0
  7  8  1  0  0  0  0
  7  3  1  0  0  0  0
  8  4  1  0  0  0  0
  9 10  2  0  0  0  0
  9  5  1  0  0  0  0
 10  6  1  0  0  0  0
 11 19  1  0  0  0  0
 11  9  1  0  0  0  0
 12 20  1  0  0  0  0
 12 10  1  0  0  0  0
 15  3  1  0  0  0  0
 17  5  1  0  0  0  0
M  END
>  <HBA>
2

>  <HBD>
2

>  <TPSA>
40.46

>  <cid>
7091

>  <dipole>
0.51

>  <excitation_energy_1>
4.236

>  <excitation_energy_2>
4.311

>  <excitation_energy_3>
4.916

>  <excitation_energy_4>
4.967

>  <homo_energy>
-5.562

>  <homo_lumo_gap>
4.806

>  <logP>
2.251

>  <lumo_energy>
-0.756

>  <melting_point>
129.6

>  <molecular_refractivity>
47.99

>  <oscillator_strength_1>
0.0496

>  <oscillator_strength_2>
0.0395

>  <oscillator_strength_3>
0.0

>  <oscillator_strength_4>
0.0002

>  <open_babel_can_smiles>
Oc1cc2ccccc2cc1O

>  <mulliken_charges>
20
1   -0.138299
2   -0.138367
3   -0.198746
4   -0.198672
5   -0.284394
6   -0.284531
7   0.14251
8   0.14263
9   0.333601
10   0.333431
11   -0.631667
12   -0.631607
13   0.125475
14   0.125446
15   0.123273
16   0.123267
17   0.118899
18   0.118937
19   0.409404
20   0.409409

>  <lowdin_charges>
20
1   -0.164724
2   -0.164499
3   -0.160166
4   -0.16015
5   -0.215506
6   -0.215449
7   -0.001668
8   -0.001718
9   0.084025
10   0.083825
11   -0.361248
12   -0.361218
13   0.156999
14   0.15681
15   0.152307
16   0.152297
17   0.152191
18   0.152188
19   0.357776
20   0.357928

$$$$

