PCCDB-ID:  15862
public computational chemistry database (PCCDB) project, http://pccdb.org

 24 24  0  0  0  0  0  0  0  0999 V2000
    2.8153   -1.2148   -2.9401 C   0  0  0  0  0  0  0  0  0  0  0  0
    2.7296   -1.7851   -1.5321 C   0  0  0  0  0  0  0  0  0  0  0  0
    7.5569    1.9685    2.6069 C   0  0  0  0  0  0  0  0  0  0  0  0
    5.8218    0.7267    1.1723 C   0  0  0  0  0  0  0  0  0  0  0  0
    8.8382    1.5868    3.0760 C   0  0  0  0  0  0  0  0  0  0  0  0
    5.4607   -0.3754    0.4887 C   0  0  0  0  0  0  0  0  0  0  0  0
    7.0609    0.9055    1.8766 C   0  0  0  0  0  0  0  0  0  0  0  0
    9.0290    0.3189    2.5966 C   0  0  0  0  0  0  0  0  0  0  0  0
    4.1466   -0.4179   -0.1915 C   0  0  0  0  0  0  0  0  0  0  0  0
   10.1366   -0.5708    2.7477 N   0  0  0  0  0  0  0  0  0  0  0  0
    3.3296    0.4848   -0.1901 O   0  0  0  0  0  0  0  0  0  0  0  0
   11.0814   -0.1415    3.4178 O   0  0  0  0  0  0  0  0  0  0  0  0
   10.0685   -1.6751    2.2105 O   0  0  0  0  0  0  0  0  0  0  0  0
    3.9747   -1.6044   -0.8145 O   0  0  0  0  0  0  0  0  0  0  0  0
    7.9746   -0.1134    1.8722 O   0  0  0  0  0  0  0  0  0  0  0  0
    1.8885   -1.4302   -3.4840 H   0  0  0  0  0  0  0  0  0  0  0  0
    3.6494   -1.6612   -3.4911 H   0  0  0  0  0  0  0  0  0  0  0  0
    2.9505   -0.1302   -2.9084 H   0  0  0  0  0  0  0  0  0  0  0  0
    2.5821   -2.8676   -1.5452 H   0  0  0  0  0  0  0  0  0  0  0  0
    1.9248   -1.3144   -0.9622 H   0  0  0  0  0  0  0  0  0  0  0  0
    7.0493    2.9072    2.7794 H   0  0  0  0  0  0  0  0  0  0  0  0
    5.1297    1.5646    1.2071 H   0  0  0  0  0  0  0  0  0  0  0  0
    9.5349    2.1476    3.6798 H   0  0  0  0  0  0  0  0  0  0  0  0
    6.1022   -1.2470    0.4126 H   0  0  0  0  0  0  0  0  0  0  0  0
  1 18  1  0  0  0  0
  1  2  1  0  0  0  0
  2 20  1  0  0  0  0
  2 14  1  0  0  0  0
  3 21  1  0  0  0  0
  3  5  1  0  0  0  0
  4 22  1  0  0  0  0
  4  7  1  0  0  0  0
  5 23  1  0  0  0  0
  6  4  2  0  0  0  0
  7  3  2  0  0  0  0
  8 10  1  0  0  0  0
  8  5  2  0  0  0  0
  9 11  2  0  0  0  0
  9  6  1  0  0  0  0
 10 12  2  0  0  0  0
 13 10  2  0  0  0  0
 14  9  1  0  0  0  0
 15  7  1  0  0  0  0
 15  8  1  0  0  0  0
 16  1  1  0  0  0  0
 17  1  1  0  0  0  0
 19  2  1  0  0  0  0
 24  6  1  0  0  0  0
M  END
>  <HBA>
3

>  <HBD>
0

>  <TPSA>
85.26

>  <cid>
15862

>  <dipole>
3.63

>  <excitation_energy_1>
3.578

>  <excitation_energy_2>
3.653

>  <excitation_energy_3>
3.889

>  <excitation_energy_4>
4.158

>  <homo_energy>
-6.836

>  <homo_lumo_gap>
3.848

>  <logP>
2.287

>  <lumo_energy>
-2.988

>  <melting_point>
76.32

>  <molecular_refractivity>
53.33

>  <oscillator_strength_1>
0.5419

>  <oscillator_strength_2>
0.0

>  <oscillator_strength_3>
0.0001

>  <oscillator_strength_4>
0.0003

>  <open_babel_can_smiles>
CCOC(=O)/C=C/c1ccc(o1)N(=O)=O

>  <mulliken_charges>
24
1   -0.463253
2   -0.04627
3   -0.20435
4   -0.157036
5   -0.141539
6   -0.204513
7   0.373248
8   0.535472
9   0.632965
10   0.332883
11   -0.49713
12   -0.40038
13   -0.386092
14   -0.475382
15   -0.454796
16   0.152915
17   0.160216
18   0.176958
19   0.157042
20   0.172538
21   0.174027
22   0.186295
23   0.193704
24   0.182478

>  <lowdin_charges>
24
1   -0.454
2   -0.126244
3   -0.181973
4   -0.124938
5   -0.153256
6   -0.174357
7   0.097681
8   0.076694
9   0.195066
10   0.302684
11   -0.278587
12   -0.252723
13   -0.232926
14   -0.187901
15   -0.0616
16   0.160526
17   0.158559
18   0.163963
19   0.152693
20   0.161086
21   0.184656
22   0.190458
23   0.199184
24   0.185254

$$$$

