PCCDB-ID:  24048
public computational chemistry database (PCCDB) project, http://pccdb.org

 17 17  0  0  0  0  0  0  0  0999 V2000
    0.8390   -0.1298   -0.1433 C   0  0  0  0  0  0  0  0  0  0  0  0
    2.7689   -2.5373    0.0769 C   0  0  0  0  0  0  0  0  0  0  0  0
    4.4505   -0.6608    0.1242 C   0  0  0  0  0  0  0  0  0  0  0  0
    2.3260   -0.0414   -0.0438 C   0  0  0  0  0  0  0  0  0  0  0  0
    3.2058    1.0311   -0.0211 C   0  0  0  0  0  0  0  0  0  0  0  0
    4.5096    0.6452    0.0844 N   0  0  0  0  0  0  0  0  0  0  0  0
    3.1588   -1.1344    0.0499 N   0  0  0  0  0  0  0  0  0  0  0  0
    2.8338    2.4184   -0.0921 N   0  0  0  0  0  0  0  0  0  0  0  0
    1.6222    2.6589   -0.2180 O   0  0  0  0  0  0  0  0  0  0  0  0
    3.7154    3.2681   -0.0259 O   0  0  0  0  0  0  0  0  0  0  0  0
    0.3681    0.5181    0.6003 H   0  0  0  0  0  0  0  0  0  0  0  0
    0.4868   -1.1548    0.0040 H   0  0  0  0  0  0  0  0  0  0  0  0
    0.4919    0.2204   -1.1215 H   0  0  0  0  0  0  0  0  0  0  0  0
    3.6747   -3.1445    0.1273 H   0  0  0  0  0  0  0  0  0  0  0  0
    2.2164   -2.8051   -0.8281 H   0  0  0  0  0  0  0  0  0  0  0  0
    2.1511   -2.7543    0.9535 H   0  0  0  0  0  0  0  0  0  0  0  0
    5.2961   -1.3313    0.2038 H   0  0  0  0  0  0  0  0  0  0  0  0
  1  4  1  0  0  0  0
  1 12  1  0  0  0  0
  1 11  1  0  0  0  0
  2 14  1  0  0  0  0
  2 16  1  0  0  0  0
  3 17  1  0  0  0  0
  4  5  2  0  0  0  0
  4  7  1  0  0  0  0
  5  6  1  0  0  0  0
  6  3  2  0  0  0  0
  7  2  1  0  0  0  0
  7  3  1  0  0  0  0
  8 10  2  0  0  0  0
  8  5  1  0  0  0  0
  9  8  2  0  0  0  0
 13  1  1  0  0  0  0
 15  2  1  0  0  0  0
M  END
>  <HBA>
2

>  <HBD>
0

>  <TPSA>
63.64

>  <cid>
24048

>  <dipole>
8.16

>  <excitation_energy_1>
3.841

>  <excitation_energy_2>
4.384

>  <excitation_energy_3>
4.432

>  <excitation_energy_4>
5.137

>  <homo_energy>
-6.808

>  <homo_lumo_gap>
5.048

>  <logP>
1.16

>  <lumo_energy>
-1.761

>  <melting_point>
65.62

>  <molecular_refractivity>
37.28

>  <oscillator_strength_1>
0.0004

>  <oscillator_strength_2>
0.0222

>  <oscillator_strength_3>
0.1382

>  <oscillator_strength_4>
0.001

>  <open_babel_can_smiles>
O=N(=O)c1ncn(c1C)C

>  <mulliken_charges>
17
1   -0.508456
2   -0.33355
3   0.208001
4   0.349193
5   0.336921
6   -0.43714
7   -0.432814
8   0.353935
9   -0.432146
10   -0.385127
11   0.20337
12   0.14935
13   0.19578
14   0.18518
15   0.189752
16   0.189841
17   0.167909

>  <lowdin_charges>
17
1   -0.441721
2   -0.348495
3   -0.089074
4   0.028986
5   -0.019245
6   -0.144332
7   -0.003765
8   0.307338
9   -0.27898
10   -0.230772
11   0.188784
12   0.156829
13   0.182595
14   0.17578
15   0.171069
16   0.170534
17   0.174472

$$$$

