PCCDB-ID:  27909
public computational chemistry database (PCCDB) project, http://pccdb.org

 13 12  0  0  1  0  0  0  0  0999 V2000
    1.2203    0.7121   -0.0124 C   0  0  0  0  0  0  0  0  0  0  0  0
    2.8641   -2.2387    1.1310 C   0  0  0  0  0  0  0  0  0  0  0  0
    2.2392   -0.1347   -0.1442 C   0  0  0  0  0  0  0  0  0  0  0  0
    4.4535   -0.3529    0.8900 C   0  0  0  0  0  0  0  0  0  0  0  0
    3.0270   -0.7041    1.0202 C   0  0  2  0  0  0  0  0  0  0  0  0
    5.5780   -0.0885    0.7726 N   0  0  0  0  0  0  0  0  0  0  0  0
    0.6683    1.0745   -0.8748 H   0  0  0  0  0  0  0  0  0  0  0  0
    0.8989    1.0780    0.9605 H   0  0  0  0  0  0  0  0  0  0  0  0
    1.8078   -2.4814    1.2793 H   0  0  0  0  0  0  0  0  0  0  0  0
    3.4411   -2.6328    1.9730 H   0  0  0  0  0  0  0  0  0  0  0  0
    3.2089   -2.7327    0.2171 H   0  0  0  0  0  0  0  0  0  0  0  0
    2.5445   -0.4817   -1.1308 H   0  0  0  0  0  0  0  0  0  0  0  0
    2.6642   -0.2426    1.9478 H   0  0  0  0  0  0  0  0  0  0  0  0
  1  8  1  0  0  0  0
  2  9  1  0  0  0  0
  2 10  1  0  0  0  0
  3  1  2  0  0  0  0
  3  5  1  0  0  0  0
  4  5  1  0  0  0  0
  5  2  1  0  0  0  0
  5 13  1  1  0  0  0
  6  4  3  0  0  0  0
  7  1  1  0  0  0  0
 11  2  1  0  0  0  0
 12  3  1  0  0  0  0
M  END
>  <HBA>
1

>  <HBD>
0

>  <TPSA>
23.79

>  <cid>
27909

>  <dipole>
3.93

>  <excitation_energy_1>
6.852

>  <excitation_energy_2>
6.998

>  <excitation_energy_3>
7.222

>  <excitation_energy_4>
7.333

>  <homo_energy>
-7.614

>  <homo_lumo_gap>
7.385

>  <logP>
1.332

>  <lumo_energy>
-0.229

>  <melting_point>
-12.6

>  <molecular_refractivity>
25.42

>  <oscillator_strength_1>
0.0359

>  <oscillator_strength_2>
0.3072

>  <oscillator_strength_3>
0.0124

>  <oscillator_strength_4>
0.0136

>  <open_babel_can_smiles>
C[C@@H](C#N)C=C

>  <mulliken_charges>
13
1   -0.334428
2   -0.442321
3   -0.032364
4   0.349848
5   -0.213663
6   -0.468386
7   0.155745
8   0.147489
9   0.166007
10   0.170259
11   0.167783
12   0.14933
13   0.1847

>  <lowdin_charges>
13
1   -0.322987
2   -0.430978
3   -0.140289
4   -0.01763
5   -0.117437
6   -0.127981
7   0.16868
8   0.159966
9   0.161158
10   0.165607
11   0.162647
12   0.162689
13   0.176554

$$$$

