PCCDB-ID:  47309
public computational chemistry database (PCCDB) project, http://pccdb.org

 30 30  0  0  0  0  0  0  0  0999 V2000
    5.7878    5.2099    0.5387 C   0  0  0  0  0  0  0  0  0  0  0  0
    5.7487    4.3374   -0.4601 C   0  0  0  0  0  0  0  0  0  0  0  0
    0.6063   -5.2030   -3.7262 C   0  0  0  0  0  0  0  0  0  0  0  0
    0.1125   -4.5140   -2.6178 C   0  0  0  0  0  0  0  0  0  0  0  0
    1.8527   -4.8586   -4.2540 C   0  0  0  0  0  0  0  0  0  0  0  0
    0.8615   -3.4855   -2.0440 C   0  0  0  0  0  0  0  0  0  0  0  0
    2.6052   -3.8378   -3.6734 C   0  0  0  0  0  0  0  0  0  0  0  0
    5.7823    0.6513   -0.7339 C   0  0  0  0  0  0  0  0  0  0  0  0
    2.9340   -2.0726   -1.8808 C   0  0  0  0  0  0  0  0  0  0  0  0
    2.1148   -3.1413   -2.5621 C   0  0  0  0  0  0  0  0  0  0  0  0
    5.7401    2.0986   -1.2019 C   0  0  0  0  0  0  0  0  0  0  0  0
    4.5684   -0.4540   -2.4407 C   0  0  0  0  0  0  0  0  0  0  0  0
    4.6712   -0.1643   -1.1967 N   0  0  0  0  0  0  0  0  0  0  0  0
    5.7072    2.4393   -2.3747 O   0  0  0  0  0  0  0  0  0  0  0  0
    5.2717    0.0026   -3.4880 O   0  0  0  0  0  0  0  0  0  0  0  0
    5.7612    2.9736   -0.1769 O   0  0  0  0  0  0  0  0  0  0  0  0
    3.6739   -1.3492   -2.8805 O   0  0  0  0  0  0  0  0  0  0  0  0
    5.7767    6.2721    0.3238 H   0  0  0  0  0  0  0  0  0  0  0  0
    5.8298    4.8926    1.5753 H   0  0  0  0  0  0  0  0  0  0  0  0
    5.7047    4.5768   -1.5152 H   0  0  0  0  0  0  0  0  0  0  0  0
    0.0222   -5.9996   -4.1791 H   0  0  0  0  0  0  0  0  0  0  0  0
   -0.8599   -4.7688   -2.2047 H   0  0  0  0  0  0  0  0  0  0  0  0
    2.2410   -5.3864   -5.1212 H   0  0  0  0  0  0  0  0  0  0  0  0
    0.4666   -2.9432   -1.1874 H   0  0  0  0  0  0  0  0  0  0  0  0
    3.5695   -3.5640   -4.0899 H   0  0  0  0  0  0  0  0  0  0  0  0
    5.7910    0.6396    0.3579 H   0  0  0  0  0  0  0  0  0  0  0  0
    6.7523    0.2546   -1.0801 H   0  0  0  0  0  0  0  0  0  0  0  0
    3.6453   -2.4996   -1.1634 H   0  0  0  0  0  0  0  0  0  0  0  0
    2.2991   -1.3755   -1.3245 H   0  0  0  0  0  0  0  0  0  0  0  0
    5.5959    0.9080   -3.2674 H   0  0  0  0  0  0  0  0  0  0  0  0
  1 19  1  0  0  0  0
  2 16  1  0  0  0  0
  2  1  2  0  0  0  0
  3  4  1  0  0  0  0
  4 22  1  0  0  0  0
  4  6  2  0  0  0  0
  5  3  2  0  0  0  0
  5  7  1  0  0  0  0
  6 24  1  0  0  0  0
  7 10  2  0  0  0  0
  8 26  1  0  0  0  0
  9 29  1  0  0  0  0
  9 28  1  0  0  0  0
 10  6  1  0  0  0  0
 10  9  1  0  0  0  0
 11  8  1  0  0  0  0
 11 16  1  0  0  0  0
 12 13  2  0  0  0  0
 13  8  1  0  0  0  0
 14 11  2  0  0  0  0
 15 30  1  0  0  0  0
 15 12  1  0  0  0  0
 17 12  1  0  0  0  0
 17  9  1  0  0  0  0
 18  1  1  0  0  0  0
 20  2  1  0  0  0  0
 21  3  1  0  0  0  0
 23  5  1  0  0  0  0
 25  7  1  0  0  0  0
 27  8  1  0  0  0  0
M  END
>  <HBA>
5

>  <HBD>
1

>  <TPSA>
64.63

>  <cid>
47309

>  <dipole>
2.75

>  <excitation_energy_1>
4.838

>  <excitation_energy_2>
4.991

>  <excitation_energy_3>
5.183

>  <excitation_energy_4>
5.193

>  <homo_energy>
-6.539

>  <homo_lumo_gap>
5.557

>  <logP>
1.99

>  <lumo_energy>
-0.982

>  <melting_point>
45.63

>  <molecular_refractivity>
60.73

>  <oscillator_strength_1>
0.031

>  <oscillator_strength_2>
0.0126

>  <oscillator_strength_3>
0.0264

>  <oscillator_strength_4>
0.002

>  <open_babel_can_smiles>
C=COC(=O)C/N=C(/OCc1ccccc1)\O

>  <mulliken_charges>
30
1   -0.379066
2   0.146979
3   -0.127261
4   -0.128497
5   -0.132258
6   -0.181647
7   -0.161484
8   -0.254399
9   -0.092569
10   0.127256
11   0.63811
12   0.689387
13   -0.472811
14   -0.493285
15   -0.611798
16   -0.436255
17   -0.455205
18   0.164663
19   0.166271
20   0.192718
21   0.128627
22   0.129199
23   0.130909
24   0.125227
25   0.146926
26   0.181627
27   0.174602
28   0.171077
29   0.16242
30   0.450536

>  <lowdin_charges>
30
1   -0.341316
2   -0.032892
3   -0.158913
4   -0.154611
5   -0.153358
6   -0.165451
7   -0.154985
8   -0.218418
9   -0.120714
10   -0.01641
11   0.206947
12   0.192963
13   -0.288382
14   -0.275895
15   -0.367567
16   -0.126328
17   -0.169088
18   0.17658
19   0.174221
20   0.177279
21   0.15836
22   0.157132
23   0.158644
24   0.155962
25   0.166309
26   0.168912
27   0.16301
28   0.161617
29   0.158772
30   0.36762

$$$$

