PCCDB-ID:  54790
public computational chemistry database (PCCDB) project, http://pccdb.org

 26 26  0  0  0  0  0  0  0  0999 V2000
    0.6584   -0.2063    0.0318 C   0  0  0  0  0  0  0  0  0  0  0  0
    2.9209   -1.3553    0.0977 C   0  0  0  0  0  0  0  0  0  0  0  0
    2.8570    0.9847   -0.4032 C   0  0  0  0  0  0  0  0  0  0  0  0
    4.3164   -1.3543   -0.0065 C   0  0  0  0  0  0  0  0  0  0  0  0
    4.2409    1.0082   -0.5122 C   0  0  0  0  0  0  0  0  0  0  0  0
    8.5974   -0.7583   -0.4279 C   0  0  0  0  0  0  0  0  0  0  0  0
    7.1480   -1.1927   -0.2477 C   0  0  0  0  0  0  0  0  0  0  0  0
    2.1641   -0.1981   -0.0944 C   0  0  0  0  0  0  0  0  0  0  0  0
    4.9834   -0.1650   -0.3123 C   0  0  0  0  0  0  0  0  0  0  0  0
   10.8618   -1.4775   -0.5236 N   0  0  0  0  0  0  0  0  0  0  0  0
    9.4771   -1.9131   -0.2315 N   0  0  0  0  0  0  0  0  0  0  0  0
    6.3402   -0.0386   -0.4389 O   0  0  0  0  0  0  0  0  0  0  0  0
    0.2700   -1.2270    0.1110 H   0  0  0  0  0  0  0  0  0  0  0  0
    0.1785    0.2658   -0.8342 H   0  0  0  0  0  0  0  0  0  0  0  0
    0.3233    0.3432    0.9215 H   0  0  0  0  0  0  0  0  0  0  0  0
    2.4162   -2.2891    0.3364 H   0  0  0  0  0  0  0  0  0  0  0  0
    2.2997    1.9057   -0.5620 H   0  0  0  0  0  0  0  0  0  0  0  0
    4.8622   -2.2779    0.1502 H   0  0  0  0  0  0  0  0  0  0  0  0
    4.7721    1.9241   -0.7531 H   0  0  0  0  0  0  0  0  0  0  0  0
    8.8322   -0.0109    0.3410 H   0  0  0  0  0  0  0  0  0  0  0  0
    8.7324   -0.2733   -1.4074 H   0  0  0  0  0  0  0  0  0  0  0  0
    6.9999   -1.6114    0.7565 H   0  0  0  0  0  0  0  0  0  0  0  0
    6.8793   -1.9701   -0.9803 H   0  0  0  0  0  0  0  0  0  0  0  0
   11.4280   -2.2868   -0.2550 H   0  0  0  0  0  0  0  0  0  0  0  0
   11.0638   -0.8034    0.2203 H   0  0  0  0  0  0  0  0  0  0  0  0
    9.2797   -2.5563   -1.0016 H   0  0  0  0  0  0  0  0  0  0  0  0
  1 13  1  0  0  0  0
  1 15  1  0  0  0  0
  2 16  1  0  0  0  0
  3  8  1  0  0  0  0
  4  2  1  0  0  0  0
  4 18  1  0  0  0  0
  5  3  2  0  0  0  0
  5  9  1  0  0  0  0
  6  7  1  0  0  0  0
  6 11  1  0  0  0  0
  6 20  1  0  0  0  0
  7 22  1  0  0  0  0
  8  1  1  0  0  0  0
  8  2  2  0  0  0  0
  9  4  2  0  0  0  0
 10 24  1  0  0  0  0
 10 11  1  0  0  0  0
 10 25  1  0  0  0  0
 12  9  1  0  0  0  0
 12  7  1  0  0  0  0
 14  1  1  0  0  0  0
 17  3  1  0  0  0  0
 19  5  1  0  0  0  0
 21  6  1  0  0  0  0
 23  7  1  0  0  0  0
 26 11  1  0  0  0  0
M  END
>  <HBA>
3

>  <HBD>
2

>  <TPSA>
47.28

>  <cid>
54790

>  <dipole>
1.27

>  <excitation_energy_1>
4.839

>  <excitation_energy_2>
4.905

>  <excitation_energy_3>
5.156

>  <excitation_energy_4>
5.283

>  <homo_energy>
-5.483

>  <homo_lumo_gap>
5.616

>  <logP>
1.928

>  <lumo_energy>
0.133

>  <melting_point>
94.02

>  <molecular_refractivity>
48.22

>  <oscillator_strength_1>
0.0025

>  <oscillator_strength_2>
0.0293

>  <oscillator_strength_3>
0.0015

>  <oscillator_strength_4>
0.0069

>  <open_babel_can_smiles>
NNCCOc1ccc(cc1)C

>  <mulliken_charges>
26
1   -0.530171
2   -0.195254
3   -0.182018
4   -0.191618
5   -0.173807
6   -0.134678
7   -0.036241
8   0.179354
9   0.375544
10   -0.590914
11   -0.478596
12   -0.527157
13   0.152253
14   0.157181
15   0.160238
16   0.120834
17   0.121948
18   0.13193
19   0.1346
20   0.150732
21   0.149009
22   0.153889
23   0.13294
24   0.306432
25   0.3058
26   0.30777

>  <lowdin_charges>
26
1   -0.442166
2   -0.159672
3   -0.156822
4   -0.21474
5   -0.181358
6   -0.215557
7   -0.130348
8   -0.017802
9   0.100662
10   -0.494707
11   -0.322274
12   -0.203112
13   0.154509
14   0.158203
15   0.158779
16   0.153931
17   0.155212
18   0.162039
19   0.165349
20   0.148124
21   0.137978
22   0.144667
23   0.135039
24   0.256224
25   0.254674
26   0.253165

$$$$

