PCCDB-ID:  34666
public computational chemistry database (PCCDB) project, http://pccdb.org

 36 35  0  0  0  0  0  0  0  0999 V2000
    1.2340   -0.0312    0.4402 C   0  0  0  0  0  0  0  0  0  0  0  0
    3.3934   -1.3293    0.1204 C   0  0  0  0  0  0  0  0  0  0  0  0
   12.1476    4.8995   -5.0074 C   0  0  0  0  0  0  0  0  0  0  0  0
   10.6293    4.9737   -5.0496 C   0  0  0  0  0  0  0  0  0  0  0  0
    8.7455    3.9961   -3.9792 C   0  0  0  0  0  0  0  0  0  0  0  0
    8.3919    3.0991   -2.8017 C   0  0  0  0  0  0  0  0  0  0  0  0
    6.5260    2.1034   -1.7514 C   0  0  0  0  0  0  0  0  0  0  0  0
    5.0125    2.0029   -1.8752 C   0  0  0  0  0  0  0  0  0  0  0  0
    3.1469    1.0103   -0.8110 C   0  0  0  0  0  0  0  0  0  0  0  0
    2.7618    0.0548    0.3195 C   0  0  0  0  0  0  0  0  0  0  0  0
   12.6020    3.5691   -5.1835 O   0  0  0  0  0  0  0  0  0  0  0  0
   10.1527    4.1523   -3.9919 O   0  0  0  0  0  0  0  0  0  0  0  0
    6.9890    2.9291   -2.8036 O   0  0  0  0  0  0  0  0  0  0  0  0
    4.5552    1.1773   -0.8244 O   0  0  0  0  0  0  0  0  0  0  0  0
    0.9453   -0.6976    1.2605 H   0  0  0  0  0  0  0  0  0  0  0  0
    0.7861   -0.4280   -0.4802 H   0  0  0  0  0  0  0  0  0  0  0  0
    0.7867    0.9512    0.6340 H   0  0  0  0  0  0  0  0  0  0  0  0
    3.1715   -1.9874    0.9686 H   0  0  0  0  0  0  0  0  0  0  0  0
    4.4794   -1.2513    0.0186 H   0  0  0  0  0  0  0  0  0  0  0  0
    3.0010   -1.8095   -0.7860 H   0  0  0  0  0  0  0  0  0  0  0  0
   12.5025    5.3236   -4.0539 H   0  0  0  0  0  0  0  0  0  0  0  0
   12.5723    5.4961   -5.8216 H   0  0  0  0  0  0  0  0  0  0  0  0
   10.2611    4.5966   -6.0169 H   0  0  0  0  0  0  0  0  0  0  0  0
   10.2790    6.0119   -4.9261 H   0  0  0  0  0  0  0  0  0  0  0  0
    8.2435    4.9700   -3.8698 H   0  0  0  0  0  0  0  0  0  0  0  0
    8.3901    3.5392   -4.9161 H   0  0  0  0  0  0  0  0  0  0  0  0
    8.7350    3.5625   -1.8627 H   0  0  0  0  0  0  0  0  0  0  0  0
    8.9092    2.1312   -2.9037 H   0  0  0  0  0  0  0  0  0  0  0  0
    6.9719    1.0978   -1.8131 H   0  0  0  0  0  0  0  0  0  0  0  0
    6.7918    2.5267   -0.7697 H   0  0  0  0  0  0  0  0  0  0  0  0
    4.7468    1.5809   -2.8581 H   0  0  0  0  0  0  0  0  0  0  0  0
    4.5676    3.0096   -1.8149 H   0  0  0  0  0  0  0  0  0  0  0  0
    2.6542    1.9881   -0.6712 H   0  0  0  0  0  0  0  0  0  0  0  0
    2.8036    0.6068   -1.7808 H   0  0  0  0  0  0  0  0  0  0  0  0
    3.1607    0.4864    1.2486 H   0  0  0  0  0  0  0  0  0  0  0  0
   12.0880    3.0370   -4.5535 H   0  0  0  0  0  0  0  0  0  0  0  0
  1 17  1  0  0  0  0
  1 15  1  0  0  0  0
  2 10  1  0  0  0  0
  2 18  1  0  0  0  0
  3 21  1  0  0  0  0
  4  3  1  0  0  0  0
  4 24  1  0  0  0  0
  4 12  1  0  0  0  0
  5 25  1  0  0  0  0
  5  6  1  0  0  0  0
  6 27  1  0  0  0  0
  7 30  1  0  0  0  0
  8 32  1  0  0  0  0
  8  7  1  0  0  0  0
  8 14  1  0  0  0  0
  9 33  1  0  0  0  0
  9 10  1  0  0  0  0
 10  1  1  0  0  0  0
 10 35  1  0  0  0  0
 11  3  1  0  0  0  0
 11 36  1  0  0  0  0
 12  5  1  0  0  0  0
 13  6  1  0  0  0  0
 13  7  1  0  0  0  0
 14  9  1  0  0  0  0
 16  1  1  0  0  0  0
 19  2  1  0  0  0  0
 20  2  1  0  0  0  0
 22  3  1  0  0  0  0
 23  4  1  0  0  0  0
 26  5  1  0  0  0  0
 28  6  1  0  0  0  0
 29  7  1  0  0  0  0
 31  8  1  0  0  0  0
 34  9  1  0  0  0  0
M  END
>  <HBA>
4

>  <HBD>
1

>  <TPSA>
47.92

>  <cid>
34666

>  <dipole>
2.38

>  <excitation_energy_1>
6.592

>  <excitation_energy_2>
6.757

>  <excitation_energy_3>
6.835

>  <excitation_energy_4>
6.894

>  <homo_energy>
-6.928

>  <homo_lumo_gap>
8.866

>  <logP>
0.684

>  <lumo_energy>
1.937

>  <melting_point>
-37.45

>  <molecular_refractivity>
54.6

>  <oscillator_strength_1>
0.021

>  <oscillator_strength_2>
0.0078

>  <oscillator_strength_3>
0.0082

>  <oscillator_strength_4>
0.0039

>  <open_babel_can_smiles>
OCCOCCOCCOCC(C)C

>  <mulliken_charges>
36
1   -0.450219
2   -0.442622
3   -0.035122
4   -0.031793
5   -0.022593
6   -0.02032
7   -0.023137
8   -0.020436
9   0.00634
10   -0.090823
11   -0.620794
12   -0.499162
13   -0.491203
14   -0.488985
15   0.147606
16   0.140978
17   0.14193
18   0.13858
19   0.162645
20   0.133734
21   0.130621
22   0.145636
23   0.134173
24   0.123278
25   0.135537
26   0.137863
27   0.134194
28   0.13033
29   0.133721
30   0.133983
31   0.131181
32   0.129829
33   0.116727
34   0.113287
35   0.136098
36   0.39894

>  <lowdin_charges>
36
1   -0.445748
2   -0.445626
3   -0.139474
4   -0.146334
5   -0.131692
6   -0.131571
7   -0.131066
8   -0.131397
9   -0.127445
10   -0.127057
11   -0.470203
12   -0.282904
13   -0.272964
14   -0.273415
15   0.153626
16   0.146736
17   0.147996
18   0.148381
19   0.156857
20   0.143978
21   0.132449
22   0.151914
23   0.134948
24   0.131471
25   0.135544
26   0.136669
27   0.134518
28   0.13236
29   0.133228
30   0.133841
31   0.132062
32   0.131135
33   0.126453
34   0.123653
35   0.144069
36   0.345009

$$$$

