PCCDB-ID:  13206
public computational chemistry database (PCCDB) project, http://pccdb.org

 14 14  0  0  0  0  0  0  0  0999 V2000
    0.9658    0.1380   -0.1718 C   0  0  0  0  0  0  0  0  0  0  0  0
    3.2545   -1.1330    0.0593 C   0  0  0  0  0  0  0  0  0  0  0  0
    4.5940   -0.6532    0.0790 C   0  0  0  0  0  0  0  0  0  0  0  0
    2.4397   -0.0381   -0.0876 C   0  0  0  0  0  0  0  0  0  0  0  0
    4.4887    0.7015   -0.0576 C   0  0  0  0  0  0  0  0  0  0  0  0
    5.4943    1.7106   -0.1108 N   0  0  0  0  0  0  0  0  0  0  0  0
    6.6614    1.3144   -0.0157 O   0  0  0  0  0  0  0  0  0  0  0  0
    5.1369    2.8808   -0.2445 O   0  0  0  0  0  0  0  0  0  0  0  0
    3.1950    1.0954   -0.1602 O   0  0  0  0  0  0  0  0  0  0  0  0
    0.4722   -0.8365   -0.1410 H   0  0  0  0  0  0  0  0  0  0  0  0
    0.6811    0.6442   -1.1014 H   0  0  0  0  0  0  0  0  0  0  0  0
    0.5911    0.7438    0.6618 H   0  0  0  0  0  0  0  0  0  0  0  0
    2.9283   -2.1603    0.1421 H   0  0  0  0  0  0  0  0  0  0  0  0
    5.5122   -1.2116    0.1778 H   0  0  0  0  0  0  0  0  0  0  0  0
  1 10  1  0  0  0  0
  1  4  1  0  0  0  0
  1 12  1  0  0  0  0
  2  3  1  0  0  0  0
  2 13  1  0  0  0  0
  3 14  1  0  0  0  0
  4  2  2  0  0  0  0
  5  3  2  0  0  0  0
  6  5  1  0  0  0  0
  6  7  2  0  0  0  0
  8  6  2  0  0  0  0
  9  4  1  0  0  0  0
  9  5  1  0  0  0  0
 11  1  1  0  0  0  0
M  END
>  <HBA>
1

>  <HBD>
0

>  <TPSA>
58.96

>  <cid>
13206

>  <dipole>
5.68

>  <excitation_energy_1>
3.774

>  <excitation_energy_2>
4.197

>  <excitation_energy_3>
4.291

>  <excitation_energy_4>
5.284

>  <homo_energy>
-6.961

>  <homo_lumo_gap>
4.607

>  <logP>
2.019

>  <lumo_energy>
-2.354

>  <melting_point>
46.18

>  <molecular_refractivity>
32.5

>  <oscillator_strength_1>
0.0

>  <oscillator_strength_2>
0.3137

>  <oscillator_strength_3>
0.0004

>  <oscillator_strength_4>
0.0115

>  <open_babel_can_smiles>
Cc1ccc(o1)N(=O)=O

>  <mulliken_charges>
14
1   -0.533804
2   -0.212668
3   -0.138324
4   0.36862
5   0.519207
6   0.333392
7   -0.408028
8   -0.393111
9   -0.43559
10   0.176346
11   0.189719
12   0.189599
13   0.158202
14   0.186439

>  <lowdin_charges>
14
1   -0.441342
2   -0.208667
3   -0.152385
4   0.105013
5   0.062794
6   0.300732
7   -0.258686
8   -0.240532
9   -0.070442
10   0.174399
11   0.17893
12   0.179226
13   0.176425
14   0.194535

$$$$

