PCCDB-ID:  71208
public computational chemistry database (PCCDB) project, http://pccdb.org

 21 22  0  0  0  0  0  0  0  0999 V2000
    0.9668    0.1227   -0.0409 C   0  0  0  0  0  0  0  0  0  0  0  0
    3.3563   -3.5255   -0.0899 C   0  0  0  0  0  0  0  0  0  0  0  0
    2.5897   -2.3833   -0.0744 C   0  0  0  0  0  0  0  0  0  0  0  0
    3.1906    1.2981   -0.0415 C   0  0  0  0  0  0  0  0  0  0  0  0
    4.6038    1.3260   -0.0475 C   0  0  0  0  0  0  0  0  0  0  0  0
    4.7644   -3.3965   -0.0965 C   0  0  0  0  0  0  0  0  0  0  0  0
    2.4769    0.1187   -0.0497 C   0  0  0  0  0  0  0  0  0  0  0  0
    3.2138   -1.1084   -0.0653 C   0  0  0  0  0  0  0  0  0  0  0  0
    5.3330    0.1554   -0.0632 C   0  0  0  0  0  0  0  0  0  0  0  0
    4.6477   -1.1039   -0.0726 C   0  0  0  0  0  0  0  0  0  0  0  0
    5.3955   -2.2394   -0.0882 N   0  0  0  0  0  0  0  0  0  0  0  0
    6.6924    0.1212   -0.0706 O   0  0  0  0  0  0  0  0  0  0  0  0
    0.5840    1.1479   -0.0430 H   0  0  0  0  0  0  0  0  0  0  0  0
    0.5582   -0.3785    0.8465 H   0  0  0  0  0  0  0  0  0  0  0  0
    0.5476   -0.3863   -0.9187 H   0  0  0  0  0  0  0  0  0  0  0  0
    2.8990   -4.5107   -0.0970 H   0  0  0  0  0  0  0  0  0  0  0  0
    1.5061   -2.4506   -0.0690 H   0  0  0  0  0  0  0  0  0  0  0  0
    2.6554    2.2447   -0.0302 H   0  0  0  0  0  0  0  0  0  0  0  0
    5.1195    2.2846   -0.0400 H   0  0  0  0  0  0  0  0  0  0  0  0
    5.3911   -4.2881   -0.1096 H   0  0  0  0  0  0  0  0  0  0  0  0
    7.0194    1.0349   -0.0666 H   0  0  0  0  0  0  0  0  0  0  0  0
  1 14  1  0  0  0  0
  2  3  1  0  0  0  0
  3 17  1  0  0  0  0
  3  8  2  0  0  0  0
  4 18  1  0  0  0  0
  5  4  1  0  0  0  0
  5 19  1  0  0  0  0
  6  2  2  0  0  0  0
  6 11  1  0  0  0  0
  7  4  2  0  0  0  0
  7  1  1  0  0  0  0
  8  7  1  0  0  0  0
  9  5  2  0  0  0  0
 10  8  1  0  0  0  0
 10  9  1  0  0  0  0
 11 10  2  0  0  0  0
 12 21  1  0  0  0  0
 12  9  1  0  0  0  0
 13  1  1  0  0  0  0
 15  1  1  0  0  0  0
 16  2  1  0  0  0  0
 20  6  1  0  0  0  0
M  END
>  <HBA>
2

>  <HBD>
1

>  <TPSA>
33.12

>  <cid>
71208

>  <dipole>
2.43

>  <excitation_energy_1>
3.774

>  <excitation_energy_2>
4.254

>  <excitation_energy_3>
4.307

>  <excitation_energy_4>
4.921

>  <homo_energy>
-5.57

>  <homo_lumo_gap>
4.389

>  <logP>
2.249

>  <lumo_energy>
-1.181

>  <melting_point>
108.97

>  <molecular_refractivity>
48.73

>  <oscillator_strength_1>
0.0618

>  <oscillator_strength_2>
0.0019

>  <oscillator_strength_3>
0.0079

>  <oscillator_strength_4>
0.0003

>  <open_babel_can_smiles>
Cc1ccc(c2c1cccn2)O

>  <mulliken_charges>
21
1   -0.537658
2   -0.147607
3   -0.1596
4   -0.204299
5   -0.204678
6   0.042887
7   0.132404
8   0.102137
9   0.340616
10   0.195993
11   -0.481848
12   -0.617744
13   0.156941
14   0.160225
15   0.159913
16   0.135318
17   0.139624
18   0.124524
19   0.117909
20   0.138887
21   0.406058

>  <lowdin_charges>
21
1   -0.443168
2   -0.177696
3   -0.131764
4   -0.157438
5   -0.222035
6   -0.088665
7   -0.022623
8   -0.016991
9   0.101939
10   0.020689
11   -0.133661
12   -0.351159
13   0.158236
14   0.158188
15   0.158095
16   0.162917
17   0.161963
18   0.156815
19   0.154287
20   0.155909
21   0.356163

$$$$

