PCCDB-ID:  35986
public computational chemistry database (PCCDB) project, http://pccdb.org

 46 48  0  0  1  0  0  0  0  0999 V2000
    5.9202   -4.4890   -5.2286 C   0  0  0  0  0  0  0  0  0  0  0  0
    4.3276   -2.6245   -4.6464 C   0  0  0  0  0  0  0  0  0  0  0  0
    6.3861   -2.6429   -0.7906 C   0  0  0  0  0  0  0  0  0  0  0  0
   11.4113   -1.3294   -3.9100 C   0  0  0  0  0  0  0  0  0  0  0  0
   11.3266   -2.2497   -1.5696 C   0  0  0  0  0  0  0  0  0  0  0  0
   11.3476    0.2388   -1.9398 C   0  0  0  0  0  0  0  0  0  0  0  0
    7.1947   -1.0104   -2.6640 C   0  0  0  0  0  0  0  0  0  0  0  0
    9.3168   -2.4672   -3.0714 C   0  0  0  0  0  0  0  0  0  0  0  0
    9.3412    0.0113   -3.4400 C   0  0  0  0  0  0  0  0  0  0  0  0
    9.2535   -0.8970   -1.1084 C   0  0  0  0  0  0  0  0  0  0  0  0
    5.7663   -3.1401   -4.5169 C   0  0  0  0  0  0  0  0  0  0  0  0
    6.2166   -2.1460   -2.2323 C   0  0  1  0  0  0  0  0  0  0  0  0
   10.8611   -2.4649   -3.0245 C   0  0  1  0  0  0  0  0  0  0  0  0
   10.8808    0.0227   -3.3930 C   0  0  2  0  0  0  0  0  0  0  0  0
   10.7960   -0.8960   -1.0550 C   0  0  1  0  0  0  0  0  0  0  0  0
    8.7415   -1.1214   -2.5582 C   0  0  1  0  0  0  0  0  0  0  0  0
    6.1328   -3.3265   -3.1075 N   0  0  0  0  0  0  0  0  0  0  0  0
    5.6717   -4.4004   -6.2919 H   0  0  0  0  0  0  0  0  0  0  0  0
    5.2602   -5.2371   -4.7751 H   0  0  0  0  0  0  0  0  0  0  0  0
    6.9511   -4.8594   -5.1581 H   0  0  0  0  0  0  0  0  0  0  0  0
    4.0377   -2.5688   -5.7018 H   0  0  0  0  0  0  0  0  0  0  0  0
    4.2058   -1.6224   -4.2213 H   0  0  0  0  0  0  0  0  0  0  0  0
    3.6371   -3.3000   -4.1283 H   0  0  0  0  0  0  0  0  0  0  0  0
    6.4222   -1.8083   -0.0818 H   0  0  0  0  0  0  0  0  0  0  0  0
    7.3050   -3.2275   -0.6657 H   0  0  0  0  0  0  0  0  0  0  0  0
    5.5457   -3.2925   -0.5271 H   0  0  0  0  0  0  0  0  0  0  0  0
   11.1044   -1.4809   -4.9544 H   0  0  0  0  0  0  0  0  0  0  0  0
   12.5100   -1.3384   -3.8955 H   0  0  0  0  0  0  0  0  0  0  0  0
   12.4240   -2.2706   -1.5175 H   0  0  0  0  0  0  0  0  0  0  0  0
   10.9620   -3.0665   -0.9309 H   0  0  0  0  0  0  0  0  0  0  0  0
   10.9947    1.2119   -1.5706 H   0  0  0  0  0  0  0  0  0  0  0  0
   12.4454    0.2583   -1.8914 H   0  0  0  0  0  0  0  0  0  0  0  0
    6.9012   -0.1092   -2.1040 H   0  0  0  0  0  0  0  0  0  0  0  0
    6.9549   -0.7808   -3.7117 H   0  0  0  0  0  0  0  0  0  0  0  0
    8.9500   -3.2968   -2.4523 H   0  0  0  0  0  0  0  0  0  0  0  0
    8.9745   -2.6540   -4.0993 H   0  0  0  0  0  0  0  0  0  0  0  0
    9.0036   -0.1204   -4.4782 H   0  0  0  0  0  0  0  0  0  0  0  0
    8.9462    0.9811   -3.1040 H   0  0  0  0  0  0  0  0  0  0  0  0
    8.8656    0.0601   -0.7301 H   0  0  0  0  0  0  0  0  0  0  0  0
    8.8693   -1.6769   -0.4418 H   0  0  0  0  0  0  0  0  0  0  0  0
    6.4283   -2.4172   -5.0316 H   0  0  0  0  0  0  0  0  0  0  0  0
    5.2259   -1.6747   -2.2764 H   0  0  0  0  0  0  0  0  0  0  0  0
   11.2322   -3.4318   -3.3906 H   0  0  0  0  0  0  0  0  0  0  0  0
   11.2567    0.8359   -4.0286 H   0  0  0  0  0  0  0  0  0  0  0  0
   11.1198   -0.7452   -0.0163 H   0  0  0  0  0  0  0  0  0  0  0  0
    7.0088   -3.8408   -3.0617 H   0  0  0  0  0  0  0  0  0  0  0  0
  1 20  1  0  0  0  0
  1 19  1  0  0  0  0
  1 11  1  0  0  0  0
  2 11  1  0  0  0  0
  2 22  1  0  0  0  0
  2 23  1  0  0  0  0
  3 25  1  0  0  0  0
  3 26  1  0  0  0  0
  3 24  1  0  0  0  0
  4 28  1  0  0  0  0
  4 14  1  0  0  0  0
  4 13  1  0  0  0  0
  5 29  1  0  0  0  0
  5 15  1  0  0  0  0
  5 30  1  0  0  0  0
  6 32  1  0  0  0  0
  6 31  1  0  0  0  0
  6 15  1  0  0  0  0
  7 12  1  0  0  0  0
  7 33  1  0  0  0  0
  8 13  1  0  0  0  0
  8 16  1  0  0  0  0
  8 35  1  0  0  0  0
  9 14  1  0  0  0  0
  9 38  1  0  0  0  0
  9 16  1  0  0  0  0
 10 15  1  0  0  0  0
 10 39  1  0  0  0  0
 10 40  1  0  0  0  0
 11 17  1  0  0  0  0
 12 42  1  6  0  0  0
 12  3  1  0  0  0  0
 13 43  1  6  0  0  0
 13  5  1  0  0  0  0
 14 44  1  6  0  0  0
 14  6  1  0  0  0  0
 15 45  1  1  0  0  0
 16  7  1  6  0  0  0
 16 10  1  0  0  0  0
 17 46  1  0  0  0  0
 17 12  1  0  0  0  0
 18  1  1  0  0  0  0
 21  2  1  0  0  0  0
 27  4  1  0  0  0  0
 34  7  1  0  0  0  0
 36  8  1  0  0  0  0
 37  9  1  0  0  0  0
 41 11  1  0  0  0  0
M  END
>  <HBA>
1

>  <HBD>
1

>  <TPSA>
12.03

>  <cid>
35986

>  <dipole>
0.93

>  <excitation_energy_1>
5.058

>  <excitation_energy_2>
5.414

>  <excitation_energy_3>
5.584

>  <excitation_energy_4>
5.641

>  <homo_energy>
-5.616

>  <homo_lumo_gap>
7.219

>  <logP>
4.37

>  <lumo_energy>
1.603

>  <melting_point>
80.4

>  <molecular_refractivity>
75.23

>  <oscillator_strength_1>
0.0028

>  <oscillator_strength_2>
0.0025

>  <oscillator_strength_3>
0.0149

>  <oscillator_strength_4>
0.0226

>  <open_babel_can_smiles>
C[C@@H](C[C@]12C[C@H]3C[C@@H](C2)C[C@@H](C1)C3)NC(C)C

>  <mulliken_charges>
46
1   -0.455778
2   -0.443144
3   -0.450239
4   -0.263453
5   -0.265363
6   -0.263494
7   -0.293359
8   -0.292568
9   -0.277316
10   -0.280127
11   0.072746
12   0.041439
13   -0.091457
14   -0.089656
15   -0.090016
16   0.103707
17   -0.569138
18   0.140812
19   0.153665
20   0.134694
21   0.136783
22   0.14349
23   0.150693
24   0.139306
25   0.139651
26   0.15319
27   0.123781
28   0.124568
29   0.124931
30   0.123282
31   0.124074
32   0.123701
33   0.120557
34   0.130604
35   0.122882
36   0.128815
37   0.122369
38   0.123366
39   0.120465
40   0.132753
41   0.104076
42   0.130317
43   0.113732
44   0.113817
45   0.113925
46   0.292914

>  <lowdin_charges>
46
1   -0.445917
2   -0.450146
3   -0.45082
4   -0.276996
5   -0.279956
6   -0.278473
7   -0.296202
8   -0.284806
9   -0.278408
10   -0.285274
11   -0.057739
12   -0.063018
13   -0.131213
14   -0.132889
15   -0.130134
16   0.002966
17   -0.367099
18   0.148732
19   0.154608
20   0.143204
21   0.147832
22   0.147158
23   0.154241
24   0.149047
25   0.143071
26   0.156856
27   0.137398
28   0.137138
29   0.13737
30   0.139108
31   0.138704
32   0.136586
33   0.14174
34   0.141994
35   0.136337
36   0.138856
37   0.136278
38   0.138509
39   0.137554
40   0.145574
41   0.113348
42   0.141606
43   0.137853
44   0.139285
45   0.137015
46   0.249121

$$$$

