PCCDB-ID:  41711
public computational chemistry database (PCCDB) project, http://pccdb.org

 34 33  0  0  1  0  0  0  0  0999 V2000
    0.8971    1.4235   -2.9721 C   0  0  0  0  0  0  0  0  0  0  0  0
    5.9095    0.6282    1.0446 C   0  0  0  0  0  0  0  0  0  0  0  0
    2.0569   -2.2224   -0.5642 C   0  0  0  0  0  0  0  0  0  0  0  0
    4.1979   -3.1449    0.3641 C   0  0  0  0  0  0  0  0  0  0  0  0
    2.2700    0.7937   -2.7099 C   0  0  0  0  0  0  0  0  0  0  0  0
    4.5700    1.0945    0.4655 C   0  0  0  0  0  0  0  0  0  0  0  0
    2.7894    1.0848   -1.2951 C   0  0  0  0  0  0  0  0  0  0  0  0
    4.2991   -1.0113   -0.9908 C   0  0  0  0  0  0  0  0  0  0  0  0
    3.4445   -1.8562   -0.0107 C   0  0  0  0  0  0  0  0  0  0  0  0
    4.2014    0.5382   -0.9364 C   0  0  2  0  0  0  0  0  0  0  0  0
    5.2434    1.0291   -1.8689 N   0  0  0  0  0  0  0  0  0  0  0  0
    0.5530    1.2219   -3.9930 H   0  0  0  0  0  0  0  0  0  0  0  0
    0.9281    2.5120   -2.8387 H   0  0  0  0  0  0  0  0  0  0  0  0
    0.1406    1.0296   -2.2821 H   0  0  0  0  0  0  0  0  0  0  0  0
    6.1525    1.1969    1.9496 H   0  0  0  0  0  0  0  0  0  0  0  0
    6.7126    0.7740    0.3165 H   0  0  0  0  0  0  0  0  0  0  0  0
    5.8910   -0.4316    1.3223 H   0  0  0  0  0  0  0  0  0  0  0  0
    1.4943   -2.8201    0.1633 H   0  0  0  0  0  0  0  0  0  0  0  0
    2.1521   -2.8226   -1.4791 H   0  0  0  0  0  0  0  0  0  0  0  0
    1.4517   -1.3439   -0.8058 H   0  0  0  0  0  0  0  0  0  0  0  0
    3.6113   -3.7621    1.0552 H   0  0  0  0  0  0  0  0  0  0  0  0
    5.1589   -2.9225    0.8425 H   0  0  0  0  0  0  0  0  0  0  0  0
    4.4045   -3.7510   -0.5280 H   0  0  0  0  0  0  0  0  0  0  0  0
    2.9859    1.1769   -3.4496 H   0  0  0  0  0  0  0  0  0  0  0  0
    2.2068   -0.2889   -2.8770 H   0  0  0  0  0  0  0  0  0  0  0  0
    4.5837    2.1915    0.3826 H   0  0  0  0  0  0  0  0  0  0  0  0
    3.7591    0.8650    1.1689 H   0  0  0  0  0  0  0  0  0  0  0  0
    2.0589    0.7196   -0.5601 H   0  0  0  0  0  0  0  0  0  0  0  0
    2.8175    2.1776   -1.1599 H   0  0  0  0  0  0  0  0  0  0  0  0
    4.0830   -1.3423   -2.0178 H   0  0  0  0  0  0  0  0  0  0  0  0
    5.3570   -1.2461   -0.8317 H   0  0  0  0  0  0  0  0  0  0  0  0
    3.2971   -1.2839    0.9156 H   0  0  0  0  0  0  0  0  0  0  0  0
    5.1661    2.0429   -1.9611 H   0  0  0  0  0  0  0  0  0  0  0  0
    5.0850    0.6485   -2.8012 H   0  0  0  0  0  0  0  0  0  0  0  0
  1 13  1  0  0  0  0
  1  5  1  0  0  0  0
  1 14  1  0  0  0  0
  2 17  1  0  0  0  0
  2 15  1  0  0  0  0
  3  9  1  0  0  0  0
  3 18  1  0  0  0  0
  4 22  1  0  0  0  0
  4 21  1  0  0  0  0
  5  7  1  0  0  0  0
  6  2  1  0  0  0  0
  6 27  1  0  0  0  0
  7 29  1  0  0  0  0
  7 10  1  0  0  0  0
  7 28  1  0  0  0  0
  8 10  1  0  0  0  0
  8 31  1  0  0  0  0
  8  9  1  0  0  0  0
  9  4  1  0  0  0  0
  9 32  1  0  0  0  0
 10 11  1  6  0  0  0
 10  6  1  0  0  0  0
 12  1  1  0  0  0  0
 16  2  1  0  0  0  0
 19  3  1  0  0  0  0
 20  3  1  0  0  0  0
 23  4  1  0  0  0  0
 24  5  1  0  0  0  0
 25  5  1  0  0  0  0
 26  6  1  0  0  0  0
 30  8  1  0  0  0  0
 33 11  1  0  0  0  0
 34 11  1  0  0  0  0
M  END
>  <HBA>
1

>  <HBD>
1

>  <TPSA>
26.02

>  <cid>
41711

>  <dipole>
1.2

>  <excitation_energy_1>
5.621

>  <excitation_energy_2>
6.144

>  <excitation_energy_3>
6.217

>  <excitation_energy_4>
6.349

>  <homo_energy>
-6.202

>  <homo_lumo_gap>
8.068

>  <logP>
3.64

>  <lumo_energy>
1.867

>  <melting_point>
36.05

>  <molecular_refractivity>
52.93

>  <oscillator_strength_1>
0.0264

>  <oscillator_strength_2>
0.0035

>  <oscillator_strength_3>
0.0004

>  <oscillator_strength_4>
0.0021

>  <open_babel_can_smiles>
CCC[C@](CC(C)C)(CC)N

>  <mulliken_charges>
34
1   -0.44284
2   -0.45431
3   -0.451401
4   -0.451168
5   -0.259577
6   -0.248367
7   -0.258481
8   -0.277603
9   -0.065805
10   0.182484
11   -0.723331
12   0.141912
13   0.141331
14   0.14321
15   0.133813
16   0.170494
17   0.141662
18   0.138275
19   0.137199
20   0.148993
21   0.137318
22   0.145325
23   0.139413
24   0.116651
25   0.139996
26   0.119093
27   0.129601
28   0.129629
29   0.115055
30   0.118604
31   0.153806
32   0.127529
33   0.287026
34   0.294465

>  <lowdin_charges>
34
1   -0.441042
2   -0.450229
3   -0.4502
4   -0.44536
5   -0.280559
6   -0.27539
7   -0.291921
8   -0.282851
9   -0.122453
10   0.05862
11   -0.544114
12   0.148406
13   0.144173
14   0.147514
15   0.147259
16   0.161717
17   0.143251
18   0.148375
19   0.144047
20   0.150101
21   0.147318
22   0.147325
23   0.14575
24   0.134306
25   0.140218
26   0.134768
27   0.14052
28   0.14194
29   0.13284
30   0.136375
31   0.15383
32   0.138602
33   0.246617
34   0.250244

$$$$

