PCCDB-ID:  12160
public computational chemistry database (PCCDB) project, http://pccdb.org

 21 21  0  0  0  0  0  0  0  0999 V2000
    2.8925   -0.4176   -1.3566 C   0  0  0  0  0  0  0  0  0  0  0  0
    4.6607    5.4216    1.1377 C   0  0  0  0  0  0  0  0  0  0  0  0
    2.5303    0.0605    0.0611 C   0  0  0  0  0  0  0  0  0  0  0  0
    2.8294    3.8659    0.3234 C   0  0  0  0  0  0  0  0  0  0  0  0
    4.8395    2.8923    1.1955 C   0  0  0  0  0  0  0  0  0  0  0  0
    2.3224    2.5916    0.0698 C   0  0  0  0  0  0  0  0  0  0  0  0
    4.3323    1.6185    0.9418 C   0  0  0  0  0  0  0  0  0  0  0  0
    4.0992    4.0409    0.8873 C   0  0  0  0  0  0  0  0  0  0  0  0
    3.0648    1.4431    0.3717 C   0  0  0  0  0  0  0  0  0  0  0  0
    2.4908   -1.4196   -1.5479 H   0  0  0  0  0  0  0  0  0  0  0  0
    3.9793   -0.4548   -1.4923 H   0  0  0  0  0  0  0  0  0  0  0  0
    2.4874    0.2621   -2.1148 H   0  0  0  0  0  0  0  0  0  0  0  0
    3.8636    6.1589    1.2814 H   0  0  0  0  0  0  0  0  0  0  0  0
    5.2718    5.7646    0.2917 H   0  0  0  0  0  0  0  0  0  0  0  0
    5.3013    5.4397    2.0263 H   0  0  0  0  0  0  0  0  0  0  0  0
    2.9217   -0.6573    0.7933 H   0  0  0  0  0  0  0  0  0  0  0  0
    1.4385    0.0547    0.1740 H   0  0  0  0  0  0  0  0  0  0  0  0
    2.2257    4.7393    0.0849 H   0  0  0  0  0  0  0  0  0  0  0  0
    5.8241    2.9962    1.6471 H   0  0  0  0  0  0  0  0  0  0  0  0
    1.3292    2.4875   -0.3630 H   0  0  0  0  0  0  0  0  0  0  0  0
    4.9279    0.7445    1.1986 H   0  0  0  0  0  0  0  0  0  0  0  0
  1  3  1  0  0  0  0
  2 13  1  0  0  0  0
  2 15  1  0  0  0  0
  3 17  1  0  0  0  0
  3  9  1  0  0  0  0
  3 16  1  0  0  0  0
  4  8  1  0  0  0  0
  5 19  1  0  0  0  0
  6  4  2  0  0  0  0
  6  9  1  0  0  0  0
  7  5  1  0  0  0  0
  7 21  1  0  0  0  0
  8  2  1  0  0  0  0
  8  5  2  0  0  0  0
  9  7  2  0  0  0  0
 10  1  1  0  0  0  0
 11  1  1  0  0  0  0
 12  1  1  0  0  0  0
 14  2  1  0  0  0  0
 18  4  1  0  0  0  0
 20  6  1  0  0  0  0
M  END
>  <HBA>
0

>  <HBD>
0

>  <TPSA>
0.0

>  <cid>
12160

>  <dipole>
0.09

>  <excitation_energy_1>
5.172

>  <excitation_energy_2>
5.652

>  <excitation_energy_3>
5.855

>  <excitation_energy_4>
6.105

>  <homo_energy>
-6.153

>  <homo_lumo_gap>
6.329

>  <logP>
2.557

>  <lumo_energy>
0.177

>  <melting_point>
11.33

>  <molecular_refractivity>
41.18

>  <oscillator_strength_1>
0.003

>  <oscillator_strength_2>
0.0923

>  <oscillator_strength_3>
0.0071

>  <oscillator_strength_4>
0.0123

>  <open_babel_can_smiles>
CCc1ccc(cc1)C

>  <mulliken_charges>
21
1   -0.43222
2   -0.529042
3   -0.339704
4   -0.178905
5   -0.177809
6   -0.181332
7   -0.181857
8   0.175873
9   0.175547
10   0.141609
11   0.148458
12   0.148395
13   0.154596
14   0.163492
15   0.155574
16   0.141145
17   0.141378
18   0.118401
19   0.118406
20   0.118982
21   0.119013

>  <lowdin_charges>
21
1   -0.439149
2   -0.443704
3   -0.269911
4   -0.16833
5   -0.16514
6   -0.164886
7   -0.167692
8   -0.003836
9   -0.005442
10   0.147643
11   0.148314
12   0.151173
13   0.157332
14   0.16117
15   0.157479
16   0.148852
17   0.145798
18   0.153342
19   0.151881
20   0.151767
21   0.153339

$$$$

