PCCDB-ID:  44689
public computational chemistry database (PCCDB) project, http://pccdb.org

 42 41  0  0  1  0  0  0  0  0999 V2000
    1.3646    0.3546    0.6227 C   0  0  0  0  0  0  0  0  0  0  0  0
    4.7098   -4.4881   -2.8697 C   0  0  0  0  0  0  0  0  0  0  0  0
    8.9596   -0.8500    2.0521 C   0  0  0  0  0  0  0  0  0  0  0  0
    8.6469   -3.2358    2.8553 C   0  0  0  0  0  0  0  0  0  0  0  0
    2.8286    0.2716    0.1791 C   0  0  0  0  0  0  0  0  0  0  0  0
    4.6576   -2.9932   -2.5307 C   0  0  0  0  0  0  0  0  0  0  0  0
    3.2520   -1.1386   -0.2536 C   0  0  0  0  0  0  0  0  0  0  0  0
    4.7236   -1.2220   -0.6810 C   0  0  0  0  0  0  0  0  0  0  0  0
    6.7291   -2.7185   -1.0889 C   0  0  0  0  0  0  0  0  0  0  0  0
    8.7023   -2.7326    0.3521 C   0  0  0  0  0  0  0  0  0  0  0  0
    5.1927   -2.6225   -1.1295 C   0  0  2  0  0  0  0  0  0  0  0  0
    9.2105   -2.3342    1.7531 C   0  0  0  0  0  0  0  0  0  0  0  0
    7.2455   -2.6341    0.2822 N   0  0  0  0  0  0  0  0  0  0  0  0
   10.7473   -2.5026    1.7645 N   0  0  0  0  0  0  0  0  0  0  0  0
   11.3071   -2.4570    2.8563 O   0  0  0  0  0  0  0  0  0  0  0  0
   11.3268   -2.6302    0.6891 O   0  0  0  0  0  0  0  0  0  0  0  0
    1.0944    1.3730    0.9245 H   0  0  0  0  0  0  0  0  0  0  0  0
    1.1703   -0.3078    1.4755 H   0  0  0  0  0  0  0  0  0  0  0  0
    0.6869    0.0567   -0.1870 H   0  0  0  0  0  0  0  0  0  0  0  0
    4.3003   -4.6769   -3.8686 H   0  0  0  0  0  0  0  0  0  0  0  0
    4.1197   -5.0740   -2.1540 H   0  0  0  0  0  0  0  0  0  0  0  0
    5.7320   -4.8824   -2.8568 H   0  0  0  0  0  0  0  0  0  0  0  0
    7.8849   -0.6627    1.9918 H   0  0  0  0  0  0  0  0  0  0  0  0
    9.4609   -0.2147    1.3140 H   0  0  0  0  0  0  0  0  0  0  0  0
    9.3241   -0.5882    3.0489 H   0  0  0  0  0  0  0  0  0  0  0  0
    7.5682   -3.0706    2.9361 H   0  0  0  0  0  0  0  0  0  0  0  0
    9.1053   -3.0008    3.8173 H   0  0  0  0  0  0  0  0  0  0  0  0
    8.8248   -4.2946    2.6345 H   0  0  0  0  0  0  0  0  0  0  0  0
    3.4800    0.6095    0.9976 H   0  0  0  0  0  0  0  0  0  0  0  0
    2.9997    0.9709   -0.6518 H   0  0  0  0  0  0  0  0  0  0  0  0
    3.6171   -2.6561   -2.6141 H   0  0  0  0  0  0  0  0  0  0  0  0
    5.2179   -2.4217   -3.2855 H   0  0  0  0  0  0  0  0  0  0  0  0
    2.5952   -1.4704   -1.0703 H   0  0  0  0  0  0  0  0  0  0  0  0
    3.0770   -1.8380    0.5780 H   0  0  0  0  0  0  0  0  0  0  0  0
    5.3553   -0.9004    0.1558 H   0  0  0  0  0  0  0  0  0  0  0  0
    4.9079   -0.5099   -1.5005 H   0  0  0  0  0  0  0  0  0  0  0  0
    7.1548   -1.8795   -1.6569 H   0  0  0  0  0  0  0  0  0  0  0  0
    7.0643   -3.6404   -1.5970 H   0  0  0  0  0  0  0  0  0  0  0  0
    9.0861   -3.7352    0.0970 H   0  0  0  0  0  0  0  0  0  0  0  0
    9.1245   -2.0438   -0.3848 H   0  0  0  0  0  0  0  0  0  0  0  0
    4.7938   -3.3608   -0.4124 H   0  0  0  0  0  0  0  0  0  0  0  0
    6.8323   -3.3943    0.8210 H   0  0  0  0  0  0  0  0  0  0  0  0
  1 17  1  0  0  0  0
  1 18  1  0  0  0  0
  2 22  1  0  0  0  0
  2  6  1  0  0  0  0
  2 21  1  0  0  0  0
  3 25  1  0  0  0  0
  4 26  1  0  0  0  0
  4 27  1  0  0  0  0
  5  1  1  0  0  0  0
  5 29  1  0  0  0  0
  6 11  1  0  0  0  0
  7  5  1  0  0  0  0
  7 34  1  0  0  0  0
  8  7  1  0  0  0  0
  8 35  1  0  0  0  0
  9 13  1  0  0  0  0
 10 12  1  0  0  0  0
 11  9  1  0  0  0  0
 11  8  1  0  0  0  0
 11 41  1  1  0  0  0
 12 14  1  0  0  0  0
 12  3  1  0  0  0  0
 12  4  1  0  0  0  0
 13 10  1  0  0  0  0
 13 42  1  0  0  0  0
 14 15  2  0  0  0  0
 16 14  2  0  0  0  0
 19  1  1  0  0  0  0
 20  2  1  0  0  0  0
 23  3  1  0  0  0  0
 24  3  1  0  0  0  0
 28  4  1  0  0  0  0
 30  5  1  0  0  0  0
 31  6  1  0  0  0  0
 32  6  1  0  0  0  0
 33  7  1  0  0  0  0
 36  8  1  0  0  0  0
 37  9  1  0  0  0  0
 38  9  1  0  0  0  0
 39 10  1  0  0  0  0
 40 10  1  0  0  0  0
M  END
>  <HBA>
1

>  <HBD>
1

>  <TPSA>
57.85

>  <cid>
44689

>  <dipole>
3.84

>  <excitation_energy_1>
3.794

>  <excitation_energy_2>
4.138

>  <excitation_energy_3>
4.408

>  <excitation_energy_4>
5.536

>  <homo_energy>
-6.37

>  <homo_lumo_gap>
4.735

>  <logP>
3.762

>  <lumo_energy>
-1.635

>  <melting_point>
38.41

>  <molecular_refractivity>
70.74

>  <oscillator_strength_1>
0.0009

>  <oscillator_strength_2>
0.0

>  <oscillator_strength_3>
0.0002

>  <oscillator_strength_4>
0.0019

>  <open_babel_can_smiles>
CCCC[C@H](CNCC(N(=O)=O)(C)C)CC

>  <mulliken_charges>
42
1   -0.441733
2   -0.450737
3   -0.449984
4   -0.471734
5   -0.246088
6   -0.26314
7   -0.254154
8   -0.263071
9   -0.12332
10   -0.124253
11   -0.08342
12   0.129722
13   -0.574402
14   0.462707
15   -0.378271
16   -0.377753
17   0.142281
18   0.140503
19   0.141076
20   0.146026
21   0.142347
22   0.146473
23   0.185246
24   0.161276
25   0.170617
26   0.163341
27   0.18863
28   0.156806
29   0.130167
30   0.130738
31   0.139629
32   0.131231
33   0.12946
34   0.123976
35   0.150149
36   0.12223
37   0.140262
38   0.120762
39   0.135242
40   0.164983
41   0.108475
42   0.297706

>  <lowdin_charges>
42
1   -0.445292
2   -0.447602
3   -0.442475
4   -0.448341
5   -0.272896
6   -0.275264
7   -0.27778
8   -0.281707
9   -0.204472
10   -0.211386
11   -0.130869
12   0.048853
13   -0.36293
14   0.293279
15   -0.245447
16   -0.24128
17   0.148825
18   0.146311
19   0.146826
20   0.15147
21   0.147685
22   0.145251
23   0.172076
24   0.16174
25   0.164096
26   0.161371
27   0.174599
28   0.15588
29   0.139606
30   0.139663
31   0.14408
32   0.14153
33   0.137275
34   0.136117
35   0.150925
36   0.137375
37   0.14331
38   0.123873
39   0.132794
40   0.160652
41   0.130331
42   0.251949

$$$$

