PCCDB-ID:  35591
public computational chemistry database (PCCDB) project, http://pccdb.org

 20 20  0  0  0  0  0  0  0  0999 V2000
    2.2589   -1.6190   -0.5277 C   0  0  0  0  0  0  0  0  0  0  0  0
    4.3937   -3.6005    5.5474 C   0  0  0  0  0  0  0  0  0  0  0  0
    4.6857    1.2622    4.5741 C   0  0  0  0  0  0  0  0  0  0  0  0
    4.2017    0.1972    3.7310 C   0  0  0  0  0  0  0  0  0  0  0  0
    3.3311   -0.4704    1.7676 C   0  0  0  0  0  0  0  0  0  0  0  0
    3.7577   -1.9804    3.3752 C   0  0  0  0  0  0  0  0  0  0  0  0
    5.5087    0.7610    6.8220 N   0  0  0  0  0  0  0  0  0  0  0  0
    5.1264    0.9963    5.7768 N   0  0  0  0  0  0  0  0  0  0  0  0
    3.7698    0.5542    2.5132 N   0  0  0  0  0  0  0  0  0  0  0  0
    4.2181   -1.0637    4.2227 N   0  0  0  0  0  0  0  0  0  0  0  0
    3.2984   -1.7545    2.1317 N   0  0  0  0  0  0  0  0  0  0  0  0
    2.7580   -0.0044    0.1644 S   0  0  0  0  0  0  0  0  0  0  0  0
    3.7116   -3.6794    3.8556 S   0  0  0  0  0  0  0  0  0  0  0  0
    1.8951   -1.4084   -1.5367 H   0  0  0  0  0  0  0  0  0  0  0  0
    1.4635   -2.0678    0.0690 H   0  0  0  0  0  0  0  0  0  0  0  0
    3.1092   -2.3009   -0.5729 H   0  0  0  0  0  0  0  0  0  0  0  0
    4.3949   -4.6299    5.9148 H   0  0  0  0  0  0  0  0  0  0  0  0
    3.7687   -2.9779    6.1894 H   0  0  0  0  0  0  0  0  0  0  0  0
    5.4120   -3.2087    5.5378 H   0  0  0  0  0  0  0  0  0  0  0  0
    4.7049    2.2951    4.2568 H   0  0  0  0  0  0  0  0  0  0  0  0
  1 15  1  0  0  0  0
  1 12  1  0  0  0  0
  2 17  1  0  0  0  0
  2 18  1  0  0  0  0
  3  8  1  0  0  0  0
  4 10  1  0  0  0  0
  4  3  1  0  0  0  0
  5 11  1  0  0  0  0
  5  9  2  0  0  0  0
  6 13  1  0  0  0  0
  6 10  2  0  0  0  0
  8  7  1  0  0  0  0
  9  4  2  0  0  0  0
 11  6  1  0  0  0  0
 12  5  1  0  0  0  0
 13  2  1  0  0  0  0
 14  1  1  0  0  0  0
 16  1  1  0  0  0  0
 19  2  1  0  0  0  0
 20  3  1  0  0  0  0
M  RAD  4   3   2   7   3   8   2  11   2
M  END
>  <HBA>
5

>  <HBD>
0

>  <TPSA>
126.66

>  <cid>
35591

>  <dipole>
1.03

>  <excitation_energy_1>
2.935

>  <excitation_energy_2>
3.917

>  <excitation_energy_3>
4.01

>  <excitation_energy_4>
4.138

>  <homo_energy>
-6.487

>  <homo_lumo_gap>
4.479

>  <logP>
1.045

>  <lumo_energy>
-2.008

>  <melting_point>
130.57

>  <molecular_refractivity>
51.88

>  <oscillator_strength_1>
0.0

>  <oscillator_strength_2>
0.0

>  <oscillator_strength_3>
0.0

>  <oscillator_strength_4>
0.0309

>  <open_babel_can_smiles>
[N][N][CH]C1=[N]=C([N]C(=N1)SC)SC

>  <mulliken_charges>
20
1   -0.585123
2   -0.584488
3   -0.098501
4   0.469901
5   0.258379
6   0.262641
7   -0.188949
8   0.166543
9   -0.487145
10   -0.503119
11   -0.452315
12   0.180132
13   0.179666
14   0.181016
15   0.202361
16   0.202782
17   0.182805
18   0.19957
19   0.199392
20   0.21445

>  <lowdin_charges>
20
1   -0.542855
2   -0.541632
3   -0.250377
4   0.120553
5   -0.003203
6   -0.001847
7   -0.023383
8   0.189746
9   -0.201343
10   -0.226798
11   -0.211175
12   0.211397
13   0.209808
14   0.175558
15   0.179452
16   0.179253
17   0.176036
18   0.178277
19   0.175956
20   0.206578

$$$$

