PCCDB-ID:  61936
public computational chemistry database (PCCDB) project, http://pccdb.org

 14 13  0  0  0  0  0  0  0  0999 V2000
    2.9019    0.8040    1.2410 C   0  0  0  0  0  0  0  0  0  0  0  0
    2.9545   -0.5195   -0.9856 C   0  0  0  0  0  0  0  0  0  0  0  0
    2.0943   -1.1235   -2.0925 C   0  0  0  0  0  0  0  0  0  0  0  0
    2.1269    0.1611    0.1036 C   0  0  0  0  0  0  0  0  0  0  0  0
    0.9111    0.1800    0.0629 O   0  0  0  0  0  0  0  0  0  0  0  0
    3.0532   -2.0678   -3.3484 S   0  0  0  0  0  0  0  0  0  0  0  0
    3.5886    1.5689    0.8574 H   0  0  0  0  0  0  0  0  0  0  0  0
    3.5155    0.0558    1.7582 H   0  0  0  0  0  0  0  0  0  0  0  0
    2.2069    1.2589    1.9496 H   0  0  0  0  0  0  0  0  0  0  0  0
    3.6609    0.2172   -1.3954 H   0  0  0  0  0  0  0  0  0  0  0  0
    3.5817   -1.2920   -0.5196 H   0  0  0  0  0  0  0  0  0  0  0  0
    1.4939   -0.3560   -2.5860 H   0  0  0  0  0  0  0  0  0  0  0  0
    1.3915   -1.8474   -1.6721 H   0  0  0  0  0  0  0  0  0  0  0  0
    3.7723   -1.0268   -3.8235 H   0  0  0  0  0  0  0  0  0  0  0  0
  1  8  1  0  0  0  0
  1  9  1  0  0  0  0
  2 11  1  0  0  0  0
  2  4  1  0  0  0  0
  3 13  1  0  0  0  0
  3  2  1  0  0  0  0
  4  1  1  0  0  0  0
  5  4  2  0  0  0  0
  6  3  1  0  0  0  0
  7  1  1  0  0  0  0
 10  2  1  0  0  0  0
 12  3  1  0  0  0  0
 14  6  1  0  0  0  0
M  END
>  <HBA>
2

>  <HBD>
1

>  <TPSA>
55.87

>  <cid>
61936

>  <dipole>
2.96

>  <excitation_energy_1>
4.366

>  <excitation_energy_2>
5.145

>  <excitation_energy_3>
5.24

>  <excitation_energy_4>
5.925

>  <homo_energy>
-6.419

>  <homo_lumo_gap>
5.867

>  <logP>
0.895

>  <lumo_energy>
-0.552

>  <melting_point>
16.42

>  <molecular_refractivity>
29.47

>  <oscillator_strength_1>
0.0002

>  <oscillator_strength_2>
0.0021

>  <oscillator_strength_3>
0.0149

>  <oscillator_strength_4>
0.0298

>  <open_babel_can_smiles>
CC(=O)CCS

>  <mulliken_charges>
14
1   -0.528249
2   -0.345483
3   -0.409024
4   0.450679
5   -0.431217
6   -0.078558
7   0.169284
8   0.171698
9   0.183491
10   0.159976
11   0.179138
12   0.192213
13   0.196578
14   0.089474

>  <lowdin_charges>
14
1   -0.477456
2   -0.319402
3   -0.368712
4   0.16348
5   -0.232359
6   -0.083837
7   0.171141
8   0.17271
9   0.176228
10   0.163292
11   0.173157
12   0.170877
13   0.179875
14   0.111005

$$$$

