PCCDB-ID:  34024
public computational chemistry database (PCCDB) project, http://pccdb.org

 20 21  0  0  0  0  0  0  0  0999 V2000
    0.3229   -2.1882    0.0778 C   0  0  0  0  0  0  0  0  0  0  0  0
   -1.0907   -1.8724   -0.4475 C   0  0  0  0  0  0  0  0  0  0  0  0
    1.3714   -1.1645   -0.4154 C   0  0  0  0  0  0  0  0  0  0  0  0
   -1.5884   -0.4880    0.0193 C   0  0  0  0  0  0  0  0  0  0  0  0
    0.8060    0.2200   -0.2981 C   0  0  0  0  0  0  0  0  0  0  0  0
   -0.4867    0.5108   -0.1024 C   0  0  0  0  0  0  0  0  0  0  0  0
    1.4928    1.5555   -0.3635 C   0  0  0  0  0  0  0  0  0  0  0  0
   -0.5754    2.0314   -0.0478 C   0  0  0  0  0  0  0  0  0  0  0  0
    0.7289    2.5851   -0.2200 N   0  0  0  0  0  0  0  0  0  0  0  0
    2.8097    1.6817   -0.5519 O   0  0  0  0  0  0  0  0  0  0  0  0
   -1.5920    2.6686    0.1087 O   0  0  0  0  0  0  0  0  0  0  0  0
    0.6233   -3.1974   -0.2255 H   0  0  0  0  0  0  0  0  0  0  0  0
    0.3100   -2.1773    1.1757 H   0  0  0  0  0  0  0  0  0  0  0  0
   -1.7893   -2.6509   -0.1209 H   0  0  0  0  0  0  0  0  0  0  0  0
   -1.0811   -1.8986   -1.5456 H   0  0  0  0  0  0  0  0  0  0  0  0
    1.6435   -1.3761   -1.4613 H   0  0  0  0  0  0  0  0  0  0  0  0
    2.2978   -1.2722    0.1689 H   0  0  0  0  0  0  0  0  0  0  0  0
   -1.9309   -0.5298    1.0640 H   0  0  0  0  0  0  0  0  0  0  0  0
   -2.4601   -0.1623   -0.5618 H   0  0  0  0  0  0  0  0  0  0  0  0
    3.2106    0.8009   -0.6371 H   0  0  0  0  0  0  0  0  0  0  0  0
  1 13  1  0  0  0  0
  2 14  1  0  0  0  0
  2  4  1  0  0  0  0
  2  1  1  0  0  0  0
  3  5  1  0  0  0  0
  3  1  1  0  0  0  0
  3 17  1  0  0  0  0
  4 18  1  0  0  0  0
  5  6  2  0  0  0  0
  6  8  1  0  0  0  0
  6  4  1  0  0  0  0
  7  5  1  0  0  0  0
  7  9  2  0  0  0  0
  8 11  2  0  0  0  0
  9  8  1  0  0  0  0
 10  7  1  0  0  0  0
 12  1  1  0  0  0  0
 15  2  1  0  0  0  0
 16  3  1  0  0  0  0
 19  4  1  0  0  0  0
 20 10  1  0  0  0  0
M  END
>  <HBA>
3

>  <HBD>
1

>  <TPSA>
46.17

>  <cid>
34024

>  <dipole>
7.06

>  <excitation_energy_1>
3.112

>  <excitation_energy_2>
3.515

>  <excitation_energy_3>
4.158

>  <excitation_energy_4>
5.587

>  <homo_energy>
-6.846

>  <homo_lumo_gap>
4.468

>  <logP>
0.842

>  <lumo_energy>
-2.378

>  <melting_point>
103.86

>  <molecular_refractivity>
42.98

>  <oscillator_strength_1>
0.0001

>  <oscillator_strength_2>
0.0054

>  <oscillator_strength_3>
0.0003

>  <oscillator_strength_4>
0.0016

>  <open_babel_can_smiles>
O=C1N=C(C2=C1CCCC2)O

>  <mulliken_charges>
20
1   -0.268844
2   -0.274887
3   -0.363424
4   -0.338794
5   0.048958
6   0.046776
7   0.485133
8   0.513284
9   -0.502945
10   -0.572053
11   -0.437987
12   0.145367
13   0.150416
14   0.14667
15   0.146141
16   0.163695
17   0.146498
18   0.167934
19   0.174092
20   0.423971

>  <lowdin_charges>
20
1   -0.268292
2   -0.273229
3   -0.283815
4   -0.271714
5   -0.072249
6   -0.031073
7   0.154641
8   0.17276
9   -0.226649
10   -0.30854
11   -0.195743
12   0.151153
13   0.146651
14   0.153691
15   0.14447
16   0.156044
17   0.150846
18   0.163251
19   0.170578
20   0.367221

$$$$

