PCCDB-ID:  28114
public computational chemistry database (PCCDB) project, http://pccdb.org

 14 14  0  0  0  0  0  0  0  0999 V2000
   -1.1918   -0.6920    0.0306 C   0  0  0  0  0  0  0  0  0  0  0  0
    0.0042   -1.4249    0.0790 C   0  0  0  0  0  0  0  0  0  0  0  0
   -1.1050    0.6908   -0.0444 C   0  0  0  0  0  0  0  0  0  0  0  0
    1.2088   -0.7463    0.0616 C   0  0  0  0  0  0  0  0  0  0  0  0
    1.1947    0.6705   -0.0081 C   0  0  0  0  0  0  0  0  0  0  0  0
    2.3872    1.3671    0.0304 N   0  0  0  0  0  0  0  0  0  0  0  0
    0.0577    1.3636   -0.0687 N   0  0  0  0  0  0  0  0  0  0  0  0
    2.4480   -1.3408    0.0935 O   0  0  0  0  0  0  0  0  0  0  0  0
   -2.1539   -1.1934    0.0448 H   0  0  0  0  0  0  0  0  0  0  0  0
   -0.0083   -2.5127    0.1291 H   0  0  0  0  0  0  0  0  0  0  0  0
   -2.0041    1.3021   -0.0919 H   0  0  0  0  0  0  0  0  0  0  0  0
    3.2073    0.8642   -0.2798 H   0  0  0  0  0  0  0  0  0  0  0  0
    2.3153    2.3219   -0.2961 H   0  0  0  0  0  0  0  0  0  0  0  0
    2.3370   -2.3036    0.1304 H   0  0  0  0  0  0  0  0  0  0  0  0
  1  9  1  0  0  0  0
  1  2  2  0  0  0  0
  2 10  1  0  0  0  0
  3  1  1  0  0  0  0
  4  2  1  0  0  0  0
  4  8  1  0  0  0  0
  5  6  1  0  0  0  0
  5  4  2  0  0  0  0
  7  3  2  0  0  0  0
  7  5  1  0  0  0  0
  8 14  1  0  0  0  0
 11  3  1  0  0  0  0
 12  6  1  0  0  0  0
 13  6  1  0  0  0  0
M  END
>  <HBA>
3

>  <HBD>
2

>  <TPSA>
59.14

>  <cid>
28114

>  <dipole>
2.76

>  <excitation_energy_1>
4.583

>  <excitation_energy_2>
4.617

>  <excitation_energy_3>
5.274

>  <excitation_energy_4>
5.334

>  <homo_energy>
-5.374

>  <homo_lumo_gap>
5.274

>  <logP>
0.951

>  <lumo_energy>
-0.101

>  <melting_point>
108.95

>  <molecular_refractivity>
30.66

>  <oscillator_strength_1>
0.1018

>  <oscillator_strength_2>
0.0087

>  <oscillator_strength_3>
0.0039

>  <oscillator_strength_4>
0.0056

>  <open_babel_can_smiles>
Oc1cccnc1N

>  <mulliken_charges>
14
1   -0.158042
2   -0.163734
3   0.029341
4   0.311153
5   0.445703
6   -0.759831
7   -0.505054
8   -0.662806
9   0.127547
10   0.124257
11   0.132442
12   0.338103
13   0.330928
14   0.409995

>  <lowdin_charges>
14
1   -0.201299
2   -0.182593
3   -0.100896
4   0.052919
5   0.080714
6   -0.471989
7   -0.186983
8   -0.389159
9   0.161161
10   0.153759
11   0.15437
12   0.28731
13   0.284284
14   0.358402

$$$$

