PCCDB-ID:  38950
public computational chemistry database (PCCDB) project, http://pccdb.org

 16 17  0  0  0  0  0  0  0  0999 V2000
    2.1389    0.6834   -0.0012 C   0  0  0  0  0  0  0  0  0  0  0  0
    2.0812   -0.7259   -0.0016 C   0  0  0  0  0  0  0  0  0  0  0  0
    0.9837    1.4544   -0.0017 C   0  0  0  0  0  0  0  0  0  0  0  0
    0.8661   -1.4054   -0.0019 C   0  0  0  0  0  0  0  0  0  0  0  0
   -1.6337    1.1980   -0.0002 C   0  0  0  0  0  0  0  0  0  0  0  0
   -3.7680   -0.1604    0.0042 C   0  0  0  0  0  0  0  0  0  0  0  0
   -0.2566    0.7928   -0.0019 C   0  0  0  0  0  0  0  0  0  0  0  0
   -2.3665    0.0458    0.0009 C   0  0  0  0  0  0  0  0  0  0  0  0
   -0.2791   -0.6165   -0.0015 C   0  0  0  0  0  0  0  0  0  0  0  0
   -4.9230   -0.3050    0.0072 N   0  0  0  0  0  0  0  0  0  0  0  0
   -1.5655   -1.0778    0.0001 O   0  0  0  0  0  0  0  0  0  0  0  0
    3.1088    1.1722   -0.0000 H   0  0  0  0  0  0  0  0  0  0  0  0
    3.0062   -1.2951   -0.0017 H   0  0  0  0  0  0  0  0  0  0  0  0
    1.0357    2.5391   -0.0022 H   0  0  0  0  0  0  0  0  0  0  0  0
    0.8061   -2.4883   -0.0025 H   0  0  0  0  0  0  0  0  0  0  0  0
   -2.0353    2.2015   -0.0008 H   0  0  0  0  0  0  0  0  0  0  0  0
  1 12  1  0  0  0  0
  2  1  2  0  0  0  0
  3  1  1  0  0  0  0
  4  2  1  0  0  0  0
  4  9  2  0  0  0  0
  5  8  2  0  0  0  0
  6 10  3  0  0  0  0
  7  3  2  0  0  0  0
  7  9  1  0  0  0  0
  7  5  1  0  0  0  0
  8  6  1  0  0  0  0
  9 11  1  0  0  0  0
 11  8  1  0  0  0  0
 13  2  1  0  0  0  0
 14  3  1  0  0  0  0
 15  4  1  0  0  0  0
 16  5  1  0  0  0  0
M  END
>  <HBA>
2

>  <HBD>
0

>  <TPSA>
36.93

>  <cid>
38950

>  <dipole>
4.79

>  <excitation_energy_1>
4.567

>  <excitation_energy_2>
4.642

>  <excitation_energy_3>
5.482

>  <excitation_energy_4>
5.617

>  <homo_energy>
-6.604

>  <homo_lumo_gap>
4.838

>  <logP>
2.304

>  <lumo_energy>
-1.766

>  <melting_point>
85.62

>  <molecular_refractivity>
40.93

>  <oscillator_strength_1>
0.0381

>  <oscillator_strength_2>
0.4661

>  <oscillator_strength_3>
0.0

>  <oscillator_strength_4>
0.1222

>  <open_babel_can_smiles>
N#Cc1cc2c(o1)cccc2

>  <mulliken_charges>
16
1   -0.134687
2   -0.141448
3   -0.195544
4   -0.18619
5   -0.195093
6   0.246482
7   0.114477
8   0.366512
9   0.340301
10   -0.475657
11   -0.499263
12   0.139759
13   0.143661
14   0.144843
15   0.158141
16   0.173707

>  <lowdin_charges>
16
1   -0.160314
2   -0.145306
3   -0.147596
4   -0.167953
5   -0.164781
6   -0.015399
7   -0.030992
8   0.07229
9   0.095053
10   -0.090233
11   -0.098805
12   0.163755
13   0.166102
14   0.164065
15   0.174218
16   0.185898

$$$$

