PCCDB-ID:  20124
public computational chemistry database (PCCDB) project, http://pccdb.org

 20 20  0  0  0  0  0  0  0  0999 V2000
    0.7805    1.2215   -0.2991 C   0  0  0  0  0  0  0  0  0  0  0  0
    1.4447   -0.0099    0.3390 C   0  0  0  0  0  0  0  0  0  0  0  0
   -1.3892    0.0331   -0.3333 C   0  0  0  0  0  0  0  0  0  0  0  0
   -0.7251   -1.1981    0.3052 C   0  0  0  0  0  0  0  0  0  0  0  0
   -0.6548    1.2583    0.0151 N   0  0  0  0  0  0  0  0  0  0  0  0
    0.7102   -1.2351   -0.0093 N   0  0  0  0  0  0  0  0  0  0  0  0
   -0.9908    1.8373    1.2478 N   0  0  0  0  0  0  0  0  0  0  0  0
    1.0458   -1.8141   -1.2420 N   0  0  0  0  0  0  0  0  0  0  0  0
   -2.0973    1.5673    1.7100 O   0  0  0  0  0  0  0  0  0  0  0  0
   -0.1758    2.6131    1.7432 O   0  0  0  0  0  0  0  0  0  0  0  0
    0.2319   -2.5925   -1.7354 O   0  0  0  0  0  0  0  0  0  0  0  0
    2.1508   -1.5417   -1.7064 O   0  0  0  0  0  0  0  0  0  0  0  0
    0.8615    1.1712   -1.3896 H   0  0  0  0  0  0  0  0  0  0  0  0
    1.2378    2.1476    0.0430 H   0  0  0  0  0  0  0  0  0  0  0  0
    1.4202    0.0715    1.4304 H   0  0  0  0  0  0  0  0  0  0  0  0
    2.4794   -0.1187    0.0201 H   0  0  0  0  0  0  0  0  0  0  0  0
   -2.4240    0.1419   -0.0148 H   0  0  0  0  0  0  0  0  0  0  0  0
   -1.3643   -0.0484   -1.4247 H   0  0  0  0  0  0  0  0  0  0  0  0
   -1.1825   -2.1243   -0.0365 H   0  0  0  0  0  0  0  0  0  0  0  0
   -0.8059   -1.1474    1.3957 H   0  0  0  0  0  0  0  0  0  0  0  0
  1  5  1  0  0  0  0
  1 14  1  0  0  0  0
  1  2  1  0  0  0  0
  2 15  1  0  0  0  0
  3 17  1  0  0  0  0
  3  5  1  0  0  0  0
  3  4  1  0  0  0  0
  4 20  1  0  0  0  0
  5  7  1  0  0  0  0
  6  4  1  0  0  0  0
  6  2  1  0  0  0  0
  7  9  2  0  0  0  0
  7 10  2  0  0  0  0
  8  6  1  0  0  0  0
 11  8  2  0  0  0  0
 12  8  2  0  0  0  0
 13  1  1  0  0  0  0
 16  2  1  0  0  0  0
 18  3  1  0  0  0  0
 19  4  1  0  0  0  0
M  END
>  <HBA>
2

>  <HBD>
0

>  <TPSA>
98.12

>  <cid>
20124

>  <dipole>
0.0

>  <excitation_energy_1>
4.472

>  <excitation_energy_2>
4.474

>  <excitation_energy_3>
4.624

>  <excitation_energy_4>
4.851

>  <homo_energy>
-7.293

>  <homo_lumo_gap>
5.478

>  <logP>
-0.09

>  <lumo_energy>
-1.815

>  <melting_point>
64.13

>  <molecular_refractivity>
49.06

>  <oscillator_strength_1>
0.0

>  <oscillator_strength_2>
0.0

>  <oscillator_strength_3>
0.1725

>  <oscillator_strength_4>
0.0

>  <open_babel_can_smiles>
O=N(=O)N1CCN(CC1)N(=O)=O

>  <mulliken_charges>
20
1   -0.17556
2   -0.176001
3   -0.176026
4   -0.175744
5   -0.270137
6   -0.27011
7   0.638592
8   0.638533
9   -0.412332
10   -0.412694
11   -0.412572
12   -0.412403
13   0.188076
14   0.215933
15   0.188253
16   0.215918
17   0.215977
18   0.188234
19   0.215991
20   0.188072

>  <lowdin_charges>
20
1   -0.218184
2   -0.217109
3   -0.217084
4   -0.218179
5   -0.086731
6   -0.086726
7   0.334504
8   0.33453
9   -0.263402
10   -0.265721
11   -0.265683
12   -0.26347
13   0.167953
14   0.191084
15   0.168021
16   0.189568
17   0.189585
18   0.168005
19   0.191096
20   0.167942

$$$$

