PCCDB-ID:  20682
public computational chemistry database (PCCDB) project, http://pccdb.org

 16 15  0  0  0  0  0  0  0  0999 V2000
    1.2149    0.0282    0.7196 C   0  0  0  0  0  0  0  0  0  0  0  0
    5.3683   -2.3159   -0.9890 C   0  0  0  0  0  0  0  0  0  0  0  0
    2.3637   -2.5887   -0.1037 C   0  0  0  0  0  0  0  0  0  0  0  0
    2.4859   -0.0797    0.3060 C   0  0  0  0  0  0  0  0  0  0  0  0
    4.4554   -1.2261   -0.5110 C   0  0  0  0  0  0  0  0  0  0  0  0
    3.1643   -1.3091   -0.1247 C   0  0  0  0  0  0  0  0  0  0  0  0
    0.8026    0.9871    1.0194 H   0  0  0  0  0  0  0  0  0  0  0  0
    0.5427   -0.8232    0.7760 H   0  0  0  0  0  0  0  0  0  0  0  0
    6.2638   -2.3767   -0.3549 H   0  0  0  0  0  0  0  0  0  0  0  0
    5.7251   -2.1048   -2.0069 H   0  0  0  0  0  0  0  0  0  0  0  0
    4.9000   -3.3032   -0.9987 H   0  0  0  0  0  0  0  0  0  0  0  0
    1.4743   -2.5011   -0.7405 H   0  0  0  0  0  0  0  0  0  0  0  0
    2.0068   -2.8085    0.9106 H   0  0  0  0  0  0  0  0  0  0  0  0
    2.9376   -3.4505   -0.4495 H   0  0  0  0  0  0  0  0  0  0  0  0
    3.0990    0.8216    0.2766 H   0  0  0  0  0  0  0  0  0  0  0  0
    4.9158   -0.2372   -0.4787 H   0  0  0  0  0  0  0  0  0  0  0  0
  1  8  1  0  0  0  0
  1  7  1  0  0  0  0
  2  5  1  0  0  0  0
  2  9  1  0  0  0  0
  3 13  1  0  0  0  0
  4  1  2  0  0  0  0
  5 16  1  0  0  0  0
  5  6  2  0  0  0  0
  6  3  1  0  0  0  0
  6  4  1  0  0  0  0
 10  2  1  0  0  0  0
 11  2  1  0  0  0  0
 12  3  1  0  0  0  0
 14  3  1  0  0  0  0
 15  4  1  0  0  0  0
M  END
>  <HBA>
0

>  <HBD>
0

>  <TPSA>
0.0

>  <cid>
20682

>  <dipole>
0.64

>  <excitation_energy_1>
5.451

>  <excitation_energy_2>
5.483

>  <excitation_energy_3>
5.91

>  <excitation_energy_4>
6.008

>  <homo_energy>
-5.84

>  <homo_lumo_gap>
5.527

>  <logP>
2.139

>  <lumo_energy>
-0.313

>  <melting_point>
-33.95

>  <molecular_refractivity>
30.01

>  <oscillator_strength_1>
0.6697

>  <oscillator_strength_2>
0.0054

>  <oscillator_strength_3>
0.0011

>  <oscillator_strength_4>
0.0117

>  <open_babel_can_smiles>
C/C=C(/C=C)\C

>  <mulliken_charges>
16
1   -0.362631
2   -0.492119
3   -0.536953
4   -0.100952
5   -0.174196
6   0.203252
7   0.138482
8   0.136432
9   0.15855
10   0.158938
11   0.155824
12   0.160046
13   0.160205
14   0.152192
15   0.120546
16   0.122384

>  <lowdin_charges>
16
1   -0.352831
2   -0.441708
3   -0.445282
4   -0.146361
5   -0.167519
6   -0.012536
7   0.159728
8   0.157127
9   0.159596
10   0.158722
11   0.154725
12   0.15978
13   0.158946
14   0.157028
15   0.151825
16   0.148762

$$$$

