PCCDB-ID:  23274
public computational chemistry database (PCCDB) project, http://pccdb.org

 24 25  0  0  0  0  0  0  0  0999 V2000
    1.9821   -1.1239   -0.2367 C   0  0  0  0  0  0  0  0  0  0  0  0
    2.8189    0.9465   -1.1492 C   0  0  0  0  0  0  0  0  0  0  0  0
    3.2651    1.8123    1.6923 C   0  0  0  0  0  0  0  0  0  0  0  0
    3.9534    2.1218    2.8536 C   0  0  0  0  0  0  0  0  0  0  0  0
    5.0123   -1.0912    4.1681 C   0  0  0  0  0  0  0  0  0  0  0  0
    5.5200   -0.2405    5.1167 C   0  0  0  0  0  0  0  0  0  0  0  0
    3.6645   -0.5678    1.9862 C   0  0  0  0  0  0  0  0  0  0  0  0
    4.3506   -0.2816    3.1828 C   0  0  0  0  0  0  0  0  0  0  0  0
    3.1156    0.4729    1.2349 C   0  0  0  0  0  0  0  0  0  0  0  0
    4.4943    1.0673    3.5974 C   0  0  0  0  0  0  0  0  0  0  0  0
    5.2095    1.0629    4.7807 N   0  0  0  0  0  0  0  0  0  0  0  0
    2.3632    0.2472    0.0492 N   0  0  0  0  0  0  0  0  0  0  0  0
    1.2548   -1.1241   -1.0559 H   0  0  0  0  0  0  0  0  0  0  0  0
    1.5078   -1.5706    0.6420 H   0  0  0  0  0  0  0  0  0  0  0  0
    2.8292   -1.7681   -0.5398 H   0  0  0  0  0  0  0  0  0  0  0  0
    2.0260    0.9249   -1.9055 H   0  0  0  0  0  0  0  0  0  0  0  0
    3.7256    0.4905   -1.5882 H   0  0  0  0  0  0  0  0  0  0  0  0
    3.0433    1.9906   -0.9257 H   0  0  0  0  0  0  0  0  0  0  0  0
    2.7965    2.6129    1.1286 H   0  0  0  0  0  0  0  0  0  0  0  0
    4.0468    3.1543    3.1812 H   0  0  0  0  0  0  0  0  0  0  0  0
    5.1011   -2.1690    4.1711 H   0  0  0  0  0  0  0  0  0  0  0  0
    6.0816   -0.4553    6.0154 H   0  0  0  0  0  0  0  0  0  0  0  0
    3.5781   -1.5975    1.6574 H   0  0  0  0  0  0  0  0  0  0  0  0
    5.4696    1.8796    5.3103 H   0  0  0  0  0  0  0  0  0  0  0  0
  1 12  1  0  0  0  0
  1 14  1  0  0  0  0
  2 18  1  0  0  0  0
  2 12  1  0  0  0  0
  3  4  1  0  0  0  0
  4 20  1  0  0  0  0
  4 10  2  0  0  0  0
  5 21  1  0  0  0  0
  5  6  2  0  0  0  0
  6 22  1  0  0  0  0
  7  8  2  0  0  0  0
  8 10  1  0  0  0  0
  8  5  1  0  0  0  0
  9  3  2  0  0  0  0
  9  7  1  0  0  0  0
 10 11  1  0  0  0  0
 11  6  1  0  0  0  0
 11 24  1  0  0  0  0
 12  9  1  0  0  0  0
 13  1  1  0  0  0  0
 15  1  1  0  0  0  0
 16  2  1  0  0  0  0
 17  2  1  0  0  0  0
 19  3  1  0  0  0  0
 23  7  1  0  0  0  0
M  END
>  <HBA>
1

>  <HBD>
1

>  <TPSA>
19.03

>  <cid>
23274

>  <dipole>
1.49

>  <excitation_energy_1>
4.107

>  <excitation_energy_2>
4.426

>  <excitation_energy_3>
4.613

>  <excitation_energy_4>
4.76

>  <homo_energy>
-4.803

>  <homo_lumo_gap>
4.857

>  <logP>
2.234

>  <lumo_energy>
0.054

>  <melting_point>
105.27

>  <molecular_refractivity>
52.51

>  <oscillator_strength_1>
0.0481

>  <oscillator_strength_2>
0.0037

>  <oscillator_strength_3>
0.0131

>  <oscillator_strength_4>
0.0658

>  <open_babel_can_smiles>
CN(c1ccc2c(c1)cc[nH]2)C

>  <mulliken_charges>
24
1   -0.300133
2   -0.304477
3   -0.190356
4   -0.168914
5   -0.230241
6   0.048233
7   -0.281988
8   0.11816
9   0.314931
10   0.310691
11   -0.683573
12   -0.459754
13   0.147764
14   0.161384
15   0.12697
16   0.146924
17   0.131388
18   0.157333
19   0.123205
20   0.118427
21   0.123792
22   0.145519
23   0.120255
24   0.32446

>  <lowdin_charges>
24
1   -0.356787
2   -0.349448
3   -0.187056
4   -0.180648
5   -0.226907
6   -0.123952
7   -0.20793
8   -0.021459
9   0.039254
10   0.016845
11   -0.20353
12   -0.146657
13   0.151124
14   0.158094
15   0.126044
16   0.14824
17   0.129044
18   0.15447
19   0.158021
20   0.153107
21   0.159275
22   0.163033
23   0.157472
24   0.29035

$$$$

