PCCDB-ID:  19465
public computational chemistry database (PCCDB) project, http://pccdb.org

 27 28  0  0  0  0  0  0  0  0999 V2000
    2.7580    0.7491    0.0077 C   0  0  0  0  0  0  0  0  0  0  0  0
    2.7219   -0.6675    0.0029 C   0  0  0  0  0  0  0  0  0  0  0  0
    1.5879    1.4743    0.0242 C   0  0  0  0  0  0  0  0  0  0  0  0
    1.5170   -1.3328    0.0144 C   0  0  0  0  0  0  0  0  0  0  0  0
   -3.4901   -1.2811    0.0472 C   0  0  0  0  0  0  0  0  0  0  0  0
   -3.9254   -1.5512   -1.3618 C   0  0  0  0  0  0  0  0  0  0  0  0
   -2.1046    0.8641    0.0675 C   0  0  0  0  0  0  0  0  0  0  0  0
   -0.9011    1.5302    0.0540 C   0  0  0  0  0  0  0  0  0  0  0  0
   -0.9683   -1.2689    0.0400 C   0  0  0  0  0  0  0  0  0  0  0  0
   -4.0268   -3.9831   -1.1360 C   0  0  0  0  0  0  0  0  0  0  0  0
   -4.5543   -2.9137   -3.2738 C   0  0  0  0  0  0  0  0  0  0  0  0
   -2.1500   -0.5558    0.0631 C   0  0  0  0  0  0  0  0  0  0  0  0
   -4.1604   -2.7726   -1.8995 C   0  0  0  0  0  0  0  0  0  0  0  0
    0.3279    0.8185    0.0348 C   0  0  0  0  0  0  0  0  0  0  0  0
    0.2911   -0.6140    0.0301 C   0  0  0  0  0  0  0  0  0  0  0  0
   -3.9101   -4.9578   -0.5129 N   0  0  0  0  0  0  0  0  0  0  0  0
   -4.8758   -3.0210   -4.3859 N   0  0  0  0  0  0  0  0  0  0  0  0
    3.7160    1.2614   -0.0011 H   0  0  0  0  0  0  0  0  0  0  0  0
    3.6526   -1.2278   -0.0097 H   0  0  0  0  0  0  0  0  0  0  0  0
    1.6127    2.5614    0.0290 H   0  0  0  0  0  0  0  0  0  0  0  0
    1.4870   -2.4197    0.0111 H   0  0  0  0  0  0  0  0  0  0  0  0
   -3.4325   -2.2158    0.6130 H   0  0  0  0  0  0  0  0  0  0  0  0
   -4.2521   -0.6531    0.5296 H   0  0  0  0  0  0  0  0  0  0  0  0
   -4.0394   -0.6894   -2.0157 H   0  0  0  0  0  0  0  0  0  0  0  0
   -3.0349    1.4271    0.0930 H   0  0  0  0  0  0  0  0  0  0  0  0
   -0.8779    2.6172    0.0649 H   0  0  0  0  0  0  0  0  0  0  0  0
   -0.9893   -2.3570    0.0350 H   0  0  0  0  0  0  0  0  0  0  0  0
  1  3  1  0  0  0  0
  2  1  2  0  0  0  0
  2  4  1  0  0  0  0
  3 20  1  0  0  0  0
  3 14  2  0  0  0  0
  4 15  2  0  0  0  0
  5 12  1  0  0  0  0
  5 23  1  0  0  0  0
  5 22  1  0  0  0  0
  6  5  1  0  0  0  0
  7 25  1  0  0  0  0
  8 26  1  0  0  0  0
  8  7  2  0  0  0  0
  9 12  2  0  0  0  0
 10 16  3  0  0  0  0
 11 13  1  0  0  0  0
 12  7  1  0  0  0  0
 13  6  2  0  0  0  0
 13 10  1  0  0  0  0
 14  8  1  0  0  0  0
 15 14  1  0  0  0  0
 15  9  1  0  0  0  0
 17 11  3  0  0  0  0
 18  1  1  0  0  0  0
 19  2  1  0  0  0  0
 21  4  1  0  0  0  0
 24  6  1  0  0  0  0
 27  9  1  0  0  0  0
M  END
>  <HBA>
2

>  <HBD>
0

>  <TPSA>
47.58

>  <cid>
19465

>  <dipole>
5.75

>  <excitation_energy_1>
3.207

>  <excitation_energy_2>
3.902

>  <excitation_energy_3>
4.33

>  <excitation_energy_4>
4.453

>  <homo_energy>
-6.212

>  <homo_lumo_gap>
3.81

>  <logP>
3.356

>  <lumo_energy>
-2.403

>  <melting_point>
130.84

>  <molecular_refractivity>
67.17

>  <oscillator_strength_1>
0.0535

>  <oscillator_strength_2>
0.039

>  <oscillator_strength_3>
0.0569

>  <oscillator_strength_4>
0.0015

>  <open_babel_can_smiles>
N#CC(=CCc1ccc2c(c1)cccc2)C#N

>  <mulliken_charges>
27
1   -0.132382
2   -0.135607
3   -0.190559
4   -0.187106
5   -0.425745
6   -0.048603
7   -0.184835
8   -0.188137
9   -0.247787
10   0.301183
11   0.296232
12   0.154189
13   0.118791
14   0.137385
15   0.138142
16   -0.470408
17   -0.456509
18   0.136553
19   0.137623
20   0.134844
21   0.138679
22   0.193132
23   0.182759
24   0.188447
25   0.128512
26   0.137891
27   0.143314

>  <lowdin_charges>
27
1   -0.153227
2   -0.153282
3   -0.151905
4   -0.150907
5   -0.272989
6   -0.056055
7   -0.171833
8   -0.145941
9   -0.155736
10   -0.006288
11   -0.005929
12   -0.010891
13   -0.044495
14   0.000657
15   0.002426
16   -0.092602
17   -0.090637
18   0.161853
19   0.16261
20   0.157928
21   0.159715
22   0.177219
23   0.176131
24   0.185867
25   0.15765
26   0.159683
27   0.160977

$$$$

