PCCDB-ID:  70201
public computational chemistry database (PCCDB) project, http://pccdb.org

 24 23  0  0  0  0  0  0  0  0999 V2000
    2.7663   -1.0965   -0.1658 C   0  0  0  0  0  0  0  0  0  0  0  0
    2.7245   -0.1077    2.1716 C   0  0  0  0  0  0  0  0  0  0  0  0
    3.5068    3.7324   -0.2255 C   0  0  0  0  0  0  0  0  0  0  0  0
    1.3623    2.8595    0.7371 C   0  0  0  0  0  0  0  0  0  0  0  0
    2.4838    0.1577    0.6712 C   0  0  0  0  0  0  0  0  0  0  0  0
    2.8798    2.6461    0.6575 C   0  0  0  0  0  0  0  0  0  0  0  0
    4.6423    1.1581    0.1359 N   0  0  0  0  0  0  0  0  0  0  0  0
    3.2206    1.3141    0.1079 N   0  0  0  0  0  0  0  0  0  0  0  0
    2.0993   -1.9125    0.1333 H   0  0  0  0  0  0  0  0  0  0  0  0
    3.7954   -1.4519   -0.0354 H   0  0  0  0  0  0  0  0  0  0  0  0
    2.6052   -0.8887   -1.2290 H   0  0  0  0  0  0  0  0  0  0  0  0
    2.0996   -0.9404    2.5137 H   0  0  0  0  0  0  0  0  0  0  0  0
    2.4816    0.7666    2.7852 H   0  0  0  0  0  0  0  0  0  0  0  0
    3.7658   -0.3858    2.3786 H   0  0  0  0  0  0  0  0  0  0  0  0
    3.3231    4.7234    0.2061 H   0  0  0  0  0  0  0  0  0  0  0  0
    3.0656    3.7036   -1.2291 H   0  0  0  0  0  0  0  0  0  0  0  0
    4.5831    3.5800   -0.3179 H   0  0  0  0  0  0  0  0  0  0  0  0
    1.1576    3.9044    0.9937 H   0  0  0  0  0  0  0  0  0  0  0  0
    0.8766    2.2385    1.4963 H   0  0  0  0  0  0  0  0  0  0  0  0
    0.8940    2.6527   -0.2327 H   0  0  0  0  0  0  0  0  0  0  0  0
    1.4232    0.3910    0.5390 H   0  0  0  0  0  0  0  0  0  0  0  0
    3.2956    2.7575    1.6780 H   0  0  0  0  0  0  0  0  0  0  0  0
    4.9032    0.5274   -0.6177 H   0  0  0  0  0  0  0  0  0  0  0  0
    4.9517    0.7312    1.0152 H   0  0  0  0  0  0  0  0  0  0  0  0
  1 10  1  0  0  0  0
  1  9  1  0  0  0  0
  1  5  1  0  0  0  0
  2 14  1  0  0  0  0
  2 12  1  0  0  0  0
  2 13  1  0  0  0  0
  3 15  1  0  0  0  0
  3  6  1  0  0  0  0
  4 18  1  0  0  0  0
  4 19  1  0  0  0  0
  5  2  1  0  0  0  0
  6  4  1  0  0  0  0
  6 22  1  0  0  0  0
  7 24  1  0  0  0  0
  8  7  1  0  0  0  0
  8  6  1  0  0  0  0
  8  5  1  0  0  0  0
 11  1  1  0  0  0  0
 16  3  1  0  0  0  0
 17  3  1  0  0  0  0
 20  4  1  0  0  0  0
 21  5  1  0  0  0  0
 23  7  1  0  0  0  0
M  END
>  <HBA>
2

>  <HBD>
1

>  <TPSA>
29.26

>  <cid>
70201

>  <dipole>
1.67

>  <excitation_energy_1>
5.208

>  <excitation_energy_2>
5.644

>  <excitation_energy_3>
5.78

>  <excitation_energy_4>
6.04

>  <homo_energy>
-5.668

>  <homo_lumo_gap>
7.54

>  <logP>
1.679

>  <lumo_energy>
1.872

>  <melting_point>
30.32

>  <molecular_refractivity>
36.56

>  <oscillator_strength_1>
0.0035

>  <oscillator_strength_2>
0.0122

>  <oscillator_strength_3>
0.0287

>  <oscillator_strength_4>
0.0125

>  <open_babel_can_smiles>
CC(N(C(C)C)N)C

>  <mulliken_charges>
24
1   -0.453178
2   -0.463219
3   -0.437201
4   -0.469842
5   0.050615
6   0.100188
7   -0.58501
8   -0.318502
9   0.143316
10   0.128889
11   0.155037
12   0.146463
13   0.153014
14   0.133156
15   0.125773
16   0.137102
17   0.172423
18   0.145638
19   0.143741
20   0.151782
21   0.140466
22   0.099031
23   0.315051
24   0.285268

>  <lowdin_charges>
24
1   -0.450506
2   -0.467256
3   -0.446107
4   -0.454036
5   -0.070257
6   -0.050618
7   -0.471552
8   -0.147196
9   0.153116
10   0.139461
11   0.154559
12   0.155785
13   0.153195
14   0.141183
15   0.141802
16   0.145836
17   0.162867
18   0.153835
19   0.148186
20   0.152277
21   0.147011
22   0.112576
23   0.259841
24   0.235995

$$$$

