PCCDB-ID:  43870
public computational chemistry database (PCCDB) project, http://pccdb.org

 25 24  0  0  0  0  0  0  0  0999 V2000
    0.9194   -0.5019   -0.0422 C   0  0  0  0  0  0  0  0  0  0  0  0
   -0.0485    0.3921   -0.8353 C   0  0  0  0  0  0  0  0  0  0  0  0
    2.3847   -0.0428   -0.0337 C   0  0  0  0  0  0  0  0  0  0  0  0
    3.7022    2.1478    0.2066 C   0  0  0  0  0  0  0  0  0  0  0  0
    0.1219    0.3601   -2.3587 C   0  0  0  0  0  0  0  0  0  0  0  0
    3.2650    3.3847   -0.5862 C   0  0  0  0  0  0  0  0  0  0  0  0
    1.8770    1.5517    1.6829 N   0  0  0  0  0  0  0  0  0  0  0  0
    2.5898    1.2773    0.5878 N   0  0  0  0  0  0  0  0  0  0  0  0
    1.3992    0.7842   -2.8183 O   0  0  0  0  0  0  0  0  0  0  0  0
    2.7631    3.0886   -1.8917 O   0  0  0  0  0  0  0  0  0  0  0  0
    2.1617    2.6170    2.2361 O   0  0  0  0  0  0  0  0  0  0  0  0
    0.9116   -1.5152   -0.4672 H   0  0  0  0  0  0  0  0  0  0  0  0
    0.5673   -0.5898    0.9898 H   0  0  0  0  0  0  0  0  0  0  0  0
    0.0292    1.4280   -0.4791 H   0  0  0  0  0  0  0  0  0  0  0  0
   -1.0767    0.0759   -0.6111 H   0  0  0  0  0  0  0  0  0  0  0  0
    2.7376    0.0365   -1.0622 H   0  0  0  0  0  0  0  0  0  0  0  0
    3.0036   -0.7845    0.4914 H   0  0  0  0  0  0  0  0  0  0  0  0
    4.1892    2.4841    1.1286 H   0  0  0  0  0  0  0  0  0  0  0  0
    4.4142    1.5489   -0.3708 H   0  0  0  0  0  0  0  0  0  0  0  0
   -0.6787    0.9620   -2.8206 H   0  0  0  0  0  0  0  0  0  0  0  0
    0.0020   -0.6669   -2.7252 H   0  0  0  0  0  0  0  0  0  0  0  0
    4.1110    4.0839   -0.6524 H   0  0  0  0  0  0  0  0  0  0  0  0
    2.4542    3.8864   -0.0566 H   0  0  0  0  0  0  0  0  0  0  0  0
    1.5785    1.6732   -2.4548 H   0  0  0  0  0  0  0  0  0  0  0  0
    3.5037    2.7947   -2.4459 H   0  0  0  0  0  0  0  0  0  0  0  0
  1  3  1  0  0  0  0
  1 13  1  0  0  0  0
  2 15  1  0  0  0  0
  2 14  1  0  0  0  0
  2  1  1  0  0  0  0
  3 17  1  0  0  0  0
  3  8  1  0  0  0  0
  4  8  1  0  0  0  0
  4 18  1  0  0  0  0
  5  2  1  0  0  0  0
  6 23  1  0  0  0  0
  6  4  1  0  0  0  0
  7 11  1  0  0  0  0
  8  7  1  0  0  0  0
  9 24  1  0  0  0  0
  9  5  1  0  0  0  0
 10  6  1  0  0  0  0
 12  1  1  0  0  0  0
 16  3  1  0  0  0  0
 19  4  1  0  0  0  0
 20  5  1  0  0  0  0
 21  5  1  0  0  0  0
 22  6  1  0  0  0  0
 25 10  1  0  0  0  0
M  RAD  2   7   2  11   2
M  END
>  <HBA>
5

>  <HBD>
2

>  <TPSA>
73.13

>  <cid>
43870

>  <dipole>
3.0

>  <excitation_energy_1>
3.27

>  <excitation_energy_2>
5.204

>  <excitation_energy_3>
5.391

>  <excitation_energy_4>
5.594

>  <homo_energy>
-6.03

>  <homo_lumo_gap>
5.108

>  <logP>
-0.265

>  <lumo_energy>
-0.922

>  <melting_point>
32.36

>  <molecular_refractivity>
40.91

>  <oscillator_strength_1>
0.0012

>  <oscillator_strength_2>
0.0053

>  <oscillator_strength_3>
0.0013

>  <oscillator_strength_4>
0.1052

>  <open_babel_can_smiles>
OCCCCN(CCO)[N][O]

>  <mulliken_charges>
25
1   -0.266915
2   -0.290657
3   -0.142775
4   -0.168267
5   -0.022819
6   -0.045319
7   0.153008
8   -0.21776
9   -0.658475
10   -0.61259
11   -0.395187
12   0.137589
13   0.167469
14   0.146996
15   0.136664
16   0.183566
17   0.151155
18   0.182811
19   0.150647
20   0.120897
21   0.133583
22   0.140435
23   0.192617
24   0.418502
25   0.404825

>  <lowdin_charges>
25
1   -0.278032
2   -0.296145
3   -0.208585
4   -0.23502
5   -0.132644
6   -0.140116
7   0.052508
8   -0.04436
9   -0.494921
10   -0.454948
11   -0.284294
12   0.148666
13   0.158564
14   0.145497
15   0.150741
16   0.166828
17   0.148526
18   0.173417
19   0.156089
20   0.128317
21   0.137253
22   0.14201
23   0.171787
24   0.336992
25   0.351871

$$$$

