PCCDB-ID:  69162
public computational chemistry database (PCCDB) project, http://pccdb.org

 24 24  0  0  0  0  0  0  0  0999 V2000
    0.5933    0.0818   -0.0219 C   0  0  0  0  0  0  0  0  0  0  0  0
    6.8430   -1.4267   -1.9639 C   0  0  0  0  0  0  0  0  0  0  0  0
    2.9822    0.9482   -0.1858 C   0  0  0  0  0  0  0  0  0  0  0  0
    4.3580    0.7693   -0.1216 C   0  0  0  0  0  0  0  0  0  0  0  0
    2.6415   -1.3618    0.3118 C   0  0  0  0  0  0  0  0  0  0  0  0
    2.0907   -0.1132    0.0343 C   0  0  0  0  0  0  0  0  0  0  0  0
    7.1335   -0.9570   -0.5598 C   0  0  0  0  0  0  0  0  0  0  0  0
    4.9347   -0.4907    0.1298 C   0  0  0  0  0  0  0  0  0  0  0  0
    4.0257   -1.5545    0.3414 C   0  0  0  0  0  0  0  0  0  0  0  0
    6.3082   -0.5668    0.3202 N   0  0  0  0  0  0  0  0  0  0  0  0
    4.4850   -2.9201    0.6056 N   0  0  0  0  0  0  0  0  0  0  0  0
    8.4408   -0.9536   -0.1979 O   0  0  0  0  0  0  0  0  0  0  0  0
    3.7414   -3.6583    1.2540 O   0  0  0  0  0  0  0  0  0  0  0  0
    5.5759   -3.2729    0.1490 O   0  0  0  0  0  0  0  0  0  0  0  0
    0.3376    1.1222   -0.2451 H   0  0  0  0  0  0  0  0  0  0  0  0
    0.1190   -0.1809    0.9314 H   0  0  0  0  0  0  0  0  0  0  0  0
    0.1344   -0.5472   -0.7944 H   0  0  0  0  0  0  0  0  0  0  0  0
    7.0557   -2.4987   -2.0415 H   0  0  0  0  0  0  0  0  0  0  0  0
    7.4687   -0.8907   -2.6882 H   0  0  0  0  0  0  0  0  0  0  0  0
    5.7947   -1.2694   -2.2205 H   0  0  0  0  0  0  0  0  0  0  0  0
    2.5888    1.9394   -0.3995 H   0  0  0  0  0  0  0  0  0  0  0  0
    5.0301    1.6117   -0.2518 H   0  0  0  0  0  0  0  0  0  0  0  0
    2.0073   -2.2201    0.5042 H   0  0  0  0  0  0  0  0  0  0  0  0
    8.9767   -1.3033   -0.9264 H   0  0  0  0  0  0  0  0  0  0  0  0
  1  6  1  0  0  0  0
  1 16  1  0  0  0  0
  2  7  1  0  0  0  0
  3  4  2  0  0  0  0
  3  6  1  0  0  0  0
  4  8  1  0  0  0  0
  5  9  1  0  0  0  0
  5 23  1  0  0  0  0
  6  5  2  0  0  0  0
  7 12  1  0  0  0  0
  7 10  2  0  0  0  0
  8 10  1  0  0  0  0
  8  9  2  0  0  0  0
  9 11  1  0  0  0  0
 11 13  2  0  0  0  0
 14 11  2  0  0  0  0
 15  1  1  0  0  0  0
 17  1  1  0  0  0  0
 18  2  1  0  0  0  0
 19  2  1  0  0  0  0
 20  2  1  0  0  0  0
 21  3  1  0  0  0  0
 22  4  1  0  0  0  0
 24 12  1  0  0  0  0
M  END
>  <HBA>
2

>  <HBD>
1

>  <TPSA>
74.92

>  <cid>
69162

>  <dipole>
5.19

>  <excitation_energy_1>
3.315

>  <excitation_energy_2>
3.706

>  <excitation_energy_3>
4.131

>  <excitation_energy_4>
4.643

>  <homo_energy>
-6.174

>  <homo_lumo_gap>
4.125

>  <logP>
2.458

>  <lumo_energy>
-2.049

>  <melting_point>
103.23

>  <molecular_refractivity>
54.54

>  <oscillator_strength_1>
0.05

>  <oscillator_strength_2>
0.0065

>  <oscillator_strength_3>
0.0053

>  <oscillator_strength_4>
0.0469

>  <open_babel_can_smiles>
Cc1ccc(c(c1)N(=O)=O)/N=C(/O)\C

>  <mulliken_charges>
24
1   -0.530209
2   -0.544336
3   -0.169683
4   -0.1603
5   -0.210049
6   0.16614
7   0.515938
8   0.224492
9   0.259189
10   -0.456957
11   0.356516
12   -0.563712
13   -0.391713
14   -0.40906
15   0.157437
16   0.171538
17   0.167227
18   0.202598
19   0.163578
20   0.187949
21   0.134951
22   0.143426
23   0.170394
24   0.414646

>  <lowdin_charges>
24
1   -0.441378
2   -0.477333
3   -0.142171
4   -0.173429
5   -0.145654
6   -0.010333
7   0.171977
8   0.061173
9   -0.020707
10   -0.166279
11   0.311322
12   -0.34795
13   -0.252897
14   -0.257105
15   0.1575
16   0.16552
17   0.16442
18   0.183879
19   0.165497
20   0.178878
21   0.16104
22   0.169369
23   0.182027
24   0.362636

$$$$

