PCCDB-ID:  35367
public computational chemistry database (PCCDB) project, http://pccdb.org

 24 24  0  0  1  0  0  0  0  0999 V2000
    1.0049   -0.0964    0.3190 C   0  0  0  0  0  0  0  0  0  0  0  0
    3.1984   -2.4720   -0.2960 C   0  0  0  0  0  0  0  0  0  0  0  0
    2.0212   -1.4298   -2.2516 C   0  0  0  0  0  0  0  0  0  0  0  0
    4.0179    0.9432   -1.8205 C   0  0  0  0  0  0  0  0  0  0  0  0
    2.7992    1.2852   -0.9163 C   0  0  0  0  0  0  0  0  0  0  0  0
    4.3042   -0.5579   -1.5765 C   0  0  0  0  0  0  0  0  0  0  0  0
    2.4604   -0.0144   -0.1460 C   0  0  2  0  0  0  0  0  0  0  0  0
    2.9728   -1.1645   -1.0679 C   0  0  0  0  0  0  0  0  0  0  0  0
    0.7750    0.7189    1.0156 H   0  0  0  0  0  0  0  0  0  0  0  0
    0.7950   -1.0394    0.8380 H   0  0  0  0  0  0  0  0  0  0  0  0
    0.3071   -0.0127   -0.5225 H   0  0  0  0  0  0  0  0  0  0  0  0
    3.6441   -3.2399   -0.9407 H   0  0  0  0  0  0  0  0  0  0  0  0
    2.2566   -2.8788    0.0928 H   0  0  0  0  0  0  0  0  0  0  0  0
    3.8735   -2.3179    0.5551 H   0  0  0  0  0  0  0  0  0  0  0  0
    2.4636   -2.1620   -2.9383 H   0  0  0  0  0  0  0  0  0  0  0  0
    1.8128   -0.5220   -2.8296 H   0  0  0  0  0  0  0  0  0  0  0  0
    1.0613   -1.8361   -1.9131 H   0  0  0  0  0  0  0  0  0  0  0  0
    4.8926    1.5602   -1.5892 H   0  0  0  0  0  0  0  0  0  0  0  0
    3.7793    1.1279   -2.8738 H   0  0  0  0  0  0  0  0  0  0  0  0
    1.9416    1.5978   -1.5252 H   0  0  0  0  0  0  0  0  0  0  0  0
    3.0063    2.1131   -0.2290 H   0  0  0  0  0  0  0  0  0  0  0  0
    5.0668   -0.6699   -0.7940 H   0  0  0  0  0  0  0  0  0  0  0  0
    4.6857   -1.0709   -2.4676 H   0  0  0  0  0  0  0  0  0  0  0  0
    3.0977   -0.0436    0.7517 H   0  0  0  0  0  0  0  0  0  0  0  0
  1 10  1  0  0  0  0
  1  9  1  0  0  0  0
  2 13  1  0  0  0  0
  2 14  1  0  0  0  0
  3 17  1  0  0  0  0
  3  8  1  0  0  0  0
  4 18  1  0  0  0  0
  4  6  1  0  0  0  0
  4  5  1  0  0  0  0
  5 21  1  0  0  0  0
  5  7  1  0  0  0  0
  6  8  1  0  0  0  0
  6 22  1  0  0  0  0
  7  1  1  0  0  0  0
  7 24  1  1  0  0  0
  8  2  1  0  0  0  0
  8  7  1  0  0  0  0
 11  1  1  0  0  0  0
 12  2  1  0  0  0  0
 15  3  1  0  0  0  0
 16  3  1  0  0  0  0
 19  4  1  0  0  0  0
 20  5  1  0  0  0  0
 23  6  1  0  0  0  0
M  END
>  <HBA>
0

>  <HBD>
0

>  <TPSA>
0.0

>  <cid>
35367

>  <dipole>
0.06

>  <excitation_energy_1>
7.344

>  <excitation_energy_2>
7.695

>  <excitation_energy_3>
7.732

>  <excitation_energy_4>
7.814

>  <homo_energy>
-7.872

>  <homo_lumo_gap>
9.881

>  <logP>
2.833

>  <lumo_energy>
2.008

>  <melting_point>
13.37

>  <molecular_refractivity>
38.2

>  <oscillator_strength_1>
0.0072

>  <oscillator_strength_2>
0.0189

>  <oscillator_strength_3>
0.0103

>  <oscillator_strength_4>
0.0217

>  <open_babel_can_smiles>
C[C@@H]1CCCC1(C)C

>  <mulliken_charges>
24
1   -0.458327
2   -0.453809
3   -0.459246
4   -0.277621
5   -0.276625
6   -0.26842
7   -0.067301
8   0.100913
9   0.140979
10   0.140884
11   0.142614
12   0.137935
13   0.138665
14   0.135513
15   0.138064
16   0.141965
17   0.142665
18   0.133666
19   0.13558
20   0.131171
21   0.132019
22   0.127008
23   0.126961
24   0.114749

>  <lowdin_charges>
24
1   -0.447925
2   -0.44433
3   -0.447642
4   -0.286444
5   -0.288467
6   -0.282731
7   -0.127738
8   0.005488
9   0.150516
10   0.147464
11   0.147283
12   0.148403
13   0.146199
14   0.145474
15   0.148742
16   0.148434
17   0.148288
18   0.14527
19   0.141295
20   0.140651
21   0.14485
22   0.139919
23   0.142239
24   0.134764

$$$$

