PCCDB-ID:  20660
public computational chemistry database (PCCDB) project, http://pccdb.org

 45 45  0  0  0  0  0  0  0  0999 V2000
    3.0298    4.6487    8.5876 C   0  0  0  0  0  0  0  0  0  0  0  0
    9.5391    3.3437   -0.4745 C   0  0  0  0  0  0  0  0  0  0  0  0
    4.4822    4.1648    8.5296 C   0  0  0  0  0  0  0  0  0  0  0  0
    8.9398    3.4495    0.9319 C   0  0  0  0  0  0  0  0  0  0  0  0
    5.1127    4.3060    7.1382 C   0  0  0  0  0  0  0  0  0  0  0  0
    9.7537    4.3628    1.8599 C   0  0  0  0  0  0  0  0  0  0  0  0
   11.5428    5.7238    7.9355 C   0  0  0  0  0  0  0  0  0  0  0  0
    6.5701    3.8304    7.0761 C   0  0  0  0  0  0  0  0  0  0  0  0
    9.1544    4.5685    3.2624 C   0  0  0  0  0  0  0  0  0  0  0  0
   11.6053    4.3312    7.8670 C   0  0  0  0  0  0  0  0  0  0  0  0
   10.5282    6.3957    7.2529 C   0  0  0  0  0  0  0  0  0  0  0  0
    7.1893    3.9502    5.6772 C   0  0  0  0  0  0  0  0  0  0  0  0
    9.1344    3.2974    4.1234 C   0  0  0  0  0  0  0  0  0  0  0  0
   10.6607    3.6249    7.1222 C   0  0  0  0  0  0  0  0  0  0  0  0
    9.5864    5.6826    6.5081 C   0  0  0  0  0  0  0  0  0  0  0  0
    8.6520    3.4640    5.5935 C   0  0  0  0  0  0  0  0  0  0  0  0
    9.6352    4.2825    6.4261 C   0  0  0  0  0  0  0  0  0  0  0  0
    2.6080    4.5330    9.5926 H   0  0  0  0  0  0  0  0  0  0  0  0
    2.3956    4.0836    7.8932 H   0  0  0  0  0  0  0  0  0  0  0  0
    2.9537    5.7086    8.3147 H   0  0  0  0  0  0  0  0  0  0  0  0
    8.9411    2.6879   -1.1177 H   0  0  0  0  0  0  0  0  0  0  0  0
   10.5579    2.9381   -0.4412 H   0  0  0  0  0  0  0  0  0  0  0  0
    9.5922    4.3272   -0.9578 H   0  0  0  0  0  0  0  0  0  0  0  0
    4.5302    3.1121    8.8429 H   0  0  0  0  0  0  0  0  0  0  0  0
    5.0850    4.7255    9.2581 H   0  0  0  0  0  0  0  0  0  0  0  0
    8.8638    2.4442    1.3668 H   0  0  0  0  0  0  0  0  0  0  0  0
    7.9105    3.8310    0.8636 H   0  0  0  0  0  0  0  0  0  0  0  0
    5.0593    5.3590    6.8226 H   0  0  0  0  0  0  0  0  0  0  0  0
    4.5117    3.7411    6.4096 H   0  0  0  0  0  0  0  0  0  0  0  0
    9.8600    5.3451    1.3773 H   0  0  0  0  0  0  0  0  0  0  0  0
   10.7742    3.9626    1.9571 H   0  0  0  0  0  0  0  0  0  0  0  0
   12.2745    6.2788    8.5165 H   0  0  0  0  0  0  0  0  0  0  0  0
    6.6234    2.7816    7.4046 H   0  0  0  0  0  0  0  0  0  0  0  0
    7.1707    4.4045    7.7943 H   0  0  0  0  0  0  0  0  0  0  0  0
    8.1352    4.9669    3.1587 H   0  0  0  0  0  0  0  0  0  0  0  0
    9.7377    5.3418    3.7777 H   0  0  0  0  0  0  0  0  0  0  0  0
   12.3864    3.7927    8.3978 H   0  0  0  0  0  0  0  0  0  0  0  0
   10.4648    7.4799    7.3010 H   0  0  0  0  0  0  0  0  0  0  0  0
    7.1078    4.9894    5.3325 H   0  0  0  0  0  0  0  0  0  0  0  0
    6.5933    3.3560    4.9694 H   0  0  0  0  0  0  0  0  0  0  0  0
   10.1467    2.8696    4.1434 H   0  0  0  0  0  0  0  0  0  0  0  0
    8.4903    2.5430    3.6517 H   0  0  0  0  0  0  0  0  0  0  0  0
   10.7166    2.5388    7.0794 H   0  0  0  0  0  0  0  0  0  0  0  0
    8.8026    6.2285    5.9908 H   0  0  0  0  0  0  0  0  0  0  0  0
    8.6653    2.4485    6.0163 H   0  0  0  0  0  0  0  0  0  0  0  0
  1 18  1  0  0  0  0
  2 22  1  0  0  0  0
  2  4  1  0  0  0  0
  3  1  1  0  0  0  0
  3 24  1  0  0  0  0
  3 25  1  0  0  0  0
  4 26  1  0  0  0  0
  4  6  1  0  0  0  0
  5  3  1  0  0  0  0
  6 31  1  0  0  0  0
  6  9  1  0  0  0  0
  7 32  1  0  0  0  0
  8  5  1  0  0  0  0
  8 33  1  0  0  0  0
  8 34  1  0  0  0  0
  9 36  1  0  0  0  0
  9 13  1  0  0  0  0
 10  7  1  0  0  0  0
 10 37  1  0  0  0  0
 11 38  1  0  0  0  0
 11  7  2  0  0  0  0
 12  8  1  0  0  0  0
 13 41  1  0  0  0  0
 13 16  1  0  0  0  0
 14 10  2  0  0  0  0
 15 11  1  0  0  0  0
 16 12  1  0  0  0  0
 16 45  1  0  0  0  0
 16 17  1  0  0  0  0
 17 15  2  0  0  0  0
 17 14  1  0  0  0  0
 19  1  1  0  0  0  0
 20  1  1  0  0  0  0
 21  2  1  0  0  0  0
 23  2  1  0  0  0  0
 27  4  1  0  0  0  0
 28  5  1  0  0  0  0
 29  5  1  0  0  0  0
 30  6  1  0  0  0  0
 35  9  1  0  0  0  0
 39 12  1  0  0  0  0
 40 12  1  0  0  0  0
 42 13  1  0  0  0  0
 43 14  1  0  0  0  0
 44 15  1  0  0  0  0
M  END
>  <HBA>
0

>  <HBD>
0

>  <TPSA>
0.0

>  <cid>
20660

>  <dipole>
0.16

>  <excitation_energy_1>
5.284

>  <excitation_energy_2>
5.85

>  <excitation_energy_3>
5.996

>  <excitation_energy_4>
6.192

>  <homo_energy>
-6.395

>  <homo_lumo_gap>
6.506

>  <logP>
5.931

>  <lumo_energy>
0.112

>  <melting_point>
0.51

>  <molecular_refractivity>
79.48

>  <oscillator_strength_1>
0.001

>  <oscillator_strength_2>
0.0361

>  <oscillator_strength_3>
0.0007

>  <oscillator_strength_4>
0.0014

>  <open_babel_can_smiles>
CCCCCC(c1ccccc1)CCCCC

>  <mulliken_charges>
45
1   -0.441435
2   -0.441268
3   -0.246668
4   -0.247964
5   -0.245889
6   -0.248724
7   -0.131949
8   -0.257701
9   -0.264621
10   -0.125794
11   -0.132304
12   -0.268179
13   -0.257951
14   -0.189396
15   -0.185528
16   -0.17016
17   0.175794
18   0.14113
19   0.140361
20   0.14058
21   0.140387
22   0.141287
23   0.140736
24   0.129592
25   0.131684
26   0.134632
27   0.127929
28   0.124866
29   0.124762
30   0.125805
31   0.127335
32   0.126271
33   0.125129
34   0.142012
35   0.127901
36   0.139942
37   0.12658
38   0.126562
39   0.13442
40   0.127267
41   0.130066
42   0.131662
43   0.121542
44   0.126572
45   0.122726

>  <lowdin_charges>
45
1   -0.443983
2   -0.444431
3   -0.271943
4   -0.273213
5   -0.274183
6   -0.272936
7   -0.163984
8   -0.277526
9   -0.283305
10   -0.157159
11   -0.154502
12   -0.276326
13   -0.27443
14   -0.166672
15   -0.173196
16   -0.12482
17   0.001333
18   0.148305
19   0.147009
20   0.144354
21   0.149838
22   0.145332
23   0.145373
24   0.137167
25   0.140877
26   0.138904
27   0.136411
28   0.134998
29   0.137309
30   0.139229
31   0.136612
32   0.157486
33   0.135699
34   0.147
35   0.136765
36   0.149425
37   0.157323
38   0.153825
39   0.138244
40   0.142267
41   0.140884
42   0.141394
43   0.150858
44   0.156574
45   0.141814

$$$$

