PCCDB-ID:  12260
public computational chemistry database (PCCDB) project, http://pccdb.org

 21 20  0  0  0  0  0  0  0  0999 V2000
    2.0909   -0.7949    1.3357 C   0  0  0  0  0  0  0  0  0  0  0  0
    1.8076   -0.4509   -1.1597 C   0  0  0  0  0  0  0  0  0  0  0  0
    5.7244    0.8196   -0.0354 C   0  0  0  0  0  0  0  0  0  0  0  0
    4.6985    3.1126    0.3188 C   0  0  0  0  0  0  0  0  0  0  0  0
    3.2205    1.1245    0.1827 C   0  0  0  0  0  0  0  0  0  0  0  0
    2.7663   -0.3080    0.0385 C   0  0  0  0  0  0  0  0  0  0  0  0
    4.4638    1.6286    0.1555 C   0  0  0  0  0  0  0  0  0  0  0  0
    1.7463   -1.8315    1.2341 H   0  0  0  0  0  0  0  0  0  0  0  0
    1.2183   -0.1756    1.5798 H   0  0  0  0  0  0  0  0  0  0  0  0
    2.7822   -0.7457    2.1841 H   0  0  0  0  0  0  0  0  0  0  0  0
    1.4658   -1.4876   -1.2682 H   0  0  0  0  0  0  0  0  0  0  0  0
    2.2943   -0.1516   -2.0944 H   0  0  0  0  0  0  0  0  0  0  0  0
    0.9199    0.1811   -1.0277 H   0  0  0  0  0  0  0  0  0  0  0  0
    6.4037    0.9551    0.8180 H   0  0  0  0  0  0  0  0  0  0  0  0
    6.2740    1.1618   -0.9236 H   0  0  0  0  0  0  0  0  0  0  0  0
    5.5404   -0.2512   -0.1481 H   0  0  0  0  0  0  0  0  0  0  0  0
    5.2174    3.5302   -0.5558 H   0  0  0  0  0  0  0  0  0  0  0  0
    5.3406    3.3200    1.1868 H   0  0  0  0  0  0  0  0  0  0  0  0
    3.7616    3.6629    0.4512 H   0  0  0  0  0  0  0  0  0  0  0  0
    2.4000    1.8315    0.3324 H   0  0  0  0  0  0  0  0  0  0  0  0
    3.6330   -0.9531   -0.1494 H   0  0  0  0  0  0  0  0  0  0  0  0
  1  9  1  0  0  0  0
  1 10  1  0  0  0  0
  2 13  1  0  0  0  0
  2  6  1  0  0  0  0
  3  7  1  0  0  0  0
  3 14  1  0  0  0  0
  4 19  1  0  0  0  0
  4 18  1  0  0  0  0
  5 20  1  0  0  0  0
  6  5  1  0  0  0  0
  6  1  1  0  0  0  0
  7  5  2  0  0  0  0
  7  4  1  0  0  0  0
  8  1  1  0  0  0  0
 11  2  1  0  0  0  0
 12  2  1  0  0  0  0
 15  3  1  0  0  0  0
 16  3  1  0  0  0  0
 17  4  1  0  0  0  0
 21  6  1  0  0  0  0
M  END
>  <HBA>
0

>  <HBD>
0

>  <TPSA>
0.0

>  <cid>
12260

>  <dipole>
0.3

>  <excitation_energy_1>
5.723

>  <excitation_energy_2>
6.188

>  <excitation_energy_3>
6.275

>  <excitation_energy_4>
6.293

>  <homo_energy>
-6.158

>  <homo_lumo_gap>
7.113

>  <logP>
2.609

>  <lumo_energy>
0.955

>  <melting_point>
-14.02

>  <molecular_refractivity>
35.29

>  <oscillator_strength_1>
0.004

>  <oscillator_strength_2>
0.0033

>  <oscillator_strength_3>
0.0197

>  <oscillator_strength_4>
0.2431

>  <open_babel_can_smiles>
CC(C=C(C)C)C

>  <mulliken_charges>
21
1   -0.436782
2   -0.43856
3   -0.51259
4   -0.505143
5   -0.15203
6   -0.111198
7   0.180605
8   0.137738
9   0.138567
10   0.145711
11   0.137996
12   0.146109
13   0.138556
14   0.150717
15   0.150745
16   0.154583
17   0.147743
18   0.147657
19   0.150447
20   0.104094
21   0.125034

>  <lowdin_charges>
21
1   -0.441678
2   -0.441432
3   -0.443917
4   -0.440651
5   -0.188455
6   -0.120252
7   -0.013409
8   0.145138
9   0.146075
10   0.151041
11   0.145455
12   0.150816
13   0.14572
14   0.154884
15   0.154873
16   0.15328
17   0.152259
18   0.151946
19   0.153972
20   0.143502
21   0.140834

$$$$

