PCCDB-ID:  56298
public computational chemistry database (PCCDB) project, http://pccdb.org

 39 39  0  0  0  0  0  0  0  0999 V2000
    8.6980   -4.7249    5.9422 C   0  0  0  0  0  0  0  0  0  0  0  0
    4.4765   -1.0408    1.4564 C   0  0  0  0  0  0  0  0  0  0  0  0
    4.2859   -1.0333   -1.0340 C   0  0  0  0  0  0  0  0  0  0  0  0
    8.5835   -4.1500    4.5266 C   0  0  0  0  0  0  0  0  0  0  0  0
    2.7069   -5.6949   -0.0695 C   0  0  0  0  0  0  0  0  0  0  0  0
    3.8026   -5.4130   -0.8895 C   0  0  0  0  0  0  0  0  0  0  0  0
    2.2812   -4.7377    0.8497 C   0  0  0  0  0  0  0  0  0  0  0  0
    4.4637   -4.1904   -0.7850 C   0  0  0  0  0  0  0  0  0  0  0  0
    2.9461   -3.5118    0.9522 C   0  0  0  0  0  0  0  0  0  0  0  0
    7.7497   -5.0429    3.6027 C   0  0  0  0  0  0  0  0  0  0  0  0
    6.6618   -3.4472    2.0379 C   0  0  0  0  0  0  0  0  0  0  0  0
    4.0517   -3.2178    0.1426 C   0  0  0  0  0  0  0  0  0  0  0  0
    6.9921   -2.6575    0.7618 C   0  0  0  0  0  0  0  0  0  0  0  0
    4.7772   -1.8571    0.1815 C   0  0  0  0  0  0  0  0  0  0  0  0
    7.6576   -4.5116    2.2321 N   0  0  0  0  0  0  0  0  0  0  0  0
    6.2337   -1.9918   -0.0081 N   0  0  0  0  0  0  0  0  0  0  0  0
    8.3174   -2.6868    0.4832 O   0  0  0  0  0  0  0  0  0  0  0  0
    9.3030   -4.0756    6.5836 H   0  0  0  0  0  0  0  0  0  0  0  0
    9.1693   -5.7154    5.9326 H   0  0  0  0  0  0  0  0  0  0  0  0
    7.7124   -4.8312    6.4116 H   0  0  0  0  0  0  0  0  0  0  0  0
    3.4328   -0.7088    1.4843 H   0  0  0  0  0  0  0  0  0  0  0  0
    5.1103   -0.1486    1.4602 H   0  0  0  0  0  0  0  0  0  0  0  0
    4.6740   -1.6046    2.3740 H   0  0  0  0  0  0  0  0  0  0  0  0
    3.2000   -0.8892   -0.9993 H   0  0  0  0  0  0  0  0  0  0  0  0
    4.5406   -1.5445   -1.9668 H   0  0  0  0  0  0  0  0  0  0  0  0
    4.7780   -0.0548   -1.0394 H   0  0  0  0  0  0  0  0  0  0  0  0
    9.5798   -4.0270    4.0841 H   0  0  0  0  0  0  0  0  0  0  0  0
    8.1413   -3.1462    4.5780 H   0  0  0  0  0  0  0  0  0  0  0  0
    2.1908   -6.6480   -0.1496 H   0  0  0  0  0  0  0  0  0  0  0  0
    4.1428   -6.1475   -1.6156 H   0  0  0  0  0  0  0  0  0  0  0  0
    1.4288   -4.9403    1.4935 H   0  0  0  0  0  0  0  0  0  0  0  0
    5.3158   -3.9805   -1.4249 H   0  0  0  0  0  0  0  0  0  0  0  0
    2.5920   -2.7840    1.6754 H   0  0  0  0  0  0  0  0  0  0  0  0
    6.7513   -5.2087    4.0444 H   0  0  0  0  0  0  0  0  0  0  0  0
    8.2295   -6.0268    3.5346 H   0  0  0  0  0  0  0  0  0  0  0  0
    5.6309   -3.8168    2.0113 H   0  0  0  0  0  0  0  0  0  0  0  0
    6.7410   -2.7542    2.8836 H   0  0  0  0  0  0  0  0  0  0  0  0
    7.4380   -5.2739    1.5931 H   0  0  0  0  0  0  0  0  0  0  0  0
    8.6922   -3.3387    1.1218 H   0  0  0  0  0  0  0  0  0  0  0  0
  1 20  1  0  0  0  0
  1 18  1  0  0  0  0
  2 22  1  0  0  0  0
  2 21  1  0  0  0  0
  2 23  1  0  0  0  0
  3 24  1  0  0  0  0
  3 14  1  0  0  0  0
  4 28  1  0  0  0  0
  4  1  1  0  0  0  0
  5  7  2  0  0  0  0
  6  8  2  0  0  0  0
  6  5  1  0  0  0  0
  7  9  1  0  0  0  0
  7 31  1  0  0  0  0
  8 12  1  0  0  0  0
  9 33  1  0  0  0  0
 10 34  1  0  0  0  0
 10  4  1  0  0  0  0
 11 15  1  0  0  0  0
 11 37  1  0  0  0  0
 12 14  1  0  0  0  0
 12  9  2  0  0  0  0
 13 11  1  0  0  0  0
 14  2  1  0  0  0  0
 15 10  1  0  0  0  0
 16 14  1  0  0  0  0
 16 13  2  0  0  0  0
 17 13  1  0  0  0  0
 17 39  1  0  0  0  0
 19  1  1  0  0  0  0
 25  3  1  0  0  0  0
 26  3  1  0  0  0  0
 27  4  1  0  0  0  0
 29  5  1  0  0  0  0
 30  6  1  0  0  0  0
 32  8  1  0  0  0  0
 35 10  1  0  0  0  0
 36 11  1  0  0  0  0
 38 15  1  0  0  0  0
M  END
>  <HBA>
3

>  <HBD>
2

>  <TPSA>
41.13

>  <cid>
56298

>  <dipole>
4.62

>  <excitation_energy_1>
5.067

>  <excitation_energy_2>
5.228

>  <excitation_energy_3>
5.334

>  <excitation_energy_4>
5.445

>  <homo_energy>
-6.117

>  <homo_lumo_gap>
6.095

>  <logP>
2.819

>  <lumo_energy>
-0.022

>  <melting_point>
85.2

>  <molecular_refractivity>
70.74

>  <oscillator_strength_1>
0.0059

>  <oscillator_strength_2>
0.0018

>  <oscillator_strength_3>
0.0073

>  <oscillator_strength_4>
0.0031

>  <open_babel_can_smiles>
CCCNC/C(=N\C(c1ccccc1)(C)C)/O

>  <mulliken_charges>
39
1   -0.448348
2   -0.472111
3   -0.421461
4   -0.248606
5   -0.131416
6   -0.13369
7   -0.132
8   -0.189453
9   -0.190646
10   -0.120309
11   -0.231613
12   0.13638
13   0.49748
14   0.125048
15   -0.60979
16   -0.456395
17   -0.596261
18   0.152231
19   0.145776
20   0.146042
21   0.1448
22   0.160312
23   0.138711
24   0.131407
25   0.151783
26   0.147983
27   0.146963
28   0.13958
29   0.126179
30   0.12765
31   0.126289
32   0.150275
33   0.125286
34   0.128499
35   0.141454
36   0.175511
37   0.178334
38   0.320112
39   0.418015

>  <lowdin_charges>
39
1   -0.445026
2   -0.451062
3   -0.433345
4   -0.278094
5   -0.164245
6   -0.159691
7   -0.15805
8   -0.168565
9   -0.179494
10   -0.201233
11   -0.249444
12   -0.009909
13   0.123321
14   0.071283
15   -0.361576
16   -0.220434
17   -0.37507
18   0.157003
19   0.148028
20   0.148334
21   0.149455
22   0.160753
23   0.145263
24   0.141621
25   0.155731
26   0.153078
27   0.147477
28   0.141514
29   0.155807
30   0.157167
31   0.156062
32   0.167275
33   0.158664
34   0.128157
35   0.146792
36   0.15948
37   0.165815
38   0.268042
39   0.349116

$$$$

