PCCDB-ID:  70247
public computational chemistry database (PCCDB) project, http://pccdb.org

 30 29  0  0  0  0  0  0  0  0999 V2000
    5.0038   -1.8057    1.3661 C   0  0  0  0  0  0  0  0  0  0  0  0
    8.6982    5.7112   -2.4473 C   0  0  0  0  0  0  0  0  0  0  0  0
    5.1742   -1.2506   -0.0519 C   0  0  0  0  0  0  0  0  0  0  0  0
    5.0686    0.2786   -0.1206 C   0  0  0  0  0  0  0  0  0  0  0  0
    5.2159    0.8331   -1.5449 C   0  0  0  0  0  0  0  0  0  0  0  0
    5.0610    2.3588   -1.6623 C   0  0  0  0  0  0  0  0  0  0  0  0
    6.1989    3.1690   -1.0267 C   0  0  0  0  0  0  0  0  0  0  0  0
    6.0360    4.6828   -1.2105 C   0  0  0  0  0  0  0  0  0  0  0  0
    7.1939    5.4941   -0.6184 C   0  0  0  0  0  0  0  0  0  0  0  0
    8.4676    5.1728   -1.1624 O   0  0  0  0  0  0  0  0  0  0  0  0
    5.0855   -2.8986    1.3816 H   0  0  0  0  0  0  0  0  0  0  0  0
    4.0236   -1.5390    1.7803 H   0  0  0  0  0  0  0  0  0  0  0  0
    5.7684   -1.4053    2.0433 H   0  0  0  0  0  0  0  0  0  0  0  0
    9.7293    5.4640   -2.7148 H   0  0  0  0  0  0  0  0  0  0  0  0
    8.5825    6.8077   -2.4528 H   0  0  0  0  0  0  0  0  0  0  0  0
    8.0291    5.2908   -3.2133 H   0  0  0  0  0  0  0  0  0  0  0  0
    4.4166   -1.6955   -0.7129 H   0  0  0  0  0  0  0  0  0  0  0  0
    6.1483   -1.5640   -0.4536 H   0  0  0  0  0  0  0  0  0  0  0  0
    5.8322    0.7180    0.5363 H   0  0  0  0  0  0  0  0  0  0  0  0
    4.0969    0.5923    0.2903 H   0  0  0  0  0  0  0  0  0  0  0  0
    4.4645    0.3520   -2.1873 H   0  0  0  0  0  0  0  0  0  0  0  0
    6.1952    0.5370   -1.9499 H   0  0  0  0  0  0  0  0  0  0  0  0
    4.1024    2.6603   -1.2134 H   0  0  0  0  0  0  0  0  0  0  0  0
    4.9925    2.6250   -2.7270 H   0  0  0  0  0  0  0  0  0  0  0  0
    7.1593    2.8595   -1.4594 H   0  0  0  0  0  0  0  0  0  0  0  0
    6.2650    2.9492    0.0480 H   0  0  0  0  0  0  0  0  0  0  0  0
    5.1079    5.0224   -0.7277 H   0  0  0  0  0  0  0  0  0  0  0  0
    5.9216    4.9171   -2.2783 H   0  0  0  0  0  0  0  0  0  0  0  0
    7.2802    5.2840    0.4545 H   0  0  0  0  0  0  0  0  0  0  0  0
    6.9981    6.5740   -0.7324 H   0  0  0  0  0  0  0  0  0  0  0  0
  1 11  1  0  0  0  0
  1 12  1  0  0  0  0
  1 13  1  0  0  0  0
  2 10  1  0  0  0  0
  3  1  1  0  0  0  0
  4  3  1  0  0  0  0
  4 20  1  0  0  0  0
  4 19  1  0  0  0  0
  5  4  1  0  0  0  0
  6  5  1  0  0  0  0
  6 23  1  0  0  0  0
  6  7  1  0  0  0  0
  7 26  1  0  0  0  0
  8  7  1  0  0  0  0
  8 27  1  0  0  0  0
  8  9  1  0  0  0  0
  9 29  1  0  0  0  0
 10  9  1  0  0  0  0
 14  2  1  0  0  0  0
 15  2  1  0  0  0  0
 16  2  1  0  0  0  0
 17  3  1  0  0  0  0
 18  3  1  0  0  0  0
 21  5  1  0  0  0  0
 22  5  1  0  0  0  0
 24  6  1  0  0  0  0
 25  7  1  0  0  0  0
 28  8  1  0  0  0  0
 30  9  1  0  0  0  0
M  END
>  <HBA>
1

>  <HBD>
0

>  <TPSA>
9.23

>  <cid>
70247

>  <dipole>
1.22

>  <excitation_energy_1>
6.331

>  <excitation_energy_2>
6.776

>  <excitation_energy_3>
6.893

>  <excitation_energy_4>
6.911

>  <homo_energy>
-6.732

>  <homo_lumo_gap>
9.034

>  <logP>
2.993

>  <lumo_energy>
2.302

>  <melting_point>
-37.5

>  <molecular_refractivity>
46.46

>  <oscillator_strength_1>
0.0238

>  <oscillator_strength_2>
0.004

>  <oscillator_strength_3>
0.0099

>  <oscillator_strength_4>
0.012

>  <open_babel_can_smiles>
CCCCCCCCOC

>  <mulliken_charges>
30
1   -0.441758
2   -0.19705
3   -0.246279
4   -0.247392
5   -0.253973
6   -0.254668
7   -0.250181
8   -0.280078
9   -0.023905
10   -0.45569
11   0.140907
12   0.140369
13   0.141298
14   0.157008
15   0.12722
16   0.131862
17   0.128838
18   0.130548
19   0.132817
20   0.124111
21   0.125483
22   0.127156
23   0.123942
24   0.124481
25   0.146215
26   0.131164
27   0.129523
28   0.132484
29   0.139679
30   0.115869

>  <lowdin_charges>
30
1   -0.443352
2   -0.279029
3   -0.272831
4   -0.278009
5   -0.276127
6   -0.273156
7   -0.276338
8   -0.291694
9   -0.128465
10   -0.273767
11   0.146778
12   0.145407
13   0.147176
14   0.153579
15   0.12785
16   0.132083
17   0.139081
18   0.13875
19   0.140274
20   0.135763
21   0.1407
22   0.137707
23   0.135721
24   0.137239
25   0.146792
26   0.137538
27   0.144854
28   0.138112
29   0.142823
30   0.124539

$$$$

