PCCDB-ID:  46323
public computational chemistry database (PCCDB) project, http://pccdb.org

 43 43  0  0  0  0  0  0  0  0999 V2000
   10.3636    0.7913    2.6481 C   0  0  0  0  0  0  0  0  0  0  0  0
    2.3999   -7.0300   -2.4453 C   0  0  0  0  0  0  0  0  0  0  0  0
    9.3000    0.7502    1.5441 C   0  0  0  0  0  0  0  0  0  0  0  0
    8.4539   -0.5339    1.5211 C   0  0  0  0  0  0  0  0  0  0  0  0
    9.2375   -1.8044    1.1558 C   0  0  0  0  0  0  0  0  0  0  0  0
    8.3685   -3.0638    0.9890 C   0  0  0  0  0  0  0  0  0  0  0  0
    7.7324   -3.5766    2.2902 C   0  0  0  0  0  0  0  0  0  0  0  0
    6.8196   -4.8034    2.1188 C   0  0  0  0  0  0  0  0  0  0  0  0
    7.5435   -6.0786    1.6661 C   0  0  0  0  0  0  0  0  0  0  0  0
    6.6442   -7.3345    1.6068 C   0  0  0  0  0  0  0  0  0  0  0  0
    4.8009   -7.4769   -1.7535 C   0  0  0  0  0  0  0  0  0  0  0  0
    5.7963   -7.5442   -0.7768 C   0  0  0  0  0  0  0  0  0  0  0  0
    3.2206   -6.8490   -0.0614 C   0  0  0  0  0  0  0  0  0  0  0  0
    3.4934   -7.1255   -1.4067 C   0  0  0  0  0  0  0  0  0  0  0  0
    5.5430   -7.2649    0.5685 C   0  0  0  0  0  0  0  0  0  0  0  0
    4.2233   -6.9145    0.9082 C   0  0  0  0  0  0  0  0  0  0  0  0
    3.9598   -6.6453    2.2293 O   0  0  0  0  0  0  0  0  0  0  0  0
   10.8934    1.7510    2.6494 H   0  0  0  0  0  0  0  0  0  0  0  0
   11.1140    0.0026    2.5236 H   0  0  0  0  0  0  0  0  0  0  0  0
    9.9087    0.6619    3.6384 H   0  0  0  0  0  0  0  0  0  0  0  0
    2.7342   -7.4232   -3.4105 H   0  0  0  0  0  0  0  0  0  0  0  0
    2.0868   -5.9897   -2.6036 H   0  0  0  0  0  0  0  0  0  0  0  0
    1.5076   -7.5927   -2.1453 H   0  0  0  0  0  0  0  0  0  0  0  0
    9.7846    0.8803    0.5655 H   0  0  0  0  0  0  0  0  0  0  0  0
    8.6285    1.6109    1.6664 H   0  0  0  0  0  0  0  0  0  0  0  0
    7.6395   -0.4057    0.7932 H   0  0  0  0  0  0  0  0  0  0  0  0
    7.9703   -0.6575    2.5001 H   0  0  0  0  0  0  0  0  0  0  0  0
   10.0088   -2.0007    1.9138 H   0  0  0  0  0  0  0  0  0  0  0  0
    9.7761   -1.6215    0.2144 H   0  0  0  0  0  0  0  0  0  0  0  0
    8.9890   -3.8566    0.5513 H   0  0  0  0  0  0  0  0  0  0  0  0
    7.5740   -2.8599    0.2548 H   0  0  0  0  0  0  0  0  0  0  0  0
    7.1415   -2.7717    2.7469 H   0  0  0  0  0  0  0  0  0  0  0  0
    8.5301   -3.8133    3.0112 H   0  0  0  0  0  0  0  0  0  0  0  0
    6.0212   -4.5631    1.4034 H   0  0  0  0  0  0  0  0  0  0  0  0
    6.3161   -5.0063    3.0734 H   0  0  0  0  0  0  0  0  0  0  0  0
    8.3736   -6.2850    2.3578 H   0  0  0  0  0  0  0  0  0  0  0  0
    7.9965   -5.9250    0.6777 H   0  0  0  0  0  0  0  0  0  0  0  0
    6.2065   -7.5105    2.5951 H   0  0  0  0  0  0  0  0  0  0  0  0
    7.2796   -8.2012    1.3823 H   0  0  0  0  0  0  0  0  0  0  0  0
    5.0414   -7.7077   -2.7882 H   0  0  0  0  0  0  0  0  0  0  0  0
    6.8060   -7.8302   -1.0656 H   0  0  0  0  0  0  0  0  0  0  0  0
    2.2075   -6.5793    0.2386 H   0  0  0  0  0  0  0  0  0  0  0  0
    3.0179   -6.4339    2.3201 H   0  0  0  0  0  0  0  0  0  0  0  0
  1 18  1  0  0  0  0
  1 20  1  0  0  0  0
  2 23  1  0  0  0  0
  2 14  1  0  0  0  0
  3 25  1  0  0  0  0
  3  1  1  0  0  0  0
  4  3  1  0  0  0  0
  4 27  1  0  0  0  0
  5  4  1  0  0  0  0
  5 28  1  0  0  0  0
  6  5  1  0  0  0  0
  6  7  1  0  0  0  0
  7 32  1  0  0  0  0
  7 33  1  0  0  0  0
  8  7  1  0  0  0  0
  8 35  1  0  0  0  0
  9  8  1  0  0  0  0
  9 36  1  0  0  0  0
 10  9  1  0  0  0  0
 10 38  1  0  0  0  0
 11 14  2  0  0  0  0
 11 12  1  0  0  0  0
 12 15  2  0  0  0  0
 13 42  1  0  0  0  0
 13 16  2  0  0  0  0
 14 13  1  0  0  0  0
 15 16  1  0  0  0  0
 15 10  1  0  0  0  0
 16 17  1  0  0  0  0
 17 43  1  0  0  0  0
 19  1  1  0  0  0  0
 21  2  1  0  0  0  0
 22  2  1  0  0  0  0
 24  3  1  0  0  0  0
 26  4  1  0  0  0  0
 29  5  1  0  0  0  0
 30  6  1  0  0  0  0
 31  6  1  0  0  0  0
 34  8  1  0  0  0  0
 37  9  1  0  0  0  0
 39 10  1  0  0  0  0
 40 11  1  0  0  0  0
 41 12  1  0  0  0  0
M  END
>  <HBA>
1

>  <HBD>
1

>  <TPSA>
20.23

>  <cid>
46323

>  <dipole>
1.53

>  <excitation_energy_1>
4.87

>  <excitation_energy_2>
5.057

>  <excitation_energy_3>
5.567

>  <excitation_energy_4>
5.635

>  <homo_energy>
-5.733

>  <homo_lumo_gap>
5.818

>  <logP>
4.994

>  <lumo_energy>
0.084

>  <melting_point>
47.65

>  <molecular_refractivity>
76.85

>  <oscillator_strength_1>
0.0714

>  <oscillator_strength_2>
0.0003

>  <oscillator_strength_3>
0.0232

>  <oscillator_strength_4>
0.009

>  <open_babel_can_smiles>
CCCCCCCCCc1ccc(cc1O)C

>  <mulliken_charges>
43
1   -0.442489
2   -0.531194
3   -0.248524
4   -0.249275
5   -0.254608
6   -0.255824
7   -0.258113
8   -0.251117
9   -0.250211
10   -0.346606
11   -0.184847
12   -0.194666
13   -0.244285
14   0.174774
15   0.143137
16   0.299505
17   -0.652307
18   0.140278
19   0.146154
20   0.13975
21   0.156032
22   0.161923
23   0.157403
24   0.12818
25   0.12845
26   0.124916
27   0.130795
28   0.129645
29   0.123858
30   0.130399
31   0.125722
32   0.130135
33   0.122267
34   0.135962
35   0.133469
36   0.12482
37   0.134184
38   0.158191
39   0.135852
40   0.115786
41   0.121362
42   0.104978
43   0.40614

>  <lowdin_charges>
43
1   -0.447134
2   -0.440632
3   -0.272869
4   -0.278129
5   -0.278114
6   -0.279029
7   -0.27961
8   -0.278165
9   -0.272061
10   -0.274339
11   -0.189494
12   -0.153367
13   -0.223943
14   0.006857
15   -0.03486
16   0.0956
17   -0.383672
18   0.148561
19   0.147747
20   0.144781
21   0.157234
22   0.158939
23   0.158326
24   0.137227
25   0.140916
26   0.139249
27   0.137704
28   0.13906
29   0.138573
30   0.141865
31   0.137502
32   0.141556
33   0.135524
34   0.144052
35   0.143931
36   0.138602
37   0.138687
38   0.157052
39   0.149428
40   0.151728
41   0.153668
42   0.146612
43   0.354438

$$$$

