PCCDB-ID:  26300
public computational chemistry database (PCCDB) project, http://pccdb.org

 26 26  0  0  1  0  0  0  0  0999 V2000
    5.4403   -0.2760    1.0847 C   0  0  0  0  0  0  0  0  0  0  0  0
    4.9540   -1.6120   -0.9339 C   0  0  0  0  0  0  0  0  0  0  0  0
    3.7176   -4.6150    1.5538 C   0  0  0  0  0  0  0  0  0  0  0  0
    3.1961   -1.4983    3.3143 C   0  0  0  0  0  0  0  0  0  0  0  0
    2.7170   -2.9542    3.1426 C   0  0  0  0  0  0  0  0  0  0  0  0
    2.7013   -0.5990    2.1678 C   0  0  0  0  0  0  0  0  0  0  0  0
    2.5540   -2.5956    0.6406 C   0  0  0  0  0  0  0  0  0  0  0  0
    4.5478   -0.9800    0.3795 C   0  0  0  0  0  0  0  0  0  0  0  0
    3.0451   -3.4799    1.7634 C   0  0  0  0  0  0  0  0  0  0  0  0
    3.0777   -1.1339    0.7693 C   0  0  2  0  0  0  0  0  0  0  0  0
    5.2063    0.2025    2.0295 H   0  0  0  0  0  0  0  0  0  0  0  0
    6.4603   -0.1512    0.7293 H   0  0  0  0  0  0  0  0  0  0  0  0
    5.9519   -1.2827   -1.2386 H   0  0  0  0  0  0  0  0  0  0  0  0
    4.2503   -1.3549   -1.7376 H   0  0  0  0  0  0  0  0  0  0  0  0
    4.9719   -2.7070   -0.8659 H   0  0  0  0  0  0  0  0  0  0  0  0
    4.0672   -5.2335    2.3774 H   0  0  0  0  0  0  0  0  0  0  0  0
    3.9399   -4.9721    0.5506 H   0  0  0  0  0  0  0  0  0  0  0  0
    4.2911   -1.4900    3.3478 H   0  0  0  0  0  0  0  0  0  0  0  0
    2.8431   -1.1028    4.2752 H   0  0  0  0  0  0  0  0  0  0  0  0
    1.6239   -2.9811    3.2813 H   0  0  0  0  0  0  0  0  0  0  0  0
    3.1520   -3.5967    3.9169 H   0  0  0  0  0  0  0  0  0  0  0  0
    3.0693    0.4253    2.2982 H   0  0  0  0  0  0  0  0  0  0  0  0
    1.6048   -0.5357    2.2179 H   0  0  0  0  0  0  0  0  0  0  0  0
    1.4548   -2.5474    0.6834 H   0  0  0  0  0  0  0  0  0  0  0  0
    2.8091   -3.0232   -0.3335 H   0  0  0  0  0  0  0  0  0  0  0  0
    2.5168   -0.5440    0.0256 H   0  0  0  0  0  0  0  0  0  0  0  0
  1 11  1  0  0  0  0
  2 15  1  0  0  0  0
  2  8  1  0  0  0  0
  3  9  2  0  0  0  0
  3 16  1  0  0  0  0
  4 18  1  0  0  0  0
  4 19  1  0  0  0  0
  5 20  1  0  0  0  0
  5  4  1  0  0  0  0
  5 21  1  0  0  0  0
  6 23  1  0  0  0  0
  6 22  1  0  0  0  0
  6  4  1  0  0  0  0
  7 24  1  0  0  0  0
  7 10  1  0  0  0  0
  7  9  1  0  0  0  0
  8 10  1  0  0  0  0
  8  1  2  0  0  0  0
  9  5  1  0  0  0  0
 10 26  1  6  0  0  0
 10  6  1  0  0  0  0
 12  1  1  0  0  0  0
 13  2  1  0  0  0  0
 14  2  1  0  0  0  0
 17  3  1  0  0  0  0
 25  7  1  0  0  0  0
M  END
>  <HBA>
0

>  <HBD>
0

>  <TPSA>
0.0

>  <cid>
26300

>  <dipole>
0.57

>  <excitation_energy_1>
5.74

>  <excitation_energy_2>
5.81

>  <excitation_energy_3>
6.105

>  <excitation_energy_4>
6.16

>  <homo_energy>
-6.433

>  <homo_lumo_gap>
7.059

>  <logP>
3.309

>  <lumo_energy>
0.626

>  <melting_point>
-41.0

>  <molecular_refractivity>
47.12

>  <oscillator_strength_1>
0.0356

>  <oscillator_strength_2>
0.0458

>  <oscillator_strength_3>
0.0266

>  <oscillator_strength_4>
0.0246

>  <open_babel_can_smiles>
C=C1CCC[C@H](C1)C(=C)C

>  <mulliken_charges>
26
1   -0.409728
2   -0.522104
3   -0.420089
4   -0.26087
5   -0.326521
6   -0.279656
7   -0.345562
8   0.246152
9   0.254023
10   -0.150921
11   0.134785
12   0.128967
13   0.151301
14   0.147508
15   0.16254
16   0.1306
17   0.128709
18   0.148595
19   0.129962
20   0.135993
21   0.137027
22   0.139027
23   0.127369
24   0.138323
25   0.141181
26   0.133389

>  <lowdin_charges>
26
1   -0.367903
2   -0.44177
3   -0.367002
4   -0.27691
5   -0.273072
6   -0.277281
7   -0.274566
8   0.009213
9   0.006565
10   -0.127935
11   0.154855
12   0.152406
13   0.156027
14   0.152266
15   0.156843
16   0.154555
17   0.151235
18   0.146236
19   0.143398
20   0.142417
21   0.149857
22   0.146245
23   0.138975
24   0.145638
25   0.150158
26   0.14955

$$$$

