PCCDB-ID:  6589
public computational chemistry database (PCCDB) project, http://pccdb.org

 20 19  0  0  0  0  0  0  0  0999 V2000
    1.0209    0.0962   -0.0212 C   0  0  0  0  0  0  0  0  0  0  0  0
    2.9661    0.6676    1.4837 C   0  0  0  0  0  0  0  0  0  0  0  0
    4.5777   -1.5434   -0.1181 C   0  0  0  0  0  0  0  0  0  0  0  0
    2.5679   -2.4158    1.1378 C   0  0  0  0  0  0  0  0  0  0  0  0
    2.5425   -0.0103    0.1700 C   0  0  0  0  0  0  0  0  0  0  0  0
    3.0486   -1.4731    0.0221 C   0  0  0  0  0  0  0  0  0  0  0  0
    0.7035    1.1456   -0.0409 H   0  0  0  0  0  0  0  0  0  0  0  0
    0.4735   -0.3931    0.7935 H   0  0  0  0  0  0  0  0  0  0  0  0
    0.7028   -0.3670   -0.9632 H   0  0  0  0  0  0  0  0  0  0  0  0
    2.6596    1.7204    1.4869 H   0  0  0  0  0  0  0  0  0  0  0  0
    4.0512    0.6413    1.6316 H   0  0  0  0  0  0  0  0  0  0  0  0
    2.4978    0.1898    2.3528 H   0  0  0  0  0  0  0  0  0  0  0  0
    4.9012   -2.5646   -0.3526 H   0  0  0  0  0  0  0  0  0  0  0  0
    5.0851   -1.2468    0.8078 H   0  0  0  0  0  0  0  0  0  0  0  0
    4.9359   -0.8870   -0.9206 H   0  0  0  0  0  0  0  0  0  0  0  0
    2.8785   -3.4463    0.9284 H   0  0  0  0  0  0  0  0  0  0  0  0
    1.4770   -2.4157    1.2373 H   0  0  0  0  0  0  0  0  0  0  0  0
    2.9932   -2.1389    2.1099 H   0  0  0  0  0  0  0  0  0  0  0  0
    3.0087    0.5541   -0.6526 H   0  0  0  0  0  0  0  0  0  0  0  0
    2.6234   -1.8445   -0.9233 H   0  0  0  0  0  0  0  0  0  0  0  0
  1  5  1  0  0  0  0
  1  8  1  0  0  0  0
  2 10  1  0  0  0  0
  2 11  1  0  0  0  0
  2 12  1  0  0  0  0
  3  6  1  0  0  0  0
  3 14  1  0  0  0  0
  4 17  1  0  0  0  0
  4 18  1  0  0  0  0
  5  2  1  0  0  0  0
  6  5  1  0  0  0  0
  6  4  1  0  0  0  0
  7  1  1  0  0  0  0
  9  1  1  0  0  0  0
 13  3  1  0  0  0  0
 15  3  1  0  0  0  0
 16  4  1  0  0  0  0
 19  5  1  0  0  0  0
 20  6  1  0  0  0  0
M  END
>  <HBA>
0

>  <HBD>
0

>  <TPSA>
0.0

>  <cid>
6589

>  <dipole>
0.08

>  <excitation_energy_1>
7.658

>  <excitation_energy_2>
7.868

>  <excitation_energy_3>
7.881

>  <excitation_energy_4>
8.23

>  <homo_energy>
-8.191

>  <homo_lumo_gap>
10.338

>  <logP>
2.298

>  <lumo_energy>
2.147

>  <melting_point>
-26.56

>  <molecular_refractivity>
30.96

>  <oscillator_strength_1>
0.0043

>  <oscillator_strength_2>
0.0177

>  <oscillator_strength_3>
0.0061

>  <oscillator_strength_4>
0.0058

>  <open_babel_can_smiles>
CC(C(C)C)C

>  <mulliken_charges>
20
1   -0.448636
2   -0.451996
3   -0.448786
4   -0.452029
5   -0.058837
6   -0.058661
7   0.138782
8   0.14148
9   0.137951
10   0.139198
11   0.142918
12   0.142287
13   0.138834
14   0.141504
15   0.137956
16   0.139225
17   0.142917
18   0.142312
19   0.116808
20   0.116773

>  <lowdin_charges>
20
1   -0.446854
2   -0.446565
3   -0.447364
4   -0.445688
5   -0.123024
6   -0.122153
7   0.146682
8   0.146522
9   0.146395
10   0.147311
11   0.146347
12   0.147099
13   0.147128
14   0.145763
15   0.14721
16   0.147644
17   0.146234
18   0.146168
19   0.136075
20   0.13507

$$$$

