PCCDB-ID:  811
public computational chemistry database (PCCDB) project, http://pccdb.org

 15 14  0  0  0  0  0  0  0  0999 V2000
    0.9188    0.0566   -0.6932 C   0  0  0  0  0  0  0  0  0  0  0  0
    2.9767   -0.7370    0.5056 C   0  0  0  0  0  0  0  0  0  0  0  0
    2.1380    0.3111   -0.1968 C   0  0  0  0  0  0  0  0  0  0  0  0
    3.9470   -1.5000   -0.4264 C   0  0  0  0  0  0  0  0  0  0  0  0
    2.7858    1.6483   -0.3937 C   0  0  0  0  0  0  0  0  0  0  0  0
    3.8723   -2.6953   -0.5772 O   0  0  0  0  0  0  0  0  0  0  0  0
    4.8830   -0.7601   -1.0356 O   0  0  0  0  0  0  0  0  0  0  0  0
    3.9934    1.7820   -0.4898 O   0  0  0  0  0  0  0  0  0  0  0  0
    1.9939    2.7340   -0.4623 O   0  0  0  0  0  0  0  0  0  0  0  0
    0.4634   -0.9242   -0.5926 H   0  0  0  0  0  0  0  0  0  0  0  0
    0.3503    0.7911   -1.2590 H   0  0  0  0  0  0  0  0  0  0  0  0
    2.3282   -1.4916    0.9527 H   0  0  0  0  0  0  0  0  0  0  0  0
    3.5644   -0.2693    1.3050 H   0  0  0  0  0  0  0  0  0  0  0  0
    4.7623    0.1946   -0.8171 H   0  0  0  0  0  0  0  0  0  0  0  0
    1.0817    2.4919   -0.2307 H   0  0  0  0  0  0  0  0  0  0  0  0
  1 10  1  0  0  0  0
  1  3  2  0  0  0  0
  2 12  1  0  0  0  0
  2 13  1  0  0  0  0
  3  2  1  0  0  0  0
  4  2  1  0  0  0  0
  5  3  1  0  0  0  0
  6  4  2  0  0  0  0
  7 14  1  0  0  0  0
  7  4  1  0  0  0  0
  8  5  2  0  0  0  0
  9  5  1  0  0  0  0
  9 15  1  0  0  0  0
 11  1  1  0  0  0  0
M  END
>  <HBA>
4

>  <HBD>
2

>  <TPSA>
74.6

>  <cid>
811

>  <dipole>
6.17

>  <excitation_energy_1>
4.332

>  <excitation_energy_2>
4.939

>  <excitation_energy_3>
5.408

>  <excitation_energy_4>
5.647

>  <homo_energy>
-7.132

>  <homo_lumo_gap>
4.98

>  <logP>
0.102

>  <lumo_energy>
-2.152

>  <melting_point>
111.24

>  <molecular_refractivity>
29.22

>  <oscillator_strength_1>
0.0386

>  <oscillator_strength_2>
0.0172

>  <oscillator_strength_3>
0.0007

>  <oscillator_strength_4>
0.0015

>  <open_babel_can_smiles>
OC(=O)CC(=C)C(=O)O

>  <mulliken_charges>
15
1   -0.385071
2   -0.455429
3   0.101453
4   0.595856
5   0.582915
6   -0.441546
7   -0.580423
8   -0.46689
9   -0.547953
10   0.188016
11   0.163404
12   0.189272
13   0.189283
14   0.446857
15   0.420253

>  <lowdin_charges>
15
1   -0.303505
2   -0.313789
3   -0.043193
4   0.188091
5   0.202782
6   -0.245699
7   -0.354001
8   -0.250775
9   -0.321402
10   0.183358
11   0.168826
12   0.183579
13   0.178472
14   0.360593
15   0.366663

$$$$

