PCCDB-ID:  70925
public computational chemistry database (PCCDB) project, http://pccdb.org

 24 23  0  0  0  0  0  0  0  0999 V2000
    2.2971   -0.0134    0.8465 C   0  0  0  0  0  0  0  0  0  0  0  0
    2.4012    1.0304    1.9627 C   0  0  0  0  0  0  0  0  0  0  0  0
    3.7532    1.0274    2.6839 C   0  0  0  0  0  0  0  0  0  0  0  0
    6.1516    1.3972    2.4233 C   0  0  0  0  0  0  0  0  0  0  0  0
    7.2724    1.6353    1.4149 C   0  0  0  0  0  0  0  0  0  0  0  0
    4.8468    1.3751    1.7723 N   0  0  0  0  0  0  0  0  0  0  0  0
    9.7869    3.9821    1.7821 O   0  0  0  0  0  0  0  0  0  0  0  0
    8.1547    5.8421    1.3517 O   0  0  0  0  0  0  0  0  0  0  0  0
    7.8673    4.1805    3.2800 O   0  0  0  0  0  0  0  0  0  0  0  0
    7.1910    3.2682    0.5429 S   0  0  0  0  0  0  0  0  0  0  0  0
    8.2297    4.4970    1.9082 S   0  0  0  0  0  0  0  0  0  0  0  0
    1.3287    0.0462    0.3370 H   0  0  0  0  0  0  0  0  0  0  0  0
    2.4004   -1.0287    1.2494 H   0  0  0  0  0  0  0  0  0  0  0  0
    3.0883    0.1307    0.1050 H   0  0  0  0  0  0  0  0  0  0  0  0
    1.6138    0.8626    2.7092 H   0  0  0  0  0  0  0  0  0  0  0  0
    2.2175    2.0346    1.5523 H   0  0  0  0  0  0  0  0  0  0  0  0
    3.9547    0.0209    3.0768 H   0  0  0  0  0  0  0  0  0  0  0  0
    3.7057    1.7017    3.5602 H   0  0  0  0  0  0  0  0  0  0  0  0
    6.2293    2.1281    3.2455 H   0  0  0  0  0  0  0  0  0  0  0  0
    6.3273    0.4048    2.8619 H   0  0  0  0  0  0  0  0  0  0  0  0
    7.2060    0.9110    0.5969 H   0  0  0  0  0  0  0  0  0  0  0  0
    8.2608    1.5507    1.8748 H   0  0  0  0  0  0  0  0  0  0  0  0
    4.6617    2.3036    1.3905 H   0  0  0  0  0  0  0  0  0  0  0  0
   10.1655    4.3851    0.9770 H   0  0  0  0  0  0  0  0  0  0  0  0
  1 13  1  0  0  0  0
  1  2  1  0  0  0  0
  2  3  1  0  0  0  0
  2 15  1  0  0  0  0
  3 17  1  0  0  0  0
  3 18  1  0  0  0  0
  4 20  1  0  0  0  0
  4 19  1  0  0  0  0
  5 22  1  0  0  0  0
  5  4  1  0  0  0  0
  6  4  1  0  0  0  0
  6  3  1  0  0  0  0
  7 11  1  0  0  0  0
  8 11  1  0  0  0  0
 10  5  1  0  0  0  0
 10 11  1  0  0  0  0
 11  9  1  0  0  0  0
 12  1  1  0  0  0  0
 14  1  1  0  0  0  0
 16  2  1  0  0  0  0
 21  5  1  0  0  0  0
 23  6  1  0  0  0  0
 24  7  1  0  0  0  0
M  RAD  2   8   2   9   2
M  END
>  <HBA>
5

>  <HBD>
2

>  <TPSA>
100.08

>  <cid>
70925

>  <dipole>
2.86

>  <excitation_energy_1>
3.825

>  <excitation_energy_2>
4.561

>  <excitation_energy_3>
5.485

>  <excitation_energy_4>
5.495

>  <homo_energy>
-6.226

>  <homo_lumo_gap>
4.659

>  <logP>
1.994

>  <lumo_energy>
-1.567

>  <melting_point>
91.23

>  <molecular_refractivity>
47.08

>  <oscillator_strength_1>
0.0025

>  <oscillator_strength_2>
0.0018

>  <oscillator_strength_3>
0.001

>  <oscillator_strength_4>
0.0004

>  <open_babel_can_smiles>
CCCNCCSS([O])(O)[O]

>  <mulliken_charges>
24
1   -0.434348
2   -0.265912
3   -0.113006
4   -0.114516
5   -0.462656
6   -0.561817
7   -0.620721
8   -0.493433
9   -0.475319
10   0.025898
11   1.070704
12   0.139316
13   0.137865
14   0.160864
15   0.136228
16   0.131224
17   0.13593
18   0.118349
19   0.164447
20   0.153635
21   0.205338
22   0.209359
23   0.308811
24   0.44376

>  <lowdin_charges>
24
1   -0.445522
2   -0.276695
3   -0.200734
4   -0.20787
5   -0.374409
6   -0.367877
7   -0.576571
8   -0.555135
9   -0.542891
10   0.017502
11   1.235759
12   0.147784
13   0.14462
14   0.15668
15   0.146569
16   0.13839
17   0.138471
18   0.121963
19   0.143551
20   0.1527
21   0.184323
22   0.18103
23   0.255049
24   0.383312

$$$$

