PCCDB-ID:  69504
public computational chemistry database (PCCDB) project, http://pccdb.org

 26 28  0  0  0  0  0  0  0  0999 V2000
   -3.6774   -0.8586    0.0487 C   0  0  0  0  0  0  0  0  0  0  0  0
    3.6324   -0.6920    0.0065 C   0  0  0  0  0  0  0  0  0  0  0  0
   -3.7372    0.5505   -0.1253 C   0  0  0  0  0  0  0  0  0  0  0  0
    3.6276    0.7226   -0.1289 C   0  0  0  0  0  0  0  0  0  0  0  0
   -2.4575   -1.4710    0.1319 C   0  0  0  0  0  0  0  0  0  0  0  0
    2.4434   -1.3643    0.0857 C   0  0  0  0  0  0  0  0  0  0  0  0
   -2.5958    1.3096   -0.1953 C   0  0  0  0  0  0  0  0  0  0  0  0
    2.4541    1.4345   -0.1837 C   0  0  0  0  0  0  0  0  0  0  0  0
   -0.0082   -1.3584    0.1203 C   0  0  0  0  0  0  0  0  0  0  0  0
   -0.1415    2.9362   -0.1862 C   0  0  0  0  0  0  0  0  0  0  0  0
   -1.2464   -0.7153    0.0594 C   0  0  0  0  0  0  0  0  0  0  0  0
    1.1999   -0.6626    0.0327 C   0  0  0  0  0  0  0  0  0  0  0  0
   -1.2923    0.7220   -0.0878 C   0  0  0  0  0  0  0  0  0  0  0  0
    1.1858    0.7756   -0.1071 C   0  0  0  0  0  0  0  0  0  0  0  0
   -0.0683    1.4586   -0.1447 C   0  0  0  0  0  0  0  0  0  0  0  0
    0.7722    3.7193   -0.4027 O   0  0  0  0  0  0  0  0  0  0  0  0
   -4.5945   -1.4380    0.1023 H   0  0  0  0  0  0  0  0  0  0  0  0
    4.5754   -1.2299    0.0460 H   0  0  0  0  0  0  0  0  0  0  0  0
   -4.7051    1.0366   -0.2134 H   0  0  0  0  0  0  0  0  0  0  0  0
    4.5739    1.2535   -0.1921 H   0  0  0  0  0  0  0  0  0  0  0  0
   -2.3821   -2.5493    0.2487 H   0  0  0  0  0  0  0  0  0  0  0  0
    2.4194   -2.4463    0.1911 H   0  0  0  0  0  0  0  0  0  0  0  0
   -2.7053    2.3741   -0.3573 H   0  0  0  0  0  0  0  0  0  0  0  0
    2.4708    2.5084   -0.2960 H   0  0  0  0  0  0  0  0  0  0  0  0
    0.0158   -2.4407    0.2332 H   0  0  0  0  0  0  0  0  0  0  0  0
   -1.1408    3.3553    0.0302 H   0  0  0  0  0  0  0  0  0  0  0  0
  1 17  1  0  0  0  0
  1  5  2  0  0  0  0
  2 18  1  0  0  0  0
  2  6  2  0  0  0  0
  3  1  1  0  0  0  0
  4  2  1  0  0  0  0
  5 21  1  0  0  0  0
  6 22  1  0  0  0  0
  7  3  2  0  0  0  0
  7 13  1  0  0  0  0
  8  4  2  0  0  0  0
  8 14  1  0  0  0  0
  9 25  1  0  0  0  0
 10 15  1  0  0  0  0
 10 26  1  0  0  0  0
 11  9  1  0  0  0  0
 11  5  1  0  0  0  0
 12  6  1  0  0  0  0
 12  9  2  0  0  0  0
 13 11  2  0  0  0  0
 14 12  1  0  0  0  0
 15 14  2  0  0  0  0
 15 13  1  0  0  0  0
 16 10  2  0  0  0  0
 19  3  1  0  0  0  0
 20  4  1  0  0  0  0
 23  7  1  0  0  0  0
 24  8  1  0  0  0  0
M  END
>  <HBA>
1

>  <HBD>
0

>  <TPSA>
17.07

>  <cid>
69504

>  <dipole>
3.56

>  <excitation_energy_1>
2.919

>  <excitation_energy_2>
3.097

>  <excitation_energy_3>
3.687

>  <excitation_energy_4>
4.024

>  <homo_energy>
-5.616

>  <homo_lumo_gap>
3.233

>  <logP>
3.805

>  <lumo_energy>
-2.384

>  <melting_point>
127.76

>  <molecular_refractivity>
66.84

>  <oscillator_strength_1>
0.1029

>  <oscillator_strength_2>
0.0002

>  <oscillator_strength_3>
0.0434

>  <oscillator_strength_4>
0.0049

>  <open_babel_can_smiles>
O=Cc1c2ccccc2cc2c1cccc2

>  <mulliken_charges>
26
1   -0.139003
2   -0.13471
3   -0.132275
4   -0.133411
5   -0.180872
6   -0.186189
7   -0.19691
8   -0.196447
9   -0.287785
10   0.198466
11   0.150078
12   0.154127
13   0.073206
14   0.072374
15   -0.03773
16   -0.426364
17   0.137122
18   0.135215
19   0.137695
20   0.13764
21   0.13614
22   0.133462
23   0.144479
24   0.192288
25   0.139975
26   0.109429

>  <lowdin_charges>
26
1   -0.159828
2   -0.155939
3   -0.145849
4   -0.14523
5   -0.145489
6   -0.15078
7   -0.164954
8   -0.158431
9   -0.12495
10   0.040323
11   -0.006572
12   -0.003903
13   0.012681
14   0.017862
15   -0.064884
16   -0.243621
17   0.162762
18   0.161297
19   0.162393
20   0.162261
21   0.158861
22   0.157345
23   0.161692
24   0.188176
25   0.159545
26   0.125232

$$$$

