PCCDB-ID:  6406
public computational chemistry database (PCCDB) project, http://pccdb.org

 13 12  0  0  0  0  0  0  0  0999 V2000
    0.9977   -0.0810    0.0426 C   0  0  0  0  0  0  0  0  0  0  0  0
    3.0806    1.3611   -0.2542 C   0  0  0  0  0  0  0  0  0  0  0  0
    3.0464   -0.5171    1.3357 C   0  0  0  0  0  0  0  0  0  0  0  0
    2.5368   -0.0522    0.0233 C   0  0  0  0  0  0  0  0  0  0  0  0
    3.4222   -0.8428    2.3835 N   0  0  0  0  0  0  0  0  0  0  0  0
    3.0479   -0.9870   -0.9306 O   0  0  0  0  0  0  0  0  0  0  0  0
    0.5949    0.5713    0.8236 H   0  0  0  0  0  0  0  0  0  0  0  0
    0.6431   -1.1007    0.2138 H   0  0  0  0  0  0  0  0  0  0  0  0
    0.6163    0.2676   -0.9250 H   0  0  0  0  0  0  0  0  0  0  0  0
    2.7611    2.0707    0.5154 H   0  0  0  0  0  0  0  0  0  0  0  0
    2.7019    1.7125   -1.2219 H   0  0  0  0  0  0  0  0  0  0  0  0
    4.1729    1.3432   -0.2893 H   0  0  0  0  0  0  0  0  0  0  0  0
    2.7262   -0.7024   -1.8018 H   0  0  0  0  0  0  0  0  0  0  0  0
  1  8  1  0  0  0  0
  1  7  1  0  0  0  0
  2  4  1  0  0  0  0
  2 10  1  0  0  0  0
  3  5  3  0  0  0  0
  4  1  1  0  0  0  0
  4  3  1  0  0  0  0
  6  4  1  0  0  0  0
  9  1  1  0  0  0  0
 11  2  1  0  0  0  0
 12  2  1  0  0  0  0
 13  6  1  0  0  0  0
M  END
>  <HBA>
2

>  <HBD>
1

>  <TPSA>
44.02

>  <cid>
6406

>  <dipole>
4.95

>  <excitation_energy_1>
6.73

>  <excitation_energy_2>
7.271

>  <excitation_energy_3>
7.64

>  <excitation_energy_4>
7.699

>  <homo_energy>
-7.962

>  <homo_lumo_gap>
8.487

>  <logP>
0.281

>  <lumo_energy>
0.525

>  <melting_point>
38.31

>  <molecular_refractivity>
22.29

>  <oscillator_strength_1>
0.0132

>  <oscillator_strength_2>
0.0079

>  <oscillator_strength_3>
0.0021

>  <oscillator_strength_4>
0.0186

>  <open_babel_can_smiles>
N#CC(O)(C)C

>  <mulliken_charges>
13
1   -0.454215
2   -0.454421
3   0.361478
4   0.242284
5   -0.468399
6   -0.615122
7   0.167421
8   0.182004
9   0.145896
10   0.167438
11   0.14593
12   0.182069
13   0.397637

>  <lowdin_charges>
13
1   -0.44704
2   -0.445884
3   -0.010992
4   0.127295
5   -0.113844
6   -0.438354
7   0.167596
8   0.170786
9   0.152812
10   0.167479
11   0.152795
12   0.169605
13   0.347746

$$$$

