PCCDB-ID:  13586
public computational chemistry database (PCCDB) project, http://pccdb.org

 11 11  0  0  1  0  0  0  0  0999 V2000
    2.5358    0.4672    1.1397 C   0  0  0  0  0  0  0  0  0  0  0  0
    2.2831   -0.1612   -0.0089 C   0  0  0  0  0  0  0  0  0  0  0  0
    3.0881   -2.6241    0.1214 C   0  0  0  0  0  0  0  0  0  0  0  0
    3.0919   -1.2960   -0.5288 C   0  0  2  0  0  0  0  0  0  0  0  0
    4.1981   -1.7342    0.2668 O   0  0  0  0  0  0  0  0  0  0  0  0
    1.9152    1.2873    1.4879 H   0  0  0  0  0  0  0  0  0  0  0  0
    3.3799    0.1760    1.7579 H   0  0  0  0  0  0  0  0  0  0  0  0
    1.4481    0.1440   -0.6395 H   0  0  0  0  0  0  0  0  0  0  0  0
    3.2800   -3.5212   -0.4690 H   0  0  0  0  0  0  0  0  0  0  0  0
    2.4844   -2.7663    1.0175 H   0  0  0  0  0  0  0  0  0  0  0  0
    3.2984   -1.2738   -1.6020 H   0  0  0  0  0  0  0  0  0  0  0  0
  1  6  1  0  0  0  0
  1  7  1  0  0  0  0
  2  1  2  0  0  0  0
  3  5  1  0  0  0  0
  3 10  1  0  0  0  0
  4 11  1  6  0  0  0
  4  2  1  0  0  0  0
  4  3  1  0  0  0  0
  4  5  1  0  0  0  0
  8  2  1  0  0  0  0
  9  3  1  0  0  0  0
M  END
>  <HBA>
1

>  <HBD>
0

>  <TPSA>
12.53

>  <cid>
13586

>  <dipole>
1.86

>  <excitation_energy_1>
6.289

>  <excitation_energy_2>
6.491

>  <excitation_energy_3>
6.693

>  <excitation_energy_4>
6.886

>  <homo_energy>
-6.871

>  <homo_lumo_gap>
7.1

>  <logP>
0.571

>  <lumo_energy>
0.229

>  <melting_point>
-32.2

>  <molecular_refractivity>
19.84

>  <oscillator_strength_1>
0.0588

>  <oscillator_strength_2>
0.0226

>  <oscillator_strength_3>
0.1839

>  <oscillator_strength_4>
0.0928

>  <open_babel_can_smiles>
C=C[C@@H]1CO1

>  <mulliken_charges>
11
1   -0.338145
2   -0.079323
3   -0.098979
4   0.061768
5   -0.439572
6   0.142815
7   0.16437
8   0.131347
9   0.150342
10   0.156442
11   0.148936

>  <lowdin_charges>
11
1   -0.325915
2   -0.167317
3   -0.159628
4   -0.019955
5   -0.277668
6   0.162083
7   0.170392
8   0.157985
9   0.153141
10   0.156464
11   0.150416

$$$$

