PCCDB-ID:  10798
public computational chemistry database (PCCDB) project, http://pccdb.org

 14 14  0  0  1  0  0  0  0  0999 V2000
    1.1001    0.0996    0.1613 C   0  0  0  0  0  0  0  0  0  0  0  0
    4.6915   -0.6560    0.0268 C   0  0  0  0  0  0  0  0  0  0  0  0
    4.7112    0.8810   -0.1929 C   0  0  0  0  0  0  0  0  0  0  0  0
    2.5962    0.0402    0.0958 C   0  0  3  0  0  0  0  0  0  0  0  0
    3.2705   -1.0477    0.0085 N   0  0  0  0  0  0  0  0  0  0  0  0
    3.3368    1.2248    0.2005 N   0  0  0  0  0  0  0  0  0  0  0  0
    0.6931   -0.9099    0.0881 H   0  0  0  0  0  0  0  0  0  0  0  0
    0.6903    0.7088   -0.6548 H   0  0  0  0  0  0  0  0  0  0  0  0
    0.7736    0.5529    1.1047 H   0  0  0  0  0  0  0  0  0  0  0  0
    5.1208   -0.9206    1.0033 H   0  0  0  0  0  0  0  0  0  0  0  0
    5.2556   -1.2020   -0.7363 H   0  0  0  0  0  0  0  0  0  0  0  0
    4.9055    1.1352   -1.2461 H   0  0  0  0  0  0  0  0  0  0  0  0
    5.4489    1.3989    0.4276 H   0  0  0  0  0  0  0  0  0  0  0  0
    2.9301    2.0605   -0.2046 H   0  0  0  0  0  0  0  0  0  0  0  0
  1  9  1  0  0  0  0
  2 10  1  0  0  0  0
  3  2  1  0  0  0  0
  3  6  1  0  0  0  0
  3 13  1  0  0  0  0
  4  1  1  0  0  0  0
  4  6  1  0  0  0  0
  5  2  1  0  0  0  0
  5  4  1  0  0  0  0
  7  1  1  0  0  0  0
  8  1  1  0  0  0  0
 11  2  1  0  0  0  0
 12  3  1  0  0  0  0
 14  6  1  0  0  0  0
M  RAD  2   4   2   5   2
M  END
>  <HBA>
2

>  <HBD>
1

>  <TPSA>
24.39

>  <cid>
10798

>  <dipole>
2.69

>  <excitation_energy_1>
5.152

>  <excitation_energy_2>
5.832

>  <excitation_energy_3>
6.016

>  <excitation_energy_4>
6.133

>  <homo_energy>
-5.807

>  <homo_lumo_gap>
6.797

>  <logP>
-0.228

>  <lumo_energy>
0.991

>  <melting_point>
42.39

>  <molecular_refractivity>
32.96

>  <oscillator_strength_1>
0.0016

>  <oscillator_strength_2>
0.0042

>  <oscillator_strength_3>
0.0455

>  <oscillator_strength_4>
0.0135

>  <open_babel_can_smiles>
C[C]1[N]CCN1

>  <mulliken_charges>
14
1   -0.52296
2   -0.159239
3   -0.148148
4   0.475326
5   -0.455334
6   -0.594425
7   0.188188
8   0.153347
9   0.171887
10   0.14965
11   0.146511
12   0.137046
13   0.149054
14   0.309096

>  <lowdin_charges>
14
1   -0.450515
2   -0.210255
3   -0.212194
4   0.085386
5   -0.243359
6   -0.325909
7   0.178569
8   0.159797
9   0.168538
10   0.14602
11   0.150296
12   0.132094
13   0.15046
14   0.271072

$$$$

