PCCDB-ID:  12044
public computational chemistry database (PCCDB) project, http://pccdb.org

 23 22  0  0  0  0  0  0  0  0999 V2000
    1.5558   -1.4001   -0.7730 C   0  0  0  0  0  0  0  0  0  0  0  0
    1.8938    1.1194   -0.7846 C   0  0  0  0  0  0  0  0  0  0  0  0
    4.2292   -2.1715    3.1582 C   0  0  0  0  0  0  0  0  0  0  0  0
    6.1259   -0.5793    2.5464 C   0  0  0  0  0  0  0  0  0  0  0  0
    2.5191   -0.2429   -0.4478 C   0  0  0  0  0  0  0  0  0  0  0  0
    4.6218   -0.8069    2.6011 C   0  0  0  0  0  0  0  0  0  0  0  0
    2.8725   -0.2957    1.0330 C   0  0  0  0  0  0  0  0  0  0  0  0
    2.0981   -0.0298    1.9303 O   0  0  0  0  0  0  0  0  0  0  0  0
    4.1505   -0.6915    1.2246 O   0  0  0  0  0  0  0  0  0  0  0  0
    1.2806   -1.3770   -1.8332 H   0  0  0  0  0  0  0  0  0  0  0  0
    0.6416   -1.3145   -0.1762 H   0  0  0  0  0  0  0  0  0  0  0  0
    2.0132   -2.3733   -0.5623 H   0  0  0  0  0  0  0  0  0  0  0  0
    1.6008    1.1532   -1.8398 H   0  0  0  0  0  0  0  0  0  0  0  0
    2.5967    1.9398   -0.6018 H   0  0  0  0  0  0  0  0  0  0  0  0
    1.0050    1.2914   -0.1695 H   0  0  0  0  0  0  0  0  0  0  0  0
    4.5973   -2.2794    4.1847 H   0  0  0  0  0  0  0  0  0  0  0  0
    4.6612   -2.9752    2.5510 H   0  0  0  0  0  0  0  0  0  0  0  0
    3.1414   -2.2814    3.1713 H   0  0  0  0  0  0  0  0  0  0  0  0
    6.5502   -0.6237    3.5553 H   0  0  0  0  0  0  0  0  0  0  0  0
    6.3545    0.4015    2.1177 H   0  0  0  0  0  0  0  0  0  0  0  0
    6.6131   -1.3457    1.9334 H   0  0  0  0  0  0  0  0  0  0  0  0
    3.4440   -0.3774   -1.0187 H   0  0  0  0  0  0  0  0  0  0  0  0
    4.1306   -0.0194    3.1797 H   0  0  0  0  0  0  0  0  0  0  0  0
  1 12  1  0  0  0  0
  1  5  1  0  0  0  0
  1 11  1  0  0  0  0
  2 14  1  0  0  0  0
  2  5  1  0  0  0  0
  2 15  1  0  0  0  0
  3 18  1  0  0  0  0
  3 16  1  0  0  0  0
  4  6  1  0  0  0  0
  4 19  1  0  0  0  0
  5  7  1  0  0  0  0
  6  3  1  0  0  0  0
  6 23  1  0  0  0  0
  7  9  1  0  0  0  0
  7  8  2  0  0  0  0
  9  6  1  0  0  0  0
 10  1  1  0  0  0  0
 13  2  1  0  0  0  0
 17  3  1  0  0  0  0
 20  4  1  0  0  0  0
 21  4  1  0  0  0  0
 22  5  1  0  0  0  0
M  END
>  <HBA>
2

>  <HBD>
0

>  <TPSA>
26.3

>  <cid>
12044

>  <dipole>
1.72

>  <excitation_energy_1>
5.758

>  <excitation_energy_2>
6.838

>  <excitation_energy_3>
7.286

>  <excitation_energy_4>
7.449

>  <homo_energy>
-7.129

>  <homo_lumo_gap>
7.622

>  <logP>
1.594

>  <lumo_energy>
0.493

>  <melting_point>
-14.79

>  <molecular_refractivity>
37.05

>  <oscillator_strength_1>
0.0014

>  <oscillator_strength_2>
0.008

>  <oscillator_strength_3>
0.0083

>  <oscillator_strength_4>
0.0004

>  <open_babel_can_smiles>
CC(OC(=O)C(C)C)C

>  <mulliken_charges>
23
1   -0.451334
2   -0.448062
3   -0.458524
4   -0.451241
5   -0.154243
6   0.128094
7   0.627404
8   -0.49168
9   -0.471926
10   0.148931
11   0.166317
12   0.151415
13   0.144089
14   0.148934
15   0.169837
16   0.147665
17   0.149791
18   0.173237
19   0.148918
20   0.15703
21   0.154652
22   0.148823
23   0.161874

>  <lowdin_charges>
23
1   -0.436567
2   -0.439032
3   -0.452303
4   -0.447832
5   -0.143658
6   0.010371
7   0.201418
8   -0.279128
9   -0.197837
10   0.151611
11   0.159794
12   0.152893
13   0.149701
14   0.153165
15   0.162425
16   0.155983
17   0.154071
18   0.164116
19   0.156024
20   0.158173
21   0.156906
22   0.153832
23   0.155874

$$$$

