PCCDB-ID:  69192
public computational chemistry database (PCCDB) project, http://pccdb.org

 29 30  0  0  0  0  0  0  0  0999 V2000
    3.7033    3.4284   -1.0385 C   0  0  0  0  0  0  0  0  0  0  0  0
    1.0041   -5.2393    0.2057 C   0  0  0  0  0  0  0  0  0  0  0  0
    4.6170    2.8369   -0.1656 C   0  0  0  0  0  0  0  0  0  0  0  0
    2.6309    2.6785   -1.5287 C   0  0  0  0  0  0  0  0  0  0  0  0
    0.3771   -4.0101    0.4356 C   0  0  0  0  0  0  0  0  0  0  0  0
    2.2623   -5.2554   -0.3927 C   0  0  0  0  0  0  0  0  0  0  0  0
    4.4576    1.5024    0.2145 C   0  0  0  0  0  0  0  0  0  0  0  0
    2.4706    1.3483   -1.1425 C   0  0  0  0  0  0  0  0  0  0  0  0
    0.9962   -2.8208    0.0661 C   0  0  0  0  0  0  0  0  0  0  0  0
    2.9007   -4.0659   -0.7529 C   0  0  0  0  0  0  0  0  0  0  0  0
    3.1824   -0.6884    0.1949 C   0  0  0  0  0  0  0  0  0  0  0  0
    3.3812    0.7461   -0.2626 C   0  0  0  0  0  0  0  0  0  0  0  0
    2.2736   -2.8328   -0.5235 C   0  0  0  0  0  0  0  0  0  0  0  0
    4.0590   -1.7843   -1.7197 N   0  0  0  0  0  0  0  0  0  0  0  0
    2.8482   -1.5900   -0.9190 N   0  0  0  0  0  0  0  0  0  0  0  0
    3.8276    4.4654   -1.3391 H   0  0  0  0  0  0  0  0  0  0  0  0
    0.5128   -6.1673    0.4839 H   0  0  0  0  0  0  0  0  0  0  0  0
    5.4583    3.4102    0.2148 H   0  0  0  0  0  0  0  0  0  0  0  0
    1.9175    3.1319   -2.2123 H   0  0  0  0  0  0  0  0  0  0  0  0
   -0.6099   -3.9783    0.8903 H   0  0  0  0  0  0  0  0  0  0  0  0
    2.7653   -6.2019   -0.5761 H   0  0  0  0  0  0  0  0  0  0  0  0
    5.1760    1.0425    0.8897 H   0  0  0  0  0  0  0  0  0  0  0  0
    1.6444    0.7578   -1.5290 H   0  0  0  0  0  0  0  0  0  0  0  0
    0.4837   -1.8732    0.2091 H   0  0  0  0  0  0  0  0  0  0  0  0
    3.8922   -4.0848   -1.1895 H   0  0  0  0  0  0  0  0  0  0  0  0
    2.3556   -0.7395    0.9090 H   0  0  0  0  0  0  0  0  0  0  0  0
    4.0874   -1.0450    0.7147 H   0  0  0  0  0  0  0  0  0  0  0  0
    4.3423   -0.8308   -1.9578 H   0  0  0  0  0  0  0  0  0  0  0  0
    3.7167   -2.1659   -2.6056 H   0  0  0  0  0  0  0  0  0  0  0  0
  1  3  2  0  0  0  0
  2  5  1  0  0  0  0
  2 17  1  0  0  0  0
  3  7  1  0  0  0  0
  3 18  1  0  0  0  0
  4  8  2  0  0  0  0
  4  1  1  0  0  0  0
  5 20  1  0  0  0  0
  6  2  2  0  0  0  0
  7 22  1  0  0  0  0
  8 12  1  0  0  0  0
  9 24  1  0  0  0  0
  9  5  2  0  0  0  0
 10 13  2  0  0  0  0
 10  6  1  0  0  0  0
 11 27  1  0  0  0  0
 11 26  1  0  0  0  0
 12 11  1  0  0  0  0
 12  7  2  0  0  0  0
 13  9  1  0  0  0  0
 14 15  1  0  0  0  0
 15 13  1  0  0  0  0
 15 11  1  0  0  0  0
 16  1  1  0  0  0  0
 19  4  1  0  0  0  0
 21  6  1  0  0  0  0
 23  8  1  0  0  0  0
 25 10  1  0  0  0  0
 28 14  1  0  0  0  0
 29 14  1  0  0  0  0
M  END
>  <HBA>
2

>  <HBD>
1

>  <TPSA>
29.26

>  <cid>
69192

>  <dipole>
1.42

>  <excitation_energy_1>
4.001

>  <excitation_energy_2>
4.216

>  <excitation_energy_3>
4.39

>  <excitation_energy_4>
4.634

>  <homo_energy>
-5.072

>  <homo_lumo_gap>
4.836

>  <logP>
3.267

>  <lumo_energy>
-0.237

>  <melting_point>
97.97

>  <molecular_refractivity>
63.04

>  <oscillator_strength_1>
0.013

>  <oscillator_strength_2>
0.0036

>  <oscillator_strength_3>
0.0097

>  <oscillator_strength_4>
0.0625

>  <open_babel_can_smiles>
NN(c1ccccc1)Cc1ccccc1

>  <mulliken_charges>
29
1   -0.128568
2   -0.129672
3   -0.128375
4   -0.130365
5   -0.138925
6   -0.140237
7   -0.183753
8   -0.166489
9   -0.161846
10   -0.183983
11   -0.200958
12   0.11893
13   0.29935
14   -0.580642
15   -0.415373
16   0.130705
17   0.122472
18   0.131582
19   0.131447
20   0.125806
21   0.126111
22   0.130386
23   0.141721
24   0.125571
25   0.152715
26   0.172097
27   0.146536
28   0.319711
29   0.314045

>  <lowdin_charges>
29
1   -0.156067
2   -0.177084
3   -0.156208
4   -0.155956
5   -0.15121
6   -0.150562
7   -0.167367
8   -0.162883
9   -0.183757
10   -0.194825
11   -0.19922
12   -0.025042
13   0.039513
14   -0.472911
15   -0.108874
16   0.1569
17   0.155514
18   0.159398
19   0.159292
20   0.155233
21   0.15579
22   0.1588
23   0.16438
24   0.15637
25   0.169645
26   0.166831
27   0.141659
28   0.262647
29   0.259994

$$$$

