PCCDB-ID:  39069
public computational chemistry database (PCCDB) project, http://pccdb.org

 34 35  0  0  1  0  0  0  0  0999 V2000
    4.1559   -5.5004   -1.3611 C   0  0  0  0  0  0  0  0  0  0  0  0
    3.9855   -4.0814   -1.9133 C   0  0  0  0  0  0  0  0  0  0  0  0
    5.1473   -3.1471   -1.5507 C   0  0  0  0  0  0  0  0  0  0  0  0
    4.9777   -1.7267   -2.1057 C   0  0  0  0  0  0  0  0  0  0  0  0
   10.8504   -1.1515   -3.0006 C   0  0  0  0  0  0  0  0  0  0  0  0
   10.1317   -2.4562   -3.3678 C   0  0  0  0  0  0  0  0  0  0  0  0
    6.1026   -0.7457   -1.7291 C   0  0  0  0  0  0  0  0  0  0  0  0
    9.8514   -0.0241   -2.6849 C   0  0  0  0  0  0  0  0  0  0  0  0
    9.3301   -2.9908   -2.1683 C   0  0  0  0  0  0  0  0  0  0  0  0
    7.4678   -1.1017   -2.2929 C   0  0  1  0  0  0  0  0  0  0  0  0
    8.7246   -0.4597   -1.7416 C   0  0  1  0  0  0  0  0  0  0  0  0
    8.4512   -1.9373   -1.5091 C   0  0  2  0  0  0  0  0  0  0  0  0
    3.3108   -6.1423   -1.6355 H   0  0  0  0  0  0  0  0  0  0  0  0
    4.2272   -5.4938   -0.2663 H   0  0  0  0  0  0  0  0  0  0  0  0
    5.0694   -5.9688   -1.7480 H   0  0  0  0  0  0  0  0  0  0  0  0
    3.0447   -3.6529   -1.5389 H   0  0  0  0  0  0  0  0  0  0  0  0
    3.8842   -4.1247   -3.0074 H   0  0  0  0  0  0  0  0  0  0  0  0
    6.0869   -3.5790   -1.9206 H   0  0  0  0  0  0  0  0  0  0  0  0
    5.2447   -3.0998   -0.4553 H   0  0  0  0  0  0  0  0  0  0  0  0
    4.0214   -1.3164   -1.7505 H   0  0  0  0  0  0  0  0  0  0  0  0
    4.8960   -1.7749   -3.2020 H   0  0  0  0  0  0  0  0  0  0  0  0
   11.5184   -0.8368   -3.8124 H   0  0  0  0  0  0  0  0  0  0  0  0
   11.4864   -1.3349   -2.1225 H   0  0  0  0  0  0  0  0  0  0  0  0
   10.8546   -3.2164   -3.6887 H   0  0  0  0  0  0  0  0  0  0  0  0
    9.4677   -2.2811   -4.2267 H   0  0  0  0  0  0  0  0  0  0  0  0
    6.1728   -0.6754   -0.6334 H   0  0  0  0  0  0  0  0  0  0  0  0
    5.8221    0.2586   -2.0795 H   0  0  0  0  0  0  0  0  0  0  0  0
    9.4225    0.3463   -3.6271 H   0  0  0  0  0  0  0  0  0  0  0  0
   10.3879    0.8242   -2.2432 H   0  0  0  0  0  0  0  0  0  0  0  0
   10.0451   -3.3598   -1.4186 H   0  0  0  0  0  0  0  0  0  0  0  0
    8.7242   -3.8577   -2.4686 H   0  0  0  0  0  0  0  0  0  0  0  0
    7.4717   -1.2531   -3.3746 H   0  0  0  0  0  0  0  0  0  0  0  0
    8.5705    0.1890   -0.8804 H   0  0  0  0  0  0  0  0  0  0  0  0
    8.1254   -2.2026   -0.5035 H   0  0  0  0  0  0  0  0  0  0  0  0
  1 14  1  0  0  0  0
  2  3  1  0  0  0  0
  2 16  1  0  0  0  0
  2  1  1  0  0  0  0
  3 19  1  0  0  0  0
  4 20  1  0  0  0  0
  4  7  1  0  0  0  0
  4  3  1  0  0  0  0
  5  8  1  0  0  0  0
  5 23  1  0  0  0  0
  6  5  1  0  0  0  0
  6  9  1  0  0  0  0
  7 26  1  0  0  0  0
  8 29  1  0  0  0  0
  8 11  1  0  0  0  0
  9 12  1  0  0  0  0
  9 30  1  0  0  0  0
 10 32  1  6  0  0  0
 10 11  1  0  0  0  0
 10  7  1  0  0  0  0
 10 12  1  0  0  0  0
 11 12  1  0  0  0  0
 11 33  1  1  0  0  0
 12 34  1  1  0  0  0
 13  1  1  0  0  0  0
 15  1  1  0  0  0  0
 17  2  1  0  0  0  0
 18  3  1  0  0  0  0
 21  4  1  0  0  0  0
 22  5  1  0  0  0  0
 24  6  1  0  0  0  0
 25  6  1  0  0  0  0
 27  7  1  0  0  0  0
 28  8  1  0  0  0  0
 31  9  1  0  0  0  0
M  END
>  <HBA>
0

>  <HBD>
0

>  <TPSA>
0.0

>  <cid>
39069

>  <dipole>
0.13

>  <excitation_energy_1>
6.397

>  <excitation_energy_2>
6.406

>  <excitation_energy_3>
6.567

>  <excitation_energy_4>
6.644

>  <homo_energy>
-6.852

>  <homo_lumo_gap>
9.203

>  <logP>
4.003

>  <lumo_energy>
2.351

>  <melting_point>
14.61

>  <molecular_refractivity>
55.57

>  <oscillator_strength_1>
0.0033

>  <oscillator_strength_2>
0.0019

>  <oscillator_strength_3>
0.01

>  <oscillator_strength_4>
0.0148

>  <open_babel_can_smiles>
CCCCC[C@@H]1[C@@H]2[C@H]1CCCC2

>  <mulliken_charges>
34
1   -0.441031
2   -0.246509
3   -0.247957
4   -0.254561
5   -0.251774
6   -0.275024
7   -0.269433
8   -0.271186
9   -0.261076
10   -0.098486
11   -0.13917
12   -0.114369
13   0.140334
14   0.140325
15   0.140294
16   0.128492
17   0.128759
18   0.141933
19   0.122314
20   0.124707
21   0.125123
22   0.127185
23   0.129934
24   0.131487
25   0.130604
26   0.122962
27   0.129389
28   0.133155
29   0.132548
30   0.129562
31   0.132743
32   0.124022
33   0.127885
34   0.126817

>  <lowdin_charges>
34
1   -0.443564
2   -0.269995
3   -0.274914
4   -0.27213
5   -0.276376
6   -0.282971
7   -0.26413
8   -0.273813
9   -0.271977
10   -0.158948
11   -0.166837
12   -0.16082
13   0.149125
14   0.14364
15   0.146038
16   0.137722
17   0.135917
18   0.143955
19   0.133254
20   0.138828
21   0.134604
22   0.142577
23   0.138835
24   0.145774
25   0.13753
26   0.136205
27   0.141283
28   0.140194
29   0.147745
30   0.142632
31   0.141809
32   0.142295
33   0.149467
34   0.147046

$$$$

