PCCDB-ID:  33410
public computational chemistry database (PCCDB) project, http://pccdb.org

 40 40  0  0  1  0  0  0  0  0999 V2000
    2.9307    0.5871    3.4475 C   0  0  0  0  0  0  0  0  0  0  0  0
    7.0644   -3.3349    2.5139 C   0  0  0  0  0  0  0  0  0  0  0  0
   10.6535    3.9440   -0.6811 C   0  0  0  0  0  0  0  0  0  0  0  0
    2.5607    1.6067    2.3664 C   0  0  0  0  0  0  0  0  0  0  0  0
    7.1570   -3.5941    1.0078 C   0  0  0  0  0  0  0  0  0  0  0  0
    9.1384    3.7360   -0.6003 C   0  0  0  0  0  0  0  0  0  0  0  0
    3.0110    1.1949    0.9467 C   0  0  0  0  0  0  0  0  0  0  0  0
    6.4477   -2.5260    0.1624 C   0  0  0  0  0  0  0  0  0  0  0  0
    8.6466    3.5007    0.8384 C   0  0  0  0  0  0  0  0  0  0  0  0
    4.5067    1.0646    0.7963 C   0  0  2  0  0  0  0  0  0  0  0  0
    6.4341   -0.1826    0.4943 C   0  0  0  0  0  0  0  0  0  0  0  0
    6.6252    2.2763    0.8031 C   0  0  0  0  0  0  0  0  0  0  0  0
    7.1175   -1.2409    0.2922 N   0  0  0  0  0  0  0  0  0  0  0  0
    7.1975    3.4114    0.9243 N   0  0  0  0  0  0  0  0  0  0  0  0
    5.0444   -0.0995    0.6125 N   0  0  0  0  0  0  0  0  0  0  0  0
    5.2254    2.2283    0.8813 N   0  0  0  0  0  0  0  0  0  0  0  0
    7.1649    1.0245    0.6043 N   0  0  0  0  0  0  0  0  0  0  0  0
    2.5551    0.9051    4.4262 H   0  0  0  0  0  0  0  0  0  0  0  0
    4.0156    0.4604    3.5294 H   0  0  0  0  0  0  0  0  0  0  0  0
    2.5014   -0.3964    3.2240 H   0  0  0  0  0  0  0  0  0  0  0  0
    7.5894   -4.1090    3.0856 H   0  0  0  0  0  0  0  0  0  0  0  0
    6.0197   -3.3207    2.8498 H   0  0  0  0  0  0  0  0  0  0  0  0
    7.5101   -2.3669    2.7676 H   0  0  0  0  0  0  0  0  0  0  0  0
   10.9752    4.1163   -1.7140 H   0  0  0  0  0  0  0  0  0  0  0  0
   11.1993    3.0696   -0.3052 H   0  0  0  0  0  0  0  0  0  0  0  0
   10.9672    4.8103   -0.0859 H   0  0  0  0  0  0  0  0  0  0  0  0
    2.9840    2.5881    2.6216 H   0  0  0  0  0  0  0  0  0  0  0  0
    1.4726    1.7444    2.3433 H   0  0  0  0  0  0  0  0  0  0  0  0
    6.7154   -4.5718    0.7700 H   0  0  0  0  0  0  0  0  0  0  0  0
    8.2111   -3.6382    0.7048 H   0  0  0  0  0  0  0  0  0  0  0  0
    8.8431    2.8845   -1.2287 H   0  0  0  0  0  0  0  0  0  0  0  0
    8.6133    4.6108   -1.0032 H   0  0  0  0  0  0  0  0  0  0  0  0
    2.6436    1.9327    0.2199 H   0  0  0  0  0  0  0  0  0  0  0  0
    2.5811    0.2255    0.6818 H   0  0  0  0  0  0  0  0  0  0  0  0
    5.3838   -2.4733    0.4311 H   0  0  0  0  0  0  0  0  0  0  0  0
    6.5011   -2.8264   -0.8948 H   0  0  0  0  0  0  0  0  0  0  0  0
    8.9598    4.3493    1.4599 H   0  0  0  0  0  0  0  0  0  0  0  0
    9.1601    2.6171    1.2607 H   0  0  0  0  0  0  0  0  0  0  0  0
    4.7778    3.1237    1.0247 H   0  0  0  0  0  0  0  0  0  0  0  0
    8.1656    0.9235    0.5077 H   0  0  0  0  0  0  0  0  0  0  0  0
  1 19  1  0  0  0  0
  1 18  1  0  0  0  0
  2 23  1  0  0  0  0
  2 22  1  0  0  0  0
  2 21  1  0  0  0  0
  3  6  1  0  0  0  0
  3 25  1  0  0  0  0
  3 26  1  0  0  0  0
  4 27  1  0  0  0  0
  4  1  1  0  0  0  0
  5  2  1  0  0  0  0
  6  9  1  0  0  0  0
  7  4  1  0  0  0  0
  8 13  1  0  0  0  0
  8 35  1  0  0  0  0
  8  5  1  0  0  0  0
  9 14  1  0  0  0  0
  9 38  1  0  0  0  0
  9 37  1  0  0  0  0
 10 16  1  0  0  0  0
 10  7  1  1  0  0  0
 11 17  1  0  0  0  0
 11 15  2  0  0  0  0
 12 16  1  0  0  0  0
 12 14  2  0  0  0  0
 13 11  1  0  0  0  0
 15 10  1  0  0  0  0
 16 39  1  0  0  0  0
 17 12  1  0  0  0  0
 20  1  1  0  0  0  0
 24  3  1  0  0  0  0
 28  4  1  0  0  0  0
 29  5  1  0  0  0  0
 30  5  1  0  0  0  0
 31  6  1  0  0  0  0
 32  6  1  0  0  0  0
 33  7  1  0  0  0  0
 34  7  1  0  0  0  0
 36  8  1  0  0  0  0
 40 17  1  0  0  0  0
M  RAD  2  10   2  13   2
M  END
>  <HBA>
5

>  <HBD>
2

>  <TPSA>
62.73

>  <cid>
33410

>  <dipole>
2.81

>  <excitation_energy_1>
4.623

>  <excitation_energy_2>
4.758

>  <excitation_energy_3>
4.81

>  <excitation_energy_4>
5.375

>  <homo_energy>
-5.962

>  <homo_lumo_gap>
5.295

>  <logP>
2.614

>  <lumo_energy>
-0.667

>  <melting_point>
120.8

>  <molecular_refractivity>
72.25

>  <oscillator_strength_1>
0.044

>  <oscillator_strength_2>
0.0139

>  <oscillator_strength_3>
0.1285

>  <oscillator_strength_4>
0.0004

>  <open_babel_can_smiles>
CCC[N]C1=N[C](N/C(=N/CCC)/N1)CCC

>  <mulliken_charges>
40
1   -0.441717
2   -0.440509
3   -0.44529
4   -0.262485
5   -0.24272
6   -0.251027
7   -0.346598
8   -0.137461
9   -0.155949
10   0.530837
11   0.659025
12   0.750382
13   -0.506554
14   -0.502257
15   -0.523161
16   -0.677735
17   -0.715691
18   0.14878
19   0.160443
20   0.154223
21   0.135075
22   0.135696
23   0.150609
24   0.147837
25   0.141938
26   0.14509
27   0.134845
28   0.14973
29   0.121689
30   0.136119
31   0.133386
32   0.148135
33   0.154739
34   0.181219
35   0.146109
36   0.131796
37   0.145056
38   0.110744
39   0.347824
40   0.347828

>  <lowdin_charges>
40
1   -0.44329
2   -0.447425
3   -0.446043
4   -0.266856
5   -0.273584
6   -0.281085
7   -0.285894
8   -0.196624
9   -0.20362
10   0.122334
11   0.118283
12   0.13451
13   -0.23992
14   -0.270481
15   -0.227112
16   -0.227535
17   -0.253353
18   0.153443
19   0.153975
20   0.153575
21   0.147088
22   0.142325
23   0.15031
24   0.152184
25   0.147019
26   0.148883
27   0.138992
28   0.148891
29   0.137539
30   0.141704
31   0.14029
32   0.149458
33   0.159617
34   0.173399
35   0.138066
36   0.140665
37   0.148087
38   0.119912
39   0.303071
40   0.299199

$$$$

