PCCDB-ID:  35725
public computational chemistry database (PCCDB) project, http://pccdb.org

 30 32  0  0  1  0  0  0  0  0999 V2000
   -1.9241   -0.8228   -0.2334 C   0  0  0  0  0  0  0  0  0  0  0  0
   -1.9784    0.6316    0.3167 C   0  0  0  0  0  0  0  0  0  0  0  0
    0.3406   -1.6706    0.6816 C   0  0  0  0  0  0  0  0  0  0  0  0
    0.2375    0.7214    1.6516 C   0  0  0  0  0  0  0  0  0  0  0  0
    0.2255   -0.7068   -1.6721 C   0  0  0  0  0  0  0  0  0  0  0  0
    0.1514    1.6790   -0.7071 C   0  0  0  0  0  0  0  0  0  0  0  0
    1.9687    0.0906   -0.0604 C   0  0  0  0  0  0  0  0  0  0  0  0
   -0.5530   -1.4485   -0.5609 C   0  0  2  0  0  0  0  0  0  0  0  0
   -0.6569    1.3830    0.5773 C   0  0  1  0  0  0  0  0  0  0  0  0
    1.1274   -0.4215    1.1227 C   0  0  2  0  0  0  0  0  0  0  0  0
    1.0339    0.5163   -1.1967 C   0  0  1  0  0  0  0  0  0  0  0  0
    1.8795    0.9726   -2.2628 O   0  0  0  0  0  0  0  0  0  0  0  0
   -2.5304   -0.8736   -1.1476 H   0  0  0  0  0  0  0  0  0  0  0  0
   -2.4209   -1.4913    0.4819 H   0  0  0  0  0  0  0  0  0  0  0  0
   -2.5426    0.6302    1.2585 H   0  0  0  0  0  0  0  0  0  0  0  0
   -2.5680    1.2492   -0.3740 H   0  0  0  0  0  0  0  0  0  0  0  0
    1.0693   -2.4604    0.4497 H   0  0  0  0  0  0  0  0  0  0  0  0
   -0.2716   -2.0489    1.5119 H   0  0  0  0  0  0  0  0  0  0  0  0
   -0.3879    0.3634    2.4813 H   0  0  0  0  0  0  0  0  0  0  0  0
    0.8988    1.4910    2.0747 H   0  0  0  0  0  0  0  0  0  0  0  0
   -0.4677   -0.4042   -2.4725 H   0  0  0  0  0  0  0  0  0  0  0  0
    0.9473   -1.3959   -2.1294 H   0  0  0  0  0  0  0  0  0  0  0  0
    0.8257    2.5262   -0.5257 H   0  0  0  0  0  0  0  0  0  0  0  0
   -0.5338    1.9896   -1.5113 H   0  0  0  0  0  0  0  0  0  0  0  0
    2.6497   -0.6894   -0.4244 H   0  0  0  0  0  0  0  0  0  0  0  0
    2.5876    0.9468    0.2374 H   0  0  0  0  0  0  0  0  0  0  0  0
   -0.7923   -2.4448   -0.9594 H   0  0  0  0  0  0  0  0  0  0  0  0
   -0.9683    2.3575    0.9799 H   0  0  0  0  0  0  0  0  0  0  0  0
    1.8037   -0.7205    1.9353 H   0  0  0  0  0  0  0  0  0  0  0  0
    1.2990    1.2668   -2.9840 H   0  0  0  0  0  0  0  0  0  0  0  0
  1  2  1  0  0  0  0
  1 14  1  0  0  0  0
  2  9  1  0  0  0  0
  2 15  1  0  0  0  0
  3 10  1  0  0  0  0
  3 18  1  0  0  0  0
  4 20  1  0  0  0  0
  4 19  1  0  0  0  0
  5 11  1  0  0  0  0
  5  8  1  0  0  0  0
  6 23  1  0  0  0  0
  6  9  1  0  0  0  0
  7 26  1  0  0  0  0
  7 10  1  0  0  0  0
  8 27  1  6  0  0  0
  8  1  1  0  0  0  0
  8  3  1  0  0  0  0
  9 28  1  1  0  0  0
  9  4  1  0  0  0  0
 10  4  1  0  0  0  0
 10 29  1  1  0  0  0
 11 12  1  6  0  0  0
 11  6  1  0  0  0  0
 11  7  1  0  0  0  0
 13  1  1  0  0  0  0
 16  2  1  0  0  0  0
 17  3  1  0  0  0  0
 21  5  1  0  0  0  0
 22  5  1  0  0  0  0
 24  6  1  0  0  0  0
 25  7  1  0  0  0  0
 30 12  1  0  0  0  0
M  END
>  <HBA>
1

>  <HBD>
1

>  <TPSA>
20.23

>  <cid>
35725

>  <dipole>
1.57

>  <excitation_energy_1>
6.236

>  <excitation_energy_2>
6.565

>  <excitation_energy_3>
6.807

>  <excitation_energy_4>
6.922

>  <homo_energy>
-6.846

>  <homo_lumo_gap>
8.406

>  <logP>
2.338

>  <lumo_energy>
1.559

>  <melting_point>
67.49

>  <molecular_refractivity>
49.85

>  <oscillator_strength_1>
0.007

>  <oscillator_strength_2>
0.0028

>  <oscillator_strength_3>
0.0096

>  <oscillator_strength_4>
0.0101

>  <open_babel_can_smiles>
O[C@]12C[C@@H]3CC[C@H](C1)C[C@H](C2)C3

>  <mulliken_charges>
30
1   -0.269858
2   -0.270393
3   -0.269364
4   -0.26972
5   -0.289041
6   -0.29017
7   -0.274429
8   -0.086491
9   -0.086006
10   -0.089165
11   0.320574
12   -0.655395
13   0.128686
14   0.130186
15   0.130447
16   0.128307
17   0.128111
18   0.124158
19   0.124554
20   0.128278
21   0.110008
22   0.139673
23   0.139185
24   0.109788
25   0.134611
26   0.13428
27   0.120679
28   0.120719
29   0.118085
30   0.379703

>  <lowdin_charges>
30
1   -0.288298
2   -0.288206
3   -0.283961
4   -0.284043
5   -0.296819
6   -0.296321
7   -0.282534
8   -0.131537
9   -0.131652
10   -0.132678
11   0.107385
12   -0.460126
13   0.141865
14   0.14368
15   0.142635
16   0.142658
17   0.14278
18   0.141139
19   0.141377
20   0.143445
21   0.134646
22   0.150314
23   0.149057
24   0.134403
25   0.147628
26   0.14715
27   0.142829
28   0.143188
29   0.14231
30   0.337685

$$$$

