PCCDB-ID:  47570
public computational chemistry database (PCCDB) project, http://pccdb.org

 27 28  0  0  1  0  0  0  0  0999 V2000
    4.0153   -1.2735    2.6395 C   0  0  0  0  0  0  0  0  0  0  0  0
    6.4956   -5.3793    0.4606 C   0  0  0  0  0  0  0  0  0  0  0  0
    6.7682   -4.2139   -0.2598 C   0  0  0  0  0  0  0  0  0  0  0  0
    5.2230   -5.5737    0.9982 C   0  0  0  0  0  0  0  0  0  0  0  0
    5.7762   -3.2503   -0.4409 C   0  0  0  0  0  0  0  0  0  0  0  0
    4.2317   -4.6067    0.8173 C   0  0  0  0  0  0  0  0  0  0  0  0
    4.4951    1.1114   -0.1462 C   0  0  0  0  0  0  0  0  0  0  0  0
    4.5822    0.8045    1.3674 C   0  0  0  0  0  0  0  0  0  0  0  0
    3.4036   -2.3986   -0.1356 C   0  0  0  0  0  0  0  0  0  0  0  0
    4.4949   -3.4362    0.0965 C   0  0  0  0  0  0  0  0  0  0  0  0
    3.8354   -0.9811    0.1467 C   0  0  1  0  0  0  0  0  0  0  0  0
    4.1710   -0.1713   -0.7958 N   0  0  0  0  0  0  0  0  0  0  0  0
    3.8571   -0.4685    1.4444 N   0  0  0  0  0  0  0  0  0  0  0  0
    3.6353   -0.7201    3.5057 H   0  0  0  0  0  0  0  0  0  0  0  0
    5.0680   -1.5381    2.8344 H   0  0  0  0  0  0  0  0  0  0  0  0
    3.4416   -2.1984    2.5545 H   0  0  0  0  0  0  0  0  0  0  0  0
    7.2688   -6.1301    0.6002 H   0  0  0  0  0  0  0  0  0  0  0  0
    7.7562   -4.0554   -0.6847 H   0  0  0  0  0  0  0  0  0  0  0  0
    4.9991   -6.4773    1.5594 H   0  0  0  0  0  0  0  0  0  0  0  0
    5.9853   -2.3441   -1.0034 H   0  0  0  0  0  0  0  0  0  0  0  0
    3.2405   -4.7663    1.2373 H   0  0  0  0  0  0  0  0  0  0  0  0
    5.4222    1.5303   -0.5504 H   0  0  0  0  0  0  0  0  0  0  0  0
    3.6917    1.8298   -0.3614 H   0  0  0  0  0  0  0  0  0  0  0  0
    4.1184    1.5676    2.0021 H   0  0  0  0  0  0  0  0  0  0  0  0
    5.6250    0.6693    1.7034 H   0  0  0  0  0  0  0  0  0  0  0  0
    2.5207   -2.6483    0.4645 H   0  0  0  0  0  0  0  0  0  0  0  0
    3.0951   -2.4157   -1.1861 H   0  0  0  0  0  0  0  0  0  0  0  0
  1 15  1  0  0  0  0
  1 14  1  0  0  0  0
  2 17  1  0  0  0  0
  2  4  2  0  0  0  0
  3  2  1  0  0  0  0
  4 19  1  0  0  0  0
  5  3  2  0  0  0  0
  5 10  1  0  0  0  0
  6  4  1  0  0  0  0
  6 21  1  0  0  0  0
  7  8  1  0  0  0  0
  8 13  1  0  0  0  0
  8 25  1  0  0  0  0
  8 24  1  0  0  0  0
  9 10  1  0  0  0  0
  9 26  1  0  0  0  0
 10  6  2  0  0  0  0
 11  9  1  6  0  0  0
 11 13  1  0  0  0  0
 12  7  1  0  0  0  0
 12 11  1  0  0  0  0
 13  1  1  0  0  0  0
 16  1  1  0  0  0  0
 18  3  1  0  0  0  0
 20  5  1  0  0  0  0
 22  7  1  0  0  0  0
 23  7  1  0  0  0  0
 27  9  1  0  0  0  0
M  RAD  2  11   2  12   2
M  END
>  <HBA>
2

>  <HBD>
0

>  <TPSA>
15.6

>  <cid>
47570

>  <dipole>
2.62

>  <excitation_energy_1>
4.728

>  <excitation_energy_2>
4.756

>  <excitation_energy_3>
5.046

>  <excitation_energy_4>
5.282

>  <homo_energy>
-5.546

>  <homo_lumo_gap>
5.524

>  <logP>
0.947

>  <lumo_energy>
-0.022

>  <melting_point>
47.57

>  <molecular_refractivity>
62.34

>  <oscillator_strength_1>
0.0017

>  <oscillator_strength_2>
0.0058

>  <oscillator_strength_3>
0.0146

>  <oscillator_strength_4>
0.001

>  <open_babel_can_smiles>
CN1CC[N][C]1Cc1ccccc1

>  <mulliken_charges>
27
1   -0.311224
2   -0.130292
3   -0.129393
4   -0.127935
5   -0.177921
6   -0.194151
7   -0.164652
8   -0.143251
9   -0.420827
10   0.161023
11   0.50628
12   -0.482507
13   -0.436386
14   0.156322
15   0.150119
16   0.164126
17   0.128411
18   0.130591
19   0.128459
20   0.152889
21   0.120748
22   0.147326
23   0.148611
24   0.146767
25   0.133632
26   0.152754
27   0.19048

>  <lowdin_charges>
27
1   -0.351068
2   -0.161738
3   -0.152463
4   -0.155657
5   -0.163747
6   -0.171985
7   -0.210022
8   -0.207978
9   -0.2789
10   -0.003944
11   0.087842
12   -0.255427
13   -0.138279
14   0.153365
15   0.139901
16   0.161575
17   0.158021
18   0.157268
19   0.157243
20   0.168823
21   0.151925
22   0.149842
23   0.14688
24   0.149027
25   0.130156
26   0.158374
27   0.180966

$$$$

