PCCDB-ID:  27968
public computational chemistry database (PCCDB) project, http://pccdb.org

 33 33  0  0  0  0  0  0  0  0999 V2000
    1.7945    1.0596   -1.1356 C   0  0  0  0  0  0  0  0  0  0  0  0
    7.7351   -4.0605    2.7269 C   0  0  0  0  0  0  0  0  0  0  0  0
    6.2713   -2.1548   -4.0853 C   0  0  0  0  0  0  0  0  0  0  0  0
    6.5563   -0.8525   -3.6697 C   0  0  0  0  0  0  0  0  0  0  0  0
    4.9466   -4.4896   -0.3774 C   0  0  0  0  0  0  0  0  0  0  0  0
    5.4863   -2.9832   -3.2855 C   0  0  0  0  0  0  0  0  0  0  0  0
    4.1260   -3.4735   -1.2046 C   0  0  0  0  0  0  0  0  0  0  0  0
    6.0514   -0.3915   -2.4562 C   0  0  0  0  0  0  0  0  0  0  0  0
    5.8391   -3.8372    0.6810 C   0  0  0  0  0  0  0  0  0  0  0  0
    4.9653   -2.5463   -2.0584 C   0  0  0  0  0  0  0  0  0  0  0  0
    5.2721   -1.2378   -1.6716 C   0  0  0  0  0  0  0  0  0  0  0  0
    3.7231   -0.0110   -0.3372 C   0  0  0  0  0  0  0  0  0  0  0  0
    2.9735    0.2283   -1.3166 N   0  0  0  0  0  0  0  0  0  0  0  0
    3.5624    0.4134    0.9415 O   0  0  0  0  0  0  0  0  0  0  0  0
    4.8571   -0.7792   -0.4121 O   0  0  0  0  0  0  0  0  0  0  0  0
    6.7242   -5.1283    1.6440 S   0  0  0  0  0  0  0  0  0  0  0  0
    1.8244    1.8821   -1.8601 H   0  0  0  0  0  0  0  0  0  0  0  0
    1.6860    1.4834   -0.1295 H   0  0  0  0  0  0  0  0  0  0  0  0
    0.8991    0.4675   -1.3612 H   0  0  0  0  0  0  0  0  0  0  0  0
    7.1069   -3.4335    3.3676 H   0  0  0  0  0  0  0  0  0  0  0  0
    8.4096   -3.4276    2.1415 H   0  0  0  0  0  0  0  0  0  0  0  0
    8.3340   -4.7195    3.3610 H   0  0  0  0  0  0  0  0  0  0  0  0
    6.6577   -2.5237   -5.0313 H   0  0  0  0  0  0  0  0  0  0  0  0
    7.1663   -0.1983   -4.2859 H   0  0  0  0  0  0  0  0  0  0  0  0
    5.5677   -5.0917   -1.0528 H   0  0  0  0  0  0  0  0  0  0  0  0
    4.2493   -5.1817    0.1116 H   0  0  0  0  0  0  0  0  0  0  0  0
    5.2600   -3.9940   -3.6178 H   0  0  0  0  0  0  0  0  0  0  0  0
    3.4854   -2.8916   -0.5347 H   0  0  0  0  0  0  0  0  0  0  0  0
    3.4549   -4.0381   -1.8633 H   0  0  0  0  0  0  0  0  0  0  0  0
    6.2549    0.6153   -2.1055 H   0  0  0  0  0  0  0  0  0  0  0  0
    5.2365   -3.2281    1.3655 H   0  0  0  0  0  0  0  0  0  0  0  0
    6.5776   -3.1811    0.2076 H   0  0  0  0  0  0  0  0  0  0  0  0
    4.3188    0.0898    1.4586 H   0  0  0  0  0  0  0  0  0  0  0  0
  1 18  1  0  0  0  0
  2 22  1  0  0  0  0
  2 20  1  0  0  0  0
  3  4  2  0  0  0  0
  3  6  1  0  0  0  0
  4  8  1  0  0  0  0
  5 26  1  0  0  0  0
  5  9  1  0  0  0  0
  6 10  2  0  0  0  0
  7 28  1  0  0  0  0
  7  5  1  0  0  0  0
  8 30  1  0  0  0  0
  8 11  2  0  0  0  0
  9 31  1  0  0  0  0
  9 16  1  0  0  0  0
 10 11  1  0  0  0  0
 10  7  1  0  0  0  0
 11 15  1  0  0  0  0
 12 14  1  0  0  0  0
 13  1  1  0  0  0  0
 13 12  2  0  0  0  0
 14 33  1  0  0  0  0
 15 12  1  0  0  0  0
 16  2  1  0  0  0  0
 17  1  1  0  0  0  0
 19  1  1  0  0  0  0
 21  2  1  0  0  0  0
 23  3  1  0  0  0  0
 24  4  1  0  0  0  0
 25  5  1  0  0  0  0
 27  6  1  0  0  0  0
 29  7  1  0  0  0  0
 32  9  1  0  0  0  0
M  END
>  <HBA>
4

>  <HBD>
1

>  <TPSA>
63.63

>  <cid>
27968

>  <dipole>
1.64

>  <excitation_energy_1>
4.84

>  <excitation_energy_2>
4.932

>  <excitation_energy_3>
5.084

>  <excitation_energy_4>
5.242

>  <homo_energy>
-5.856

>  <homo_lumo_gap>
5.685

>  <logP>
3.091

>  <lumo_energy>
-0.171

>  <melting_point>
78.48

>  <molecular_refractivity>
68.11

>  <oscillator_strength_1>
0.0012

>  <oscillator_strength_2>
0.0017

>  <oscillator_strength_3>
0.0013

>  <oscillator_strength_4>
0.0012

>  <open_babel_can_smiles>
CSCCCc1ccccc1O/C(=N/C)/O

>  <mulliken_charges>
33
1   -0.326409
2   -0.582785
3   -0.114277
4   -0.147896
5   -0.267918
6   -0.204102
7   -0.352829
8   -0.132872
9   -0.394181
10   0.166261
11   0.30342
12   0.695876
13   -0.441526
14   -0.600645
15   -0.579555
16   0.08304
17   0.156198
18   0.154139
19   0.15637
20   0.170893
21   0.175488
22   0.182709
23   0.131895
24   0.134741
25   0.155048
26   0.153389
27   0.130183
28   0.155792
29   0.152946
30   0.136941
31   0.155842
32   0.173441
33   0.420382

>  <lowdin_charges>
33
1   -0.351129
2   -0.549295
3   -0.156287
4   -0.154692
5   -0.275844
6   -0.157402
7   -0.274846
8   -0.160193
9   -0.375182
10   -0.011559
11   0.097865
12   0.189002
13   -0.240793
14   -0.370567
15   -0.193737
16   0.086393
17   0.153461
18   0.143404
19   0.153529
20   0.159637
21   0.161952
22   0.177048
23   0.159832
24   0.162284
25   0.153192
26   0.154409
27   0.157164
28   0.15849
29   0.159752
30   0.166109
31   0.149743
32   0.159033
33   0.369226

$$$$

