PCCDB-ID:  29939
public computational chemistry database (PCCDB) project, http://pccdb.org

 25 26  0  0  1  0  0  0  0  0999 V2000
    0.9628   -0.9404    1.6675 C   0  0  0  0  0  0  0  0  0  0  0  0
    7.8040   -1.4953    4.3587 C   0  0  0  0  0  0  0  0  0  0  0  0
    7.5141   -2.8374    4.0987 C   0  0  0  0  0  0  0  0  0  0  0  0
    7.1282   -0.4787    3.6690 C   0  0  0  0  0  0  0  0  0  0  0  0
    6.5536   -3.2000    3.1467 C   0  0  0  0  0  0  0  0  0  0  0  0
    5.2506    0.0019    1.8555 C   0  0  0  0  0  0  0  0  0  0  0  0
    3.1652   -0.9777    0.6362 C   0  0  0  0  0  0  0  0  0  0  0  0
    6.1745   -0.8242    2.7198 C   0  0  0  0  0  0  0  0  0  0  0  0
    4.6626   -1.0688    0.9015 C   0  0  2  0  0  0  0  0  0  0  0  0
    5.9022   -2.1727    2.4743 C   0  0  0  0  0  0  0  0  0  0  0  0
    2.4039   -1.0066    1.8760 N   0  0  0  0  0  0  0  0  0  0  0  0
    4.9356   -2.3637    1.5228 O   0  0  0  0  0  0  0  0  0  0  0  0
    0.4508   -1.0349    2.6306 H   0  0  0  0  0  0  0  0  0  0  0  0
    0.5652   -1.7165    0.9868 H   0  0  0  0  0  0  0  0  0  0  0  0
    0.6987    0.0364    1.2445 H   0  0  0  0  0  0  0  0  0  0  0  0
    8.5564   -1.2379    5.0987 H   0  0  0  0  0  0  0  0  0  0  0  0
    8.0449   -3.6170    4.6388 H   0  0  0  0  0  0  0  0  0  0  0  0
    7.3501    0.5655    3.8762 H   0  0  0  0  0  0  0  0  0  0  0  0
    6.3240   -4.2387    2.9319 H   0  0  0  0  0  0  0  0  0  0  0  0
    5.7624    0.7945    1.2992 H   0  0  0  0  0  0  0  0  0  0  0  0
    4.4495    0.4599    2.4485 H   0  0  0  0  0  0  0  0  0  0  0  0
    2.8838   -1.7847   -0.0675 H   0  0  0  0  0  0  0  0  0  0  0  0
    2.9645   -0.0273    0.1218 H   0  0  0  0  0  0  0  0  0  0  0  0
    5.1973   -1.0627   -0.0578 H   0  0  0  0  0  0  0  0  0  0  0  0
    2.6398   -1.8665    2.3681 H   0  0  0  0  0  0  0  0  0  0  0  0
  1 11  1  0  0  0  0
  1 13  1  0  0  0  0
  2 16  1  0  0  0  0
  3  2  1  0  0  0  0
  3 17  1  0  0  0  0
  4 18  1  0  0  0  0
  4  2  2  0  0  0  0
  5  3  2  0  0  0  0
  6 21  1  0  0  0  0
  6  8  1  0  0  0  0
  7  9  1  0  0  0  0
  7 11  1  0  0  0  0
  8  4  1  0  0  0  0
  9 24  1  6  0  0  0
  9 12  1  0  0  0  0
  9  6  1  0  0  0  0
 10  8  2  0  0  0  0
 10  5  1  0  0  0  0
 11 25  1  0  0  0  0
 12 10  1  0  0  0  0
 14  1  1  0  0  0  0
 15  1  1  0  0  0  0
 19  5  1  0  0  0  0
 20  6  1  0  0  0  0
 22  7  1  0  0  0  0
 23  7  1  0  0  0  0
M  END
>  <HBA>
2

>  <HBD>
1

>  <TPSA>
21.26

>  <cid>
29939

>  <dipole>
1.17

>  <excitation_energy_1>
4.82

>  <excitation_energy_2>
5.272

>  <excitation_energy_3>
5.35

>  <excitation_energy_4>
5.525

>  <homo_energy>
-5.63

>  <homo_lumo_gap>
5.725

>  <logP>
1.6

>  <lumo_energy>
0.095

>  <melting_point>
61.69

>  <molecular_refractivity>
48.2

>  <oscillator_strength_1>
0.054

>  <oscillator_strength_2>
0.0126

>  <oscillator_strength_3>
0.0043

>  <oscillator_strength_4>
0.0191

>  <open_babel_can_smiles>
CNC[C@H]1Cc2c(O1)cccc2

>  <mulliken_charges>
25
1   -0.298783
2   -0.137799
3   -0.139531
4   -0.204003
5   -0.188959
6   -0.365606
7   -0.130651
8   0.101088
9   0.120536
10   0.355994
11   -0.547122
12   -0.55493
13   0.151699
14   0.12223
15   0.149776
16   0.122925
17   0.126994
18   0.12552
19   0.134097
20   0.15176
21   0.187442
22   0.125872
23   0.141093
24   0.138814
25   0.311544

>  <lowdin_charges>
25
1   -0.358891
2   -0.178669
3   -0.151681
4   -0.155907
5   -0.192569
6   -0.29218
7   -0.210113
8   -0.043015
9   0.011491
10   0.093021
11   -0.362057
12   -0.225193
13   0.152585
14   0.123588
15   0.146946
16   0.156236
17   0.158511
18   0.155265
19   0.163528
20   0.158623
21   0.172128
22   0.128458
23   0.147645
24   0.142603
25   0.259647

$$$$

