PCCDB-ID:  14106
public computational chemistry database (PCCDB) project, http://pccdb.org

 24 24  0  0  1  0  0  0  0  0999 V2000
    0.6480    1.2780   -0.1452 C   0  0  0  0  0  0  0  0  0  0  0  0
    1.3785    0.0724    0.4600 C   0  0  0  0  0  0  0  0  0  0  0  0
   -1.4351   -0.1368   -0.4542 C   0  0  0  0  0  0  0  0  0  0  0  0
   -0.7032   -1.3434    0.1479 C   0  0  0  0  0  0  0  0  0  0  0  0
   -0.8818    1.1909    0.0826 C   0  0  2  0  0  0  0  0  0  0  0  0
    0.8267   -1.2551   -0.0785 C   0  0  2  0  0  0  0  0  0  0  0  0
   -1.5877    2.3805   -0.5673 C   0  0  0  0  0  0  0  0  0  0  0  0
    1.5374   -2.4446    0.5667 C   0  0  0  0  0  0  0  0  0  0  0  0
   -2.2719    2.3146   -1.5578 O   0  0  0  0  0  0  0  0  0  0  0  0
   -1.3756    3.5870    0.0299 O   0  0  0  0  0  0  0  0  0  0  0  0
    2.2526   -2.3736    1.5345 O   0  0  0  0  0  0  0  0  0  0  0  0
    1.2951   -3.6563   -0.0080 O   0  0  0  0  0  0  0  0  0  0  0  0
    0.8377    1.3297   -1.2263 H   0  0  0  0  0  0  0  0  0  0  0  0
    1.0523    2.2045    0.2823 H   0  0  0  0  0  0  0  0  0  0  0  0
    1.2758    0.0747    1.5520 H   0  0  0  0  0  0  0  0  0  0  0  0
    2.4523    0.1392    0.2547 H   0  0  0  0  0  0  0  0  0  0  0  0
   -2.5082   -0.2044   -0.2448 H   0  0  0  0  0  0  0  0  0  0  0  0
   -1.3367   -0.1380   -1.5465 H   0  0  0  0  0  0  0  0  0  0  0  0
   -1.1086   -2.2683   -0.2822 H   0  0  0  0  0  0  0  0  0  0  0  0
   -0.8940   -1.3982    1.2287 H   0  0  0  0  0  0  0  0  0  0  0  0
   -1.0660    1.2391    1.1683 H   0  0  0  0  0  0  0  0  0  0  0  0
    1.0111   -1.3017   -1.1644 H   0  0  0  0  0  0  0  0  0  0  0  0
   -0.8235    3.4754    0.8214 H   0  0  0  0  0  0  0  0  0  0  0  0
    0.7209   -3.5495   -0.7843 H   0  0  0  0  0  0  0  0  0  0  0  0
  1  5  1  0  0  0  0
  1 14  1  0  0  0  0
  1  2  1  0  0  0  0
  2 15  1  0  0  0  0
  3 17  1  0  0  0  0
  3  5  1  0  0  0  0
  3  4  1  0  0  0  0
  4 20  1  0  0  0  0
  5 21  1  1  0  0  0
  6 22  1  6  0  0  0
  6  4  1  0  0  0  0
  6  2  1  0  0  0  0
  6  8  1  0  0  0  0
  7 10  1  0  0  0  0
  7  5  1  0  0  0  0
  8 11  2  0  0  0  0
  9  7  2  0  0  0  0
 10 23  1  0  0  0  0
 12  8  1  0  0  0  0
 13  1  1  0  0  0  0
 16  2  1  0  0  0  0
 18  3  1  0  0  0  0
 19  4  1  0  0  0  0
 24 12  1  0  0  0  0
M  END
>  <HBA>
4

>  <HBD>
2

>  <TPSA>
74.6

>  <cid>
14106

>  <dipole>
0.09

>  <excitation_energy_1>
5.634

>  <excitation_energy_2>
5.642

>  <excitation_energy_3>
6.424

>  <excitation_energy_4>
6.43

>  <homo_energy>
-7.453

>  <homo_lumo_gap>
7.5

>  <logP>
0.962

>  <lumo_energy>
0.046

>  <melting_point>
149.0

>  <molecular_refractivity>
42.0

>  <oscillator_strength_1>
0.0

>  <oscillator_strength_2>
0.0021

>  <oscillator_strength_3>
0.0034

>  <oscillator_strength_4>
0.0142

>  <open_babel_can_smiles>
OC(=O)[C@@H]1CC[C@H](CC1)C(=O)O

>  <mulliken_charges>
24
1   -0.281561
2   -0.255818
3   -0.256329
4   -0.282273
5   -0.222916
6   -0.223695
7   0.615765
8   0.615948
9   -0.442197
10   -0.572423
11   -0.44205
12   -0.572525
13   0.1565
14   0.134723
15   0.158866
16   0.158956
17   0.158089
18   0.160071
19   0.133767
20   0.156183
21   0.140028
22   0.141944
23   0.410428
24   0.41052

>  <lowdin_charges>
24
1   -0.274816
2   -0.268099
3   -0.268348
4   -0.275128
5   -0.170084
6   -0.170264
7   0.192917
8   0.192782
9   -0.235835
10   -0.355352
11   -0.235609
12   -0.355484
13   0.15023
14   0.144939
15   0.15404
16   0.158566
17   0.158054
18   0.15461
19   0.144423
20   0.150002
21   0.145568
22   0.146593
23   0.358163
24   0.358132

$$$$

