PCCDB-ID:  65295
public computational chemistry database (PCCDB) project, http://pccdb.org

 29 29  0  0  1  0  0  0  0  0999 V2000
    2.4505    0.2551   -1.7610 C   0  0  0  0  0  0  0  0  0  0  0  0
    0.1235    0.5619    1.7249 C   0  0  0  0  0  0  0  0  0  0  0  0
    2.4660    0.1641    2.0380 C   0  0  0  0  0  0  0  0  0  0  0  0
    2.0341   -4.6996   -3.1019 C   0  0  0  0  0  0  0  0  0  0  0  0
    1.0743   -3.6948   -3.2403 C   0  0  0  0  0  0  0  0  0  0  0  0
    3.1147   -4.5003   -2.2426 C   0  0  0  0  0  0  0  0  0  0  0  0
    1.1969   -2.5026   -2.5267 C   0  0  0  0  0  0  0  0  0  0  0  0
    3.2304   -3.3057   -1.5293 C   0  0  0  0  0  0  0  0  0  0  0  0
    1.2893   -0.8979    0.1942 C   0  0  0  0  0  0  0  0  0  0  0  0
    2.4150   -0.9939   -0.8640 C   0  0  1  0  0  0  0  0  0  0  0  0
    2.2778   -2.2864   -1.6582 C   0  0  0  0  0  0  0  0  0  0  0  0
    1.3897    0.2771    1.0620 N   0  0  0  0  0  0  0  0  0  0  0  0
    2.5324    1.1562   -1.1467 H   0  0  0  0  0  0  0  0  0  0  0  0
    1.5349    0.3431   -2.3581 H   0  0  0  0  0  0  0  0  0  0  0  0
    3.2978    0.2155   -2.4542 H   0  0  0  0  0  0  0  0  0  0  0  0
    0.2153    1.4829    2.3117 H   0  0  0  0  0  0  0  0  0  0  0  0
   -0.2056   -0.2451    2.4096 H   0  0  0  0  0  0  0  0  0  0  0  0
   -0.6620    0.7136    0.9768 H   0  0  0  0  0  0  0  0  0  0  0  0
    2.5272    1.0881    2.6232 H   0  0  0  0  0  0  0  0  0  0  0  0
    3.4281    0.0267    1.5360 H   0  0  0  0  0  0  0  0  0  0  0  0
    2.3243   -0.6797    2.7432 H   0  0  0  0  0  0  0  0  0  0  0  0
    1.9401   -5.6276   -3.6596 H   0  0  0  0  0  0  0  0  0  0  0  0
    0.2281   -3.8386   -3.9075 H   0  0  0  0  0  0  0  0  0  0  0  0
    3.8701   -5.2733   -2.1265 H   0  0  0  0  0  0  0  0  0  0  0  0
    0.4428   -1.7296   -2.6534 H   0  0  0  0  0  0  0  0  0  0  0  0
    4.0770   -3.1598   -0.8616 H   0  0  0  0  0  0  0  0  0  0  0  0
    1.2634   -1.8373    0.7817 H   0  0  0  0  0  0  0  0  0  0  0  0
    0.3294   -0.8351   -0.3329 H   0  0  0  0  0  0  0  0  0  0  0  0
    3.3746   -1.0508   -0.3340 H   0  0  0  0  0  0  0  0  0  0  0  0
  1 13  1  0  0  0  0
  1 10  1  0  0  0  0
  2 16  1  0  0  0  0
  2 17  1  0  0  0  0
  3 19  1  0  0  0  0
  3 21  1  0  0  0  0
  4  6  1  0  0  0  0
  5  4  2  0  0  0  0
  5  7  1  0  0  0  0
  6 24  1  0  0  0  0
  6  8  2  0  0  0  0
  7 11  2  0  0  0  0
  8 26  1  0  0  0  0
  9 27  1  0  0  0  0
  9 12  1  0  0  0  0
 10 29  1  1  0  0  0
 10  9  1  0  0  0  0
 11  8  1  0  0  0  0
 11 10  1  0  0  0  0
 12  2  1  0  0  0  0
 12  3  1  0  0  0  0
 14  1  1  0  0  0  0
 15  1  1  0  0  0  0
 18  2  1  0  0  0  0
 20  3  1  0  0  0  0
 22  4  1  0  0  0  0
 23  5  1  0  0  0  0
 25  7  1  0  0  0  0
 28  9  1  0  0  0  0
M  END
>  <HBA>
1

>  <HBD>
0

>  <TPSA>
3.24

>  <cid>
65295

>  <dipole>
0.63

>  <excitation_energy_1>
5.043

>  <excitation_energy_2>
5.096

>  <excitation_energy_3>
5.264

>  <excitation_energy_4>
5.33

>  <homo_energy>
-5.704

>  <homo_lumo_gap>
5.807

>  <logP>
2.352

>  <lumo_energy>
0.103

>  <melting_point>
7.13

>  <molecular_refractivity>
53.53

>  <oscillator_strength_1>
0.0019

>  <oscillator_strength_2>
0.0052

>  <oscillator_strength_3>
0.0173

>  <oscillator_strength_4>
0.0009

>  <open_babel_can_smiles>
C[C@H](c1ccccc1)CN(C)C

>  <mulliken_charges>
29
1   -0.440436
2   -0.293999
3   -0.302623
4   -0.131315
5   -0.130063
6   -0.125801
7   -0.184358
8   -0.194988
9   -0.109901
10   -0.183238
11   0.18253
12   -0.366171
13   0.163646
14   0.137076
15   0.143178
16   0.146808
17   0.117746
18   0.148808
19   0.14854
20   0.153514
21   0.11775
22   0.126578
23   0.126834
24   0.126779
25   0.124978
26   0.121347
27   0.116039
28   0.132157
29   0.128585

>  <lowdin_charges>
29
1   -0.445406
2   -0.357081
3   -0.359365
4   -0.161614
5   -0.15527
6   -0.157139
7   -0.167998
8   -0.169516
9   -0.199774
10   -0.126701
11   0.001748
12   -0.182917
13   0.159883
14   0.145322
15   0.15049
16   0.148914
17   0.12125
18   0.150092
19   0.150568
20   0.149741
21   0.120813
22   0.156254
23   0.156381
24   0.157036
25   0.154601
26   0.153234
27   0.122361
28   0.143216
29   0.140875

$$$$

