PCCDB-ID:  24151
public computational chemistry database (PCCDB) project, http://pccdb.org

 24 23  0  0  0  0  0  0  0  0999 V2000
    8.8527    5.7698    1.7579 C   0  0  0  0  0  0  0  0  0  0  0  0
    5.5158   -1.7705   -2.5755 C   0  0  0  0  0  0  0  0  0  0  0  0
    8.0540    5.2607    0.8212 C   0  0  0  0  0  0  0  0  0  0  0  0
    5.5297   -0.4424   -2.4621 C   0  0  0  0  0  0  0  0  0  0  0  0
    7.2268    4.0216    0.9954 C   0  0  0  0  0  0  0  0  0  0  0  0
    4.3358    0.3803   -2.0526 C   0  0  0  0  0  0  0  0  0  0  0  0
    6.6572    1.9913   -0.1253 C   0  0  0  0  0  0  0  0  0  0  0  0
    5.3537    2.2412   -0.8934 C   0  0  0  0  0  0  0  0  0  0  0  0
    7.4811    3.1481   -0.1004 O   0  0  0  0  0  0  0  0  0  0  0  0
    4.5124    1.0967   -0.8318 O   0  0  0  0  0  0  0  0  0  0  0  0
    9.4081    6.6898    1.5976 H   0  0  0  0  0  0  0  0  0  0  0  0
    8.9796    5.2884    2.7255 H   0  0  0  0  0  0  0  0  0  0  0  0
    6.3928   -2.3312   -2.8880 H   0  0  0  0  0  0  0  0  0  0  0  0
    4.6197   -2.3506   -2.3630 H   0  0  0  0  0  0  0  0  0  0  0  0
    7.9512    5.7553   -0.1441 H   0  0  0  0  0  0  0  0  0  0  0  0
    6.4448    0.1065   -2.6864 H   0  0  0  0  0  0  0  0  0  0  0  0
    6.1573    4.2922    1.0308 H   0  0  0  0  0  0  0  0  0  0  0  0
    7.4681    3.5248    1.9491 H   0  0  0  0  0  0  0  0  0  0  0  0
    3.4738   -0.2735   -1.8846 H   0  0  0  0  0  0  0  0  0  0  0  0
    4.0696    1.0854   -2.8580 H   0  0  0  0  0  0  0  0  0  0  0  0
    7.2345    1.2017   -0.6178 H   0  0  0  0  0  0  0  0  0  0  0  0
    6.4213    1.6426    0.8909 H   0  0  0  0  0  0  0  0  0  0  0  0
    5.5848    2.5209   -1.9308 H   0  0  0  0  0  0  0  0  0  0  0  0
    4.8093    3.0814   -0.4418 H   0  0  0  0  0  0  0  0  0  0  0  0
  1 12  1  0  0  0  0
  2  4  2  0  0  0  0
  2 14  1  0  0  0  0
  3  5  1  0  0  0  0
  3  1  2  0  0  0  0
  4  6  1  0  0  0  0
  5 17  1  0  0  0  0
  5 18  1  0  0  0  0
  6 19  1  0  0  0  0
  6 10  1  0  0  0  0
  7  9  1  0  0  0  0
  7 22  1  0  0  0  0
  8 10  1  0  0  0  0
  8 24  1  0  0  0  0
  8  7  1  0  0  0  0
  9  5  1  0  0  0  0
 11  1  1  0  0  0  0
 13  2  1  0  0  0  0
 15  3  1  0  0  0  0
 16  4  1  0  0  0  0
 20  6  1  0  0  0  0
 21  7  1  0  0  0  0
 23  8  1  0  0  0  0
M  END
>  <HBA>
2

>  <HBD>
0

>  <TPSA>
18.46

>  <cid>
24151

>  <dipole>
0.51

>  <excitation_energy_1>
5.647

>  <excitation_energy_2>
5.854

>  <excitation_energy_3>
6.288

>  <excitation_energy_4>
6.511

>  <homo_energy>
-6.455

>  <homo_lumo_gap>
6.667

>  <logP>
1.392

>  <lumo_energy>
0.212

>  <melting_point>
-86.99

>  <molecular_refractivity>
41.79

>  <oscillator_strength_1>
0.0147

>  <oscillator_strength_2>
0.0058

>  <oscillator_strength_3>
0.0052

>  <oscillator_strength_4>
0.005

>  <open_babel_can_smiles>
C=CCOCCOCC=C

>  <mulliken_charges>
24
1   -0.33625
2   -0.333599
3   -0.049039
4   -0.059122
5   -0.064222
6   -0.07599
7   -0.035776
8   -0.044583
9   -0.477498
10   -0.469501
11   0.144822
12   0.140136
13   0.145823
14   0.142349
15   0.139096
16   0.135077
17   0.131551
18   0.130526
19   0.149414
20   0.132628
21   0.146873
22   0.135044
23   0.132414
24   0.139826

>  <lowdin_charges>
24
1   -0.328342
2   -0.325641
3   -0.147573
4   -0.167667
5   -0.123841
6   -0.128625
7   -0.147152
8   -0.147208
9   -0.276642
10   -0.273496
11   0.161202
12   0.155914
13   0.162127
14   0.157833
15   0.15785
16   0.153632
17   0.131766
18   0.133368
19   0.152942
20   0.135855
21   0.149361
22   0.136864
23   0.135263
24   0.142208

$$$$

