PCCDB-ID:  43315
public computational chemistry database (PCCDB) project, http://pccdb.org

 31 33  0  0  0  0  0  0  0  0999 V2000
    4.8046    3.2593    1.5175 C   0  0  0  0  0  0  0  0  0  0  0  0
   -6.1627   -0.8351    2.6063 C   0  0  0  0  0  0  0  0  0  0  0  0
   -6.1759    0.5383    2.3403 C   0  0  0  0  0  0  0  0  0  0  0  0
   -4.9499   -1.5271    2.7079 C   0  0  0  0  0  0  0  0  0  0  0  0
   -4.9823    1.2435    2.1710 C   0  0  0  0  0  0  0  0  0  0  0  0
   -0.4651    2.4515    1.8106 C   0  0  0  0  0  0  0  0  0  0  0  0
   -1.8471    2.2794    1.8829 C   0  0  0  0  0  0  0  0  0  0  0  0
   -2.3299   -1.3356    2.5992 C   0  0  0  0  0  0  0  0  0  0  0  0
   -0.1471    0.0784    2.2646 C   0  0  0  0  0  0  0  0  0  0  0  0
   -3.7592   -0.8305    2.5411 C   0  0  0  0  0  0  0  0  0  0  0  0
   -1.5216   -0.0806    2.3338 C   0  0  0  0  0  0  0  0  0  0  0  0
    0.3899    1.3522    2.0019 C   0  0  0  0  0  0  0  0  0  0  0  0
   -3.7712    0.5550    2.2722 C   0  0  0  0  0  0  0  0  0  0  0  0
   -2.3842    1.0181    2.1432 C   0  0  0  0  0  0  0  0  0  0  0  0
    2.5648    2.5627    1.7096 C   0  0  0  0  0  0  0  0  0  0  0  0
    1.7942    1.4522    1.9422 N   0  0  0  0  0  0  0  0  0  0  0  0
    2.1809    3.6979    1.5028 O   0  0  0  0  0  0  0  0  0  0  0  0
    3.8752    2.1918    1.7455 O   0  0  0  0  0  0  0  0  0  0  0  0
    4.7059    4.0297    2.2870 H   0  0  0  0  0  0  0  0  0  0  0  0
    4.6404    3.7133    0.5366 H   0  0  0  0  0  0  0  0  0  0  0  0
    5.7918    2.7980    1.5643 H   0  0  0  0  0  0  0  0  0  0  0  0
   -7.1005   -1.3689    2.7346 H   0  0  0  0  0  0  0  0  0  0  0  0
   -7.1251    1.0623    2.2636 H   0  0  0  0  0  0  0  0  0  0  0  0
   -4.9455   -2.5950    2.9143 H   0  0  0  0  0  0  0  0  0  0  0  0
   -5.0006    2.3104    1.9639 H   0  0  0  0  0  0  0  0  0  0  0  0
   -0.0378    3.4238    1.6080 H   0  0  0  0  0  0  0  0  0  0  0  0
   -2.4948    3.1393    1.7327 H   0  0  0  0  0  0  0  0  0  0  0  0
   -2.1381   -2.1144    1.8479 H   0  0  0  0  0  0  0  0  0  0  0  0
   -2.0897   -1.7810    3.5748 H   0  0  0  0  0  0  0  0  0  0  0  0
    0.5196   -0.7700    2.4123 H   0  0  0  0  0  0  0  0  0  0  0  0
    2.3150    0.5992    2.0949 H   0  0  0  0  0  0  0  0  0  0  0  0
  1 21  1  0  0  0  0
  1 18  1  0  0  0  0
  1 19  1  0  0  0  0
  2  4  1  0  0  0  0
  2 22  1  0  0  0  0
  3  2  2  0  0  0  0
  4 24  1  0  0  0  0
  5 13  2  0  0  0  0
  5  3  1  0  0  0  0
  6  7  2  0  0  0  0
  6 12  1  0  0  0  0
  7 14  1  0  0  0  0
  8 29  1  0  0  0  0
  9 11  1  0  0  0  0
  9 30  1  0  0  0  0
 10  8  1  0  0  0  0
 10  4  2  0  0  0  0
 11  8  1  0  0  0  0
 12  9  2  0  0  0  0
 13 10  1  0  0  0  0
 14 13  1  0  0  0  0
 14 11  2  0  0  0  0
 15 18  1  0  0  0  0
 15 16  1  0  0  0  0
 16 12  1  0  0  0  0
 16 31  1  0  0  0  0
 17 15  2  0  0  0  0
 20  1  1  0  0  0  0
 23  3  1  0  0  0  0
 25  5  1  0  0  0  0
 26  6  1  0  0  0  0
 27  7  1  0  0  0  0
 28  8  1  0  0  0  0
M  END
>  <HBA>
3

>  <HBD>
1

>  <TPSA>
38.33

>  <cid>
43315

>  <dipole>
2.69

>  <excitation_energy_1>
4.196

>  <excitation_energy_2>
4.34

>  <excitation_energy_3>
4.745

>  <excitation_energy_4>
4.91

>  <homo_energy>
-5.382

>  <homo_lumo_gap>
4.683

>  <logP>
3.509

>  <lumo_energy>
-0.699

>  <melting_point>
131.18

>  <molecular_refractivity>
70.68

>  <oscillator_strength_1>
0.3165

>  <oscillator_strength_2>
0.4652

>  <oscillator_strength_3>
0.0006

>  <oscillator_strength_4>
0.0001

>  <open_babel_can_smiles>
COC(=O)Nc1ccc2c(c1)Cc1c2cccc1

>  <mulliken_charges>
31
1   -0.209476
2   -0.130451
3   -0.137439
4   -0.203841
5   -0.193341
6   -0.18223
7   -0.209681
8   -0.42147
9   -0.284672
10   0.104253
11   0.108173
12   0.37947
13   0.090092
14   0.091143
15   0.811455
16   -0.749326
17   -0.504924
18   -0.490046
19   0.171086
20   0.171879
21   0.163793
22   0.125546
23   0.126889
24   0.122958
25   0.128814
26   0.182686
27   0.133738
28   0.171806
29   0.171675
30   0.118021
31   0.343421

>  <lowdin_charges>
31
1   -0.273976
2   -0.161751
3   -0.156551
4   -0.161962
5   -0.161788
6   -0.184364
7   -0.151554
8   -0.275235
9   -0.199887
10   -0.007601
11   0.00417
12   0.065301
13   -0.01022
14   -0.024188
15   0.214178
16   -0.236815
17   -0.296831
18   -0.216313
19   0.159815
20   0.159235
21   0.159548
22   0.156841
23   0.156935
24   0.153587
25   0.155463
26   0.186131
27   0.160793
28   0.169101
29   0.16818
30   0.153116
31   0.296643

$$$$

