PCCDB-ID:  14508
public computational chemistry database (PCCDB) project, http://pccdb.org

 15 15  0  0  0  0  0  0  0  0999 V2000
    0.9236    0.0586    0.0817 C   0  0  0  0  0  0  0  0  0  0  0  0
    3.2112   -1.2243    0.0122 C   0  0  0  0  0  0  0  0  0  0  0  0
    4.5594   -0.8104    0.0058 C   0  0  0  0  0  0  0  0  0  0  0  0
    5.6330    1.5546    0.0607 C   0  0  0  0  0  0  0  0  0  0  0  0
    2.4121   -0.0820    0.0580 C   0  0  0  0  0  0  0  0  0  0  0  0
    4.5665    0.5818    0.0487 C   0  0  0  0  0  0  0  0  0  0  0  0
    3.2485    0.9938    0.0801 N   0  0  0  0  0  0  0  0  0  0  0  0
    5.4430    2.7662    0.0992 O   0  0  0  0  0  0  0  0  0  0  0  0
    0.4533   -0.9281    0.0750 H   0  0  0  0  0  0  0  0  0  0  0  0
    0.5521    0.6120   -0.7905 H   0  0  0  0  0  0  0  0  0  0  0  0
    0.5783    0.5881    0.9789 H   0  0  0  0  0  0  0  0  0  0  0  0
    2.8404   -2.2403   -0.0142 H   0  0  0  0  0  0  0  0  0  0  0  0
    5.4372   -1.4425   -0.0255 H   0  0  0  0  0  0  0  0  0  0  0  0
    6.6582    1.1313    0.0322 H   0  0  0  0  0  0  0  0  0  0  0  0
    2.9952    1.9724    0.1109 H   0  0  0  0  0  0  0  0  0  0  0  0
  1 11  1  0  0  0  0
  2  5  2  0  0  0  0
  3  2  1  0  0  0  0
  3  6  2  0  0  0  0
  4  8  2  0  0  0  0
  5  7  1  0  0  0  0
  5  1  1  0  0  0  0
  6  4  1  0  0  0  0
  6  7  1  0  0  0  0
  7 15  1  0  0  0  0
  9  1  1  0  0  0  0
 10  1  1  0  0  0  0
 12  2  1  0  0  0  0
 13  3  1  0  0  0  0
 14  4  1  0  0  0  0
M  END
>  <HBA>
1

>  <HBD>
1

>  <TPSA>
32.86

>  <cid>
14508

>  <dipole>
3.2

>  <excitation_energy_1>
3.999

>  <excitation_energy_2>
4.68

>  <excitation_energy_3>
5.195

>  <excitation_energy_4>
5.397

>  <homo_energy>
-5.989

>  <homo_lumo_gap>
4.852

>  <logP>
1.136

>  <lumo_energy>
-1.137

>  <melting_point>
89.2

>  <molecular_refractivity>
31.15

>  <oscillator_strength_1>
0.0002

>  <oscillator_strength_2>
0.3799

>  <oscillator_strength_3>
0.0678

>  <oscillator_strength_4>
0.0

>  <open_babel_can_smiles>
Cc1ccc([nH]1)C=O

>  <mulliken_charges>
15
1   -0.533159
2   -0.224887
3   -0.194005
4   0.183444
5   0.362994
6   0.272914
7   -0.647136
8   -0.456946
9   0.174586
10   0.171171
11   0.170707
12   0.131141
13   0.140808
14   0.104358
15   0.34401

>  <lowdin_charges>
15
1   -0.445503
2   -0.222529
3   -0.178629
4   0.027331
5   0.039176
6   -0.044079
7   -0.15561
8   -0.275051
9   0.171331
10   0.166373
11   0.166066
12   0.161808
13   0.168121
14   0.122532
15   0.298665

$$$$

