PCCDB-ID:  22375
public computational chemistry database (PCCDB) project, http://pccdb.org

 27 28  0  0  0  0  0  0  0  0999 V2000
    0.9902   -0.2070    0.1444 C   0  0  0  0  0  0  0  0  0  0  0  0
    7.0307    0.6743   -0.0430 C   0  0  0  0  0  0  0  0  0  0  0  0
    4.0358    4.5295    0.3161 C   0  0  0  0  0  0  0  0  0  0  0  0
    3.2672   -1.2843   -0.0649 C   0  0  0  0  0  0  0  0  0  0  0  0
    4.3321    5.1628    1.6916 C   0  0  0  0  0  0  0  0  0  0  0  0
    3.2829    0.8924    0.1238 C   0  0  0  0  0  0  0  0  0  0  0  0
    4.5613    0.3812    0.0150 C   0  0  0  0  0  0  0  0  0  0  0  0
    2.9876    2.2882    0.2395 C   0  0  0  0  0  0  0  0  0  0  0  0
    5.4961    2.5664    0.1782 C   0  0  0  0  0  0  0  0  0  0  0  0
    4.5598   -0.9705   -0.1014 N   0  0  0  0  0  0  0  0  0  0  0  0
    2.4471   -0.2123    0.0664 N   0  0  0  0  0  0  0  0  0  0  0  0
    5.6670    1.2061    0.0348 N   0  0  0  0  0  0  0  0  0  0  0  0
    4.1912    3.0628    0.2672 N   0  0  0  0  0  0  0  0  0  0  0  0
    3.4998    5.7948    2.2946 O   0  0  0  0  0  0  0  0  0  0  0  0
    5.5822    5.0018    2.1547 O   0  0  0  0  0  0  0  0  0  0  0  0
    1.8802    2.8041    0.2966 O   0  0  0  0  0  0  0  0  0  0  0  0
    6.4737    3.3235    0.2249 O   0  0  0  0  0  0  0  0  0  0  0  0
    0.6378   -1.2367    0.0578 H   0  0  0  0  0  0  0  0  0  0  0  0
    0.5731    0.3972   -0.6637 H   0  0  0  0  0  0  0  0  0  0  0  0
    0.6660    0.2160    1.0977 H   0  0  0  0  0  0  0  0  0  0  0  0
    6.9547   -0.4066   -0.1533 H   0  0  0  0  0  0  0  0  0  0  0  0
    7.5824    0.9252    0.8662 H   0  0  0  0  0  0  0  0  0  0  0  0
    7.5508    1.1074   -0.9002 H   0  0  0  0  0  0  0  0  0  0  0  0
    4.6991    4.9666   -0.4366 H   0  0  0  0  0  0  0  0  0  0  0  0
    2.9968    4.7417    0.0769 H   0  0  0  0  0  0  0  0  0  0  0  0
    2.8789   -2.2919   -0.1330 H   0  0  0  0  0  0  0  0  0  0  0  0
    6.1151    4.4913    1.4985 H   0  0  0  0  0  0  0  0  0  0  0  0
  1 20  1  0  0  0  0
  2 12  1  0  0  0  0
  2 22  1  0  0  0  0
  3  5  1  0  0  0  0
  4 11  1  0  0  0  0
  5 15  1  0  0  0  0
  5 14  2  0  0  0  0
  6  8  1  0  0  0  0
  7 12  1  0  0  0  0
  7  6  2  0  0  0  0
  8 13  1  0  0  0  0
  8 16  2  0  0  0  0
  9 17  2  0  0  0  0
  9 13  1  0  0  0  0
 10  4  2  0  0  0  0
 10  7  1  0  0  0  0
 11  6  1  0  0  0  0
 11  1  1  0  0  0  0
 12  9  1  0  0  0  0
 13  3  1  0  0  0  0
 18  1  1  0  0  0  0
 19  1  1  0  0  0  0
 21  2  1  0  0  0  0
 23  2  1  0  0  0  0
 24  3  1  0  0  0  0
 25  3  1  0  0  0  0
 26  4  1  0  0  0  0
 27 15  1  0  0  0  0
M  END
>  <HBA>
8

>  <HBD>
1

>  <TPSA>
99.12

>  <cid>
22375

>  <dipole>
8.02

>  <excitation_energy_1>
4.719

>  <excitation_energy_2>
4.981

>  <excitation_energy_3>
5.043

>  <excitation_energy_4>
5.427

>  <homo_energy>
-6.558

>  <homo_lumo_gap>
5.222

>  <logP>
-1.482

>  <lumo_energy>
-1.336

>  <melting_point>
220.04

>  <molecular_refractivity>
58.62

>  <oscillator_strength_1>
0.1246

>  <oscillator_strength_2>
0.0001

>  <oscillator_strength_3>
0.0405

>  <oscillator_strength_4>
0.0088

>  <open_babel_can_smiles>
OC(=O)Cn1c(=O)n(C)c2c(c1=O)n(C)cn2

>  <mulliken_charges>
27
1   -0.319624
2   -0.325505
3   -0.27058
4   0.224943
5   0.590916
6   0.224798
7   0.475724
8   0.644326
9   0.810602
10   -0.507244
11   -0.486675
12   -0.584472
13   -0.578491
14   -0.435943
15   -0.58503
16   -0.515701
17   -0.571578
18   0.171774
19   0.204182
20   0.204911
21   0.205956
22   0.189102
23   0.188797
24   0.196212
25   0.224761
26   0.177702
27   0.44614

>  <lowdin_charges>
27
1   -0.338609
2   -0.340299
3   -0.235283
4   -0.055851
5   0.1852
6   -0.075958
7   0.063807
8   0.163903
9   0.200558
10   -0.198538
11   0.01626
12   -0.043382
13   -0.089818
14   -0.239937
15   -0.365832
16   -0.284631
17   -0.340998
18   0.167148
19   0.181872
20   0.18095
21   0.18323
22   0.172924
23   0.173445
24   0.179376
25   0.198388
26   0.177905
27   0.36417

$$$$

