PCCDB-ID:  44428
public computational chemistry database (PCCDB) project, http://pccdb.org

 29 28  0  0  0  0  0  0  0  0999 V2000
    2.6482   -0.9645   -0.8943 C   0  0  0  0  0  0  0  0  0  0  0  0
    0.8583    2.5260    1.0396 C   0  0  0  0  0  0  0  0  0  0  0  0
    6.7704   -0.8041    3.8346 C   0  0  0  0  0  0  0  0  0  0  0  0
    2.2318   -0.2317    0.3830 C   0  0  0  0  0  0  0  0  0  0  0  0
    2.1755    1.9199    1.5346 C   0  0  0  0  0  0  0  0  0  0  0  0
    4.9268    0.4449    1.8670 C   0  0  0  0  0  0  0  0  0  0  0  0
    4.2988    1.1021    0.6205 C   0  0  0  0  0  0  0  0  0  0  0  0
    7.1326    0.0493    2.6359 C   0  0  0  0  0  0  0  0  0  0  0  0
    6.3741    0.5941    1.7840 N   0  0  0  0  0  0  0  0  0  0  0  0
    2.8395    1.0928    0.5233 N   0  0  0  0  0  0  0  0  0  0  0  0
    8.4795    0.2514    2.4744 O   0  0  0  0  0  0  0  0  0  0  0  0
    2.0560   -1.8792   -1.0115 H   0  0  0  0  0  0  0  0  0  0  0  0
    3.7035   -1.2569   -0.8835 H   0  0  0  0  0  0  0  0  0  0  0  0
    2.4815   -0.3275   -1.7694 H   0  0  0  0  0  0  0  0  0  0  0  0
    0.4273    3.1794    1.8076 H   0  0  0  0  0  0  0  0  0  0  0  0
    0.1115    1.7593    0.8059 H   0  0  0  0  0  0  0  0  0  0  0  0
    1.0297    3.1160    0.1334 H   0  0  0  0  0  0  0  0  0  0  0  0
    5.6938   -0.9615    3.9121 H   0  0  0  0  0  0  0  0  0  0  0  0
    7.1136   -0.3255    4.7609 H   0  0  0  0  0  0  0  0  0  0  0  0
    7.2562   -1.7861    3.7684 H   0  0  0  0  0  0  0  0  0  0  0  0
    2.4264   -0.8808    1.2603 H   0  0  0  0  0  0  0  0  0  0  0  0
    1.1462   -0.0890    0.3545 H   0  0  0  0  0  0  0  0  0  0  0  0
    1.9924    1.3659    2.4762 H   0  0  0  0  0  0  0  0  0  0  0  0
    2.8574    2.7395    1.7900 H   0  0  0  0  0  0  0  0  0  0  0  0
    4.6296   -0.6141    1.9192 H   0  0  0  0  0  0  0  0  0  0  0  0
    4.5330    0.9285    2.7745 H   0  0  0  0  0  0  0  0  0  0  0  0
    4.7208    0.6193   -0.2670 H   0  0  0  0  0  0  0  0  0  0  0  0
    4.6362    2.1445    0.5834 H   0  0  0  0  0  0  0  0  0  0  0  0
    8.9574   -0.2109    3.1797 H   0  0  0  0  0  0  0  0  0  0  0  0
  1 13  1  0  0  0  0
  1  4  1  0  0  0  0
  2  5  1  0  0  0  0
  2 15  1  0  0  0  0
  3 18  1  0  0  0  0
  3 19  1  0  0  0  0
  4 10  1  0  0  0  0
  4 21  1  0  0  0  0
  5 24  1  0  0  0  0
  5 23  1  0  0  0  0
  6 25  1  0  0  0  0
  6 26  1  0  0  0  0
  7  6  1  0  0  0  0
  8  3  1  0  0  0  0
  9  6  1  0  0  0  0
  9  8  2  0  0  0  0
 10  7  1  0  0  0  0
 10  5  1  0  0  0  0
 11  8  1  0  0  0  0
 11 29  1  0  0  0  0
 12  1  1  0  0  0  0
 14  1  1  0  0  0  0
 16  2  1  0  0  0  0
 17  2  1  0  0  0  0
 20  3  1  0  0  0  0
 22  4  1  0  0  0  0
 27  7  1  0  0  0  0
 28  7  1  0  0  0  0
M  END
>  <HBA>
3

>  <HBD>
1

>  <TPSA>
32.34

>  <cid>
44428

>  <dipole>
4.1

>  <excitation_energy_1>
4.668

>  <excitation_energy_2>
4.954

>  <excitation_energy_3>
5.051

>  <excitation_energy_4>
5.351

>  <homo_energy>
-5.279

>  <homo_lumo_gap>
5.861

>  <logP>
0.855

>  <lumo_energy>
0.582

>  <melting_point>
23.32

>  <molecular_refractivity>
46.47

>  <oscillator_strength_1>
0.0042

>  <oscillator_strength_2>
0.0024

>  <oscillator_strength_3>
0.0135

>  <oscillator_strength_4>
0.0166

>  <open_babel_can_smiles>
CCN(CC/N=C(/O)\C)CC

>  <mulliken_charges>
29
1   -0.453559
2   -0.438964
3   -0.563842
4   -0.112079
5   -0.116505
6   -0.157795
7   -0.146236
8   0.499882
9   -0.417989
10   -0.377011
11   -0.579987
12   0.138792
13   0.149559
14   0.156879
15   0.135497
16   0.143927
17   0.154167
18   0.184075
19   0.17452
20   0.171684
21   0.105265
22   0.137124
23   0.108323
24   0.136798
25   0.131357
26   0.135143
27   0.150244
28   0.148378
29   0.402352

>  <lowdin_charges>
29
1   -0.449964
2   -0.4523
3   -0.48388
4   -0.196686
5   -0.197463
6   -0.219136
7   -0.210977
8   0.132724
9   -0.207896
10   -0.190669
11   -0.375344
12   0.150969
13   0.147754
14   0.155894
15   0.149201
16   0.147282
17   0.15426
18   0.173097
19   0.169546
20   0.167335
21   0.112078
22   0.141872
23   0.115636
24   0.145781
25   0.131323
26   0.137004
27   0.150626
28   0.148245
29   0.353689

$$$$

