PCCDB-ID:  32414
public computational chemistry database (PCCDB) project, http://pccdb.org

 36 37  0  0  0  0  0  0  0  0999 V2000
    7.5647    0.1440    3.6931 C   0  0  0  0  0  0  0  0  0  0  0  0
    6.1933   -0.2684    3.1805 C   0  0  0  0  0  0  0  0  0  0  0  0
   10.6712   -1.2076   -0.8783 C   0  0  0  0  0  0  0  0  0  0  0  0
    9.7829   -2.2811   -0.8479 C   0  0  0  0  0  0  0  0  0  0  0  0
   10.1689    0.0924   -0.8013 C   0  0  0  0  0  0  0  0  0  0  0  0
    8.4072   -2.0589   -0.7510 C   0  0  0  0  0  0  0  0  0  0  0  0
    8.7951    0.3106   -0.7084 C   0  0  0  0  0  0  0  0  0  0  0  0
    5.8913    0.5746   -1.6122 C   0  0  0  0  0  0  0  0  0  0  0  0
    5.4544   -1.7049   -0.6641 C   0  0  0  0  0  0  0  0  0  0  0  0
    5.7839   -0.0409   -3.0088 C   0  0  0  0  0  0  0  0  0  0  0  0
    5.3206   -2.2314   -2.0996 C   0  0  0  0  0  0  0  0  0  0  0  0
    7.8844   -0.7597   -0.6946 C   0  0  0  0  0  0  0  0  0  0  0  0
    6.2183    0.1778    0.8392 C   0  0  0  0  0  0  0  0  0  0  0  0
    6.3730   -0.4571   -0.5549 C   0  0  0  0  0  0  0  0  0  0  0  0
    4.8419   -1.1622   -2.9769 N   0  0  0  0  0  0  0  0  0  0  0  0
    6.0982    1.3677    1.0464 O   0  0  0  0  0  0  0  0  0  0  0  0
    6.2638   -0.7526    1.8173 O   0  0  0  0  0  0  0  0  0  0  0  0
    7.4924    0.4450    4.7447 H   0  0  0  0  0  0  0  0  0  0  0  0
    7.9507    0.9912    3.1193 H   0  0  0  0  0  0  0  0  0  0  0  0
    8.2749   -0.6857    3.6190 H   0  0  0  0  0  0  0  0  0  0  0  0
    5.4875    0.5646    3.2222 H   0  0  0  0  0  0  0  0  0  0  0  0
    5.7917   -1.1139    3.7447 H   0  0  0  0  0  0  0  0  0  0  0  0
   11.7414   -1.3808   -0.9534 H   0  0  0  0  0  0  0  0  0  0  0  0
   10.1568   -3.3007   -0.8963 H   0  0  0  0  0  0  0  0  0  0  0  0
   10.8470    0.9418   -0.8084 H   0  0  0  0  0  0  0  0  0  0  0  0
    7.7462   -2.9172   -0.7182 H   0  0  0  0  0  0  0  0  0  0  0  0
    8.4275    1.3290   -0.6247 H   0  0  0  0  0  0  0  0  0  0  0  0
    4.9013    0.9344   -1.3127 H   0  0  0  0  0  0  0  0  0  0  0  0
    6.5497    1.4460   -1.6319 H   0  0  0  0  0  0  0  0  0  0  0  0
    5.7900   -2.4980    0.0093 H   0  0  0  0  0  0  0  0  0  0  0  0
    4.4537   -1.4103   -0.3259 H   0  0  0  0  0  0  0  0  0  0  0  0
    6.7906   -0.3355   -3.3627 H   0  0  0  0  0  0  0  0  0  0  0  0
    5.4013    0.7129   -3.7065 H   0  0  0  0  0  0  0  0  0  0  0  0
    4.5871   -3.0467   -2.1112 H   0  0  0  0  0  0  0  0  0  0  0  0
    6.2837   -2.6544   -2.4389 H   0  0  0  0  0  0  0  0  0  0  0  0
    4.7130   -1.5283   -3.9180 H   0  0  0  0  0  0  0  0  0  0  0  0
  1 18  1  0  0  0  0
  2 21  1  0  0  0  0
  2  1  1  0  0  0  0
  2 22  1  0  0  0  0
  3  4  2  0  0  0  0
  3  5  1  0  0  0  0
  4  6  1  0  0  0  0
  5  7  2  0  0  0  0
  6 26  1  0  0  0  0
  6 12  2  0  0  0  0
  7 12  1  0  0  0  0
  7 27  1  0  0  0  0
  8 28  1  0  0  0  0
  8 14  1  0  0  0  0
  9 14  1  0  0  0  0
  9 31  1  0  0  0  0
  9 30  1  0  0  0  0
 10 15  1  0  0  0  0
 10  8  1  0  0  0  0
 11  9  1  0  0  0  0
 12 14  1  0  0  0  0
 13 16  2  0  0  0  0
 13 17  1  0  0  0  0
 14 13  1  0  0  0  0
 15 11  1  0  0  0  0
 17  2  1  0  0  0  0
 19  1  1  0  0  0  0
 20  1  1  0  0  0  0
 23  3  1  0  0  0  0
 24  4  1  0  0  0  0
 25  5  1  0  0  0  0
 29  8  1  0  0  0  0
 32 10  1  0  0  0  0
 33 10  1  0  0  0  0
 34 11  1  0  0  0  0
 35 11  1  0  0  0  0
 36 15  1  0  0  0  0
M  END
>  <HBA>
3

>  <HBD>
1

>  <TPSA>
38.33

>  <cid>
32414

>  <dipole>
2.13

>  <excitation_energy_1>
4.843

>  <excitation_energy_2>
5.07

>  <excitation_energy_3>
5.257

>  <excitation_energy_4>
5.318

>  <homo_energy>
-5.872

>  <homo_lumo_gap>
5.614

>  <logP>
2.2

>  <lumo_energy>
-0.259

>  <melting_point>
71.65

>  <molecular_refractivity>
70.83

>  <oscillator_strength_1>
0.0055

>  <oscillator_strength_2>
0.0007

>  <oscillator_strength_3>
0.0029

>  <oscillator_strength_4>
0.0135

>  <open_babel_can_smiles>
CCOC(=O)C1(CCNCC1)c1ccccc1

>  <mulliken_charges>
36
1   -0.461444
2   -0.045869
3   -0.127906
4   -0.134429
5   -0.13033
6   -0.180652
7   -0.186236
8   -0.250222
9   -0.279415
10   -0.143602
11   -0.140796
12   0.149462
13   0.653686
14   -0.101046
15   -0.546927
16   -0.495937
17   -0.46945
18   0.148276
19   0.176986
20   0.160749
21   0.170093
22   0.15107
23   0.128868
24   0.128635
25   0.130592
26   0.128908
27   0.150062
28   0.153096
29   0.149304
30   0.154711
31   0.149549
32   0.120637
33   0.137688
34   0.137601
35   0.119327
36   0.294961

>  <lowdin_charges>
36
1   -0.454497
2   -0.127793
3   -0.156075
4   -0.155552
5   -0.155843
6   -0.168069
7   -0.163835
8   -0.273441
9   -0.282007
10   -0.207463
11   -0.209593
12   -0.002159
13   0.196747
14   -0.015514
15   -0.36777
16   -0.269537
17   -0.187626
18   0.156694
19   0.166765
20   0.1585
21   0.15895
22   0.152687
23   0.155711
24   0.156226
25   0.158857
26   0.159774
27   0.164358
28   0.15599
29   0.155575
30   0.156075
31   0.154799
32   0.120299
33   0.148182
34   0.146878
35   0.120593
36   0.253113

$$$$

