PCCDB-ID:  29851
public computational chemistry database (PCCDB) project, http://pccdb.org

 30 30  0  0  0  0  0  0  0  0999 V2000
    1.3986   -1.9756   -0.5871 C   0  0  0  0  0  0  0  0  0  0  0  0
    2.9399    2.0440   -0.2253 C   0  0  0  0  0  0  0  0  0  0  0  0
    4.1958   -1.8900    2.5860 C   0  0  0  0  0  0  0  0  0  0  0  0
    3.2988   -1.9529    1.5168 C   0  0  0  0  0  0  0  0  0  0  0  0
    4.0158    0.5022    2.6007 C   0  0  0  0  0  0  0  0  0  0  0  0
    5.5081   -0.5908    4.3292 C   0  0  0  0  0  0  0  0  0  0  0  0
    4.5632   -0.6651    3.1484 C   0  0  0  0  0  0  0  0  0  0  0  0
    2.7430   -0.7839    0.9875 C   0  0  0  0  0  0  0  0  0  0  0  0
    3.1177    0.4611    1.5379 C   0  0  0  0  0  0  0  0  0  0  0  0
    7.6172   -1.5592    5.1300 C   0  0  0  0  0  0  0  0  0  0  0  0
    7.3461   -1.1466    6.3148 N   0  0  0  0  0  0  0  0  0  0  0  0
    8.7990   -2.1848    4.6913 N   0  0  0  0  0  0  0  0  0  0  0  0
    6.7111   -1.3877    4.0907 N   0  0  0  0  0  0  0  0  0  0  0  0
    1.8412   -0.7444   -0.0398 O   0  0  0  0  0  0  0  0  0  0  0  0
    2.5680    1.6402    1.0935 O   0  0  0  0  0  0  0  0  0  0  0  0
    0.6758   -1.7152   -1.3625 H   0  0  0  0  0  0  0  0  0  0  0  0
    0.9084   -2.5999    0.1713 H   0  0  0  0  0  0  0  0  0  0  0  0
    2.2260   -2.5407   -1.0373 H   0  0  0  0  0  0  0  0  0  0  0  0
    2.5911    1.3306   -0.9782 H   0  0  0  0  0  0  0  0  0  0  0  0
    4.0295    2.1596   -0.3063 H   0  0  0  0  0  0  0  0  0  0  0  0
    2.4623    3.0128   -0.3898 H   0  0  0  0  0  0  0  0  0  0  0  0
    4.6162   -2.8088    2.9849 H   0  0  0  0  0  0  0  0  0  0  0  0
    3.0267   -2.9205    1.1097 H   0  0  0  0  0  0  0  0  0  0  0  0
    4.2729    1.4783    3.0033 H   0  0  0  0  0  0  0  0  0  0  0  0
    5.0423   -0.9884    5.2367 H   0  0  0  0  0  0  0  0  0  0  0  0
    5.7543    0.4575    4.5525 H   0  0  0  0  0  0  0  0  0  0  0  0
    8.0596   -1.4522    6.9791 H   0  0  0  0  0  0  0  0  0  0  0  0
    9.3945   -2.4943    5.4501 H   0  0  0  0  0  0  0  0  0  0  0  0
    8.6400   -2.9340    4.0248 H   0  0  0  0  0  0  0  0  0  0  0  0
    7.1492   -1.2043    3.1946 H   0  0  0  0  0  0  0  0  0  0  0  0
  1 14  1  0  0  0  0
  1 17  1  0  0  0  0
  2 15  1  0  0  0  0
  3 22  1  0  0  0  0
  3  7  2  0  0  0  0
  4  3  1  0  0  0  0
  5 24  1  0  0  0  0
  5  7  1  0  0  0  0
  6 26  1  0  0  0  0
  6 25  1  0  0  0  0
  7  6  1  0  0  0  0
  8  4  2  0  0  0  0
  8  9  1  0  0  0  0
  9  5  2  0  0  0  0
 10 11  1  0  0  0  0
 11 27  1  0  0  0  0
 12 10  2  0  0  0  0
 12 28  1  0  0  0  0
 13  6  1  0  0  0  0
 13 10  1  0  0  0  0
 14  8  1  0  0  0  0
 15  9  1  0  0  0  0
 16  1  1  0  0  0  0
 18  1  1  0  0  0  0
 19  2  1  0  0  0  0
 20  2  1  0  0  0  0
 21  2  1  0  0  0  0
 23  4  1  0  0  0  0
 29 12  1  0  0  0  0
 30 13  1  0  0  0  0
M  RAD  1  11   2
M  END
>  <HBA>
5

>  <HBD>
2

>  <TPSA>
82.86

>  <cid>
29851

>  <dipole>
4.76

>  <excitation_energy_1>
4.899

>  <excitation_energy_2>
5.101

>  <excitation_energy_3>
5.285

>  <excitation_energy_4>
5.333

>  <homo_energy>
-5.638

>  <homo_lumo_gap>
5.791

>  <logP>
1.878

>  <lumo_energy>
0.152

>  <melting_point>
145.07

>  <molecular_refractivity>
58.3

>  <oscillator_strength_1>
0.0395

>  <oscillator_strength_2>
0.0234

>  <oscillator_strength_3>
0.0021

>  <oscillator_strength_4>
0.0453

>  <open_babel_can_smiles>
COc1cc(CNC(=[NH2])[NH])ccc1OC

>  <mulliken_charges>
30
1   -0.214712
2   -0.209498
3   -0.176513
4   -0.206127
5   -0.243431
6   -0.176736
7   0.125468
8   0.346617
9   0.317197
10   0.588334
11   -0.644694
12   -0.756527
13   -0.605744
14   -0.508363
15   -0.520995
16   0.17007
17   0.155286
18   0.14998
19   0.16134
20   0.135939
21   0.157611
22   0.131688
23   0.131661
24   0.134159
25   0.187906
26   0.15077
27   0.263233
28   0.317624
29   0.320635
30   0.317822

>  <lowdin_charges>
30
1   -0.280434
2   -0.273665
3   -0.164128
4   -0.209669
5   -0.180231
6   -0.183756
7   -0.028841
8   0.076935
9   0.069757
10   0.120916
11   -0.477563
12   -0.515509
13   -0.309366
14   -0.195989
15   -0.223821
16   0.163595
17   0.148641
18   0.144967
19   0.14999
20   0.13471
21   0.155148
22   0.16115
23   0.161725
24   0.16531
25   0.173139
26   0.143084
27   0.246907
28   0.27552
29   0.277248
30   0.274231

$$$$

