PCCDB-ID:  69464
public computational chemistry database (PCCDB) project, http://pccdb.org

 16 16  0  0  0  0  0  0  0  0999 V2000
   -0.7512    1.1564   -0.0532 C   0  0  0  0  0  0  0  0  0  0  0  0
    0.7568   -1.1560   -0.0543 C   0  0  0  0  0  0  0  0  0  0  0  0
   -1.4024   -0.0795   -0.0532 C   0  0  0  0  0  0  0  0  0  0  0  0
    0.6424    1.2539   -0.0541 C   0  0  0  0  0  0  0  0  0  0  0  0
   -0.6368   -1.2535   -0.0545 C   0  0  0  0  0  0  0  0  0  0  0  0
    1.4080    0.0799   -0.0538 C   0  0  0  0  0  0  0  0  0  0  0  0
   -2.7672   -0.2107   -0.0522 O   0  0  0  0  0  0  0  0  0  0  0  0
    1.3125    2.4501   -0.0552 O   0  0  0  0  0  0  0  0  0  0  0  0
   -1.3069   -2.4497   -0.0562 O   0  0  0  0  0  0  0  0  0  0  0  0
    2.7728    0.2111   -0.0533 O   0  0  0  0  0  0  0  0  0  0  0  0
   -1.3466    2.0695   -0.0536 H   0  0  0  0  0  0  0  0  0  0  0  0
    1.3522   -2.0691   -0.0559 H   0  0  0  0  0  0  0  0  0  0  0  0
   -3.1613    0.6746   -0.0528 H   0  0  0  0  0  0  0  0  0  0  0  0
    0.6609    3.1674   -0.0564 H   0  0  0  0  0  0  0  0  0  0  0  0
   -0.6553   -3.1669   -0.0576 H   0  0  0  0  0  0  0  0  0  0  0  0
    3.1669   -0.6742   -0.0540 H   0  0  0  0  0  0  0  0  0  0  0  0
  2  6  1  0  0  0  0
  3  1  2  0  0  0  0
  3  7  1  0  0  0  0
  4  6  2  0  0  0  0
  4  1  1  0  0  0  0
  5  2  2  0  0  0  0
  5  3  1  0  0  0  0
  6 10  1  0  0  0  0
  8  4  1  0  0  0  0
  9  5  1  0  0  0  0
 11  1  1  0  0  0  0
 12  2  1  0  0  0  0
 13  7  1  0  0  0  0
 14  8  1  0  0  0  0
 15  9  1  0  0  0  0
 16 10  1  0  0  0  0
M  END
>  <HBA>
4

>  <HBD>
4

>  <TPSA>
80.92

>  <cid>
69464

>  <dipole>
0.01

>  <excitation_energy_1>
4.249

>  <excitation_energy_2>
4.281

>  <excitation_energy_3>
4.374

>  <excitation_energy_4>
4.402

>  <homo_energy>
-4.887

>  <homo_lumo_gap>
5.167

>  <logP>
0.509

>  <lumo_energy>
0.28

>  <melting_point>
166.21

>  <molecular_refractivity>
34.53

>  <oscillator_strength_1>
0.0

>  <oscillator_strength_2>
0.0

>  <oscillator_strength_3>
0.0003

>  <oscillator_strength_4>
0.1051

>  <open_babel_can_smiles>
Oc1cc(O)c(cc1O)O

>  <mulliken_charges>
16
1   -0.280694
2   -0.280753
3   0.322589
4   0.322505
5   0.322589
6   0.322647
7   -0.641212
8   -0.641101
9   -0.641111
10   -0.641223
11   0.107882
12   0.107896
13   0.405011
14   0.404985
15   0.404983
16   0.405008

>  <lowdin_charges>
16
1   -0.251649
2   -0.251655
3   0.071219
4   0.069714
5   0.069715
6   0.071227
7   -0.376351
8   -0.376738
9   -0.37673
10   -0.376356
11   0.15095
12   0.15095
13   0.355563
14   0.357289
15   0.357289
16   0.355563

$$$$

