PCCDB-ID:  68121
public computational chemistry database (PCCDB) project, http://pccdb.org

 22 23  0  0  0  0  0  0  0  0999 V2000
    2.4997   -0.7723    0.0212 C   0  0  0  0  0  0  0  0  0  0  0  0
    2.5582    0.5594    0.0202 C   0  0  0  0  0  0  0  0  0  0  0  0
   -2.5626   -0.5494   -0.0032 C   0  0  0  0  0  0  0  0  0  0  0  0
   -2.5040    0.7824   -0.0036 C   0  0  0  0  0  0  0  0  0  0  0  0
    1.2049   -1.5353    0.0108 C   0  0  0  0  0  0  0  0  0  0  0  0
    1.3356    1.4332    0.0086 C   0  0  0  0  0  0  0  0  0  0  0  0
   -1.3399   -1.4231    0.0016 C   0  0  0  0  0  0  0  0  0  0  0  0
   -1.2092    1.5452    0.0042 C   0  0  0  0  0  0  0  0  0  0  0  0
   -0.0316   -0.6650    0.0067 C   0  0  0  0  0  0  0  0  0  0  0  0
    0.0273    0.6750    0.0059 C   0  0  0  0  0  0  0  0  0  0  0  0
    3.4169   -1.3594    0.0291 H   0  0  0  0  0  0  0  0  0  0  0  0
    3.5235    1.0636    0.0273 H   0  0  0  0  0  0  0  0  0  0  0  0
   -3.5278   -1.0536   -0.0078 H   0  0  0  0  0  0  0  0  0  0  0  0
   -3.4212    1.3694   -0.0086 H   0  0  0  0  0  0  0  0  0  0  0  0
    1.1682   -2.2172    0.8786 H   0  0  0  0  0  0  0  0  0  0  0  0
    1.1786   -2.2118   -0.8616 H   0  0  0  0  0  0  0  0  0  0  0  0
    1.3687    2.1072   -0.8655 H   0  0  0  0  0  0  0  0  0  0  0  0
    1.3593    2.1180    0.8745 H   0  0  0  0  0  0  0  0  0  0  0  0
   -1.3647   -2.1018   -0.8692 H   0  0  0  0  0  0  0  0  0  0  0  0
   -1.3716   -2.1034    0.8708 H   0  0  0  0  0  0  0  0  0  0  0  0
   -1.1811    2.2207    0.8774 H   0  0  0  0  0  0  0  0  0  0  0  0
   -1.1743    2.2285   -0.8625 H   0  0  0  0  0  0  0  0  0  0  0  0
  1 11  1  0  0  0  0
  2  1  2  0  0  0  0
  2 12  1  0  0  0  0
  3  7  1  0  0  0  0
  4  3  2  0  0  0  0
  4  8  1  0  0  0  0
  5  1  1  0  0  0  0
  5 15  1  0  0  0  0
  6  2  1  0  0  0  0
  6 18  1  0  0  0  0
  7  9  1  0  0  0  0
  7 20  1  0  0  0  0
  8 10  1  0  0  0  0
  8 21  1  0  0  0  0
  9  5  1  0  0  0  0
 10  9  2  0  0  0  0
 10  6  1  0  0  0  0
 13  3  1  0  0  0  0
 14  4  1  0  0  0  0
 16  5  1  0  0  0  0
 17  6  1  0  0  0  0
 19  7  1  0  0  0  0
 22  8  1  0  0  0  0
M  END
>  <HBA>
0

>  <HBD>
0

>  <TPSA>
0.0

>  <cid>
68121

>  <dipole>
0.0

>  <excitation_energy_1>
5.486

>  <excitation_energy_2>
5.518

>  <excitation_energy_3>
5.826

>  <excitation_energy_4>
5.929

>  <homo_energy>
-5.902

>  <homo_lumo_gap>
6.604

>  <logP>
2.983

>  <lumo_energy>
0.702

>  <melting_point>
52.15

>  <molecular_refractivity>
44.53

>  <oscillator_strength_1>
0.0017

>  <oscillator_strength_2>
0.0009

>  <oscillator_strength_3>
0.0

>  <oscillator_strength_4>
0.0

>  <open_babel_can_smiles>
C1=CCC2=C(C1)CC=CC2

>  <mulliken_charges>
22
1   -0.09851
2   -0.098628
3   -0.098544
4   -0.098584
5   -0.369932
6   -0.370075
7   -0.370056
8   -0.369956
9   0.111981
10   0.112074
11   0.118001
12   0.117978
13   0.117972
14   0.118009
15   0.147148
16   0.147401
17   0.147467
18   0.147126
19   0.147343
20   0.147244
21   0.147451
22   0.14709

>  <lowdin_charges>
22
1   -0.170388
2   -0.169931
3   -0.169921
4   -0.170388
5   -0.269847
6   -0.269923
7   -0.269922
8   -0.269849
9   -0.029197
10   -0.029197
11   0.151856
12   0.151393
13   0.151391
14   0.151861
15   0.151468
16   0.151557
17   0.151582
18   0.151436
19   0.151535
20   0.151481
21   0.151581
22   0.151423

$$$$

