PCCDB-ID:  17737
public computational chemistry database (PCCDB) project, http://pccdb.org

 20 20  0  0  0  0  0  0  0  0999 V2000
    0.9376   -0.0832    0.0727 C   0  0  0  0  0  0  0  0  0  0  0  0
    5.3448    2.4269    0.0635 C   0  0  0  0  0  0  0  0  0  0  0  0
    3.1738    1.1102    0.0666 C   0  0  0  0  0  0  0  0  0  0  0  0
    3.1634   -1.2875    0.0614 C   0  0  0  0  0  0  0  0  0  0  0  0
    2.4490   -0.0807    0.0670 C   0  0  0  0  0  0  0  0  0  0  0  0
    4.5768    1.1248    0.0625 C   0  0  0  0  0  0  0  0  0  0  0  0
    4.5554   -1.3039    0.0574 C   0  0  0  0  0  0  0  0  0  0  0  0
    5.2692   -0.0911    0.0577 C   0  0  0  0  0  0  0  0  0  0  0  0
    5.2916   -2.4573    0.0524 O   0  0  0  0  0  0  0  0  0  0  0  0
    6.6367   -0.1795    0.0537 O   0  0  0  0  0  0  0  0  0  0  0  0
    0.5409    0.9370    0.0726 H   0  0  0  0  0  0  0  0  0  0  0  0
    0.5367   -0.5944    0.9574 H   0  0  0  0  0  0  0  0  0  0  0  0
    0.5300   -0.5971   -0.8073 H   0  0  0  0  0  0  0  0  0  0  0  0
    4.6614    3.2804    0.0636 H   0  0  0  0  0  0  0  0  0  0  0  0
    5.9877    2.5309   -0.8229 H   0  0  0  0  0  0  0  0  0  0  0  0
    5.9872    2.5295    0.9504 H   0  0  0  0  0  0  0  0  0  0  0  0
    2.6425    2.0593    0.0700 H   0  0  0  0  0  0  0  0  0  0  0  0
    2.6265   -2.2361    0.0606 H   0  0  0  0  0  0  0  0  0  0  0  0
    4.6781   -3.2080    0.0632 H   0  0  0  0  0  0  0  0  0  0  0  0
    7.0044    0.7166    0.0487 H   0  0  0  0  0  0  0  0  0  0  0  0
  1 12  1  0  0  0  0
  2 14  1  0  0  0  0
  2 16  1  0  0  0  0
  3  5  1  0  0  0  0
  3 17  1  0  0  0  0
  4  5  2  0  0  0  0
  5  1  1  0  0  0  0
  6  2  1  0  0  0  0
  6  3  2  0  0  0  0
  7  8  2  0  0  0  0
  7  4  1  0  0  0  0
  8  6  1  0  0  0  0
  9  7  1  0  0  0  0
  9 19  1  0  0  0  0
 10  8  1  0  0  0  0
 11  1  1  0  0  0  0
 13  1  1  0  0  0  0
 15  2  1  0  0  0  0
 18  4  1  0  0  0  0
 20 10  1  0  0  0  0
M  END
>  <HBA>
2

>  <HBD>
2

>  <TPSA>
40.46

>  <cid>
17737

>  <dipole>
1.48

>  <excitation_energy_1>
4.684

>  <excitation_energy_2>
4.799

>  <excitation_energy_3>
4.974

>  <excitation_energy_4>
5.406

>  <homo_energy>
-5.342

>  <homo_lumo_gap>
5.627

>  <logP>
1.715

>  <lumo_energy>
0.286

>  <melting_point>
93.94

>  <molecular_refractivity>
40.42

>  <oscillator_strength_1>
0.0011

>  <oscillator_strength_2>
0.0543

>  <oscillator_strength_3>
0.0005

>  <oscillator_strength_4>
0.0012

>  <open_babel_can_smiles>
Cc1cc(C)c(c(c1)O)O

>  <mulliken_charges>
20
1   -0.532892
2   -0.578798
3   -0.265357
4   -0.260291
5   0.190333
6   0.166519
7   0.333411
8   0.22753
9   -0.636233
10   -0.638599
11   0.153634
12   0.157396
13   0.157352
14   0.170161
15   0.160732
16   0.161354
17   0.109204
18   0.106507
19   0.405367
20   0.412672

>  <lowdin_charges>
20
1   -0.441222
2   -0.452749
3   -0.193554
4   -0.221166
5   -0.007617
6   -0.044971
7   0.08033
8   0.066073
9   -0.372566
10   -0.37609
11   0.1552
12   0.157669
13   0.15769
14   0.167468
15   0.155663
16   0.155988
17   0.150528
18   0.149182
19   0.357489
20   0.356655

$$$$

