PCCDB-ID:  29496
public computational chemistry database (PCCDB) project, http://pccdb.org

 35 37  0  0  1  0  0  0  0  0999 V2000
    0.6817    0.0952    0.0012 C   0  0  0  0  0  0  0  0  0  0  0  0
    8.7428    3.3810   -1.1987 C   0  0  0  0  0  0  0  0  0  0  0  0
    7.3322    3.5026   -1.2592 C   0  0  0  0  0  0  0  0  0  0  0  0
    4.0422   -1.4729   -1.2157 C   0  0  0  0  0  0  0  0  0  0  0  0
    2.5333   -1.3634   -0.9634 C   0  0  0  0  0  0  0  0  0  0  0  0
    9.3527    2.4595   -0.3630 C   0  0  0  0  0  0  0  0  0  0  0  0
    6.4917    2.7140   -0.4874 C   0  0  0  0  0  0  0  0  0  0  0  0
    4.8326   -1.1658    0.0572 C   0  0  0  0  0  0  0  0  0  0  0  0
    3.0426    0.2488    0.8990 C   0  0  0  0  0  0  0  0  0  0  0  0
    5.3049    0.5684    1.6910 C   0  0  0  0  0  0  0  0  0  0  0  0
    2.1719   -0.0043   -0.3413 C   0  0  2  0  0  0  0  0  0  0  0  0
    8.5174    1.6541    0.4284 C   0  0  0  0  0  0  0  0  0  0  0  0
    7.1160    1.7904    0.3646 C   0  0  0  0  0  0  0  0  0  0  0  0
    8.8239    0.6653    1.3425 N   0  0  0  0  0  0  0  0  0  0  0  0
    7.7201    0.2052    1.8311 N   0  0  0  0  0  0  0  0  0  0  0  0
    4.4708    0.1592    0.5781 N   0  0  0  0  0  0  0  0  0  0  0  0
    6.6625    0.8634    1.2632 N   0  0  0  0  0  0  0  0  0  0  0  0
    0.0645   -0.0624   -0.8907 H   0  0  0  0  0  0  0  0  0  0  0  0
    0.4279    1.0796    0.4129 H   0  0  0  0  0  0  0  0  0  0  0  0
    0.3937   -0.6616    0.7420 H   0  0  0  0  0  0  0  0  0  0  0  0
    9.3524    4.0245   -1.8265 H   0  0  0  0  0  0  0  0  0  0  0  0
    6.8976    4.2334   -1.9358 H   0  0  0  0  0  0  0  0  0  0  0  0
    4.3418   -0.7621   -1.9964 H   0  0  0  0  0  0  0  0  0  0  0  0
    4.3032   -2.4766   -1.5724 H   0  0  0  0  0  0  0  0  0  0  0  0
    2.2194   -2.1645   -0.2765 H   0  0  0  0  0  0  0  0  0  0  0  0
    1.9737   -1.5125   -1.8956 H   0  0  0  0  0  0  0  0  0  0  0  0
   10.4315    2.3527   -0.3123 H   0  0  0  0  0  0  0  0  0  0  0  0
    5.4121    2.7870   -0.5526 H   0  0  0  0  0  0  0  0  0  0  0  0
    5.9072   -1.1743   -0.1486 H   0  0  0  0  0  0  0  0  0  0  0  0
    4.6416   -1.9505    0.8172 H   0  0  0  0  0  0  0  0  0  0  0  0
    2.7581   -0.4725    1.6932 H   0  0  0  0  0  0  0  0  0  0  0  0
    2.8419    1.2532    1.2934 H   0  0  0  0  0  0  0  0  0  0  0  0
    5.4129   -0.1905    2.4836 H   0  0  0  0  0  0  0  0  0  0  0  0
    4.8673    1.4704    2.1350 H   0  0  0  0  0  0  0  0  0  0  0  0
    2.4196    0.7802   -1.0712 H   0  0  0  0  0  0  0  0  0  0  0  0
  1 19  1  0  0  0  0
  1 20  1  0  0  0  0
  2  6  1  0  0  0  0
  3  2  2  0  0  0  0
  3  7  1  0  0  0  0
  4  5  1  0  0  0  0
  4  8  1  0  0  0  0
  5 11  1  0  0  0  0
  5 25  1  0  0  0  0
  6 27  1  0  0  0  0
  6 12  2  0  0  0  0
  7 13  2  0  0  0  0
  8 16  1  0  0  0  0
  8 30  1  0  0  0  0
  9 32  1  0  0  0  0
  9 31  1  0  0  0  0
 10 34  1  0  0  0  0
 10 33  1  0  0  0  0
 11 35  1  6  0  0  0
 11  1  1  0  0  0  0
 11  9  1  0  0  0  0
 12 14  1  0  0  0  0
 13 12  1  0  0  0  0
 13 17  1  0  0  0  0
 14 15  2  0  0  0  0
 16  9  1  0  0  0  0
 16 10  1  0  0  0  0
 17 10  1  0  0  0  0
 17 15  1  0  0  0  0
 18  1  1  0  0  0  0
 21  2  1  0  0  0  0
 22  3  1  0  0  0  0
 23  4  1  0  0  0  0
 24  4  1  0  0  0  0
 26  5  1  0  0  0  0
 28  7  1  0  0  0  0
 29  8  1  0  0  0  0
M  END
>  <HBA>
4

>  <HBD>
0

>  <TPSA>
33.95

>  <cid>
29496

>  <dipole>
4.37

>  <excitation_energy_1>
4.436

>  <excitation_energy_2>
4.728

>  <excitation_energy_3>
4.953

>  <excitation_energy_4>
5.118

>  <homo_energy>
-6.289

>  <homo_lumo_gap>
5.276

>  <logP>
2.059

>  <lumo_energy>
-1.012

>  <melting_point>
103.06

>  <molecular_refractivity>
72.33

>  <oscillator_strength_1>
0.002

>  <oscillator_strength_2>
0.0836

>  <oscillator_strength_3>
0.0034

>  <oscillator_strength_4>
0.0946

>  <open_babel_can_smiles>
C[C@@H]1CCCN(C1)Cn1nnc2c1cccc2

>  <mulliken_charges>
35
1   -0.450539
2   -0.145294
3   -0.147272
4   -0.266238
5   -0.264341
6   -0.151953
7   -0.149429
8   -0.133374
9   -0.120099
10   0.005844
11   -0.078329
12   0.234421
13   0.367625
14   -0.366735
15   -0.050043
16   -0.406265
17   -0.407165
18   0.147446
19   0.142048
20   0.1435
21   0.133133
22   0.133948
23   0.144785
24   0.138464
25   0.12798
26   0.135581
27   0.149172
28   0.148274
29   0.164212
30   0.11684
31   0.113356
32   0.13617
33   0.16284
34   0.160319
35   0.131116

>  <lowdin_charges>
35
1   -0.444732
2   -0.168253
3   -0.15053
4   -0.279871
5   -0.280875
6   -0.143487
7   -0.172815
8   -0.202394
9   -0.201804
10   -0.125604
11   -0.129271
12   -0.015157
13   0.014523
14   -0.128412
15   -0.070706
16   -0.192356
17   0.009781
18   0.153376
19   0.148726
20   0.148781
21   0.162107
22   0.161693
23   0.148675
24   0.14928
25   0.139189
26   0.146217
27   0.169437
28   0.166969
29   0.155874
30   0.121217
31   0.118915
32   0.143726
33   0.150481
34   0.155513
35   0.141786

$$$$

