PCCDB-ID:  29180
public computational chemistry database (PCCDB) project, http://pccdb.org

 24 25  0  0  1  0  0  0  0  0999 V2000
    0.8673   -1.0459   -2.0999 C   0  0  0  0  0  0  0  0  0  0  0  0
    2.3769   -1.1962   -2.3178 C   0  0  0  0  0  0  0  0  0  0  0  0
    3.1763   -0.8441   -1.0520 C   0  0  0  0  0  0  0  0  0  0  0  0
    5.1759   -2.3855   -1.4585 C   0  0  0  0  0  0  0  0  0  0  0  0
    5.3025   -0.5631    0.2429 C   0  0  0  0  0  0  0  0  0  0  0  0
    5.3065    0.0044   -2.1876 C   0  0  0  0  0  0  0  0  0  0  0  0
    4.7134   -0.9511   -1.1316 C   0  0  2  0  0  0  0  0  0  0  0  0
    6.6150   -2.4870   -1.4707 O   0  0  0  0  0  0  0  0  0  0  0  0
    6.7411   -0.6351    0.2602 O   0  0  0  0  0  0  0  0  0  0  0  0
    6.7480   -0.0611   -2.2136 O   0  0  0  0  0  0  0  0  0  0  0  0
    7.4791   -1.1063   -1.1505 P   0  0  2  0  0  0  0  0  0  0  0  0
    0.3089   -1.3014   -3.0069 H   0  0  0  0  0  0  0  0  0  0  0  0
    0.6062   -0.0164   -1.8259 H   0  0  0  0  0  0  0  0  0  0  0  0
    0.5156   -1.7022   -1.2947 H   0  0  0  0  0  0  0  0  0  0  0  0
    2.6852   -0.5535   -3.1523 H   0  0  0  0  0  0  0  0  0  0  0  0
    2.5943   -2.2263   -2.6278 H   0  0  0  0  0  0  0  0  0  0  0  0
    2.8330   -1.4899   -0.2304 H   0  0  0  0  0  0  0  0  0  0  0  0
    2.9214    0.1825   -0.7500 H   0  0  0  0  0  0  0  0  0  0  0  0
    4.8165   -2.7014   -2.4443 H   0  0  0  0  0  0  0  0  0  0  0  0
    4.7938   -3.0912   -0.7090 H   0  0  0  0  0  0  0  0  0  0  0  0
    4.9223   -1.2368    1.0219 H   0  0  0  0  0  0  0  0  0  0  0  0
    5.0133    0.4631    0.5037 H   0  0  0  0  0  0  0  0  0  0  0  0
    5.0193    1.0413   -1.9686 H   0  0  0  0  0  0  0  0  0  0  0  0
    4.9498   -0.2473   -3.1928 H   0  0  0  0  0  0  0  0  0  0  0  0
  1 13  1  0  0  0  0
  1 14  1  0  0  0  0
  2  1  1  0  0  0  0
  2  3  1  0  0  0  0
  3 18  1  0  0  0  0
  3 17  1  0  0  0  0
  4  7  1  0  0  0  0
  4 20  1  0  0  0  0
  5  9  1  0  0  0  0
  5 22  1  0  0  0  0
  5 21  1  0  0  0  0
  6 23  1  0  0  0  0
  6  7  1  0  0  0  0
  7  3  1  1  0  0  0
  7  5  1  0  0  0  0
  8  4  1  0  0  0  0
  8 11  1  0  0  0  0
 10  6  1  0  0  0  0
 11 10  1  6  0  0  0
 11  9  1  0  0  0  0
 12  1  1  0  0  0  0
 15  2  1  0  0  0  0
 16  2  1  0  0  0  0
 19  4  1  0  0  0  0
 24  6  1  0  0  0  0
M  END
>  <HBA>
3

>  <HBD>
0

>  <TPSA>
41.28

>  <cid>
29180

>  <dipole>
4.63

>  <excitation_energy_1>
6.632

>  <excitation_energy_2>
6.89

>  <excitation_energy_3>
6.897

>  <excitation_energy_4>
6.962

>  <homo_energy>
-7.227

>  <homo_lumo_gap>
8.3

>  <logP>
2.077

>  <lumo_energy>
1.072

>  <melting_point>
5.52

>  <molecular_refractivity>
42.51

>  <oscillator_strength_1>
0.0004

>  <oscillator_strength_2>
0.0015

>  <oscillator_strength_3>
0.0017

>  <oscillator_strength_4>
0.0213

>  <open_babel_can_smiles>
CCC[C@]12COP(OC1)OC2

>  <mulliken_charges>
24
1   -0.444813
2   -0.267494
3   -0.264728
4   -0.005681
5   -0.006184
6   -0.005768
7   -0.110897
8   -0.57784
9   -0.574941
10   -0.577845
11   0.93328
12   0.151024
13   0.147136
14   0.147112
15   0.143796
16   0.143892
17   0.138539
18   0.138512
19   0.152251
20   0.146685
21   0.14748
22   0.147587
23   0.146711
24   0.152189

>  <lowdin_charges>
24
1   -0.443303
2   -0.277083
3   -0.27212
4   -0.129675
5   -0.128784
6   -0.126989
7   -0.053628
8   -0.421367
9   -0.420324
10   -0.420611
11   0.769748
12   0.154952
13   0.148388
14   0.150164
15   0.145229
16   0.143565
17   0.147541
18   0.14578
19   0.14919
20   0.14867
21   0.148733
22   0.146755
23   0.146346
24   0.148823

$$$$

