PCCDB-ID:  27460
public computational chemistry database (PCCDB) project, http://pccdb.org

 22 22  0  0  0  0  0  0  0  0999 V2000
    1.2692    0.3087   -0.4611 C   0  0  0  0  0  0  0  0  0  0  0  0
    4.1188   -5.2329   -2.1542 C   0  0  0  0  0  0  0  0  0  0  0  0
    2.1877   -4.8679    0.1199 C   0  0  0  0  0  0  0  0  0  0  0  0
    2.7384   -0.0447   -0.1760 C   0  0  0  0  0  0  0  0  0  0  0  0
    4.0141   -1.5994   -1.7439 C   0  0  0  0  0  0  0  0  0  0  0  0
    3.7575   -3.8681   -1.6273 C   0  0  0  0  0  0  0  0  0  0  0  0
    2.8463   -3.6943   -0.5587 C   0  0  0  0  0  0  0  0  0  0  0  0
    3.1159   -1.4129   -0.6916 C   0  0  0  0  0  0  0  0  0  0  0  0
    4.3344   -2.8115   -2.2104 N   0  0  0  0  0  0  0  0  0  0  0  0
    2.5375   -2.4755   -0.1052 N   0  0  0  0  0  0  0  0  0  0  0  0
    1.0165    1.2887   -0.0419 H   0  0  0  0  0  0  0  0  0  0  0  0
    0.6068   -0.4400   -0.0156 H   0  0  0  0  0  0  0  0  0  0  0  0
    1.0716    0.3385   -1.5388 H   0  0  0  0  0  0  0  0  0  0  0  0
    3.2346   -5.7747   -2.5140 H   0  0  0  0  0  0  0  0  0  0  0  0
    4.5791   -5.8572   -1.3775 H   0  0  0  0  0  0  0  0  0  0  0  0
    4.8248   -5.1255   -2.9804 H   0  0  0  0  0  0  0  0  0  0  0  0
    2.9294   -5.5503    0.5544 H   0  0  0  0  0  0  0  0  0  0  0  0
    1.5897   -5.4579   -0.5865 H   0  0  0  0  0  0  0  0  0  0  0  0
    1.5340   -4.5059    0.9161 H   0  0  0  0  0  0  0  0  0  0  0  0
    2.9083   -0.0226    0.9079 H   0  0  0  0  0  0  0  0  0  0  0  0
    3.4002    0.7084   -0.6206 H   0  0  0  0  0  0  0  0  0  0  0  0
    4.4933   -0.7487   -2.2262 H   0  0  0  0  0  0  0  0  0  0  0  0
  1  4  1  0  0  0  0
  1 11  1  0  0  0  0
  1 12  1  0  0  0  0
  2  6  1  0  0  0  0
  2 15  1  0  0  0  0
  3 17  1  0  0  0  0
  3 19  1  0  0  0  0
  4 20  1  0  0  0  0
  5  8  1  0  0  0  0
  6  7  2  0  0  0  0
  7 10  1  0  0  0  0
  7  3  1  0  0  0  0
  8  4  1  0  0  0  0
  8 10  2  0  0  0  0
  9  5  2  0  0  0  0
  9  6  1  0  0  0  0
 13  1  1  0  0  0  0
 14  2  1  0  0  0  0
 16  2  1  0  0  0  0
 18  3  1  0  0  0  0
 21  4  1  0  0  0  0
 22  5  1  0  0  0  0
M  END
>  <HBA>
2

>  <HBD>
0

>  <TPSA>
25.78

>  <cid>
27460

>  <dipole>
0.66

>  <excitation_energy_1>
4.103

>  <excitation_energy_2>
4.79

>  <excitation_energy_3>
5.02

>  <excitation_energy_4>
5.576

>  <homo_energy>
-6.438

>  <homo_lumo_gap>
5.47

>  <logP>
1.656

>  <lumo_energy>
-0.969

>  <melting_point>
47.18

>  <molecular_refractivity>
41.74

>  <oscillator_strength_1>
0.0051

>  <oscillator_strength_2>
0.0001

>  <oscillator_strength_3>
0.1576

>  <oscillator_strength_4>
0.0

>  <open_babel_can_smiles>
CCc1cnc(c(n1)C)C

>  <mulliken_charges>
22
1   -0.441814
2   -0.522278
3   -0.523326
4   -0.318763
5   -0.017743
6   0.271209
7   0.279167
8   0.302539
9   -0.433905
10   -0.494213
11   0.144763
12   0.167653
13   0.145231
14   0.161037
15   0.161446
16   0.17909
17   0.162404
18   0.162355
19   0.177535
20   0.158589
21   0.140635
22   0.138389

>  <lowdin_charges>
22
1   -0.439487
2   -0.449985
3   -0.451012
4   -0.273613
5   -0.127306
6   0.026075
7   0.034148
8   0.032761
9   -0.13067
10   -0.142573
11   0.150536
12   0.160749
13   0.147218
14   0.161938
15   0.16266
16   0.173146
17   0.163481
18   0.163677
19   0.172754
20   0.157845
21   0.149016
22   0.15864

$$$$

