PCCDB-ID:  25324
public computational chemistry database (PCCDB) project, http://pccdb.org

 34 35  0  0  1  0  0  0  0  0999 V2000
    1.4067   -0.6389    1.5652 C   0  0  0  0  0  0  0  0  0  0  0  0
    6.1153   -6.6051    0.7370 C   0  0  0  0  0  0  0  0  0  0  0  0
    5.0989   -6.5540   -0.4136 C   0  0  0  0  0  0  0  0  0  0  0  0
    5.9001   -5.4498    1.7256 C   0  0  0  0  0  0  0  0  0  0  0  0
    5.1138   -5.1870   -1.1141 C   0  0  0  0  0  0  0  0  0  0  0  0
    5.7011   -2.9192    2.0109 C   0  0  0  0  0  0  0  0  0  0  0  0
    5.7311   -1.5558    1.3059 C   0  0  0  0  0  0  0  0  0  0  0  0
    4.9131   -2.6628   -0.8262 C   0  0  0  0  0  0  0  0  0  0  0  0
    2.8165   -0.4039    1.0709 C   0  0  0  0  0  0  0  0  0  0  0  0
    5.9224   -4.0800    1.0273 C   0  0  2  0  0  0  0  0  0  0  0  0
    4.8907   -4.0315   -0.1239 C   0  0  2  0  0  0  0  0  0  0  0  0
    4.7422   -1.4885    0.1379 C   0  0  1  0  0  0  0  0  0  0  0  0
    3.3803    0.6694    1.0598 O   0  0  0  0  0  0  0  0  0  0  0  0
    3.3731   -1.5599    0.6420 O   0  0  0  0  0  0  0  0  0  0  0  0
    0.9510    0.3162    1.8286 H   0  0  0  0  0  0  0  0  0  0  0  0
    1.4232   -1.2928    2.4441 H   0  0  0  0  0  0  0  0  0  0  0  0
    0.8113   -1.1418    0.7968 H   0  0  0  0  0  0  0  0  0  0  0  0
    7.1329   -6.5412    0.3238 H   0  0  0  0  0  0  0  0  0  0  0  0
    6.0518   -7.5686    1.2590 H   0  0  0  0  0  0  0  0  0  0  0  0
    4.0913   -6.7419   -0.0140 H   0  0  0  0  0  0  0  0  0  0  0  0
    5.3009   -7.3538   -1.1375 H   0  0  0  0  0  0  0  0  0  0  0  0
    6.6650   -5.4766    2.5138 H   0  0  0  0  0  0  0  0  0  0  0  0
    4.9299   -5.5781    2.2297 H   0  0  0  0  0  0  0  0  0  0  0  0
    4.3484   -5.1559   -1.9018 H   0  0  0  0  0  0  0  0  0  0  0  0
    6.0832   -5.0464   -1.6170 H   0  0  0  0  0  0  0  0  0  0  0  0
    4.7314   -3.0502    2.5108 H   0  0  0  0  0  0  0  0  0  0  0  0
    6.4650   -2.9460    2.7995 H   0  0  0  0  0  0  0  0  0  0  0  0
    6.7359   -1.3737    0.8988 H   0  0  0  0  0  0  0  0  0  0  0  0
    5.5228   -0.7386    2.0044 H   0  0  0  0  0  0  0  0  0  0  0  0
    4.1327   -2.6172   -1.5966 H   0  0  0  0  0  0  0  0  0  0  0  0
    5.8760   -2.5315   -1.3413 H   0  0  0  0  0  0  0  0  0  0  0  0
    6.9227   -3.9509    0.5765 H   0  0  0  0  0  0  0  0  0  0  0  0
    3.8921   -4.1584    0.3234 H   0  0  0  0  0  0  0  0  0  0  0  0
    4.8448   -0.5335   -0.3844 H   0  0  0  0  0  0  0  0  0  0  0  0
  1 15  1  0  0  0  0
  1 16  1  0  0  0  0
  2 19  1  0  0  0  0
  2  4  1  0  0  0  0
  3 20  1  0  0  0  0
  3  2  1  0  0  0  0
  4 23  1  0  0  0  0
  4 22  1  0  0  0  0
  5  3  1  0  0  0  0
  5 11  1  0  0  0  0
  6 26  1  0  0  0  0
  6 27  1  0  0  0  0
  7 29  1  0  0  0  0
  7  6  1  0  0  0  0
  8 11  1  0  0  0  0
  8 12  1  0  0  0  0
  9  1  1  0  0  0  0
 10 32  1  6  0  0  0
 10  4  1  0  0  0  0
 10  6  1  0  0  0  0
 11 33  1  1  0  0  0
 11 10  1  0  0  0  0
 12 34  1  6  0  0  0
 12 14  1  0  0  0  0
 12  7  1  0  0  0  0
 13  9  2  0  0  0  0
 14  9  1  0  0  0  0
 17  1  1  0  0  0  0
 18  2  1  0  0  0  0
 21  3  1  0  0  0  0
 24  5  1  0  0  0  0
 25  5  1  0  0  0  0
 28  7  1  0  0  0  0
 30  8  1  0  0  0  0
 31  8  1  0  0  0  0
M  END
>  <HBA>
2

>  <HBD>
0

>  <TPSA>
26.3

>  <cid>
25324

>  <dipole>
2.04

>  <excitation_energy_1>
5.779

>  <excitation_energy_2>
6.828

>  <excitation_energy_3>
7.076

>  <excitation_energy_4>
7.119

>  <homo_energy>
-7.208

>  <homo_lumo_gap>
7.671

>  <logP>
2.908

>  <lumo_energy>
0.463

>  <melting_point>
27.05

>  <molecular_refractivity>
56.85

>  <oscillator_strength_1>
0.0012

>  <oscillator_strength_2>
0.0282

>  <oscillator_strength_3>
0.0088

>  <oscillator_strength_4>
0.0134

>  <open_babel_can_smiles>
CC(=O)O[C@H]1CC[C@@H]2[C@@H](C1)CCCC2

>  <mulliken_charges>
34
1   -0.52439
2   -0.259494
3   -0.259437
4   -0.261345
5   -0.261909
6   -0.266458
7   -0.287464
8   -0.283291
9   0.607163
10   -0.079565
11   -0.081498
12   0.118266
13   -0.471577
14   -0.469997
15   0.181341
16   0.179968
17   0.178751
18   0.127195
19   0.129797
20   0.127958
21   0.129871
22   0.127027
23   0.124882
24   0.127609
25   0.12313
26   0.134914
27   0.130147
28   0.134473
29   0.159352
30   0.139839
31   0.132529
32   0.107522
33   0.127998
34   0.156695

>  <lowdin_charges>
34
1   -0.467269
2   -0.276609
3   -0.277655
4   -0.277218
5   -0.277096
6   -0.279128
7   -0.2886
8   -0.28266
9   0.200014
10   -0.131001
11   -0.133097
12   0.004949
13   -0.269292
14   -0.203586
15   0.174963
16   0.177089
17   0.176821
18   0.136338
19   0.143107
20   0.137018
21   0.144113
22   0.142334
23   0.136763
24   0.14256
25   0.135438
26   0.141629
27   0.144669
28   0.146601
29   0.159547
30   0.150399
31   0.145933
32   0.128381
33   0.138785
34   0.155761

$$$$

