PCCDB-ID:  2230
public computational chemistry database (PCCDB) project, http://pccdb.org

 24 24  0  0  0  0  0  0  0  0999 V2000
    0.9153    0.0225    0.3905 C   0  0  0  0  0  0  0  0  0  0  0  0
    5.6531    2.6002    4.1850 C   0  0  0  0  0  0  0  0  0  0  0  0
    3.0492   -1.7846    1.6530 C   0  0  0  0  0  0  0  0  0  0  0  0
    3.7111   -0.6015    2.3042 C   0  0  0  0  0  0  0  0  0  0  0  0
    2.7910   -1.5224    0.1547 C   0  0  0  0  0  0  0  0  0  0  0  0
    3.2120    0.8400    0.3172 C   0  0  0  0  0  0  0  0  0  0  0  0
    3.7905    0.5984    1.7051 C   0  0  0  0  0  0  0  0  0  0  0  0
    4.4730    1.7596    2.3279 C   0  0  0  0  0  0  0  0  0  0  0  0
    2.2657   -0.1854   -0.1209 N   0  0  0  0  0  0  0  0  0  0  0  0
    4.5709    2.8488    1.7916 O   0  0  0  0  0  0  0  0  0  0  0  0
    4.9840    1.4981    3.5564 O   0  0  0  0  0  0  0  0  0  0  0  0
    0.2573   -0.7590   -0.0063 H   0  0  0  0  0  0  0  0  0  0  0  0
    0.5402    0.9884    0.0353 H   0  0  0  0  0  0  0  0  0  0  0  0
    0.8295    0.0139    1.4924 H   0  0  0  0  0  0  0  0  0  0  0  0
    5.9992    2.2216    5.1476 H   0  0  0  0  0  0  0  0  0  0  0  0
    4.9664    3.4392    4.3272 H   0  0  0  0  0  0  0  0  0  0  0  0
    6.4985    2.9359    3.5782 H   0  0  0  0  0  0  0  0  0  0  0  0
    2.1075   -2.0048    2.1798 H   0  0  0  0  0  0  0  0  0  0  0  0
    3.6722   -2.6805    1.7829 H   0  0  0  0  0  0  0  0  0  0  0  0
    4.1326   -0.7331    3.2974 H   0  0  0  0  0  0  0  0  0  0  0  0
    2.0987   -2.2680   -0.2534 H   0  0  0  0  0  0  0  0  0  0  0  0
    3.7364   -1.6243   -0.3943 H   0  0  0  0  0  0  0  0  0  0  0  0
    4.0370    0.8979   -0.4088 H   0  0  0  0  0  0  0  0  0  0  0  0
    2.7238    1.8188    0.2878 H   0  0  0  0  0  0  0  0  0  0  0  0
  1 14  1  0  0  0  0
  2 16  1  0  0  0  0
  2 15  1  0  0  0  0
  3 19  1  0  0  0  0
  3 18  1  0  0  0  0
  3  4  1  0  0  0  0
  4 20  1  0  0  0  0
  5  3  1  0  0  0  0
  6  7  1  0  0  0  0
  7  4  2  0  0  0  0
  7  8  1  0  0  0  0
  8 11  1  0  0  0  0
  9  5  1  0  0  0  0
  9  6  1  0  0  0  0
  9  1  1  0  0  0  0
 10  8  2  0  0  0  0
 11  2  1  0  0  0  0
 12  1  1  0  0  0  0
 13  1  1  0  0  0  0
 17  2  1  0  0  0  0
 21  5  1  0  0  0  0
 22  5  1  0  0  0  0
 23  6  1  0  0  0  0
 24  6  1  0  0  0  0
M  END
>  <HBA>
3

>  <HBD>
0

>  <TPSA>
29.54

>  <cid>
2230

>  <dipole>
2.63

>  <excitation_energy_1>
3.65

>  <excitation_energy_2>
4.919

>  <excitation_energy_3>
5.026

>  <excitation_energy_4>
5.624

>  <homo_energy>
-5.606

>  <homo_lumo_gap>
4.672

>  <logP>
0.359

>  <lumo_energy>
-0.933

>  <melting_point>
22.97

>  <molecular_refractivity>
46.08

>  <oscillator_strength_1>
0.0015

>  <oscillator_strength_2>
0.0001

>  <oscillator_strength_3>
0.0096

>  <oscillator_strength_4>
0.2135

>  <open_babel_can_smiles>
COC(=O)C1=CCCN(C1)C

>  <mulliken_charges>
24
1   -0.304241
2   -0.214925
3   -0.320321
4   -0.139654
5   -0.148268
6   -0.201788
7   0.052548
8   0.597779
9   -0.363706
10   -0.494708
11   -0.469711
12   0.146517
13   0.154291
14   0.126257
15   0.161141
16   0.169066
17   0.169434
18   0.158075
19   0.15014
20   0.156156
21   0.140267
22   0.146528
23   0.161862
24   0.167262

>  <lowdin_charges>
24
1   -0.356983
2   -0.278889
3   -0.296332
4   -0.130754
5   -0.204168
6   -0.201724
7   -0.072277
8   0.193429
9   -0.182405
10   -0.273355
11   -0.196333
12   0.150121
13   0.152374
14   0.121781
15   0.158344
16   0.159196
17   0.159486
18   0.156709
19   0.157794
20   0.167875
21   0.148023
22   0.146442
23   0.156954
24   0.164693

$$$$

