PCCDB-ID:  70761
public computational chemistry database (PCCDB) project, http://pccdb.org

 20 20  0  0  0  0  0  0  0  0999 V2000
    1.1191    0.4442    0.0866 C   0  0  0  0  0  0  0  0  0  0  0  0
    2.6042    0.0420    0.0410 C   0  0  0  0  0  0  0  0  0  0  0  0
    3.2844   -0.5137   -2.3408 C   0  0  0  0  0  0  0  0  0  0  0  0
    3.5298   -1.4360   -3.3625 C   0  0  0  0  0  0  0  0  0  0  0  0
    2.8118   -2.3262   -0.8418 C   0  0  0  0  0  0  0  0  0  0  0  0
    2.9191   -0.9447   -1.0642 C   0  0  0  0  0  0  0  0  0  0  0  0
    3.4185   -2.8054   -3.1348 C   0  0  0  0  0  0  0  0  0  0  0  0
    3.0539   -3.2554   -1.8510 C   0  0  0  0  0  0  0  0  0  0  0  0
    3.6503   -3.7565   -4.0909 O   0  0  0  0  0  0  0  0  0  0  0  0
    2.9634   -4.6075   -1.6660 O   0  0  0  0  0  0  0  0  0  0  0  0
    0.9299    1.1586    0.8966 H   0  0  0  0  0  0  0  0  0  0  0  0
    0.4797   -0.4310    0.2490 H   0  0  0  0  0  0  0  0  0  0  0  0
    0.8106    0.9089   -0.8566 H   0  0  0  0  0  0  0  0  0  0  0  0
    2.8900   -0.3869    1.0104 H   0  0  0  0  0  0  0  0  0  0  0  0
    3.2165    0.9431   -0.0900 H   0  0  0  0  0  0  0  0  0  0  0  0
    3.3829    0.5492   -2.5468 H   0  0  0  0  0  0  0  0  0  0  0  0
    3.8189   -1.0867   -4.3528 H   0  0  0  0  0  0  0  0  0  0  0  0
    2.5336   -2.6905    0.1474 H   0  0  0  0  0  0  0  0  0  0  0  0
    3.8911   -3.3063   -4.9152 H   0  0  0  0  0  0  0  0  0  0  0  0
    2.7110   -4.7721   -0.7443 H   0  0  0  0  0  0  0  0  0  0  0  0
  1 12  1  0  0  0  0
  1 11  1  0  0  0  0
  2  1  1  0  0  0  0
  2 14  1  0  0  0  0
  3  6  2  0  0  0  0
  4  7  2  0  0  0  0
  4  3  1  0  0  0  0
  5 18  1  0  0  0  0
  6  5  1  0  0  0  0
  6  2  1  0  0  0  0
  7  8  1  0  0  0  0
  8 10  1  0  0  0  0
  8  5  2  0  0  0  0
  9  7  1  0  0  0  0
 10 20  1  0  0  0  0
 13  1  1  0  0  0  0
 15  2  1  0  0  0  0
 16  3  1  0  0  0  0
 17  4  1  0  0  0  0
 19  9  1  0  0  0  0
M  END
>  <HBA>
2

>  <HBD>
2

>  <TPSA>
40.46

>  <cid>
70761

>  <dipole>
1.4

>  <excitation_energy_1>
4.763

>  <excitation_energy_2>
4.8

>  <excitation_energy_3>
4.977

>  <excitation_energy_4>
5.272

>  <homo_energy>
-5.421

>  <homo_lumo_gap>
5.682

>  <logP>
1.66

>  <lumo_energy>
0.261

>  <melting_point>
88.44

>  <molecular_refractivity>
40.26

>  <oscillator_strength_1>
0.0081

>  <oscillator_strength_2>
0.0561

>  <oscillator_strength_3>
0.001

>  <oscillator_strength_4>
0.0321

>  <open_babel_can_smiles>
CCc1ccc(c(c1)O)O

>  <mulliken_charges>
20
1   -0.430928
2   -0.342077
3   -0.196733
4   -0.195626
5   -0.260733
6   0.178099
7   0.315114
8   0.328535
9   -0.63433
10   -0.635134
11   0.141084
12   0.146294
13   0.149083
14   0.138979
15   0.142202
16   0.118705
17   0.116195
18   0.109408
19   0.405723
20   0.406142

>  <lowdin_charges>
20
1   -0.442367
2   -0.269469
3   -0.179199
4   -0.204237
5   -0.217045
6   -0.009313
7   0.072251
8   0.080028
9   -0.372034
10   -0.370622
11   0.148564
12   0.149537
13   0.150717
14   0.146124
15   0.148796
16   0.152893
17   0.15227
18   0.149445
19   0.357854
20   0.355808

$$$$

