PCCDB-ID:  72928
public computational chemistry database (PCCDB) project, http://pccdb.org

 26 26  0  0  0  0  0  0  0  0999 V2000
    3.1792   -0.3148   -2.6412 C   0  0  0  0  0  0  0  0  0  0  0  0
    4.7454    2.5956    1.0619 C   0  0  0  0  0  0  0  0  0  0  0  0
    4.5347    1.1957    0.5615 C   0  0  0  0  0  0  0  0  0  0  0  0
    5.6096    6.7099    2.5717 C   0  0  0  0  0  0  0  0  0  0  0  0
    5.9307    3.1070    1.4270 C   0  0  0  0  0  0  0  0  0  0  0  0
    5.2297    5.4589    2.1005 C   0  0  0  0  0  0  0  0  0  0  0  0
    4.0001    1.1515   -0.8799 C   0  0  0  0  0  0  0  0  0  0  0  0
    6.9580    6.9423    2.8553 C   0  0  0  0  0  0  0  0  0  0  0  0
    7.5265    4.8192    2.2425 C   0  0  0  0  0  0  0  0  0  0  0  0
    6.2041    4.4626    1.9204 C   0  0  0  0  0  0  0  0  0  0  0  0
    3.6876   -0.2175   -1.2775 N   0  0  0  0  0  0  0  0  0  0  0  0
    7.9097    6.0153    2.6960 N   0  0  0  0  0  0  0  0  0  0  0  0
    3.0222   -1.3675   -2.8984 H   0  0  0  0  0  0  0  0  0  0  0  0
    3.8380    0.1340   -3.4087 H   0  0  0  0  0  0  0  0  0  0  0  0
    2.2085    0.1916   -2.7032 H   0  0  0  0  0  0  0  0  0  0  0  0
    3.8497    3.2166    1.1107 H   0  0  0  0  0  0  0  0  0  0  0  0
    3.8093    0.6698    1.1983 H   0  0  0  0  0  0  0  0  0  0  0  0
    5.4772    0.6341    0.6220 H   0  0  0  0  0  0  0  0  0  0  0  0
    4.8751    7.4962    2.7200 H   0  0  0  0  0  0  0  0  0  0  0  0
    6.8084    2.4620    1.3630 H   0  0  0  0  0  0  0  0  0  0  0  0
    4.1861    5.2573    1.8756 H   0  0  0  0  0  0  0  0  0  0  0  0
    4.7247    1.6482   -1.5548 H   0  0  0  0  0  0  0  0  0  0  0  0
    3.0719    1.7369   -0.9414 H   0  0  0  0  0  0  0  0  0  0  0  0
    7.2872    7.9117    3.2257 H   0  0  0  0  0  0  0  0  0  0  0  0
    8.3199    4.0809    2.1218 H   0  0  0  0  0  0  0  0  0  0  0  0
    4.5309   -0.7840   -1.1962 H   0  0  0  0  0  0  0  0  0  0  0  0
  1 11  1  0  0  0  0
  2 16  1  0  0  0  0
  2  5  2  0  0  0  0
  3 18  1  0  0  0  0
  3  2  1  0  0  0  0
  3 17  1  0  0  0  0
  4 19  1  0  0  0  0
  4  8  2  0  0  0  0
  5 10  1  0  0  0  0
  6  4  1  0  0  0  0
  7  3  1  0  0  0  0
  8 24  1  0  0  0  0
  9 12  2  0  0  0  0
 10  6  2  0  0  0  0
 10  9  1  0  0  0  0
 11 26  1  0  0  0  0
 11  7  1  0  0  0  0
 12  8  1  0  0  0  0
 13  1  1  0  0  0  0
 14  1  1  0  0  0  0
 15  1  1  0  0  0  0
 20  5  1  0  0  0  0
 21  6  1  0  0  0  0
 22  7  1  0  0  0  0
 23  7  1  0  0  0  0
 25  9  1  0  0  0  0
M  END
>  <HBA>
2

>  <HBD>
1

>  <TPSA>
24.92

>  <cid>
72928

>  <dipole>
2.16

>  <excitation_energy_1>
4.345

>  <excitation_energy_2>
4.529

>  <excitation_energy_3>
4.533

>  <excitation_energy_4>
5.018

>  <homo_energy>
-6.052

>  <homo_lumo_gap>
4.95

>  <logP>
2.095

>  <lumo_energy>
-1.102

>  <melting_point>
67.53

>  <molecular_refractivity>
51.55

>  <oscillator_strength_1>
0.0014

>  <oscillator_strength_2>
0.1308

>  <oscillator_strength_3>
0.1515

>  <oscillator_strength_4>
0.0022

>  <open_babel_can_smiles>
CNCC/C=C/c1cccnc1

>  <mulliken_charges>
26
1   -0.300062
2   -0.099547
3   -0.315134
4   -0.141108
5   -0.176534
6   -0.151042
7   -0.113182
8   0.037389
9   -0.02203
10   0.156924
11   -0.540479
12   -0.410713
13   0.149412
14   0.120718
15   0.151788
16   0.125965
17   0.161401
18   0.13593
19   0.137228
20   0.125134
21   0.140295
22   0.117417
23   0.137651
24   0.141192
25   0.139097
26   0.292289

>  <lowdin_charges>
26
1   -0.359268
2   -0.148047
3   -0.275023
4   -0.174322
5   -0.170362
6   -0.130237
7   -0.202092
8   -0.091466
9   -0.099276
10   -0.017819
11   -0.36349
12   -0.145571
13   0.150022
14   0.122469
15   0.147895
16   0.149418
17   0.160864
18   0.144064
19   0.164844
20   0.154464
21   0.15983
22   0.120139
23   0.14064
24   0.156165
25   0.155253
26   0.250907

$$$$

