PCCDB-ID:  12850
public computational chemistry database (PCCDB) project, http://pccdb.org

 31 32  0  0  0  0  0  0  0  0999 V2000
    2.5003    0.7711    0.4239 C   0  0  0  0  0  0  0  0  0  0  0  0
    2.6459   -0.6927   -0.0235 C   0  0  0  0  0  0  0  0  0  0  0  0
    1.4527    1.6323   -0.3219 C   0  0  0  0  0  0  0  0  0  0  0  0
    1.5260   -1.6129    0.4942 C   0  0  0  0  0  0  0  0  0  0  0  0
    0.2902    0.9232   -1.0427 C   0  0  0  0  0  0  0  0  0  0  0  0
    0.1783   -1.5239   -0.2335 C   0  0  0  0  0  0  0  0  0  0  0  0
   -3.1569    0.7615    2.2393 C   0  0  0  0  0  0  0  0  0  0  0  0
   -0.9709    0.3198    1.1204 C   0  0  0  0  0  0  0  0  0  0  0  0
   -2.7434   -0.0570   -0.1881 C   0  0  0  0  0  0  0  0  0  0  0  0
   -0.5342   -0.1484   -0.2836 C   0  0  0  0  0  0  0  0  0  0  0  0
   -1.8134   -0.3416   -1.0132 N   0  0  0  0  0  0  0  0  0  0  0  0
   -2.3556    0.3116    1.0978 N   0  0  0  0  0  0  0  0  0  0  0  0
   -2.8383    2.0693    2.6186 O   0  0  0  0  0  0  0  0  0  0  0  0
   -0.3118    0.6550    2.0954 O   0  0  0  0  0  0  0  0  0  0  0  0
   -4.0633   -0.0907   -0.4267 O   0  0  0  0  0  0  0  0  0  0  0  0
    3.4746    1.2687    0.3348 H   0  0  0  0  0  0  0  0  0  0  0  0
    2.2554    0.7670    1.4917 H   0  0  0  0  0  0  0  0  0  0  0  0
    3.5989   -1.0730    0.3673 H   0  0  0  0  0  0  0  0  0  0  0  0
    2.7221   -0.7650   -1.1187 H   0  0  0  0  0  0  0  0  0  0  0  0
    1.9566    2.2266   -1.0959 H   0  0  0  0  0  0  0  0  0  0  0  0
    1.0401    2.3581    0.3880 H   0  0  0  0  0  0  0  0  0  0  0  0
    1.3815   -1.4203    1.5648 H   0  0  0  0  0  0  0  0  0  0  0  0
    1.8569   -2.6571    0.4120 H   0  0  0  0  0  0  0  0  0  0  0  0
    0.6525    0.4318   -1.9542 H   0  0  0  0  0  0  0  0  0  0  0  0
   -0.4117    1.6941   -1.3826 H   0  0  0  0  0  0  0  0  0  0  0  0
   -0.5170   -2.2460    0.2144 H   0  0  0  0  0  0  0  0  0  0  0  0
    0.3006   -1.8294   -1.2808 H   0  0  0  0  0  0  0  0  0  0  0  0
   -2.9913    0.0484    3.0576 H   0  0  0  0  0  0  0  0  0  0  0  0
   -4.2051    0.7386    1.9413 H   0  0  0  0  0  0  0  0  0  0  0  0
   -1.9140    2.0405    2.9251 H   0  0  0  0  0  0  0  0  0  0  0  0
   -4.1631   -0.3572   -1.3581 H   0  0  0  0  0  0  0  0  0  0  0  0
  1 17  1  0  0  0  0
  2 18  1  0  0  0  0
  2  1  1  0  0  0  0
  2  4  1  0  0  0  0
  3 21  1  0  0  0  0
  3  1  1  0  0  0  0
  4 22  1  0  0  0  0
  5  3  1  0  0  0  0
  5 10  1  0  0  0  0
  6 26  1  0  0  0  0
  6  4  1  0  0  0  0
  7 13  1  0  0  0  0
  7 28  1  0  0  0  0
  8 14  2  0  0  0  0
  9 12  1  0  0  0  0
 10  6  1  0  0  0  0
 10  8  1  0  0  0  0
 11 10  1  0  0  0  0
 11  9  2  0  0  0  0
 12  8  1  0  0  0  0
 12  7  1  0  0  0  0
 13 30  1  0  0  0  0
 15  9  1  0  0  0  0
 16  1  1  0  0  0  0
 19  2  1  0  0  0  0
 20  3  1  0  0  0  0
 23  4  1  0  0  0  0
 24  5  1  0  0  0  0
 25  5  1  0  0  0  0
 27  6  1  0  0  0  0
 29  7  1  0  0  0  0
 31 15  1  0  0  0  0
M  END
>  <HBA>
5

>  <HBD>
2

>  <TPSA>
69.64

>  <cid>
12850

>  <dipole>
1.98

>  <excitation_energy_1>
5.08

>  <excitation_energy_2>
5.56

>  <excitation_energy_3>
5.88

>  <excitation_energy_4>
6.367

>  <homo_energy>
-6.691

>  <homo_lumo_gap>
6.37

>  <logP>
0.848

>  <lumo_energy>
-0.321

>  <melting_point>
128.51

>  <molecular_refractivity>
61.47

>  <oscillator_strength_1>
0.0032

>  <oscillator_strength_2>
0.025

>  <oscillator_strength_3>
0.001

>  <oscillator_strength_4>
0.0231

>  <open_babel_can_smiles>
OCN1C(=NC2(C1=O)CCCCCC2)O

>  <mulliken_charges>
31
1   -0.264761
2   -0.261109
3   -0.263369
4   -0.264396
5   -0.261252
6   -0.251026
7   0.066843
8   0.610115
9   0.699598
10   0.061177
11   -0.496469
12   -0.493421
13   -0.601608
14   -0.539596
15   -0.60933
16   0.125781
17   0.159274
18   0.130772
19   0.125342
20   0.132147
21   0.145296
22   0.152452
23   0.130827
24   0.146642
25   0.144999
26   0.134223
27   0.149981
28   0.157778
29   0.185551
30   0.417208
31   0.430331

>  <lowdin_charges>
31
1   -0.284482
2   -0.277404
3   -0.284763
4   -0.278322
5   -0.27403
6   -0.268536
7   -0.065475
8   0.168643
9   0.155022
10   0.041023
11   -0.265096
12   -0.097017
13   -0.444314
14   -0.291435
15   -0.346371
16   0.1415
17   0.151527
18   0.145395
19   0.133476
20   0.146239
21   0.150286
22   0.148351
23   0.144214
24   0.151382
25   0.155055
26   0.14803
27   0.151277
28   0.146577
29   0.169542
30   0.352617
31   0.377091

$$$$

