PCCDB-ID:  68238
public computational chemistry database (PCCDB) project, http://pccdb.org

 24 24  0  0  0  0  0  0  0  0999 V2000
    0.8282    0.1195    0.3285 C   0  0  0  0  0  0  0  0  0  0  0  0
    2.4694   -2.5372    0.0991 C   0  0  0  0  0  0  0  0  0  0  0  0
    5.0604    2.7813   -0.2183 C   0  0  0  0  0  0  0  0  0  0  0  0
    6.7014    0.1244   -0.4508 C   0  0  0  0  0  0  0  0  0  0  0  0
    2.3159    0.0076    0.1370 C   0  0  0  0  0  0  0  0  0  0  0  0
    3.0255   -1.1410    0.0375 C   0  0  0  0  0  0  0  0  0  0  0  0
    4.5060    1.3850   -0.1458 C   0  0  0  0  0  0  0  0  0  0  0  0
    5.2155    0.2365   -0.2463 C   0  0  0  0  0  0  0  0  0  0  0  0
    3.0245    1.3220    0.0502 C   0  0  0  0  0  0  0  0  0  0  0  0
    4.5068   -1.0779   -0.1598 C   0  0  0  0  0  0  0  0  0  0  0  0
    2.3805    2.3644    0.1401 O   0  0  0  0  0  0  0  0  0  0  0  0
    5.1503   -2.1204   -0.2540 O   0  0  0  0  0  0  0  0  0  0  0  0
    0.3432   -0.8508    0.4378 H   0  0  0  0  0  0  0  0  0  0  0  0
    0.3745    0.6431   -0.5210 H   0  0  0  0  0  0  0  0  0  0  0  0
    0.6043    0.7284    1.2109 H   0  0  0  0  0  0  0  0  0  0  0  0
    1.3969   -2.5548    0.2944 H   0  0  0  0  0  0  0  0  0  0  0  0
    2.9800   -3.1147    0.8771 H   0  0  0  0  0  0  0  0  0  0  0  0
    2.6618   -3.0647   -0.8423 H   0  0  0  0  0  0  0  0  0  0  0  0
    6.1467    2.7990   -0.3094 H   0  0  0  0  0  0  0  0  0  0  0  0
    4.7708    3.3510    0.6712 H   0  0  0  0  0  0  0  0  0  0  0  0
    4.6294    3.3171   -1.0720 H   0  0  0  0  0  0  0  0  0  0  0  0
    7.2004    1.0937   -0.4583 H   0  0  0  0  0  0  0  0  0  0  0  0
    6.9170   -0.3865   -1.3964 H   0  0  0  0  0  0  0  0  0  0  0  0
    7.1464   -0.4963    0.3342 H   0  0  0  0  0  0  0  0  0  0  0  0
  1 13  1  0  0  0  0
  1 15  1  0  0  0  0
  2 16  1  0  0  0  0
  2 17  1  0  0  0  0
  3  7  1  0  0  0  0
  3 20  1  0  0  0  0
  4  8  1  0  0  0  0
  4 24  1  0  0  0  0
  5  1  1  0  0  0  0
  6  2  1  0  0  0  0
  6  5  2  0  0  0  0
  7  9  1  0  0  0  0
  8 10  1  0  0  0  0
  8  7  2  0  0  0  0
  9  5  1  0  0  0  0
  9 11  2  0  0  0  0
 10  6  1  0  0  0  0
 12 10  2  0  0  0  0
 14  1  1  0  0  0  0
 18  2  1  0  0  0  0
 19  3  1  0  0  0  0
 21  3  1  0  0  0  0
 22  4  1  0  0  0  0
 23  4  1  0  0  0  0
M  END
>  <HBA>
2

>  <HBD>
0

>  <TPSA>
34.14

>  <cid>
68238

>  <dipole>
0.03

>  <excitation_energy_1>
2.57

>  <excitation_energy_2>
2.961

>  <excitation_energy_3>
3.122

>  <excitation_energy_4>
4.541

>  <homo_energy>
-6.868

>  <homo_lumo_gap>
3.883

>  <logP>
1.811

>  <lumo_energy>
-2.985

>  <melting_point>
69.4

>  <molecular_refractivity>
47.52

>  <oscillator_strength_1>
0.0

>  <oscillator_strength_2>
0.0

>  <oscillator_strength_3>
0.0

>  <oscillator_strength_4>
0.266

>  <open_babel_can_smiles>
CC1=C(C)C(=O)C(=C(C1=O)C)C

>  <mulliken_charges>
24
1   -0.514832
2   -0.51477
3   -0.514751
4   -0.514849
5   0.048951
6   0.048772
7   0.048754
8   0.048893
9   0.367872
10   0.367914
11   -0.465588
12   -0.465637
13   0.156112
14   0.178575
15   0.180148
16   0.156117
17   0.180098
18   0.178581
19   0.156105
20   0.180173
21   0.178517
22   0.156108
23   0.178572
24   0.180165

>  <lowdin_charges>
24
1   -0.440985
2   -0.439492
3   -0.439326
4   -0.440825
5   -0.023271
6   -0.023558
7   -0.023543
8   -0.023252
9   0.145407
10   0.145418
11   -0.230971
12   -0.230983
13   0.157875
14   0.174501
15   0.174854
16   0.156413
17   0.175527
18   0.173713
19   0.15617
20   0.1749
21   0.174405
22   0.157848
23   0.173671
24   0.175505

$$$$

