PCCDB-ID:  53722
public computational chemistry database (PCCDB) project, http://pccdb.org

 31 32  0  0  1  0  0  0  0  0999 V2000
    0.8800    0.6538    0.0270 C   0  0  0  0  0  0  0  0  0  0  0  0
    2.5468    0.3394   -1.8496 C   0  0  0  0  0  0  0  0  0  0  0  0
    7.0283   -1.9205    3.5464 C   0  0  0  0  0  0  0  0  0  0  0  0
    5.5601   -3.3926    4.7382 C   0  0  0  0  0  0  0  0  0  0  0  0
    8.0730   -2.4324    4.3177 C   0  0  0  0  0  0  0  0  0  0  0  0
    6.6713   -3.8294    5.4565 C   0  0  0  0  0  0  0  0  0  0  0  0
    2.9588   -0.8025    0.4143 C   0  0  0  0  0  0  0  0  0  0  0  0
    5.7341   -2.4059    3.7635 C   0  0  0  0  0  0  0  0  0  0  0  0
    3.4747   -0.1647    1.7074 C   0  0  2  0  0  0  0  0  0  0  0  0
    4.5194   -1.9437    3.0044 C   0  0  0  0  0  0  0  0  0  0  0  0
    3.8244    1.2524    1.2530 C   0  0  0  0  0  0  0  0  0  0  0  0
    2.3432    0.4005   -0.3406 C   0  0  0  0  0  0  0  0  0  0  0  0
    7.9137   -3.3655    5.2632 N   0  0  0  0  0  0  0  0  0  0  0  0
    4.6400   -0.7611    2.3245 N   0  0  0  0  0  0  0  0  0  0  0  0
    3.4810   -2.5986    2.9863 O   0  0  0  0  0  0  0  0  0  0  0  0
    4.6196    1.9942    1.7784 O   0  0  0  0  0  0  0  0  0  0  0  0
    3.1277    1.5567    0.1431 O   0  0  0  0  0  0  0  0  0  0  0  0
    0.2475   -0.1512   -0.3624 H   0  0  0  0  0  0  0  0  0  0  0  0
    0.5395    1.6009   -0.4029 H   0  0  0  0  0  0  0  0  0  0  0  0
    0.7393    0.7015    1.1120 H   0  0  0  0  0  0  0  0  0  0  0  0
    2.0254   -0.5317   -2.2619 H   0  0  0  0  0  0  0  0  0  0  0  0
    3.6104    0.2537   -2.0927 H   0  0  0  0  0  0  0  0  0  0  0  0
    2.1519    1.2386   -2.3331 H   0  0  0  0  0  0  0  0  0  0  0  0
    7.2422   -1.1837    2.7780 H   0  0  0  0  0  0  0  0  0  0  0  0
    4.5711   -3.8004    4.9159 H   0  0  0  0  0  0  0  0  0  0  0  0
    9.0896   -2.0749    4.1639 H   0  0  0  0  0  0  0  0  0  0  0  0
    6.5611   -4.5913    6.2260 H   0  0  0  0  0  0  0  0  0  0  0  0
    2.2406   -1.6041    0.5945 H   0  0  0  0  0  0  0  0  0  0  0  0
    3.8039   -1.2139   -0.1485 H   0  0  0  0  0  0  0  0  0  0  0  0
    2.6566   -0.1021    2.4407 H   0  0  0  0  0  0  0  0  0  0  0  0
    5.3612   -0.0981    2.5886 H   0  0  0  0  0  0  0  0  0  0  0  0
  1 20  1  0  0  0  0
  2 12  1  0  0  0  0
  3  8  2  0  0  0  0
  3  5  1  0  0  0  0
  4 25  1  0  0  0  0
  4  6  2  0  0  0  0
  5 13  2  0  0  0  0
  6 27  1  0  0  0  0
  7 28  1  0  0  0  0
  7  9  1  0  0  0  0
  8  4  1  0  0  0  0
  9 14  1  0  0  0  0
  9 30  1  1  0  0  0
 10  8  1  0  0  0  0
 11  9  1  0  0  0  0
 11 16  2  0  0  0  0
 12  1  1  0  0  0  0
 12 17  1  0  0  0  0
 12  7  1  0  0  0  0
 13  6  1  0  0  0  0
 14 31  1  0  0  0  0
 14 10  1  0  0  0  0
 15 10  2  0  0  0  0
 17 11  1  0  0  0  0
 18  1  1  0  0  0  0
 19  1  1  0  0  0  0
 21  2  1  0  0  0  0
 22  2  1  0  0  0  0
 23  2  1  0  0  0  0
 24  3  1  0  0  0  0
 26  5  1  0  0  0  0
 29  7  1  0  0  0  0
M  END
>  <HBA>
5

>  <HBD>
1

>  <TPSA>
68.29

>  <cid>
53722

>  <dipole>
3.36

>  <excitation_energy_1>
4.259

>  <excitation_energy_2>
4.523

>  <excitation_energy_3>
4.957

>  <excitation_energy_4>
5.15

>  <homo_energy>
-7.07

>  <homo_lumo_gap>
5.453

>  <logP>
1.296

>  <lumo_energy>
-1.616

>  <melting_point>
123.62

>  <molecular_refractivity>
60.48

>  <oscillator_strength_1>
0.0026

>  <oscillator_strength_2>
0.0008

>  <oscillator_strength_3>
0.0308

>  <oscillator_strength_4>
0.0001

>  <open_babel_can_smiles>
O=C(c1ccncc1)N[C@@H]1CC(OC1=O)(C)C

>  <mulliken_charges>
31
1   -0.454838
2   -0.454806
3   -0.191696
4   -0.162384
5   0.038001
6   0.03494
7   -0.305585
8   0.088218
9   -0.032134
10   0.578292
11   0.615975
12   0.287422
13   -0.399039
14   -0.649142
15   -0.520587
16   -0.470663
17   -0.467681
18   0.157519
19   0.168061
20   0.157102
21   0.155981
22   0.160916
23   0.165089
24   0.145116
25   0.169485
26   0.148857
27   0.149425
28   0.184051
29   0.161517
30   0.191134
31   0.351454

>  <lowdin_charges>
31
1   -0.449377
2   -0.444208
3   -0.177202
4   -0.151547
5   -0.086747
6   -0.085698
7   -0.290667
8   -0.018229
9   -0.087949
10   0.164739
11   0.184519
12   0.135011
13   -0.137532
14   -0.270751
15   -0.301703
16   -0.24721
17   -0.174826
18   0.162108
19   0.16473
20   0.155296
21   0.161669
22   0.159679
23   0.163686
24   0.166919
25   0.182163
26   0.159962
27   0.161252
28   0.174626
29   0.161703
30   0.171459
31   0.294125

$$$$

