PCCDB-ID:  28468
public computational chemistry database (PCCDB) project, http://pccdb.org

 38 37  0  0  1  0  0  0  0  0999 V2000
    2.6333   -2.4361   -4.2321 C   0  0  0  0  0  0  0  0  0  0  0  0
   10.7360    2.3760   -5.3796 C   0  0  0  0  0  0  0  0  0  0  0  0
    8.6499    0.0411   -5.1596 C   0  0  0  0  0  0  0  0  0  0  0  0
    4.6767    0.3285   -0.4990 C   0  0  0  0  0  0  0  0  0  0  0  0
    3.0174   -1.0162   -3.8020 C   0  0  0  0  0  0  0  0  0  0  0  0
    9.2201    2.5269   -5.2059 C   0  0  0  0  0  0  0  0  0  0  0  0
    6.3129    0.8035   -3.1917 C   0  0  0  0  0  0  0  0  0  0  0  0
    3.7648   -0.9816   -2.4619 C   0  0  0  0  0  0  0  0  0  0  0  0
    7.0651    1.7597   -4.1299 C   0  0  0  0  0  0  0  0  0  0  0  0
    4.9056    1.3159   -2.8465 C   0  0  0  0  0  0  0  0  0  0  0  0
    8.5328    1.3864   -4.4256 C   0  0  1  0  0  0  0  0  0  0  0  0
    4.0602    0.4268   -1.9043 C   0  0  2  0  0  0  0  0  0  0  0  0
    2.1041   -2.4351   -5.1919 H   0  0  0  0  0  0  0  0  0  0  0  0
    1.9792   -2.9120   -3.4910 H   0  0  0  0  0  0  0  0  0  0  0  0
    3.5215   -3.0707   -4.3429 H   0  0  0  0  0  0  0  0  0  0  0  0
   11.1628    3.2608   -5.8659 H   0  0  0  0  0  0  0  0  0  0  0  0
   10.9976    1.5083   -5.9950 H   0  0  0  0  0  0  0  0  0  0  0  0
   11.2353    2.2584   -4.4095 H   0  0  0  0  0  0  0  0  0  0  0  0
    9.6946   -0.2319   -5.3411 H   0  0  0  0  0  0  0  0  0  0  0  0
    8.1421    0.0846   -6.1328 H   0  0  0  0  0  0  0  0  0  0  0  0
    8.1978   -0.7748   -4.5861 H   0  0  0  0  0  0  0  0  0  0  0  0
    4.0026   -0.1966    0.1883 H   0  0  0  0  0  0  0  0  0  0  0  0
    4.8732    1.3228   -0.0797 H   0  0  0  0  0  0  0  0  0  0  0  0
    5.6254   -0.2215   -0.5097 H   0  0  0  0  0  0  0  0  0  0  0  0
    2.1102   -0.3991   -3.7274 H   0  0  0  0  0  0  0  0  0  0  0  0
    3.6331   -0.5579   -4.5870 H   0  0  0  0  0  0  0  0  0  0  0  0
    8.7458    2.6195   -6.1945 H   0  0  0  0  0  0  0  0  0  0  0  0
    9.0189    3.4735   -4.6850 H   0  0  0  0  0  0  0  0  0  0  0  0
    6.8997    0.6716   -2.2718 H   0  0  0  0  0  0  0  0  0  0  0  0
    6.2391   -0.1886   -3.6541 H   0  0  0  0  0  0  0  0  0  0  0  0
    4.7029   -1.5484   -2.5560 H   0  0  0  0  0  0  0  0  0  0  0  0
    3.1667   -1.5236   -1.7144 H   0  0  0  0  0  0  0  0  0  0  0  0
    7.0475    2.7663   -3.6865 H   0  0  0  0  0  0  0  0  0  0  0  0
    6.5169    1.8404   -5.0815 H   0  0  0  0  0  0  0  0  0  0  0  0
    4.3510    1.4759   -3.7815 H   0  0  0  0  0  0  0  0  0  0  0  0
    4.9963    2.3102   -2.3849 H   0  0  0  0  0  0  0  0  0  0  0  0
    9.0515    1.2904   -3.4575 H   0  0  0  0  0  0  0  0  0  0  0  0
    3.0899    0.9368   -1.7955 H   0  0  0  0  0  0  0  0  0  0  0  0
  1  5  1  0  0  0  0
  1 14  1  0  0  0  0
  2  6  1  0  0  0  0
  2 18  1  0  0  0  0
  3 21  1  0  0  0  0
  3 11  1  0  0  0  0
  4 23  1  0  0  0  0
  4 22  1  0  0  0  0
  5 25  1  0  0  0  0
  5  8  1  0  0  0  0
  6 28  1  0  0  0  0
  6 11  1  0  0  0  0
  7 10  1  0  0  0  0
  7 29  1  0  0  0  0
  8 12  1  0  0  0  0
  8 32  1  0  0  0  0
  9 33  1  0  0  0  0
  9  7  1  0  0  0  0
 10 36  1  0  0  0  0
 10 12  1  0  0  0  0
 11  9  1  0  0  0  0
 11 37  1  1  0  0  0
 12 38  1  1  0  0  0
 12  4  1  0  0  0  0
 13  1  1  0  0  0  0
 15  1  1  0  0  0  0
 16  2  1  0  0  0  0
 17  2  1  0  0  0  0
 19  3  1  0  0  0  0
 20  3  1  0  0  0  0
 24  4  1  0  0  0  0
 26  5  1  0  0  0  0
 27  6  1  0  0  0  0
 30  7  1  0  0  0  0
 31  8  1  0  0  0  0
 34  9  1  0  0  0  0
 35 10  1  0  0  0  0
M  END
>  <HBA>
0

>  <HBD>
0

>  <TPSA>
0.0

>  <cid>
28468

>  <dipole>
0.08

>  <excitation_energy_1>
7.391

>  <excitation_energy_2>
7.628

>  <excitation_energy_3>
7.658

>  <excitation_energy_4>
7.714

>  <homo_energy>
-7.856

>  <homo_lumo_gap>
9.976

>  <logP>
4.639

>  <lumo_energy>
2.12

>  <melting_point>
-30.55

>  <molecular_refractivity>
59.8

>  <oscillator_strength_1>
0.0006

>  <oscillator_strength_2>
0.0077

>  <oscillator_strength_3>
0.0261

>  <oscillator_strength_4>
0.012

>  <open_babel_can_smiles>
CCC[C@H](CCC[C@H](CC)C)C

>  <mulliken_charges>
38
1   -0.441943
2   -0.448367
3   -0.453509
4   -0.449953
5   -0.254748
6   -0.245919
7   -0.268161
8   -0.246456
9   -0.252709
10   -0.262391
11   -0.06359
12   -0.070886
13   0.140746
14   0.14098
15   0.140783
16   0.141337
17   0.145439
18   0.14027
19   0.143822
20   0.136083
21   0.144598
22   0.13858
23   0.137459
24   0.14253
25   0.129151
26   0.135719
27   0.12607
28   0.127435
29   0.13033
30   0.137048
31   0.126985
32   0.123469
33   0.123961
34   0.122473
35   0.130113
36   0.123589
37   0.113999
38   0.11566

>  <lowdin_charges>
38
1   -0.445313
2   -0.44828
3   -0.448544
4   -0.447568
5   -0.276384
6   -0.272844
7   -0.280766
8   -0.279861
9   -0.273431
10   -0.278221
11   -0.123231
12   -0.123671
13   0.148368
14   0.14702
15   0.146377
16   0.15043
17   0.147705
18   0.145534
19   0.148209
20   0.143886
21   0.150046
22   0.148667
23   0.146124
24   0.145735
25   0.138629
26   0.141447
27   0.137037
28   0.139429
29   0.139271
30   0.140003
31   0.136984
32   0.140191
33   0.137128
34   0.135779
35   0.14007
36   0.137644
37   0.131522
38   0.134876

$$$$

