PCCDB-ID:  51577
public computational chemistry database (PCCDB) project, http://pccdb.org

 31 31  0  0  1  0  0  0  0  0999 V2000
    1.3652    0.1156   -0.8941 C   0  0  0  0  0  0  0  0  0  0  0  0
    0.5243    0.1900    0.3815 C   0  0  0  0  0  0  0  0  0  0  0  0
    3.4608    1.2799   -1.1774 C   0  0  0  0  0  0  0  0  0  0  0  0
    2.8787   -2.4303   -0.4372 C   0  0  0  0  0  0  0  0  0  0  0  0
    3.5127   -1.1545   -1.0085 C   0  0  2  0  0  0  0  0  0  0  0  0
    4.9533    1.4073   -0.8671 C   0  0  2  0  0  0  0  0  0  0  0  0
    5.0162   -1.0863   -0.6237 C   0  0  1  0  0  0  0  0  0  0  0  0
    5.6978    0.1254   -1.2784 C   0  0  2  0  0  0  0  0  0  0  0  0
    2.8186    0.0802   -0.6128 N   0  0  0  0  0  0  0  0  0  0  0  0
    0.6053   -0.9836    1.1704 O   0  0  0  0  0  0  0  0  0  0  0  0
    3.0054   -2.4470    0.9991 O   0  0  0  0  0  0  0  0  0  0  0  0
    5.2226    1.7236    0.4936 O   0  0  0  0  0  0  0  0  0  0  0  0
    5.2207   -0.9627    0.7867 O   0  0  0  0  0  0  0  0  0  0  0  0
    7.0687    0.2025   -0.9529 O   0  0  0  0  0  0  0  0  0  0  0  0
    1.1359    0.9918   -1.5157 H   0  0  0  0  0  0  0  0  0  0  0  0
    1.0536   -0.7569   -1.4835 H   0  0  0  0  0  0  0  0  0  0  0  0
   -0.5322    0.3105    0.1132 H   0  0  0  0  0  0  0  0  0  0  0  0
    0.8265    1.0808    0.9558 H   0  0  0  0  0  0  0  0  0  0  0  0
    3.3358    1.3095   -2.2799 H   0  0  0  0  0  0  0  0  0  0  0  0
    2.9533    2.1588   -0.7681 H   0  0  0  0  0  0  0  0  0  0  0  0
    3.4103   -3.2903   -0.8671 H   0  0  0  0  0  0  0  0  0  0  0  0
    1.8208   -2.5085   -0.7039 H   0  0  0  0  0  0  0  0  0  0  0  0
    3.4801   -1.2970   -2.1117 H   0  0  0  0  0  0  0  0  0  0  0  0
    5.3474    2.2489   -1.4482 H   0  0  0  0  0  0  0  0  0  0  0  0
    5.5025   -2.0048   -0.9891 H   0  0  0  0  0  0  0  0  0  0  0  0
    5.6361    0.0030   -2.3674 H   0  0  0  0  0  0  0  0  0  0  0  0
    1.5480   -1.1300    1.3708 H   0  0  0  0  0  0  0  0  0  0  0  0
    2.5841   -3.2531    1.3361 H   0  0  0  0  0  0  0  0  0  0  0  0
    4.9921    0.9172    0.9981 H   0  0  0  0  0  0  0  0  0  0  0  0
    4.6129   -1.5898    1.2210 H   0  0  0  0  0  0  0  0  0  0  0  0
    7.0919    0.5972   -0.0626 H   0  0  0  0  0  0  0  0  0  0  0  0
  1  9  1  0  0  0  0
  1  2  1  0  0  0  0
  2 18  1  0  0  0  0
  2 10  1  0  0  0  0
  3  6  1  0  0  0  0
  3 20  1  0  0  0  0
  3  9  1  0  0  0  0
  4 11  1  0  0  0  0
  5 23  1  6  0  0  0
  5  7  1  0  0  0  0
  5  9  1  0  0  0  0
  5  4  1  0  0  0  0
  6 24  1  6  0  0  0
  6 12  1  0  0  0  0
  7 25  1  6  0  0  0
  7 13  1  0  0  0  0
  8 26  1  6  0  0  0
  8 14  1  0  0  0  0
  8  6  1  0  0  0  0
  8  7  1  0  0  0  0
 10 27  1  0  0  0  0
 11 28  1  0  0  0  0
 12 29  1  0  0  0  0
 13 30  1  0  0  0  0
 14 31  1  0  0  0  0
 15  1  1  0  0  0  0
 16  1  1  0  0  0  0
 17  2  1  0  0  0  0
 19  3  1  0  0  0  0
 21  4  1  0  0  0  0
 22  4  1  0  0  0  0
M  END
>  <HBA>
6

>  <HBD>
5

>  <TPSA>
104.39

>  <cid>
51577

>  <dipole>
4.44

>  <excitation_energy_1>
5.18

>  <excitation_energy_2>
5.593

>  <excitation_energy_3>
5.866

>  <excitation_energy_4>
5.9

>  <homo_energy>
-6.117

>  <homo_lumo_gap>
7.075

>  <logP>
-3.324

>  <lumo_energy>
0.958

>  <melting_point>
90.41

>  <molecular_refractivity>
51.08

>  <oscillator_strength_1>
0.0086

>  <oscillator_strength_2>
0.0665

>  <oscillator_strength_3>
0.0357

>  <oscillator_strength_4>
0.0049

>  <open_babel_can_smiles>
OCCN1C[C@@H](O)[C@H]([C@H]([C@H]1CO)O)O

>  <mulliken_charges>
31
1   -0.165411
2   -0.007338
3   -0.149622
4   -0.073833
5   0.011342
6   0.101565
7   0.120527
8   0.112841
9   -0.414001
10   -0.652497
11   -0.638537
12   -0.654883
13   -0.673635
14   -0.633106
15   0.138524
16   0.137102
17   0.13274
18   0.126121
19   0.10951
20   0.160221
21   0.147419
22   0.166044
23   0.11211
24   0.141483
25   0.124066
26   0.125883
27   0.416529
28   0.421469
29   0.42005
30   0.432644
31   0.404674

>  <lowdin_charges>
31
1   -0.221202
2   -0.136119
3   -0.215459
4   -0.146282
5   -0.085425
6   -0.025594
7   -0.020872
8   -0.033456
9   -0.201882
10   -0.486988
11   -0.458589
12   -0.475772
13   -0.477524
14   -0.450523
15   0.148694
16   0.140759
17   0.14035
18   0.130664
19   0.117365
20   0.158278
21   0.145845
22   0.150868
23   0.124423
24   0.152509
25   0.137685
26   0.141998
27   0.338351
28   0.363164
29   0.34565
30   0.352373
31   0.34671

$$$$

