PCCDB-ID:  12107
public computational chemistry database (PCCDB) project, http://pccdb.org

 22 22  0  0  0  0  0  0  0  0999 V2000
    1.7905    2.6384    4.7914 C   0  0  0  0  0  0  0  0  0  0  0  0
    1.4120    2.7895    3.3058 C   0  0  0  0  0  0  0  0  0  0  0  0
   -2.7739    0.3494    1.5225 C   0  0  0  0  0  0  0  0  0  0  0  0
   -2.1347    1.3922    0.8506 C   0  0  0  0  0  0  0  0  0  0  0  0
   -2.0136   -0.5341    2.2934 C   0  0  0  0  0  0  0  0  0  0  0  0
   -0.7533    1.5603    0.9536 C   0  0  0  0  0  0  0  0  0  0  0  0
   -0.6328   -0.3783    2.3951 C   0  0  0  0  0  0  0  0  0  0  0  0
    0.0139    0.6816    1.7374 C   0  0  0  0  0  0  0  0  0  0  0  0
    2.0105    1.6979    2.4362 C   0  0  0  0  0  0  0  0  0  0  0  0
    1.4137    0.7804    1.7954 N   0  0  0  0  0  0  0  0  0  0  0  0
    3.3743    1.6846    2.3751 O   0  0  0  0  0  0  0  0  0  0  0  0
    1.3360    3.4403    5.3818 H   0  0  0  0  0  0  0  0  0  0  0  0
    2.8741    2.6839    4.9533 H   0  0  0  0  0  0  0  0  0  0  0  0
    1.4370    1.6810    5.1869 H   0  0  0  0  0  0  0  0  0  0  0  0
    1.7548    3.7654    2.9326 H   0  0  0  0  0  0  0  0  0  0  0  0
    0.3258    2.7709    3.1952 H   0  0  0  0  0  0  0  0  0  0  0  0
   -3.8494    0.2202    1.4403 H   0  0  0  0  0  0  0  0  0  0  0  0
   -2.7117    2.0822    0.2398 H   0  0  0  0  0  0  0  0  0  0  0  0
   -2.4981   -1.3552    2.8158 H   0  0  0  0  0  0  0  0  0  0  0  0
   -0.2527    2.3595    0.4135 H   0  0  0  0  0  0  0  0  0  0  0  0
   -0.0355   -1.0720    2.9798 H   0  0  0  0  0  0  0  0  0  0  0  0
    3.7240    2.4284    2.8891 H   0  0  0  0  0  0  0  0  0  0  0  0
  1 13  1  0  0  0  0
  1 14  1  0  0  0  0
  1 12  1  0  0  0  0
  2  1  1  0  0  0  0
  3  5  2  0  0  0  0
  4  6  2  0  0  0  0
  4  3  1  0  0  0  0
  5  7  1  0  0  0  0
  5 19  1  0  0  0  0
  6  8  1  0  0  0  0
  7 21  1  0  0  0  0
  8 10  1  0  0  0  0
  8  7  2  0  0  0  0
  9  2  1  0  0  0  0
 10  9  2  0  0  0  0
 11  9  1  0  0  0  0
 11 22  1  0  0  0  0
 15  2  1  0  0  0  0
 16  2  1  0  0  0  0
 17  3  1  0  0  0  0
 18  4  1  0  0  0  0
 20  6  1  0  0  0  0
M  END
>  <HBA>
2

>  <HBD>
1

>  <TPSA>
29.1

>  <cid>
12107

>  <dipole>
3.92

>  <excitation_energy_1>
4.619

>  <excitation_energy_2>
4.986

>  <excitation_energy_3>
5.126

>  <excitation_energy_4>
5.522

>  <homo_energy>
-5.712

>  <homo_lumo_gap>
5.736

>  <logP>
2.108

>  <lumo_energy>
0.024

>  <melting_point>
57.93

>  <molecular_refractivity>
45.56

>  <oscillator_strength_1>
0.026

>  <oscillator_strength_2>
0.0131

>  <oscillator_strength_3>
0.0686

>  <oscillator_strength_4>
0.0182

>  <open_babel_can_smiles>
CC/C(=N\c1ccccc1)/O

>  <mulliken_charges>
22
1   -0.449754
2   -0.362445
3   -0.131796
4   -0.138309
5   -0.138139
6   -0.154596
7   -0.151299
8   0.231127
9   0.487955
10   -0.468238
11   -0.576997
12   0.162875
13   0.139357
14   0.172885
15   0.15519
16   0.184197
17   0.123146
18   0.126343
19   0.126949
20   0.123699
21   0.129024
22   0.408827

>  <lowdin_charges>
22
1   -0.440054
2   -0.30994
3   -0.174176
4   -0.154188
5   -0.152345
6   -0.190648
7   -0.180906
8   0.049253
9   0.145887
10   -0.170904
11   -0.362682
12   0.161476
13   0.142362
14   0.162789
15   0.156104
16   0.173423
17   0.15354
18   0.157433
19   0.15731
20   0.157732
21   0.162046
22   0.356488

$$$$

