PCCDB-ID:  7253
public computational chemistry database (PCCDB) project, http://pccdb.org

 17 17  0  0  0  0  0  0  0  0999 V2000
    0.8779   -0.0296    0.0240 C   0  0  0  0  0  0  0  0  0  0  0  0
    5.1868    0.0088   -0.3393 C   0  0  0  0  0  0  0  0  0  0  0  0
    4.4893   -1.2012   -0.2728 C   0  0  0  0  0  0  0  0  0  0  0  0
    3.0898    1.1944   -0.1714 C   0  0  0  0  0  0  0  0  0  0  0  0
    2.3798   -0.0029   -0.1032 C   0  0  0  0  0  0  0  0  0  0  0  0
    4.4846    1.2114   -0.2885 C   0  0  0  0  0  0  0  0  0  0  0  0
    3.1015   -1.2107   -0.1561 C   0  0  0  0  0  0  0  0  0  0  0  0
    5.0962    2.4401   -0.3491 O   0  0  0  0  0  0  0  0  0  0  0  0
    2.3693   -2.3741   -0.0860 O   0  0  0  0  0  0  0  0  0  0  0  0
    0.4712    0.9843    0.0811 H   0  0  0  0  0  0  0  0  0  0  0  0
    0.5657   -0.5795    0.9197 H   0  0  0  0  0  0  0  0  0  0  0  0
    0.4159   -0.5395   -0.8301 H   0  0  0  0  0  0  0  0  0  0  0  0
    6.2714    0.0049   -0.4293 H   0  0  0  0  0  0  0  0  0  0  0  0
    5.0378   -2.1409   -0.3111 H   0  0  0  0  0  0  0  0  0  0  0  0
    2.5621    2.1429   -0.1316 H   0  0  0  0  0  0  0  0  0  0  0  0
    6.0536    2.3073   -0.4214 H   0  0  0  0  0  0  0  0  0  0  0  0
    2.9786   -3.1271   -0.1234 H   0  0  0  0  0  0  0  0  0  0  0  0
  1 10  1  0  0  0  0
  1 11  1  0  0  0  0
  2  6  2  0  0  0  0
  2  3  1  0  0  0  0
  3  7  2  0  0  0  0
  4 15  1  0  0  0  0
  4  5  2  0  0  0  0
  5  1  1  0  0  0  0
  6  4  1  0  0  0  0
  7  5  1  0  0  0  0
  7  9  1  0  0  0  0
  8  6  1  0  0  0  0
 12  1  1  0  0  0  0
 13  2  1  0  0  0  0
 14  3  1  0  0  0  0
 16  8  1  0  0  0  0
 17  9  1  0  0  0  0
M  END
>  <HBA>
2

>  <HBD>
2

>  <TPSA>
40.46

>  <cid>
7253

>  <dipole>
2.44

>  <excitation_energy_1>
4.643

>  <excitation_energy_2>
4.668

>  <excitation_energy_3>
4.777

>  <excitation_energy_4>
5.451

>  <homo_energy>
-5.317

>  <homo_lumo_gap>
5.41

>  <logP>
1.406

>  <lumo_energy>
0.093

>  <melting_point>
89.1

>  <molecular_refractivity>
35.45

>  <oscillator_strength_1>
0.0712

>  <oscillator_strength_2>
0.0005

>  <oscillator_strength_3>
0.0002

>  <oscillator_strength_4>
0.0009

>  <open_babel_can_smiles>
Oc1ccc(c(c1)C)O

>  <mulliken_charges>
17
1   -0.514537
2   -0.205548
3   -0.194328
4   -0.23068
5   0.142441
6   0.355972
7   0.290671
8   -0.652196
9   -0.650189
10   0.149392
11   0.16755
12   0.167119
13   0.116292
14   0.116361
15   0.1332
16   0.403752
17   0.404729

>  <lowdin_charges>
17
1   -0.436386
2   -0.209237
3   -0.203723
4   -0.18637
5   -0.01365
6   0.086489
7   0.076422
8   -0.386213
9   -0.390803
10   0.15446
11   0.164903
12   0.164979
13   0.150836
14   0.15272
15   0.165337
16   0.353437
17   0.3568

$$$$

