PCCDB-ID:  6749
public computational chemistry database (PCCDB) project, http://pccdb.org

 20 21  0  0  0  0  0  0  0  0999 V2000
    2.4446   -0.6746    0.0389 C   0  0  0  0  0  0  0  0  0  0  0  0
   -2.4387    0.6662    0.0044 C   0  0  0  0  0  0  0  0  0  0  0  0
    1.2734   -1.3966    0.0575 C   0  0  0  0  0  0  0  0  0  0  0  0
   -1.2675    1.3883   -0.0145 C   0  0  0  0  0  0  0  0  0  0  0  0
    2.4240    0.7382    0.0020 C   0  0  0  0  0  0  0  0  0  0  0  0
   -2.4181   -0.7466    0.0410 C   0  0  0  0  0  0  0  0  0  0  0  0
    0.0258   -0.7190    0.0399 C   0  0  0  0  0  0  0  0  0  0  0  0
   -0.0200    0.7106    0.0028 C   0  0  0  0  0  0  0  0  0  0  0  0
    1.2217    1.4151   -0.0158 C   0  0  0  0  0  0  0  0  0  0  0  0
   -1.2158   -1.4235    0.0582 C   0  0  0  0  0  0  0  0  0  0  0  0
    1.1411    2.7817   -0.0514 O   0  0  0  0  0  0  0  0  0  0  0  0
   -1.1352   -2.7901    0.0942 O   0  0  0  0  0  0  0  0  0  0  0  0
    3.4025   -1.1872    0.0525 H   0  0  0  0  0  0  0  0  0  0  0  0
   -3.3966    1.1788   -0.0087 H   0  0  0  0  0  0  0  0  0  0  0  0
    1.2848   -2.4798    0.0858 H   0  0  0  0  0  0  0  0  0  0  0  0
   -1.2789    2.4714   -0.0423 H   0  0  0  0  0  0  0  0  0  0  0  0
    3.3596    1.2949   -0.0123 H   0  0  0  0  0  0  0  0  0  0  0  0
   -3.3537   -1.3032    0.0562 H   0  0  0  0  0  0  0  0  0  0  0  0
    2.0402    3.1447   -0.0644 H   0  0  0  0  0  0  0  0  0  0  0  0
   -2.0343   -3.1533    0.0974 H   0  0  0  0  0  0  0  0  0  0  0  0
  1 13  1  0  0  0  0
  1  3  2  0  0  0  0
  2  6  2  0  0  0  0
  3 15  1  0  0  0  0
  4  8  2  0  0  0  0
  4  2  1  0  0  0  0
  5  1  1  0  0  0  0
  6 18  1  0  0  0  0
  6 10  1  0  0  0  0
  7  3  1  0  0  0  0
  7 10  2  0  0  0  0
  8  7  1  0  0  0  0
  9  5  2  0  0  0  0
  9  8  1  0  0  0  0
 10 12  1  0  0  0  0
 11  9  1  0  0  0  0
 12 20  1  0  0  0  0
 14  2  1  0  0  0  0
 16  4  1  0  0  0  0
 17  5  1  0  0  0  0
 19 11  1  0  0  0  0
M  END
>  <HBA>
2

>  <HBD>
2

>  <TPSA>
40.46

>  <cid>
6749

>  <dipole>
0.02

>  <excitation_energy_1>
4.108

>  <excitation_energy_2>
4.242

>  <excitation_energy_3>
4.61

>  <excitation_energy_4>
4.677

>  <homo_energy>
-5.165

>  <homo_lumo_gap>
4.607

>  <logP>
2.251

>  <lumo_energy>
-0.558

>  <melting_point>
129.6

>  <molecular_refractivity>
47.99

>  <oscillator_strength_1>
0.0968

>  <oscillator_strength_2>
0.0752

>  <oscillator_strength_3>
0.0002

>  <oscillator_strength_4>
0.0

>  <open_babel_can_smiles>
Oc1cccc2c1cccc2O

>  <mulliken_charges>
20
1   -0.143321
2   -0.143398
3   -0.173916
4   -0.173757
5   -0.197727
6   -0.197698
7   0.078374
8   0.078327
9   0.280999
10   0.281008
11   -0.642326
12   -0.642328
13   0.128516
14   0.128516
15   0.147126
16   0.14712
17   0.113337
18   0.113336
19   0.408907
20   0.408906

>  <lowdin_charges>
20
1   -0.150638
2   -0.15064
3   -0.170404
4   -0.170401
5   -0.223551
6   -0.22355
7   -0.017804
8   -0.017803
9   0.104194
10   0.104194
11   -0.37793
12   -0.37793
13   0.158349
14   0.158349
15   0.167467
16   0.167466
17   0.152328
18   0.152328
19   0.357988
20   0.357988

$$$$

