PCCDB-ID:  13177
public computational chemistry database (PCCDB) project, http://pccdb.org

 16 15  0  0  0  0  0  0  0  0999 V2000
    1.2873   -0.8769   -0.4419 C   0  0  0  0  0  0  0  0  0  0  0  0
    4.5069    3.4678    2.8852 C   0  0  0  0  0  0  0  0  0  0  0  0
    2.7842    0.7593    0.8354 C   0  0  0  0  0  0  0  0  0  0  0  0
    3.0091    1.8190    1.6252 C   0  0  0  0  0  0  0  0  0  0  0  0
    1.3989    0.3350    0.4611 C   0  0  0  0  0  0  0  0  0  0  0  0
    4.3946    2.2462    1.9954 C   0  0  0  0  0  0  0  0  0  0  0  0
    0.4170    0.9377    0.8644 O   0  0  0  0  0  0  0  0  0  0  0  0
    5.3763    1.6393    1.5977 O   0  0  0  0  0  0  0  0  0  0  0  0
    1.8183   -0.6990   -1.3860 H   0  0  0  0  0  0  0  0  0  0  0  0
    0.2376   -1.0948   -0.6459 H   0  0  0  0  0  0  0  0  0  0  0  0
    1.7614   -1.7481    0.0284 H   0  0  0  0  0  0  0  0  0  0  0  0
    3.9679    3.3046    3.8273 H   0  0  0  0  0  0  0  0  0  0  0  0
    4.0415    4.3360    2.4008 H   0  0  0  0  0  0  0  0  0  0  0  0
    5.5564    3.6821    3.0940 H   0  0  0  0  0  0  0  0  0  0  0  0
    3.6310    0.1915    0.4551 H   0  0  0  0  0  0  0  0  0  0  0  0
    2.1624    2.3861    2.0066 H   0  0  0  0  0  0  0  0  0  0  0  0
  1 11  1  0  0  0  0
  1  5  1  0  0  0  0
  2 14  1  0  0  0  0
  2 12  1  0  0  0  0
  3  4  2  0  0  0  0
  4  6  1  0  0  0  0
  4 16  1  0  0  0  0
  5  3  1  0  0  0  0
  5  7  2  0  0  0  0
  6  2  1  0  0  0  0
  8  6  2  0  0  0  0
  9  1  1  0  0  0  0
 10  1  1  0  0  0  0
 13  2  1  0  0  0  0
 15  3  1  0  0  0  0
M  END
>  <HBA>
2

>  <HBD>
0

>  <TPSA>
34.14

>  <cid>
13177

>  <dipole>
0.02

>  <excitation_energy_1>
3.134

>  <excitation_energy_2>
3.139

>  <excitation_energy_3>
5.075

>  <excitation_energy_4>
5.75

>  <homo_energy>
-7.045

>  <homo_lumo_gap>
4.493

>  <logP>
0.721

>  <lumo_energy>
-2.552

>  <melting_point>
26.01

>  <molecular_refractivity>
30.88

>  <oscillator_strength_1>
0.0

>  <oscillator_strength_2>
0.0

>  <oscillator_strength_3>
0.3899

>  <oscillator_strength_4>
0.0

>  <open_babel_can_smiles>
CC(=O)/C=C/C(=O)C

>  <mulliken_charges>
16
1   -0.538656
2   -0.538696
3   -0.15617
4   -0.156243
5   0.434775
6   0.434802
7   -0.442866
8   -0.442869
9   0.175866
10   0.182924
11   0.175702
12   0.175597
13   0.175995
14   0.182931
15   0.168455
16   0.168454

>  <lowdin_charges>
16
1   -0.473169
2   -0.473199
3   -0.154829
4   -0.154829
5   0.162259
6   0.162263
7   -0.232858
8   -0.23287
9   0.173679
10   0.173801
11   0.174213
12   0.173497
13   0.174422
14   0.173809
15   0.176906
16   0.176904

$$$$

