PCCDB-ID:  70685
public computational chemistry database (PCCDB) project, http://pccdb.org

 24 23  0  0  0  0  0  0  0  0999 V2000
    1.9556   -0.5920    1.4395 C   0  0  0  0  0  0  0  0  0  0  0  0
    3.1093    1.2659    0.1648 C   0  0  0  0  0  0  0  0  0  0  0  0
    2.1061   -2.3467   -2.7797 C   0  0  0  0  0  0  0  0  0  0  0  0
    2.7206   -3.6596   -0.6758 C   0  0  0  0  0  0  0  0  0  0  0  0
    2.3315   -0.0498    0.0436 C   0  0  0  0  0  0  0  0  0  0  0  0
    2.2212   -2.3152   -1.2416 C   0  0  0  0  0  0  0  0  0  0  0  0
    3.0488   -1.1229   -0.7682 C   0  0  0  0  0  0  0  0  0  0  0  0
    4.2937   -0.9129   -0.9888 N   0  0  0  0  0  0  0  0  0  0  0  0
    4.9121   -1.9436   -1.7388 O   0  0  0  0  0  0  0  0  0  0  0  0
    1.3552    0.1450    1.9851 H   0  0  0  0  0  0  0  0  0  0  0  0
    2.8594   -0.7952    2.0256 H   0  0  0  0  0  0  0  0  0  0  0  0
    1.3739   -1.5185    1.3826 H   0  0  0  0  0  0  0  0  0  0  0  0
    2.5098    2.0057    0.7081 H   0  0  0  0  0  0  0  0  0  0  0  0
    3.3568    1.6749   -0.8195 H   0  0  0  0  0  0  0  0  0  0  0  0
    4.0493    1.1196    0.7052 H   0  0  0  0  0  0  0  0  0  0  0  0
    1.4403   -3.1618   -3.0876 H   0  0  0  0  0  0  0  0  0  0  0  0
    3.0832   -2.5016   -3.2424 H   0  0  0  0  0  0  0  0  0  0  0  0
    1.6888   -1.4090   -3.1650 H   0  0  0  0  0  0  0  0  0  0  0  0
    2.0391   -4.4647   -0.9761 H   0  0  0  0  0  0  0  0  0  0  0  0
    2.7559   -3.6402    0.4194 H   0  0  0  0  0  0  0  0  0  0  0  0
    3.7211   -3.8944   -1.0437 H   0  0  0  0  0  0  0  0  0  0  0  0
    1.3900    0.1574   -0.4899 H   0  0  0  0  0  0  0  0  0  0  0  0
    1.2078   -2.1579   -0.8490 H   0  0  0  0  0  0  0  0  0  0  0  0
    5.8196   -1.6109   -1.8138 H   0  0  0  0  0  0  0  0  0  0  0  0
  1 10  1  0  0  0  0
  1 11  1  0  0  0  0
  2 15  1  0  0  0  0
  2 13  1  0  0  0  0
  3  6  1  0  0  0  0
  4 20  1  0  0  0  0
  5  2  1  0  0  0  0
  5  1  1  0  0  0  0
  6 23  1  0  0  0  0
  6  7  1  0  0  0  0
  6  4  1  0  0  0  0
  7  5  1  0  0  0  0
  8  7  2  0  0  0  0
  9  8  1  0  0  0  0
 12  1  1  0  0  0  0
 14  2  1  0  0  0  0
 16  3  1  0  0  0  0
 17  3  1  0  0  0  0
 18  3  1  0  0  0  0
 19  4  1  0  0  0  0
 21  4  1  0  0  0  0
 22  5  1  0  0  0  0
 24  9  1  0  0  0  0
M  END
>  <HBA>
2

>  <HBD>
1

>  <TPSA>
32.59

>  <cid>
70685

>  <dipole>
0.41

>  <excitation_energy_1>
5.85

>  <excitation_energy_2>
6.111

>  <excitation_energy_3>
6.366

>  <excitation_energy_4>
6.509

>  <homo_energy>
-6.55

>  <homo_lumo_gap>
6.953

>  <logP>
2.129

>  <lumo_energy>
0.403

>  <melting_point>
44.54

>  <molecular_refractivity>
40.18

>  <oscillator_strength_1>
0.0009

>  <oscillator_strength_2>
0.0096

>  <oscillator_strength_3>
0.0744

>  <oscillator_strength_4>
0.0475

>  <open_babel_can_smiles>
CC(C(=NO)C(C)C)C

>  <mulliken_charges>
24
1   -0.448864
2   -0.432331
3   -0.448299
4   -0.449254
5   -0.140254
6   -0.12947
7   0.342631
8   -0.256562
9   -0.513399
10   0.146856
11   0.153854
12   0.148592
13   0.13174
14   0.149695
15   0.156738
16   0.138493
17   0.176439
18   0.139892
19   0.136778
20   0.142062
21   0.178024
22   0.134469
23   0.127911
24   0.414261

>  <lowdin_charges>
24
1   -0.445016
2   -0.442946
3   -0.443945
4   -0.443555
5   -0.120703
6   -0.129748
7   0.023423
8   -0.081308
9   -0.385804
10   0.152973
11   0.153366
12   0.15009
13   0.146468
14   0.154301
15   0.156151
16   0.148402
17   0.163151
18   0.148016
19   0.147688
20   0.1462
21   0.163632
22   0.144081
23   0.142717
24   0.352367

$$$$

