PCCDB-ID:  68845
public computational chemistry database (PCCDB) project, http://pccdb.org

 28 27  0  0  0  0  0  0  0  0999 V2000
    2.9342    0.0874    1.3513 C   0  0  0  0  0  0  0  0  0  0  0  0
    4.7654    2.2028   -1.6599 C   0  0  0  0  0  0  0  0  0  0  0  0
    5.6795   -2.9387   -1.4083 C   0  0  0  0  0  0  0  0  0  0  0  0
    3.5610   -0.7690    0.5430 C   0  0  0  0  0  0  0  0  0  0  0  0
    5.5545    0.9902   -1.1510 C   0  0  0  0  0  0  0  0  0  0  0  0
    6.0221   -1.4831   -1.0703 C   0  0  0  0  0  0  0  0  0  0  0  0
    3.6023   -0.6614   -0.9595 C   0  0  0  0  0  0  0  0  0  0  0  0
    4.9790   -0.4450   -3.1298 C   0  0  0  0  0  0  0  0  0  0  0  0
    5.0180   -0.4093   -1.5762 C   0  0  0  0  0  0  0  0  0  0  0  0
    5.9810   -0.4871   -3.9106 N   0  0  0  0  0  0  0  0  0  0  0  0
    3.7605   -0.3792   -3.7375 O   0  0  0  0  0  0  0  0  0  0  0  0
    2.9206   -0.0512    2.4289 H   0  0  0  0  0  0  0  0  0  0  0  0
    2.4048    0.9578    0.9684 H   0  0  0  0  0  0  0  0  0  0  0  0
    5.2714    3.1288   -1.3659 H   0  0  0  0  0  0  0  0  0  0  0  0
    3.7530    2.2447   -1.2425 H   0  0  0  0  0  0  0  0  0  0  0  0
    4.6835    2.2031   -2.7523 H   0  0  0  0  0  0  0  0  0  0  0  0
    6.4771   -3.6059   -1.0638 H   0  0  0  0  0  0  0  0  0  0  0  0
    5.5716   -3.0792   -2.4891 H   0  0  0  0  0  0  0  0  0  0  0  0
    4.7508   -3.2694   -0.9292 H   0  0  0  0  0  0  0  0  0  0  0  0
    4.0644   -1.6299    0.9814 H   0  0  0  0  0  0  0  0  0  0  0  0
    5.5999    1.0167   -0.0553 H   0  0  0  0  0  0  0  0  0  0  0  0
    6.5890    1.0716   -1.5074 H   0  0  0  0  0  0  0  0  0  0  0  0
    7.0134   -1.2497   -1.4775 H   0  0  0  0  0  0  0  0  0  0  0  0
    6.1259   -1.3678    0.0153 H   0  0  0  0  0  0  0  0  0  0  0  0
    2.9224    0.1515   -1.2478 H   0  0  0  0  0  0  0  0  0  0  0  0
    3.1941   -1.5906   -1.3827 H   0  0  0  0  0  0  0  0  0  0  0  0
    6.8502   -0.5259   -3.3781 H   0  0  0  0  0  0  0  0  0  0  0  0
    3.0580   -0.3524   -3.0740 H   0  0  0  0  0  0  0  0  0  0  0  0
  1 12  1  0  0  0  0
  2 14  1  0  0  0  0
  2 15  1  0  0  0  0
  2  5  1  0  0  0  0
  3  6  1  0  0  0  0
  3 17  1  0  0  0  0
  3 19  1  0  0  0  0
  4 20  1  0  0  0  0
  4  1  2  0  0  0  0
  5 21  1  0  0  0  0
  6 24  1  0  0  0  0
  7  4  1  0  0  0  0
  8  9  1  0  0  0  0
  9  5  1  0  0  0  0
  9  6  1  0  0  0  0
  9  7  1  0  0  0  0
 10 27  1  0  0  0  0
 10  8  2  0  0  0  0
 11  8  1  0  0  0  0
 11 28  1  0  0  0  0
 13  1  1  0  0  0  0
 16  2  1  0  0  0  0
 18  3  1  0  0  0  0
 22  5  1  0  0  0  0
 23  6  1  0  0  0  0
 25  7  1  0  0  0  0
 26  7  1  0  0  0  0
M  END
>  <HBA>
2

>  <HBD>
1

>  <TPSA>
43.09

>  <cid>
68845

>  <dipole>
4.33

>  <excitation_energy_1>
6.039

>  <excitation_energy_2>
6.155

>  <excitation_energy_3>
6.191

>  <excitation_energy_4>
6.367

>  <homo_energy>
-6.874

>  <homo_lumo_gap>
6.974

>  <logP>
2.554

>  <lumo_energy>
0.101

>  <melting_point>
45.17

>  <molecular_refractivity>
47.55

>  <oscillator_strength_1>
0.0038

>  <oscillator_strength_2>
0.0173

>  <oscillator_strength_3>
0.0272

>  <oscillator_strength_4>
0.0022

>  <open_babel_can_smiles>
CCC(C(=N)O)(CC=C)CC

>  <mulliken_charges>
28
1   -0.34044
2   -0.470345
3   -0.463461
4   -0.045966
5   -0.250689
6   -0.271307
7   -0.395112
8   0.480907
9   0.017971
10   -0.598156
11   -0.589643
12   0.147247
13   0.141241
14   0.15147
15   0.140699
16   0.17283
17   0.150459
18   0.170501
19   0.14372
20   0.140117
21   0.14657
22   0.136349
23   0.133398
24   0.141922
25   0.144893
26   0.163279
27   0.284603
28   0.416944

>  <lowdin_charges>
28
1   -0.332277
2   -0.451419
3   -0.453062
4   -0.148237
5   -0.268258
6   -0.272054
7   -0.29526
8   0.128007
9   -0.02628
10   -0.406272
11   -0.36509
12   0.160695
13   0.156434
14   0.156905
15   0.143205
16   0.159396
17   0.156945
18   0.159468
19   0.146305
20   0.156626
21   0.14794
22   0.14435
23   0.142625
24   0.145341
25   0.149045
26   0.157089
27   0.253677
28   0.354156

$$$$

