PCCDB-ID:  14601
public computational chemistry database (PCCDB) project, http://pccdb.org

 43 44  0  0  1  0  0  0  0  0999 V2000
    1.4966    0.9955    1.2546 C   0  0  0  0  0  0  0  0  0  0  0  0
    2.9844    2.5089   -0.0068 C   0  0  0  0  0  0  0  0  0  0  0  0
    4.4232   -0.2004    0.4046 C   0  0  0  0  0  0  0  0  0  0  0  0
    2.4280   -5.3075   -3.1438 C   0  0  0  0  0  0  0  0  0  0  0  0
    1.5970   -3.1404   -3.9844 C   0  0  0  0  0  0  0  0  0  0  0  0
    2.3152    1.0784   -2.5208 C   0  0  0  0  0  0  0  0  0  0  0  0
    3.5393    0.2994   -1.9601 C   0  0  0  0  0  0  0  0  0  0  0  0
    0.4321   -0.1283   -1.3489 C   0  0  0  0  0  0  0  0  0  0  0  0
    0.4467   -2.5478   -1.3475 C   0  0  0  0  0  0  0  0  0  0  0  0
    2.3752   -1.3509   -0.4587 C   0  0  0  0  0  0  0  0  0  0  0  0
    1.3103    1.1320   -1.3410 C   0  0  1  0  0  0  0  0  0  0  0  0
    1.2202   -3.8518   -1.6121 C   0  0  0  0  0  0  0  0  0  0  0  0
    2.2344    1.1596   -0.0872 C   0  0  0  0  0  0  0  0  0  0  0  0
    3.1837   -0.0315   -0.4806 C   0  0  1  0  0  0  0  0  0  0  0  0
    1.7751   -4.0390   -2.8542 N   0  0  0  0  0  0  0  0  0  0  0  0
    1.2599   -1.3381   -1.4159 N   0  0  0  0  0  0  0  0  0  0  0  0
    1.3126   -4.6904   -0.7190 O   0  0  0  0  0  0  0  0  0  0  0  0
    2.2101    0.9941    2.0876 H   0  0  0  0  0  0  0  0  0  0  0  0
    0.9058    0.0809    1.3315 H   0  0  0  0  0  0  0  0  0  0  0  0
    0.8141    1.8395    1.4155 H   0  0  0  0  0  0  0  0  0  0  0  0
    2.2625    3.3325    0.0591 H   0  0  0  0  0  0  0  0  0  0  0  0
    3.6257    2.7032   -0.8707 H   0  0  0  0  0  0  0  0  0  0  0  0
    3.6137    2.5571    0.8887 H   0  0  0  0  0  0  0  0  0  0  0  0
    5.0550   -1.0160    0.0319 H   0  0  0  0  0  0  0  0  0  0  0  0
    4.1556   -0.4415    1.4406 H   0  0  0  0  0  0  0  0  0  0  0  0
    5.0339    0.7082    0.4169 H   0  0  0  0  0  0  0  0  0  0  0  0
    3.4245   -5.1321   -3.5682 H   0  0  0  0  0  0  0  0  0  0  0  0
    1.8439   -5.8927   -3.8684 H   0  0  0  0  0  0  0  0  0  0  0  0
    2.5146   -5.8697   -2.2152 H   0  0  0  0  0  0  0  0  0  0  0  0
    0.8097   -3.4965   -4.6661 H   0  0  0  0  0  0  0  0  0  0  0  0
    2.5336   -3.0892   -4.5529 H   0  0  0  0  0  0  0  0  0  0  0  0
    1.3653   -2.1365   -3.6315 H   0  0  0  0  0  0  0  0  0  0  0  0
    1.8778    0.5841   -3.3941 H   0  0  0  0  0  0  0  0  0  0  0  0
    2.5976    2.0889   -2.8340 H   0  0  0  0  0  0  0  0  0  0  0  0
    4.4511    0.9057   -2.0068 H   0  0  0  0  0  0  0  0  0  0  0  0
    3.7380   -0.6161   -2.5260 H   0  0  0  0  0  0  0  0  0  0  0  0
   -0.2105   -0.1161   -2.2404 H   0  0  0  0  0  0  0  0  0  0  0  0
   -0.2470   -0.1331   -0.4769 H   0  0  0  0  0  0  0  0  0  0  0  0
   -0.0119   -2.6916   -0.3549 H   0  0  0  0  0  0  0  0  0  0  0  0
   -0.3691   -2.4489   -2.0762 H   0  0  0  0  0  0  0  0  0  0  0  0
    2.0349   -1.5746    0.5682 H   0  0  0  0  0  0  0  0  0  0  0  0
    3.0433   -2.1729   -0.7429 H   0  0  0  0  0  0  0  0  0  0  0  0
    0.6554    2.0115   -1.3868 H   0  0  0  0  0  0  0  0  0  0  0  0
  1 19  1  0  0  0  0
  1 20  1  0  0  0  0
  1 18  1  0  0  0  0
  2 21  1  0  0  0  0
  2 23  1  0  0  0  0
  3 26  1  0  0  0  0
  3 25  1  0  0  0  0
  4 15  1  0  0  0  0
  4 29  1  0  0  0  0
  5 32  1  0  0  0  0
  5 15  1  0  0  0  0
  6  7  1  0  0  0  0
  6 11  1  0  0  0  0
  7 14  1  0  0  0  0
  8 11  1  0  0  0  0
  8 38  1  0  0  0  0
  9 39  1  0  0  0  0
 10 41  1  0  0  0  0
 11 43  1  6  0  0  0
 11 13  1  0  0  0  0
 12  9  1  0  0  0  0
 12 17  2  0  0  0  0
 13  2  1  0  0  0  0
 13  1  1  0  0  0  0
 14 10  1  0  0  0  0
 14 13  1  0  0  0  0
 14  3  1  1  0  0  0
 15 12  1  0  0  0  0
 16  8  1  0  0  0  0
 16  9  1  0  0  0  0
 16 10  1  0  0  0  0
 22  2  1  0  0  0  0
 24  3  1  0  0  0  0
 27  4  1  0  0  0  0
 28  4  1  0  0  0  0
 30  5  1  0  0  0  0
 31  5  1  0  0  0  0
 33  6  1  0  0  0  0
 34  6  1  0  0  0  0
 35  7  1  0  0  0  0
 36  7  1  0  0  0  0
 37  8  1  0  0  0  0
 40  9  1  0  0  0  0
 42 10  1  0  0  0  0
M  END
>  <HBA>
3

>  <HBD>
0

>  <TPSA>
23.55

>  <cid>
14601

>  <dipole>
3.19

>  <excitation_energy_1>
5.129

>  <excitation_energy_2>
5.309

>  <excitation_energy_3>
5.442

>  <excitation_energy_4>
5.596

>  <homo_energy>
-5.815

>  <homo_lumo_gap>
6.514

>  <logP>
1.771

>  <lumo_energy>
0.699

>  <melting_point>
77.32

>  <molecular_refractivity>
74.57

>  <oscillator_strength_1>
0.0021

>  <oscillator_strength_2>
0.0013

>  <oscillator_strength_3>
0.0031

>  <oscillator_strength_4>
0.026

>  <open_babel_can_smiles>
O=C(N(C)C)CN1C[C@@H]2CC[C@](C1)(C2(C)C)C

>  <mulliken_charges>
43
1   -0.472965
2   -0.468094
3   -0.473877
4   -0.320336
5   -0.329965
6   -0.273489
7   -0.277439
8   -0.123688
9   -0.206271
10   -0.130314
11   -0.114715
12   0.567121
13   0.104415
14   0.076931
15   -0.393403
16   -0.421475
17   -0.518132
18   0.143388
19   0.150637
20   0.139249
21   0.138836
22   0.146444
23   0.144072
24   0.143945
25   0.144182
26   0.145576
27   0.148004
28   0.149332
29   0.20379
30   0.146577
31   0.15342
32   0.202458
33   0.135078
34   0.133844
35   0.129802
36   0.138021
37   0.131636
38   0.120521
39   0.150188
40   0.146675
41   0.126373
42   0.149681
43   0.113968

>  <lowdin_charges>
43
1   -0.451588
2   -0.447566
3   -0.443983
4   -0.357876
5   -0.362236
6   -0.284013
7   -0.284314
8   -0.203096
9   -0.224572
10   -0.20317
11   -0.138079
12   0.149582
13   0.002336
14   -0.001165
15   -0.104189
16   -0.191321
17   -0.316264
18   0.150723
19   0.150121
20   0.150099
21   0.148848
22   0.151677
23   0.149843
24   0.152052
25   0.148342
26   0.151453
27   0.146958
28   0.147403
29   0.184105
30   0.142732
31   0.152666
32   0.177017
33   0.145998
34   0.142014
35   0.140504
36   0.148634
37   0.139878
38   0.124183
39   0.144342
40   0.153046
41   0.127234
42   0.150488
43   0.141156

$$$$

