PCCDB-ID:  36654
public computational chemistry database (PCCDB) project, http://pccdb.org

 22 22  0  0  0  0  0  0  0  0999 V2000
    0.7691    0.6567   -0.0071 C   0  0  0  0  0  0  0  0  0  0  0  0
    2.2986    0.5861    0.0439 C   0  0  0  0  0  0  0  0  0  0  0  0
    2.9418    1.9014    0.4994 C   0  0  0  0  0  0  0  0  0  0  0  0
    4.4814    1.8255    0.5452 C   0  0  0  0  0  0  0  0  0  0  0  0
    5.8826    3.4389    2.0103 C   0  0  0  0  0  0  0  0  0  0  0  0
    6.2410    4.8911    1.8986 C   0  0  0  0  0  0  0  0  0  0  0  0
    5.1273    3.1030    0.9601 C   0  0  0  0  0  0  0  0  0  0  0  0
    5.5468    5.2987    0.5992 C   0  0  0  0  0  0  0  0  0  0  0  0
    5.5122    6.3612    0.0437 O   0  0  0  0  0  0  0  0  0  0  0  0
    4.9010    4.1817    0.0941 O   0  0  0  0  0  0  0  0  0  0  0  0
    0.3371   -0.2952   -0.3357 H   0  0  0  0  0  0  0  0  0  0  0  0
    0.4320    1.4345   -0.7029 H   0  0  0  0  0  0  0  0  0  0  0  0
    0.3497    0.8905    0.9791 H   0  0  0  0  0  0  0  0  0  0  0  0
    2.6865    0.3183   -0.9492 H   0  0  0  0  0  0  0  0  0  0  0  0
    2.6064   -0.2238    0.7207 H   0  0  0  0  0  0  0  0  0  0  0  0
    2.5672    2.1707    1.4965 H   0  0  0  0  0  0  0  0  0  0  0  0
    2.6437    2.7132   -0.1757 H   0  0  0  0  0  0  0  0  0  0  0  0
    4.8570    1.5457   -0.4494 H   0  0  0  0  0  0  0  0  0  0  0  0
    4.8005    1.0396    1.2403 H   0  0  0  0  0  0  0  0  0  0  0  0
    6.1879    2.7701    2.8038 H   0  0  0  0  0  0  0  0  0  0  0  0
    7.3176    5.0898    1.8152 H   0  0  0  0  0  0  0  0  0  0  0  0
    5.8706    5.5167    2.7213 H   0  0  0  0  0  0  0  0  0  0  0  0
  1  2  1  0  0  0  0
  1 13  1  0  0  0  0
  2  3  1  0  0  0  0
  2 15  1  0  0  0  0
  3  4  1  0  0  0  0
  3 16  1  0  0  0  0
  4  7  1  0  0  0  0
  4 19  1  0  0  0  0
  5 20  1  0  0  0  0
  6  5  1  0  0  0  0
  6 22  1  0  0  0  0
  7  5  2  0  0  0  0
  8  6  1  0  0  0  0
  9  8  2  0  0  0  0
 10  8  1  0  0  0  0
 10  7  1  0  0  0  0
 11  1  1  0  0  0  0
 12  1  1  0  0  0  0
 14  2  1  0  0  0  0
 17  3  1  0  0  0  0
 18  4  1  0  0  0  0
 21  6  1  0  0  0  0
M  END
>  <HBA>
2

>  <HBD>
0

>  <TPSA>
26.3

>  <cid>
36654

>  <dipole>
3.87

>  <excitation_energy_1>
5.382

>  <excitation_energy_2>
5.503

>  <excitation_energy_3>
5.829

>  <excitation_energy_4>
6.366

>  <homo_energy>
-6.468

>  <homo_lumo_gap>
6.212

>  <logP>
2.007

>  <lumo_energy>
-0.256

>  <melting_point>
20.34

>  <molecular_refractivity>
39.27

>  <oscillator_strength_1>
0.0578

>  <oscillator_strength_2>
0.0005

>  <oscillator_strength_3>
0.0094

>  <oscillator_strength_4>
0.0277

>  <open_babel_can_smiles>
CCCCC1=CCC(=O)O1

>  <mulliken_charges>
22
1   -0.44277
2   -0.248806
3   -0.255897
4   -0.349357
5   -0.224549
6   -0.409097
7   0.39884
8   0.608705
9   -0.442864
10   -0.480255
11   0.144991
12   0.147212
13   0.143658
14   0.135322
15   0.131237
16   0.13695
17   0.158915
18   0.161813
19   0.15107
20   0.1444
21   0.195272
22   0.19521

>  <lowdin_charges>
22
1   -0.444491
2   -0.272393
3   -0.2733
4   -0.275843
5   -0.242109
6   -0.301894
7   0.101873
8   0.209807
9   -0.218903
10   -0.165771
11   0.151337
12   0.150353
13   0.147323
14   0.140802
15   0.139807
16   0.143069
17   0.153954
18   0.161191
19   0.158757
20   0.171184
21   0.181391
22   0.183859

$$$$

