PCCDB-ID:  612
public computational chemistry database (PCCDB) project, http://pccdb.org

 12 11  0  0  1  0  0  0  0  0999 V2000
    1.0519   -0.1769    0.0037 C   0  0  0  0  0  0  0  0  0  0  0  0
    2.5594    0.1181   -0.0526 C   0  0  1  0  0  0  0  0  0  0  0  0
    3.0090    0.4887   -1.4717 C   0  0  0  0  0  0  0  0  0  0  0  0
    2.8833    1.1692    0.8215 O   0  0  0  0  0  0  0  0  0  0  0  0
    3.4768    1.5738   -1.7288 O   0  0  0  0  0  0  0  0  0  0  0  0
    2.8576   -0.4460   -2.4335 O   0  0  0  0  0  0  0  0  0  0  0  0
    0.7696   -1.0478   -0.6013 H   0  0  0  0  0  0  0  0  0  0  0  0
    0.4834    0.6916   -0.3430 H   0  0  0  0  0  0  0  0  0  0  0  0
    0.7708   -0.3809    1.0404 H   0  0  0  0  0  0  0  0  0  0  0  0
    3.1140   -0.7899    0.2433 H   0  0  0  0  0  0  0  0  0  0  0  0
    3.2688    1.8699    0.2601 H   0  0  0  0  0  0  0  0  0  0  0  0
    2.4802   -1.2582   -2.0554 H   0  0  0  0  0  0  0  0  0  0  0  0
  1  9  1  0  0  0  0
  2  1  1  0  0  0  0
  2 10  1  1  0  0  0
  2  4  1  0  0  0  0
  3  2  1  0  0  0  0
  5  3  2  0  0  0  0
  6 12  1  0  0  0  0
  6  3  1  0  0  0  0
  7  1  1  0  0  0  0
  8  1  1  0  0  0  0
 11  4  1  0  0  0  0
M  END
>  <HBA>
3

>  <HBD>
2

>  <TPSA>
57.53

>  <cid>
612

>  <dipole>
3.44

>  <excitation_energy_1>
5.89

>  <excitation_energy_2>
6.272

>  <excitation_energy_3>
6.784

>  <excitation_energy_4>
7.011

>  <homo_energy>
-7.581

>  <homo_lumo_gap>
7.383

>  <logP>
-0.548

>  <lumo_energy>
-0.199

>  <melting_point>
71.21

>  <molecular_refractivity>
19.47

>  <oscillator_strength_1>
0.0009

>  <oscillator_strength_2>
0.0211

>  <oscillator_strength_3>
0.0123

>  <oscillator_strength_4>
0.0143

>  <open_babel_can_smiles>
OC(=O)[C@@H](O)C

>  <mulliken_charges>
12
1   -0.453706
2   0.05352
3   0.579281
4   -0.630304
5   -0.451872
6   -0.555559
7   0.125839
8   0.172552
9   0.18221
10   0.144641
11   0.41459
12   0.418807

>  <lowdin_charges>
12
1   -0.452922
2   -0.040153
3   0.179352
4   -0.454712
5   -0.240425
6   -0.335614
7   0.14336
8   0.166075
9   0.171054
10   0.144464
11   0.354789
12   0.36473

$$$$

