PCCDB-ID:  22512
public computational chemistry database (PCCDB) project, http://pccdb.org

 25 24  0  0  1  0  0  0  0  0999 V2000
    0.5876    2.2002    0.3322 C   0  0  0  0  0  0  0  0  0  0  0  0
    5.8459    3.6497    4.1467 C   0  0  0  0  0  0  0  0  0  0  0  0
    5.4778    0.7857    0.5304 C   0  0  0  0  0  0  0  0  0  0  0  0
    1.7906    1.9473    1.2464 C   0  0  0  0  0  0  0  0  0  0  0  0
    5.2173    2.3979    3.5395 C   0  0  0  0  0  0  0  0  0  0  0  0
    3.0662    1.5973    0.4686 C   0  0  0  0  0  0  0  0  0  0  0  0
    4.2873    1.3141    1.3596 C   0  0  2  0  0  0  0  0  0  0  0  0
    4.7519    2.5754    2.1001 C   0  0  0  0  0  0  0  0  0  0  0  0
    4.7735    3.6613    1.5484 O   0  0  0  0  0  0  0  0  0  0  0  0
   -0.3081    2.4529    0.9110 H   0  0  0  0  0  0  0  0  0  0  0  0
    0.3553    1.3144   -0.2720 H   0  0  0  0  0  0  0  0  0  0  0  0
    0.7834    3.0300   -0.3577 H   0  0  0  0  0  0  0  0  0  0  0  0
    6.1393    3.4719    5.1866 H   0  0  0  0  0  0  0  0  0  0  0  0
    5.1440    4.4883    4.1216 H   0  0  0  0  0  0  0  0  0  0  0  0
    6.7346    3.9537    3.5849 H   0  0  0  0  0  0  0  0  0  0  0  0
    5.2010   -0.1389    0.0119 H   0  0  0  0  0  0  0  0  0  0  0  0
    6.3504    0.5693    1.1580 H   0  0  0  0  0  0  0  0  0  0  0  0
    5.7759    1.5253   -0.2207 H   0  0  0  0  0  0  0  0  0  0  0  0
    1.5539    1.1327    1.9467 H   0  0  0  0  0  0  0  0  0  0  0  0
    1.9729    2.8407    1.8583 H   0  0  0  0  0  0  0  0  0  0  0  0
    4.3404    2.0745    4.1223 H   0  0  0  0  0  0  0  0  0  0  0  0
    5.9079    1.5422    3.5759 H   0  0  0  0  0  0  0  0  0  0  0  0
    3.3184    2.4220   -0.2097 H   0  0  0  0  0  0  0  0  0  0  0  0
    2.8785    0.7139   -0.1579 H   0  0  0  0  0  0  0  0  0  0  0  0
    4.0236    0.5499    2.1054 H   0  0  0  0  0  0  0  0  0  0  0  0
  1 10  1  0  0  0  0
  1  4  1  0  0  0  0
  2 13  1  0  0  0  0
  3 17  1  0  0  0  0
  3  7  1  0  0  0  0
  4 20  1  0  0  0  0
  4 19  1  0  0  0  0
  5 22  1  0  0  0  0
  5 21  1  0  0  0  0
  5  2  1  0  0  0  0
  6  4  1  0  0  0  0
  6  7  1  0  0  0  0
  7  8  1  0  0  0  0
  7 25  1  1  0  0  0
  8  5  1  0  0  0  0
  9  8  2  0  0  0  0
 11  1  1  0  0  0  0
 12  1  1  0  0  0  0
 14  2  1  0  0  0  0
 15  2  1  0  0  0  0
 16  3  1  0  0  0  0
 18  3  1  0  0  0  0
 23  6  1  0  0  0  0
 24  6  1  0  0  0  0
M  END
>  <HBA>
1

>  <HBD>
0

>  <TPSA>
17.07

>  <cid>
22512

>  <dipole>
2.44

>  <excitation_energy_1>
4.361

>  <excitation_energy_2>
5.965

>  <excitation_energy_3>
6.522

>  <excitation_energy_4>
6.656

>  <homo_energy>
-6.495

>  <homo_lumo_gap>
6.245

>  <logP>
2.402

>  <lumo_energy>
-0.25

>  <melting_point>
-6.5

>  <molecular_refractivity>
40.77

>  <oscillator_strength_1>
0.0006

>  <oscillator_strength_2>
0.0042

>  <oscillator_strength_3>
0.0108

>  <oscillator_strength_4>
0.0031

>  <open_babel_can_smiles>
CCC[C@H](C(=O)CC)C

>  <mulliken_charges>
25
1   -0.442349
2   -0.433098
3   -0.457112
4   -0.260198
5   -0.356983
6   -0.243751
7   -0.15611
8   0.466222
9   -0.461593
10   0.142001
11   0.140076
12   0.148075
13   0.139341
14   0.163655
15   0.157717
16   0.152144
17   0.144455
18   0.166454
19   0.124809
20   0.143637
21   0.162755
22   0.15688
23   0.154974
24   0.124252
25   0.123747

>  <lowdin_charges>
25
1   -0.444651
2   -0.440583
3   -0.438768
4   -0.276825
5   -0.310482
6   -0.273968
7   -0.15633
8   0.165523
9   -0.24275
10   0.149995
11   0.145939
12   0.150367
13   0.148829
14   0.160868
15   0.157688
16   0.154586
17   0.149613
18   0.160447
19   0.136235
20   0.145123
21   0.163488
22   0.159021
23   0.154663
24   0.140384
25   0.141587

$$$$

