PCCDB-ID:  71669
public computational chemistry database (PCCDB) project, http://pccdb.org

 34 36  0  0  1  0  0  0  0  0999 V2000
    2.4872    1.0742   -0.0336 C   0  0  0  0  0  0  0  0  0  0  0  0
    2.5887   -0.3249    0.1440 C   0  0  0  0  0  0  0  0  0  0  0  0
   -1.5744   -4.8156    1.9647 C   0  0  0  0  0  0  0  0  0  0  0  0
   -2.4942   -5.4237    0.8999 C   0  0  0  0  0  0  0  0  0  0  0  0
    1.2433    1.6536   -0.1148 C   0  0  0  0  0  0  0  0  0  0  0  0
    1.4604   -1.1094    0.2335 C   0  0  0  0  0  0  0  0  0  0  0  0
   -1.5032   -3.2906    1.8210 C   0  0  0  0  0  0  0  0  0  0  0  0
   -2.0044   -5.0740   -0.5153 C   0  0  0  0  0  0  0  0  0  0  0  0
   -1.2176    1.4807   -0.1028 C   0  0  0  0  0  0  0  0  0  0  0  0
   -2.3574    0.7251    0.0031 C   0  0  0  0  0  0  0  0  0  0  0  0
    0.0600    0.8734   -0.0237 C   0  0  0  0  0  0  0  0  0  0  0  0
    0.1502   -0.5523    0.1520 C   0  0  0  0  0  0  0  0  0  0  0  0
   -1.0361   -2.8422    0.4077 C   0  0  1  0  0  0  0  0  0  0  0  0
   -1.7700   -3.5810   -0.7335 C   0  0  0  0  0  0  0  0  0  0  0  0
   -2.2688   -0.6757    0.1781 C   0  0  0  0  0  0  0  0  0  0  0  0
   -1.0479   -1.3347    0.2386 C   0  0  0  0  0  0  0  0  0  0  0  0
   -2.0634   -3.0443   -1.7821 O   0  0  0  0  0  0  0  0  0  0  0  0
   -3.4136   -1.4205    0.3131 O   0  0  0  0  0  0  0  0  0  0  0  0
    3.3854    1.6814   -0.1035 H   0  0  0  0  0  0  0  0  0  0  0  0
    3.5695   -0.7885    0.2121 H   0  0  0  0  0  0  0  0  0  0  0  0
   -0.5674   -5.2491    1.8694 H   0  0  0  0  0  0  0  0  0  0  0  0
   -1.9319   -5.0749    2.9691 H   0  0  0  0  0  0  0  0  0  0  0  0
   -3.5137   -5.0379    1.0376 H   0  0  0  0  0  0  0  0  0  0  0  0
   -2.5521   -6.5134    1.0112 H   0  0  0  0  0  0  0  0  0  0  0  0
    1.1426    2.7283   -0.2492 H   0  0  0  0  0  0  0  0  0  0  0  0
    1.5873   -2.1771    0.3755 H   0  0  0  0  0  0  0  0  0  0  0  0
   -0.8145   -2.8662    2.5614 H   0  0  0  0  0  0  0  0  0  0  0  0
   -2.4899   -2.8597    2.0205 H   0  0  0  0  0  0  0  0  0  0  0  0
   -2.6936   -5.4181   -1.2925 H   0  0  0  0  0  0  0  0  0  0  0  0
   -1.0407   -5.5773   -0.6947 H   0  0  0  0  0  0  0  0  0  0  0  0
   -1.2843    2.5570   -0.2402 H   0  0  0  0  0  0  0  0  0  0  0  0
   -3.3392    1.1934   -0.0459 H   0  0  0  0  0  0  0  0  0  0  0  0
   -0.0062   -3.2082    0.2998 H   0  0  0  0  0  0  0  0  0  0  0  0
   -4.1764   -0.8731    0.0727 H   0  0  0  0  0  0  0  0  0  0  0  0
  1  2  1  0  0  0  0
  2 20  1  0  0  0  0
  2  6  2  0  0  0  0
  3 22  1  0  0  0  0
  4 24  1  0  0  0  0
  4 23  1  0  0  0  0
  4  3  1  0  0  0  0
  5  1  2  0  0  0  0
  5 11  1  0  0  0  0
  6 26  1  0  0  0  0
  7  3  1  0  0  0  0
  7 28  1  0  0  0  0
  7 27  1  0  0  0  0
  8  4  1  0  0  0  0
  9 11  2  0  0  0  0
  9 10  1  0  0  0  0
 10 15  2  0  0  0  0
 11 12  1  0  0  0  0
 12  6  1  0  0  0  0
 12 16  2  0  0  0  0
 13 33  1  6  0  0  0
 13  7  1  0  0  0  0
 14  8  1  0  0  0  0
 14 13  1  0  0  0  0
 15 16  1  0  0  0  0
 15 18  1  0  0  0  0
 16 13  1  0  0  0  0
 17 14  2  0  0  0  0
 19  1  1  0  0  0  0
 21  3  1  0  0  0  0
 25  5  1  0  0  0  0
 29  8  1  0  0  0  0
 30  8  1  0  0  0  0
 31  9  1  0  0  0  0
 32 10  1  0  0  0  0
 34 18  1  0  0  0  0
M  END
>  <HBA>
2

>  <HBD>
1

>  <TPSA>
37.3

>  <cid>
71669

>  <dipole>
2.08

>  <excitation_energy_1>
4.012

>  <excitation_energy_2>
4.252

>  <excitation_energy_3>
4.398

>  <excitation_energy_4>
4.426

>  <homo_energy>
-5.434

>  <homo_lumo_gap>
4.533

>  <logP>
3.772

>  <lumo_energy>
-0.901

>  <melting_point>
134.11

>  <molecular_refractivity>
73.06

>  <oscillator_strength_1>
0.0701

>  <oscillator_strength_2>
0.0006

>  <oscillator_strength_3>
0.0001

>  <oscillator_strength_4>
0.014

>  <open_babel_can_smiles>
O=C1CCCC[C@@H]1c1c(O)ccc2c1cccc2

>  <mulliken_charges>
34
1   -0.137918
2   -0.132561
3   -0.26653
4   -0.26455
5   -0.19448
6   -0.203751
7   -0.268645
8   -0.34874
9   -0.202481
10   -0.181098
11   0.144179
12   0.069587
13   -0.27444
14   0.478749
15   0.311592
16   0.084589
17   -0.454806
18   -0.657026
19   0.127132
20   0.126726
21   0.127411
22   0.138016
23   0.145691
24   0.137791
25   0.127042
26   0.127646
27   0.139832
28   0.166861
29   0.16278
30   0.15412
31   0.132187
32   0.120301
33   0.154173
34   0.410618

>  <lowdin_charges>
34
1   -0.168757
2   -0.1547
3   -0.278465
4   -0.272675
5   -0.150286
6   -0.168076
7   -0.278334
8   -0.30765
9   -0.144109
10   -0.199094
11   -0.009895
12   0.005036
13   -0.15633
14   0.162682
15   0.103165
16   -0.033043
17   -0.231604
18   -0.379321
19   0.158091
20   0.156775
21   0.135642
22   0.147994
23   0.145104
24   0.145165
25   0.154306
26   0.153438
27   0.149855
28   0.155722
29   0.1652
30   0.159451
31   0.157661
32   0.154162
33   0.162266
34   0.360623

$$$$

