PCCDB-ID:  28087
public computational chemistry database (PCCDB) project, http://pccdb.org

 37 36  0  0  0  0  0  0  0  0999 V2000
    3.1746   -2.1702   -3.3220 C   0  0  0  0  0  0  0  0  0  0  0  0
    5.0082   -0.0015    6.4833 C   0  0  0  0  0  0  0  0  0  0  0  0
    7.4622   -3.4194    5.3302 C   0  0  0  0  0  0  0  0  0  0  0  0
    2.6349   -1.4334   -2.0906 C   0  0  0  0  0  0  0  0  0  0  0  0
    5.3128   -1.1379    5.5049 C   0  0  0  0  0  0  0  0  0  0  0  0
    7.0712   -2.3432    4.3131 C   0  0  0  0  0  0  0  0  0  0  0  0
    5.3504    0.1452    1.8651 C   0  0  0  0  0  0  0  0  0  0  0  0
    6.0459    0.1307    2.8553 C   0  0  0  0  0  0  0  0  0  0  0  0
    3.1615    0.0130   -1.9314 C   0  0  0  0  0  0  0  0  0  0  0  0
    4.4871    0.1823    0.6792 C   0  0  0  0  0  0  0  0  0  0  0  0
    6.8833    0.0763    4.0714 C   0  0  0  0  0  0  0  0  0  0  0  0
    4.6574    0.0832   -1.6681 C   0  0  0  0  0  0  0  0  0  0  0  0
    5.2658    0.1421   -0.5580 N   0  0  0  0  0  0  0  0  0  0  0  0
    6.6708   -1.0807    4.9504 N   0  0  0  0  0  0  0  0  0  0  0  0
    5.4515    0.0394   -2.7852 O   0  0  0  0  0  0  0  0  0  0  0  0
    2.7387   -3.1722   -3.3965 H   0  0  0  0  0  0  0  0  0  0  0  0
    4.2629   -2.2826   -3.2801 H   0  0  0  0  0  0  0  0  0  0  0  0
    2.9206   -1.6340   -4.2464 H   0  0  0  0  0  0  0  0  0  0  0  0
    4.0287   -0.1623    6.9480 H   0  0  0  0  0  0  0  0  0  0  0  0
    4.9767    0.9755    5.9896 H   0  0  0  0  0  0  0  0  0  0  0  0
    5.7651    0.0371    7.2740 H   0  0  0  0  0  0  0  0  0  0  0  0
    7.7945   -4.3253    4.8096 H   0  0  0  0  0  0  0  0  0  0  0  0
    6.6269   -3.7033    5.9791 H   0  0  0  0  0  0  0  0  0  0  0  0
    8.2784   -3.0613    5.9658 H   0  0  0  0  0  0  0  0  0  0  0  0
    2.8810   -2.0034   -1.1861 H   0  0  0  0  0  0  0  0  0  0  0  0
    1.5397   -1.3882   -2.1429 H   0  0  0  0  0  0  0  0  0  0  0  0
    4.5512   -1.1568    4.7028 H   0  0  0  0  0  0  0  0  0  0  0  0
    5.2228   -2.0869    6.0427 H   0  0  0  0  0  0  0  0  0  0  0  0
    6.2898   -2.7283    3.6327 H   0  0  0  0  0  0  0  0  0  0  0  0
    7.9428   -2.1287    3.6843 H   0  0  0  0  0  0  0  0  0  0  0  0
    2.6293    0.5010   -1.1086 H   0  0  0  0  0  0  0  0  0  0  0  0
    2.9221    0.5904   -2.8364 H   0  0  0  0  0  0  0  0  0  0  0  0
    3.8732    1.0976    0.7211 H   0  0  0  0  0  0  0  0  0  0  0  0
    3.7741   -0.6556    0.7440 H   0  0  0  0  0  0  0  0  0  0  0  0
    6.7305    0.9898    4.6580 H   0  0  0  0  0  0  0  0  0  0  0  0
    7.9411    0.0830    3.7792 H   0  0  0  0  0  0  0  0  0  0  0  0
    4.8897    0.0589   -3.5740 H   0  0  0  0  0  0  0  0  0  0  0  0
  1 17  1  0  0  0  0
  1  4  1  0  0  0  0
  2 19  1  0  0  0  0
  2 21  1  0  0  0  0
  3 24  1  0  0  0  0
  3 23  1  0  0  0  0
  4  9  1  0  0  0  0
  4 25  1  0  0  0  0
  5 28  1  0  0  0  0
  5  2  1  0  0  0  0
  6 14  1  0  0  0  0
  6  3  1  0  0  0  0
  7  8  3  0  0  0  0
  8 11  1  0  0  0  0
  9 12  1  0  0  0  0
  9 31  1  0  0  0  0
 10 33  1  0  0  0  0
 10 34  1  0  0  0  0
 10  7  1  0  0  0  0
 11 35  1  0  0  0  0
 11 14  1  0  0  0  0
 12 13  2  0  0  0  0
 13 10  1  0  0  0  0
 14  5  1  0  0  0  0
 15 12  1  0  0  0  0
 16  1  1  0  0  0  0
 18  1  1  0  0  0  0
 20  2  1  0  0  0  0
 22  3  1  0  0  0  0
 26  4  1  0  0  0  0
 27  5  1  0  0  0  0
 29  6  1  0  0  0  0
 30  6  1  0  0  0  0
 32  9  1  0  0  0  0
 36 11  1  0  0  0  0
 37 15  1  0  0  0  0
M  END
>  <HBA>
3

>  <HBD>
1

>  <TPSA>
32.34

>  <cid>
28087

>  <dipole>
4.53

>  <excitation_energy_1>
5.024

>  <excitation_energy_2>
5.381

>  <excitation_energy_3>
5.433

>  <excitation_energy_4>
5.479

>  <homo_energy>
-5.625

>  <homo_lumo_gap>
5.957

>  <logP>
1.639

>  <lumo_energy>
0.332

>  <melting_point>
38.01

>  <molecular_refractivity>
63.86

>  <oscillator_strength_1>
0.0012

>  <oscillator_strength_2>
0.0082

>  <oscillator_strength_3>
0.0021

>  <oscillator_strength_4>
0.0006

>  <open_babel_can_smiles>
CCC/C(=N\CC#CCN(CC)CC)/O

>  <mulliken_charges>
37
1   -0.468915
2   -0.452803
3   -0.442101
4   -0.247139
5   -0.117119
6   -0.11539
7   0.104185
8   0.011762
9   -0.372012
10   -0.294787
11   -0.30357
12   0.508579
13   -0.413364
14   -0.362656
15   -0.581767
16   0.157079
17   0.170695
18   0.136081
19   0.140143
20   0.148295
21   0.153811
22   0.139238
23   0.144209
24   0.15264
25   0.156407
26   0.146702
27   0.122828
28   0.137354
29   0.12343
30   0.138794
31   0.167931
32   0.140892
33   0.164049
34   0.160003
35   0.169512
36   0.172364
37   0.404639

>  <lowdin_charges>
37
1   -0.453924
2   -0.450368
3   -0.451489
4   -0.264488
5   -0.201726
6   -0.198111
7   -0.081562
8   -0.094259
9   -0.314462
10   -0.183805
11   -0.190506
12   0.127282
13   -0.20252
14   -0.184949
15   -0.36724
16   0.157705
17   0.157218
18   0.142943
19   0.151265
20   0.148199
21   0.154131
22   0.15057
23   0.147381
24   0.154039
25   0.151255
26   0.146712
27   0.125276
28   0.144913
29   0.126752
30   0.147058
31   0.165019
32   0.149972
33   0.156774
34   0.154182
35   0.163563
36   0.16441
37   0.352788

$$$$

