PCCDB-ID:  15081
public computational chemistry database (PCCDB) project, http://pccdb.org

 22 22  0  0  1  0  0  0  0  0999 V2000
    1.0684   -0.1230   -0.3050 C   0  0  0  0  0  0  0  0  0  0  0  0
    1.1487    1.5071    2.5332 C   0  0  0  0  0  0  0  0  0  0  0  0
    3.0561   -1.3035    0.7929 C   0  0  0  0  0  0  0  0  0  0  0  0
    3.1267   -0.0628    2.9278 C   0  0  0  0  0  0  0  0  0  0  0  0
    2.5526   -0.0391    0.0668 C   0  0  2  0  0  0  0  0  0  0  0  0
    2.6152    1.1998    2.2102 C   0  0  1  0  0  0  0  0  0  0  0  0
    1.8388   -2.1684    2.6714 N   0  0  0  0  0  0  0  0  0  0  0  0
    2.6884   -1.2433    2.1944 N   0  0  0  0  0  0  0  0  0  0  0  0
    1.4833   -2.0103    3.8353 O   0  0  0  0  0  0  0  0  0  0  0  0
    2.9048    1.1390    0.8045 O   0  0  0  0  0  0  0  0  0  0  0  0
    0.9335   -0.8491   -1.1155 H   0  0  0  0  0  0  0  0  0  0  0  0
    0.7156    0.8515   -0.6554 H   0  0  0  0  0  0  0  0  0  0  0  0
    0.4421   -0.4417    0.5326 H   0  0  0  0  0  0  0  0  0  0  0  0
    1.0675    1.8545    3.5697 H   0  0  0  0  0  0  0  0  0  0  0  0
    0.5024    0.6310    2.4302 H   0  0  0  0  0  0  0  0  0  0  0  0
    0.7777    2.2985    1.8750 H   0  0  0  0  0  0  0  0  0  0  0  0
    4.1498   -1.3649    0.7184 H   0  0  0  0  0  0  0  0  0  0  0  0
    2.6193   -2.2126    0.3709 H   0  0  0  0  0  0  0  0  0  0  0  0
    2.7391   -0.1449    3.9449 H   0  0  0  0  0  0  0  0  0  0  0  0
    4.2235   -0.0643    2.9549 H   0  0  0  0  0  0  0  0  0  0  0  0
    3.1290    0.0659   -0.8597 H   0  0  0  0  0  0  0  0  0  0  0  0
    3.2225    2.0470    2.5485 H   0  0  0  0  0  0  0  0  0  0  0  0
  1  5  1  0  0  0  0
  1 13  1  0  0  0  0
  2 14  1  0  0  0  0
  3  8  1  0  0  0  0
  4 20  1  0  0  0  0
  4 19  1  0  0  0  0
  5 21  1  6  0  0  0
  5  3  1  0  0  0  0
  5 10  1  0  0  0  0
  6  2  1  0  0  0  0
  6 22  1  1  0  0  0
  6  4  1  0  0  0  0
  7  9  2  0  0  0  0
  8  7  1  0  0  0  0
  8  4  1  0  0  0  0
 10  6  1  0  0  0  0
 11  1  1  0  0  0  0
 12  1  1  0  0  0  0
 15  2  1  0  0  0  0
 16  2  1  0  0  0  0
 17  3  1  0  0  0  0
 18  3  1  0  0  0  0
M  END
>  <HBA>
4

>  <HBD>
0

>  <TPSA>
41.9

>  <cid>
15081

>  <dipole>
2.81

>  <excitation_energy_1>
3.395

>  <excitation_energy_2>
5.125

>  <excitation_energy_3>
5.778

>  <excitation_energy_4>
5.846

>  <homo_energy>
-6.163

>  <homo_lumo_gap>
5.227

>  <logP>
0.715

>  <lumo_energy>
-0.936

>  <melting_point>
8.75

>  <molecular_refractivity>
41.48

>  <oscillator_strength_1>
0.0009

>  <oscillator_strength_2>
0.0911

>  <oscillator_strength_3>
0.025

>  <oscillator_strength_4>
0.0527

>  <open_babel_can_smiles>
C[C@@H]1O[C@H](C)CN(C1)N=O

>  <mulliken_charges>
22
1   -0.468797
2   -0.466654
3   -0.152633
4   -0.174904
5   0.143412
6   0.142011
7   0.147986
8   -0.228164
9   -0.377783
10   -0.496816
11   0.147167
12   0.163358
13   0.162592
14   0.151087
15   0.164161
16   0.160262
17   0.15877
18   0.177728
19   0.197646
20   0.16227
21   0.143068
22   0.144232

>  <lowdin_charges>
22
1   -0.464314
2   -0.461825
3   -0.211897
4   -0.230241
5   -0.001878
6   0.001816
7   0.050106
8   -0.04367
9   -0.27192
10   -0.280906
11   0.1564
12   0.162306
13   0.157649
14   0.157083
15   0.157974
16   0.161574
17   0.151258
18   0.171758
19   0.180081
20   0.155848
21   0.150647
22   0.152149

$$$$

