PCCDB-ID:  31854
public computational chemistry database (PCCDB) project, http://pccdb.org

 21 21  0  0  0  0  0  0  0  0999 V2000
    1.1857   -0.0233   -0.2135 C   0  0  0  0  0  0  0  0  0  0  0  0
    0.8048    4.8611   -0.0582 C   0  0  0  0  0  0  0  0  0  0  0  0
   -2.8048    2.1823   -2.0130 C   0  0  0  0  0  0  0  0  0  0  0  0
    0.3962    1.2510   -0.5103 C   0  0  0  0  0  0  0  0  0  0  0  0
    0.2260    3.4983   -0.4361 C   0  0  0  0  0  0  0  0  0  0  0  0
   -1.4369    2.2707   -1.3376 C   0  0  0  0  0  0  0  0  0  0  0  0
    0.5397   -1.1463   -0.6117 N   0  0  0  0  0  0  0  0  0  0  0  0
    2.0214    4.7698    0.5321 N   0  0  0  0  0  0  0  0  0  0  0  0
   -3.3751    3.3965   -2.2058 N   0  0  0  0  0  0  0  0  0  0  0  0
    0.9528    2.4116   -0.1556 N   0  0  0  0  0  0  0  0  0  0  0  0
   -0.7950    1.1236   -1.1040 N   0  0  0  0  0  0  0  0  0  0  0  0
   -0.9725    3.4848   -1.0243 N   0  0  0  0  0  0  0  0  0  0  0  0
    2.2782    0.0178    0.3266 O   0  0  0  0  0  0  0  0  0  0  0  0
    0.1974    5.8939   -0.2847 O   0  0  0  0  0  0  0  0  0  0  0  0
   -3.2901    1.1083   -2.3262 O   0  0  0  0  0  0  0  0  0  0  0  0
   -0.3674   -1.0870   -1.0551 H   0  0  0  0  0  0  0  0  0  0  0  0
    0.9816   -2.0410   -0.4602 H   0  0  0  0  0  0  0  0  0  0  0  0
    2.4531    3.8676    0.6821 H   0  0  0  0  0  0  0  0  0  0  0  0
    2.4874    5.6180    0.8189 H   0  0  0  0  0  0  0  0  0  0  0  0
   -2.8991    4.2398   -1.9138 H   0  0  0  0  0  0  0  0  0  0  0  0
   -4.2821    3.4431   -2.6462 H   0  0  0  0  0  0  0  0  0  0  0  0
  1 13  2  0  0  0  0
  2  8  1  0  0  0  0
  3  6  1  0  0  0  0
  4  1  1  0  0  0  0
  4 10  2  0  0  0  0
  5 10  2  0  0  0  0
  5  2  1  0  0  0  0
  6 11  2  0  0  0  0
  6 12  1  0  0  0  0
  7 17  1  0  0  0  0
  7  1  1  0  0  0  0
  8 18  1  0  0  0  0
  8 19  1  0  0  0  0
  9  3  1  0  0  0  0
  9 20  1  0  0  0  0
 11  4  1  0  0  0  0
 12  5  1  0  0  0  0
 14  2  2  0  0  0  0
 15  3  2  0  0  0  0
 16  7  1  0  0  0  0
 21  9  1  0  0  0  0
M  RAD  1  12   2
M  END
>  <HBA>
9

>  <HBD>
3

>  <TPSA>
167.94

>  <cid>
31854

>  <dipole>
0.01

>  <excitation_energy_1>
3.408

>  <excitation_energy_2>
3.496

>  <excitation_energy_3>
3.496

>  <excitation_energy_4>
3.639

>  <homo_energy>
-7.236

>  <homo_lumo_gap>
4.487

>  <logP>
-0.731

>  <lumo_energy>
-2.748

>  <melting_point>
321.26

>  <molecular_refractivity>
44.11

>  <oscillator_strength_1>
0.0008

>  <oscillator_strength_2>
0.0

>  <oscillator_strength_3>
0.0

>  <oscillator_strength_4>
0.0005

>  <open_babel_can_smiles>
NC(=O)C1=NC(=[N]=C([N]1)C(=O)N)C(=O)N

>  <mulliken_charges>
21
1   0.58351
2   0.583378
3   0.583342
4   0.42257
5   0.422625
6   0.422614
7   -0.757137
8   -0.757109
9   -0.757074
10   -0.49147
11   -0.491457
12   -0.491449
13   -0.488895
14   -0.488867
15   -0.488845
16   0.37974
17   0.351684
18   0.379744
19   0.351684
20   0.379731
21   0.351682

>  <lowdin_charges>
21
1   0.143569
2   0.149364
3   0.14674
4   0.093011
5   0.091527
6   0.091961
7   -0.438444
8   -0.442595
9   -0.440085
10   -0.13386
11   -0.133897
12   -0.13385
13   -0.271786
14   -0.273524
15   -0.272911
16   0.308508
17   0.299064
18   0.309154
19   0.299927
20   0.309419
21   0.298708

$$$$

