PCCDB-ID:  14994
public computational chemistry database (PCCDB) project, http://pccdb.org

 29 29  0  0  0  0  0  0  0  0999 V2000
    1.2532    1.1965    0.0327 C   0  0  0  0  0  0  0  0  0  0  0  0
    3.6216    0.8646    0.8930 C   0  0  0  0  0  0  0  0  0  0  0  0
    1.9891   -1.0217    0.9020 C   0  0  0  0  0  0  0  0  0  0  0  0
    2.9017   -1.4828   -1.7502 C   0  0  0  0  0  0  0  0  0  0  0  0
    3.7720   -0.9097   -3.9439 C   0  0  0  0  0  0  0  0  0  0  0  0
    3.3215   -1.8443   -3.0384 C   0  0  0  0  0  0  0  0  0  0  0  0
    2.9160   -0.1654   -1.3117 C   0  0  0  0  0  0  0  0  0  0  0  0
    3.7998    0.4234   -3.5336 C   0  0  0  0  0  0  0  0  0  0  0  0
    3.3822    0.8221   -2.2320 C   0  0  0  0  0  0  0  0  0  0  0  0
    2.4519    0.2179    0.1099 C   0  0  0  0  0  0  0  0  0  0  0  0
    3.2795   -3.2565   -3.4345 N   0  0  0  0  0  0  0  0  0  0  0  0
    4.2773    1.3981   -4.5021 N   0  0  0  0  0  0  0  0  0  0  0  0
    3.4143    2.0971   -1.8444 O   0  0  0  0  0  0  0  0  0  0  0  0
    2.8727   -4.0684   -2.6030 O   0  0  0  0  0  0  0  0  0  0  0  0
    3.6530   -3.5415   -4.5715 O   0  0  0  0  0  0  0  0  0  0  0  0
    4.6248    1.0131   -5.6088 O   0  0  0  0  0  0  0  0  0  0  0  0
    4.3158    2.6051   -4.1660 O   0  0  0  0  0  0  0  0  0  0  0  0
    0.9182    1.4438    1.0467 H   0  0  0  0  0  0  0  0  0  0  0  0
    0.4092    0.7370   -0.4949 H   0  0  0  0  0  0  0  0  0  0  0  0
    1.5134    2.1268   -0.4745 H   0  0  0  0  0  0  0  0  0  0  0  0
    3.2909    1.1065    1.9098 H   0  0  0  0  0  0  0  0  0  0  0  0
    3.9716    1.7851    0.4227 H   0  0  0  0  0  0  0  0  0  0  0  0
    4.4668    0.1712    0.9731 H   0  0  0  0  0  0  0  0  0  0  0  0
    1.6630   -0.7045    1.8979 H   0  0  0  0  0  0  0  0  0  0  0  0
    2.7947   -1.7519    1.0393 H   0  0  0  0  0  0  0  0  0  0  0  0
    1.1406   -1.5263    0.4258 H   0  0  0  0  0  0  0  0  0  0  0  0
    2.5614   -2.2783   -1.1029 H   0  0  0  0  0  0  0  0  0  0  0  0
    4.0941   -1.1903   -4.9371 H   0  0  0  0  0  0  0  0  0  0  0  0
    3.7604    2.6256   -2.6122 H   0  0  0  0  0  0  0  0  0  0  0  0
  1 10  1  0  0  0  0
  1 18  1  0  0  0  0
  2 23  1  0  0  0  0
  2 21  1  0  0  0  0
  3 25  1  0  0  0  0
  3 24  1  0  0  0  0
  4  7  1  0  0  0  0
  4 27  1  0  0  0  0
  5  8  2  0  0  0  0
  5  6  1  0  0  0  0
  6  4  2  0  0  0  0
  7 10  1  0  0  0  0
  8  9  1  0  0  0  0
  9 13  1  0  0  0  0
  9  7  2  0  0  0  0
 10  2  1  0  0  0  0
 10  3  1  0  0  0  0
 11  6  1  0  0  0  0
 11 14  2  0  0  0  0
 12 17  2  0  0  0  0
 12  8  1  0  0  0  0
 15 11  2  0  0  0  0
 16 12  2  0  0  0  0
 19  1  1  0  0  0  0
 20  1  1  0  0  0  0
 22  2  1  0  0  0  0
 26  3  1  0  0  0  0
 28  5  1  0  0  0  0
 29 13  1  0  0  0  0
M  END
>  <HBA>
1

>  <HBD>
1

>  <TPSA>
111.87

>  <cid>
14994

>  <dipole>
4.25

>  <excitation_energy_1>
3.426

>  <excitation_energy_2>
3.769

>  <excitation_energy_3>
3.883

>  <excitation_energy_4>
4.118

>  <homo_energy>
-7.355

>  <homo_lumo_gap>
4.136

>  <logP>
3.553

>  <lumo_energy>
-3.219

>  <melting_point>
132.68

>  <molecular_refractivity>
65.38

>  <oscillator_strength_1>
0.0469

>  <oscillator_strength_2>
0.0

>  <oscillator_strength_3>
0.0

>  <oscillator_strength_4>
0.1057

>  <open_babel_can_smiles>
O=N(=O)c1cc(N(=O)=O)c(c(c1)C(C)(C)C)O

>  <mulliken_charges>
29
1   -0.455738
2   -0.454954
3   -0.462895
4   -0.228935
5   -0.208413
6   0.289887
7   0.125833
8   0.25344
9   0.300106
10   0.025735
11   0.382819
12   0.390818
13   -0.627114
14   -0.39623
15   -0.390322
16   -0.36456
17   -0.451181
18   0.146695
19   0.145071
20   0.1754
21   0.146791
22   0.174966
23   0.145102
24   0.153953
25   0.152762
26   0.152729
27   0.194233
28   0.228228
29   0.455774

>  <lowdin_charges>
29
1   -0.446274
2   -0.445681
3   -0.445904
4   -0.126062
5   -0.111984
6   -0.014553
7   -0.016723
8   -0.049797
9   0.136002
10   0.022129
11   0.310381
12   0.317872
13   -0.33636
14   -0.246296
15   -0.241173
16   -0.20778
17   -0.279339
18   0.151948
19   0.151268
20   0.163481
21   0.151863
22   0.163488
23   0.150969
24   0.157751
25   0.153375
26   0.15363
27   0.19773
28   0.212512
29   0.373528

$$$$

