PCCDB-ID:  10976
public computational chemistry database (PCCDB) project, http://pccdb.org

 24 23  0  0  1  0  0  0  0  0999 V2000
    1.4783    0.1818   -0.9746 C   0  0  0  0  0  0  0  0  0  0  0  0
    6.6889   -4.9711    1.2694 C   0  0  0  0  0  0  0  0  0  0  0  0
    2.8938   -0.0439   -0.4335 C   0  0  0  0  0  0  0  0  0  0  0  0
    3.2406   -1.5257   -0.2408 C   0  0  0  0  0  0  0  0  0  0  0  0
    4.6562   -1.7565    0.3024 C   0  0  0  0  0  0  0  0  0  0  0  0
    4.9976   -3.2400    0.4872 C   0  0  0  0  0  0  0  0  0  0  0  0
    6.4134   -3.4887    1.0080 C   0  0  2  0  0  0  0  0  0  0  0  0
    7.3125   -2.9702    0.0210 O   0  0  0  0  0  0  0  0  0  0  0  0
    1.2622    1.2491   -1.1003 H   0  0  0  0  0  0  0  0  0  0  0  0
    0.7233   -0.2332   -0.2954 H   0  0  0  0  0  0  0  0  0  0  0  0
    1.3449   -0.3019   -1.9502 H   0  0  0  0  0  0  0  0  0  0  0  0
    6.0205   -5.3701    2.0415 H   0  0  0  0  0  0  0  0  0  0  0  0
    7.7204   -5.1236    1.6130 H   0  0  0  0  0  0  0  0  0  0  0  0
    6.5490   -5.5522    0.3509 H   0  0  0  0  0  0  0  0  0  0  0  0
    3.0070    0.4820    0.5255 H   0  0  0  0  0  0  0  0  0  0  0  0
    3.6246    0.4118   -1.1167 H   0  0  0  0  0  0  0  0  0  0  0  0
    3.1299   -2.0506   -1.2016 H   0  0  0  0  0  0  0  0  0  0  0  0
    2.5063   -1.9833    0.4398 H   0  0  0  0  0  0  0  0  0  0  0  0
    4.7633   -1.2374    1.2671 H   0  0  0  0  0  0  0  0  0  0  0  0
    5.3923   -1.3049   -0.3734 H   0  0  0  0  0  0  0  0  0  0  0  0
    4.8893   -3.7686   -0.4705 H   0  0  0  0  0  0  0  0  0  0  0  0
    4.2855   -3.7013    1.1859 H   0  0  0  0  0  0  0  0  0  0  0  0
    6.5414   -2.9310    1.9527 H   0  0  0  0  0  0  0  0  0  0  0  0
    8.2138   -3.0648    0.3657 H   0  0  0  0  0  0  0  0  0  0  0  0
  1  3  1  0  0  0  0
  1 10  1  0  0  0  0
  2 13  1  0  0  0  0
  2 12  1  0  0  0  0
  3  4  1  0  0  0  0
  3 15  1  0  0  0  0
  4  5  1  0  0  0  0
  4 18  1  0  0  0  0
  5  6  1  0  0  0  0
  5 19  1  0  0  0  0
  6  7  1  0  0  0  0
  6 22  1  0  0  0  0
  7  2  1  0  0  0  0
  7 23  1  1  0  0  0
  8 24  1  0  0  0  0
  8  7  1  0  0  0  0
  9  1  1  0  0  0  0
 11  1  1  0  0  0  0
 14  2  1  0  0  0  0
 16  3  1  0  0  0  0
 17  4  1  0  0  0  0
 20  5  1  0  0  0  0
 21  6  1  0  0  0  0
M  END
>  <HBA>
1

>  <HBD>
1

>  <TPSA>
20.23

>  <cid>
10976

>  <dipole>
1.51

>  <excitation_energy_1>
6.402

>  <excitation_energy_2>
7.383

>  <excitation_energy_3>
7.499

>  <excitation_energy_4>
7.563

>  <homo_energy>
-7.094

>  <homo_lumo_gap>
9.042

>  <logP>
1.948

>  <lumo_energy>
1.948

>  <melting_point>
-8.61

>  <molecular_refractivity>
36.92

>  <oscillator_strength_1>
0.0108

>  <oscillator_strength_2>
0.033

>  <oscillator_strength_3>
0.0327

>  <oscillator_strength_4>
0.0226

>  <open_babel_can_smiles>
CCCCC[C@H](O)C

>  <mulliken_charges>
24
1   -0.441027
2   -0.45676
3   -0.24616
4   -0.246891
5   -0.256521
6   -0.254936
7   0.141465
8   -0.624951
9   0.140185
10   0.139573
11   0.140851
12   0.141498
13   0.130171
14   0.154542
15   0.128175
16   0.131637
17   0.127047
18   0.121935
19   0.119692
20   0.155394
21   0.137261
22   0.124885
23   0.106477
24   0.386457

>  <lowdin_charges>
24
1   -0.443857
2   -0.460523
3   -0.272979
4   -0.275361
5   -0.276653
6   -0.281324
7   0.002693
8   -0.469436
9   0.146911
10   0.146328
11   0.145574
12   0.153107
13   0.142788
14   0.155164
15   0.13764
16   0.140872
17   0.137297
18   0.13573
19   0.134626
20   0.15314
21   0.145648
22   0.142826
23   0.119689
24   0.340101

$$$$

