PCCDB-ID:  68331
public computational chemistry database (PCCDB) project, http://pccdb.org

 13 13  0  0  0  0  0  0  0  0999 V2000
    0.9184   -0.9699    0.0343 C   0  0  0  0  0  0  0  0  0  0  0  0
    0.3704    1.3080   -0.0060 C   0  0  0  0  0  0  0  0  0  0  0  0
   -1.3206   -0.3590    0.0638 C   0  0  0  0  0  0  0  0  0  0  0  0
   -0.4805   -1.3139   -0.0580 N   0  0  0  0  0  0  0  0  0  0  0  0
   -1.0219    0.9654    0.2813 N   0  0  0  0  0  0  0  0  0  0  0  0
   -2.6555   -0.5860    0.0086 O   0  0  0  0  0  0  0  0  0  0  0  0
    1.1971    0.3342    0.5667 O   0  0  0  0  0  0  0  0  0  0  0  0
    1.3832   -1.0678   -0.9609 H   0  0  0  0  0  0  0  0  0  0  0  0
    1.4243   -1.6580    0.7183 H   0  0  0  0  0  0  0  0  0  0  0  0
    0.6110    2.2662    0.4611 H   0  0  0  0  0  0  0  0  0  0  0  0
    0.5469    1.3792   -1.0951 H   0  0  0  0  0  0  0  0  0  0  0  0
   -1.7453    1.6331    0.0471 H   0  0  0  0  0  0  0  0  0  0  0  0
   -2.7461   -1.5497   -0.0968 H   0  0  0  0  0  0  0  0  0  0  0  0
  1  7  1  0  0  0  0
  1  9  1  0  0  0  0
  2  5  1  0  0  0  0
  2 10  1  0  0  0  0
  2  7  1  0  0  0  0
  3  5  1  0  0  0  0
  4  1  1  0  0  0  0
  4  3  2  0  0  0  0
  6  3  1  0  0  0  0
  8  1  1  0  0  0  0
 11  2  1  0  0  0  0
 12  5  1  0  0  0  0
 13  6  1  0  0  0  0
M  END
>  <HBA>
4

>  <HBD>
2

>  <TPSA>
50.36

>  <cid>
68331

>  <dipole>
2.05

>  <excitation_energy_1>
5.587

>  <excitation_energy_2>
6.038

>  <excitation_energy_3>
6.178

>  <excitation_energy_4>
6.628

>  <homo_energy>
-6.191

>  <homo_lumo_gap>
7.475

>  <logP>
-0.112

>  <lumo_energy>
1.284

>  <melting_point>
75.14

>  <molecular_refractivity>
29.53

>  <oscillator_strength_1>
0.0029

>  <oscillator_strength_2>
0.0052

>  <oscillator_strength_3>
0.0366

>  <oscillator_strength_4>
0.0286

>  <open_babel_can_smiles>
OC1=NCOCN1

>  <mulliken_charges>
13
1   0.073468
2   0.100462
3   0.666283
4   -0.50708
5   -0.60033
6   -0.610276
7   -0.461729
8   0.134843
9   0.160293
10   0.160521
11   0.132719
12   0.332365
13   0.418462

>  <lowdin_charges>
13
1   -0.070571
2   -0.056112
3   0.162016
4   -0.300937
5   -0.316834
6   -0.371387
7   -0.265681
8   0.129423
9   0.156314
10   0.156649
11   0.120298
12   0.291081
13   0.36574

$$$$

