PCCDB-ID:  28024
public computational chemistry database (PCCDB) project, http://pccdb.org

 29 28  0  0  0  0  0  0  0  0999 V2000
   -0.1492    1.5485    0.8151 C   0  0  0  0  0  0  0  0  0  0  0  0
    5.4033    0.4331    1.0504 C   0  0  0  0  0  0  0  0  0  0  0  0
    5.3689    2.7179   -0.0034 C   0  0  0  0  0  0  0  0  0  0  0  0
    1.3978    0.9790   -1.8566 C   0  0  0  0  0  0  0  0  0  0  0  0
    2.0573    3.1101   -0.7158 C   0  0  0  0  0  0  0  0  0  0  0  0
    1.3145    1.1084    0.6747 C   0  0  0  0  0  0  0  0  0  0  0  0
    3.5247    1.0169   -0.5572 C   0  0  0  0  0  0  0  0  0  0  0  0
    4.5015    1.5608    0.5211 C   0  0  0  0  0  0  0  0  0  0  0  0
    2.0704    1.5735   -0.6011 C   0  0  0  0  0  0  0  0  0  0  0  0
   -0.5740    1.1530    1.7451 H   0  0  0  0  0  0  0  0  0  0  0  0
   -0.7729    1.1825   -0.0078 H   0  0  0  0  0  0  0  0  0  0  0  0
   -0.2496    2.6389    0.8507 H   0  0  0  0  0  0  0  0  0  0  0  0
    6.1068    0.8043    1.8056 H   0  0  0  0  0  0  0  0  0  0  0  0
    5.9934   -0.0100    0.2372 H   0  0  0  0  0  0  0  0  0  0  0  0
    4.8120   -0.3699    1.5063 H   0  0  0  0  0  0  0  0  0  0  0  0
    6.0220    3.1093    0.7862 H   0  0  0  0  0  0  0  0  0  0  0  0
    4.7664    3.5495   -0.3804 H   0  0  0  0  0  0  0  0  0  0  0  0
    6.0120    2.3754   -0.8250 H   0  0  0  0  0  0  0  0  0  0  0  0
    0.3622    1.3193   -1.9655 H   0  0  0  0  0  0  0  0  0  0  0  0
    1.3891   -0.1178   -1.8204 H   0  0  0  0  0  0  0  0  0  0  0  0
    1.9371    1.2771   -2.7641 H   0  0  0  0  0  0  0  0  0  0  0  0
    1.0391    3.4877   -0.8616 H   0  0  0  0  0  0  0  0  0  0  0  0
    2.6532    3.4439   -1.5738 H   0  0  0  0  0  0  0  0  0  0  0  0
    2.4606    3.5917    0.1825 H   0  0  0  0  0  0  0  0  0  0  0  0
    1.3563    0.0101    0.7112 H   0  0  0  0  0  0  0  0  0  0  0  0
    1.8624    1.4600    1.5589 H   0  0  0  0  0  0  0  0  0  0  0  0
    3.4401   -0.0727   -0.4387 H   0  0  0  0  0  0  0  0  0  0  0  0
    3.9837    1.1705   -1.5451 H   0  0  0  0  0  0  0  0  0  0  0  0
    3.9208    1.9384    1.3741 H   0  0  0  0  0  0  0  0  0  0  0  0
  1 12  1  0  0  0  0
  1 10  1  0  0  0  0
  2 15  1  0  0  0  0
  2 13  1  0  0  0  0
  3  8  1  0  0  0  0
  3 16  1  0  0  0  0
  4 20  1  0  0  0  0
  4  9  1  0  0  0  0
  5  9  1  0  0  0  0
  5 24  1  0  0  0  0
  6 25  1  0  0  0  0
  6  1  1  0  0  0  0
  6 26  1  0  0  0  0
  7 27  1  0  0  0  0
  7  8  1  0  0  0  0
  8  2  1  0  0  0  0
  8 29  1  0  0  0  0
  9  7  1  0  0  0  0
  9  6  1  0  0  0  0
 11  1  1  0  0  0  0
 14  2  1  0  0  0  0
 17  3  1  0  0  0  0
 18  3  1  0  0  0  0
 19  4  1  0  0  0  0
 21  4  1  0  0  0  0
 22  5  1  0  0  0  0
 23  5  1  0  0  0  0
 28  7  1  0  0  0  0
M  END
>  <HBA>
0

>  <HBD>
0

>  <TPSA>
0.0

>  <cid>
28024

>  <dipole>
0.12

>  <excitation_energy_1>
7.473

>  <excitation_energy_2>
7.569

>  <excitation_energy_3>
7.792

>  <excitation_energy_4>
7.864

>  <homo_energy>
-7.954

>  <homo_lumo_gap>
10.044

>  <logP>
3.469

>  <lumo_energy>
2.09

>  <melting_point>
-9.87

>  <molecular_refractivity>
45.12

>  <oscillator_strength_1>
0.0518

>  <oscillator_strength_2>
0.0135

>  <oscillator_strength_3>
0.0622

>  <oscillator_strength_4>
0.0043

>  <open_babel_can_smiles>
CCC(CC(C)C)(C)C

>  <mulliken_charges>
29
1   -0.454025
2   -0.447719
3   -0.44984
4   -0.450442
5   -0.455169
6   -0.250903
7   -0.261873
8   -0.064557
9   0.102837
10   0.141329
11   0.14519
12   0.145436
13   0.136938
14   0.139081
15   0.139608
16   0.136555
17   0.146991
18   0.137056
19   0.14063
20   0.136039
21   0.137245
22   0.14099
23   0.138678
24   0.14228
25   0.124403
26   0.13106
27   0.12383
28   0.122195
29   0.126152

>  <lowdin_charges>
29
1   -0.448509
2   -0.446875
3   -0.450678
4   -0.441233
5   -0.447685
6   -0.274037
7   -0.274867
8   -0.125323
9   0.01265
10   0.150628
11   0.14807
12   0.1458
13   0.146577
14   0.145963
15   0.147311
16   0.14679
17   0.151174
18   0.144693
19   0.145814
20   0.143473
21   0.146708
22   0.147235
23   0.1478
24   0.148046
25   0.136179
26   0.140702
27   0.137917
28   0.139023
29   0.136652

$$$$

