PCCDB-ID:  17848
public computational chemistry database (PCCDB) project, http://pccdb.org

 30 31  0  0  0  0  0  0  0  0999 V2000
    4.7746    3.2755   -3.3841 C   0  0  0  0  0  0  0  0  0  0  0  0
   10.4617    0.6123   -2.8531 C   0  0  0  0  0  0  0  0  0  0  0  0
    3.8537    1.9356    0.0796 C   0  0  0  0  0  0  0  0  0  0  0  0
    8.7906   -2.8269   -2.7142 C   0  0  0  0  0  0  0  0  0  0  0  0
    3.9329    2.7626   -1.0457 C   0  0  0  0  0  0  0  0  0  0  0  0
    9.7130   -1.8092   -2.9775 C   0  0  0  0  0  0  0  0  0  0  0  0
    4.5501    0.7339    0.1131 C   0  0  0  0  0  0  0  0  0  0  0  0
    7.6036   -2.5391   -2.0517 C   0  0  0  0  0  0  0  0  0  0  0  0
    5.4225    1.1963   -2.0969 C   0  0  0  0  0  0  0  0  0  0  0  0
    8.2523   -0.2101   -1.9350 C   0  0  0  0  0  0  0  0  0  0  0  0
    4.7080    2.4012   -2.1525 C   0  0  0  0  0  0  0  0  0  0  0  0
    9.4625   -0.4902   -2.5845 C   0  0  0  0  0  0  0  0  0  0  0  0
    5.3577    0.3608   -0.9741 C   0  0  0  0  0  0  0  0  0  0  0  0
    7.3162   -1.2184   -1.6700 C   0  0  0  0  0  0  0  0  0  0  0  0
    6.0464   -0.9715   -0.9078 C   0  0  0  0  0  0  0  0  0  0  0  0
    5.5655   -1.8695   -0.2246 O   0  0  0  0  0  0  0  0  0  0  0  0
    4.2026    4.1988   -3.2493 H   0  0  0  0  0  0  0  0  0  0  0  0
    4.3697    2.7584   -4.2630 H   0  0  0  0  0  0  0  0  0  0  0  0
    5.8081    3.5540   -3.6236 H   0  0  0  0  0  0  0  0  0  0  0  0
   11.4063    0.2113   -3.2334 H   0  0  0  0  0  0  0  0  0  0  0  0
   10.6810    1.1836   -1.9434 H   0  0  0  0  0  0  0  0  0  0  0  0
   10.0816    1.3249   -3.5964 H   0  0  0  0  0  0  0  0  0  0  0  0
    3.2398    2.2327    0.9257 H   0  0  0  0  0  0  0  0  0  0  0  0
    9.0093   -3.8463   -3.0209 H   0  0  0  0  0  0  0  0  0  0  0  0
    3.3787    3.6983   -1.0659 H   0  0  0  0  0  0  0  0  0  0  0  0
   10.6438   -2.0456   -3.4881 H   0  0  0  0  0  0  0  0  0  0  0  0
    4.4852    0.0670    0.9664 H   0  0  0  0  0  0  0  0  0  0  0  0
    6.8856   -3.3175   -1.8153 H   0  0  0  0  0  0  0  0  0  0  0  0
    6.0167    0.8947   -2.9550 H   0  0  0  0  0  0  0  0  0  0  0  0
    8.0517    0.8061   -1.6071 H   0  0  0  0  0  0  0  0  0  0  0  0
  1 17  1  0  0  0  0
  1 11  1  0  0  0  0
  2 12  1  0  0  0  0
  2 21  1  0  0  0  0
  3  7  1  0  0  0  0
  3 23  1  0  0  0  0
  4  8  1  0  0  0  0
  5  3  2  0  0  0  0
  6  4  2  0  0  0  0
  6 12  1  0  0  0  0
  7 27  1  0  0  0  0
  8 28  1  0  0  0  0
  8 14  2  0  0  0  0
  9 13  1  0  0  0  0
 10 14  1  0  0  0  0
 10 30  1  0  0  0  0
 11  9  2  0  0  0  0
 11  5  1  0  0  0  0
 12 10  2  0  0  0  0
 13 15  1  0  0  0  0
 13  7  2  0  0  0  0
 14 15  1  0  0  0  0
 15 16  2  0  0  0  0
 18  1  1  0  0  0  0
 19  1  1  0  0  0  0
 20  2  1  0  0  0  0
 22  2  1  0  0  0  0
 24  4  1  0  0  0  0
 25  5  1  0  0  0  0
 26  6  1  0  0  0  0
 29  9  1  0  0  0  0
M  END
>  <HBA>
1

>  <HBD>
0

>  <TPSA>
17.07

>  <cid>
17848

>  <dipole>
3.61

>  <excitation_energy_1>
3.571

>  <excitation_energy_2>
4.31

>  <excitation_energy_3>
4.355

>  <excitation_energy_4>
4.65

>  <homo_energy>
-6.457

>  <homo_lumo_gap>
4.865

>  <logP>
3.534

>  <lumo_energy>
-1.592

>  <melting_point>
73.43

>  <molecular_refractivity>
66.25

>  <oscillator_strength_1>
0.001

>  <oscillator_strength_2>
0.0095

>  <oscillator_strength_3>
0.0657

>  <oscillator_strength_4>
0.2183

>  <open_babel_can_smiles>
Cc1cccc(c1)C(=O)c1cccc(c1)C

>  <mulliken_charges>
30
1   -0.529029
2   -0.529138
3   -0.132232
4   -0.132467
5   -0.173547
6   -0.1734
7   -0.155554
8   -0.155325
9   -0.229725
10   -0.229395
11   0.170644
12   0.170906
13   0.076413
14   0.076163
15   0.318747
16   -0.465755
17   0.156855
18   0.167499
19   0.161976
20   0.157247
21   0.165217
22   0.163899
23   0.135336
24   0.135355
25   0.127605
26   0.127558
27   0.156801
28   0.156461
29   0.140551
30   0.140333

>  <lowdin_charges>
30
1   -0.442098
2   -0.443453
3   -0.154782
4   -0.15322
5   -0.154352
6   -0.154558
7   -0.137341
8   -0.138108
9   -0.161266
10   -0.160128
11   -0.001511
12   -0.001661
13   -0.041462
14   -0.041376
15   0.157815
16   -0.247088
17   0.157992
18   0.163938
19   0.159729
20   0.158193
21   0.162782
22   0.162295
23   0.161353
24   0.159803
25   0.156692
26   0.156873
27   0.174333
28   0.174622
29   0.163821
30   0.162164

$$$$

