PCCDB-ID:  30328
public computational chemistry database (PCCDB) project, http://pccdb.org

 37 37  0  0  1  0  0  0  0  0999 V2000
    0.6789    1.2886    0.7774 C   0  0  0  0  0  0  0  0  0  0  0  0
    4.4311   -1.9893   -0.1379 C   0  0  0  0  0  0  0  0  0  0  0  0
   -1.3618   -3.4402   -5.8458 C   0  0  0  0  0  0  0  0  0  0  0  0
    4.3200    1.8267   -0.2397 C   0  0  0  0  0  0  0  0  0  0  0  0
    2.9927    2.0687    0.1104 C   0  0  0  0  0  0  0  0  0  0  0  0
    4.7769    0.5125   -0.3243 C   0  0  0  0  0  0  0  0  0  0  0  0
   -0.3246   -2.4094   -3.7605 C   0  0  0  0  0  0  0  0  0  0  0  0
    0.8708   -1.5981   -1.7534 C   0  0  0  0  0  0  0  0  0  0  0  0
    2.1061    1.0175    0.3643 C   0  0  0  0  0  0  0  0  0  0  0  0
    3.9249   -0.5682   -0.0755 C   0  0  0  0  0  0  0  0  0  0  0  0
   -0.6456   -3.6989   -4.5232 C   0  0  2  0  0  0  0  0  0  0  0  0
    0.9931   -1.9561   -0.2664 C   0  0  0  0  0  0  0  0  0  0  0  0
    2.5748   -0.3100    0.2506 C   0  0  0  0  0  0  0  0  0  0  0  0
    0.3250   -2.7393   -2.4920 N   0  0  0  0  0  0  0  0  0  0  0  0
    1.7283   -1.3842    0.5975 N   0  0  0  0  0  0  0  0  0  0  0  0
    0.5536   -4.4631   -4.7105 O   0  0  0  0  0  0  0  0  0  0  0  0
    0.1911   -2.9697    0.1032 O   0  0  0  0  0  0  0  0  0  0  0  0
    0.5320    2.3505    0.9991 H   0  0  0  0  0  0  0  0  0  0  0  0
    0.4091    0.7055    1.6651 H   0  0  0  0  0  0  0  0  0  0  0  0
   -0.0425    1.0161   -0.0055 H   0  0  0  0  0  0  0  0  0  0  0  0
    5.5228   -2.0128   -0.2155 H   0  0  0  0  0  0  0  0  0  0  0  0
    4.0292   -2.5378   -1.0013 H   0  0  0  0  0  0  0  0  0  0  0  0
    4.1302   -2.5521    0.7531 H   0  0  0  0  0  0  0  0  0  0  0  0
   -2.3197   -2.9326   -5.6867 H   0  0  0  0  0  0  0  0  0  0  0  0
   -1.5528   -4.3859   -6.3618 H   0  0  0  0  0  0  0  0  0  0  0  0
   -0.7538   -2.8056   -6.5050 H   0  0  0  0  0  0  0  0  0  0  0  0
    4.9970    2.6556   -0.4283 H   0  0  0  0  0  0  0  0  0  0  0  0
    2.6329    3.0917    0.1988 H   0  0  0  0  0  0  0  0  0  0  0  0
    5.8161    0.3141   -0.5786 H   0  0  0  0  0  0  0  0  0  0  0  0
   -1.2475   -1.8526   -3.5546 H   0  0  0  0  0  0  0  0  0  0  0  0
    0.3076   -1.7649   -4.4009 H   0  0  0  0  0  0  0  0  0  0  0  0
    1.8354   -1.2337   -2.1305 H   0  0  0  0  0  0  0  0  0  0  0  0
    0.1624   -0.7641   -1.8409 H   0  0  0  0  0  0  0  0  0  0  0  0
   -1.2682   -4.3313   -3.8806 H   0  0  0  0  0  0  0  0  0  0  0  0
    1.0609   -3.4157   -2.6965 H   0  0  0  0  0  0  0  0  0  0  0  0
    1.0672   -4.0314   -5.4134 H   0  0  0  0  0  0  0  0  0  0  0  0
   -0.2140   -3.2842   -0.7419 H   0  0  0  0  0  0  0  0  0  0  0  0
  1 18  1  0  0  0  0
  1 19  1  0  0  0  0
  2 10  1  0  0  0  0
  2 23  1  0  0  0  0
  3 24  1  0  0  0  0
  3 11  1  0  0  0  0
  4  5  1  0  0  0  0
  5 28  1  0  0  0  0
  5  9  2  0  0  0  0
  6  4  2  0  0  0  0
  6 10  1  0  0  0  0
  7 30  1  0  0  0  0
  7 14  1  0  0  0  0
  8 12  1  0  0  0  0
  9  1  1  0  0  0  0
 10 13  2  0  0  0  0
 11 34  1  1  0  0  0
 11  7  1  0  0  0  0
 12 17  1  0  0  0  0
 12 15  2  0  0  0  0
 13  9  1  0  0  0  0
 13 15  1  0  0  0  0
 14  8  1  0  0  0  0
 16 11  1  0  0  0  0
 20  1  1  0  0  0  0
 21  2  1  0  0  0  0
 22  2  1  0  0  0  0
 25  3  1  0  0  0  0
 26  3  1  0  0  0  0
 27  4  1  0  0  0  0
 29  6  1  0  0  0  0
 31  7  1  0  0  0  0
 32  8  1  0  0  0  0
 33  8  1  0  0  0  0
 35 14  1  0  0  0  0
 36 16  1  0  0  0  0
 37 17  1  0  0  0  0
M  END
>  <HBA>
4

>  <HBD>
3

>  <TPSA>
61.36

>  <cid>
30328

>  <dipole>
6.26

>  <excitation_energy_1>
4.65

>  <excitation_energy_2>
4.86

>  <excitation_energy_3>
4.943

>  <excitation_energy_4>
5.25

>  <homo_energy>
-5.399

>  <homo_lumo_gap>
5.88

>  <logP>
1.676

>  <lumo_energy>
0.482

>  <melting_point>
112.08

>  <molecular_refractivity>
69.07

>  <oscillator_strength_1>
0.002

>  <oscillator_strength_2>
0.012

>  <oscillator_strength_3>
0.0146

>  <oscillator_strength_4>
0.0341

>  <open_babel_can_smiles>
C[C@H](CNC/C(=N\c1c(C)cccc1C)/O)O

>  <mulliken_charges>
37
1   -0.531677
2   -0.527504
3   -0.469339
4   -0.120912
5   -0.207718
6   -0.208533
7   -0.113626
8   -0.212949
9   0.175317
10   0.174593
11   0.117143
12   0.492409
13   0.088382
14   -0.62226
15   -0.481769
16   -0.620544
17   -0.590207
18   0.147133
19   0.178745
20   0.142007
21   0.14663
22   0.138132
23   0.179106
24   0.155874
25   0.170298
26   0.13914
27   0.116834
28   0.1139
29   0.113894
30   0.149405
31   0.115667
32   0.174367
33   0.180711
34   0.155049
35   0.331705
36   0.388314
37   0.422283

>  <lowdin_charges>
37
1   -0.441691
2   -0.440449
3   -0.460708
4   -0.177064
5   -0.170422
6   -0.170082
7   -0.219288
8   -0.240625
9   -0.024432
10   -0.025463
11   -0.005558
12   0.130403
13   0.026378
14   -0.361963
15   -0.182073
16   -0.464215
17   -0.359377
18   0.151734
19   0.168969
20   0.148465
21   0.150884
22   0.147523
23   0.16926
24   0.160414
25   0.16514
26   0.148478
27   0.153848
28   0.149742
29   0.149334
30   0.150756
31   0.124749
32   0.159838
33   0.168328
34   0.153653
35   0.270528
36   0.34293
37   0.352057

$$$$

