PCCDB-ID:  19838
public computational chemistry database (PCCDB) project, http://pccdb.org

 23 22  0  0  0  0  0  0  0  0999 V2000
    1.9335    0.3503   -1.2359 C   0  0  0  0  0  0  0  0  0  0  0  0
    6.9814   -1.1355   -0.6740 C   0  0  0  0  0  0  0  0  0  0  0  0
    7.0345    0.9382    0.7692 C   0  0  0  0  0  0  0  0  0  0  0  0
    5.4737   -0.9637    1.3465 C   0  0  0  0  0  0  0  0  0  0  0  0
    3.1644   -0.0007   -2.0583 C   0  0  0  0  0  0  0  0  0  0  0  0
    5.0477    0.4632   -0.6662 C   0  0  0  0  0  0  0  0  0  0  0  0
    6.1428   -0.1750    0.1982 C   0  0  0  0  0  0  0  0  0  0  0  0
    4.9015    1.6539   -0.8477 O   0  0  0  0  0  0  0  0  0  0  0  0
    4.2420   -0.4772   -1.2183 O   0  0  0  0  0  0  0  0  0  0  0  0
    1.1113    0.6400   -1.9005 H   0  0  0  0  0  0  0  0  0  0  0  0
    2.1456    1.1893   -0.5672 H   0  0  0  0  0  0  0  0  0  0  0  0
    1.6064   -0.5067   -0.6378 H   0  0  0  0  0  0  0  0  0  0  0  0
    7.7763   -1.5863   -0.0686 H   0  0  0  0  0  0  0  0  0  0  0  0
    7.4555   -0.6027   -1.5066 H   0  0  0  0  0  0  0  0  0  0  0  0
    6.3646   -1.9382   -1.0875 H   0  0  0  0  0  0  0  0  0  0  0  0
    7.8213    0.4999    1.3938 H   0  0  0  0  0  0  0  0  0  0  0  0
    6.4549    1.6367    1.3800 H   0  0  0  0  0  0  0  0  0  0  0  0
    7.5085    1.5152   -0.0307 H   0  0  0  0  0  0  0  0  0  0  0  0
    6.2431   -1.4117    1.9858 H   0  0  0  0  0  0  0  0  0  0  0  0
    4.8367   -1.7645    0.9605 H   0  0  0  0  0  0  0  0  0  0  0  0
    4.8589   -0.3065    1.9728 H   0  0  0  0  0  0  0  0  0  0  0  0
    3.5171    0.8627   -2.6277 H   0  0  0  0  0  0  0  0  0  0  0  0
    2.9662   -0.8304   -2.7418 H   0  0  0  0  0  0  0  0  0  0  0  0
  1 12  1  0  0  0  0
  1 11  1  0  0  0  0
  2 13  1  0  0  0  0
  2  7  1  0  0  0  0
  3 17  1  0  0  0  0
  3 16  1  0  0  0  0
  4 21  1  0  0  0  0
  4 19  1  0  0  0  0
  5  1  1  0  0  0  0
  5  9  1  0  0  0  0
  6  7  1  0  0  0  0
  7  3  1  0  0  0  0
  7  4  1  0  0  0  0
  8  6  2  0  0  0  0
  9  6  1  0  0  0  0
 10  1  1  0  0  0  0
 14  2  1  0  0  0  0
 15  2  1  0  0  0  0
 18  3  1  0  0  0  0
 20  4  1  0  0  0  0
 22  5  1  0  0  0  0
 23  5  1  0  0  0  0
M  END
>  <HBA>
2

>  <HBD>
0

>  <TPSA>
26.3

>  <cid>
19838

>  <dipole>
1.73

>  <excitation_energy_1>
5.713

>  <excitation_energy_2>
6.826

>  <excitation_energy_3>
7.257

>  <excitation_energy_4>
7.374

>  <homo_energy>
-7.124

>  <homo_lumo_gap>
7.576

>  <logP>
1.596

>  <lumo_energy>
0.452

>  <melting_point>
3.9

>  <molecular_refractivity>
36.79

>  <oscillator_strength_1>
0.0022

>  <oscillator_strength_2>
0.0039

>  <oscillator_strength_3>
0.0179

>  <oscillator_strength_4>
0.0007

>  <open_babel_can_smiles>
CCOC(=O)C(C)(C)C

>  <mulliken_charges>
23
1   -0.461626
2   -0.449655
3   -0.432278
4   -0.450443
5   -0.043576
6   0.642399
7   -0.002115
8   -0.489057
9   -0.470718
10   0.149645
11   0.176034
12   0.155783
13   0.145396
14   0.148763
15   0.161786
16   0.134487
17   0.154613
18   0.154058
19   0.146339
20   0.161132
21   0.148879
22   0.169639
23   0.150517

>  <lowdin_charges>
23
1   -0.457304
2   -0.442102
3   -0.440299
4   -0.442584
5   -0.129551
6   0.195596
7   -0.008776
8   -0.266469
9   -0.195373
10   0.159205
11   0.165883
12   0.155992
13   0.152348
14   0.153096
15   0.159239
16   0.147986
17   0.158665
18   0.158148
19   0.152915
20   0.158766
21   0.153571
22   0.159162
23   0.151886

$$$$

