PCCDB-ID:  15166
public computational chemistry database (PCCDB) project, http://pccdb.org

 31 31  0  0  0  0  0  0  0  0999 V2000
    0.4822    2.0771    0.6776 C   0  0  0  0  0  0  0  0  0  0  0  0
   -0.6586    1.5280   -0.2138 C   0  0  0  0  0  0  0  0  0  0  0  0
    1.8969    1.8819    0.0896 C   0  0  0  0  0  0  0  0  0  0  0  0
   -1.8601    0.9103    0.5443 C   0  0  0  0  0  0  0  0  0  0  0  0
    2.5583    0.4953    0.2764 C   0  0  0  0  0  0  0  0  0  0  0  0
   -2.5096   -0.3058   -0.1535 C   0  0  0  0  0  0  0  0  0  0  0  0
    1.8946   -0.7116   -0.4220 C   0  0  0  0  0  0  0  0  0  0  0  0
   -1.8543   -1.6947    0.0561 C   0  0  0  0  0  0  0  0  0  0  0  0
    0.6806   -1.2848    0.3394 C   0  0  0  0  0  0  0  0  0  0  0  0
   -0.4439   -1.9364   -0.5291 C   0  0  0  0  0  0  0  0  0  0  0  0
   -0.3959   -1.6017   -1.9196 O   0  0  0  0  0  0  0  0  0  0  0  0
    0.4436    1.6044    1.6689 H   0  0  0  0  0  0  0  0  0  0  0  0
    0.3153    3.1468    0.8587 H   0  0  0  0  0  0  0  0  0  0  0  0
   -0.2325    0.7815   -0.8876 H   0  0  0  0  0  0  0  0  0  0  0  0
   -1.0195    2.3270   -0.8748 H   0  0  0  0  0  0  0  0  0  0  0  0
    2.5665    2.6193    0.5527 H   0  0  0  0  0  0  0  0  0  0  0  0
    1.8777    2.1290   -0.9826 H   0  0  0  0  0  0  0  0  0  0  0  0
   -2.6265    1.6818    0.6923 H   0  0  0  0  0  0  0  0  0  0  0  0
   -1.5516    0.6107    1.5551 H   0  0  0  0  0  0  0  0  0  0  0  0
    2.6510    0.2883    1.3534 H   0  0  0  0  0  0  0  0  0  0  0  0
    3.5871    0.5834   -0.0983 H   0  0  0  0  0  0  0  0  0  0  0  0
   -2.6056   -0.1016   -1.2311 H   0  0  0  0  0  0  0  0  0  0  0  0
   -3.5427   -0.4000    0.2050 H   0  0  0  0  0  0  0  0  0  0  0  0
    2.6435   -1.5030   -0.5531 H   0  0  0  0  0  0  0  0  0  0  0  0
    1.5979   -0.4294   -1.4378 H   0  0  0  0  0  0  0  0  0  0  0  0
   -2.5290   -2.4361   -0.3910 H   0  0  0  0  0  0  0  0  0  0  0  0
   -1.8219   -1.9132    1.1332 H   0  0  0  0  0  0  0  0  0  0  0  0
    0.2451   -0.5015    0.9606 H   0  0  0  0  0  0  0  0  0  0  0  0
    1.0267   -2.0434    1.0539 H   0  0  0  0  0  0  0  0  0  0  0  0
   -0.2736   -3.0188   -0.5373 H   0  0  0  0  0  0  0  0  0  0  0  0
   -0.7307   -0.6989   -2.0286 H   0  0  0  0  0  0  0  0  0  0  0  0
  1 13  1  0  0  0  0
  1 12  1  0  0  0  0
  2  4  1  0  0  0  0
  2  1  1  0  0  0  0
  3  5  1  0  0  0  0
  3 16  1  0  0  0  0
  3  1  1  0  0  0  0
  4 18  1  0  0  0  0
  4 19  1  0  0  0  0
  5 20  1  0  0  0  0
  6  8  1  0  0  0  0
  6 23  1  0  0  0  0
  6  4  1  0  0  0  0
  7  5  1  0  0  0  0
  7  9  1  0  0  0  0
  8 27  1  0  0  0  0
  9 28  1  0  0  0  0
  9 29  1  0  0  0  0
 10  8  1  0  0  0  0
 10  9  1  0  0  0  0
 11 10  1  0  0  0  0
 14  2  1  0  0  0  0
 15  2  1  0  0  0  0
 17  3  1  0  0  0  0
 21  5  1  0  0  0  0
 22  6  1  0  0  0  0
 24  7  1  0  0  0  0
 25  7  1  0  0  0  0
 26  8  1  0  0  0  0
 30 10  1  0  0  0  0
 31 11  1  0  0  0  0
M  END
>  <HBA>
1

>  <HBD>
1

>  <TPSA>
20.23

>  <cid>
15166

>  <dipole>
1.74

>  <excitation_energy_1>
6.511

>  <excitation_energy_2>
6.798

>  <excitation_energy_3>
7.017

>  <excitation_energy_4>
7.047

>  <homo_energy>
-7.012

>  <homo_lumo_gap>
8.83

>  <logP>
2.872

>  <lumo_energy>
1.818

>  <melting_point>
11.98

>  <molecular_refractivity>
49.23

>  <oscillator_strength_1>
0.0157

>  <oscillator_strength_2>
0.0004

>  <oscillator_strength_3>
0.0008

>  <oscillator_strength_4>
0.007

>  <open_babel_can_smiles>
OC1CCCCCCCCC1

>  <mulliken_charges>
31
1   -0.258677
2   -0.27956
3   -0.261559
4   -0.256289
5   -0.261734
6   -0.28862
7   -0.251137
8   -0.279878
9   -0.31786
10   0.150189
11   -0.632886
12   0.132924
13   0.132914
14   0.123005
15   0.137721
16   0.128945
17   0.128565
18   0.135187
19   0.135932
20   0.125403
21   0.128857
22   0.126715
23   0.139571
24   0.131059
25   0.145994
26   0.139928
27   0.130137
28   0.148664
29   0.133681
30   0.133231
31   0.39958

>  <lowdin_charges>
31
1   -0.279953
2   -0.292348
3   -0.276795
4   -0.283272
5   -0.27399
6   -0.280528
7   -0.283952
8   -0.292863
9   -0.311644
10   -0.001838
11   -0.462078
12   0.13758
13   0.14162
14   0.139745
15   0.145451
16   0.144222
17   0.136183
18   0.145489
19   0.139019
20   0.134196
21   0.141915
22   0.133387
23   0.148604
24   0.144289
25   0.144434
26   0.150198
27   0.142067
28   0.150795
29   0.146605
30   0.140955
31   0.332506

$$$$

