PCCDB-ID:  44138
public computational chemistry database (PCCDB) project, http://pccdb.org

 26 25  0  0  0  0  0  0  0  0999 V2000
    1.9586   -3.2496   -2.9442 C   0  0  0  0  0  0  0  0  0  0  0  0
    6.5792   -3.0648   -4.4642 C   0  0  0  0  0  0  0  0  0  0  0  0
    1.8322   -1.8132   -2.4629 C   0  0  0  0  0  0  0  0  0  0  0  0
    6.2158   -0.6243   -0.7516 C   0  0  0  0  0  0  0  0  0  0  0  0
    7.2228   -1.7346   -1.0667 C   0  0  0  0  0  0  0  0  0  0  0  0
    6.4553   -2.9745   -2.9647 C   0  0  0  0  0  0  0  0  0  0  0  0
    3.9597   -1.1200   -1.6994 C   0  0  0  0  0  0  0  0  0  0  0  0
    4.3916   -1.5961    0.6055 N   0  0  0  0  0  0  0  0  0  0  0  0
    4.8361   -1.0903   -0.5939 N   0  0  0  0  0  0  0  0  0  0  0  0
    5.7027   -3.6339   -2.2797 O   0  0  0  0  0  0  0  0  0  0  0  0
    4.3171   -0.7518   -2.8003 O   0  0  0  0  0  0  0  0  0  0  0  0
    5.2434   -1.6079    1.4733 O   0  0  0  0  0  0  0  0  0  0  0  0
    2.7532   -1.5706   -1.3647 O   0  0  0  0  0  0  0  0  0  0  0  0
    7.2862   -2.0211   -2.4758 O   0  0  0  0  0  0  0  0  0  0  0  0
    1.2593   -3.4259   -3.7697 H   0  0  0  0  0  0  0  0  0  0  0  0
    1.7272   -3.9516   -2.1373 H   0  0  0  0  0  0  0  0  0  0  0  0
    2.9744   -3.4534   -3.2953 H   0  0  0  0  0  0  0  0  0  0  0  0
    6.1797   -4.0201   -4.8079 H   0  0  0  0  0  0  0  0  0  0  0  0
    7.6168   -2.9427   -4.7848 H   0  0  0  0  0  0  0  0  0  0  0  0
    5.9905   -2.2510   -4.9032 H   0  0  0  0  0  0  0  0  0  0  0  0
    0.8484   -1.6116   -2.0339 H   0  0  0  0  0  0  0  0  0  0  0  0
    2.0382   -1.0943   -3.2581 H   0  0  0  0  0  0  0  0  0  0  0  0
    6.2212    0.1232   -1.5452 H   0  0  0  0  0  0  0  0  0  0  0  0
    6.4903   -0.1586    0.1979 H   0  0  0  0  0  0  0  0  0  0  0  0
    6.9945   -2.6442   -0.5086 H   0  0  0  0  0  0  0  0  0  0  0  0
    8.2266   -1.3875   -0.8091 H   0  0  0  0  0  0  0  0  0  0  0  0
  1  3  1  0  0  0  0
  1 16  1  0  0  0  0
  2  6  1  0  0  0  0
  3 21  1  0  0  0  0
  3 13  1  0  0  0  0
  4  9  1  0  0  0  0
  4 24  1  0  0  0  0
  5 26  1  0  0  0  0
  5  4  1  0  0  0  0
  5 25  1  0  0  0  0
  6 14  1  0  0  0  0
  6 10  2  0  0  0  0
  7 13  1  0  0  0  0
  7  9  1  0  0  0  0
  8 12  1  0  0  0  0
  9  8  1  0  0  0  0
 11  7  2  0  0  0  0
 14  5  1  0  0  0  0
 15  1  1  0  0  0  0
 17  1  1  0  0  0  0
 18  2  1  0  0  0  0
 19  2  1  0  0  0  0
 20  2  1  0  0  0  0
 22  3  1  0  0  0  0
 23  4  1  0  0  0  0
M  RAD  2   8   2  12   2
M  END
>  <HBA>
7

>  <HBD>
0

>  <TPSA>
85.27

>  <cid>
44138

>  <dipole>
2.65

>  <excitation_energy_1>
2.993

>  <excitation_energy_2>
4.843

>  <excitation_energy_3>
5.147

>  <excitation_energy_4>
5.353

>  <homo_energy>
-6.716

>  <homo_lumo_gap>
4.827

>  <logP>
0.689

>  <lumo_energy>
-1.888

>  <melting_point>
29.68

>  <molecular_refractivity>
46.36

>  <oscillator_strength_1>
0.0011

>  <oscillator_strength_2>
0.0136

>  <oscillator_strength_3>
0.0234

>  <oscillator_strength_4>
0.0646

>  <open_babel_can_smiles>
CCOC(=O)N(CCOC(=O)C)[N][O]

>  <mulliken_charges>
26
1   -0.461977
2   -0.530926
3   -0.055965
4   -0.171111
5   -0.055387
6   0.624671
7   0.857344
8   0.213389
9   -0.350521
10   -0.480464
11   -0.51
12   -0.331994
13   -0.450675
14   -0.446769
15   0.149634
16   0.169571
17   0.183239
18   0.179941
19   0.177607
20   0.202684
21   0.163072
22   0.177839
23   0.202009
24   0.187092
25   0.193285
26   0.16441

>  <lowdin_charges>
26
1   -0.454709
2   -0.46527
3   -0.123103
4   -0.222553
5   -0.133997
6   0.210782
7   0.22259
8   0.098083
9   -0.043714
10   -0.2754
11   -0.287194
12   -0.21524
13   -0.162518
14   -0.19492
15   0.159536
16   0.163787
17   0.168625
18   0.174904
19   0.173685
20   0.190347
21   0.157233
22   0.163249
23   0.184726
24   0.176721
25   0.17198
26   0.162369

$$$$

