PCCDB-ID:  56531
public computational chemistry database (PCCDB) project, http://pccdb.org

 23 22  0  0  0  0  0  0  0  0999 V2000
    2.2754   -1.7493    0.1513 C   0  0  0  0  0  0  0  0  0  0  0  0
    0.8089    0.3277    0.2158 C   0  0  0  0  0  0  0  0  0  0  0  0
    2.2295   -0.2194    0.0581 C   0  0  0  0  0  0  0  0  0  0  0  0
    6.5311   -0.6845    1.8188 C   0  0  0  0  0  0  0  0  0  0  0  0
    5.0009   -0.6618    1.9385 C   0  0  0  0  0  0  0  0  0  0  0  0
    8.4890   -1.6878    2.8312 N   0  0  0  0  0  0  0  0  0  0  0  0
    7.0982   -1.5230    2.7106 N   0  0  0  0  0  0  0  0  0  0  0  0
    3.0737    0.4825    1.0590 N   0  0  0  0  0  0  0  0  0  0  0  0
    4.4309    0.1147    0.9942 N   0  0  0  0  0  0  0  0  0  0  0  0
    7.1451   -0.0069    0.9974 O   0  0  0  0  0  0  0  0  0  0  0  0
    4.3924   -1.2772    2.8153 O   0  0  0  0  0  0  0  0  0  0  0  0
    1.6522   -2.1997   -0.6302 H   0  0  0  0  0  0  0  0  0  0  0  0
    1.9073   -2.0935    1.1247 H   0  0  0  0  0  0  0  0  0  0  0  0
    3.2958   -2.1235    0.0245 H   0  0  0  0  0  0  0  0  0  0  0  0
    0.1551   -0.0709   -0.5667 H   0  0  0  0  0  0  0  0  0  0  0  0
    0.8037    1.4203    0.1561 H   0  0  0  0  0  0  0  0  0  0  0  0
    0.3827    0.0347    1.1842 H   0  0  0  0  0  0  0  0  0  0  0  0
    2.6153    0.0880   -0.9230 H   0  0  0  0  0  0  0  0  0  0  0  0
    8.8991   -0.7553    2.9073 H   0  0  0  0  0  0  0  0  0  0  0  0
    8.8307   -2.0638    1.9452 H   0  0  0  0  0  0  0  0  0  0  0  0
    6.5100   -2.0020    3.3805 H   0  0  0  0  0  0  0  0  0  0  0  0
    2.7689    0.2087    1.9963 H   0  0  0  0  0  0  0  0  0  0  0  0
    5.0443    0.7164    0.4554 H   0  0  0  0  0  0  0  0  0  0  0  0
  1 13  1  0  0  0  0
  2 17  1  0  0  0  0
  3  1  1  0  0  0  0
  3  2  1  0  0  0  0
  3  8  1  0  0  0  0
  4  5  1  0  0  0  0
  4  7  1  0  0  0  0
  5 11  2  0  0  0  0
  6 19  1  0  0  0  0
  7  6  1  0  0  0  0
  7 21  1  0  0  0  0
  8 22  1  0  0  0  0
  9  8  1  0  0  0  0
  9  5  1  0  0  0  0
 10  4  2  0  0  0  0
 12  1  1  0  0  0  0
 14  1  1  0  0  0  0
 15  2  1  0  0  0  0
 16  2  1  0  0  0  0
 18  3  1  0  0  0  0
 20  6  1  0  0  0  0
 23  9  1  0  0  0  0
M  END
>  <HBA>
6

>  <HBD>
4

>  <TPSA>
96.25

>  <cid>
56531

>  <dipole>
1.11

>  <excitation_energy_1>
4.181

>  <excitation_energy_2>
4.612

>  <excitation_energy_3>
5.626

>  <excitation_energy_4>
5.816

>  <homo_energy>
-6.302

>  <homo_lumo_gap>
5.211

>  <logP>
-0.121

>  <lumo_energy>
-1.091

>  <melting_point>
152.67

>  <molecular_refractivity>
37.66

>  <oscillator_strength_1>
0.0087

>  <oscillator_strength_2>
0.0988

>  <oscillator_strength_3>
0.0146

>  <oscillator_strength_4>
0.0052

>  <open_babel_can_smiles>
NNC(=O)C(=O)NNC(C)C

>  <mulliken_charges>
23
1   -0.444731
2   -0.451734
3   0.045021
4   0.551116
5   0.55086
6   -0.552906
7   -0.491688
8   -0.420096
9   -0.465482
10   -0.536238
11   -0.55137
12   0.142259
13   0.153644
14   0.155122
15   0.151538
16   0.162285
17   0.144433
18   0.138644
19   0.330466
20   0.330288
21   0.368862
22   0.32452
23   0.365189

>  <lowdin_charges>
23
1   -0.46021
2   -0.446825
3   -0.061172
4   0.118486
5   0.111994
6   -0.44462
7   -0.203555
8   -0.274775
9   -0.184141
10   -0.317607
11   -0.323798
12   0.153285
13   0.154617
14   0.155609
15   0.158012
16   0.157999
17   0.149139
18   0.14096
19   0.269119
20   0.26923
21   0.306545
22   0.266308
23   0.3054

$$$$

