PCCDB-ID:  16247
public computational chemistry database (PCCDB) project, http://pccdb.org

 31 31  0  0  0  0  0  0  0  0999 V2000
    0.8142    0.4001   -0.5580 C   0  0  0  0  0  0  0  0  0  0  0  0
    7.3623    3.8449    0.6850 C   0  0  0  0  0  0  0  0  0  0  0  0
    2.1562   -3.5975    0.0778 C   0  0  0  0  0  0  0  0  0  0  0  0
    0.7100   -2.2003    1.4108 C   0  0  0  0  0  0  0  0  0  0  0  0
    4.9111   -0.4077    0.5930 C   0  0  0  0  0  0  0  0  0  0  0  0
    3.9636   -1.4286    0.6214 C   0  0  0  0  0  0  0  0  0  0  0  0
    3.1850    1.1190   -0.1340 C   0  0  0  0  0  0  0  0  0  0  0  0
    2.2259    0.1020   -0.1145 C   0  0  0  0  0  0  0  0  0  0  0  0
    4.5072    0.8671    0.2148 C   0  0  0  0  0  0  0  0  0  0  0  0
    2.6207   -1.1986    0.2820 C   0  0  0  0  0  0  0  0  0  0  0  0
    6.5122    1.9976   -0.4993 C   0  0  0  0  0  0  0  0  0  0  0  0
    7.4427    2.8419   -0.3638 N   0  0  0  0  0  0  0  0  0  0  0  0
    1.6532   -2.2484    0.2938 N   0  0  0  0  0  0  0  0  0  0  0  0
    6.5511    1.0440   -1.4585 O   0  0  0  0  0  0  0  0  0  0  0  0
    5.3816    1.9583    0.2521 O   0  0  0  0  0  0  0  0  0  0  0  0
    0.7984    1.2351   -1.2657 H   0  0  0  0  0  0  0  0  0  0  0  0
    0.1643    0.6796    0.2825 H   0  0  0  0  0  0  0  0  0  0  0  0
    0.3691   -0.4786   -1.0345 H   0  0  0  0  0  0  0  0  0  0  0  0
    8.3686    4.0287    1.0765 H   0  0  0  0  0  0  0  0  0  0  0  0
    6.7064    3.5627    1.5184 H   0  0  0  0  0  0  0  0  0  0  0  0
    6.9957    4.7948    0.2731 H   0  0  0  0  0  0  0  0  0  0  0  0
    1.3096   -4.2559   -0.1478 H   0  0  0  0  0  0  0  0  0  0  0  0
    2.6837   -4.0252    0.9506 H   0  0  0  0  0  0  0  0  0  0  0  0
    2.8372   -3.6070   -0.7776 H   0  0  0  0  0  0  0  0  0  0  0  0
   -0.1145   -2.8968    1.2197 H   0  0  0  0  0  0  0  0  0  0  0  0
    0.2905   -1.1981    1.5166 H   0  0  0  0  0  0  0  0  0  0  0  0
    1.1800   -2.4773    2.3719 H   0  0  0  0  0  0  0  0  0  0  0  0
    5.9443   -0.5998    0.8628 H   0  0  0  0  0  0  0  0  0  0  0  0
    4.2777   -2.4215    0.9258 H   0  0  0  0  0  0  0  0  0  0  0  0
    2.9096    2.1231   -0.4437 H   0  0  0  0  0  0  0  0  0  0  0  0
    7.3944    1.1971   -1.9202 H   0  0  0  0  0  0  0  0  0  0  0  0
  1  8  1  0  0  0  0
  1 17  1  0  0  0  0
  2 19  1  0  0  0  0
  2 20  1  0  0  0  0
  3 13  1  0  0  0  0
  3 23  1  0  0  0  0
  4 26  1  0  0  0  0
  4 27  1  0  0  0  0
  5  6  1  0  0  0  0
  5 28  1  0  0  0  0
  6 29  1  0  0  0  0
  7  8  2  0  0  0  0
  7  9  1  0  0  0  0
  8 10  1  0  0  0  0
  9 15  1  0  0  0  0
  9  5  2  0  0  0  0
 10 13  1  0  0  0  0
 10  6  2  0  0  0  0
 11 12  2  0  0  0  0
 11 15  1  0  0  0  0
 12  2  1  0  0  0  0
 13  4  1  0  0  0  0
 14 11  1  0  0  0  0
 16  1  1  0  0  0  0
 18  1  1  0  0  0  0
 21  2  1  0  0  0  0
 22  3  1  0  0  0  0
 24  3  1  0  0  0  0
 25  4  1  0  0  0  0
 30  7  1  0  0  0  0
 31 14  1  0  0  0  0
M  END
>  <HBA>
4

>  <HBD>
1

>  <TPSA>
41.57

>  <cid>
16247

>  <dipole>
2.27

>  <excitation_energy_1>
4.525

>  <excitation_energy_2>
4.823

>  <excitation_energy_3>
5.093

>  <excitation_energy_4>
5.346

>  <homo_energy>
-5.483

>  <homo_lumo_gap>
5.464

>  <logP>
2.17

>  <lumo_energy>
-0.019

>  <melting_point>
81.85

>  <molecular_refractivity>
60.3

>  <oscillator_strength_1>
0.0261

>  <oscillator_strength_2>
0.1612

>  <oscillator_strength_3>
0.0596

>  <oscillator_strength_4>
0.0025

>  <open_babel_can_smiles>
C/N=C(\Oc1ccc(c(c1)C)N(C)C)/O

>  <mulliken_charges>
31
1   -0.536317
2   -0.321356
3   -0.306484
4   -0.303948
5   -0.156576
6   -0.185742
7   -0.235238
8   0.153633
9   0.365186
10   0.233664
11   0.703671
12   -0.483835
13   -0.453877
14   -0.591574
15   -0.540169
16   0.155366
17   0.158319
18   0.176613
19   0.151513
20   0.151391
21   0.1521
22   0.152729
23   0.127467
24   0.164256
25   0.149946
26   0.160904
27   0.132613
28   0.138765
29   0.131476
30   0.133595
31   0.421909

>  <lowdin_charges>
31
1   -0.446736
2   -0.353534
3   -0.357179
4   -0.348923
5   -0.169533
6   -0.178539
7   -0.176162
8   -0.006219
9   0.093766
10   0.029276
11   0.190322
12   -0.267
13   -0.153468
14   -0.361756
15   -0.160542
16   0.158533
17   0.156866
18   0.168965
19   0.150025
20   0.144136
21   0.149704
22   0.153309
23   0.125949
24   0.159543
25   0.150054
26   0.156992
27   0.129212
28   0.165435
29   0.161497
30   0.164657
31   0.371348

$$$$

