PCCDB-ID:  20455
public computational chemistry database (PCCDB) project, http://pccdb.org

 19 20  0  0  0  0  0  0  0  0999 V2000
    2.1535   -0.5348   -0.3449 C   0  0  0  0  0  0  0  0  0  0  0  0
    2.0772    0.7994    0.1044 C   0  0  0  0  0  0  0  0  0  0  0  0
    1.0131   -1.3169   -0.4931 C   0  0  0  0  0  0  0  0  0  0  0  0
    0.8582    1.3945    0.4183 C   0  0  0  0  0  0  0  0  0  0  0  0
   -3.7949   -0.4506    0.2215 C   0  0  0  0  0  0  0  0  0  0  0  0
   -4.4237    0.6114    1.0118 C   0  0  0  0  0  0  0  0  0  0  0  0
   -0.2243   -0.7388   -0.1835 C   0  0  0  0  0  0  0  0  0  0  0  0
   -0.2815    0.6035    0.2641 C   0  0  0  0  0  0  0  0  0  0  0  0
   -2.2925   -0.3222    0.1579 C   0  0  0  0  0  0  0  0  0  0  0  0
   -4.8793    1.4833    1.6277 N   0  0  0  0  0  0  0  0  0  0  0  0
   -1.5012   -1.2865   -0.2358 N   0  0  0  0  0  0  0  0  0  0  0  0
   -1.6310    0.8437    0.4682 N   0  0  0  0  0  0  0  0  0  0  0  0
    3.1266   -0.9576   -0.5784 H   0  0  0  0  0  0  0  0  0  0  0  0
    2.9908    1.3780    0.2082 H   0  0  0  0  0  0  0  0  0  0  0  0
    1.0661   -2.3453   -0.8364 H   0  0  0  0  0  0  0  0  0  0  0  0
    0.8028    2.4228    0.7637 H   0  0  0  0  0  0  0  0  0  0  0  0
   -4.2176   -0.4296   -0.7921 H   0  0  0  0  0  0  0  0  0  0  0  0
   -4.0478   -1.4284    0.6457 H   0  0  0  0  0  0  0  0  0  0  0  0
   -2.0546    1.6851    0.8347 H   0  0  0  0  0  0  0  0  0  0  0  0
  1  2  1  0  0  0  0
  2 14  1  0  0  0  0
  2  4  2  0  0  0  0
  3  1  2  0  0  0  0
  3  7  1  0  0  0  0
  4 16  1  0  0  0  0
  5 18  1  0  0  0  0
  5  6  1  0  0  0  0
  6 10  3  0  0  0  0
  7  8  2  0  0  0  0
  8  4  1  0  0  0  0
  8 12  1  0  0  0  0
  9  5  1  0  0  0  0
  9 12  1  0  0  0  0
 11  7  1  0  0  0  0
 11  9  2  0  0  0  0
 12 19  1  0  0  0  0
 13  1  1  0  0  0  0
 15  3  1  0  0  0  0
 17  5  1  0  0  0  0
M  END
>  <HBA>
2

>  <HBD>
1

>  <TPSA>
52.47

>  <cid>
20455

>  <dipole>
1.18

>  <excitation_energy_1>
4.968

>  <excitation_energy_2>
5.175

>  <excitation_energy_3>
5.508

>  <excitation_energy_4>
5.62

>  <homo_energy>
-6.267

>  <homo_lumo_gap>
5.633

>  <logP>
1.629

>  <lumo_energy>
-0.634

>  <melting_point>
148.51

>  <molecular_refractivity>
45.62

>  <oscillator_strength_1>
0.0851

>  <oscillator_strength_2>
0.1122

>  <oscillator_strength_3>
0.0011

>  <oscillator_strength_4>
0.0016

>  <open_babel_can_smiles>
N#CCc1nc2c([nH]1)cccc2

>  <mulliken_charges>
19
1   -0.141479
2   -0.149362
3   -0.180828
4   -0.168055
5   -0.409965
6   0.347802
7   0.228711
8   0.348356
9   0.519456
10   -0.465056
11   -0.54244
12   -0.737128
13   0.129613
14   0.131166
15   0.141783
16   0.13393
17   0.229789
18   0.234536
19   0.349174

>  <lowdin_charges>
19
1   -0.167465
2   -0.158747
3   -0.154119
4   -0.180696
5   -0.270778
6   -0.016738
7   0.012229
8   0.020009
9   0.07531
10   -0.117607
11   -0.200828
12   -0.203034
13   0.159037
14   0.160072
15   0.166596
16   0.160143
17   0.202709
18   0.208806
19   0.3051

$$$$

