PCCDB-ID:  21213
public computational chemistry database (PCCDB) project, http://pccdb.org

 27 27  0  0  0  0  0  0  0  0999 V2000
    2.2471    0.9720    4.4771 C   0  0  0  0  0  0  0  0  0  0  0  0
    2.0426   -0.4990    2.3139 C   0  0  0  0  0  0  0  0  0  0  0  0
    2.9652   -0.7244    1.2362 C   0  0  0  0  0  0  0  0  0  0  0  0
    5.3845    0.2476    0.8248 C   0  0  0  0  0  0  0  0  0  0  0  0
    2.6497    0.3565    3.1827 C   0  0  0  0  0  0  0  0  0  0  0  0
    4.0741    0.0101    1.5234 C   0  0  0  0  0  0  0  0  0  0  0  0
    5.7260   -1.9500   -2.9058 C   0  0  0  0  0  0  0  0  0  0  0  0
    5.9098   -1.8411   -0.3770 C   0  0  0  0  0  0  0  0  0  0  0  0
    5.1493   -0.8095   -3.0708 N   0  0  0  0  0  0  0  0  0  0  0  0
    6.0433   -2.8687   -3.9128 N   0  0  0  0  0  0  0  0  0  0  0  0
    6.1791   -2.6219    0.6091 N   0  0  0  0  0  0  0  0  0  0  0  0
    5.5531   -0.5198   -0.3863 N   0  0  0  0  0  0  0  0  0  0  0  0
    6.0562   -2.4319   -1.6541 N   0  0  0  0  0  0  0  0  0  0  0  0
    3.8991    0.6777    2.7087 O   0  0  0  0  0  0  0  0  0  0  0  0
    1.2320    0.6580    4.7359 H   0  0  0  0  0  0  0  0  0  0  0  0
    2.2634    2.0681    4.4265 H   0  0  0  0  0  0  0  0  0  0  0  0
    2.9158    0.6725    5.2941 H   0  0  0  0  0  0  0  0  0  0  0  0
    1.0549   -0.9252    2.4267 H   0  0  0  0  0  0  0  0  0  0  0  0
    2.8241   -1.3527    0.3688 H   0  0  0  0  0  0  0  0  0  0  0  0
    6.2165    0.0368    1.5122 H   0  0  0  0  0  0  0  0  0  0  0  0
    5.4783    1.3092    0.5618 H   0  0  0  0  0  0  0  0  0  0  0  0
    5.0453   -0.5785   -4.0574 H   0  0  0  0  0  0  0  0  0  0  0  0
    5.9687   -2.4917   -4.8492 H   0  0  0  0  0  0  0  0  0  0  0  0
    6.9163   -3.3679   -3.7804 H   0  0  0  0  0  0  0  0  0  0  0  0
    6.0118   -2.1638    1.5033 H   0  0  0  0  0  0  0  0  0  0  0  0
    5.2156   -0.1577   -1.2800 H   0  0  0  0  0  0  0  0  0  0  0  0
    6.2386   -3.4227   -1.5648 H   0  0  0  0  0  0  0  0  0  0  0  0
  1 15  1  0  0  0  0
  1 17  1  0  0  0  0
  2 18  1  0  0  0  0
  2  5  2  0  0  0  0
  3  6  2  0  0  0  0
  3  2  1  0  0  0  0
  4 20  1  0  0  0  0
  4  6  1  0  0  0  0
  5  1  1  0  0  0  0
  6 14  1  0  0  0  0
  7 13  1  0  0  0  0
  8 11  2  0  0  0  0
  9  7  1  0  0  0  0
 10 24  1  0  0  0  0
 10  7  2  0  0  0  0
 11 25  1  0  0  0  0
 12  8  1  0  0  0  0
 12  4  1  0  0  0  0
 13 27  1  0  0  0  0
 13  8  1  0  0  0  0
 14  5  1  0  0  0  0
 16  1  1  0  0  0  0
 19  3  1  0  0  0  0
 21  4  1  0  0  0  0
 22  9  1  0  0  0  0
 23 10  1  0  0  0  0
 26 12  1  0  0  0  0
M  RAD  1   9   2
M  END
>  <HBA>
6

>  <HBD>
3

>  <TPSA>
115.92

>  <cid>
21213

>  <dipole>
3.13

>  <excitation_energy_1>
4.823

>  <excitation_energy_2>
5.033

>  <excitation_energy_3>
5.211

>  <excitation_energy_4>
5.476

>  <homo_energy>
-5.48

>  <homo_lumo_gap>
6.15

>  <logP>
1.777

>  <lumo_energy>
0.669

>  <melting_point>
208.36

>  <molecular_refractivity>
53.75

>  <oscillator_strength_1>
0.001

>  <oscillator_strength_2>
0.0007

>  <oscillator_strength_3>
0.0026

>  <oscillator_strength_4>
0.0203

>  <open_babel_can_smiles>
Cc1ccc(o1)CNC(=N)NC(=[NH2])[NH]

>  <mulliken_charges>
27
1   -0.529609
2   -0.217628
3   -0.20091
4   -0.239736
5   0.355068
6   0.346902
7   0.664432
8   0.656886
9   -0.691523
10   -0.757149
11   -0.683124
12   -0.621236
13   -0.66479
14   -0.480316
15   0.164427
16   0.167247
17   0.168245
18   0.131088
19   0.146013
20   0.167603
21   0.170357
22   0.279313
23   0.326694
24   0.330148
25   0.284847
26   0.381633
27   0.345117

>  <lowdin_charges>
27
1   -0.43905
2   -0.220469
3   -0.213545
4   -0.194211
5   0.068731
6   0.04393
7   0.145955
8   0.143644
9   -0.487668
10   -0.497777
11   -0.496406
12   -0.302915
13   -0.256201
14   -0.122187
15   0.16682
16   0.162286
17   0.165258
18   0.163825
19   0.173046
20   0.158647
21   0.163768
22   0.253708
23   0.279868
24   0.282637
25   0.256313
26   0.304689
27   0.297303

$$$$

