PCCDB-ID:  13577
public computational chemistry database (PCCDB) project, http://pccdb.org

 19 18  0  0  0  0  0  0  0  0999 V2000
    0.9312   -0.0034    0.1214 C   0  0  0  0  0  0  0  0  0  0  0  0
    2.4620   -0.0516    0.1371 C   0  0  0  0  0  0  0  0  0  0  0  0
    3.0563   -0.6183   -1.1669 C   0  0  0  0  0  0  0  0  0  0  0  0
    4.5599   -0.6262   -1.1742 C   0  0  0  0  0  0  0  0  0  0  0  0
    5.3336   -1.7074   -1.3118 C   0  0  0  0  0  0  0  0  0  0  0  0
    6.8358   -1.6843   -1.2983 C   0  0  0  0  0  0  0  0  0  0  0  0
    7.3819   -2.5201   -0.2758 O   0  0  0  0  0  0  0  0  0  0  0  0
    0.5354    0.4004    1.0600 H   0  0  0  0  0  0  0  0  0  0  0  0
    0.5045   -1.0044   -0.0168 H   0  0  0  0  0  0  0  0  0  0  0  0
    0.5627    0.6287   -0.6959 H   0  0  0  0  0  0  0  0  0  0  0  0
    2.8072   -0.6630    0.9814 H   0  0  0  0  0  0  0  0  0  0  0  0
    2.8607    0.9584    0.3066 H   0  0  0  0  0  0  0  0  0  0  0  0
    2.6916   -0.0087   -2.0087 H   0  0  0  0  0  0  0  0  0  0  0  0
    2.6779   -1.6355   -1.3339 H   0  0  0  0  0  0  0  0  0  0  0  0
    5.0408    0.3479   -1.0511 H   0  0  0  0  0  0  0  0  0  0  0  0
    4.8784   -2.6926   -1.4258 H   0  0  0  0  0  0  0  0  0  0  0  0
    7.1972   -0.6468   -1.2069 H   0  0  0  0  0  0  0  0  0  0  0  0
    7.2400   -2.0885   -2.2340 H   0  0  0  0  0  0  0  0  0  0  0  0
    6.9865   -2.2298    0.5614 H   0  0  0  0  0  0  0  0  0  0  0  0
  1  2  1  0  0  0  0
  1  8  1  0  0  0  0
  2 12  1  0  0  0  0
  2 11  1  0  0  0  0
  3  2  1  0  0  0  0
  4  3  1  0  0  0  0
  4 15  1  0  0  0  0
  5  6  1  0  0  0  0
  5  4  2  0  0  0  0
  6 17  1  0  0  0  0
  6  7  1  0  0  0  0
  7 19  1  0  0  0  0
  9  1  1  0  0  0  0
 10  1  1  0  0  0  0
 13  3  1  0  0  0  0
 14  3  1  0  0  0  0
 16  5  1  0  0  0  0
 18  6  1  0  0  0  0
M  END
>  <HBA>
1

>  <HBD>
1

>  <TPSA>
20.23

>  <cid>
13577

>  <dipole>
2.08

>  <excitation_energy_1>
6.26

>  <excitation_energy_2>
6.426

>  <excitation_energy_3>
6.7

>  <excitation_energy_4>
6.752

>  <homo_energy>
-6.713

>  <homo_lumo_gap>
7.083

>  <logP>
1.335

>  <lumo_energy>
0.37

>  <melting_point>
1.85

>  <molecular_refractivity>
31.64

>  <oscillator_strength_1>
0.1236

>  <oscillator_strength_2>
0.0312

>  <oscillator_strength_3>
0.0551

>  <oscillator_strength_4>
0.0599

>  <open_babel_can_smiles>
CCC/C=C/CO

>  <mulliken_charges>
19
1   -0.44216
2   -0.248174
3   -0.295379
4   -0.090636
5   -0.135221
6   -0.06797
7   -0.612402
8   0.145249
9   0.144193
10   0.143172
11   0.13787
12   0.132963
13   0.14199
14   0.139153
15   0.119696
16   0.129071
17   0.123263
18   0.151454
19   0.383867

>  <lowdin_charges>
19
1   -0.445313
2   -0.270817
3   -0.271537
4   -0.157883
5   -0.195533
6   -0.130001
7   -0.469368
8   0.151538
9   0.14731
10   0.148135
11   0.143349
12   0.139428
13   0.149392
14   0.145541
15   0.145667
16   0.151887
17   0.127186
18   0.151573
19   0.339448

$$$$

