PCCDB-ID:  66708
public computational chemistry database (PCCDB) project, http://pccdb.org

 22 23  0  0  0  0  0  0  0  0999 V2000
    1.0018    0.0522   -0.2832 C   0  0  0  0  0  0  0  0  0  0  0  0
    3.2566    1.1991   -0.0681 C   0  0  0  0  0  0  0  0  0  0  0  0
    5.3556   -2.5517    0.1990 C   0  0  0  0  0  0  0  0  0  0  0  0
    4.6436    1.1663    0.0732 C   0  0  0  0  0  0  0  0  0  0  0  0
    6.7272   -2.3573   -0.4628 C   0  0  0  0  0  0  0  0  0  0  0  0
    3.1886   -1.2017   -0.0487 C   0  0  0  0  0  0  0  0  0  0  0  0
    2.5052    0.0193   -0.1318 C   0  0  0  0  0  0  0  0  0  0  0  0
    4.5744   -1.2655    0.1015 C   0  0  0  0  0  0  0  0  0  0  0  0
    5.2880   -0.0632    0.1570 C   0  0  0  0  0  0  0  0  0  0  0  0
    7.4494   -1.1372    0.0775 C   0  0  0  0  0  0  0  0  0  0  0  0
    8.6344   -1.0623    0.2726 O   0  0  0  0  0  0  0  0  0  0  0  0
    6.6677   -0.0367    0.3383 O   0  0  0  0  0  0  0  0  0  0  0  0
    0.6373    1.0757   -0.4152 H   0  0  0  0  0  0  0  0  0  0  0  0
    0.4998   -0.3667    0.5982 H   0  0  0  0  0  0  0  0  0  0  0  0
    0.6713   -0.5337   -1.1496 H   0  0  0  0  0  0  0  0  0  0  0  0
    2.7526    2.1600   -0.1348 H   0  0  0  0  0  0  0  0  0  0  0  0
    5.4945   -2.8345    1.2528 H   0  0  0  0  0  0  0  0  0  0  0  0
    4.8149   -3.3763   -0.2774 H   0  0  0  0  0  0  0  0  0  0  0  0
    5.2319    2.0770    0.1193 H   0  0  0  0  0  0  0  0  0  0  0  0
    6.5956   -2.2086   -1.5439 H   0  0  0  0  0  0  0  0  0  0  0  0
    7.3886   -3.2152   -0.3248 H   0  0  0  0  0  0  0  0  0  0  0  0
    2.6270   -2.1330   -0.1020 H   0  0  0  0  0  0  0  0  0  0  0  0
  1  7  1  0  0  0  0
  1 14  1  0  0  0  0
  2  4  1  0  0  0  0
  3 17  1  0  0  0  0
  4 19  1  0  0  0  0
  4  9  2  0  0  0  0
  5 21  1  0  0  0  0
  5 10  1  0  0  0  0
  5  3  1  0  0  0  0
  6  8  2  0  0  0  0
  7  2  2  0  0  0  0
  7  6  1  0  0  0  0
  8  9  1  0  0  0  0
  8  3  1  0  0  0  0
  9 12  1  0  0  0  0
 10 11  2  0  0  0  0
 10 12  1  0  0  0  0
 13  1  1  0  0  0  0
 15  1  1  0  0  0  0
 16  2  1  0  0  0  0
 18  3  1  0  0  0  0
 20  5  1  0  0  0  0
 22  6  1  0  0  0  0
M  END
>  <HBA>
2

>  <HBD>
0

>  <TPSA>
26.3

>  <cid>
66708

>  <dipole>
4.37

>  <excitation_energy_1>
4.932

>  <excitation_energy_2>
5.202

>  <excitation_energy_3>
5.47

>  <excitation_energy_4>
5.668

>  <homo_energy>
-6.283

>  <homo_lumo_gap>
5.878

>  <logP>
1.847

>  <lumo_energy>
-0.405

>  <melting_point>
61.4

>  <molecular_refractivity>
45.76

>  <oscillator_strength_1>
0.0144

>  <oscillator_strength_2>
0.1243

>  <oscillator_strength_3>
0.0206

>  <oscillator_strength_4>
0.0027

>  <open_babel_can_smiles>
O=C1CCc2c(O1)ccc(c2)C

>  <mulliken_charges>
22
1   -0.531817
2   -0.193546
3   -0.350313
4   -0.170564
5   -0.37756
6   -0.262205
7   0.189018
8   0.153939
9   0.296478
10   0.600035
11   -0.439001
12   -0.502294
13   0.157471
14   0.165006
15   0.16222
16   0.129871
17   0.172701
18   0.160189
19   0.150464
20   0.184494
21   0.182652
22   0.12276

>  <lowdin_charges>
22
1   -0.442401
2   -0.160658
3   -0.269939
4   -0.170171
5   -0.304175
6   -0.166394
7   -0.003954
8   -0.036171
9   0.087374
10   0.199087
11   -0.223392
12   -0.150434
13   0.157468
14   0.162312
15   0.16114
16   0.159047
17   0.160195
18   0.161889
19   0.173183
20   0.173054
21   0.17722
22   0.155721

$$$$

