PCCDB-ID:  20788
public computational chemistry database (PCCDB) project, http://pccdb.org

 30 30  0  0  0  0  0  0  0  0999 V2000
   -1.5580   -0.3471   -1.0675 C   0  0  0  0  0  0  0  0  0  0  0  0
   -1.1231   -0.9739    0.1016 C   0  0  0  0  0  0  0  0  0  0  0  0
   -0.6624    0.4267   -1.8077 C   0  0  0  0  0  0  0  0  0  0  0  0
    0.1990   -0.8282    0.5239 C   0  0  0  0  0  0  0  0  0  0  0  0
    0.6588    0.5687   -1.3809 C   0  0  0  0  0  0  0  0  0  0  0  0
    2.5539    0.0623    0.2259 C   0  0  0  0  0  0  0  0  0  0  0  0
    3.4353   -1.0677   -0.3342 C   0  0  0  0  0  0  0  0  0  0  0  0
    8.8631   -0.6819    1.1113 C   0  0  0  0  0  0  0  0  0  0  0  0
    7.3610   -0.5603    0.9254 C   0  0  0  0  0  0  0  0  0  0  0  0
    1.1102   -0.0560   -0.2101 C   0  0  0  0  0  0  0  0  0  0  0  0
    5.6988   -1.6934   -0.3266 C   0  0  0  0  0  0  0  0  0  0  0  0
    4.8086   -0.9061    0.1210 N   0  0  0  0  0  0  0  0  0  0  0  0
    9.5661   -0.5152   -0.1075 O   0  0  0  0  0  0  0  0  0  0  0  0
    5.5700   -2.7213   -1.2033 O   0  0  0  0  0  0  0  0  0  0  0  0
    6.9913   -1.6260    0.0273 O   0  0  0  0  0  0  0  0  0  0  0  0
   -2.5883   -0.4555   -1.3956 H   0  0  0  0  0  0  0  0  0  0  0  0
   -1.8144   -1.5734    0.6885 H   0  0  0  0  0  0  0  0  0  0  0  0
   -0.9927    0.9244   -2.7159 H   0  0  0  0  0  0  0  0  0  0  0  0
    0.5285   -1.3129    1.4408 H   0  0  0  0  0  0  0  0  0  0  0  0
    1.3492    1.1796   -1.9590 H   0  0  0  0  0  0  0  0  0  0  0  0
    2.9784    1.0181   -0.1021 H   0  0  0  0  0  0  0  0  0  0  0  0
    2.6309    0.0403    1.3192 H   0  0  0  0  0  0  0  0  0  0  0  0
    3.3616   -1.0504   -1.4369 H   0  0  0  0  0  0  0  0  0  0  0  0
    3.0157   -2.0342   -0.0052 H   0  0  0  0  0  0  0  0  0  0  0  0
    9.0963   -1.6497    1.5837 H   0  0  0  0  0  0  0  0  0  0  0  0
    9.2048    0.1110    1.7848 H   0  0  0  0  0  0  0  0  0  0  0  0
    7.0893    0.3986    0.4739 H   0  0  0  0  0  0  0  0  0  0  0  0
    6.8171   -0.6689    1.8699 H   0  0  0  0  0  0  0  0  0  0  0  0
    9.1999   -1.1709   -0.7232 H   0  0  0  0  0  0  0  0  0  0  0  0
    4.6363   -2.7892   -1.4586 H   0  0  0  0  0  0  0  0  0  0  0  0
  1  2  2  0  0  0  0
  2  4  1  0  0  0  0
  2 17  1  0  0  0  0
  3  5  2  0  0  0  0
  3  1  1  0  0  0  0
  4 19  1  0  0  0  0
  5 10  1  0  0  0  0
  6 22  1  0  0  0  0
  7 24  1  0  0  0  0
  7 12  1  0  0  0  0
  7  6  1  0  0  0  0
  8 25  1  0  0  0  0
  8 26  1  0  0  0  0
  9  8  1  0  0  0  0
  9 28  1  0  0  0  0
 10  6  1  0  0  0  0
 10  4  2  0  0  0  0
 11 15  1  0  0  0  0
 11 12  2  0  0  0  0
 13  8  1  0  0  0  0
 14 11  1  0  0  0  0
 15  9  1  0  0  0  0
 16  1  1  0  0  0  0
 18  3  1  0  0  0  0
 20  5  1  0  0  0  0
 21  6  1  0  0  0  0
 23  7  1  0  0  0  0
 27  9  1  0  0  0  0
 29 13  1  0  0  0  0
 30 14  1  0  0  0  0
M  END
>  <HBA>
4

>  <HBD>
2

>  <TPSA>
58.56

>  <cid>
20788

>  <dipole>
2.6

>  <excitation_energy_1>
5.308

>  <excitation_energy_2>
5.877

>  <excitation_energy_3>
5.946

>  <excitation_energy_4>
5.982

>  <homo_energy>
-6.593

>  <homo_lumo_gap>
6.558

>  <logP>
1.339

>  <lumo_energy>
-0.035

>  <melting_point>
73.07

>  <molecular_refractivity>
56.27

>  <oscillator_strength_1>
0.0006

>  <oscillator_strength_2>
0.0442

>  <oscillator_strength_3>
0.0014

>  <oscillator_strength_4>
0.0005

>  <open_babel_can_smiles>
OCCO/C(=N/CCc1ccccc1)/O

>  <mulliken_charges>
30
1   -0.131308
2   -0.12801
3   -0.127846
4   -0.181702
5   -0.182237
6   -0.347786
7   -0.167328
8   -0.045698
9   -0.040168
10   0.162438
11   0.697876
12   -0.467274
13   -0.61771
14   -0.595781
15   -0.481554
16   0.128912
17   0.129177
18   0.129338
19   0.124052
20   0.124458
21   0.153986
22   0.154853
23   0.130528
24   0.138496
25   0.134282
26   0.152132
27   0.16705
28   0.154832
29   0.402976
30   0.429016

>  <lowdin_charges>
30
1   -0.159446
2   -0.156908
3   -0.155054
4   -0.167928
5   -0.16993
6   -0.269984
7   -0.203133
8   -0.140768
9   -0.138369
10   -0.004193
11   0.190247
12   -0.278854
13   -0.466924
14   -0.359327
15   -0.19074
16   0.156318
17   0.158775
18   0.157583
19   0.154587
20   0.156131
21   0.1559
22   0.154449
23   0.127016
24   0.134167
25   0.134362
26   0.155413
27   0.157336
28   0.154481
29   0.348198
30   0.366594

$$$$

