PCCDB-ID:  16970
public computational chemistry database (PCCDB) project, http://pccdb.org

 22 21  0  0  0  0  0  0  0  0999 V2000
   -0.3802    2.1129   -2.2536 C   0  0  0  0  0  0  0  0  0  0  0  0
    8.6123    2.1784   -0.1233 C   0  0  0  0  0  0  0  0  0  0  0  0
    0.8713    1.8103   -1.4900 C   0  0  0  0  0  0  0  0  0  0  0  0
    8.0680    0.9273   -0.7984 C   0  0  0  0  0  0  0  0  0  0  0  0
    2.1134    1.7965   -2.0078 C   0  0  0  0  0  0  0  0  0  0  0  0
    3.2976    1.5017   -1.2294 C   0  0  0  0  0  0  0  0  0  0  0  0
    4.5544    1.4812   -1.7168 C   0  0  0  0  0  0  0  0  0  0  0  0
    5.6978    1.1707   -0.8394 C   0  0  0  0  0  0  0  0  0  0  0  0
    5.6319    0.9077    0.3485 O   0  0  0  0  0  0  0  0  0  0  0  0
    6.8614    1.2109   -1.5397 O   0  0  0  0  0  0  0  0  0  0  0  0
   -0.8925    2.9914   -1.8374 H   0  0  0  0  0  0  0  0  0  0  0  0
   -1.0930    1.2794   -2.1895 H   0  0  0  0  0  0  0  0  0  0  0  0
   -0.1740    2.3069   -3.3111 H   0  0  0  0  0  0  0  0  0  0  0  0
    9.5605    1.9497    0.3772 H   0  0  0  0  0  0  0  0  0  0  0  0
    7.9077    2.5459    0.6281 H   0  0  0  0  0  0  0  0  0  0  0  0
    8.7927    2.9706   -0.8575 H   0  0  0  0  0  0  0  0  0  0  0  0
    0.7493    1.5867   -0.4290 H   0  0  0  0  0  0  0  0  0  0  0  0
    7.8572    0.1454   -0.0646 H   0  0  0  0  0  0  0  0  0  0  0  0
    8.7647    0.5441   -1.5486 H   0  0  0  0  0  0  0  0  0  0  0  0
    2.2546    2.0166   -3.0666 H   0  0  0  0  0  0  0  0  0  0  0  0
    3.1646    1.2801   -0.1710 H   0  0  0  0  0  0  0  0  0  0  0  0
    4.7702    1.6915   -2.7605 H   0  0  0  0  0  0  0  0  0  0  0  0
  1 12  1  0  0  0  0
  1 11  1  0  0  0  0
  1  3  1  0  0  0  0
  2 14  1  0  0  0  0
  2 15  1  0  0  0  0
  3 17  1  0  0  0  0
  4  2  1  0  0  0  0
  4 18  1  0  0  0  0
  5  3  2  0  0  0  0
  5  6  1  0  0  0  0
  6 21  1  0  0  0  0
  7  6  2  0  0  0  0
  7  8  1  0  0  0  0
  8  9  2  0  0  0  0
 10  8  1  0  0  0  0
 10  4  1  0  0  0  0
 13  1  1  0  0  0  0
 16  2  1  0  0  0  0
 19  4  1  0  0  0  0
 20  5  1  0  0  0  0
 22  7  1  0  0  0  0
M  END
>  <HBA>
2

>  <HBD>
0

>  <TPSA>
26.3

>  <cid>
16970

>  <dipole>
2.0

>  <excitation_energy_1>
4.512

>  <excitation_energy_2>
4.802

>  <excitation_energy_3>
5.79

>  <excitation_energy_4>
6.04

>  <homo_energy>
-6.31

>  <homo_lumo_gap>
4.803

>  <logP>
1.682

>  <lumo_energy>
-1.508

>  <melting_point>
4.13

>  <molecular_refractivity>
40.91

>  <oscillator_strength_1>
0.0004

>  <oscillator_strength_2>
0.9427

>  <oscillator_strength_3>
0.0455

>  <oscillator_strength_4>
0.0001

>  <open_babel_can_smiles>
CCOC(=O)/C=C/C=C/C

>  <mulliken_charges>
22
1   -0.494697
2   -0.460738
3   -0.094272
4   -0.040828
5   -0.103476
6   -0.07784
7   -0.219019
8   0.616508
9   -0.505066
10   -0.479698
11   0.166172
12   0.165673
13   0.159921
14   0.147014
15   0.176126
16   0.154856
17   0.138803
18   0.169004
19   0.14857
20   0.127161
21   0.162402
22   0.143423

>  <lowdin_charges>
22
1   -0.43889
2   -0.456592
3   -0.126992
4   -0.130876
5   -0.166584
6   -0.097107
7   -0.2085
8   0.1915
9   -0.286386
10   -0.198577
11   0.164689
12   0.164301
13   0.157296
14   0.156958
15   0.166326
16   0.155479
17   0.154503
18   0.158825
19   0.151586
20   0.152516
21   0.171434
22   0.165093

$$$$

