PCCDB-ID:  11347
public computational chemistry database (PCCDB) project, http://pccdb.org

 31 32  0  0  0  0  0  0  0  0999 V2000
    1.6701   -0.5309    0.0654 C   0  0  0  0  0  0  0  0  0  0  0  0
    4.6917   -4.5032    0.6741 C   0  0  0  0  0  0  0  0  0  0  0  0
    8.3692    0.2735    1.7012 C   0  0  0  0  0  0  0  0  0  0  0  0
   10.2022   -4.2261    2.0093 C   0  0  0  0  0  0  0  0  0  0  0  0
    3.1419   -0.4740    0.4239 C   0  0  0  0  0  0  0  0  0  0  0  0
    6.7597   -3.0820    1.2158 C   0  0  0  0  0  0  0  0  0  0  0  0
    6.9383   -1.7169    1.2993 C   0  0  0  0  0  0  0  0  0  0  0  0
    7.8006   -4.0330    1.4387 C   0  0  0  0  0  0  0  0  0  0  0  0
    4.9069   -1.9946    0.8027 C   0  0  0  0  0  0  0  0  0  0  0  0
    9.2517   -2.0046    1.8457 C   0  0  0  0  0  0  0  0  0  0  0  0
    5.7893   -1.0285    1.0435 N   0  0  0  0  0  0  0  0  0  0  0  0
    5.4089   -3.2510    0.8863 N   0  0  0  0  0  0  0  0  0  0  0  0
    8.1606   -1.1701    1.6098 N   0  0  0  0  0  0  0  0  0  0  0  0
    9.0287   -3.3866    1.7523 N   0  0  0  0  0  0  0  0  0  0  0  0
    7.7061   -5.2592    1.3811 O   0  0  0  0  0  0  0  0  0  0  0  0
   10.3526   -1.5471    2.1220 O   0  0  0  0  0  0  0  0  0  0  0  0
    3.6193   -1.8391    0.4973 O   0  0  0  0  0  0  0  0  0  0  0  0
    1.2681    0.4857    0.0001 H   0  0  0  0  0  0  0  0  0  0  0  0
    1.1033   -1.0782    0.8251 H   0  0  0  0  0  0  0  0  0  0  0  0
    1.5215   -1.0236   -0.9006 H   0  0  0  0  0  0  0  0  0  0  0  0
    5.4017   -5.3149    0.8307 H   0  0  0  0  0  0  0  0  0  0  0  0
    4.2951   -4.5449   -0.3447 H   0  0  0  0  0  0  0  0  0  0  0  0
    3.8621   -4.5888    1.3820 H   0  0  0  0  0  0  0  0  0  0  0  0
    7.4150    0.7607    1.5043 H   0  0  0  0  0  0  0  0  0  0  0  0
    9.1151    0.5929    0.9685 H   0  0  0  0  0  0  0  0  0  0  0  0
    8.7313    0.5368    2.6982 H   0  0  0  0  0  0  0  0  0  0  0  0
    9.8864   -5.2623    1.9056 H   0  0  0  0  0  0  0  0  0  0  0  0
   10.5830   -4.0390    3.0164 H   0  0  0  0  0  0  0  0  0  0  0  0
   10.9940   -3.9920    1.2935 H   0  0  0  0  0  0  0  0  0  0  0  0
    3.3131    0.0088    1.3916 H   0  0  0  0  0  0  0  0  0  0  0  0
    3.7301    0.0623   -0.3278 H   0  0  0  0  0  0  0  0  0  0  0  0
  1  5  1  0  0  0  0
  1 19  1  0  0  0  0
  2 21  1  0  0  0  0
  2 12  1  0  0  0  0
  2 23  1  0  0  0  0
  3 26  1  0  0  0  0
  4 28  1  0  0  0  0
  5 17  1  0  0  0  0
  5 30  1  0  0  0  0
  6  7  2  0  0  0  0
  6  8  1  0  0  0  0
  7 13  1  0  0  0  0
  8 14  1  0  0  0  0
  9 12  1  0  0  0  0
  9 11  2  0  0  0  0
 10 16  2  0  0  0  0
 11  7  1  0  0  0  0
 12  6  1  0  0  0  0
 13  3  1  0  0  0  0
 13 10  1  0  0  0  0
 14 10  1  0  0  0  0
 14  4  1  0  0  0  0
 15  8  2  0  0  0  0
 17  9  1  0  0  0  0
 18  1  1  0  0  0  0
 20  1  1  0  0  0  0
 22  2  1  0  0  0  0
 24  3  1  0  0  0  0
 25  3  1  0  0  0  0
 27  4  1  0  0  0  0
 29  4  1  0  0  0  0
 31  5  1  0  0  0  0
M  END
>  <HBA>
7

>  <HBD>
0

>  <TPSA>
71.05

>  <cid>
11347

>  <dipole>
5.22

>  <excitation_energy_1>
4.669

>  <excitation_energy_2>
4.929

>  <excitation_energy_3>
5.151

>  <excitation_energy_4>
5.485

>  <homo_energy>
-5.548

>  <homo_lumo_gap>
5.113

>  <logP>
-0.631

>  <lumo_energy>
-0.435

>  <melting_point>
148.99

>  <molecular_refractivity>
63.34

>  <oscillator_strength_1>
0.2004

>  <oscillator_strength_2>
0.0035

>  <oscillator_strength_3>
0.0

>  <oscillator_strength_4>
0.0029

>  <open_babel_can_smiles>
CCOc1nc2c(n1C)c(=O)n(c(=O)n2C)C

>  <mulliken_charges>
31
1   -0.462823
2   -0.342182
3   -0.319861
4   -0.31396
5   -0.031791
6   0.227973
7   0.486458
8   0.624599
9   0.775718
10   0.782895
11   -0.598164
12   -0.569216
13   -0.59658
14   -0.571857
15   -0.545389
16   -0.53189
17   -0.512485
18   0.158573
19   0.165653
20   0.165657
21   0.222963
22   0.176089
23   0.176184
24   0.191677
25   0.180505
26   0.181375
27   0.19821
28   0.174935
29   0.174883
30   0.165849
31   0.166004

>  <lowdin_charges>
31
1   -0.448743
2   -0.350847
3   -0.341472
4   -0.349263
5   -0.113188
6   -0.082568
7   0.073908
8   0.154196
9   0.15796
10   0.186479
11   -0.249571
12   -0.018486
13   -0.056057
14   -0.090049
15   -0.320022
16   -0.314052
17   -0.183129
18   0.162426
19   0.162339
20   0.160862
21   0.19518
22   0.163979
23   0.165568
24   0.177457
25   0.168375
26   0.167678
27   0.1805
28   0.164086
29   0.165548
30   0.154608
31   0.156299

$$$$

