PCCDB-ID:  15199
public computational chemistry database (PCCDB) project, http://pccdb.org

 14 14  0  0  1  0  0  0  0  0999 V2000
    1.0068   -0.0225   -0.3310 C   0  0  0  0  0  0  0  0  0  0  0  0
    2.8953   -1.1976    1.1692 C   0  0  0  0  0  0  0  0  0  0  0  0
    3.6825   -0.1178    1.9724 C   0  0  0  0  0  0  0  0  0  0  0  0
    2.4596   -0.1237    0.1188 C   0  0  2  0  0  0  0  0  0  0  0  0
    2.9822    0.9400    1.1034 C   0  0  0  0  0  0  0  0  0  0  0  0
    2.7972    2.1253    1.2131 O   0  0  0  0  0  0  0  0  0  0  0  0
    0.7279   -0.8704   -0.9668 H   0  0  0  0  0  0  0  0  0  0  0  0
    0.8453    0.8995   -0.8998 H   0  0  0  0  0  0  0  0  0  0  0  0
    0.3285   -0.0063    0.5299 H   0  0  0  0  0  0  0  0  0  0  0  0
    2.0409   -1.5881    1.7308 H   0  0  0  0  0  0  0  0  0  0  0  0
    3.4797   -2.0374    0.7858 H   0  0  0  0  0  0  0  0  0  0  0  0
    4.7646   -0.1407    1.7959 H   0  0  0  0  0  0  0  0  0  0  0  0
    3.5091   -0.0425    3.0505 H   0  0  0  0  0  0  0  0  0  0  0  0
    3.1264   -0.1524   -0.7554 H   0  0  0  0  0  0  0  0  0  0  0  0
  1  4  1  0  0  0  0
  1  9  1  0  0  0  0
  2 10  1  0  0  0  0
  2  3  1  0  0  0  0
  3 13  1  0  0  0  0
  4 14  1  6  0  0  0
  4  5  1  0  0  0  0
  4  2  1  0  0  0  0
  5  6  2  0  0  0  0
  5  3  1  0  0  0  0
  7  1  1  0  0  0  0
  8  1  1  0  0  0  0
 11  2  1  0  0  0  0
 12  3  1  0  0  0  0
M  END
>  <HBA>
1

>  <HBD>
0

>  <TPSA>
17.07

>  <cid>
15199

>  <dipole>
2.74

>  <excitation_energy_1>
4.196

>  <excitation_energy_2>
6.157

>  <excitation_energy_3>
6.628

>  <excitation_energy_4>
6.671

>  <homo_energy>
-6.485

>  <homo_lumo_gap>
5.981

>  <logP>
0.985

>  <lumo_energy>
-0.503

>  <melting_point>
18.07

>  <molecular_refractivity>
24.23

>  <oscillator_strength_1>
0.0001

>  <oscillator_strength_2>
0.0312

>  <oscillator_strength_3>
0.0226

>  <oscillator_strength_4>
0.005

>  <open_babel_can_smiles>
O=C1CC[C@H]1C

>  <mulliken_charges>
14
1   -0.445906
2   -0.301843
3   -0.35857
4   -0.154613
5   0.423091
6   -0.427105
7   0.150093
8   0.166248
9   0.149193
10   0.151723
11   0.146377
12   0.171984
13   0.17054
14   0.158788

>  <lowdin_charges>
14
1   -0.439926
2   -0.289039
3   -0.31867
4   -0.164685
5   0.148476
6   -0.208911
7   0.155238
8   0.163431
9   0.152526
10   0.153104
11   0.15167
12   0.168698
13   0.16506
14   0.163026

$$$$

