PCCDB-ID:  66221
public computational chemistry database (PCCDB) project, http://pccdb.org

 29 28  0  0  0  0  0  0  0  0999 V2000
    0.8431   -1.6114    0.3818 C   0  0  0  0  0  0  0  0  0  0  0  0
    5.4757   -1.5211    2.7555 C   0  0  0  0  0  0  0  0  0  0  0  0
    5.5818   -3.5765   -3.0506 C   0  0  0  0  0  0  0  0  0  0  0  0
    4.8138    0.3527   -1.1818 C   0  0  0  0  0  0  0  0  0  0  0  0
    2.1963   -2.0399   -0.1611 C   0  0  0  0  0  0  0  0  0  0  0  0
    5.0175   -0.6717    1.5803 C   0  0  0  0  0  0  0  0  0  0  0  0
    5.7379   -2.4522   -2.0392 C   0  0  0  0  0  0  0  0  0  0  0  0
    4.2998   -1.0107   -0.7137 C   0  0  0  0  0  0  0  0  0  0  0  0
    2.9371   -0.8454   -0.4580 O   0  0  0  0  0  0  0  0  0  0  0  0
    4.9919   -1.5071    0.4230 O   0  0  0  0  0  0  0  0  0  0  0  0
    4.4248   -1.9982   -1.7034 O   0  0  0  0  0  0  0  0  0  0  0  0
    0.2254   -2.4908    0.5963 H   0  0  0  0  0  0  0  0  0  0  0  0
    0.3144   -0.9883   -0.3472 H   0  0  0  0  0  0  0  0  0  0  0  0
    0.9555   -1.0336    1.3055 H   0  0  0  0  0  0  0  0  0  0  0  0
    5.5371   -0.9121    3.6645 H   0  0  0  0  0  0  0  0  0  0  0  0
    6.4641   -1.9494    2.5592 H   0  0  0  0  0  0  0  0  0  0  0  0
    4.7761   -2.3439    2.9345 H   0  0  0  0  0  0  0  0  0  0  0  0
    6.5649   -3.9564   -3.3504 H   0  0  0  0  0  0  0  0  0  0  0  0
    5.0579   -3.2235   -3.9448 H   0  0  0  0  0  0  0  0  0  0  0  0
    5.0065   -4.4026   -2.6202 H   0  0  0  0  0  0  0  0  0  0  0  0
    4.5566    1.1320   -0.4605 H   0  0  0  0  0  0  0  0  0  0  0  0
    4.3416    0.5970   -2.1362 H   0  0  0  0  0  0  0  0  0  0  0  0
    5.8997    0.3354   -1.3093 H   0  0  0  0  0  0  0  0  0  0  0  0
    2.0846   -2.6356   -1.0735 H   0  0  0  0  0  0  0  0  0  0  0  0
    2.7460   -2.6436    0.5704 H   0  0  0  0  0  0  0  0  0  0  0  0
    5.7095    0.1698    1.4278 H   0  0  0  0  0  0  0  0  0  0  0  0
    4.0180   -0.2571    1.7629 H   0  0  0  0  0  0  0  0  0  0  0  0
    6.3265   -1.6298   -2.4726 H   0  0  0  0  0  0  0  0  0  0  0  0
    6.2554   -2.7994   -1.1390 H   0  0  0  0  0  0  0  0  0  0  0  0
  1 12  1  0  0  0  0
  1 14  1  0  0  0  0
  2 17  1  0  0  0  0
  2 15  1  0  0  0  0
  3 20  1  0  0  0  0
  3  7  1  0  0  0  0
  4  8  1  0  0  0  0
  4 21  1  0  0  0  0
  5  1  1  0  0  0  0
  5 25  1  0  0  0  0
  6 27  1  0  0  0  0
  6  2  1  0  0  0  0
  7 11  1  0  0  0  0
  7 29  1  0  0  0  0
  8  9  1  0  0  0  0
  8 10  1  0  0  0  0
  9  5  1  0  0  0  0
 10  6  1  0  0  0  0
 11  8  1  0  0  0  0
 13  1  1  0  0  0  0
 16  2  1  0  0  0  0
 18  3  1  0  0  0  0
 19  3  1  0  0  0  0
 22  4  1  0  0  0  0
 23  4  1  0  0  0  0
 24  5  1  0  0  0  0
 26  6  1  0  0  0  0
 28  7  1  0  0  0  0
M  END
>  <HBA>
3

>  <HBD>
0

>  <TPSA>
27.69

>  <cid>
66221

>  <dipole>
1.15

>  <excitation_energy_1>
6.732

>  <excitation_energy_2>
6.819

>  <excitation_energy_3>
6.958

>  <excitation_energy_4>
7.13

>  <homo_energy>
-7.037

>  <homo_lumo_gap>
9.445

>  <logP>
1.77

>  <lumo_energy>
2.408

>  <melting_point>
-43.72

>  <molecular_refractivity>
43.86

>  <oscillator_strength_1>
0.0025

>  <oscillator_strength_2>
0.0024

>  <oscillator_strength_3>
0.0046

>  <oscillator_strength_4>
0.0007

>  <open_babel_can_smiles>
CCOC(OCC)(OCC)C

>  <mulliken_charges>
29
1   -0.457189
2   -0.454533
3   -0.455489
4   -0.495853
5   -0.019752
6   -0.02049
7   -0.015481
8   0.79396
9   -0.50978
10   -0.512165
11   -0.521027
12   0.141736
13   0.15692
14   0.149529
15   0.142923
16   0.156091
17   0.156687
18   0.141803
19   0.156093
20   0.157404
21   0.159483
22   0.168406
23   0.150892
24   0.147772
25   0.138897
26   0.127308
27   0.143388
28   0.120638
29   0.15183

>  <lowdin_charges>
29
1   -0.4508
2   -0.448178
3   -0.448896
4   -0.465987
5   -0.131457
6   -0.128564
7   -0.128556
8   0.281186
9   -0.255403
10   -0.274438
11   -0.255999
12   0.15338
13   0.157196
14   0.151511
15   0.15381
16   0.155151
17   0.155967
18   0.152834
19   0.155836
20   0.157076
21   0.164142
22   0.169141
23   0.155085
24   0.143335
25   0.140261
26   0.130516
27   0.138336
28   0.128808
29   0.144709

$$$$

