PCCDB-ID:  23506
public computational chemistry database (PCCDB) project, http://pccdb.org

 19 19  0  0  0  0  0  0  0  0999 V2000
    0.6498    1.1999   -0.0621 C   0  0  0  0  0  0  0  0  0  0  0  0
    1.3785   -0.1021    0.3124 C   0  0  0  0  0  0  0  0  0  0  0  0
   -0.8540    1.1116    0.2506 C   0  0  0  0  0  0  0  0  0  0  0  0
    0.6982   -1.3185   -0.3333 C   0  0  0  0  0  0  0  0  0  0  0  0
   -1.4771   -0.1356   -0.3940 C   0  0  0  0  0  0  0  0  0  0  0  0
   -0.7391   -1.3523   -0.0226 N   0  0  0  0  0  0  0  0  0  0  0  0
   -1.0847   -1.9251    1.2004 N   0  0  0  0  0  0  0  0  0  0  0  0
   -2.1976   -1.6579    1.6551 O   0  0  0  0  0  0  0  0  0  0  0  0
   -0.2754   -2.7012    1.7097 O   0  0  0  0  0  0  0  0  0  0  0  0
    0.7847    1.3937   -1.1367 H   0  0  0  0  0  0  0  0  0  0  0  0
    1.0971    2.0496    0.4670 H   0  0  0  0  0  0  0  0  0  0  0  0
    1.3763   -0.2374    1.4018 H   0  0  0  0  0  0  0  0  0  0  0  0
    2.4282   -0.0646   -0.0033 H   0  0  0  0  0  0  0  0  0  0  0  0
   -1.3789    2.0052   -0.1086 H   0  0  0  0  0  0  0  0  0  0  0  0
   -1.0123    1.0613    1.3357 H   0  0  0  0  0  0  0  0  0  0  0  0
    1.1395   -2.2601   -0.0126 H   0  0  0  0  0  0  0  0  0  0  0  0
    0.7644   -1.2628   -1.4264 H   0  0  0  0  0  0  0  0  0  0  0  0
   -1.4187   -0.0749   -1.4874 H   0  0  0  0  0  0  0  0  0  0  0  0
   -2.5203   -0.2702   -0.1154 H   0  0  0  0  0  0  0  0  0  0  0  0
  1  3  1  0  0  0  0
  1  2  1  0  0  0  0
  1 11  1  0  0  0  0
  2 12  1  0  0  0  0
  3 15  1  0  0  0  0
  4  6  1  0  0  0  0
  4 16  1  0  0  0  0
  4  2  1  0  0  0  0
  5 19  1  0  0  0  0
  5  6  1  0  0  0  0
  5  3  1  0  0  0  0
  6  7  1  0  0  0  0
  7  8  2  0  0  0  0
  7  9  2  0  0  0  0
 10  1  1  0  0  0  0
 13  2  1  0  0  0  0
 14  3  1  0  0  0  0
 17  4  1  0  0  0  0
 18  5  1  0  0  0  0
M  END
>  <HBA>
1

>  <HBD>
0

>  <TPSA>
49.06

>  <cid>
23506

>  <dipole>
4.56

>  <excitation_energy_1>
4.472

>  <excitation_energy_2>
5.119

>  <excitation_energy_3>
5.656

>  <excitation_energy_4>
6.475

>  <homo_energy>
-7.132

>  <homo_lumo_gap>
6.016

>  <logP>
1.125

>  <lumo_energy>
-1.116

>  <melting_point>
30.07

>  <molecular_refractivity>
38.95

>  <oscillator_strength_1>
0.0

>  <oscillator_strength_2>
0.0893

>  <oscillator_strength_3>
0.0586

>  <oscillator_strength_4>
0.0118

>  <open_babel_can_smiles>
O=N(=O)N1CCCCC1

>  <mulliken_charges>
19
1   -0.266465
2   -0.271964
3   -0.271653
4   -0.159557
5   -0.159968
6   -0.267574
7   0.636455
8   -0.423662
9   -0.423738
10   0.133334
11   0.147463
12   0.159463
13   0.146994
14   0.146959
15   0.159413
16   0.200339
17   0.156845
18   0.15692
19   0.200395

>  <lowdin_charges>
19
1   -0.279261
2   -0.285414
3   -0.287803
4   -0.20766
5   -0.207001
6   -0.08335
7   0.335377
8   -0.275062
9   -0.277034
10   0.138275
11   0.153021
12   0.15148
13   0.153188
14   0.155084
15   0.151546
16   0.180515
17   0.152511
18   0.15252
19   0.179068

$$$$

