PCCDB-ID:  19315
public computational chemistry database (PCCDB) project, http://pccdb.org

 23 22  0  0  0  0  0  0  0  0999 V2000
    3.7412   -2.4409   -2.4639 C   0  0  0  0  0  0  0  0  0  0  0  0
    8.2798    0.9591    4.1224 C   0  0  0  0  0  0  0  0  0  0  0  0
    3.7609   -1.4107   -1.6174 C   0  0  0  0  0  0  0  0  0  0  0  0
    4.0747   -1.4958   -0.1486 C   0  0  0  0  0  0  0  0  0  0  0  0
    5.3090   -0.6646    0.2512 C   0  0  0  0  0  0  0  0  0  0  0  0
    5.5932   -0.7056    1.7573 C   0  0  0  0  0  0  0  0  0  0  0  0
    6.8177    0.1191    2.1559 C   0  0  0  0  0  0  0  0  0  0  0  0
    7.1349    0.0776    3.6474 C   0  0  0  0  0  0  0  0  0  0  0  0
    6.5053   -0.6194    4.4207 O   0  0  0  0  0  0  0  0  0  0  0  0
    3.5116   -2.3130   -3.5185 H   0  0  0  0  0  0  0  0  0  0  0  0
    3.9512   -3.4564   -2.1329 H   0  0  0  0  0  0  0  0  0  0  0  0
    8.0067    2.0170    4.0153 H   0  0  0  0  0  0  0  0  0  0  0  0
    9.1800    0.7999    3.5165 H   0  0  0  0  0  0  0  0  0  0  0  0
    8.4969    0.7503    5.1719 H   0  0  0  0  0  0  0  0  0  0  0  0
    3.5437   -0.4103   -1.9977 H   0  0  0  0  0  0  0  0  0  0  0  0
    4.2281   -2.5446    0.1379 H   0  0  0  0  0  0  0  0  0  0  0  0
    3.2100   -1.1371    0.4312 H   0  0  0  0  0  0  0  0  0  0  0  0
    5.1623    0.3776   -0.0694 H   0  0  0  0  0  0  0  0  0  0  0  0
    6.1823   -1.0339   -0.3045 H   0  0  0  0  0  0  0  0  0  0  0  0
    5.7399   -1.7426    2.0833 H   0  0  0  0  0  0  0  0  0  0  0  0
    4.7192   -0.3416    2.3125 H   0  0  0  0  0  0  0  0  0  0  0  0
    6.6987    1.1723    1.8582 H   0  0  0  0  0  0  0  0  0  0  0  0
    7.7131   -0.2264    1.6155 H   0  0  0  0  0  0  0  0  0  0  0  0
  1 11  1  0  0  0  0
  1  3  2  0  0  0  0
  2 14  1  0  0  0  0
  3  4  1  0  0  0  0
  4 16  1  0  0  0  0
  4  5  1  0  0  0  0
  4 17  1  0  0  0  0
  5  6  1  0  0  0  0
  6 20  1  0  0  0  0
  6  7  1  0  0  0  0
  6 21  1  0  0  0  0
  7  8  1  0  0  0  0
  8  2  1  0  0  0  0
  8  9  2  0  0  0  0
 10  1  1  0  0  0  0
 12  2  1  0  0  0  0
 13  2  1  0  0  0  0
 15  3  1  0  0  0  0
 18  5  1  0  0  0  0
 19  5  1  0  0  0  0
 22  7  1  0  0  0  0
 23  7  1  0  0  0  0
M  END
>  <HBA>
1

>  <HBD>
0

>  <TPSA>
17.07

>  <cid>
19315

>  <dipole>
2.6

>  <excitation_energy_1>
4.428

>  <excitation_energy_2>
5.964

>  <excitation_energy_3>
6.163

>  <excitation_energy_4>
6.473

>  <homo_energy>
-6.607

>  <homo_lumo_gap>
6.319

>  <logP>
2.322

>  <lumo_energy>
-0.288

>  <melting_point>
-27.1

>  <molecular_refractivity>
40.3

>  <oscillator_strength_1>
0.0001

>  <oscillator_strength_2>
0.0001

>  <oscillator_strength_3>
0.0381

>  <oscillator_strength_4>
0.0298

>  <open_babel_can_smiles>
C=CCCCCC(=O)C

>  <mulliken_charges>
23
1   -0.34167
2   -0.528299
3   -0.041462
4   -0.30109
5   -0.259095
6   -0.246022
7   -0.358651
8   0.454284
9   -0.436239
10   0.136945
11   0.134229
12   0.170019
13   0.163777
14   0.179774
15   0.12158
16   0.139258
17   0.142583
18   0.127155
19   0.136091
20   0.151135
21   0.145795
22   0.152669
23   0.157232

>  <lowdin_charges>
23
1   -0.341992
2   -0.474922
3   -0.143766
4   -0.270593
5   -0.273354
6   -0.270706
7   -0.310482
8   0.167905
9   -0.236145
10   0.155628
11   0.152449
12   0.169688
13   0.16664
14   0.171646
15   0.146815
16   0.145632
17   0.149589
18   0.136119
19   0.142451
20   0.150841
21   0.149817
22   0.155989
23   0.160754

$$$$

