PCCDB-ID:  48202
public computational chemistry database (PCCDB) project, http://pccdb.org

 28 27  0  0  0  0  0  0  0  0999 V2000
    2.9390   -0.6993   -1.5419 C   0  0  0  0  0  0  0  0  0  0  0  0
    3.0997    0.8260    2.8083 C   0  0  0  0  0  0  0  0  0  0  0  0
    6.8682   -2.5692    2.4231 C   0  0  0  0  0  0  0  0  0  0  0  0
    2.6234   -0.2244   -0.1180 C   0  0  0  0  0  0  0  0  0  0  0  0
    2.5769   -0.5581    2.4088 C   0  0  0  0  0  0  0  0  0  0  0  0
    5.3786   -2.2267    2.4578 C   0  0  0  0  0  0  0  0  0  0  0  0
    2.5123   -2.5674    0.8431 C   0  0  0  0  0  0  0  0  0  0  0  0
    3.0805   -1.1355    1.0603 C   0  0  0  0  0  0  0  0  0  0  0  0
    1.4033   -3.0202    1.2695 N   0  0  0  0  0  0  0  0  0  0  0  0
    3.2570   -3.3886    0.0647 O   0  0  0  0  0  0  0  0  0  0  0  0
    4.9547   -1.1742    1.0041 S   0  0  0  0  0  0  0  0  0  0  0  0
    2.5361    0.0205   -2.2626 H   0  0  0  0  0  0  0  0  0  0  0  0
    2.4928   -1.6746   -1.7567 H   0  0  0  0  0  0  0  0  0  0  0  0
    4.0174   -0.7703   -1.7200 H   0  0  0  0  0  0  0  0  0  0  0  0
    2.6932    1.1025    3.7874 H   0  0  0  0  0  0  0  0  0  0  0  0
    2.7965    1.6020    2.0984 H   0  0  0  0  0  0  0  0  0  0  0  0
    4.1916    0.8443    2.8759 H   0  0  0  0  0  0  0  0  0  0  0  0
    7.1313   -3.1640    3.3049 H   0  0  0  0  0  0  0  0  0  0  0  0
    7.4876   -1.6659    2.4290 H   0  0  0  0  0  0  0  0  0  0  0  0
    7.1229   -3.1520    1.5321 H   0  0  0  0  0  0  0  0  0  0  0  0
    1.5358   -0.1141   -0.0127 H   0  0  0  0  0  0  0  0  0  0  0  0
    3.0551    0.7711    0.0333 H   0  0  0  0  0  0  0  0  0  0  0  0
    1.4815   -0.5010    2.3532 H   0  0  0  0  0  0  0  0  0  0  0  0
    2.7994   -1.2779    3.2049 H   0  0  0  0  0  0  0  0  0  0  0  0
    5.1327   -1.6837    3.3752 H   0  0  0  0  0  0  0  0  0  0  0  0
    4.7715   -3.1367    2.4203 H   0  0  0  0  0  0  0  0  0  0  0  0
    0.9135   -2.3256    1.8308 H   0  0  0  0  0  0  0  0  0  0  0  0
    4.1086   -2.9372   -0.1112 H   0  0  0  0  0  0  0  0  0  0  0  0
  1  4  1  0  0  0  0
  2 17  1  0  0  0  0
  2 15  1  0  0  0  0
  3 19  1  0  0  0  0
  3  6  1  0  0  0  0
  3 18  1  0  0  0  0
  4 21  1  0  0  0  0
  4 22  1  0  0  0  0
  4  8  1  0  0  0  0
  5  2  1  0  0  0  0
  5 24  1  0  0  0  0
  6 25  1  0  0  0  0
  7  8  1  0  0  0  0
  7  9  2  0  0  0  0
  8  5  1  0  0  0  0
  9 27  1  0  0  0  0
 10  7  1  0  0  0  0
 11  8  1  0  0  0  0
 11  6  1  0  0  0  0
 12  1  1  0  0  0  0
 13  1  1  0  0  0  0
 14  1  1  0  0  0  0
 16  2  1  0  0  0  0
 20  3  1  0  0  0  0
 23  5  1  0  0  0  0
 26  6  1  0  0  0  0
 28 10  1  0  0  0  0
M  END
>  <HBA>
3

>  <HBD>
1

>  <TPSA>
68.39

>  <cid>
48202

>  <dipole>
3.8

>  <excitation_energy_1>
5.33

>  <excitation_energy_2>
5.766

>  <excitation_energy_3>
5.973

>  <excitation_energy_4>
6.157

>  <homo_energy>
-6.509

>  <homo_lumo_gap>
6.776

>  <logP>
2.484

>  <lumo_energy>
0.267

>  <melting_point>
67.74

>  <molecular_refractivity>
51.11

>  <oscillator_strength_1>
0.0014

>  <oscillator_strength_2>
0.0018

>  <oscillator_strength_3>
0.0033

>  <oscillator_strength_4>
0.0087

>  <open_babel_can_smiles>
CCSC(C(=N)O)(CC)CC

>  <mulliken_charges>
28
1   -0.477473
2   -0.456554
3   -0.453275
4   -0.259425
5   -0.277389
6   -0.41498
7   0.493567
8   -0.168232
9   -0.596049
10   -0.58827
11   0.045497
12   0.150944
13   0.178719
14   0.162715
15   0.149114
16   0.153211
17   0.169699
18   0.161324
19   0.165854
20   0.166897
21   0.151672
22   0.16054
23   0.144494
24   0.155488
25   0.178293
26   0.194629
27   0.286711
28   0.42228

>  <lowdin_charges>
28
1   -0.455523
2   -0.447949
3   -0.44384
4   -0.269187
5   -0.278368
6   -0.372318
7   0.113083
8   -0.116275
9   -0.403313
10   -0.365636
11   0.081825
12   0.157428
13   0.163752
14   0.154571
15   0.15494
16   0.153223
17   0.158557
18   0.161603
19   0.159837
20   0.160824
21   0.151428
22   0.154937
23   0.145399
24   0.152597
25   0.158919
26   0.167113
27   0.255915
28   0.346458

$$$$

