PCCDB-ID:  61325
public computational chemistry database (PCCDB) project, http://pccdb.org

 20 20  0  0  1  0  0  0  0  0999 V2000
    1.0523   -0.0414    0.3818 C   0  0  0  0  0  0  0  0  0  0  0  0
    3.6649   -1.5091   -3.2040 C   0  0  0  0  0  0  0  0  0  0  0  0
    4.4649    2.7047   -3.0174 C   0  0  0  0  0  0  0  0  0  0  0  0
    2.4901    0.0462   -0.1016 C   0  0  2  0  0  0  0  0  0  0  0  0
    3.2763   -0.5367   -2.1504 C   0  0  0  0  0  0  0  0  0  0  0  0
    2.7881    1.3163   -0.9125 C   0  0  0  0  0  0  0  0  0  0  0  0
    3.3031    0.8256   -2.1822 C   0  0  0  0  0  0  0  0  0  0  0  0
    2.6035    2.4601   -0.5137 O   0  0  0  0  0  0  0  0  0  0  0  0
    3.6529    1.5517   -3.2813 O   0  0  0  0  0  0  0  0  0  0  0  0
    2.7962   -1.0599   -0.9917 O   0  0  0  0  0  0  0  0  0  0  0  0
    0.8314    0.8425    0.9883 H   0  0  0  0  0  0  0  0  0  0  0  0
    0.8930   -0.9412    0.9832 H   0  0  0  0  0  0  0  0  0  0  0  0
    0.3636   -0.0590   -0.4690 H   0  0  0  0  0  0  0  0  0  0  0  0
    4.0816   -0.9800   -4.0635 H   0  0  0  0  0  0  0  0  0  0  0  0
    2.7944   -2.0913   -3.5305 H   0  0  0  0  0  0  0  0  0  0  0  0
    4.4049   -2.2188   -2.8155 H   0  0  0  0  0  0  0  0  0  0  0  0
    4.6126    3.1916   -3.9834 H   0  0  0  0  0  0  0  0  0  0  0  0
    5.4388    2.4082   -2.6052 H   0  0  0  0  0  0  0  0  0  0  0  0
    3.9654    3.3835   -2.3222 H   0  0  0  0  0  0  0  0  0  0  0  0
    3.1921   -0.0225    0.7381 H   0  0  0  0  0  0  0  0  0  0  0  0
  1 12  1  0  0  0  0
  1 11  1  0  0  0  0
  2 16  1  0  0  0  0
  2  5  1  0  0  0  0
  3 18  1  0  0  0  0
  3 19  1  0  0  0  0
  4  1  1  0  0  0  0
  4 20  1  1  0  0  0
  5 10  1  0  0  0  0
  6  8  2  0  0  0  0
  6  4  1  0  0  0  0
  7  5  2  0  0  0  0
  7  6  1  0  0  0  0
  9  3  1  0  0  0  0
  9  7  1  0  0  0  0
 10  4  1  0  0  0  0
 13  1  1  0  0  0  0
 14  2  1  0  0  0  0
 15  2  1  0  0  0  0
 17  3  1  0  0  0  0
M  END
>  <HBA>
3

>  <HBD>
0

>  <TPSA>
35.53

>  <cid>
61325

>  <dipole>
2.36

>  <excitation_energy_1>
3.85

>  <excitation_energy_2>
4.523

>  <excitation_energy_3>
5.375

>  <excitation_energy_4>
5.944

>  <homo_energy>
-5.81

>  <homo_lumo_gap>
4.787

>  <logP>
0.852

>  <lumo_energy>
-1.023

>  <melting_point>
15.47

>  <molecular_refractivity>
35.55

>  <oscillator_strength_1>
0.0088

>  <oscillator_strength_2>
0.1582

>  <oscillator_strength_3>
0.0124

>  <oscillator_strength_4>
0.0118

>  <open_babel_can_smiles>
COC1=C(C)O[C@@H](C1=O)C

>  <mulliken_charges>
20
1   -0.449037
2   -0.527889
3   -0.225939
4   0.048599
5   0.35493
6   0.387166
7   0.228286
8   -0.51098
9   -0.528411
10   -0.4992
11   0.178332
12   0.161915
13   0.163051
14   0.189255
15   0.183009
16   0.179448
17   0.159271
18   0.139204
19   0.190741
20   0.178247

>  <lowdin_charges>
20
1   -0.440432
2   -0.446547
3   -0.277617
4   -0.014269
5   0.112565
6   0.108204
7   -0.024998
8   -0.274738
9   -0.215369
10   -0.191266
11   0.173737
12   0.161833
13   0.162632
14   0.180936
15   0.177265
16   0.176056
17   0.156906
18   0.13897
19   0.167104
20   0.169028

$$$$

