PCCDB-ID:  26718
public computational chemistry database (PCCDB) project, http://pccdb.org

 27 28  0  0  0  0  0  0  0  0999 V2000
   -1.9527    0.1612    0.8609 C   0  0  0  0  0  0  0  0  0  0  0  0
   -1.0501   -0.0421    1.9049 C   0  0  0  0  0  0  0  0  0  0  0  0
   -1.4728    0.3341   -0.4396 C   0  0  0  0  0  0  0  0  0  0  0  0
    0.3226   -0.0730    1.6493 C   0  0  0  0  0  0  0  0  0  0  0  0
   -0.1011    0.3012   -0.6899 C   0  0  0  0  0  0  0  0  0  0  0  0
    2.3064    0.0404    0.0657 C   0  0  0  0  0  0  0  0  0  0  0  0
    2.7782   -1.2873   -0.5709 C   0  0  0  0  0  0  0  0  0  0  0  0
    4.6436   -4.3147    0.2616 C   0  0  0  0  0  0  0  0  0  0  0  0
    4.4766   -3.9944    1.7415 C   0  0  0  0  0  0  0  0  0  0  0  0
    0.8183    0.0952    0.3496 C   0  0  0  0  0  0  0  0  0  0  0  0
    2.5822   -2.5182    0.3241 C   0  0  0  0  0  0  0  0  0  0  0  0
    3.0028   -4.1045   -0.5278 S   0  0  0  0  0  0  0  0  0  0  0  0
    3.5902   -2.3910    1.8886 S   0  0  0  0  0  0  0  0  0  0  0  0
   -3.0210    0.1892    1.0581 H   0  0  0  0  0  0  0  0  0  0  0  0
   -1.4119   -0.1739    2.9214 H   0  0  0  0  0  0  0  0  0  0  0  0
   -2.1676    0.4994   -1.2591 H   0  0  0  0  0  0  0  0  0  0  0  0
    1.0198   -0.2286    2.4698 H   0  0  0  0  0  0  0  0  0  0  0  0
    0.2636    0.4434   -1.7054 H   0  0  0  0  0  0  0  0  0  0  0  0
    2.5775    0.8521   -0.6218 H   0  0  0  0  0  0  0  0  0  0  0  0
    2.8696    0.2187    0.9896 H   0  0  0  0  0  0  0  0  0  0  0  0
    3.8374   -1.2040   -0.8407 H   0  0  0  0  0  0  0  0  0  0  0  0
    2.2210   -1.4574   -1.5010 H   0  0  0  0  0  0  0  0  0  0  0  0
    4.9455   -5.3558    0.1070 H   0  0  0  0  0  0  0  0  0  0  0  0
    5.3847   -3.6590   -0.2051 H   0  0  0  0  0  0  0  0  0  0  0  0
    5.4450   -3.8732    2.2390 H   0  0  0  0  0  0  0  0  0  0  0  0
    3.9122   -4.7820    2.2481 H   0  0  0  0  0  0  0  0  0  0  0  0
    1.5314   -2.6054    0.6105 H   0  0  0  0  0  0  0  0  0  0  0  0
  1 14  1  0  0  0  0
  1  2  2  0  0  0  0
  2 15  1  0  0  0  0
  3  1  1  0  0  0  0
  4  2  1  0  0  0  0
  4 17  1  0  0  0  0
  5  3  2  0  0  0  0
  5 10  1  0  0  0  0
  6 10  1  0  0  0  0
  6 20  1  0  0  0  0
  7  6  1  0  0  0  0
  7 11  1  0  0  0  0
  8  9  1  0  0  0  0
  9 13  1  0  0  0  0
  9 25  1  0  0  0  0
  9 26  1  0  0  0  0
 10  4  2  0  0  0  0
 11 27  1  0  0  0  0
 11 13  1  0  0  0  0
 12  8  1  0  0  0  0
 12 11  1  0  0  0  0
 16  3  1  0  0  0  0
 18  5  1  0  0  0  0
 19  6  1  0  0  0  0
 21  7  1  0  0  0  0
 22  7  1  0  0  0  0
 23  8  1  0  0  0  0
 24  8  1  0  0  0  0
M  END
>  <HBA>
2

>  <HBD>
0

>  <TPSA>
50.6

>  <cid>
26718

>  <dipole>
1.07

>  <excitation_energy_1>
4.738

>  <excitation_energy_2>
4.876

>  <excitation_energy_3>
5.196

>  <excitation_energy_4>
5.265

>  <homo_energy>
-6.068

>  <homo_lumo_gap>
6.0

>  <logP>
3.425

>  <lumo_energy>
-0.068

>  <melting_point>
45.01

>  <molecular_refractivity>
63.7

>  <oscillator_strength_1>
0.0012

>  <oscillator_strength_2>
0.0016

>  <oscillator_strength_3>
0.0055

>  <oscillator_strength_4>
0.011

>  <open_babel_can_smiles>
C1CSC(S1)CCc1ccccc1

>  <mulliken_charges>
27
1   -0.131588
2   -0.126727
3   -0.127025
4   -0.192607
5   -0.181114
6   -0.368249
7   -0.234816
8   -0.414367
9   -0.413741
10   0.168281
11   -0.416972
12   0.113633
13   0.095034
14   0.128372
15   0.130246
16   0.128717
17   0.13915
18   0.123019
19   0.15039
20   0.165502
21   0.152477
22   0.155441
23   0.18417
24   0.187078
25   0.182236
26   0.19091
27   0.212553

>  <lowdin_charges>
27
1   -0.158603
2   -0.153694
3   -0.156009
4   -0.171743
5   -0.167051
6   -0.28033
7   -0.277597
8   -0.375628
9   -0.374903
10   -0.005478
11   -0.322273
12   0.105217
13   0.075686
14   0.155458
15   0.157124
16   0.15805
17   0.161529
18   0.153001
19   0.156921
20   0.1595
21   0.152304
22   0.153925
23   0.172888
24   0.164535
25   0.171485
26   0.167417
27   0.178268

$$$$

