PCCDB-ID:  32760
public computational chemistry database (PCCDB) project, http://pccdb.org

 27 26  0  0  0  0  0  0  0  0999 V2000
    3.6134    1.6274   -1.7100 C   0  0  0  0  0  0  0  0  0  0  0  0
    5.1728    2.3797    5.7474 C   0  0  0  0  0  0  0  0  0  0  0  0
    3.1619    1.2463    7.3585 C   0  0  0  0  0  0  0  0  0  0  0  0
    4.9499    1.1030   -1.1707 C   0  0  0  0  0  0  0  0  0  0  0  0
    5.3363    1.6467    0.2143 C   0  0  0  0  0  0  0  0  0  0  0  0
    4.4067    1.1956    1.3422 C   0  0  0  0  0  0  0  0  0  0  0  0
    3.9543    1.2528    3.8224 C   0  0  0  0  0  0  0  0  0  0  0  0
    4.0859    1.5434    5.1426 C   0  0  0  0  0  0  0  0  0  0  0  0
    4.8322    1.6872    2.7289 C   0  0  0  0  0  0  0  0  0  0  0  0
    5.8357    2.3883    2.8578 O   0  0  0  0  0  0  0  0  0  0  0  0
    3.1319    1.0113    5.9540 O   0  0  0  0  0  0  0  0  0  0  0  0
    3.4248    1.2581   -2.7247 H   0  0  0  0  0  0  0  0  0  0  0  0
    3.6082    2.7240   -1.7482 H   0  0  0  0  0  0  0  0  0  0  0  0
    2.7681    1.3147   -1.0861 H   0  0  0  0  0  0  0  0  0  0  0  0
    5.8442    2.7117    4.9564 H   0  0  0  0  0  0  0  0  0  0  0  0
    5.7426    1.8074    6.4903 H   0  0  0  0  0  0  0  0  0  0  0  0
    4.7559    3.2560    6.2597 H   0  0  0  0  0  0  0  0  0  0  0  0
    2.3006    0.7095    7.7597 H   0  0  0  0  0  0  0  0  0  0  0  0
    3.0632    2.3114    7.5976 H   0  0  0  0  0  0  0  0  0  0  0  0
    4.0753    0.8543    7.8202 H   0  0  0  0  0  0  0  0  0  0  0  0
    5.7456    1.3659   -1.8805 H   0  0  0  0  0  0  0  0  0  0  0  0
    4.9243    0.0039   -1.1378 H   0  0  0  0  0  0  0  0  0  0  0  0
    5.3625    2.7437    0.1884 H   0  0  0  0  0  0  0  0  0  0  0  0
    6.3582    1.3342    0.4589 H   0  0  0  0  0  0  0  0  0  0  0  0
    4.3439    0.0965    1.3755 H   0  0  0  0  0  0  0  0  0  0  0  0
    3.3750    1.5360    1.1713 H   0  0  0  0  0  0  0  0  0  0  0  0
    3.1065    0.6296    3.5497 H   0  0  0  0  0  0  0  0  0  0  0  0
  1  4  1  0  0  0  0
  1 14  1  0  0  0  0
  2 17  1  0  0  0  0
  2 16  1  0  0  0  0
  3 19  1  0  0  0  0
  3 18  1  0  0  0  0
  3 20  1  0  0  0  0
  4 22  1  0  0  0  0
  4  5  1  0  0  0  0
  5 24  1  0  0  0  0
  5  6  1  0  0  0  0
  6 25  1  0  0  0  0
  6  9  1  0  0  0  0
  7  8  2  0  0  0  0
  8  2  1  0  0  0  0
  8 11  1  0  0  0  0
  9 10  2  0  0  0  0
  9  7  1  0  0  0  0
 11  3  1  0  0  0  0
 12  1  1  0  0  0  0
 13  1  1  0  0  0  0
 15  2  1  0  0  0  0
 21  4  1  0  0  0  0
 23  5  1  0  0  0  0
 26  6  1  0  0  0  0
 27  7  1  0  0  0  0
M  END
>  <HBA>
2

>  <HBD>
0

>  <TPSA>
26.3

>  <cid>
32760

>  <dipole>
3.35

>  <excitation_energy_1>
3.876

>  <excitation_energy_2>
5.088

>  <excitation_energy_3>
5.587

>  <excitation_energy_4>
5.863

>  <homo_energy>
-6.133

>  <homo_lumo_gap>
5.306

>  <logP>
2.296

>  <lumo_energy>
-0.827

>  <melting_point>
-2.9

>  <molecular_refractivity>
46.19

>  <oscillator_strength_1>
0.0

>  <oscillator_strength_2>
0.4875

>  <oscillator_strength_3>
0.0072

>  <oscillator_strength_4>
0.0134

>  <open_babel_can_smiles>
CCCCC(=O)/C=C(/OC)\C

>  <mulliken_charges>
27
1   -0.443594
2   -0.563175
3   -0.213828
4   -0.252007
5   -0.242263
6   -0.363425
7   -0.283951
8   0.426034
9   0.444496
10   -0.502647
11   -0.468401
12   0.140999
13   0.142196
14   0.141752
15   0.234655
16   0.164326
17   0.164604
18   0.176894
19   0.157674
20   0.157647
21   0.131945
22   0.125824
23   0.142142
24   0.145391
25   0.151788
26   0.157345
27   0.127579

>  <lowdin_charges>
27
1   -0.445665
2   -0.474038
3   -0.275207
4   -0.271848
5   -0.269568
6   -0.304375
7   -0.283524
8   0.150907
9   0.153715
10   -0.282811
11   -0.186635
12   0.148313
13   0.144455
14   0.145222
15   0.203838
16   0.166673
17   0.166307
18   0.167332
19   0.14807
20   0.15013
21   0.143242
22   0.134263
23   0.145432
24   0.150451
25   0.153964
26   0.156963
27   0.164394

$$$$

