PCCDB-ID:  12213
public computational chemistry database (PCCDB) project, http://pccdb.org

 20 19  0  0  0  0  0  0  0  0999 V2000
    2.9037   -0.8227    1.2273 C   0  0  0  0  0  0  0  0  0  0  0  0
    0.2694    0.5731   -0.0177 C   0  0  0  0  0  0  0  0  0  0  0  0
    2.7545   -0.1928   -0.1690 C   0  0  0  0  0  0  0  0  0  0  0  0
    1.7296    0.9140   -0.2193 C   0  0  0  0  0  0  0  0  0  0  0  0
    1.7652    4.4255   -0.5863 C   0  0  0  0  0  0  0  0  0  0  0  0
    2.9496    4.8241   -0.8112 N   0  0  0  0  0  0  0  0  0  0  0  0
    2.1669    2.1040   -0.4337 N   0  0  0  0  0  0  0  0  0  0  0  0
    1.2695    3.1312   -0.4840 N   0  0  0  0  0  0  0  0  0  0  0  0
    0.7345    5.2991   -0.4327 O   0  0  0  0  0  0  0  0  0  0  0  0
    3.6487   -1.6255    1.2088 H   0  0  0  0  0  0  0  0  0  0  0  0
    1.9608   -1.2545    1.5832 H   0  0  0  0  0  0  0  0  0  0  0  0
    3.2288   -0.0745    1.9585 H   0  0  0  0  0  0  0  0  0  0  0  0
    0.1178   -0.5083    0.0234 H   0  0  0  0  0  0  0  0  0  0  0  0
   -0.3432    0.9690   -0.8388 H   0  0  0  0  0  0  0  0  0  0  0  0
   -0.1256    0.9939    0.9184 H   0  0  0  0  0  0  0  0  0  0  0  0
    2.4700   -0.9762   -0.8872 H   0  0  0  0  0  0  0  0  0  0  0  0
    3.7138    0.2184   -0.4976 H   0  0  0  0  0  0  0  0  0  0  0  0
    3.5773    4.0233   -0.8881 H   0  0  0  0  0  0  0  0  0  0  0  0
    0.3317    3.0302   -0.1091 H   0  0  0  0  0  0  0  0  0  0  0  0
    1.1390    6.1787   -0.5302 H   0  0  0  0  0  0  0  0  0  0  0  0
  1 11  1  0  0  0  0
  1 12  1  0  0  0  0
  2 13  1  0  0  0  0
  2 15  1  0  0  0  0
  3  1  1  0  0  0  0
  4  3  1  0  0  0  0
  4  2  1  0  0  0  0
  5  8  1  0  0  0  0
  5  9  1  0  0  0  0
  6  5  2  0  0  0  0
  7  4  2  0  0  0  0
  8  7  1  0  0  0  0
  8 19  1  0  0  0  0
 10  1  1  0  0  0  0
 14  2  1  0  0  0  0
 16  3  1  0  0  0  0
 17  3  1  0  0  0  0
 18  6  1  0  0  0  0
 20  9  1  0  0  0  0
M  END
>  <HBA>
4

>  <HBD>
2

>  <TPSA>
67.48

>  <cid>
12213

>  <dipole>
3.68

>  <excitation_energy_1>
5.299

>  <excitation_energy_2>
5.424

>  <excitation_energy_3>
5.946

>  <excitation_energy_4>
6.078

>  <homo_energy>
-5.987

>  <homo_lumo_gap>
5.91

>  <logP>
1.532

>  <lumo_energy>
-0.076

>  <melting_point>
105.12

>  <molecular_refractivity>
35.93

>  <oscillator_strength_1>
0.1726

>  <oscillator_strength_2>
0.1722

>  <oscillator_strength_3>
0.0045

>  <oscillator_strength_4>
0.009

>  <open_babel_can_smiles>
C/C(=N\NC(=N)O)/CC

>  <mulliken_charges>
20
1   -0.450195
2   -0.55166
3   -0.315042
4   0.325879
5   0.666834
6   -0.654155
7   -0.27622
8   -0.47689
9   -0.614911
10   0.153126
11   0.144411
12   0.158891
13   0.171232
14   0.176695
15   0.17102
16   0.142755
17   0.164241
18   0.306757
19   0.334259
20   0.422975

>  <lowdin_charges>
20
1   -0.445705
2   -0.471311
3   -0.273776
4   0.023035
5   0.153307
6   -0.467894
7   -0.109087
8   -0.216062
9   -0.382481
10   0.155695
11   0.147218
12   0.155654
13   0.167268
14   0.168851
15   0.165042
16   0.149732
17   0.162301
18   0.27018
19   0.278102
20   0.369932

$$$$

