PCCDB-ID:  6101
public computational chemistry database (PCCDB) project, http://pccdb.org

 19 19  0  0  0  0  0  0  0  0999 V2000
    0.9061   -0.1174    0.0611 C   0  0  0  0  0  0  0  0  0  0  0  0
    3.1326   -1.3047   -0.1694 C   0  0  0  0  0  0  0  0  0  0  0  0
    3.1128    1.1055   -0.1338 C   0  0  0  0  0  0  0  0  0  0  0  0
    4.5182   -1.3021   -0.3186 C   0  0  0  0  0  0  0  0  0  0  0  0
    4.4960    1.1305   -0.2850 C   0  0  0  0  0  0  0  0  0  0  0  0
    2.4093   -0.1077   -0.0790 C   0  0  0  0  0  0  0  0  0  0  0  0
    5.1867   -0.0796   -0.3804 C   0  0  0  0  0  0  0  0  0  0  0  0
    7.0873   -0.0554   -2.2261 O   0  0  0  0  0  0  0  0  0  0  0  0
    7.4944    1.2238   -0.1263 O   0  0  0  0  0  0  0  0  0  0  0  0
    7.4972   -1.3254   -0.0983 O   0  0  0  0  0  0  0  0  0  0  0  0
    6.9569   -0.0612   -0.5787 S   0  0  0  0  0  0  0  0  0  0  0  0
    0.5411   -1.0900    0.4045 H   0  0  0  0  0  0  0  0  0  0  0  0
    0.4215    0.0962   -0.9006 H   0  0  0  0  0  0  0  0  0  0  0  0
    0.5655    0.6448    0.7704 H   0  0  0  0  0  0  0  0  0  0  0  0
    2.6056   -2.2538   -0.1150 H   0  0  0  0  0  0  0  0  0  0  0  0
    2.5696    2.0435   -0.0498 H   0  0  0  0  0  0  0  0  0  0  0  0
    5.0770   -2.2302   -0.3715 H   0  0  0  0  0  0  0  0  0  0  0  0
    5.0390    2.0693   -0.3092 H   0  0  0  0  0  0  0  0  0  0  0  0
    7.6740    0.6931   -2.4461 H   0  0  0  0  0  0  0  0  0  0  0  0
  1 12  1  0  0  0  0
  1 14  1  0  0  0  0
  2 15  1  0  0  0  0
  2  6  2  0  0  0  0
  3  6  1  0  0  0  0
  3 16  1  0  0  0  0
  4  2  1  0  0  0  0
  5  3  2  0  0  0  0
  6  1  1  0  0  0  0
  7  4  2  0  0  0  0
  7  5  1  0  0  0  0
  8 11  1  0  0  0  0
 11  7  1  0  0  0  0
 11  9  1  0  0  0  0
 11 10  1  0  0  0  0
 13  1  1  0  0  0  0
 17  4  1  0  0  0  0
 18  5  1  0  0  0  0
 19  8  1  0  0  0  0
M  RAD  2   9   2  10   2
M  END
>  <HBA>
3

>  <HBD>
1

>  <TPSA>
62.75

>  <cid>
6101

>  <dipole>
4.75

>  <excitation_energy_1>
5.168

>  <excitation_energy_2>
5.599

>  <excitation_energy_3>
6.268

>  <excitation_energy_4>
6.417

>  <homo_energy>
-7.276

>  <homo_lumo_gap>
6.098

>  <logP>
2.322

>  <lumo_energy>
-1.178

>  <melting_point>
93.65

>  <molecular_refractivity>
41.27

>  <oscillator_strength_1>
0.0058

>  <oscillator_strength_2>
0.1904

>  <oscillator_strength_3>
0.0029

>  <oscillator_strength_4>
0.0032

>  <open_babel_can_smiles>
Cc1ccc(cc1)S(O)([O])[O]

>  <mulliken_charges>
19
1   -0.531785
2   -0.176949
3   -0.173136
4   -0.129931
5   -0.134998
6   0.182409
7   -0.155041
8   -0.638136
9   -0.532963
10   -0.489468
11   1.19155
12   0.164596
13   0.175705
14   0.168217
15   0.141036
16   0.139866
17   0.183373
18   0.177594
19   0.438061

>  <lowdin_charges>
19
1   -0.443041
2   -0.160053
3   -0.159278
4   -0.129301
5   -0.132874
6   0.023051
7   -0.188461
8   -0.588436
9   -0.587722
10   -0.557742
11   1.349875
12   0.162231
13   0.168574
14   0.165748
15   0.164235
16   0.163841
17   0.186128
18   0.182638
19   0.380585

$$$$

