PCCDB-ID:  48538
public computational chemistry database (PCCDB) project, http://pccdb.org

 33 33  0  0  1  0  0  0  0  0999 V2000
    1.9672   -1.7789   -1.8519 C   0  0  0  0  0  0  0  0  0  0  0  0
    6.8511   -1.8581    2.6541 C   0  0  0  0  0  0  0  0  0  0  0  0
    8.5996   -3.4218   -1.1173 C   0  0  0  0  0  0  0  0  0  0  0  0
    6.9634   -2.1841   -2.5266 C   0  0  0  0  0  0  0  0  0  0  0  0
    2.5752   -0.8387   -1.1289 C   0  0  0  0  0  0  0  0  0  0  0  0
    7.4591   -2.4817    1.3931 C   0  0  0  0  0  0  0  0  0  0  0  0
    3.1891   -1.0904    0.2233 C   0  0  0  0  0  0  0  0  0  0  0  0
    7.5668   -2.5735   -1.1970 C   0  0  0  0  0  0  0  0  0  0  0  0
    7.3348   -0.4083   -0.0117 C   0  0  0  0  0  0  0  0  0  0  0  0
    5.4312   -2.0653    0.0095 C   0  0  0  0  0  0  0  0  0  0  0  0
    5.1843    0.3860    0.3139 C   0  0  0  0  0  0  0  0  0  0  0  0
    6.9564   -1.8831    0.0361 C   0  0  2  0  0  0  0  0  0  0  0  0
    6.5557    0.5914    0.1599 N   0  0  0  0  0  0  0  0  0  0  0  0
    4.6629   -0.9348    0.1983 N   0  0  0  0  0  0  0  0  0  0  0  0
    8.6340   -0.1434   -0.2106 O   0  0  0  0  0  0  0  0  0  0  0  0
    4.9494   -3.1795   -0.1211 O   0  0  0  0  0  0  0  0  0  0  0  0
    4.4205    1.3092    0.5102 O   0  0  0  0  0  0  0  0  0  0  0  0
    1.5232   -1.5566   -2.8187 H   0  0  0  0  0  0  0  0  0  0  0  0
    1.8889   -2.8059   -1.5023 H   0  0  0  0  0  0  0  0  0  0  0  0
    7.2858   -2.3327    3.5398 H   0  0  0  0  0  0  0  0  0  0  0  0
    5.7677   -2.0075    2.7015 H   0  0  0  0  0  0  0  0  0  0  0  0
    7.0519   -0.7837    2.7221 H   0  0  0  0  0  0  0  0  0  0  0  0
    9.0228   -3.8581   -2.0180 H   0  0  0  0  0  0  0  0  0  0  0  0
    9.0353   -3.7483   -0.1797 H   0  0  0  0  0  0  0  0  0  0  0  0
    7.5107   -2.6412   -3.3554 H   0  0  0  0  0  0  0  0  0  0  0  0
    6.9699   -1.0961   -2.6731 H   0  0  0  0  0  0  0  0  0  0  0  0
    5.9194   -2.5125   -2.5850 H   0  0  0  0  0  0  0  0  0  0  0  0
    2.6492    0.1831   -1.4976 H   0  0  0  0  0  0  0  0  0  0  0  0
    7.2327   -3.5518    1.3591 H   0  0  0  0  0  0  0  0  0  0  0  0
    8.5488   -2.3761    1.4354 H   0  0  0  0  0  0  0  0  0  0  0  0
    2.9849   -2.1069    0.5597 H   0  0  0  0  0  0  0  0  0  0  0  0
    2.8151   -0.3731    0.9564 H   0  0  0  0  0  0  0  0  0  0  0  0
    9.0852   -0.9738   -0.4588 H   0  0  0  0  0  0  0  0  0  0  0  0
  1 19  1  0  0  0  0
  1  5  2  0  0  0  0
  2 21  1  0  0  0  0
  2 22  1  0  0  0  0
  2 20  1  0  0  0  0
  3 24  1  0  0  0  0
  4  8  1  0  0  0  0
  5  7  1  0  0  0  0
  6 30  1  0  0  0  0
  6  2  1  0  0  0  0
  7 31  1  0  0  0  0
  7 32  1  0  0  0  0
  8  3  2  0  0  0  0
  9 12  1  0  0  0  0
  9 13  2  0  0  0  0
 10 12  1  0  0  0  0
 10 14  1  0  0  0  0
 11 17  2  0  0  0  0
 12  8  1  6  0  0  0
 12  6  1  0  0  0  0
 13 11  1  0  0  0  0
 14  7  1  0  0  0  0
 14 11  1  0  0  0  0
 15  9  1  0  0  0  0
 16 10  2  0  0  0  0
 18  1  1  0  0  0  0
 23  3  1  0  0  0  0
 25  4  1  0  0  0  0
 26  4  1  0  0  0  0
 27  4  1  0  0  0  0
 28  5  1  0  0  0  0
 29  6  1  0  0  0  0
 33 15  1  0  0  0  0
M  END
>  <HBA>
5

>  <HBD>
1

>  <TPSA>
66.48

>  <cid>
48538

>  <dipole>
4.79

>  <excitation_energy_1>
4.499

>  <excitation_energy_2>
4.641

>  <excitation_energy_3>
4.913

>  <excitation_energy_4>
5.161

>  <homo_energy>
-7.138

>  <homo_lumo_gap>
5.641

>  <logP>
1.49

>  <lumo_energy>
-1.497

>  <melting_point>
77.26

>  <molecular_refractivity>
70.99

>  <oscillator_strength_1>
0.0003

>  <oscillator_strength_2>
0.0018

>  <oscillator_strength_3>
0.0024

>  <oscillator_strength_4>
0.0261

>  <open_babel_can_smiles>
C=CCN1C(=O)N=C([C@](C1=O)(CC)C(=C)C)O

>  <mulliken_charges>
33
1   -0.328641
2   -0.475622
3   -0.416544
4   -0.535624
5   -0.056253
6   -0.273649
7   -0.201397
8   0.209296
9   0.552411
10   0.63365
11   0.708261
12   -0.172986
13   -0.497431
14   -0.515853
15   -0.568133
16   -0.508511
17   -0.471904
18   0.145265
19   0.152589
20   0.161396
21   0.168273
22   0.172194
23   0.156268
24   0.157533
25   0.164933
26   0.171773
27   0.197785
28   0.154047
29   0.185243
30   0.143465
31   0.18207
32   0.189783
33   0.416314

>  <lowdin_charges>
33
1   -0.320739
2   -0.450711
3   -0.356666
4   -0.447208
5   -0.155353
6   -0.259369
7   -0.192392
8   0.010649
9   0.16122
10   0.164259
11   0.189596
12   -0.050055
13   -0.186994
14   -0.091827
15   -0.319446
16   -0.276907
17   -0.249936
18   0.160797
19   0.16136
20   0.163085
21   0.157846
22   0.159639
23   0.168629
24   0.16633
25   0.166022
26   0.162853
27   0.177927
28   0.162154
29   0.167946
30   0.145417
31   0.171925
32   0.17778
33   0.362167

$$$$

