PCCDB-ID:  7407
public computational chemistry database (PCCDB) project, http://pccdb.org

 19 19  0  0  0  0  0  0  0  0999 V2000
    1.8246    0.6181   -1.0458 C   0  0  0  0  0  0  0  0  0  0  0  0
    1.8947   -1.5215    0.2036 C   0  0  0  0  0  0  0  0  0  0  0  0
    4.3693    1.8896    3.2475 C   0  0  0  0  0  0  0  0  0  0  0  0
    4.5300    0.5239    3.0146 C   0  0  0  0  0  0  0  0  0  0  0  0
    3.4889    2.6206    2.4463 C   0  0  0  0  0  0  0  0  0  0  0  0
    3.8222   -0.1037    1.9893 C   0  0  0  0  0  0  0  0  0  0  0  0
    2.7848    1.9927    1.4221 C   0  0  0  0  0  0  0  0  0  0  0  0
    2.2043   -0.0479    0.0558 C   0  0  0  0  0  0  0  0  0  0  0  0
    2.9459    0.6192    1.1610 C   0  0  0  0  0  0  0  0  0  0  0  0
    1.2649    0.1259   -1.8364 H   0  0  0  0  0  0  0  0  0  0  0  0
    2.0716    1.6626   -1.2093 H   0  0  0  0  0  0  0  0  0  0  0  0
    1.2517   -1.8682   -0.6103 H   0  0  0  0  0  0  0  0  0  0  0  0
    1.3935   -1.7325    1.1563 H   0  0  0  0  0  0  0  0  0  0  0  0
    2.8075   -2.1311    0.1831 H   0  0  0  0  0  0  0  0  0  0  0  0
    4.9149    2.3779    4.0505 H   0  0  0  0  0  0  0  0  0  0  0  0
    5.2093   -0.0585    3.6318 H   0  0  0  0  0  0  0  0  0  0  0  0
    3.3388    3.6815    2.6291 H   0  0  0  0  0  0  0  0  0  0  0  0
    3.9679   -1.1667    1.8246 H   0  0  0  0  0  0  0  0  0  0  0  0
    2.0795    2.5672    0.8290 H   0  0  0  0  0  0  0  0  0  0  0  0
  1  8  2  0  0  0  0
  2 13  1  0  0  0  0
  3 15  1  0  0  0  0
  4  3  1  0  0  0  0
  4 16  1  0  0  0  0
  5 17  1  0  0  0  0
  5  3  2  0  0  0  0
  6  4  2  0  0  0  0
  7  5  1  0  0  0  0
  8  2  1  0  0  0  0
  8  9  1  0  0  0  0
  9  7  2  0  0  0  0
  9  6  1  0  0  0  0
 10  1  1  0  0  0  0
 11  1  1  0  0  0  0
 12  2  1  0  0  0  0
 14  2  1  0  0  0  0
 18  6  1  0  0  0  0
 19  7  1  0  0  0  0
M  END
>  <HBA>
0

>  <HBD>
0

>  <TPSA>
0.0

>  <cid>
7407

>  <dipole>
0.31

>  <excitation_energy_1>
4.887

>  <excitation_energy_2>
4.949

>  <excitation_energy_3>
5.639

>  <excitation_energy_4>
5.729

>  <homo_energy>
-6.025

>  <homo_lumo_gap>
5.429

>  <logP>
2.72

>  <lumo_energy>
-0.596

>  <melting_point>
-11.7

>  <molecular_refractivity>
41.34

>  <oscillator_strength_1>
0.0401

>  <oscillator_strength_2>
0.2716

>  <oscillator_strength_3>
0.0177

>  <oscillator_strength_4>
0.114

>  <open_babel_can_smiles>
CC(=C)c1ccccc1

>  <mulliken_charges>
19
1   -0.398599
2   -0.519834
3   -0.128296
4   -0.130182
5   -0.131298
6   -0.18485
7   -0.179567
8   0.163409
9   0.115604
10   0.135128
11   0.14088
12   0.15381
13   0.161288
14   0.159843
15   0.128628
16   0.128798
17   0.129124
18   0.125546
19   0.130568

>  <lowdin_charges>
19
1   -0.351268
2   -0.442002
3   -0.158885
4   -0.157043
5   -0.154146
6   -0.162662
7   -0.158437
8   0.008427
9   -0.003726
10   0.157771
11   0.156678
12   0.159164
13   0.15898
14   0.157835
15   0.158399
16   0.158543
17   0.155773
18   0.155916
19   0.160682

$$$$

