PCCDB-ID:  70032
public computational chemistry database (PCCDB) project, http://pccdb.org

 29 29  0  0  0  0  0  0  0  0999 V2000
    0.7354   -2.2574   -3.1606 C   0  0  0  0  0  0  0  0  0  0  0  0
    5.9889    1.9344    1.5470 C   0  0  0  0  0  0  0  0  0  0  0  0
    4.8075    1.4999    0.6742 C   0  0  0  0  0  0  0  0  0  0  0  0
    6.0072    1.2904    2.9620 C   0  0  0  0  0  0  0  0  0  0  0  0
    1.7360   -0.3004   -1.9016 C   0  0  0  0  0  0  0  0  0  0  0  0
    2.9041   -2.4053   -1.8576 C   0  0  0  0  0  0  0  0  0  0  0  0
    2.7117    0.2629   -1.0844 C   0  0  0  0  0  0  0  0  0  0  0  0
    3.8813   -1.8506   -1.0416 C   0  0  0  0  0  0  0  0  0  0  0  0
    1.8115   -1.6426   -2.2998 C   0  0  0  0  0  0  0  0  0  0  0  0
    3.8008   -0.5057   -0.6419 C   0  0  0  0  0  0  0  0  0  0  0  0
    4.8753    0.0427    0.2298 C   0  0  0  0  0  0  0  0  0  0  0  0
    7.3616    0.6917    3.3430 C   0  0  0  0  0  0  0  0  0  0  0  0
    5.8094   -0.6801    0.5787 O   0  0  0  0  0  0  0  0  0  0  0  0
    7.9922    1.0270    4.3180 O   0  0  0  0  0  0  0  0  0  0  0  0
    7.8212   -0.2606    2.5045 O   0  0  0  0  0  0  0  0  0  0  0  0
    0.2694   -1.5133   -3.8146 H   0  0  0  0  0  0  0  0  0  0  0  0
   -0.0608   -2.6910   -2.5407 H   0  0  0  0  0  0  0  0  0  0  0  0
    1.1338   -3.0626   -3.7862 H   0  0  0  0  0  0  0  0  0  0  0  0
    5.9590    3.0238    1.6498 H   0  0  0  0  0  0  0  0  0  0  0  0
    6.9181    1.7054    1.0148 H   0  0  0  0  0  0  0  0  0  0  0  0
    4.7528    2.1245   -0.2284 H   0  0  0  0  0  0  0  0  0  0  0  0
    3.8556    1.6604    1.2005 H   0  0  0  0  0  0  0  0  0  0  0  0
    5.2637    0.4846    3.0190 H   0  0  0  0  0  0  0  0  0  0  0  0
    5.7512    2.0212    3.7316 H   0  0  0  0  0  0  0  0  0  0  0  0
    0.9017    0.3102   -2.2380 H   0  0  0  0  0  0  0  0  0  0  0  0
    2.9850   -3.4465   -2.1602 H   0  0  0  0  0  0  0  0  0  0  0  0
    2.6193    1.3058   -0.7984 H   0  0  0  0  0  0  0  0  0  0  0  0
    4.7256   -2.4415   -0.7025 H   0  0  0  0  0  0  0  0  0  0  0  0
    7.1641   -0.4305    1.7917 H   0  0  0  0  0  0  0  0  0  0  0  0
  1 17  1  0  0  0  0
  1  9  1  0  0  0  0
  2 19  1  0  0  0  0
  2  4  1  0  0  0  0
  3 22  1  0  0  0  0
  3  2  1  0  0  0  0
  4 23  1  0  0  0  0
  4 12  1  0  0  0  0
  4 24  1  0  0  0  0
  5  7  1  0  0  0  0
  6  8  2  0  0  0  0
  7 27  1  0  0  0  0
  7 10  2  0  0  0  0
  8 28  1  0  0  0  0
  8 10  1  0  0  0  0
  9  5  2  0  0  0  0
  9  6  1  0  0  0  0
 10 11  1  0  0  0  0
 11 13  2  0  0  0  0
 11  3  1  0  0  0  0
 12 14  2  0  0  0  0
 15 12  1  0  0  0  0
 16  1  1  0  0  0  0
 18  1  1  0  0  0  0
 20  2  1  0  0  0  0
 21  3  1  0  0  0  0
 25  5  1  0  0  0  0
 26  6  1  0  0  0  0
 29 15  1  0  0  0  0
M  END
>  <HBA>
3

>  <HBD>
1

>  <TPSA>
54.37

>  <cid>
70032

>  <dipole>
9.37

>  <excitation_energy_1>
3.984

>  <excitation_energy_2>
4.158

>  <excitation_energy_3>
4.536

>  <excitation_energy_4>
4.773

>  <homo_energy>
-6.623

>  <homo_lumo_gap>
4.528

>  <logP>
2.433

>  <lumo_energy>
-2.095

>  <melting_point>
118.22

>  <molecular_refractivity>
57.8

>  <oscillator_strength_1>
0.0

>  <oscillator_strength_2>
0.0016

>  <oscillator_strength_3>
0.0249

>  <oscillator_strength_4>
0.4009

>  <open_babel_can_smiles>
O=C(c1ccc(cc1)C)CCCC(=O)O

>  <mulliken_charges>
29
1   -0.533091
2   -0.27749
3   -0.378729
4   -0.374005
5   -0.183135
6   -0.181012
7   -0.176726
8   -0.150236
9   0.186566
10   0.069159
11   0.425726
12   0.572079
13   -0.497955
14   -0.453612
15   -0.597837
16   0.165176
17   0.177153
18   0.167007
19   0.156119
20   0.167927
21   0.173952
22   0.174147
23   0.163082
24   0.173086
25   0.134815
26   0.138069
27   0.140874
28   0.168876
29   0.450015

>  <lowdin_charges>
29
1   -0.445694
2   -0.274629
3   -0.311597
4   -0.321611
5   -0.16728
6   -0.161711
7   -0.140966
8   -0.120883
9   0.026324
10   -0.060332
11   0.178621
12   0.188158
13   -0.262624
14   -0.258108
15   -0.37291
16   0.164219
17   0.170643
18   0.164926
19   0.156329
20   0.158515
21   0.170326
22   0.167254
23   0.162031
24   0.169917
25   0.16157
26   0.160769
27   0.162516
28   0.179805
29   0.356424

$$$$

