PCCDB-ID:  15518
public computational chemistry database (PCCDB) project, http://pccdb.org

 25 26  0  0  0  0  0  0  0  0999 V2000
    0.9991   -0.0538    0.0726 C   0  0  0  0  0  0  0  0  0  0  0  0
    5.4833   -2.4139    0.0626 C   0  0  0  0  0  0  0  0  0  0  0  0
    6.9055    1.9572    0.0746 C   0  0  0  0  0  0  0  0  0  0  0  0
    5.4512    2.5185    0.0935 C   0  0  0  0  0  0  0  0  0  0  0  0
    6.7973    0.4019    0.0809 C   0  0  0  0  0  0  0  0  0  0  0  0
    3.2803   -1.1578    0.0686 C   0  0  0  0  0  0  0  0  0  0  0  0
    3.1686    1.2502    0.0841 C   0  0  0  0  0  0  0  0  0  0  0  0
    2.5102    0.0133    0.0754 C   0  0  0  0  0  0  0  0  0  0  0  0
    4.6809   -1.1349    0.0708 C   0  0  0  0  0  0  0  0  0  0  0  0
    4.5612    1.2943    0.0859 C   0  0  0  0  0  0  0  0  0  0  0  0
    5.3125    0.1155    0.0797 C   0  0  0  0  0  0  0  0  0  0  0  0
    0.6448   -1.0895    0.0798 H   0  0  0  0  0  0  0  0  0  0  0  0
    0.5764    0.4358   -0.8139 H   0  0  0  0  0  0  0  0  0  0  0  0
    0.5727    0.4497    0.9494 H   0  0  0  0  0  0  0  0  0  0  0  0
    4.8324   -3.2938    0.0737 H   0  0  0  0  0  0  0  0  0  0  0  0
    6.1485   -2.4782    0.9338 H   0  0  0  0  0  0  0  0  0  0  0  0
    6.1236   -2.4826   -0.8269 H   0  0  0  0  0  0  0  0  0  0  0  0
    7.4717    2.3118    0.9413 H   0  0  0  0  0  0  0  0  0  0  0  0
    7.4449    2.3050   -0.8118 H   0  0  0  0  0  0  0  0  0  0  0  0
    5.2530    3.1624   -0.7732 H   0  0  0  0  0  0  0  0  0  0  0  0
    5.2680    3.1392    0.9805 H   0  0  0  0  0  0  0  0  0  0  0  0
    7.2919   -0.0347    0.9598 H   0  0  0  0  0  0  0  0  0  0  0  0
    7.2951   -0.0426   -0.7919 H   0  0  0  0  0  0  0  0  0  0  0  0
    2.7717   -2.1203    0.0599 H   0  0  0  0  0  0  0  0  0  0  0  0
    2.5884    2.1717    0.0893 H   0  0  0  0  0  0  0  0  0  0  0  0
  1  8  1  0  0  0  0
  1 12  1  0  0  0  0
  1 14  1  0  0  0  0
  2  9  1  0  0  0  0
  2 15  1  0  0  0  0
  2 16  1  0  0  0  0
  3  5  1  0  0  0  0
  3  4  1  0  0  0  0
  3 18  1  0  0  0  0
  4 21  1  0  0  0  0
  5 22  1  0  0  0  0
  6  9  2  0  0  0  0
  6  8  1  0  0  0  0
  7 10  1  0  0  0  0
  7 25  1  0  0  0  0
  8  7  2  0  0  0  0
  9 11  1  0  0  0  0
 10  4  1  0  0  0  0
 11  5  1  0  0  0  0
 11 10  2  0  0  0  0
 13  1  1  0  0  0  0
 17  2  1  0  0  0  0
 19  3  1  0  0  0  0
 20  4  1  0  0  0  0
 23  5  1  0  0  0  0
 24  6  1  0  0  0  0
M  END
>  <HBA>
0

>  <HBD>
0

>  <TPSA>
0.0

>  <cid>
15518

>  <dipole>
0.34

>  <excitation_energy_1>
5.011

>  <excitation_energy_2>
5.586

>  <excitation_energy_3>
5.641

>  <excitation_energy_4>
5.88

>  <homo_energy>
-5.899

>  <homo_lumo_gap>
6.074

>  <logP>
2.792

>  <lumo_energy>
0.174

>  <melting_point>
43.58

>  <molecular_refractivity>
49.0

>  <oscillator_strength_1>
0.0252

>  <oscillator_strength_2>
0.0149

>  <oscillator_strength_3>
0.0032

>  <oscillator_strength_4>
0.0

>  <open_babel_can_smiles>
Cc1cc(C)c2c(c1)CCC2

>  <mulliken_charges>
25
1   -0.531878
2   -0.531814
3   -0.286319
4   -0.352226
5   -0.352565
6   -0.258315
7   -0.25322
8   0.192203
9   0.140834
10   0.13795
11   0.060934
12   0.152127
13   0.158604
14   0.158359
15   0.152345
16   0.157583
17   0.157862
18   0.14319
19   0.143669
20   0.149327
21   0.149486
22   0.146683
23   0.14658
24   0.10791
25   0.110691

>  <lowdin_charges>
25
1   -0.442867
2   -0.44156
3   -0.280449
4   -0.280999
5   -0.28196
6   -0.185581
7   -0.182832
8   0.000847
9   -0.006464
10   -0.010539
11   -0.028752
12   0.153798
13   0.158823
14   0.158814
15   0.155956
16   0.157958
17   0.157976
18   0.1483
19   0.14823
20   0.151703
21   0.151548
22   0.149549
23   0.149691
24   0.14835
25   0.150459

$$$$

