PCCDB-ID:  60064
public computational chemistry database (PCCDB) project, http://pccdb.org

 38 38  0  0  1  0  0  0  0  0999 V2000
    1.9865   -1.0788    0.5358 C   0  0  0  0  0  0  0  0  0  0  0  0
    1.5349   -2.3287   -3.5201 C   0  0  0  0  0  0  0  0  0  0  0  0
    7.5228   -0.8639   -1.8621 C   0  0  0  0  0  0  0  0  0  0  0  0
    2.1016   -0.6363   -0.9243 C   0  0  0  0  0  0  0  0  0  0  0  0
    2.7158   -1.4326   -3.1416 C   0  0  0  0  0  0  0  0  0  0  0  0
    5.3833   -2.2903   -1.7059 C   0  0  0  0  0  0  0  0  0  0  0  0
    4.4273   -1.1198   -1.4372 C   0  0  0  0  0  0  0  0  0  0  0  0
    8.1216   -5.2719   -0.3327 C   0  0  0  0  0  0  0  0  0  0  0  0
    7.2054   -3.1211    0.7900 C   0  0  0  0  0  0  0  0  0  0  0  0
    8.1204   -3.7515   -0.2593 C   0  0  2  0  0  0  0  0  0  0  0  0
    6.8214   -2.0556   -1.2189 C   0  0  2  0  0  0  0  0  0  0  0  0
    3.0267   -1.4671   -1.7063 N   0  0  0  0  0  0  0  0  0  0  0  0
    8.8944   -5.7366   -1.4247 O   0  0  0  0  0  0  0  0  0  0  0  0
    6.8582   -1.8735    0.2005 O   0  0  0  0  0  0  0  0  0  0  0  0
    7.5671   -3.2575   -1.4862 O   0  0  0  0  0  0  0  0  0  0  0  0
    1.2617   -0.4509    1.0673 H   0  0  0  0  0  0  0  0  0  0  0  0
    2.9405   -1.0017    1.0685 H   0  0  0  0  0  0  0  0  0  0  0  0
    1.6532   -2.1203    0.5916 H   0  0  0  0  0  0  0  0  0  0  0  0
    1.3668   -2.2997   -4.6032 H   0  0  0  0  0  0  0  0  0  0  0  0
    0.6039   -2.0152   -3.0354 H   0  0  0  0  0  0  0  0  0  0  0  0
    1.7347   -3.3639   -3.2248 H   0  0  0  0  0  0  0  0  0  0  0  0
    7.0309    0.0731   -1.5854 H   0  0  0  0  0  0  0  0  0  0  0  0
    7.5116   -0.9585   -2.9525 H   0  0  0  0  0  0  0  0  0  0  0  0
    8.5612   -0.8253   -1.5210 H   0  0  0  0  0  0  0  0  0  0  0  0
    2.3822    0.4345   -0.9763 H   0  0  0  0  0  0  0  0  0  0  0  0
    1.1115   -0.7127   -1.3844 H   0  0  0  0  0  0  0  0  0  0  0  0
    2.5330   -0.3962   -3.4889 H   0  0  0  0  0  0  0  0  0  0  0  0
    3.5989   -1.7826   -3.6860 H   0  0  0  0  0  0  0  0  0  0  0  0
    5.4274   -2.5355   -2.7740 H   0  0  0  0  0  0  0  0  0  0  0  0
    4.9913   -3.1769   -1.1957 H   0  0  0  0  0  0  0  0  0  0  0  0
    4.7322   -0.2241   -2.0117 H   0  0  0  0  0  0  0  0  0  0  0  0
    4.5192   -0.8575   -0.3797 H   0  0  0  0  0  0  0  0  0  0  0  0
    7.0793   -5.6258   -0.3954 H   0  0  0  0  0  0  0  0  0  0  0  0
    8.5712   -5.6941    0.5730 H   0  0  0  0  0  0  0  0  0  0  0  0
    7.6988   -2.9218    1.7448 H   0  0  0  0  0  0  0  0  0  0  0  0
    6.3139   -3.7423    0.9692 H   0  0  0  0  0  0  0  0  0  0  0  0
    9.1529   -3.3882   -0.1485 H   0  0  0  0  0  0  0  0  0  0  0  0
    8.5476   -5.2789   -2.2083 H   0  0  0  0  0  0  0  0  0  0  0  0
  1 18  1  0  0  0  0
  1 16  1  0  0  0  0
  1 17  1  0  0  0  0
  2 21  1  0  0  0  0
  2  5  1  0  0  0  0
  2 20  1  0  0  0  0
  3 22  1  0  0  0  0
  3 24  1  0  0  0  0
  4  1  1  0  0  0  0
  5 12  1  0  0  0  0
  6  7  1  0  0  0  0
  6 11  1  0  0  0  0
  6 30  1  0  0  0  0
  7 32  1  0  0  0  0
  8 10  1  0  0  0  0
  8 34  1  0  0  0  0
  9 36  1  0  0  0  0
  9 35  1  0  0  0  0
 10 37  1  1  0  0  0
 10  9  1  0  0  0  0
 11  3  1  6  0  0  0
 11 14  1  0  0  0  0
 12  7  1  0  0  0  0
 12  4  1  0  0  0  0
 13  8  1  0  0  0  0
 14  9  1  0  0  0  0
 15 11  1  0  0  0  0
 15 10  1  0  0  0  0
 19  2  1  0  0  0  0
 23  3  1  0  0  0  0
 25  4  1  0  0  0  0
 26  4  1  0  0  0  0
 27  5  1  0  0  0  0
 28  5  1  0  0  0  0
 29  6  1  0  0  0  0
 31  7  1  0  0  0  0
 33  8  1  0  0  0  0
 38 13  1  0  0  0  0
M  END
>  <HBA>
4

>  <HBD>
1

>  <TPSA>
41.93

>  <cid>
60064

>  <dipole>
1.65

>  <excitation_energy_1>
5.345

>  <excitation_energy_2>
5.538

>  <excitation_energy_3>
5.57

>  <excitation_energy_4>
5.601

>  <homo_energy>
-5.652

>  <homo_lumo_gap>
7.842

>  <logP>
0.842

>  <lumo_energy>
2.191

>  <melting_point>
7.07

>  <molecular_refractivity>
59.14

>  <oscillator_strength_1>
0.0331

>  <oscillator_strength_2>
0.0323

>  <oscillator_strength_3>
0.0646

>  <oscillator_strength_4>
0.0406

>  <open_babel_can_smiles>
OC[C@@H]1CO[C@](O1)(C)CCN(CC)CC

>  <mulliken_charges>
38
1   -0.442485
2   -0.440312
3   -0.457782
4   -0.120466
5   -0.121648
6   -0.269677
7   -0.143512
8   -0.033738
9   -0.053402
10   0.108857
11   0.534772
12   -0.380369
13   -0.619153
14   -0.508385
15   -0.554427
16   0.138445
17   0.150116
18   0.152627
19   0.138754
20   0.146116
21   0.153833
22   0.158857
23   0.149903
24   0.155781
25   0.111983
26   0.137548
27   0.112122
28   0.136866
29   0.140415
30   0.145987
31   0.113656
32   0.157637
33   0.124005
34   0.144036
35   0.155145
36   0.135133
37   0.138656
38   0.404107

>  <lowdin_charges>
38
1   -0.450182
2   -0.446418
3   -0.451571
4   -0.195077
5   -0.197754
6   -0.294941
7   -0.2052
8   -0.140723
9   -0.14501
10   -0.02665
11   0.224638
12   -0.192247
13   -0.462866
14   -0.267494
15   -0.283885
16   0.151052
17   0.149244
18   0.152184
19   0.148058
20   0.147534
21   0.152803
22   0.160995
23   0.156037
24   0.160129
25   0.116332
26   0.1444
27   0.117362
28   0.144433
29   0.14754
30   0.155063
31   0.120661
32   0.152483
33   0.128851
34   0.150323
35   0.157088
36   0.135729
37   0.138075
38   0.349001

$$$$

