PCCDB-ID:  70229
public computational chemistry database (PCCDB) project, http://pccdb.org

 26 25  0  0  0  0  0  0  0  0999 V2000
    1.8621   -1.1974   -1.4060 C   0  0  0  0  0  0  0  0  0  0  0  0
    3.1600   -0.3840   -1.3755 C   0  0  0  0  0  0  0  0  0  0  0  0
    3.0336    0.9072   -0.5569 C   0  0  0  0  0  0  0  0  0  0  0  0
    4.3254    1.7127   -0.5210 C   0  0  0  0  0  0  0  0  0  0  0  0
    5.2432    3.7171    0.3405 C   0  0  0  0  0  0  0  0  0  0  0  0
    4.8017    4.9472    1.1259 C   0  0  0  0  0  0  0  0  0  0  0  0
    7.1454    7.8969    1.2208 O   0  0  0  0  0  0  0  0  0  0  0  0
    7.6489    6.0378   -0.3583 O   0  0  0  0  0  0  0  0  0  0  0  0
    5.4518    7.3032   -0.4960 O   0  0  0  0  0  0  0  0  0  0  0  0
    4.1032    2.8927    0.2408 O   0  0  0  0  0  0  0  0  0  0  0  0
    5.9292    5.8054    1.4639 O   0  0  0  0  0  0  0  0  0  0  0  0
    6.5358    6.7303    0.2752 S   0  0  0  0  0  0  0  0  0  0  0  0
    1.9815   -2.1156   -1.9919 H   0  0  0  0  0  0  0  0  0  0  0  0
    1.0433   -0.6204   -1.8525 H   0  0  0  0  0  0  0  0  0  0  0  0
    1.5513   -1.4845   -0.3941 H   0  0  0  0  0  0  0  0  0  0  0  0
    3.4604   -0.1375   -2.4036 H   0  0  0  0  0  0  0  0  0  0  0  0
    3.9684   -1.0028   -0.9610 H   0  0  0  0  0  0  0  0  0  0  0  0
    2.7391    0.6715    0.4742 H   0  0  0  0  0  0  0  0  0  0  0  0
    2.2394    1.5407   -0.9734 H   0  0  0  0  0  0  0  0  0  0  0  0
    4.6457    1.9796   -1.5424 H   0  0  0  0  0  0  0  0  0  0  0  0
    5.1395    1.1210   -0.0682 H   0  0  0  0  0  0  0  0  0  0  0  0
    6.0659    3.2112    0.8715 H   0  0  0  0  0  0  0  0  0  0  0  0
    5.6172    4.0023   -0.6557 H   0  0  0  0  0  0  0  0  0  0  0  0
    4.3979    4.6524    2.0957 H   0  0  0  0  0  0  0  0  0  0  0  0
    4.0519    5.5261    0.5821 H   0  0  0  0  0  0  0  0  0  0  0  0
    8.0924    7.7009    1.3518 H   0  0  0  0  0  0  0  0  0  0  0  0
  1  2  1  0  0  0  0
  1 15  1  0  0  0  0
  2 17  1  0  0  0  0
  2  3  1  0  0  0  0
  3  4  1  0  0  0  0
  3 18  1  0  0  0  0
  4 21  1  0  0  0  0
  4 10  1  0  0  0  0
  5 22  1  0  0  0  0
  5  6  1  0  0  0  0
  6 11  1  0  0  0  0
  6 24  1  0  0  0  0
  7 26  1  0  0  0  0
  8 12  2  0  0  0  0
  9 12  2  0  0  0  0
 10  5  1  0  0  0  0
 12  7  1  0  0  0  0
 12 11  1  0  0  0  0
 13  1  1  0  0  0  0
 14  1  1  0  0  0  0
 16  2  1  0  0  0  0
 19  3  1  0  0  0  0
 20  4  1  0  0  0  0
 23  5  1  0  0  0  0
 25  6  1  0  0  0  0
M  END
>  <HBA>
5

>  <HBD>
1

>  <TPSA>
81.21

>  <cid>
70229

>  <dipole>
2.69

>  <excitation_energy_1>
6.277

>  <excitation_energy_2>
6.856

>  <excitation_energy_3>
6.917

>  <excitation_energy_4>
7.182

>  <homo_energy>
-7.236

>  <homo_lumo_gap>
7.592

>  <logP>
1.703

>  <lumo_energy>
0.356

>  <melting_point>
38.87

>  <molecular_refractivity>
43.66

>  <oscillator_strength_1>
0.0013

>  <oscillator_strength_2>
0.0143

>  <oscillator_strength_3>
0.0002

>  <oscillator_strength_4>
0.015

>  <open_babel_can_smiles>
CCCCOCCOS(=O)(=O)O

>  <mulliken_charges>
26
1   -0.440534
2   -0.258118
3   -0.267311
4   -0.007408
5   -0.026849
6   -0.086211
7   -0.600614
8   -0.501798
9   -0.479443
10   -0.488674
11   -0.511985
12   1.297358
13   0.145061
14   0.14556
15   0.144502
16   0.135667
17   0.134053
18   0.143933
19   0.146505
20   0.125313
21   0.121467
22   0.140731
23   0.153472
24   0.186322
25   0.1987
26   0.450305

>  <lowdin_charges>
26
1   -0.443054
2   -0.272354
3   -0.280614
4   -0.126155
5   -0.144891
6   -0.132926
7   -0.543945
8   -0.562101
9   -0.537678
10   -0.27286
11   -0.395849
12   1.413628
13   0.15121
14   0.149533
15   0.147464
16   0.14026
17   0.141335
18   0.146757
19   0.150129
20   0.128022
21   0.128363
22   0.138721
23   0.143072
24   0.17227
25   0.173228
26   0.388437

$$$$

