PCCDB-ID:  44670
public computational chemistry database (PCCDB) project, http://pccdb.org

 30 29  0  0  1  0  0  0  0  0999 V2000
    2.4172   -1.3557   -2.3767 C   0  0  0  0  0  0  0  0  0  0  0  0
    4.4100    4.1588    3.0234 C   0  0  0  0  0  0  0  0  0  0  0  0
    6.6582    1.0008   -1.1068 C   0  0  0  0  0  0  0  0  0  0  0  0
    1.9928   -1.4718   -0.9086 C   0  0  0  0  0  0  0  0  0  0  0  0
    5.0431    2.8831    3.5557 C   0  0  0  0  0  0  0  0  0  0  0  0
    2.6829   -0.4622    0.0162 C   0  0  0  0  0  0  0  0  0  0  0  0
    5.3927    1.3310   -0.3517 C   0  0  0  0  0  0  0  0  0  0  0  0
    4.1521   -0.7469    0.2484 C   0  0  0  0  0  0  0  0  0  0  0  0
    5.0468    0.3798    0.8244 C   0  0  2  0  0  0  0  0  0  0  0  0
    4.4709    1.1808    1.9870 C   0  0  0  0  0  0  0  0  0  0  0  0
    4.6524    2.2462   -0.6457 O   0  0  0  0  0  0  0  0  0  0  0  0
    4.6865   -1.7983   -0.0515 O   0  0  0  0  0  0  0  0  0  0  0  0
    3.3516    1.0989    2.4405 O   0  0  0  0  0  0  0  0  0  0  0  0
    5.4274    2.0010    2.4675 O   0  0  0  0  0  0  0  0  0  0  0  0
    1.8755   -2.0768   -2.9991 H   0  0  0  0  0  0  0  0  0  0  0  0
    3.4875   -1.5547   -2.4948 H   0  0  0  0  0  0  0  0  0  0  0  0
    2.2109   -0.3532   -2.7723 H   0  0  0  0  0  0  0  0  0  0  0  0
    4.1918    4.8383    3.8552 H   0  0  0  0  0  0  0  0  0  0  0  0
    3.4736    3.9370    2.5041 H   0  0  0  0  0  0  0  0  0  0  0  0
    5.0849    4.6682    2.3284 H   0  0  0  0  0  0  0  0  0  0  0  0
    7.5270    1.2130   -0.4701 H   0  0  0  0  0  0  0  0  0  0  0  0
    6.7202    1.5994   -2.0175 H   0  0  0  0  0  0  0  0  0  0  0  0
    6.6889   -0.0690   -1.3449 H   0  0  0  0  0  0  0  0  0  0  0  0
    2.1992   -2.4851   -0.5456 H   0  0  0  0  0  0  0  0  0  0  0  0
    0.9093   -1.3201   -0.8281 H   0  0  0  0  0  0  0  0  0  0  0  0
    4.3636    2.3435    4.2194 H   0  0  0  0  0  0  0  0  0  0  0  0
    5.9804    3.0835    4.0799 H   0  0  0  0  0  0  0  0  0  0  0  0
    2.2135   -0.4426    1.0081 H   0  0  0  0  0  0  0  0  0  0  0  0
    2.5831    0.5673   -0.3537 H   0  0  0  0  0  0  0  0  0  0  0  0
    5.9669   -0.1059    1.1620 H   0  0  0  0  0  0  0  0  0  0  0  0
  1  4  1  0  0  0  0
  2  5  1  0  0  0  0
  2 18  1  0  0  0  0
  3 21  1  0  0  0  0
  3  7  1  0  0  0  0
  4 25  1  0  0  0  0
  4 24  1  0  0  0  0
  4  6  1  0  0  0  0
  5 27  1  0  0  0  0
  5 26  1  0  0  0  0
  6  8  1  0  0  0  0
  6 28  1  0  0  0  0
  7  9  1  0  0  0  0
  8  9  1  0  0  0  0
  9 30  1  1  0  0  0
  9 10  1  0  0  0  0
 10 13  2  0  0  0  0
 10 14  1  0  0  0  0
 11  7  2  0  0  0  0
 12  8  2  0  0  0  0
 14  5  1  0  0  0  0
 15  1  1  0  0  0  0
 16  1  1  0  0  0  0
 17  1  1  0  0  0  0
 19  2  1  0  0  0  0
 20  2  1  0  0  0  0
 22  3  1  0  0  0  0
 23  3  1  0  0  0  0
 29  6  1  0  0  0  0
M  END
>  <HBA>
4

>  <HBD>
0

>  <TPSA>
60.44

>  <cid>
44670

>  <dipole>
2.54

>  <excitation_energy_1>
4.058

>  <excitation_energy_2>
4.304

>  <excitation_energy_3>
5.377

>  <excitation_energy_4>
5.512

>  <homo_energy>
-6.904

>  <homo_lumo_gap>
5.483

>  <logP>
1.124

>  <lumo_energy>
-1.42

>  <melting_point>
26.0

>  <molecular_refractivity>
51.87

>  <oscillator_strength_1>
0.0111

>  <oscillator_strength_2>
0.001

>  <oscillator_strength_3>
0.0042

>  <oscillator_strength_4>
0.016

>  <open_babel_can_smiles>
CCCC(=O)[C@H](C(=O)OCC)C(=O)C

>  <mulliken_charges>
30
1   -0.450083
2   -0.460773
3   -0.533691
4   -0.248885
5   -0.050991
6   -0.362328
7   0.456788
8   0.467854
9   -0.357801
10   0.657424
11   -0.425852
12   -0.446092
13   -0.472964
14   -0.464753
15   0.144524
16   0.155257
17   0.141811
18   0.151959
19   0.18245
20   0.164129
21   0.185078
22   0.18506
23   0.193468
24   0.154235
25   0.134831
26   0.174636
27   0.15657
28   0.201764
29   0.176389
30   0.189987

>  <lowdin_charges>
30
1   -0.447391
2   -0.455442
3   -0.470459
4   -0.267998
5   -0.128826
6   -0.313352
7   0.176522
8   0.175076
9   -0.213824
10   0.205523
11   -0.220991
12   -0.232547
13   -0.252161
14   -0.189331
15   0.152548
16   0.150682
17   0.145195
18   0.160649
19   0.168955
20   0.161387
21   0.180758
22   0.1764
23   0.181053
24   0.152572
25   0.143823
26   0.162235
27   0.154771
28   0.18755
29   0.170006
30   0.186616

$$$$

