PCCDB-ID:  17259
public computational chemistry database (PCCDB) project, http://pccdb.org

 27 26  0  0  0  0  0  0  0  0999 V2000
    0.9427   -0.5493    0.1364 C   0  0  0  0  0  0  0  0  0  0  0  0
    8.4165    1.1246   -6.7499 C   0  0  0  0  0  0  0  0  0  0  0  0
    2.4116   -0.1188    0.2029 C   0  0  0  0  0  0  0  0  0  0  0  0
    8.3232    0.3793   -5.6468 C   0  0  0  0  0  0  0  0  0  0  0  0
    3.1737   -0.3674   -1.1049 C   0  0  0  0  0  0  0  0  0  0  0  0
    4.6444    0.0654   -1.0463 C   0  0  0  0  0  0  0  0  0  0  0  0
    5.3999   -0.1821   -2.3590 C   0  0  0  0  0  0  0  0  0  0  0  0
    6.8583    0.2572   -2.2712 C   0  0  0  0  0  0  0  0  0  0  0  0
    7.5302    0.8457   -4.4800 C   0  0  0  0  0  0  0  0  0  0  0  0
    6.9185    1.8942   -4.4172 O   0  0  0  0  0  0  0  0  0  0  0  0
    7.5858   -0.0647   -3.4785 O   0  0  0  0  0  0  0  0  0  0  0  0
    0.4280   -0.3643    1.0861 H   0  0  0  0  0  0  0  0  0  0  0  0
    0.8528   -1.6194   -0.0880 H   0  0  0  0  0  0  0  0  0  0  0  0
    0.4040   -0.0015   -0.6465 H   0  0  0  0  0  0  0  0  0  0  0  0
    8.9929    0.8013   -7.6114 H   0  0  0  0  0  0  0  0  0  0  0  0
    7.9103    2.0840   -6.8084 H   0  0  0  0  0  0  0  0  0  0  0  0
    2.9133   -0.6540    1.0218 H   0  0  0  0  0  0  0  0  0  0  0  0
    2.4693    0.9490    0.4576 H   0  0  0  0  0  0  0  0  0  0  0  0
    8.8156   -0.5839   -5.5515 H   0  0  0  0  0  0  0  0  0  0  0  0
    2.6713    0.1660   -1.9252 H   0  0  0  0  0  0  0  0  0  0  0  0
    3.1188   -1.4365   -1.3589 H   0  0  0  0  0  0  0  0  0  0  0  0
    5.1467   -0.4701   -0.2267 H   0  0  0  0  0  0  0  0  0  0  0  0
    4.6974    1.1338   -0.7912 H   0  0  0  0  0  0  0  0  0  0  0  0
    4.9168    0.3660   -3.1766 H   0  0  0  0  0  0  0  0  0  0  0  0
    5.3649   -1.2486   -2.6178 H   0  0  0  0  0  0  0  0  0  0  0  0
    7.3880   -0.2818   -1.4805 H   0  0  0  0  0  0  0  0  0  0  0  0
    6.9338    1.3328   -2.0896 H   0  0  0  0  0  0  0  0  0  0  0  0
  1  3  1  0  0  0  0
  1 12  1  0  0  0  0
  2  4  2  0  0  0  0
  3 18  1  0  0  0  0
  3 17  1  0  0  0  0
  4 19  1  0  0  0  0
  4  9  1  0  0  0  0
  5  6  1  0  0  0  0
  5  3  1  0  0  0  0
  6 23  1  0  0  0  0
  6 22  1  0  0  0  0
  7  8  1  0  0  0  0
  7  6  1  0  0  0  0
  8 27  1  0  0  0  0
  8 26  1  0  0  0  0
  9 10  2  0  0  0  0
  9 11  1  0  0  0  0
 11  8  1  0  0  0  0
 13  1  1  0  0  0  0
 14  1  1  0  0  0  0
 15  2  1  0  0  0  0
 16  2  1  0  0  0  0
 20  5  1  0  0  0  0
 21  5  1  0  0  0  0
 24  7  1  0  0  0  0
 25  7  1  0  0  0  0
M  END
>  <HBA>
2

>  <HBD>
0

>  <TPSA>
26.3

>  <cid>
17259

>  <dipole>
1.41

>  <excitation_energy_1>
4.744

>  <excitation_energy_2>
6.01

>  <excitation_energy_3>
6.215

>  <excitation_energy_4>
6.762

>  <homo_energy>
-7.358

>  <homo_lumo_gap>
6.204

>  <logP>
2.296

>  <lumo_energy>
-1.154

>  <melting_point>
-36.71

>  <molecular_refractivity>
46.19

>  <oscillator_strength_1>
0.0002

>  <oscillator_strength_2>
0.0514

>  <oscillator_strength_3>
0.433

>  <oscillator_strength_4>
0.0071

>  <open_babel_can_smiles>
CCCCCCOC(=O)C=C

>  <mulliken_charges>
27
1   -0.441854
2   -0.303026
3   -0.248156
4   -0.133115
5   -0.245598
6   -0.264515
7   -0.279373
8   -0.043841
9   0.608062
10   -0.494098
11   -0.477489
12   0.142539
13   0.141478
14   0.14287
15   0.156506
16   0.180094
17   0.130101
18   0.132159
19   0.153021
20   0.132506
21   0.128475
22   0.128638
23   0.136947
24   0.160816
25   0.141306
26   0.148006
27   0.16754

>  <lowdin_charges>
27
1   -0.443997
2   -0.266641
3   -0.271571
4   -0.184798
5   -0.272411
6   -0.273561
7   -0.285793
8   -0.131844
9   0.1932
10   -0.275052
11   -0.191223
12   0.149763
13   0.144757
14   0.148189
15   0.168928
16   0.178853
17   0.13968
18   0.138117
19   0.169341
20   0.141364
21   0.136675
22   0.139045
23   0.14053
24   0.156804
25   0.144281
26   0.15162
27   0.155741

$$$$

