PCCDB-ID:  10873
public computational chemistry database (PCCDB) project, http://pccdb.org

 22 22  0  0  0  0  0  0  0  0999 V2000
    0.5869   -1.0848   -1.4957 C   0  0  0  0  0  0  0  0  0  0  0  0
    2.0142   -1.0158   -2.0128 C   0  0  0  0  0  0  0  0  0  0  0  0
    5.6686   -4.5775   -3.6874 C   0  0  0  0  0  0  0  0  0  0  0  0
    6.1395   -3.2873   -3.9328 C   0  0  0  0  0  0  0  0  0  0  0  0
    4.7281   -4.7893   -2.6757 C   0  0  0  0  0  0  0  0  0  0  0  0
    5.6702   -2.2154   -3.1701 C   0  0  0  0  0  0  0  0  0  0  0  0
    4.2677   -3.7183   -1.9109 C   0  0  0  0  0  0  0  0  0  0  0  0
    4.2649   -1.2660   -1.2800 C   0  0  0  0  0  0  0  0  0  0  0  0
    4.7367   -2.4197   -2.1489 C   0  0  0  0  0  0  0  0  0  0  0  0
    2.8912   -1.3240   -0.9353 O   0  0  0  0  0  0  0  0  0  0  0  0
   -0.1216   -0.8457   -2.2966 H   0  0  0  0  0  0  0  0  0  0  0  0
    0.4395   -0.3742   -0.6760 H   0  0  0  0  0  0  0  0  0  0  0  0
    0.3619   -2.0893   -1.1228 H   0  0  0  0  0  0  0  0  0  0  0  0
    2.2401   -0.0064   -2.3972 H   0  0  0  0  0  0  0  0  0  0  0  0
    2.1610   -1.7221   -2.8437 H   0  0  0  0  0  0  0  0  0  0  0  0
    6.0281   -5.4128   -4.2825 H   0  0  0  0  0  0  0  0  0  0  0  0
    6.8657   -3.1123   -4.7224 H   0  0  0  0  0  0  0  0  0  0  0  0
    4.3548   -5.7917   -2.4818 H   0  0  0  0  0  0  0  0  0  0  0  0
    6.0334   -1.2094   -3.3720 H   0  0  0  0  0  0  0  0  0  0  0  0
    3.5322   -3.8765   -1.1270 H   0  0  0  0  0  0  0  0  0  0  0  0
    4.5020   -0.3075   -1.7714 H   0  0  0  0  0  0  0  0  0  0  0  0
    4.7973   -1.2799   -0.3208 H   0  0  0  0  0  0  0  0  0  0  0  0
  1 13  1  0  0  0  0
  1 12  1  0  0  0  0
  2  1  1  0  0  0  0
  2 10  1  0  0  0  0
  3  5  1  0  0  0  0
  4  3  2  0  0  0  0
  4  6  1  0  0  0  0
  5 18  1  0  0  0  0
  5  7  2  0  0  0  0
  6  9  2  0  0  0  0
  7 20  1  0  0  0  0
  8 10  1  0  0  0  0
  8 22  1  0  0  0  0
  9  7  1  0  0  0  0
  9  8  1  0  0  0  0
 11  1  1  0  0  0  0
 14  2  1  0  0  0  0
 15  2  1  0  0  0  0
 16  3  1  0  0  0  0
 17  4  1  0  0  0  0
 19  6  1  0  0  0  0
 21  8  1  0  0  0  0
M  END
>  <HBA>
1

>  <HBD>
0

>  <TPSA>
9.23

>  <cid>
10873

>  <dipole>
1.03

>  <excitation_energy_1>
5.289

>  <excitation_energy_2>
5.803

>  <excitation_energy_3>
5.928

>  <excitation_energy_4>
6.009

>  <homo_energy>
-6.555

>  <homo_lumo_gap>
6.52

>  <logP>
2.223

>  <lumo_energy>
-0.035

>  <melting_point>
-3.13

>  <molecular_refractivity>
42.11

>  <oscillator_strength_1>
0.0001

>  <oscillator_strength_2>
0.0143

>  <oscillator_strength_3>
0.0117

>  <oscillator_strength_4>
0.003

>  <open_babel_can_smiles>
CCOCc1ccccc1

>  <mulliken_charges>
22
1   -0.452742
2   -0.013996
3   -0.129288
4   -0.128209
5   -0.129514
6   -0.182216
7   -0.169176
8   -0.093183
9   0.1238
10   -0.466253
11   0.142787
12   0.157135
13   0.156763
14   0.11762
15   0.133981
16   0.128345
17   0.128598
18   0.129309
19   0.122261
20   0.141219
21   0.124102
22   0.158657

>  <lowdin_charges>
22
1   -0.448934
2   -0.128543
3   -0.160632
4   -0.155202
5   -0.153986
6   -0.167603
7   -0.158906
8   -0.130788
9   -0.025637
10   -0.272587
11   0.154602
12   0.156757
13   0.155532
14   0.124102
15   0.133865
16   0.158026
17   0.157355
18   0.1565
19   0.153017
20   0.163872
21   0.131958
22   0.157229

$$$$

