PCCDB-ID:  4688
public computational chemistry database (PCCDB) project, http://pccdb.org

 25 25  0  0  0  0  0  0  0  0999 V2000
    3.6107   -1.9340   -1.2044 C   0  0  0  0  0  0  0  0  0  0  0  0
    4.5229   -3.2322    2.3021 C   0  0  0  0  0  0  0  0  0  0  0  0
    3.4220   -1.6819   -0.0376 C   0  0  0  0  0  0  0  0  0  0  0  0
    8.3870   -1.1980    5.3008 C   0  0  0  0  0  0  0  0  0  0  0  0
    8.8033   -1.5314    4.0123 C   0  0  0  0  0  0  0  0  0  0  0  0
    7.0555   -0.8350    5.5242 C   0  0  0  0  0  0  0  0  0  0  0  0
    7.8926   -1.4994    2.9531 C   0  0  0  0  0  0  0  0  0  0  0  0
    6.1506   -0.8021    4.4647 C   0  0  0  0  0  0  0  0  0  0  0  0
    3.2386   -1.3777    1.3973 C   0  0  0  0  0  0  0  0  0  0  0  0
    5.5794   -1.0565    2.0089 C   0  0  0  0  0  0  0  0  0  0  0  0
    6.5599   -1.1313    3.1648 C   0  0  0  0  0  0  0  0  0  0  0  0
    4.3346   -1.7835    2.2801 N   0  0  0  0  0  0  0  0  0  0  0  0
    3.7667   -2.1595   -2.2350 H   0  0  0  0  0  0  0  0  0  0  0  0
    3.5888   -3.7148    2.6100 H   0  0  0  0  0  0  0  0  0  0  0  0
    5.2944   -3.4826    3.0350 H   0  0  0  0  0  0  0  0  0  0  0  0
    4.8219   -3.6446    1.3226 H   0  0  0  0  0  0  0  0  0  0  0  0
    9.0925   -1.2224    6.1272 H   0  0  0  0  0  0  0  0  0  0  0  0
    9.8349   -1.8215    3.8298 H   0  0  0  0  0  0  0  0  0  0  0  0
    6.7237   -0.5766    6.5268 H   0  0  0  0  0  0  0  0  0  0  0  0
    8.2216   -1.7622    1.9499 H   0  0  0  0  0  0  0  0  0  0  0  0
    5.1115   -0.5351    4.6359 H   0  0  0  0  0  0  0  0  0  0  0  0
    2.3213   -1.8651    1.7533 H   0  0  0  0  0  0  0  0  0  0  0  0
    3.0858   -0.2973    1.5174 H   0  0  0  0  0  0  0  0  0  0  0  0
    6.0739   -1.4037    1.0836 H   0  0  0  0  0  0  0  0  0  0  0  0
    5.3052   -0.0069    1.8369 H   0  0  0  0  0  0  0  0  0  0  0  0
  1  3  3  0  0  0  0
  2 14  1  0  0  0  0
  2 15  1  0  0  0  0
  3  9  1  0  0  0  0
  4  6  1  0  0  0  0
  4 17  1  0  0  0  0
  5  4  2  0  0  0  0
  6 19  1  0  0  0  0
  7 11  2  0  0  0  0
  7  5  1  0  0  0  0
  8 21  1  0  0  0  0
  8  6  2  0  0  0  0
  9 23  1  0  0  0  0
  9 22  1  0  0  0  0
  9 12  1  0  0  0  0
 10 12  1  0  0  0  0
 10 11  1  0  0  0  0
 11  8  1  0  0  0  0
 12  2  1  0  0  0  0
 13  1  1  0  0  0  0
 16  2  1  0  0  0  0
 18  5  1  0  0  0  0
 20  7  1  0  0  0  0
 24 10  1  0  0  0  0
 25 10  1  0  0  0  0
M  END
>  <HBA>
1

>  <HBD>
0

>  <TPSA>
3.24

>  <cid>
4688

>  <dipole>
0.26

>  <excitation_energy_1>
4.962

>  <excitation_energy_2>
5.149

>  <excitation_energy_3>
5.345

>  <excitation_energy_4>
5.487

>  <homo_energy>
-5.981

>  <homo_lumo_gap>
5.978

>  <logP>
1.752

>  <lumo_energy>
-0.003

>  <melting_point>
24.48

>  <molecular_refractivity>
51.69

>  <oscillator_strength_1>
0.0026

>  <oscillator_strength_2>
0.0096

>  <oscillator_strength_3>
0.0078

>  <oscillator_strength_4>
0.0094

>  <open_babel_can_smiles>
CN(Cc1ccccc1)CC#C

>  <mulliken_charges>
25
1   -0.482929
2   -0.311491
3   0.326239
4   -0.129426
5   -0.128377
6   -0.13125
7   -0.186959
8   -0.161087
9   -0.28845
10   -0.207068
11   0.149614
12   -0.3579
13   0.187285
14   0.146495
15   0.166014
16   0.136826
17   0.127274
18   0.127639
19   0.127943
20   0.124497
21   0.135056
22   0.173115
23   0.172849
24   0.133572
25   0.150521

>  <lowdin_charges>
25
1   -0.257012
2   -0.363332
3   -0.0578
4   -0.160795
5   -0.155724
6   -0.155436
7   -0.167475
8   -0.154795
9   -0.188069
10   -0.196218
11   -0.01368
12   -0.175283
13   0.202884
14   0.150063
15   0.161144
16   0.132629
17   0.157355
18   0.155464
19   0.155883
20   0.154085
21   0.160458
22   0.166807
23   0.164028
24   0.132654
25   0.152164

$$$$

