PCCDB-ID:  51955
public computational chemistry database (PCCDB) project, http://pccdb.org

 33 33  0  0  0  0  0  0  0  0999 V2000
    0.4982   -0.6947    0.3249 C   0  0  0  0  0  0  0  0  0  0  0  0
    2.5994   -2.0451    0.2175 C   0  0  0  0  0  0  0  0  0  0  0  0
    5.7123    6.5606    4.8252 C   0  0  0  0  0  0  0  0  0  0  0  0
    2.8272    2.8063    0.8098 C   0  0  0  0  0  0  0  0  0  0  0  0
    4.8460    1.5126    0.6950 C   0  0  0  0  0  0  0  0  0  0  0  0
    2.0725    1.6508    0.6947 C   0  0  0  0  0  0  0  0  0  0  0  0
    4.1054    0.3429    0.5785 C   0  0  0  0  0  0  0  0  0  0  0  0
    5.4634    6.2663    1.1683 C   0  0  0  0  0  0  0  0  0  0  0  0
    5.3304    6.9321    2.5348 C   0  0  0  0  0  0  0  0  0  0  0  0
    5.0438    3.9803    0.9329 C   0  0  0  0  0  0  0  0  0  0  0  0
    4.2319    2.7667    0.8152 C   0  0  0  0  0  0  0  0  0  0  0  0
    2.6914    0.3790    0.5843 C   0  0  0  0  0  0  0  0  0  0  0  0
    4.5464    5.1513    1.0397 N   0  0  0  0  0  0  0  0  0  0  0  0
    1.9391   -0.7806    0.4915 N   0  0  0  0  0  0  0  0  0  0  0  0
    5.8542    6.0589    3.5160 O   0  0  0  0  0  0  0  0  0  0  0  0
    0.0819   -1.7032    0.2903 H   0  0  0  0  0  0  0  0  0  0  0  0
    0.2080   -0.1717   -0.5999 H   0  0  0  0  0  0  0  0  0  0  0  0
    0.0321   -0.1721    1.1692 H   0  0  0  0  0  0  0  0  0  0  0  0
    1.8537   -2.8422    0.2019 H   0  0  0  0  0  0  0  0  0  0  0  0
    3.3282   -2.2882    1.0005 H   0  0  0  0  0  0  0  0  0  0  0  0
    3.1261   -2.0484   -0.7499 H   0  0  0  0  0  0  0  0  0  0  0  0
    6.1425    5.8198    5.5048 H   0  0  0  0  0  0  0  0  0  0  0  0
    4.6540    6.7167    5.0914 H   0  0  0  0  0  0  0  0  0  0  0  0
    6.2443    7.5177    4.9586 H   0  0  0  0  0  0  0  0  0  0  0  0
    2.3378    3.7715    0.8969 H   0  0  0  0  0  0  0  0  0  0  0  0
    5.9326    1.4498    0.6897 H   0  0  0  0  0  0  0  0  0  0  0  0
    0.9922    1.7341    0.6890 H   0  0  0  0  0  0  0  0  0  0  0  0
    4.6305   -0.5996    0.4810 H   0  0  0  0  0  0  0  0  0  0  0  0
    6.5185    5.9764    1.0203 H   0  0  0  0  0  0  0  0  0  0  0  0
    5.2104    7.0162    0.4056 H   0  0  0  0  0  0  0  0  0  0  0  0
    4.2691    7.1523    2.7355 H   0  0  0  0  0  0  0  0  0  0  0  0
    5.8821    7.8889    2.5370 H   0  0  0  0  0  0  0  0  0  0  0  0
    6.1355    3.8181    0.9208 H   0  0  0  0  0  0  0  0  0  0  0  0
  1 14  1  0  0  0  0
  1 18  1  0  0  0  0
  2 14  1  0  0  0  0
  2 20  1  0  0  0  0
  3 24  1  0  0  0  0
  3 23  1  0  0  0  0
  3 22  1  0  0  0  0
  4 11  1  0  0  0  0
  4 25  1  0  0  0  0
  5 11  2  0  0  0  0
  6  4  2  0  0  0  0
  7 12  2  0  0  0  0
  7  5  1  0  0  0  0
  8  9  1  0  0  0  0
  9 32  1  0  0  0  0
  9 31  1  0  0  0  0
  9 15  1  0  0  0  0
 10 13  2  0  0  0  0
 11 10  1  0  0  0  0
 12  6  1  0  0  0  0
 13  8  1  0  0  0  0
 14 12  1  0  0  0  0
 15  3  1  0  0  0  0
 16  1  1  0  0  0  0
 17  1  1  0  0  0  0
 19  2  1  0  0  0  0
 21  2  1  0  0  0  0
 26  5  1  0  0  0  0
 27  6  1  0  0  0  0
 28  7  1  0  0  0  0
 29  8  1  0  0  0  0
 30  8  1  0  0  0  0
 33 10  1  0  0  0  0
M  END
>  <HBA>
3

>  <HBD>
0

>  <TPSA>
24.83

>  <cid>
51955

>  <dipole>
2.53

>  <excitation_energy_1>
4.123

>  <excitation_energy_2>
4.44

>  <excitation_energy_3>
4.51

>  <excitation_energy_4>
4.585

>  <homo_energy>
-5.029

>  <homo_lumo_gap>
4.501

>  <logP>
1.818

>  <lumo_energy>
-0.528

>  <melting_point>
24.42

>  <molecular_refractivity>
64.81

>  <oscillator_strength_1>
0.5629

>  <oscillator_strength_2>
0.1186

>  <oscillator_strength_3>
0.0445

>  <oscillator_strength_4>
0.0009

>  <open_babel_can_smiles>
COCC/N=C/c1ccc(cc1)N(C)C

>  <mulliken_charges>
33
1   -0.311576
2   -0.311299
3   -0.187607
4   -0.179395
5   -0.199789
6   -0.192343
7   -0.200238
8   -0.153238
9   -0.006538
10   0.048089
11   0.14357
12   0.372241
13   -0.387281
14   -0.472122
15   -0.455957
16   0.155005
17   0.15584
18   0.165617
19   0.155206
20   0.164706
21   0.154894
22   0.155391
23   0.130285
24   0.124382
25   0.150574
26   0.124686
27   0.124585
28   0.122914
29   0.125064
30   0.140103
31   0.129436
32   0.111433
33   0.103365

>  <lowdin_charges>
33
1   -0.349908
2   -0.351106
3   -0.277589
4   -0.12646
5   -0.140485
6   -0.204433
7   -0.214013
8   -0.205528
9   -0.131864
10   -0.065131
11   -0.050741
12   0.063474
13   -0.186088
14   -0.11103
15   -0.270215
16   0.157048
17   0.144977
18   0.155017
19   0.1584
20   0.154462
21   0.143879
22   0.154993
23   0.130342
24   0.127827
25   0.170783
26   0.153147
27   0.157272
28   0.158938
29   0.128813
30   0.149887
31   0.131156
32   0.123869
33   0.120307

$$$$

