PCCDB-ID:  29897
public computational chemistry database (PCCDB) project, http://pccdb.org

 30 31  0  0  1  0  0  0  0  0999 V2000
   -1.5682    0.0349   -0.0527 C   0  0  0  0  0  0  0  0  0  0  0  0
   -0.9537   -0.1021   -1.2993 C   0  0  0  0  0  0  0  0  0  0  0  0
   -0.7805    0.2421    1.0797 C   0  0  0  0  0  0  0  0  0  0  0  0
    0.4347   -0.0317   -1.4097 C   0  0  0  0  0  0  0  0  0  0  0  0
    0.6092    0.3113    0.9627 C   0  0  0  0  0  0  0  0  0  0  0  0
    3.2157    1.4717   -1.2352 C   0  0  0  0  0  0  0  0  0  0  0  0
    3.3854   -1.0396   -0.9394 C   0  0  0  0  0  0  0  0  0  0  0  0
    4.7475    1.5538   -1.3218 C   0  0  0  0  0  0  0  0  0  0  0  0
    4.9155   -0.9465   -1.0306 C   0  0  0  0  0  0  0  0  0  0  0  0
    1.2415    0.1766   -0.2801 C   0  0  0  0  0  0  0  0  0  0  0  0
    2.7553    0.2613   -0.3909 C   0  0  2  0  0  0  0  0  0  0  0  0
    5.3741    0.2552   -1.8675 C   0  0  2  0  0  0  0  0  0  0  0  0
    6.8412    0.2639   -1.9486 N   0  0  0  0  0  0  0  0  0  0  0  0
   -2.6502   -0.0193    0.0338 H   0  0  0  0  0  0  0  0  0  0  0  0
   -1.5574   -0.2651   -2.1887 H   0  0  0  0  0  0  0  0  0  0  0  0
   -1.2458    0.3495    2.0563 H   0  0  0  0  0  0  0  0  0  0  0  0
    0.8952   -0.1406   -2.3887 H   0  0  0  0  0  0  0  0  0  0  0  0
    1.2150    0.4725    1.8521 H   0  0  0  0  0  0  0  0  0  0  0  0
    2.7978    1.3852   -2.2485 H   0  0  0  0  0  0  0  0  0  0  0  0
    2.8058    2.3965   -0.8107 H   0  0  0  0  0  0  0  0  0  0  0  0
    3.0945   -1.8852   -0.3042 H   0  0  0  0  0  0  0  0  0  0  0  0
    2.9747   -1.2477   -1.9377 H   0  0  0  0  0  0  0  0  0  0  0  0
    5.1632    1.7483   -0.3204 H   0  0  0  0  0  0  0  0  0  0  0  0
    5.0441    2.4030   -1.9533 H   0  0  0  0  0  0  0  0  0  0  0  0
    5.3362   -1.8639   -1.4576 H   0  0  0  0  0  0  0  0  0  0  0  0
    5.3353   -0.8507   -0.0162 H   0  0  0  0  0  0  0  0  0  0  0  0
    3.1506    0.4079    0.6257 H   0  0  0  0  0  0  0  0  0  0  0  0
    5.0078    0.1082   -2.8952 H   0  0  0  0  0  0  0  0  0  0  0  0
    7.2257    0.4213   -1.0157 H   0  0  0  0  0  0  0  0  0  0  0  0
    7.1469    1.0595   -2.5095 H   0  0  0  0  0  0  0  0  0  0  0  0
  1 14  1  0  0  0  0
  1  3  2  0  0  0  0
  2  1  1  0  0  0  0
  3 16  1  0  0  0  0
  4  2  2  0  0  0  0
  4 10  1  0  0  0  0
  5  3  1  0  0  0  0
  5 18  1  0  0  0  0
  6 20  1  0  0  0  0
  6 11  1  0  0  0  0
  7 11  1  0  0  0  0
  7 21  1  0  0  0  0
  8  6  1  0  0  0  0
  8 23  1  0  0  0  0
  9  7  1  0  0  0  0
  9 26  1  0  0  0  0
 10  5  2  0  0  0  0
 11 10  1  0  0  0  0
 11 27  1  1  0  0  0
 12 28  1  6  0  0  0
 12  8  1  0  0  0  0
 12  9  1  0  0  0  0
 13 12  1  0  0  0  0
 13 29  1  0  0  0  0
 15  2  1  0  0  0  0
 17  4  1  0  0  0  0
 19  6  1  0  0  0  0
 22  7  1  0  0  0  0
 24  8  1  0  0  0  0
 25  9  1  0  0  0  0
 30 13  1  0  0  0  0
M  END
>  <HBA>
1

>  <HBD>
1

>  <TPSA>
26.02

>  <cid>
29897

>  <dipole>
1.26

>  <excitation_energy_1>
5.299

>  <excitation_energy_2>
5.618

>  <excitation_energy_3>
5.79

>  <excitation_energy_4>
5.855

>  <homo_energy>
-6.207

>  <homo_lumo_gap>
6.308

>  <logP>
3.372

>  <lumo_energy>
0.101

>  <melting_point>
80.66

>  <molecular_refractivity>
56.04

>  <oscillator_strength_1>
0.0016

>  <oscillator_strength_2>
0.0291

>  <oscillator_strength_3>
0.0027

>  <oscillator_strength_4>
0.0135

>  <open_babel_can_smiles>
N[C@@H]1CC[C@H](CC1)c1ccccc1

>  <mulliken_charges>
30
1   -0.131049
2   -0.131097
3   -0.12697
4   -0.184269
5   -0.196459
6   -0.262043
7   -0.264765
8   -0.267057
9   -0.254052
10   0.186556
11   -0.176134
12   0.026166
13   -0.711884
14   0.126353
15   0.126826
16   0.126595
17   0.124129
18   0.121442
19   0.131112
20   0.137936
21   0.138907
22   0.131647
23   0.118133
24   0.122987
25   0.148573
26   0.117851
27   0.119533
28   0.12413
29   0.286282
30   0.290622

>  <lowdin_charges>
30
1   -0.159641
2   -0.156484
3   -0.156129
4   -0.166938
5   -0.17114
6   -0.276355
7   -0.276191
8   -0.296366
9   -0.280003
10   0.002134
11   -0.125041
12   -0.069787
13   -0.548826
14   0.154213
15   0.156693
16   0.155982
17   0.153156
18   0.153532
19   0.139076
20   0.148246
21   0.149174
22   0.139365
23   0.133007
24   0.140367
25   0.15419
26   0.133104
27   0.137311
28   0.133761
29   0.247868
30   0.251723

$$$$

