PCCDB-ID:  16947
public computational chemistry database (PCCDB) project, http://pccdb.org

 30 30  0  0  0  0  0  0  0  0999 V2000
    1.4965    1.1855   -1.0548 C   0  0  0  0  0  0  0  0  0  0  0  0
    7.0598    2.1550    1.2666 C   0  0  0  0  0  0  0  0  0  0  0  0
    7.0510   -3.0029    0.5410 C   0  0  0  0  0  0  0  0  0  0  0  0
    9.3731    0.4724    2.6562 C   0  0  0  0  0  0  0  0  0  0  0  0
    2.6945    1.0044   -1.9749 C   0  0  0  0  0  0  0  0  0  0  0  0
    6.7563    0.7425    0.8555 C   0  0  0  0  0  0  0  0  0  0  0  0
    6.7803   -1.5340    0.5527 C   0  0  0  0  0  0  0  0  0  0  0  0
    8.6628   -0.6996    1.9974 C   0  0  0  0  0  0  0  0  0  0  0  0
    7.4576   -0.4687    1.1812 C   0  0  0  0  0  0  0  0  0  0  0  0
    5.6871    0.3735    0.0457 C   0  0  0  0  0  0  0  0  0  0  0  0
    4.6358    1.1620   -0.5850 C   0  0  0  0  0  0  0  0  0  0  0  0
    5.7339   -1.0055   -0.1146 N   0  0  0  0  0  0  0  0  0  0  0  0
    9.1039   -1.8365    2.1529 O   0  0  0  0  0  0  0  0  0  0  0  0
    4.4993    2.3709   -0.5164 O   0  0  0  0  0  0  0  0  0  0  0  0
    3.7910    0.3519   -1.2935 O   0  0  0  0  0  0  0  0  0  0  0  0
    0.6572    1.6121   -1.6162 H   0  0  0  0  0  0  0  0  0  0  0  0
    1.7424    1.8654   -0.2344 H   0  0  0  0  0  0  0  0  0  0  0  0
    1.1769    0.2257   -0.6355 H   0  0  0  0  0  0  0  0  0  0  0  0
    7.0531    2.2684    2.3569 H   0  0  0  0  0  0  0  0  0  0  0  0
    6.3153    2.8323    0.8470 H   0  0  0  0  0  0  0  0  0  0  0  0
    8.0489    2.4731    0.9168 H   0  0  0  0  0  0  0  0  0  0  0  0
    8.0479   -3.2140    0.1430 H   0  0  0  0  0  0  0  0  0  0  0  0
    6.3050   -3.5291   -0.0658 H   0  0  0  0  0  0  0  0  0  0  0  0
    7.0392   -3.4115    1.5556 H   0  0  0  0  0  0  0  0  0  0  0  0
    9.7075    1.2055    1.9136 H   0  0  0  0  0  0  0  0  0  0  0  0
   10.2381    0.0863    3.1989 H   0  0  0  0  0  0  0  0  0  0  0  0
    8.7116    0.9972    3.3547 H   0  0  0  0  0  0  0  0  0  0  0  0
    3.0448    1.9646   -2.3605 H   0  0  0  0  0  0  0  0  0  0  0  0
    2.4616    0.3408   -2.8118 H   0  0  0  0  0  0  0  0  0  0  0  0
    5.0572   -1.5182   -0.6621 H   0  0  0  0  0  0  0  0  0  0  0  0
  1 18  1  0  0  0  0
  1 17  1  0  0  0  0
  2 19  1  0  0  0  0
  3  7  1  0  0  0  0
  3 24  1  0  0  0  0
  4 26  1  0  0  0  0
  4 27  1  0  0  0  0
  5 15  1  0  0  0  0
  5  1  1  0  0  0  0
  6  9  1  0  0  0  0
  6  2  1  0  0  0  0
  7  9  2  0  0  0  0
  8 13  2  0  0  0  0
  8  4  1  0  0  0  0
  9  8  1  0  0  0  0
 10  6  2  0  0  0  0
 11 14  2  0  0  0  0
 11 10  1  0  0  0  0
 12 10  1  0  0  0  0
 12  7  1  0  0  0  0
 15 11  1  0  0  0  0
 16  1  1  0  0  0  0
 20  2  1  0  0  0  0
 21  2  1  0  0  0  0
 22  3  1  0  0  0  0
 23  3  1  0  0  0  0
 25  4  1  0  0  0  0
 28  5  1  0  0  0  0
 29  5  1  0  0  0  0
 30 12  1  0  0  0  0
M  END
>  <HBA>
3

>  <HBD>
1

>  <TPSA>
59.16

>  <cid>
16947

>  <dipole>
3.12

>  <excitation_energy_1>
4.095

>  <excitation_energy_2>
4.626

>  <excitation_energy_3>
4.989

>  <excitation_energy_4>
5.051

>  <homo_energy>
-6.065

>  <homo_lumo_gap>
5.246

>  <logP>
2.011

>  <lumo_energy>
-0.819

>  <melting_point>
121.45

>  <molecular_refractivity>
57.01

>  <oscillator_strength_1>
0.0002

>  <oscillator_strength_2>
0.1875

>  <oscillator_strength_3>
0.0002

>  <oscillator_strength_4>
0.2581

>  <open_babel_can_smiles>
CCOC(=O)c1[nH]c(c(c1C)C(=O)C)C

>  <mulliken_charges>
30
1   -0.461264
2   -0.554797
3   -0.499621
4   -0.535492
5   -0.038596
6   0.079195
7   0.355963
8   0.399741
9   -0.062294
10   0.206335
11   0.60449
12   -0.687767
13   -0.489613
14   -0.507731
15   -0.511336
16   0.15105
17   0.179051
18   0.15367
19   0.158966
20   0.204132
21   0.159723
22   0.193267
23   0.134268
24   0.19287
25   0.166883
26   0.174699
27   0.167119
28   0.174109
29   0.149538
30   0.343441

>  <lowdin_charges>
30
1   -0.456823
2   -0.448363
3   -0.440094
4   -0.473822
5   -0.128292
6   0.003856
7   0.071354
8   0.161055
9   -0.121386
10   -0.053927
11   0.191211
12   -0.152937
13   -0.27318
14   -0.278813
15   -0.219214
16   0.160079
17   0.167542
18   0.154368
19   0.157909
20   0.184903
21   0.159761
22   0.181749
23   0.150086
24   0.181284
25   0.168385
26   0.171818
27   0.168923
28   0.160869
29   0.151224
30   0.300474

$$$$

