PCCDB-ID:  1340
public computational chemistry database (PCCDB) project, http://pccdb.org

 19 20  0  0  0  0  0  0  0  0999 V2000
    2.4581   -0.6635    0.0384 C   0  0  0  0  0  0  0  0  0  0  0  0
    1.2849   -1.3841    0.0546 C   0  0  0  0  0  0  0  0  0  0  0  0
    2.4377    0.7478    0.0044 C   0  0  0  0  0  0  0  0  0  0  0  0
   -1.2601    1.3697   -0.0189 C   0  0  0  0  0  0  0  0  0  0  0  0
   -2.3964    0.5981   -0.0041 C   0  0  0  0  0  0  0  0  0  0  0  0
   -0.0030    0.7144    0.0024 C   0  0  0  0  0  0  0  0  0  0  0  0
    0.0345   -0.7117    0.0388 C   0  0  0  0  0  0  0  0  0  0  0  0
    1.2350    1.4247   -0.0131 C   0  0  0  0  0  0  0  0  0  0  0  0
   -1.2430   -1.3763    0.0555 C   0  0  0  0  0  0  0  0  0  0  0  0
   -2.3971   -0.7583    0.0334 N   0  0  0  0  0  0  0  0  0  0  0  0
    1.1452    2.7865   -0.0478 O   0  0  0  0  0  0  0  0  0  0  0  0
   -1.3318   -2.7322    0.0959 O   0  0  0  0  0  0  0  0  0  0  0  0
    3.4141   -1.1785    0.0503 H   0  0  0  0  0  0  0  0  0  0  0  0
    1.3437   -2.4697    0.0774 H   0  0  0  0  0  0  0  0  0  0  0  0
    3.3737    1.3030   -0.0086 H   0  0  0  0  0  0  0  0  0  0  0  0
   -1.3122    2.4511   -0.0471 H   0  0  0  0  0  0  0  0  0  0  0  0
   -3.3810    1.0604   -0.0214 H   0  0  0  0  0  0  0  0  0  0  0  0
    2.0391    3.1626   -0.0529 H   0  0  0  0  0  0  0  0  0  0  0  0
   -0.4447   -3.1192    0.1244 H   0  0  0  0  0  0  0  0  0  0  0  0
  1 13  1  0  0  0  0
  1  2  1  0  0  0  0
  2 14  1  0  0  0  0
  3  1  2  0  0  0  0
  4  5  2  0  0  0  0
  4  6  1  0  0  0  0
  5 10  1  0  0  0  0
  6  7  1  0  0  0  0
  7  2  2  0  0  0  0
  7  9  1  0  0  0  0
  8  6  2  0  0  0  0
  8  3  1  0  0  0  0
  9 12  1  0  0  0  0
 10  9  2  0  0  0  0
 11  8  1  0  0  0  0
 12 19  1  0  0  0  0
 15  3  1  0  0  0  0
 16  4  1  0  0  0  0
 17  5  1  0  0  0  0
 18 11  1  0  0  0  0
M  END
>  <HBA>
2

>  <HBD>
2

>  <TPSA>
53.09

>  <cid>
1340

>  <dipole>
5.13

>  <excitation_energy_1>
4.079

>  <excitation_energy_2>
4.368

>  <excitation_energy_3>
4.737

>  <excitation_energy_4>
4.804

>  <homo_energy>
-5.649

>  <homo_lumo_gap>
4.591

>  <logP>
1.234

>  <lumo_energy>
-1.059

>  <melting_point>
171.34

>  <molecular_refractivity>
46.59

>  <oscillator_strength_1>
0.1007

>  <oscillator_strength_2>
0.1186

>  <oscillator_strength_3>
0.0008

>  <oscillator_strength_4>
0.0016

>  <open_babel_can_smiles>
Oc1cccc2c1ccnc2O

>  <mulliken_charges>
19
1   -0.13804
2   -0.217006
3   -0.195485
4   -0.188441
5   0.023507
6   0.101999
7   0.08741
8   0.294458
9   0.422421
10   -0.461231
11   -0.63506
12   -0.596159
13   0.137529
14   0.116384
15   0.123934
16   0.151844
17   0.141699
18   0.412903
19   0.417332

>  <lowdin_charges>
19
1   -0.146417
2   -0.182831
3   -0.213959
4   -0.19108
5   -0.086644
6   -0.004677
7   -0.047081
8   0.10725
9   0.137658
10   -0.163941
11   -0.369021
12   -0.353454
13   0.163096
14   0.148076
15   0.157461
16   0.172396
17   0.158078
18   0.361049
19   0.354039

$$$$

