PCCDB-ID:  26787
public computational chemistry database (PCCDB) project, http://pccdb.org

 28 29  0  0  0  0  0  0  0  0999 V2000
    1.4523   -0.3590   -0.3776 C   0  0  0  0  0  0  0  0  0  0  0  0
    4.1593   -5.0136    0.1788 C   0  0  0  0  0  0  0  0  0  0  0  0
    7.7639    0.2698    0.7718 C   0  0  0  0  0  0  0  0  0  0  0  0
    6.8108    1.2620    0.7129 C   0  0  0  0  0  0  0  0  0  0  0  0
    7.4115   -1.0808    0.5453 C   0  0  0  0  0  0  0  0  0  0  0  0
    3.1325    1.4890    0.1073 C   0  0  0  0  0  0  0  0  0  0  0  0
    4.4163    1.8949    0.3691 C   0  0  0  0  0  0  0  0  0  0  0  0
    2.8601    0.1041   -0.0967 C   0  0  0  0  0  0  0  0  0  0  0  0
    5.4596    0.9341    0.4332 C   0  0  0  0  0  0  0  0  0  0  0  0
    6.1080   -1.4182    0.2637 C   0  0  0  0  0  0  0  0  0  0  0  0
    5.0852   -0.4264    0.2097 C   0  0  0  0  0  0  0  0  0  0  0  0
    5.1680   -3.2326   -0.9772 C   0  0  0  0  0  0  0  0  0  0  0  0
    4.4709   -4.2814   -1.0362 N   0  0  0  0  0  0  0  0  0  0  0  0
    3.8067   -0.8151   -0.0466 N   0  0  0  0  0  0  0  0  0  0  0  0
    5.4618   -2.4963   -2.0722 O   0  0  0  0  0  0  0  0  0  0  0  0
    5.7907   -2.7609    0.1429 O   0  0  0  0  0  0  0  0  0  0  0  0
    1.0402    0.1406   -1.2633 H   0  0  0  0  0  0  0  0  0  0  0  0
    0.7855   -0.1267    0.4626 H   0  0  0  0  0  0  0  0  0  0  0  0
    1.4452   -1.4380   -0.5438 H   0  0  0  0  0  0  0  0  0  0  0  0
    3.1101   -5.3285    0.1434 H   0  0  0  0  0  0  0  0  0  0  0  0
    4.3216   -4.4356    1.0971 H   0  0  0  0  0  0  0  0  0  0  0  0
    4.7679   -5.9260    0.2338 H   0  0  0  0  0  0  0  0  0  0  0  0
    8.7993    0.5174    0.9873 H   0  0  0  0  0  0  0  0  0  0  0  0
    7.0788    2.3016    0.8834 H   0  0  0  0  0  0  0  0  0  0  0  0
    8.1580   -1.8671    0.5893 H   0  0  0  0  0  0  0  0  0  0  0  0
    2.3198    2.2082    0.0544 H   0  0  0  0  0  0  0  0  0  0  0  0
    4.6492    2.9452    0.5291 H   0  0  0  0  0  0  0  0  0  0  0  0
    4.9472   -2.9025   -2.7910 H   0  0  0  0  0  0  0  0  0  0  0  0
  1  8  1  0  0  0  0
  1 18  1  0  0  0  0
  2 22  1  0  0  0  0
  2 21  1  0  0  0  0
  3 23  1  0  0  0  0
  4  3  1  0  0  0  0
  4 24  1  0  0  0  0
  5 25  1  0  0  0  0
  5  3  2  0  0  0  0
  6  7  2  0  0  0  0
  7  9  1  0  0  0  0
  7 27  1  0  0  0  0
  8 14  2  0  0  0  0
  8  6  1  0  0  0  0
  9  4  2  0  0  0  0
 10  5  1  0  0  0  0
 11 10  2  0  0  0  0
 11  9  1  0  0  0  0
 12 16  1  0  0  0  0
 13 12  2  0  0  0  0
 13  2  1  0  0  0  0
 14 11  1  0  0  0  0
 15 12  1  0  0  0  0
 16 10  1  0  0  0  0
 17  1  1  0  0  0  0
 19  1  1  0  0  0  0
 20  2  1  0  0  0  0
 26  6  1  0  0  0  0
 28 15  1  0  0  0  0
M  END
>  <HBA>
4

>  <HBD>
1

>  <TPSA>
51.22

>  <cid>
26787

>  <dipole>
3.08

>  <excitation_energy_1>
4.111

>  <excitation_energy_2>
4.318

>  <excitation_energy_3>
4.415

>  <excitation_energy_4>
4.565

>  <homo_energy>
-6.085

>  <homo_lumo_gap>
4.68

>  <logP>
2.652

>  <lumo_energy>
-1.404

>  <melting_point>
132.34

>  <molecular_refractivity>
61.4

>  <oscillator_strength_1>
0.0584

>  <oscillator_strength_2>
0.0108

>  <oscillator_strength_3>
0.0077

>  <oscillator_strength_4>
0.0013

>  <open_babel_can_smiles>
C/N=C(\Oc1cccc2c1nc(C)cc2)/O

>  <mulliken_charges>
28
1   -0.525729
2   -0.318607
3   -0.141452
4   -0.19128
5   -0.182846
6   -0.177885
7   -0.148871
8   0.322852
9   0.155028
10   0.346772
11   0.238551
12   0.731024
13   -0.482542
14   -0.569813
15   -0.593655
16   -0.537232
17   0.161202
18   0.163512
19   0.183689
20   0.149517
21   0.153068
22   0.149012
23   0.138382
24   0.13214
25   0.147331
26   0.134716
27   0.142471
28   0.420646

>  <lowdin_charges>
28
1   -0.449255
2   -0.350526
3   -0.148287
4   -0.162901
5   -0.169478
6   -0.18474
7   -0.122405
8   0.065662
9   -0.013462
10   0.103918
11   0.027295
12   0.197224
13   -0.258312
14   -0.15506
15   -0.362078
16   -0.151026
17   0.16289
18   0.164212
19   0.172532
20   0.1482
21   0.144637
22   0.148422
23   0.162019
24   0.158615
25   0.17307
26   0.164334
27   0.162141
28   0.372357

$$$$

