PCCDB-ID:  41568
public computational chemistry database (PCCDB) project, http://pccdb.org

 27 26  0  0  1  0  0  0  0  0999 V2000
    1.1167   -0.3349   -0.0764 C   0  0  0  0  0  0  0  0  0  0  0  0
    4.2358    1.1946    3.3304 C   0  0  0  0  0  0  0  0  0  0  0  0
    5.1198   -2.6969   -0.5772 C   0  0  0  0  0  0  0  0  0  0  0  0
    4.4556   -3.2340   -1.8467 C   0  0  0  0  0  0  0  0  0  0  0  0
    4.6428   -1.3047   -0.1821 C   0  0  0  0  0  0  0  0  0  0  0  0
    2.7163    0.3428    1.7467 C   0  0  0  0  0  0  0  0  0  0  0  0
    2.5841   -0.1267    0.2967 C   0  0  1  0  0  0  0  0  0  0  0  0
    4.9556   -4.5785   -2.1582 N   0  0  0  0  0  0  0  0  0  0  0  0
    4.0368    0.7934    1.9918 O   0  0  0  0  0  0  0  0  0  0  0  0
    3.2414   -1.3689    0.0746 O   0  0  0  0  0  0  0  0  0  0  0  0
    0.5499    0.5987    0.0050 H   0  0  0  0  0  0  0  0  0  0  0  0
    0.6555   -1.0815    0.5801 H   0  0  0  0  0  0  0  0  0  0  0  0
    1.0447   -0.7002   -1.1047 H   0  0  0  0  0  0  0  0  0  0  0  0
    5.2731    1.5286    3.4180 H   0  0  0  0  0  0  0  0  0  0  0  0
    4.0653    0.3649    4.0352 H   0  0  0  0  0  0  0  0  0  0  0  0
    3.5678    2.0261    3.6089 H   0  0  0  0  0  0  0  0  0  0  0  0
    6.2100   -2.6521   -0.7197 H   0  0  0  0  0  0  0  0  0  0  0  0
    4.9345   -3.3986    0.2442 H   0  0  0  0  0  0  0  0  0  0  0  0
    4.5984   -2.5004   -2.6638 H   0  0  0  0  0  0  0  0  0  0  0  0
    3.3769   -3.3049   -1.6749 H   0  0  0  0  0  0  0  0  0  0  0  0
    4.8358   -0.5856   -0.9976 H   0  0  0  0  0  0  0  0  0  0  0  0
    5.1818   -0.9468    0.7027 H   0  0  0  0  0  0  0  0  0  0  0  0
    2.4590   -0.4945    2.4168 H   0  0  0  0  0  0  0  0  0  0  0  0
    1.9993    1.1605    1.9398 H   0  0  0  0  0  0  0  0  0  0  0  0
    3.0266    0.6472   -0.3517 H   0  0  0  0  0  0  0  0  0  0  0  0
    5.9358   -4.5225   -2.4346 H   0  0  0  0  0  0  0  0  0  0  0  0
    4.4593   -4.9518   -2.9659 H   0  0  0  0  0  0  0  0  0  0  0  0
  1 11  1  0  0  0  0
  1  7  1  0  0  0  0
  1 12  1  0  0  0  0
  2 14  1  0  0  0  0
  2 16  1  0  0  0  0
  2 15  1  0  0  0  0
  3  5  1  0  0  0  0
  3 18  1  0  0  0  0
  4 20  1  0  0  0  0
  4  3  1  0  0  0  0
  5 10  1  0  0  0  0
  5 22  1  0  0  0  0
  6 24  1  0  0  0  0
  6  9  1  0  0  0  0
  6 23  1  0  0  0  0
  7 25  1  6  0  0  0
  7  6  1  0  0  0  0
  8  4  1  0  0  0  0
  9  2  1  0  0  0  0
 10  7  1  0  0  0  0
 13  1  1  0  0  0  0
 17  3  1  0  0  0  0
 19  4  1  0  0  0  0
 21  5  1  0  0  0  0
 26  8  1  0  0  0  0
 27  8  1  0  0  0  0
M  END
>  <HBA>
3

>  <HBD>
1

>  <TPSA>
44.48

>  <cid>
41568

>  <dipole>
1.7

>  <excitation_energy_1>
5.546

>  <excitation_energy_2>
6.284

>  <excitation_energy_3>
6.292

>  <excitation_energy_4>
6.333

>  <homo_energy>
-6.093

>  <homo_lumo_gap>
8.512

>  <logP>
1.087

>  <lumo_energy>
2.419

>  <melting_point>
9.12

>  <molecular_refractivity>
40.64

>  <oscillator_strength_1>
0.0126

>  <oscillator_strength_2>
0.0017

>  <oscillator_strength_3>
0.008

>  <oscillator_strength_4>
0.0128

>  <open_babel_can_smiles>
COC[C@@H](OCCCN)C

>  <mulliken_charges>
27
1   -0.458454
2   -0.191885
3   -0.267334
4   -0.132867
5   -0.018946
6   -0.009018
7   0.13804
8   -0.716262
9   -0.463956
10   -0.491007
11   0.140929
12   0.154192
13   0.158745
14   0.15825
15   0.133552
16   0.129274
17   0.120804
18   0.157014
19   0.102049
20   0.158186
21   0.109553
22   0.147696
23   0.12694
24   0.112275
25   0.121652
26   0.287549
27   0.29303

>  <lowdin_charges>
27
1   -0.449282
2   -0.279229
3   -0.284767
4   -0.205722
5   -0.13163
6   -0.146537
7   -0.000983
8   -0.558279
9   -0.270442
10   -0.278443
11   0.151426
12   0.156591
13   0.159406
14   0.153996
15   0.134337
16   0.131968
17   0.138267
18   0.156026
19   0.112447
20   0.148575
21   0.122471
22   0.143428
23   0.13399
24   0.12821
25   0.133681
26   0.247161
27   0.253335

$$$$

