PCCDB-ID:  23172
public computational chemistry database (PCCDB) project, http://pccdb.org

 20 21  0  0  0  0  0  0  0  0999 V2000
   -0.8365   -0.9927   -0.2107 C   0  0  0  0  0  0  0  0  0  0  0  0
    0.6685   -1.1112    0.0312 C   0  0  0  0  0  0  0  0  0  0  0  0
    1.8516    1.8220   -2.8090 C   0  0  0  0  0  0  0  0  0  0  0  0
    0.8477    0.9656   -3.5817 C   0  0  0  0  0  0  0  0  0  0  0  0
    0.0679    1.0994   -0.2584 C   0  0  0  0  0  0  0  0  0  0  0  0
   -0.1039    1.7671   -1.6363 C   0  0  0  0  0  0  0  0  0  0  0  0
   -1.0875    0.3770    0.1149 O   0  0  0  0  0  0  0  0  0  0  0  0
    1.1619    0.1941   -0.2793 O   0  0  0  0  0  0  0  0  0  0  0  0
    1.0001    2.5896   -1.9543 O   0  0  0  0  0  0  0  0  0  0  0  0
   -0.2234    0.7830   -2.6528 O   0  0  0  0  0  0  0  0  0  0  0  0
   -1.4406   -1.6137    0.4558 H   0  0  0  0  0  0  0  0  0  0  0  0
   -1.0971   -1.1979   -1.2548 H   0  0  0  0  0  0  0  0  0  0  0  0
    1.1602   -1.8399   -0.6205 H   0  0  0  0  0  0  0  0  0  0  0  0
    0.8929   -1.3551    1.0788 H   0  0  0  0  0  0  0  0  0  0  0  0
    2.4127    2.5178   -3.4381 H   0  0  0  0  0  0  0  0  0  0  0  0
    2.5419    1.2078   -2.2203 H   0  0  0  0  0  0  0  0  0  0  0  0
    1.2391   -0.0154   -3.8678 H   0  0  0  0  0  0  0  0  0  0  0  0
    0.4795    1.4824   -4.4786 H   0  0  0  0  0  0  0  0  0  0  0  0
    0.2364    1.8828    0.4931 H   0  0  0  0  0  0  0  0  0  0  0  0
   -1.0022    2.3991   -1.6111 H   0  0  0  0  0  0  0  0  0  0  0  0
  1  2  1  0  0  0  0
  1  7  1  0  0  0  0
  1 11  1  0  0  0  0
  2 14  1  0  0  0  0
  3 16  1  0  0  0  0
  3  9  1  0  0  0  0
  4  3  1  0  0  0  0
  4 10  1  0  0  0  0
  5  7  1  0  0  0  0
  5 19  1  0  0  0  0
  6 20  1  0  0  0  0
  6  5  1  0  0  0  0
  8  5  1  0  0  0  0
  8  2  1  0  0  0  0
  9  6  1  0  0  0  0
 10  6  1  0  0  0  0
 12  1  1  0  0  0  0
 13  2  1  0  0  0  0
 15  3  1  0  0  0  0
 17  4  1  0  0  0  0
 18  4  1  0  0  0  0
M  END
>  <HBA>
4

>  <HBD>
0

>  <TPSA>
36.92

>  <cid>
23172

>  <dipole>
2.22

>  <excitation_energy_1>
6.071

>  <excitation_energy_2>
6.336

>  <excitation_energy_3>
6.498

>  <excitation_energy_4>
6.599

>  <homo_energy>
-6.354

>  <homo_lumo_gap>
8.768

>  <logP>
-0.268

>  <lumo_energy>
2.414

>  <melting_point>
-17.2

>  <molecular_refractivity>
31.07

>  <oscillator_strength_1>
0.0191

>  <oscillator_strength_2>
0.0259

>  <oscillator_strength_3>
0.0092

>  <oscillator_strength_4>
0.0006

>  <open_babel_can_smiles>
C1COC(O1)C1OCCO1

>  <mulliken_charges>
20
1   -0.059519
2   -0.034663
3   -0.059185
4   -0.034643
5   0.346984
6   0.347972
7   -0.491019
8   -0.504193
9   -0.491187
10   -0.504446
11   0.151103
12   0.16279
13   0.147089
14   0.141758
15   0.15111
16   0.162504
17   0.147168
18   0.141767
19   0.139366
20   0.139245

>  <lowdin_charges>
20
1   -0.145633
2   -0.138515
3   -0.149838
4   -0.139408
5   0.078589
6   0.080642
7   -0.262081
8   -0.271302
9   -0.260515
10   -0.270857
11   0.155762
12   0.147703
13   0.151838
14   0.137589
15   0.155704
16   0.150488
17   0.150236
18   0.139378
19   0.145576
20   0.144644

$$$$

