PCCDB-ID:  12058
public computational chemistry database (PCCDB) project, http://pccdb.org

 22 22  0  0  0  0  0  0  0  0999 V2000
    1.5354   -0.7867    0.2680 C   0  0  0  0  0  0  0  0  0  0  0  0
    3.4556    3.2457    2.7487 C   0  0  0  0  0  0  0  0  0  0  0  0
    2.6038    2.0125    3.0839 C   0  0  0  0  0  0  0  0  0  0  0  0
    3.4481    3.5187    1.2369 C   0  0  0  0  0  0  0  0  0  0  0  0
    3.0351    0.7994    2.2447 C   0  0  0  0  0  0  0  0  0  0  0  0
    3.8569    2.2689    0.4473 C   0  0  0  0  0  0  0  0  0  0  0  0
    2.3698    0.4160   -0.1626 C   0  0  0  0  0  0  0  0  0  0  0  0
    3.0293    1.1195    0.8197 N   0  0  0  0  0  0  0  0  0  0  0  0
    2.4366    0.7344   -1.3463 O   0  0  0  0  0  0  0  0  0  0  0  0
    0.7371   -0.5072    0.9648 H   0  0  0  0  0  0  0  0  0  0  0  0
    2.1463   -1.5586    0.7498 H   0  0  0  0  0  0  0  0  0  0  0  0
    1.0863   -1.2042   -0.6337 H   0  0  0  0  0  0  0  0  0  0  0  0
    4.4900    3.0704    3.0806 H   0  0  0  0  0  0  0  0  0  0  0  0
    3.0935    4.1211    3.3012 H   0  0  0  0  0  0  0  0  0  0  0  0
    1.5463    2.2261    2.8779 H   0  0  0  0  0  0  0  0  0  0  0  0
    2.6836    1.7625    4.1494 H   0  0  0  0  0  0  0  0  0  0  0  0
    4.1294    4.3427    0.9906 H   0  0  0  0  0  0  0  0  0  0  0  0
    2.4423    3.8259    0.9204 H   0  0  0  0  0  0  0  0  0  0  0  0
    2.3790   -0.0497    2.4368 H   0  0  0  0  0  0  0  0  0  0  0  0
    4.0534    0.4958    2.5396 H   0  0  0  0  0  0  0  0  0  0  0  0
    4.9123    2.0290    0.6545 H   0  0  0  0  0  0  0  0  0  0  0  0
    3.7454    2.4103   -0.6276 H   0  0  0  0  0  0  0  0  0  0  0  0
  1 11  1  0  0  0  0
  1 10  1  0  0  0  0
  2 13  1  0  0  0  0
  2  3  1  0  0  0  0
  2 14  1  0  0  0  0
  3 16  1  0  0  0  0
  4  2  1  0  0  0  0
  5 19  1  0  0  0  0
  5 20  1  0  0  0  0
  5  3  1  0  0  0  0
  6 21  1  0  0  0  0
  6  8  1  0  0  0  0
  6  4  1  0  0  0  0
  7  1  1  0  0  0  0
  7  8  1  0  0  0  0
  8  5  1  0  0  0  0
  9  7  2  0  0  0  0
 12  1  1  0  0  0  0
 15  3  1  0  0  0  0
 17  4  1  0  0  0  0
 18  4  1  0  0  0  0
 22  6  1  0  0  0  0
M  END
>  <HBA>
2

>  <HBD>
0

>  <TPSA>
20.31

>  <cid>
12058

>  <dipole>
3.75

>  <excitation_energy_1>
5.535

>  <excitation_energy_2>
5.676

>  <excitation_energy_3>
6.102

>  <excitation_energy_4>
6.143

>  <homo_energy>
-6.24

>  <homo_lumo_gap>
7.165

>  <logP>
0.957

>  <lumo_energy>
0.925

>  <melting_point>
19.38

>  <molecular_refractivity>
40.66

>  <oscillator_strength_1>
0.0036

>  <oscillator_strength_2>
0.038

>  <oscillator_strength_3>
0.0252

>  <oscillator_strength_4>
0.0519

>  <open_babel_can_smiles>
CC(=O)N1CCCCC1

>  <mulliken_charges>
22
1   -0.548509
2   -0.266586
3   -0.256696
4   -0.261867
5   -0.145247
6   -0.14667
7   0.57397
8   -0.40976
9   -0.511163
10   0.165171
11   0.166251
12   0.186449
13   0.130819
14   0.139831
15   0.140084
16   0.136726
17   0.138054
18   0.144379
19   0.156303
20   0.140597
21   0.133946
22   0.193917

>  <lowdin_charges>
22
1   -0.478003
2   -0.280408
3   -0.281237
4   -0.283163
5   -0.197601
6   -0.197791
7   0.156826
8   -0.113477
9   -0.317035
10   0.165033
11   0.166094
12   0.178737
13   0.137873
14   0.148609
15   0.143127
16   0.146635
17   0.149878
18   0.146151
19   0.159836
20   0.137656
21   0.135093
22   0.177168

$$$$

