PCCDB-ID:  11512
public computational chemistry database (PCCDB) project, http://pccdb.org

 26 25  0  0  0  0  0  0  0  0999 V2000
    1.0778    2.1166    1.1881 C   0  0  0  0  0  0  0  0  0  0  0  0
    4.5975   -0.0037    5.6830 C   0  0  0  0  0  0  0  0  0  0  0  0
    5.4113    0.7354    0.7280 C   0  0  0  0  0  0  0  0  0  0  0  0
    2.5442    1.8850    1.5707 C   0  0  0  0  0  0  0  0  0  0  0  0
    4.0550   -0.2825    4.2770 C   0  0  0  0  0  0  0  0  0  0  0  0
    2.9674    0.4174    1.4064 C   0  0  0  0  0  0  0  0  0  0  0  0
    4.8612    0.4225    3.1776 C   0  0  0  0  0  0  0  0  0  0  0  0
    4.4435    0.0854    1.7309 C   0  0  0  0  0  0  0  0  0  0  0  0
    0.7915    3.1673    1.3133 H   0  0  0  0  0  0  0  0  0  0  0  0
    0.4053    1.5120    1.8094 H   0  0  0  0  0  0  0  0  0  0  0  0
    0.8936    1.8436    0.1416 H   0  0  0  0  0  0  0  0  0  0  0  0
    4.0065   -0.5172    6.4501 H   0  0  0  0  0  0  0  0  0  0  0  0
    4.5767    1.0694    5.9104 H   0  0  0  0  0  0  0  0  0  0  0  0
    5.6368   -0.3410    5.7814 H   0  0  0  0  0  0  0  0  0  0  0  0
    5.1458    0.4788   -0.3048 H   0  0  0  0  0  0  0  0  0  0  0  0
    6.4404    0.3991    0.9022 H   0  0  0  0  0  0  0  0  0  0  0  0
    5.4067    1.8289    0.8101 H   0  0  0  0  0  0  0  0  0  0  0  0
    2.6992    2.2040    2.6100 H   0  0  0  0  0  0  0  0  0  0  0  0
    3.1828    2.5317    0.9547 H   0  0  0  0  0  0  0  0  0  0  0  0
    3.0031    0.0285    4.2295 H   0  0  0  0  0  0  0  0  0  0  0  0
    4.0605   -1.3664    4.0915 H   0  0  0  0  0  0  0  0  0  0  0  0
    2.7689    0.1088    0.3693 H   0  0  0  0  0  0  0  0  0  0  0  0
    2.3120   -0.2067    2.0296 H   0  0  0  0  0  0  0  0  0  0  0  0
    5.9213    0.1533    3.2962 H   0  0  0  0  0  0  0  0  0  0  0  0
    4.8146    1.5102    3.3341 H   0  0  0  0  0  0  0  0  0  0  0  0
    4.5435   -1.0054    1.6150 H   0  0  0  0  0  0  0  0  0  0  0  0
  1  9  1  0  0  0  0
  1  4  1  0  0  0  0
  1 10  1  0  0  0  0
  2 14  1  0  0  0  0
  2 13  1  0  0  0  0
  2 12  1  0  0  0  0
  3 17  1  0  0  0  0
  3 16  1  0  0  0  0
  3  8  1  0  0  0  0
  4 18  1  0  0  0  0
  5  2  1  0  0  0  0
  6  4  1  0  0  0  0
  6  8  1  0  0  0  0
  6 23  1  0  0  0  0
  7 24  1  0  0  0  0
  7 25  1  0  0  0  0
  7  5  1  0  0  0  0
  8  7  1  0  0  0  0
 11  1  1  0  0  0  0
 15  3  1  0  0  0  0
 19  4  1  0  0  0  0
 20  5  1  0  0  0  0
 21  5  1  0  0  0  0
 22  6  1  0  0  0  0
 26  8  1  0  0  0  0
M  END
>  <HBA>
0

>  <HBD>
0

>  <TPSA>
0.0

>  <cid>
11512

>  <dipole>
0.05

>  <excitation_energy_1>
7.668

>  <excitation_energy_2>
7.739

>  <excitation_energy_3>
7.77

>  <excitation_energy_4>
8.008

>  <homo_energy>
-8.158

>  <homo_lumo_gap>
10.324

>  <logP>
3.223

>  <lumo_energy>
2.166

>  <melting_point>
-27.89

>  <molecular_refractivity>
40.57

>  <oscillator_strength_1>
0.0084

>  <oscillator_strength_2>
0.0229

>  <oscillator_strength_3>
0.0273

>  <oscillator_strength_4>
0.0224

>  <open_babel_can_smiles>
CCCC(CCC)C

>  <mulliken_charges>
26
1   -0.441434
2   -0.441938
3   -0.449988
4   -0.255072
5   -0.254471
6   -0.253817
7   -0.246427
8   -0.071282
9   0.140303
10   0.140365
11   0.141
12   0.140711
13   0.140837
14   0.140993
15   0.13762
16   0.138736
17   0.142198
18   0.134507
19   0.134218
20   0.135472
21   0.129091
22   0.123097
23   0.129025
24   0.123307
25   0.127259
26   0.11569

>  <lowdin_charges>
26
1   -0.442347
2   -0.442367
3   -0.442335
4   -0.277252
5   -0.271324
6   -0.280057
7   -0.274836
8   -0.121847
9   0.147102
10   0.146884
11   0.144625
12   0.149735
13   0.144395
14   0.144667
15   0.145457
16   0.146366
17   0.143701
18   0.138816
19   0.14187
20   0.138728
21   0.13643
22   0.137359
23   0.140876
24   0.137141
25   0.135273
26   0.132938

$$$$

