PCCDB-ID:  40082
public computational chemistry database (PCCDB) project, http://pccdb.org

 28 28  0  0  0  0  0  0  0  0999 V2000
    5.6279   -1.9923   -2.9796 C   0  0  0  0  0  0  0  0  0  0  0  0
    5.4047   -2.4528   -1.5483 C   0  0  0  0  0  0  0  0  0  0  0  0
    8.2295    3.1945    3.6709 C   0  0  0  0  0  0  0  0  0  0  0  0
    6.9096    3.4413    3.2872 C   0  0  0  0  0  0  0  0  0  0  0  0
    8.8539    2.0400    3.2179 C   0  0  0  0  0  0  0  0  0  0  0  0
    6.2326    2.5689    2.4424 C   0  0  0  0  0  0  0  0  0  0  0  0
    8.1949    1.1218    2.3821 C   0  0  0  0  0  0  0  0  0  0  0  0
    6.8662    1.4100    1.9571 C   0  0  0  0  0  0  0  0  0  0  0  0
    4.9288    0.5732    0.6373 C   0  0  0  0  0  0  0  0  0  0  0  0
    8.8929   -0.1211    1.9405 C   0  0  0  0  0  0  0  0  0  0  0  0
    4.5703   -0.5482   -0.3695 C   0  0  0  0  0  0  0  0  0  0  0  0
    6.2301    0.5339    1.0715 N   0  0  0  0  0  0  0  0  0  0  0  0
    4.0728    1.3767    0.9608 O   0  0  0  0  0  0  0  0  0  0  0  0
    8.5915   -0.7692    0.9546 O   0  0  0  0  0  0  0  0  0  0  0  0
    9.9318   -0.5493    2.6995 O   0  0  0  0  0  0  0  0  0  0  0  0
    3.4720   -0.6495   -0.8557 O   0  0  0  0  0  0  0  0  0  0  0  0
    5.6150   -1.3629   -0.6095 O   0  0  0  0  0  0  0  0  0  0  0  0
    5.5351   -2.8475   -3.6587 H   0  0  0  0  0  0  0  0  0  0  0  0
    6.6285   -1.5650   -3.0992 H   0  0  0  0  0  0  0  0  0  0  0  0
    4.8833   -1.2446   -3.2671 H   0  0  0  0  0  0  0  0  0  0  0  0
    6.1343   -3.2063   -1.2455 H   0  0  0  0  0  0  0  0  0  0  0  0
    4.3931   -2.8388   -1.4028 H   0  0  0  0  0  0  0  0  0  0  0  0
    8.7641    3.8929    4.3069 H   0  0  0  0  0  0  0  0  0  0  0  0
    6.3993    4.3335    3.6391 H   0  0  0  0  0  0  0  0  0  0  0  0
    9.8947    1.8723    3.4853 H   0  0  0  0  0  0  0  0  0  0  0  0
    5.2140    2.7665    2.1415 H   0  0  0  0  0  0  0  0  0  0  0  0
    6.8292   -0.1990    0.6879 H   0  0  0  0  0  0  0  0  0  0  0  0
    9.9580   -0.0606    3.5377 H   0  0  0  0  0  0  0  0  0  0  0  0
  1  2  1  0  0  0  0
  2 22  1  0  0  0  0
  2 21  1  0  0  0  0
  2 17  1  0  0  0  0
  3 23  1  0  0  0  0
  4 24  1  0  0  0  0
  4  3  1  0  0  0  0
  5 25  1  0  0  0  0
  5  3  2  0  0  0  0
  6  4  2  0  0  0  0
  7  5  1  0  0  0  0
  8  7  2  0  0  0  0
  8  6  1  0  0  0  0
  9 13  2  0  0  0  0
  9 12  1  0  0  0  0
 10  7  1  0  0  0  0
 10 15  1  0  0  0  0
 11  9  1  0  0  0  0
 12  8  1  0  0  0  0
 14 10  2  0  0  0  0
 15 28  1  0  0  0  0
 16 11  2  0  0  0  0
 17 11  1  0  0  0  0
 18  1  1  0  0  0  0
 19  1  1  0  0  0  0
 20  1  1  0  0  0  0
 26  6  1  0  0  0  0
 27 12  1  0  0  0  0
M  END
>  <HBA>
6

>  <HBD>
2

>  <TPSA>
92.7

>  <cid>
40082

>  <dipole>
4.25

>  <excitation_energy_1>
4.033

>  <excitation_energy_2>
4.052

>  <excitation_energy_3>
4.54

>  <excitation_energy_4>
4.721

>  <homo_energy>
-6.566

>  <homo_lumo_gap>
4.648

>  <logP>
0.959

>  <lumo_energy>
-1.918

>  <melting_point>
162.04

>  <molecular_refractivity>
58.61

>  <oscillator_strength_1>
0.0008

>  <oscillator_strength_2>
0.1874

>  <oscillator_strength_3>
0.1079

>  <oscillator_strength_4>
0.0105

>  <open_babel_can_smiles>
CCOC(=O)C(=O)Nc1ccccc1C(=O)O

>  <mulliken_charges>
28
1   -0.465877
2   -0.049416
3   -0.123257
4   -0.13654
5   -0.226669
6   -0.16026
7   0.010519
8   0.325391
9   0.559379
10   0.577403
11   0.590893
12   -0.776413
13   -0.476071
14   -0.47786
15   -0.564637
16   -0.44489
17   -0.480142
18   0.156498
19   0.166688
20   0.179313
21   0.168128
22   0.176091
23   0.142735
24   0.150254
25   0.138392
26   0.204262
27   0.420148
28   0.415936

>  <lowdin_charges>
28
1   -0.454899
2   -0.123666
3   -0.167562
4   -0.125934
5   -0.155588
6   -0.173543
7   -0.088108
8   0.08264
9   0.139417
10   0.204276
11   0.166385
12   -0.229579
13   -0.24611
14   -0.260818
15   -0.344485
16   -0.217868
17   -0.186738
18   0.162988
19   0.160528
20   0.167915
21   0.161774
22   0.16143
23   0.166893
24   0.168746
25   0.157915
26   0.195669
27   0.317326
28   0.360996

$$$$

