PCCDB-ID:  42383
public computational chemistry database (PCCDB) project, http://pccdb.org

 20 21  0  0  0  0  0  0  0  0999 V2000
   -1.5526    0.1355   -0.0832 C   0  0  0  0  0  0  0  0  0  0  0  0
   -0.5945    0.6047   -0.9818 C   0  0  0  0  0  0  0  0  0  0  0  0
   -1.1457   -0.5919    1.0393 C   0  0  0  0  0  0  0  0  0  0  0  0
    0.7604    0.3423   -0.7727 C   0  0  0  0  0  0  0  0  0  0  0  0
    0.2041   -0.8517    1.2608 C   0  0  0  0  0  0  0  0  0  0  0  0
    1.1696   -0.4035    0.3455 C   0  0  0  0  0  0  0  0  0  0  0  0
    5.5486   -2.0951   -0.6951 C   0  0  0  0  0  0  0  0  0  0  0  0
    3.3093   -1.2106   -0.2067 C   0  0  0  0  0  0  0  0  0  0  0  0
    6.7756   -2.3512   -0.4980 N   0  0  0  0  0  0  0  0  0  0  0  0
    2.5255   -0.6591    0.6252 N   0  0  0  0  0  0  0  0  0  0  0  0
    4.6496   -1.3923    0.0952 N   0  0  0  0  0  0  0  0  0  0  0  0
    4.7916   -2.7226   -2.1956 S   0  0  0  0  0  0  0  0  0  0  0  0
    2.8864   -1.8381   -1.8514 S   0  0  0  0  0  0  0  0  0  0  0  0
   -2.6060    0.3429   -0.2483 H   0  0  0  0  0  0  0  0  0  0  0  0
   -0.8975    1.1856   -1.8489 H   0  0  0  0  0  0  0  0  0  0  0  0
   -1.8840   -0.9541    1.7498 H   0  0  0  0  0  0  0  0  0  0  0  0
    1.5056    0.7397   -1.4554 H   0  0  0  0  0  0  0  0  0  0  0  0
    0.5313   -1.4073    2.1343 H   0  0  0  0  0  0  0  0  0  0  0  0
    7.1222   -1.9820    0.3900 H   0  0  0  0  0  0  0  0  0  0  0  0
    4.9451   -1.0484    1.0019 H   0  0  0  0  0  0  0  0  0  0  0  0
  1  3  2  0  0  0  0
  2  4  2  0  0  0  0
  2  1  1  0  0  0  0
  3  5  1  0  0  0  0
  3 16  1  0  0  0  0
  4  6  1  0  0  0  0
  5 18  1  0  0  0  0
  6 10  1  0  0  0  0
  6  5  2  0  0  0  0
  7  9  2  0  0  0  0
  7 11  1  0  0  0  0
  8 11  1  0  0  0  0
  8 10  2  0  0  0  0
  9 19  1  0  0  0  0
 11 20  1  0  0  0  0
 12 13  1  0  0  0  0
 12  7  1  0  0  0  0
 13  8  1  0  0  0  0
 14  1  1  0  0  0  0
 15  2  1  0  0  0  0
 17  4  1  0  0  0  0
M  END
>  <HBA>
5

>  <HBD>
1

>  <TPSA>
107.75

>  <cid>
42383

>  <dipole>
2.2

>  <excitation_energy_1>
3.114

>  <excitation_energy_2>
3.687

>  <excitation_energy_3>
4.354

>  <excitation_energy_4>
4.43

>  <homo_energy>
-6.052

>  <homo_lumo_gap>
4.161

>  <logP>
2.6

>  <lumo_energy>
-1.891

>  <melting_point>
132.57

>  <molecular_refractivity>
56.06

>  <oscillator_strength_1>
0.0045

>  <oscillator_strength_2>
0.011

>  <oscillator_strength_3>
0.048

>  <oscillator_strength_4>
0.0111

>  <open_babel_can_smiles>
N=c1ss/c(=N\c2ccccc2)/[nH]1

>  <mulliken_charges>
20
1   -0.125676
2   -0.13929
3   -0.137247
4   -0.157707
5   -0.145167
6   0.242637
7   0.302968
8   0.314486
9   -0.598346
10   -0.528594
11   -0.577646
12   0.123013
13   0.091872
14   0.131341
15   0.13518
16   0.134258
17   0.14873
18   0.135541
19   0.291711
20   0.357935

>  <lowdin_charges>
20
1   -0.162288
2   -0.148913
3   -0.149474
4   -0.183045
5   -0.166296
6   0.046124
7   -0.012029
8   0.005068
9   -0.405397
10   -0.196081
11   -0.236331
12   0.133718
13   0.090927
14   0.157878
15   0.16086
16   0.161406
17   0.168045
18   0.164837
19   0.263675
20   0.307315

$$$$

