PCCDB-ID:  21989
public computational chemistry database (PCCDB) project, http://pccdb.org

 31 32  0  0  1  0  0  0  0  0999 V2000
   -0.0028   -0.6071    2.4211 C   0  0  0  0  0  0  0  0  0  0  0  0
    4.8446   -3.0616   -2.6623 C   0  0  0  0  0  0  0  0  0  0  0  0
   -0.4406   -1.2168    1.2457 C   0  0  0  0  0  0  0  0  0  0  0  0
    1.2424    0.0275    2.4530 C   0  0  0  0  0  0  0  0  0  0  0  0
    4.7254   -1.6034   -3.1319 C   0  0  0  0  0  0  0  0  0  0  0  0
    3.8497   -3.3505   -1.5274 C   0  0  0  0  0  0  0  0  0  0  0  0
    0.3649   -1.1918    0.1048 C   0  0  0  0  0  0  0  0  0  0  0  0
    2.0457    0.0539    1.3144 C   0  0  0  0  0  0  0  0  0  0  0  0
    4.8307   -0.6395   -1.9366 C   0  0  0  0  0  0  0  0  0  0  0  0
    3.9862   -2.3086   -0.4015 C   0  0  0  0  0  0  0  0  0  0  0  0
    2.4359    0.8636   -1.6742 C   0  0  0  0  0  0  0  0  0  0  0  0
    1.6095   -0.5587    0.1331 C   0  0  0  0  0  0  0  0  0  0  0  0
    2.4776   -0.5115   -1.1285 C   0  0  2  0  0  0  0  0  0  0  0  0
    2.3638    1.9378   -2.1085 N   0  0  0  0  0  0  0  0  0  0  0  0
    3.8688   -0.9093   -0.8526 N   0  0  0  0  0  0  0  0  0  0  0  0
   -0.6274   -0.6258    3.3101 H   0  0  0  0  0  0  0  0  0  0  0  0
    5.8671   -3.2373   -2.2961 H   0  0  0  0  0  0  0  0  0  0  0  0
    4.6888   -3.7539   -3.4988 H   0  0  0  0  0  0  0  0  0  0  0  0
   -1.4061   -1.7142    1.2136 H   0  0  0  0  0  0  0  0  0  0  0  0
    1.5865    0.5047    3.3666 H   0  0  0  0  0  0  0  0  0  0  0  0
    3.7665   -1.4534   -3.6481 H   0  0  0  0  0  0  0  0  0  0  0  0
    5.5100   -1.3654   -3.8614 H   0  0  0  0  0  0  0  0  0  0  0  0
    4.0126   -4.3538   -1.1134 H   0  0  0  0  0  0  0  0  0  0  0  0
    2.8242   -3.3428   -1.9236 H   0  0  0  0  0  0  0  0  0  0  0  0
    0.0221   -1.6672   -0.8115 H   0  0  0  0  0  0  0  0  0  0  0  0
    3.0182    0.5363    1.3316 H   0  0  0  0  0  0  0  0  0  0  0  0
    4.7202    0.4000   -2.2580 H   0  0  0  0  0  0  0  0  0  0  0  0
    5.8312   -0.7294   -1.4909 H   0  0  0  0  0  0  0  0  0  0  0  0
    4.9788   -2.4060    0.0594 H   0  0  0  0  0  0  0  0  0  0  0  0
    3.2504   -2.4872    0.3874 H   0  0  0  0  0  0  0  0  0  0  0  0
    1.9868   -1.1441   -1.8913 H   0  0  0  0  0  0  0  0  0  0  0  0
  1  4  1  0  0  0  0
  1 16  1  0  0  0  0
  2 17  1  0  0  0  0
  2  6  1  0  0  0  0
  3  1  2  0  0  0  0
  4 20  1  0  0  0  0
  5  2  1  0  0  0  0
  5  9  1  0  0  0  0
  6 23  1  0  0  0  0
  6 10  1  0  0  0  0
  7 12  2  0  0  0  0
  7  3  1  0  0  0  0
  8 26  1  0  0  0  0
  8  4  2  0  0  0  0
  9 28  1  0  0  0  0
  9 15  1  0  0  0  0
 10 29  1  0  0  0  0
 10 30  1  0  0  0  0
 11 13  1  0  0  0  0
 12  8  1  0  0  0  0
 13 31  1  6  0  0  0
 13 15  1  0  0  0  0
 13 12  1  0  0  0  0
 14 11  3  0  0  0  0
 15 10  1  0  0  0  0
 18  2  1  0  0  0  0
 19  3  1  0  0  0  0
 21  5  1  0  0  0  0
 22  5  1  0  0  0  0
 24  6  1  0  0  0  0
 25  7  1  0  0  0  0
 27  9  1  0  0  0  0
M  END
>  <HBA>
2

>  <HBD>
0

>  <TPSA>
27.03

>  <cid>
21989

>  <dipole>
4.11

>  <excitation_energy_1>
4.512

>  <excitation_energy_2>
4.788

>  <excitation_energy_3>
5.269

>  <excitation_energy_4>
5.281

>  <homo_energy>
-6.0

>  <homo_lumo_gap>
5.491

>  <logP>
2.675

>  <lumo_energy>
-0.509

>  <melting_point>
62.28

>  <molecular_refractivity>
64.7

>  <oscillator_strength_1>
0.0031

>  <oscillator_strength_2>
0.0035

>  <oscillator_strength_3>
0.0083

>  <oscillator_strength_4>
0.01

>  <open_babel_can_smiles>
N#C[C@H](c1ccccc1)N1CCCCC1

>  <mulliken_charges>
31
1   -0.123959
2   -0.258303
3   -0.12966
4   -0.132058
5   -0.268911
6   -0.271965
7   -0.177293
8   -0.14812
9   -0.16272
10   -0.147727
11   0.360197
12   0.130806
13   -0.070069
14   -0.487913
15   -0.396926
16   0.135114
17   0.131221
18   0.136975
19   0.135357
20   0.137371
21   0.136539
22   0.139654
23   0.138002
24   0.132123
25   0.131555
26   0.153905
27   0.17204
28   0.142494
29   0.143598
30   0.157669
31   0.161006

>  <lowdin_charges>
31
1   -0.151857
2   -0.278754
3   -0.151984
4   -0.150939
5   -0.294771
6   -0.292569
7   -0.164092
8   -0.145092
9   -0.210249
10   -0.209257
11   -0.014106
12   -0.011593
13   -0.054564
14   -0.124412
15   -0.182385
16   0.160929
17   0.13825
18   0.146584
19   0.160162
20   0.161702
21   0.14067
22   0.151407
23   0.148948
24   0.137261
25   0.157796
26   0.170428
27   0.162043
28   0.144711
29   0.145379
30   0.157562
31   0.152791

$$$$

