PCCDB-ID:  31050
public computational chemistry database (PCCDB) project, http://pccdb.org

 22 21  0  0  1  0  0  0  0  0999 V2000
    2.8890   -2.4322   -0.4019 C   0  0  0  0  0  0  0  0  0  0  0  0
    1.4988    3.4138   -3.9081 C   0  0  0  0  0  0  0  0  0  0  0  0
    3.0468   -0.9271   -0.1666 C   0  0  0  0  0  0  0  0  0  0  0  0
    2.8586    1.4062   -1.0963 C   0  0  0  0  0  0  0  0  0  0  0  0
    1.4694    2.5416   -2.6742 C   0  0  0  0  0  0  0  0  0  0  0  0
    2.8887   -0.0891   -1.4450 C   0  0  1  0  0  0  0  0  0  0  0  0
    3.9256   -0.4505   -2.4189 N   0  0  0  0  0  0  0  0  0  0  0  0
    0.4698    2.1880   -2.0896 O   0  0  0  0  0  0  0  0  0  0  0  0
    2.7305    2.2163   -2.2900 O   0  0  0  0  0  0  0  0  0  0  0  0
    3.0376   -2.9921    0.5283 H   0  0  0  0  0  0  0  0  0  0  0  0
    3.6108   -2.7857   -1.1431 H   0  0  0  0  0  0  0  0  0  0  0  0
    1.8850   -2.6652   -0.7765 H   0  0  0  0  0  0  0  0  0  0  0  0
    0.4816    3.5641   -4.2709 H   0  0  0  0  0  0  0  0  0  0  0  0
    2.1147    2.9561   -4.6882 H   0  0  0  0  0  0  0  0  0  0  0  0
    1.9478    4.3832   -3.6648 H   0  0  0  0  0  0  0  0  0  0  0  0
    4.0372   -0.7225    0.2694 H   0  0  0  0  0  0  0  0  0  0  0  0
    2.3102   -0.5868    0.5735 H   0  0  0  0  0  0  0  0  0  0  0  0
    3.8081    1.7195   -0.6489 H   0  0  0  0  0  0  0  0  0  0  0  0
    2.0358    1.6421   -0.4168 H   0  0  0  0  0  0  0  0  0  0  0  0
    1.9213   -0.3346   -1.9036 H   0  0  0  0  0  0  0  0  0  0  0  0
    4.8433   -0.2136   -2.0379 H   0  0  0  0  0  0  0  0  0  0  0  0
    3.8146    0.1232   -3.2538 H   0  0  0  0  0  0  0  0  0  0  0  0
  1  3  1  0  0  0  0
  1 10  1  0  0  0  0
  2 15  1  0  0  0  0
  2  5  1  0  0  0  0
  3 16  1  0  0  0  0
  3 17  1  0  0  0  0
  4 18  1  0  0  0  0
  4 19  1  0  0  0  0
  5  9  1  0  0  0  0
  5  8  2  0  0  0  0
  6 20  1  6  0  0  0
  6  4  1  0  0  0  0
  6  3  1  0  0  0  0
  7 21  1  0  0  0  0
  7  6  1  0  0  0  0
  9  4  1  0  0  0  0
 11  1  1  0  0  0  0
 12  1  1  0  0  0  0
 13  2  1  0  0  0  0
 14  2  1  0  0  0  0
 22  7  1  0  0  0  0
M  END
>  <HBA>
3

>  <HBD>
1

>  <TPSA>
52.32

>  <cid>
31050

>  <dipole>
2.29

>  <excitation_energy_1>
5.709

>  <excitation_energy_2>
5.844

>  <excitation_energy_3>
5.998

>  <excitation_energy_4>
6.421

>  <homo_energy>
-6.416

>  <homo_lumo_gap>
6.697

>  <logP>
0.987

>  <lumo_energy>
0.28

>  <melting_point>
40.13

>  <molecular_refractivity>
34.95

>  <oscillator_strength_1>
0.0029

>  <oscillator_strength_2>
0.0245

>  <oscillator_strength_3>
0.0169

>  <oscillator_strength_4>
0.0057

>  <open_babel_can_smiles>
CC[C@@H](COC(=O)C)N

>  <mulliken_charges>
22
1   -0.438066
2   -0.523143
3   -0.256954
4   -0.05259
5   0.599174
6   -0.000542
7   -0.705791
8   -0.463705
9   -0.462937
10   0.13708
11   0.170292
12   0.142951
13   0.184435
14   0.177411
15   0.18431
16   0.122524
17   0.13832
18   0.138235
19   0.16782
20   0.15308
21   0.286007
22   0.30209

>  <lowdin_charges>
22
1   -0.443719
2   -0.465983
3   -0.276112
4   -0.155308
5   0.202108
6   -0.080041
7   -0.546411
8   -0.263428
9   -0.205889
10   0.14757
11   0.162334
12   0.147863
13   0.175941
14   0.176051
15   0.179342
16   0.135523
17   0.14684
18   0.146478
19   0.161649
20   0.149875
21   0.248425
22   0.256892

$$$$

