PCCDB-ID:  20756
public computational chemistry database (PCCDB) project, http://pccdb.org

 20 19  0  0  0  0  0  0  0  0999 V2000
    4.8572    4.5567    1.2902 C   0  0  0  0  0  0  0  0  0  0  0  0
    4.4608   -2.7868   -0.7361 C   0  0  0  0  0  0  0  0  0  0  0  0
    4.1103    3.2922    1.0078 C   0  0  0  0  0  0  0  0  0  0  0  0
    3.6736   -1.5415   -0.3177 C   0  0  0  0  0  0  0  0  0  0  0  0
    4.6569    2.1296    0.6251 C   0  0  0  0  0  0  0  0  0  0  0  0
    4.5736   -0.3351   -0.0511 C   0  0  0  0  0  0  0  0  0  0  0  0
    3.8218    0.9228    0.3692 C   0  0  0  0  0  0  0  0  0  0  0  0
    2.6046    0.9353    0.4892 O   0  0  0  0  0  0  0  0  0  0  0  0
    4.6863    4.8859    2.3243 H   0  0  0  0  0  0  0  0  0  0  0  0
    4.5001    5.3714    0.6458 H   0  0  0  0  0  0  0  0  0  0  0  0
    5.9351    4.4421    1.1379 H   0  0  0  0  0  0  0  0  0  0  0  0
    3.7910   -3.6350   -0.9165 H   0  0  0  0  0  0  0  0  0  0  0  0
    5.1761   -3.0879    0.0397 H   0  0  0  0  0  0  0  0  0  0  0  0
    5.0292   -2.6110   -1.6581 H   0  0  0  0  0  0  0  0  0  0  0  0
    3.0265    3.3143    1.1227 H   0  0  0  0  0  0  0  0  0  0  0  0
    3.0847   -1.7515    0.5829 H   0  0  0  0  0  0  0  0  0  0  0  0
    2.9446   -1.2770   -1.0927 H   0  0  0  0  0  0  0  0  0  0  0  0
    5.7343    2.0375    0.4910 H   0  0  0  0  0  0  0  0  0  0  0  0
    5.1748   -0.0886   -0.9410 H   0  0  0  0  0  0  0  0  0  0  0  0
    5.3131   -0.5631    0.7333 H   0  0  0  0  0  0  0  0  0  0  0  0
  1  9  1  0  0  0  0
  2  4  1  0  0  0  0
  2 13  1  0  0  0  0
  3 15  1  0  0  0  0
  3  1  1  0  0  0  0
  4  6  1  0  0  0  0
  4 16  1  0  0  0  0
  5  3  2  0  0  0  0
  6  7  1  0  0  0  0
  6 20  1  0  0  0  0
  7  8  2  0  0  0  0
  7  5  1  0  0  0  0
 10  1  1  0  0  0  0
 11  1  1  0  0  0  0
 12  2  1  0  0  0  0
 14  2  1  0  0  0  0
 17  4  1  0  0  0  0
 18  5  1  0  0  0  0
 19  6  1  0  0  0  0
M  END
>  <HBA>
1

>  <HBD>
0

>  <TPSA>
17.07

>  <cid>
20756

>  <dipole>
2.7

>  <excitation_energy_1>
3.734

>  <excitation_energy_2>
5.634

>  <excitation_energy_3>
6.246

>  <excitation_energy_4>
6.596

>  <homo_energy>
-6.517

>  <homo_lumo_gap>
5.314

>  <logP>
1.932

>  <lumo_energy>
-1.203

>  <melting_point>
3.95

>  <molecular_refractivity>
35.49

>  <oscillator_strength_1>
0.0

>  <oscillator_strength_2>
0.3755

>  <oscillator_strength_3>
0.0261

>  <oscillator_strength_4>
0.0007

>  <open_babel_can_smiles>
CCCC(=O)/C=C/C

>  <mulliken_charges>
20
1   -0.497856
2   -0.445689
3   -0.054176
4   -0.240448
5   -0.181683
6   -0.361064
7   0.435498
8   -0.473851
9   0.168952
10   0.168692
11   0.159278
12   0.146133
13   0.13912
14   0.139149
15   0.16564
16   0.150494
17   0.149938
18   0.121837
19   0.154625
20   0.155411

>  <lowdin_charges>
20
1   -0.437924
2   -0.446486
3   -0.088152
4   -0.269686
5   -0.22339
6   -0.309079
7   0.154631
8   -0.253654
9   0.165655
10   0.167231
11   0.156293
12   0.152075
13   0.145884
14   0.145115
15   0.169179
16   0.151869
17   0.152074
18   0.150813
19   0.158455
20   0.159098

$$$$

