PCCDB-ID:  10665
public computational chemistry database (PCCDB) project, http://pccdb.org

 17 18  0  0  0  0  0  0  0  0999 V2000
    1.9821    1.0694   -0.0355 C   0  0  0  0  0  0  0  0  0  0  0  0
    2.2383   -0.3072   -0.0500 C   0  0  0  0  0  0  0  0  0  0  0  0
    0.6699    1.5603   -0.0082 C   0  0  0  0  0  0  0  0  0  0  0  0
    1.1907   -1.2378   -0.0377 C   0  0  0  0  0  0  0  0  0  0  0  0
   -0.3607    0.6324    0.0105 C   0  0  0  0  0  0  0  0  0  0  0  0
   -0.1046   -0.7434   -0.0041 C   0  0  0  0  0  0  0  0  0  0  0  0
   -1.8375    0.8510    0.0385 C   0  0  0  0  0  0  0  0  0  0  0  0
   -1.4040   -1.4790    0.0137 C   0  0  0  0  0  0  0  0  0  0  0  0
   -2.3735   -0.4533   -0.0423 N   0  0  0  0  0  0  0  0  0  0  0  0
   -2.4731    1.8786    0.0917 O   0  0  0  0  0  0  0  0  0  0  0  0
   -1.6273   -2.6673    0.0436 O   0  0  0  0  0  0  0  0  0  0  0  0
   -3.7010   -0.7031    0.2323 O   0  0  0  0  0  0  0  0  0  0  0  0
    2.8149    1.7667   -0.0450 H   0  0  0  0  0  0  0  0  0  0  0  0
    3.2662   -0.6579   -0.0705 H   0  0  0  0  0  0  0  0  0  0  0  0
    0.4595    2.6252    0.0028 H   0  0  0  0  0  0  0  0  0  0  0  0
    1.3775   -2.3071   -0.0493 H   0  0  0  0  0  0  0  0  0  0  0  0
   -4.1342   -0.7707   -0.6379 H   0  0  0  0  0  0  0  0  0  0  0  0
  1  3  2  0  0  0  0
  2  4  2  0  0  0  0
  2  1  1  0  0  0  0
  3 15  1  0  0  0  0
  3  5  1  0  0  0  0
  4  6  1  0  0  0  0
  5  7  1  0  0  0  0
  6  5  2  0  0  0  0
  6  8  1  0  0  0  0
  7 10  2  0  0  0  0
  8 11  2  0  0  0  0
  9  8  1  0  0  0  0
  9  7  1  0  0  0  0
  9 12  1  0  0  0  0
 13  1  1  0  0  0  0
 14  2  1  0  0  0  0
 16  4  1  0  0  0  0
 17 12  1  0  0  0  0
M  END
>  <HBA>
4

>  <HBD>
1

>  <TPSA>
57.61

>  <cid>
10665

>  <dipole>
3.67

>  <excitation_energy_1>
3.747

>  <excitation_energy_2>
4.135

>  <excitation_energy_3>
4.435

>  <excitation_energy_4>
4.532

>  <homo_energy>
-7.325

>  <homo_lumo_gap>
4.966

>  <logP>
0.61

>  <lumo_energy>
-2.359

>  <melting_point>
154.56

>  <molecular_refractivity>
42.64

>  <oscillator_strength_1>
0.0001

>  <oscillator_strength_2>
0.0

>  <oscillator_strength_3>
0.0004

>  <oscillator_strength_4>
0.0461

>  <open_babel_can_smiles>
ON1C(=O)c2c(C1=O)cccc2

>  <mulliken_charges>
17
1   -0.126809
2   -0.127031
3   -0.17901
4   -0.179207
5   0.036771
6   0.03741
7   0.577117
8   0.577036
9   -0.31833
10   -0.452221
11   -0.45206
12   -0.465936
13   0.15064
14   0.150658
15   0.169119
16   0.169128
17   0.432725

>  <lowdin_charges>
17
1   -0.138286
2   -0.136111
3   -0.125911
4   -0.125495
5   -0.037581
6   -0.037227
7   0.16717
8   0.162135
9   -0.008812
10   -0.226021
11   -0.223618
12   -0.330442
13   0.169125
14   0.167308
15   0.177619
16   0.177556
17   0.368591

$$$$

