PCCDB-ID:  70764
public computational chemistry database (PCCDB) project, http://pccdb.org

 26 26  0  0  0  0  0  0  0  0999 V2000
    1.3238    1.2734   -0.3829 C   0  0  0  0  0  0  0  0  0  0  0  0
    0.2193    1.5164    0.3285 C   0  0  0  0  0  0  0  0  0  0  0  0
    2.5133    0.5607    0.1986 C   0  0  0  0  0  0  0  0  0  0  0  0
   -1.1425    1.8808   -0.1889 C   0  0  0  0  0  0  0  0  0  0  0  0
    2.3780   -0.9941   -0.0116 C   0  0  0  0  0  0  0  0  0  0  0  0
   -2.2585    0.9090    0.2835 C   0  0  0  0  0  0  0  0  0  0  0  0
    1.0510   -1.4774    0.5034 C   0  0  0  0  0  0  0  0  0  0  0  0
   -2.3628   -0.4926   -0.3659 C   0  0  0  0  0  0  0  0  0  0  0  0
   -0.0374   -1.5377   -0.2691 C   0  0  0  0  0  0  0  0  0  0  0  0
   -1.4686   -1.6430    0.1730 C   0  0  0  0  0  0  0  0  0  0  0  0
    1.3019    1.3990   -1.4674 H   0  0  0  0  0  0  0  0  0  0  0  0
    0.2622    1.3474    1.4077 H   0  0  0  0  0  0  0  0  0  0  0  0
    2.5800    0.7622    1.2754 H   0  0  0  0  0  0  0  0  0  0  0  0
    3.4579    0.8923   -0.2512 H   0  0  0  0  0  0  0  0  0  0  0  0
   -1.1343    1.9357   -1.2859 H   0  0  0  0  0  0  0  0  0  0  0  0
   -1.4223    2.8830    0.1712 H   0  0  0  0  0  0  0  0  0  0  0  0
    3.2228   -1.4877    0.4858 H   0  0  0  0  0  0  0  0  0  0  0  0
    2.4636   -1.2097   -1.0844 H   0  0  0  0  0  0  0  0  0  0  0  0
   -3.2151    1.4156    0.0975 H   0  0  0  0  0  0  0  0  0  0  0  0
   -2.1922    0.7974    1.3760 H   0  0  0  0  0  0  0  0  0  0  0  0
    0.9467   -1.5770    1.5859 H   0  0  0  0  0  0  0  0  0  0  0  0
   -2.2086   -0.4015   -1.4513 H   0  0  0  0  0  0  0  0  0  0  0  0
   -3.4038   -0.8203   -0.2434 H   0  0  0  0  0  0  0  0  0  0  0  0
    0.0943   -1.4004   -1.3456 H   0  0  0  0  0  0  0  0  0  0  0  0
   -1.9050   -2.5838   -0.1966 H   0  0  0  0  0  0  0  0  0  0  0  0
   -1.5296   -1.6808    1.2691 H   0  0  0  0  0  0  0  0  0  0  0  0
  1  3  1  0  0  0  0
  1  2  2  0  0  0  0
  2 12  1  0  0  0  0
  3 13  1  0  0  0  0
  4 16  1  0  0  0  0
  4  6  1  0  0  0  0
  4  2  1  0  0  0  0
  5  3  1  0  0  0  0
  5 17  1  0  0  0  0
  5  7  1  0  0  0  0
  6 20  1  0  0  0  0
  7 21  1  0  0  0  0
  8 23  1  0  0  0  0
  8 10  1  0  0  0  0
  8  6  1  0  0  0  0
  9 10  1  0  0  0  0
  9  7  2  0  0  0  0
 10 26  1  0  0  0  0
 11  1  1  0  0  0  0
 14  3  1  0  0  0  0
 15  4  1  0  0  0  0
 18  5  1  0  0  0  0
 19  6  1  0  0  0  0
 22  8  1  0  0  0  0
 24  9  1  0  0  0  0
 25 10  1  0  0  0  0
M  END
>  <HBA>
0

>  <HBD>
0

>  <TPSA>
0.0

>  <cid>
70764

>  <dipole>
0.47

>  <excitation_energy_1>
5.599

>  <excitation_energy_2>
5.623

>  <excitation_energy_3>
5.709

>  <excitation_energy_4>
5.791

>  <homo_energy>
-5.935

>  <homo_lumo_gap>
6.542

>  <logP>
3.453

>  <lumo_energy>
0.607

>  <melting_point>
12.94

>  <molecular_refractivity>
47.12

>  <oscillator_strength_1>
0.0028

>  <oscillator_strength_2>
0.0283

>  <oscillator_strength_3>
0.0048

>  <oscillator_strength_4>
0.0

>  <open_babel_can_smiles>
C1CC/C=C/CC/C=C/C1

>  <mulliken_charges>
26
1   -0.101603
2   -0.061602
3   -0.304353
4   -0.299142
5   -0.303466
6   -0.257533
7   -0.100937
8   -0.257497
9   -0.06238
10   -0.298931
11   0.109326
12   0.107511
13   0.138319
14   0.135081
15   0.133286
16   0.137903
17   0.135024
18   0.138101
19   0.131745
20   0.130707
21   0.109258
22   0.130866
23   0.131779
24   0.107601
25   0.137723
26   0.133215

>  <lowdin_charges>
26
1   -0.172244
2   -0.15561
3   -0.270735
4   -0.269789
5   -0.271604
6   -0.272365
7   -0.171803
8   -0.271494
9   -0.155871
10   -0.270474
11   0.140313
12   0.138663
13   0.143969
14   0.146487
15   0.14138
16   0.147463
17   0.147285
18   0.14398
19   0.144616
20   0.137792
21   0.140238
22   0.138043
23   0.143517
24   0.138749
25   0.148118
26   0.141378

$$$$

