PCCDB-ID:  22704
public computational chemistry database (PCCDB) project, http://pccdb.org

 18 19  0  0  0  0  0  0  0  0999 V2000
    2.1270    0.7141   -0.1347 C   0  0  0  0  0  0  0  0  0  0  0  0
    0.8914    1.3540   -0.1654 C   0  0  0  0  0  0  0  0  0  0  0  0
    1.0305   -1.4646    0.0940 C   0  0  0  0  0  0  0  0  0  0  0  0
    2.1805   -0.6745   -0.0067 C   0  0  0  0  0  0  0  0  0  0  0  0
   -0.2689    0.5820   -0.0666 C   0  0  0  0  0  0  0  0  0  0  0  0
   -0.1954   -0.8220    0.0631 C   0  0  0  0  0  0  0  0  0  0  0  0
   -2.5866    0.0805    0.0387 C   0  0  0  0  0  0  0  0  0  0  0  0
   -3.8485    0.2107    0.0615 N   0  0  0  0  0  0  0  0  0  0  0  0
   -1.5731    1.0372   -0.0796 N   0  0  0  0  0  0  0  0  0  0  0  0
    3.4875   -1.3348    0.0243 N   0  0  0  0  0  0  0  0  0  0  0  0
    4.4920   -0.6263   -0.0626 O   0  0  0  0  0  0  0  0  0  0  0  0
    3.5067   -2.5619    0.1355 O   0  0  0  0  0  0  0  0  0  0  0  0
   -1.8099   -1.5384    0.1691 S   0  0  0  0  0  0  0  0  0  0  0  0
    3.0513    1.2729   -0.2078 H   0  0  0  0  0  0  0  0  0  0  0  0
    0.8328    2.4337   -0.2645 H   0  0  0  0  0  0  0  0  0  0  0  0
    1.1236   -2.5388    0.1924 H   0  0  0  0  0  0  0  0  0  0  0  0
   -4.1454    1.1854   -0.0232 H   0  0  0  0  0  0  0  0  0  0  0  0
   -1.8059    2.0177   -0.1641 H   0  0  0  0  0  0  0  0  0  0  0  0
  1  4  2  0  0  0  0
  2  1  1  0  0  0  0
  2  5  2  0  0  0  0
  3 16  1  0  0  0  0
  4 10  1  0  0  0  0
  4  3  1  0  0  0  0
  5  6  1  0  0  0  0
  6  3  2  0  0  0  0
  6 13  1  0  0  0  0
  7  8  2  0  0  0  0
  7 13  1  0  0  0  0
  9  5  1  0  0  0  0
  9  7  1  0  0  0  0
 10 12  2  0  0  0  0
 11 10  2  0  0  0  0
 14  1  1  0  0  0  0
 15  2  1  0  0  0  0
 17  8  1  0  0  0  0
 18  9  1  0  0  0  0
M  END
>  <HBA>
3

>  <HBD>
1

>  <TPSA>
112.97

>  <cid>
22704

>  <dipole>
5.71

>  <excitation_energy_1>
3.271

>  <excitation_energy_2>
3.761

>  <excitation_energy_3>
4.108

>  <excitation_energy_4>
4.308

>  <homo_energy>
-6.261

>  <homo_lumo_gap>
3.842

>  <logP>
2.891

>  <lumo_energy>
-2.419

>  <melting_point>
152.34

>  <molecular_refractivity>
52.85

>  <oscillator_strength_1>
0.1279

>  <oscillator_strength_2>
0.0

>  <oscillator_strength_3>
0.0918

>  <oscillator_strength_4>
0.0003

>  <open_babel_can_smiles>
O=N(=O)c1ccc2c(c1)sc(=N)[nH]2

>  <mulliken_charges>
18
1   -0.168341
2   -0.170752
3   -0.213375
4   0.286525
5   0.410249
6   -0.155584
7   0.327211
8   -0.620791
9   -0.701757
10   0.377682
11   -0.401231
12   -0.398064
13   0.26813
14   0.188473
15   0.149122
16   0.197028
17   0.287028
18   0.338448

>  <lowdin_charges>
18
1   -0.132141
2   -0.181112
3   -0.138604
4   -0.009129
5   0.063071
6   -0.145794
7   -0.010515
8   -0.408796
9   -0.232046
10   0.307291
11   -0.252595
12   -0.249571
13   0.278528
14   0.191909
15   0.167997
16   0.194728
17   0.259876
18   0.296902

$$$$

