PCCDB-ID:  40512
public computational chemistry database (PCCDB) project, http://pccdb.org

 35 34  0  0  0  0  0  0  0  0999 V2000
    0.1625   -1.6372    0.5572 C   0  0  0  0  0  0  0  0  0  0  0  0
    1.6154   -1.5683    9.6373 C   0  0  0  0  0  0  0  0  0  0  0  0
    1.4858   -2.0062   -0.1237 C   0  0  0  0  0  0  0  0  0  0  0  0
    2.3978   -0.8092   -0.4369 C   0  0  0  0  0  0  0  0  0  0  0  0
    2.9930   -1.7524    3.8834 C   0  0  0  0  0  0  0  0  0  0  0  0
    3.0218   -1.5366    5.4020 C   0  0  0  0  0  0  0  0  0  0  0  0
    2.9229   -0.0458    0.7870 C   0  0  0  0  0  0  0  0  0  0  0  0
    3.7659   -0.6574    3.1345 C   0  0  0  0  0  0  0  0  0  0  0  0
    2.2470   -2.6242    6.1402 C   0  0  0  0  0  0  0  0  0  0  0  0
    1.4258   -1.6224    8.1393 C   0  0  0  0  0  0  0  0  0  0  0  0
    4.6843   -1.6270    1.0975 N   0  0  0  0  0  0  0  0  0  0  0  0
    3.7666   -0.8527    1.6817 N   0  0  0  0  0  0  0  0  0  0  0  0
    0.5791   -1.0186    7.5167 O   0  0  0  0  0  0  0  0  0  0  0  0
    5.4355   -2.2224    1.8723 O   0  0  0  0  0  0  0  0  0  0  0  0
    2.3308   -2.4571    7.5735 O   0  0  0  0  0  0  0  0  0  0  0  0
   -0.4683   -2.5228    0.6923 H   0  0  0  0  0  0  0  0  0  0  0  0
   -0.4047   -0.9135   -0.0417 H   0  0  0  0  0  0  0  0  0  0  0  0
    0.3163   -1.1962    1.5493 H   0  0  0  0  0  0  0  0  0  0  0  0
    1.4046   -2.5505   10.0742 H   0  0  0  0  0  0  0  0  0  0  0  0
    0.9399   -0.8255   10.0626 H   0  0  0  0  0  0  0  0  0  0  0  0
    2.6528   -1.3194    9.8815 H   0  0  0  0  0  0  0  0  0  0  0  0
    1.2693   -2.5203   -1.0689 H   0  0  0  0  0  0  0  0  0  0  0  0
    2.0336   -2.7287    0.4937 H   0  0  0  0  0  0  0  0  0  0  0  0
    1.8487   -0.0814   -1.0507 H   0  0  0  0  0  0  0  0  0  0  0  0
    3.2514   -1.1456   -1.0326 H   0  0  0  0  0  0  0  0  0  0  0  0
    1.9535   -1.7706    3.5291 H   0  0  0  0  0  0  0  0  0  0  0  0
    3.4392   -2.7202    3.6283 H   0  0  0  0  0  0  0  0  0  0  0  0
    2.5830   -0.5632    5.6528 H   0  0  0  0  0  0  0  0  0  0  0  0
    4.0589   -1.5315    5.7615 H   0  0  0  0  0  0  0  0  0  0  0  0
    2.0885    0.3165    1.3942 H   0  0  0  0  0  0  0  0  0  0  0  0
    3.4855    0.8386    0.4567 H   0  0  0  0  0  0  0  0  0  0  0  0
    4.8114   -0.6564    3.4579 H   0  0  0  0  0  0  0  0  0  0  0  0
    3.3361    0.3291    3.3348 H   0  0  0  0  0  0  0  0  0  0  0  0
    2.6767   -3.6119    5.9522 H   0  0  0  0  0  0  0  0  0  0  0  0
    1.1945   -2.6238    5.8439 H   0  0  0  0  0  0  0  0  0  0  0  0
  1 16  1  0  0  0  0
  1 18  1  0  0  0  0
  2 21  1  0  0  0  0
  2 20  1  0  0  0  0
  2 19  1  0  0  0  0
  3 23  1  0  0  0  0
  3  1  1  0  0  0  0
  4  3  1  0  0  0  0
  4  7  1  0  0  0  0
  5  6  1  0  0  0  0
  6 28  1  0  0  0  0
  6 29  1  0  0  0  0
  6  9  1  0  0  0  0
  7 30  1  0  0  0  0
  7 12  1  0  0  0  0
  8 33  1  0  0  0  0
  8 32  1  0  0  0  0
  8  5  1  0  0  0  0
  9 15  1  0  0  0  0
 10  2  1  0  0  0  0
 11 12  1  0  0  0  0
 11 14  2  0  0  0  0
 12  8  1  0  0  0  0
 13 10  2  0  0  0  0
 15 10  1  0  0  0  0
 17  1  1  0  0  0  0
 22  3  1  0  0  0  0
 24  4  1  0  0  0  0
 25  4  1  0  0  0  0
 26  5  1  0  0  0  0
 27  5  1  0  0  0  0
 31  7  1  0  0  0  0
 34  9  1  0  0  0  0
 35  9  1  0  0  0  0
M  END
>  <HBA>
5

>  <HBD>
0

>  <TPSA>
58.97

>  <cid>
40512

>  <dipole>
2.26

>  <excitation_energy_1>
3.273

>  <excitation_energy_2>
5.585

>  <excitation_energy_3>
5.682

>  <excitation_energy_4>
5.779

>  <homo_energy>
-5.943

>  <homo_lumo_gap>
5.11

>  <logP>
2.113

>  <lumo_energy>
-0.833

>  <melting_point>
4.91

>  <molecular_refractivity>
59.1

>  <oscillator_strength_1>
0.0013

>  <oscillator_strength_2>
0.012

>  <oscillator_strength_3>
0.1213

>  <oscillator_strength_4>
0.0035

>  <open_babel_can_smiles>
CCCCN(CCCCOC(=O)C)N=O

>  <mulliken_charges>
35
1   -0.452052
2   -0.522783
3   -0.253476
4   -0.267711
5   -0.276183
6   -0.285242
7   -0.135319
8   -0.146699
9   -0.043115
10   0.600172
11   0.147662
12   -0.224528
13   -0.471208
14   -0.392531
15   -0.454707
16   0.150112
17   0.14316
18   0.143379
19   0.183871
20   0.182169
21   0.181108
22   0.140361
23   0.149843
24   0.13491
25   0.170708
26   0.14633
27   0.168908
28   0.159084
29   0.151975
30   0.157601
31   0.160643
32   0.181029
33   0.151767
34   0.154667
35   0.166097

>  <lowdin_charges>
35
1   -0.450304
2   -0.46473
3   -0.277908
4   -0.286101
5   -0.280121
6   -0.285843
7   -0.200933
8   -0.211012
9   -0.128046
10   0.201561
11   0.051681
12   -0.046154
13   -0.270009
14   -0.282476
15   -0.199028
16   0.15482
17   0.148353
18   0.142575
19   0.178939
20   0.176642
21   0.176171
22   0.148118
23   0.149193
24   0.148596
25   0.162532
26   0.143934
27   0.158825
28   0.154268
29   0.149929
30   0.1557
31   0.152982
32   0.166425
33   0.152905
34   0.153244
35   0.155271

$$$$

