PCCDB-ID:  19023
public computational chemistry database (PCCDB) project, http://pccdb.org

 22 21  0  0  0  0  0  0  0  0999 V2000
    1.8346    0.2194   -2.3100 C   0  0  0  0  0  0  0  0  0  0  0  0
    4.5439   -3.1657    1.0760 C   0  0  0  0  0  0  0  0  0  0  0  0
    6.8155   -1.5262   -2.2494 C   0  0  0  0  0  0  0  0  0  0  0  0
    2.6568   -0.8300   -2.2877 C   0  0  0  0  0  0  0  0  0  0  0  0
    3.1324   -1.5222   -1.0378 C   0  0  0  0  0  0  0  0  0  0  0  0
    5.1642   -1.8936    0.5353 C   0  0  0  0  0  0  0  0  0  0  0  0
    5.4686   -2.1186   -1.8999 C   0  0  0  0  0  0  0  0  0  0  0  0
    4.6545   -1.3662   -0.8249 C   0  0  0  0  0  0  0  0  0  0  0  0
    6.0700   -1.3187    1.1081 O   0  0  0  0  0  0  0  0  0  0  0  0
    5.0459   -3.1437   -2.4010 O   0  0  0  0  0  0  0  0  0  0  0  0
    1.5217    0.6812   -3.2426 H   0  0  0  0  0  0  0  0  0  0  0  0
    1.4355    0.6548   -1.3956 H   0  0  0  0  0  0  0  0  0  0  0  0
    3.4998   -2.9942    1.3640 H   0  0  0  0  0  0  0  0  0  0  0  0
    5.1077   -3.4995    1.9490 H   0  0  0  0  0  0  0  0  0  0  0  0
    4.5388   -3.9451    0.3050 H   0  0  0  0  0  0  0  0  0  0  0  0
    7.3614   -1.2566   -1.3381 H   0  0  0  0  0  0  0  0  0  0  0  0
    6.6672   -0.5987   -2.8180 H   0  0  0  0  0  0  0  0  0  0  0  0
    7.3932   -2.2300   -2.8520 H   0  0  0  0  0  0  0  0  0  0  0  0
    3.0283   -1.2398   -3.2270 H   0  0  0  0  0  0  0  0  0  0  0  0
    2.8986   -2.5911   -1.1045 H   0  0  0  0  0  0  0  0  0  0  0  0
    2.6019   -1.1152   -0.1685 H   0  0  0  0  0  0  0  0  0  0  0  0
    4.9383   -0.3092   -0.8521 H   0  0  0  0  0  0  0  0  0  0  0  0
  1  4  2  0  0  0  0
  1 12  1  0  0  0  0
  2 13  1  0  0  0  0
  2 14  1  0  0  0  0
  3  7  1  0  0  0  0
  3 16  1  0  0  0  0
  4  5  1  0  0  0  0
  5  8  1  0  0  0  0
  5 21  1  0  0  0  0
  6  2  1  0  0  0  0
  6  9  2  0  0  0  0
  7  8  1  0  0  0  0
  8  6  1  0  0  0  0
 10  7  2  0  0  0  0
 11  1  1  0  0  0  0
 15  2  1  0  0  0  0
 17  3  1  0  0  0  0
 18  3  1  0  0  0  0
 19  4  1  0  0  0  0
 20  5  1  0  0  0  0
 22  8  1  0  0  0  0
M  END
>  <HBA>
2

>  <HBD>
0

>  <TPSA>
34.14

>  <cid>
19023

>  <dipole>
1.13

>  <excitation_energy_1>
4.002

>  <excitation_energy_2>
4.246

>  <excitation_energy_3>
5.036

>  <excitation_energy_4>
5.517

>  <homo_energy>
-6.743

>  <homo_lumo_gap>
5.421

>  <logP>
1.357

>  <lumo_energy>
-1.322

>  <melting_point>
-5.71

>  <molecular_refractivity>
40.5

>  <oscillator_strength_1>
0.0091

>  <oscillator_strength_2>
0.0022

>  <oscillator_strength_3>
0.0066

>  <oscillator_strength_4>
0.0062

>  <open_babel_can_smiles>
C=CCC(C(=O)C)C(=O)C

>  <mulliken_charges>
22
1   -0.340453
2   -0.538369
3   -0.532757
4   -0.05517
5   -0.317905
6   0.442562
7   0.442562
8   -0.242961
9   -0.432326
10   -0.439634
11   0.143739
12   0.137574
13   0.178842
14   0.182162
15   0.191947
16   0.194361
17   0.178776
18   0.17996
19   0.144108
20   0.172332
21   0.143904
22   0.166746

>  <lowdin_charges>
22
1   -0.338714
2   -0.475731
3   -0.475518
4   -0.149336
5   -0.270057
6   0.168674
7   0.168869
8   -0.187933
9   -0.231403
10   -0.235011
11   0.161123
12   0.15516
13   0.175102
14   0.176059
15   0.181145
16   0.182864
17   0.177376
18   0.174716
19   0.158373
20   0.164264
21   0.151773
22   0.168207

$$$$

