PCCDB-ID:  13688
public computational chemistry database (PCCDB) project, http://pccdb.org

 32 33  0  0  0  0  0  0  0  0999 V2000
    1.0131   -0.0234   -1.4212 C   0  0  0  0  0  0  0  0  0  0  0  0
    7.4028    5.8980    1.8971 C   0  0  0  0  0  0  0  0  0  0  0  0
    7.1559    4.5367    2.5666 C   0  0  0  0  0  0  0  0  0  0  0  0
    6.8290    5.9146    0.4709 C   0  0  0  0  0  0  0  0  0  0  0  0
    5.6628    1.3848    0.2557 C   0  0  0  0  0  0  0  0  0  0  0  0
    7.6584    3.3889    1.6693 C   0  0  0  0  0  0  0  0  0  0  0  0
    7.3527    4.7068   -0.3293 C   0  0  0  0  0  0  0  0  0  0  0  0
    5.7332    2.9253    0.1982 C   0  0  0  0  0  0  0  0  0  0  0  0
    3.4695    0.8493   -1.1149 C   0  0  0  0  0  0  0  0  0  0  0  0
    2.2858    0.3037   -0.7182 C   0  0  0  0  0  0  0  0  0  0  0  0
    4.2653    0.8689    0.0716 C   0  0  0  0  0  0  0  0  0  0  0  0
    3.6072    0.3755    1.0984 N   0  0  0  0  0  0  0  0  0  0  0  0
    7.1105    3.4065    0.3058 N   0  0  0  0  0  0  0  0  0  0  0  0
    2.3454    0.0137    0.5999 O   0  0  0  0  0  0  0  0  0  0  0  0
    1.0821    0.2530   -2.4763 H   0  0  0  0  0  0  0  0  0  0  0  0
    0.1685    0.5138   -0.9746 H   0  0  0  0  0  0  0  0  0  0  0  0
    0.7928   -1.0951   -1.3555 H   0  0  0  0  0  0  0  0  0  0  0  0
    8.4866    6.0841    1.8489 H   0  0  0  0  0  0  0  0  0  0  0  0
    6.9729    6.7087    2.4985 H   0  0  0  0  0  0  0  0  0  0  0  0
    6.0824    4.4121    2.7642 H   0  0  0  0  0  0  0  0  0  0  0  0
    7.6596    4.4868    3.5409 H   0  0  0  0  0  0  0  0  0  0  0  0
    7.0991    6.8457   -0.0448 H   0  0  0  0  0  0  0  0  0  0  0  0
    5.7310    5.8833    0.5116 H   0  0  0  0  0  0  0  0  0  0  0  0
    6.0328    1.0217    1.2195 H   0  0  0  0  0  0  0  0  0  0  0  0
    6.3216    0.9799   -0.5213 H   0  0  0  0  0  0  0  0  0  0  0  0
    7.4423    2.4192    2.1299 H   0  0  0  0  0  0  0  0  0  0  0  0
    8.7529    3.4566    1.5829 H   0  0  0  0  0  0  0  0  0  0  0  0
    8.4411    4.8119   -0.4546 H   0  0  0  0  0  0  0  0  0  0  0  0
    6.9189    4.6875   -1.3360 H   0  0  0  0  0  0  0  0  0  0  0  0
    5.0525    3.3385    0.9632 H   0  0  0  0  0  0  0  0  0  0  0  0
    5.3414    3.2569   -0.7709 H   0  0  0  0  0  0  0  0  0  0  0  0
    3.7441    1.1824   -2.1052 H   0  0  0  0  0  0  0  0  0  0  0  0
  1 17  1  0  0  0  0
  1 16  1  0  0  0  0
  1 10  1  0  0  0  0
  2 19  1  0  0  0  0
  2  3  1  0  0  0  0
  3 20  1  0  0  0  0
  3 21  1  0  0  0  0
  4 23  1  0  0  0  0
  4  2  1  0  0  0  0
  5 24  1  0  0  0  0
  6 26  1  0  0  0  0
  6  3  1  0  0  0  0
  7 13  1  0  0  0  0
  7  4  1  0  0  0  0
  8  5  1  0  0  0  0
  8 13  1  0  0  0  0
  8 30  1  0  0  0  0
  9 10  2  0  0  0  0
  9 11  1  0  0  0  0
 10 14  1  0  0  0  0
 11  5  1  0  0  0  0
 11 12  2  0  0  0  0
 13  6  1  0  0  0  0
 14 12  1  0  0  0  0
 15  1  1  0  0  0  0
 18  2  1  0  0  0  0
 22  4  1  0  0  0  0
 25  5  1  0  0  0  0
 27  6  1  0  0  0  0
 28  7  1  0  0  0  0
 29  7  1  0  0  0  0
 31  8  1  0  0  0  0
 32  9  1  0  0  0  0
M  END
>  <HBA>
3

>  <HBD>
0

>  <TPSA>
29.27

>  <cid>
13688

>  <dipole>
2.88

>  <excitation_energy_1>
4.646

>  <excitation_energy_2>
4.902

>  <excitation_energy_3>
5.247

>  <excitation_energy_4>
5.369

>  <homo_energy>
-5.44

>  <homo_lumo_gap>
5.377

>  <logP>
1.949

>  <lumo_energy>
-0.063

>  <melting_point>
47.95

>  <molecular_refractivity>
59.97

>  <oscillator_strength_1>
0.0006

>  <oscillator_strength_2>
0.0161

>  <oscillator_strength_3>
0.0065

>  <oscillator_strength_4>
0.0022

>  <open_babel_can_smiles>
Cc1onc(c1)CCN1CCCCC1

>  <mulliken_charges>
32
1   -0.527412
2   -0.257633
3   -0.266916
4   -0.264101
5   -0.337908
6   -0.148738
7   -0.142438
8   -0.124854
9   -0.299484
10   0.420083
11   0.314371
12   -0.227473
13   -0.376078
14   -0.371039
15   0.170779
16   0.182661
17   0.183465
18   0.127108
19   0.133289
20   0.138514
21   0.131541
22   0.129327
23   0.133777
24   0.167761
25   0.158526
26   0.142374
27   0.135062
28   0.133649
29   0.133201
30   0.134095
31   0.13446
32   0.140032

>  <lowdin_charges>
32
1   -0.440018
2   -0.277615
3   -0.292301
4   -0.293346
5   -0.280092
6   -0.204584
7   -0.201327
8   -0.199531
9   -0.259323
10   0.097434
11   0.020816
12   -0.093931
13   -0.19021
14   -0.084285
15   0.169543
16   0.175454
17   0.173523
18   0.134912
19   0.145071
20   0.14017
21   0.145589
22   0.144718
23   0.137814
24   0.163325
25   0.161572
26   0.146696
27   0.138
28   0.136616
29   0.141491
30   0.128751
31   0.143691
32   0.171379

$$$$

