PCCDB-ID:  21399
public computational chemistry database (PCCDB) project, http://pccdb.org

 26 26  0  0  0  0  0  0  0  0999 V2000
    3.3484   -4.2622   -0.1427 C   0  0  0  0  0  0  0  0  0  0  0  0
    3.3687   -3.2929    1.0298 C   0  0  0  0  0  0  0  0  0  0  0  0
    7.0704    1.7659    0.8481 C   0  0  0  0  0  0  0  0  0  0  0  0
    7.0483    0.4714    1.6748 C   0  0  0  0  0  0  0  0  0  0  0  0
    5.7245    1.9819    0.1395 C   0  0  0  0  0  0  0  0  0  0  0  0
    6.6302   -0.7298    0.8144 C   0  0  0  0  0  0  0  0  0  0  0  0
    5.3340    0.7515   -0.6894 C   0  0  0  0  0  0  0  0  0  0  0  0
    4.2682   -1.2726    0.1622 C   0  0  0  0  0  0  0  0  0  0  0  0
    5.3657   -0.4587    0.1307 N   0  0  0  0  0  0  0  0  0  0  0  0
    3.2179   -1.0502   -0.4227 O   0  0  0  0  0  0  0  0  0  0  0  0
    4.4772   -2.3732    0.9405 O   0  0  0  0  0  0  0  0  0  0  0  0
    2.5468   -4.9978   -0.0064 H   0  0  0  0  0  0  0  0  0  0  0  0
    4.2992   -4.8004   -0.2200 H   0  0  0  0  0  0  0  0  0  0  0  0
    3.1669   -3.7239   -1.0769 H   0  0  0  0  0  0  0  0  0  0  0  0
    3.5295   -3.8155    1.9768 H   0  0  0  0  0  0  0  0  0  0  0  0
    2.4384   -2.7228    1.0846 H   0  0  0  0  0  0  0  0  0  0  0  0
    7.8707    1.7015    0.0956 H   0  0  0  0  0  0  0  0  0  0  0  0
    7.3098    2.6240    1.4878 H   0  0  0  0  0  0  0  0  0  0  0  0
    6.3373    0.5754    2.5054 H   0  0  0  0  0  0  0  0  0  0  0  0
    8.0344    0.2746    2.1140 H   0  0  0  0  0  0  0  0  0  0  0  0
    5.7681    2.8609   -0.5158 H   0  0  0  0  0  0  0  0  0  0  0  0
    4.9397    2.1711    0.8841 H   0  0  0  0  0  0  0  0  0  0  0  0
    6.5185   -1.6289    1.4174 H   0  0  0  0  0  0  0  0  0  0  0  0
    7.4076   -0.9268    0.0580 H   0  0  0  0  0  0  0  0  0  0  0  0
    6.0401    0.6323   -1.5274 H   0  0  0  0  0  0  0  0  0  0  0  0
    4.3303    0.8431   -1.1041 H   0  0  0  0  0  0  0  0  0  0  0  0
  1 12  1  0  0  0  0
  1  2  1  0  0  0  0
  2 16  1  0  0  0  0
  2 15  1  0  0  0  0
  3 18  1  0  0  0  0
  3  4  1  0  0  0  0
  4 20  1  0  0  0  0
  4 19  1  0  0  0  0
  5  3  1  0  0  0  0
  5 22  1  0  0  0  0
  6 23  1  0  0  0  0
  6  4  1  0  0  0  0
  7  9  1  0  0  0  0
  7  5  1  0  0  0  0
  8 11  1  0  0  0  0
  9  8  1  0  0  0  0
  9  6  1  0  0  0  0
 10  8  2  0  0  0  0
 11  2  1  0  0  0  0
 13  1  1  0  0  0  0
 14  1  1  0  0  0  0
 17  3  1  0  0  0  0
 21  5  1  0  0  0  0
 24  6  1  0  0  0  0
 25  7  1  0  0  0  0
 26  7  1  0  0  0  0
M  END
>  <HBA>
3

>  <HBD>
0

>  <TPSA>
29.54

>  <cid>
21399

>  <dipole>
2.32

>  <excitation_energy_1>
5.855

>  <excitation_energy_2>
6.277

>  <excitation_energy_3>
6.301

>  <excitation_energy_4>
6.425

>  <homo_energy>
-6.283

>  <homo_lumo_gap>
7.902

>  <logP>
1.567

>  <lumo_energy>
1.619

>  <melting_point>
20.1

>  <molecular_refractivity>
46.94

>  <oscillator_strength_1>
0.045

>  <oscillator_strength_2>
0.0512

>  <oscillator_strength_3>
0.0324

>  <oscillator_strength_4>
0.0242

>  <open_babel_can_smiles>
CCOC(=O)N1CCCCC1

>  <mulliken_charges>
26
1   -0.460811
2   -0.03148
3   -0.267284
4   -0.259565
5   -0.260528
6   -0.141996
7   -0.143385
8   0.79387
9   -0.455533
10   -0.536602
11   -0.497368
12   0.144922
13   0.151022
14   0.17836
15   0.144428
16   0.169459
17   0.129971
18   0.138878
19   0.141922
20   0.136024
21   0.137082
22   0.143635
23   0.183068
24   0.13635
25   0.135083
26   0.190478

>  <lowdin_charges>
26
1   -0.457295
2   -0.124877
3   -0.282236
4   -0.284032
5   -0.28468
6   -0.199221
7   -0.195555
8   0.20636
9   -0.112464
10   -0.330933
11   -0.217546
12   0.156606
13   0.152751
14   0.166573
15   0.147794
16   0.158653
17   0.139022
18   0.148055
19   0.1461
20   0.147648
21   0.149042
22   0.147275
23   0.17169
24   0.137708
25   0.136777
26   0.176786

$$$$

