PCCDB-ID:  17815
public computational chemistry database (PCCDB) project, http://pccdb.org

 21 22  0  0  0  0  0  0  0  0999 V2000
   -2.4194   -0.7395   -0.0707 C   0  0  0  0  0  0  0  0  0  0  0  0
   -2.4374    0.6703    0.0213 C   0  0  0  0  0  0  0  0  0  0  0  0
   -1.2201   -1.4179   -0.1144 C   0  0  0  0  0  0  0  0  0  0  0  0
   -1.2546    1.3765    0.0471 C   0  0  0  0  0  0  0  0  0  0  0  0
    2.4445   -0.6723   -0.0813 C   0  0  0  0  0  0  0  0  0  0  0  0
    2.4218    0.7413   -0.0609 C   0  0  0  0  0  0  0  0  0  0  0  0
    0.0192   -0.7266   -0.0639 C   0  0  0  0  0  0  0  0  0  0  0  0
   -0.0061    0.7048   -0.0022 C   0  0  0  0  0  0  0  0  0  0  0  0
    1.2794   -1.4142   -0.0774 C   0  0  0  0  0  0  0  0  0  0  0  0
    1.2274    1.4221   -0.0066 C   0  0  0  0  0  0  0  0  0  0  0  0
    1.2999   -2.8235   -0.1462 N   0  0  0  0  0  0  0  0  0  0  0  0
    1.1416    2.7926    0.0423 O   0  0  0  0  0  0  0  0  0  0  0  0
   -3.3550   -1.2903   -0.1179 H   0  0  0  0  0  0  0  0  0  0  0  0
   -3.3868    1.1977    0.0598 H   0  0  0  0  0  0  0  0  0  0  0  0
   -1.2200   -2.4979   -0.2240 H   0  0  0  0  0  0  0  0  0  0  0  0
   -1.2569    2.4596    0.1011 H   0  0  0  0  0  0  0  0  0  0  0  0
    3.4056   -1.1818   -0.0916 H   0  0  0  0  0  0  0  0  0  0  0  0
    3.3627    1.2889   -0.0675 H   0  0  0  0  0  0  0  0  0  0  0  0
    2.2319   -3.2012   -0.0120 H   0  0  0  0  0  0  0  0  0  0  0  0
    0.6639   -3.2676    0.5087 H   0  0  0  0  0  0  0  0  0  0  0  0
    2.0399    3.1568    0.0342 H   0  0  0  0  0  0  0  0  0  0  0  0
  1  2  1  0  0  0  0
  2  4  2  0  0  0  0
  2 14  1  0  0  0  0
  3  1  2  0  0  0  0
  3  7  1  0  0  0  0
  4 16  1  0  0  0  0
  5  9  2  0  0  0  0
  5  6  1  0  0  0  0
  6 10  2  0  0  0  0
  7  8  2  0  0  0  0
  8  4  1  0  0  0  0
  9  7  1  0  0  0  0
 10  8  1  0  0  0  0
 10 12  1  0  0  0  0
 11  9  1  0  0  0  0
 11 19  1  0  0  0  0
 11 20  1  0  0  0  0
 13  1  1  0  0  0  0
 15  3  1  0  0  0  0
 17  5  1  0  0  0  0
 18  6  1  0  0  0  0
 21 12  1  0  0  0  0
M  END
>  <HBA>
2

>  <HBD>
2

>  <TPSA>
46.25

>  <cid>
17815

>  <dipole>
2.12

>  <excitation_energy_1>
3.598

>  <excitation_energy_2>
4.011

>  <excitation_energy_3>
4.26

>  <excitation_energy_4>
4.408

>  <homo_energy>
-4.819

>  <homo_lumo_gap>
4.21

>  <logP>
2.709

>  <lumo_energy>
-0.61

>  <melting_point>
138.78

>  <molecular_refractivity>
50.38

>  <oscillator_strength_1>
0.0835

>  <oscillator_strength_2>
0.0718

>  <oscillator_strength_3>
0.0011

>  <oscillator_strength_4>
0.0027

>  <open_babel_can_smiles>
Oc1ccc(c2c1cccc2)N

>  <mulliken_charges>
21
1   -0.129247
2   -0.135638
3   -0.205667
4   -0.176897
5   -0.194712
6   -0.20606
7   0.10091
8   0.072128
9   0.231051
10   0.286933
11   -0.787199
12   -0.651954
13   0.126063
14   0.127129
15   0.129577
16   0.151617
17   0.113756
18   0.112032
19   0.313979
20   0.315814
21   0.406383

>  <lowdin_charges>
21
1   -0.158214
2   -0.160907
3   -0.161632
4   -0.146297
5   -0.199902
6   -0.216472
7   -0.016257
8   -0.017991
9   0.037106
10   0.085958
11   -0.499481
12   -0.387084
13   0.156923
14   0.15724
15   0.156193
16   0.168074
17   0.15208
18   0.152105
19   0.269438
20   0.272502
21   0.356617

$$$$

