PCCDB-ID:  69002
public computational chemistry database (PCCDB) project, http://pccdb.org

 25 24  0  0  0  0  0  0  0  0999 V2000
    3.1232   -3.4462    1.5007 C   0  0  0  0  0  0  0  0  0  0  0  0
    4.4596    1.2641    1.7950 C   0  0  0  0  0  0  0  0  0  0  0  0
    6.9145   -0.6140    0.6895 C   0  0  0  0  0  0  0  0  0  0  0  0
    6.0592    0.0957   -1.5868 C   0  0  0  0  0  0  0  0  0  0  0  0
    3.8071   -3.3316    0.1473 C   0  0  0  0  0  0  0  0  0  0  0  0
    5.2775    1.2649    0.5158 C   0  0  0  0  0  0  0  0  0  0  0  0
    4.4986   -1.0591   -0.0600 C   0  0  0  0  0  0  0  0  0  0  0  0
    5.6897   -0.1000   -0.1007 C   0  0  0  0  0  0  0  0  0  0  0  0
    5.6478    2.3033    0.0064 O   0  0  0  0  0  0  0  0  0  0  0  0
    3.3536   -0.7129   -0.2747 O   0  0  0  0  0  0  0  0  0  0  0  0
    4.8632   -2.3368    0.1732 O   0  0  0  0  0  0  0  0  0  0  0  0
    2.3844   -4.2554    1.4752 H   0  0  0  0  0  0  0  0  0  0  0  0
    2.6038   -2.5167    1.7499 H   0  0  0  0  0  0  0  0  0  0  0  0
    3.8505   -3.6703    2.2879 H   0  0  0  0  0  0  0  0  0  0  0  0
    4.7236    0.4341    2.4593 H   0  0  0  0  0  0  0  0  0  0  0  0
    3.4025    1.1476    1.5325 H   0  0  0  0  0  0  0  0  0  0  0  0
    4.5971    2.2168    2.3106 H   0  0  0  0  0  0  0  0  0  0  0  0
    7.7221    0.1231    0.6317 H   0  0  0  0  0  0  0  0  0  0  0  0
    7.2721   -1.5563    0.2670 H   0  0  0  0  0  0  0  0  0  0  0  0
    6.6820   -0.7889    1.7450 H   0  0  0  0  0  0  0  0  0  0  0  0
    6.8513    0.8433   -1.6712 H   0  0  0  0  0  0  0  0  0  0  0  0
    5.1960    0.4506   -2.1569 H   0  0  0  0  0  0  0  0  0  0  0  0
    6.4070   -0.8481   -2.0198 H   0  0  0  0  0  0  0  0  0  0  0  0
    3.0947   -3.0648   -0.6367 H   0  0  0  0  0  0  0  0  0  0  0  0
    4.3195   -4.2577   -0.1239 H   0  0  0  0  0  0  0  0  0  0  0  0
  1 13  1  0  0  0  0
  1 14  1  0  0  0  0
  2 17  1  0  0  0  0
  2 15  1  0  0  0  0
  3 20  1  0  0  0  0
  4  8  1  0  0  0  0
  5 11  1  0  0  0  0
  5  1  1  0  0  0  0
  6  2  1  0  0  0  0
  7 11  1  0  0  0  0
  8  7  1  0  0  0  0
  8  6  1  0  0  0  0
  8  3  1  0  0  0  0
  9  6  2  0  0  0  0
 10  7  2  0  0  0  0
 12  1  1  0  0  0  0
 16  2  1  0  0  0  0
 18  3  1  0  0  0  0
 19  3  1  0  0  0  0
 21  4  1  0  0  0  0
 22  4  1  0  0  0  0
 23  4  1  0  0  0  0
 24  5  1  0  0  0  0
 25  5  1  0  0  0  0
M  END
>  <HBA>
3

>  <HBD>
0

>  <TPSA>
43.37

>  <cid>
69002

>  <dipole>
3.77

>  <excitation_energy_1>
4.383

>  <excitation_energy_2>
5.613

>  <excitation_energy_3>
5.769

>  <excitation_energy_4>
6.18

>  <homo_energy>
-6.678

>  <homo_lumo_gap>
6.223

>  <logP>
1.165

>  <lumo_energy>
-0.454

>  <melting_point>
24.63

>  <molecular_refractivity>
41.8

>  <oscillator_strength_1>
0.0003

>  <oscillator_strength_2>
0.0017

>  <oscillator_strength_3>
0.0136

>  <oscillator_strength_4>
0.0019

>  <open_babel_can_smiles>
CCOC(=O)C(C(=O)C)(C)C

>  <mulliken_charges>
25
1   -0.463414
2   -0.543546
3   -0.457703
4   -0.449046
5   -0.047162
6   0.479194
7   0.63555
8   -0.092333
9   -0.440997
10   -0.494074
11   -0.463928
12   0.154555
13   0.175772
14   0.158029
15   0.156975
16   0.205978
17   0.177795
18   0.161888
19   0.171426
20   0.151367
21   0.175989
22   0.17097
23   0.146431
24   0.174357
25   0.155929

>  <lowdin_charges>
25
1   -0.45595
2   -0.479103
3   -0.43781
4   -0.433336
5   -0.128797
6   0.178574
7   0.196229
8   -0.041652
9   -0.227421
10   -0.274469
11   -0.187575
12   0.161711
13   0.165277
14   0.157209
15   0.161458
16   0.189467
17   0.173743
18   0.161077
19   0.165474
20   0.151952
21   0.169247
22   0.165928
23   0.152587
24   0.161789
25   0.154392

$$$$

