PCCDB-ID:  73126
public computational chemistry database (PCCDB) project, http://pccdb.org

 22 22  0  0  1  0  0  0  0  0999 V2000
   -1.9362    0.5110   -0.1886 C   0  0  0  0  0  0  0  0  0  0  0  0
   -0.9388    1.4181   -0.5477 C   0  0  0  0  0  0  0  0  0  0  0  0
   -1.5862   -0.7304    0.3506 C   0  0  0  0  0  0  0  0  0  0  0  0
    0.4060    1.0824   -0.3747 C   0  0  0  0  0  0  0  0  0  0  0  0
   -0.2450   -1.0642    0.5270 C   0  0  0  0  0  0  0  0  0  0  0  0
    0.7654   -0.1600    0.1622 C   0  0  0  0  0  0  0  0  0  0  0  0
    2.2283   -0.5442    0.3077 C   0  0  1  0  0  0  0  0  0  0  0  0
    2.5755   -1.0240    1.7153 C   0  0  1  0  0  0  0  0  0  0  0  0
    2.6708    1.1175    2.4558 N   0  0  0  0  0  0  0  0  0  0  0  0
    2.7857   -0.2807    2.7291 N   0  0  0  0  0  0  0  0  0  0  0  0
    2.5734   -1.6313   -0.5751 O   0  0  0  0  0  0  0  0  0  0  0  0
    2.6194   -2.3696    1.8723 O   0  0  0  0  0  0  0  0  0  0  0  0
   -2.9827    0.7703   -0.3235 H   0  0  0  0  0  0  0  0  0  0  0  0
   -1.2047    2.3857   -0.9647 H   0  0  0  0  0  0  0  0  0  0  0  0
   -2.3600   -1.4366    0.6389 H   0  0  0  0  0  0  0  0  0  0  0  0
    1.1839    1.7891   -0.6546 H   0  0  0  0  0  0  0  0  0  0  0  0
    0.0271   -2.0219    0.9626 H   0  0  0  0  0  0  0  0  0  0  0  0
    2.8565    0.3296    0.0958 H   0  0  0  0  0  0  0  0  0  0  0  0
    2.8897    1.5729    3.3386 H   0  0  0  0  0  0  0  0  0  0  0  0
    1.6938    1.3477    2.2587 H   0  0  0  0  0  0  0  0  0  0  0  0
    1.9846   -1.5908   -1.3440 H   0  0  0  0  0  0  0  0  0  0  0  0
    2.6389   -2.7320    0.9639 H   0  0  0  0  0  0  0  0  0  0  0  0
  1  3  2  0  0  0  0
  2  4  2  0  0  0  0
  2  1  1  0  0  0  0
  3  5  1  0  0  0  0
  3 15  1  0  0  0  0
  4  6  1  0  0  0  0
  5 17  1  0  0  0  0
  6  7  1  0  0  0  0
  6  5  2  0  0  0  0
  7 18  1  6  0  0  0
  7  8  1  0  0  0  0
  8 12  1  1  0  0  0
  8 10  1  0  0  0  0
  9 10  1  0  0  0  0
  9 19  1  0  0  0  0
 11  7  1  0  0  0  0
 13  1  1  0  0  0  0
 14  2  1  0  0  0  0
 16  4  1  0  0  0  0
 20  9  1  0  0  0  0
 21 11  1  0  0  0  0
 22 12  1  0  0  0  0
M  RAD  2   8   2  10   2
M  END
>  <HBA>
4

>  <HBD>
3

>  <TPSA>
75.35

>  <cid>
73126

>  <dipole>
4.95

>  <excitation_energy_1>
4.064

>  <excitation_energy_2>
4.341

>  <excitation_energy_3>
5.062

>  <excitation_energy_4>
5.228

>  <homo_energy>
-5.502

>  <homo_lumo_gap>
4.762

>  <logP>
0.801

>  <lumo_energy>
-0.74

>  <melting_point>
127.92

>  <molecular_refractivity>
43.09

>  <oscillator_strength_1>
0.0257

>  <oscillator_strength_2>
0.0026

>  <oscillator_strength_3>
0.0083

>  <oscillator_strength_4>
0.0041

>  <open_babel_can_smiles>
N[N][C]([C@H](c1ccccc1)O)O

>  <mulliken_charges>
22
1   -0.126268
2   -0.129202
3   -0.128672
4   -0.191166
5   -0.175838
6   0.099523
7   -0.007122
8   0.525328
9   -0.607378
10   -0.358171
11   -0.654304
12   -0.611346
13   0.138979
14   0.139246
15   0.141183
16   0.144859
17   0.152482
18   0.174787
19   0.324658
20   0.309678
21   0.406664
22   0.43208

>  <lowdin_charges>
22
1   -0.148364
2   -0.152966
3   -0.1522
4   -0.167661
5   -0.156819
6   -0.03868
7   -0.028124
8   0.090092
9   -0.467806
10   -0.164675
11   -0.463334
12   -0.368422
13   0.160959
14   0.161943
15   0.164285
16   0.164955
17   0.168012
18   0.165476
19   0.266299
20   0.252171
21   0.354931
22   0.359929

$$$$

