PCCDB-ID:  20359
public computational chemistry database (PCCDB) project, http://pccdb.org

 29 29  0  0  0  0  0  0  0  0999 V2000
    3.0641   -0.7465    1.1064 C   0  0  0  0  0  0  0  0  0  0  0  0
    8.6094    4.4126    0.0016 C   0  0  0  0  0  0  0  0  0  0  0  0
    4.5767   -0.5081    1.0620 C   0  0  0  0  0  0  0  0  0  0  0  0
    4.9510    0.9390    0.7168 C   0  0  0  0  0  0  0  0  0  0  0  0
    6.4640    1.1898    0.6912 C   0  0  0  0  0  0  0  0  0  0  0  0
    6.8185    2.6368    0.3373 C   0  0  0  0  0  0  0  0  0  0  0  0
    9.9032    1.5730    1.3242 C   0  0  0  0  0  0  0  0  0  0  0  0
   10.1856    1.6834   -0.1734 C   0  0  0  0  0  0  0  0  0  0  0  0
    8.3213    2.9390    0.2955 C   0  0  0  0  0  0  0  0  0  0  0  0
    8.9464    2.6038    1.5490 O   0  0  0  0  0  0  0  0  0  0  0  0
    8.9281    2.0997   -0.6907 O   0  0  0  0  0  0  0  0  0  0  0  0
    2.8285   -1.7887    1.3510 H   0  0  0  0  0  0  0  0  0  0  0  0
    2.5982   -0.5185    0.1395 H   0  0  0  0  0  0  0  0  0  0  0  0
    2.5847   -0.1109    1.8612 H   0  0  0  0  0  0  0  0  0  0  0  0
    8.2218    5.0433    0.8078 H   0  0  0  0  0  0  0  0  0  0  0  0
    8.1405    4.7151   -0.9404 H   0  0  0  0  0  0  0  0  0  0  0  0
    9.6883    4.5800   -0.0745 H   0  0  0  0  0  0  0  0  0  0  0  0
    5.0332   -1.1847    0.3255 H   0  0  0  0  0  0  0  0  0  0  0  0
    5.0184   -0.7742    2.0332 H   0  0  0  0  0  0  0  0  0  0  0  0
    4.4801    1.6168    1.4447 H   0  0  0  0  0  0  0  0  0  0  0  0
    4.5210    1.1991   -0.2625 H   0  0  0  0  0  0  0  0  0  0  0  0
    6.9371    0.5174   -0.0354 H   0  0  0  0  0  0  0  0  0  0  0  0
    6.8919    0.9483    1.6734 H   0  0  0  0  0  0  0  0  0  0  0  0
    6.3636    3.3210    1.0656 H   0  0  0  0  0  0  0  0  0  0  0  0
    6.4002    2.8960   -0.6447 H   0  0  0  0  0  0  0  0  0  0  0  0
   10.7802    1.7599    1.9523 H   0  0  0  0  0  0  0  0  0  0  0  0
    9.4822    0.5901    1.5795 H   0  0  0  0  0  0  0  0  0  0  0  0
   10.4569    0.7375   -0.6499 H   0  0  0  0  0  0  0  0  0  0  0  0
   10.9696    2.4274   -0.3807 H   0  0  0  0  0  0  0  0  0  0  0  0
  1 12  1  0  0  0  0
  1 14  1  0  0  0  0
  2  9  1  0  0  0  0
  2 15  1  0  0  0  0
  3  1  1  0  0  0  0
  3 19  1  0  0  0  0
  4  3  1  0  0  0  0
  4 20  1  0  0  0  0
  5  4  1  0  0  0  0
  5 23  1  0  0  0  0
  6  5  1  0  0  0  0
  6 24  1  0  0  0  0
  7 10  1  0  0  0  0
  7 27  1  0  0  0  0
  7 26  1  0  0  0  0
  8  7  1  0  0  0  0
  9  6  1  0  0  0  0
  9 10  1  0  0  0  0
 11  8  1  0  0  0  0
 11  9  1  0  0  0  0
 13  1  1  0  0  0  0
 16  2  1  0  0  0  0
 17  2  1  0  0  0  0
 18  3  1  0  0  0  0
 21  4  1  0  0  0  0
 22  5  1  0  0  0  0
 25  6  1  0  0  0  0
 28  8  1  0  0  0  0
 29  8  1  0  0  0  0
M  END
>  <HBA>
2

>  <HBD>
0

>  <TPSA>
18.46

>  <cid>
20359

>  <dipole>
1.02

>  <excitation_energy_1>
6.397

>  <excitation_energy_2>
6.651

>  <excitation_energy_3>
6.794

>  <excitation_energy_4>
6.843

>  <homo_energy>
-6.708

>  <homo_lumo_gap>
9.075

>  <logP>
2.33

>  <lumo_energy>
2.367

>  <melting_point>
-12.85

>  <molecular_refractivity>
45.47

>  <oscillator_strength_1>
0.0026

>  <oscillator_strength_2>
0.0287

>  <oscillator_strength_3>
0.0035

>  <oscillator_strength_4>
0.0072

>  <open_babel_can_smiles>
CCCCCC1(C)OCCO1

>  <mulliken_charges>
29
1   -0.44121
2   -0.449791
3   -0.246201
4   -0.247765
5   -0.267361
6   -0.268096
7   -0.034978
8   -0.055885
9   0.531503
10   -0.518835
11   -0.505388
12   0.140475
13   0.140748
14   0.140827
15   0.152391
16   0.148437
17   0.145484
18   0.129672
19   0.129375
20   0.125583
21   0.125924
22   0.141091
23   0.141058
24   0.136323
25   0.136989
26   0.144655
27   0.137271
28   0.152277
29   0.135426

>  <lowdin_charges>
29
1   -0.444564
2   -0.456384
3   -0.272862
4   -0.274324
5   -0.279202
6   -0.286514
7   -0.142785
8   -0.145419
9   0.220041
10   -0.278315
11   -0.26597
12   0.147473
13   0.145762
14   0.147108
15   0.16
16   0.156284
17   0.153402
18   0.139834
19   0.138214
20   0.137729
21   0.136353
22   0.146229
23   0.144528
24   0.150795
25   0.149512
26   0.149179
27   0.134843
28   0.15487
29   0.134181

$$$$

