PCCDB-ID:  68067
public computational chemistry database (PCCDB) project, http://pccdb.org

 22 23  0  0  0  0  0  0  0  0999 V2000
    2.4184    0.7300    0.0345 C   0  0  0  0  0  0  0  0  0  0  0  0
   -2.4322    0.6565   -0.0685 C   0  0  0  0  0  0  0  0  0  0  0  0
    1.2132    1.3888   -0.0052 C   0  0  0  0  0  0  0  0  0  0  0  0
   -1.2466    1.3509   -0.0752 C   0  0  0  0  0  0  0  0  0  0  0  0
    2.4585   -0.6768    0.0238 C   0  0  0  0  0  0  0  0  0  0  0  0
   -2.4321   -0.7468    0.0401 C   0  0  0  0  0  0  0  0  0  0  0  0
   -0.0065    0.6607   -0.0156 C   0  0  0  0  0  0  0  0  0  0  0  0
    1.2960   -1.4339    0.0055 C   0  0  0  0  0  0  0  0  0  0  0  0
   -1.2484   -1.4671    0.1097 C   0  0  0  0  0  0  0  0  0  0  0  0
    0.0141   -0.7780    0.0342 C   0  0  0  0  0  0  0  0  0  0  0  0
    1.3938   -2.8411   -0.0041 N   0  0  0  0  0  0  0  0  0  0  0  0
   -1.3053   -2.8725    0.2177 N   0  0  0  0  0  0  0  0  0  0  0  0
    3.3507    1.2885    0.0468 H   0  0  0  0  0  0  0  0  0  0  0  0
   -3.3803    1.1857   -0.1194 H   0  0  0  0  0  0  0  0  0  0  0  0
    1.1715    2.4743   -0.0282 H   0  0  0  0  0  0  0  0  0  0  0  0
   -1.2362    2.4362   -0.1276 H   0  0  0  0  0  0  0  0  0  0  0  0
    3.4188   -1.1884    0.0092 H   0  0  0  0  0  0  0  0  0  0  0  0
   -3.3775   -1.2831    0.0920 H   0  0  0  0  0  0  0  0  0  0  0  0
    2.3365   -3.1545   -0.2105 H   0  0  0  0  0  0  0  0  0  0  0  0
    0.7261   -3.2884   -0.6248 H   0  0  0  0  0  0  0  0  0  0  0  0
   -2.2388   -3.1979    0.4462 H   0  0  0  0  0  0  0  0  0  0  0  0
   -0.6259   -3.2553    0.8682 H   0  0  0  0  0  0  0  0  0  0  0  0
  1 13  1  0  0  0  0
  2  6  1  0  0  0  0
  3  1  1  0  0  0  0
  4  2  2  0  0  0  0
  4  7  1  0  0  0  0
  5  1  2  0  0  0  0
  6 18  1  0  0  0  0
  6  9  2  0  0  0  0
  7  3  2  0  0  0  0
  7 10  1  0  0  0  0
  8  5  1  0  0  0  0
  8 10  2  0  0  0  0
  9 12  1  0  0  0  0
 10  9  1  0  0  0  0
 11  8  1  0  0  0  0
 12 21  1  0  0  0  0
 12 22  1  0  0  0  0
 14  2  1  0  0  0  0
 15  3  1  0  0  0  0
 16  4  1  0  0  0  0
 17  5  1  0  0  0  0
 19 11  1  0  0  0  0
 20 11  1  0  0  0  0
M  END
>  <HBA>
2

>  <HBD>
2

>  <TPSA>
52.04

>  <cid>
68067

>  <dipole>
1.89

>  <excitation_energy_1>
3.887

>  <excitation_energy_2>
4.008

>  <excitation_energy_3>
4.268

>  <excitation_energy_4>
4.686

>  <homo_energy>
-4.77

>  <homo_lumo_gap>
4.373

>  <logP>
3.167

>  <lumo_energy>
-0.397

>  <melting_point>
147.97

>  <molecular_refractivity>
52.76

>  <oscillator_strength_1>
0.117

>  <oscillator_strength_2>
0.0859

>  <oscillator_strength_3>
0.0019

>  <oscillator_strength_4>
0.0004

>  <open_babel_can_smiles>
Nc1cccc2c1c(N)ccc2

>  <mulliken_charges>
22
1   -0.136347
2   -0.136278
3   -0.202357
4   -0.202398
5   -0.187003
6   -0.18703
7   0.11193
8   0.23245
9   0.232399
10   0.086704
11   -0.821277
12   -0.821329
13   0.123917
14   0.123876
15   0.120202
16   0.120224
17   0.109187
18   0.109189
19   0.317765
20   0.344199
21   0.317778
22   0.344199

>  <lowdin_charges>
22
1   -0.149447
2   -0.149237
3   -0.183475
4   -0.183447
5   -0.217025
6   -0.217246
7   0.014905
8   0.058859
9   0.058787
10   -0.049648
11   -0.504376
12   -0.504248
13   0.156511
14   0.15634
15   0.152624
16   0.152627
17   0.149595
18   0.149753
19   0.270093
20   0.283987
21   0.270243
22   0.283826

$$$$

