PCCDB-ID:  36512
public computational chemistry database (PCCDB) project, http://pccdb.org

 38 40  0  0  1  0  0  0  0  0999 V2000
    1.5158    0.1293   -0.6844 C   0  0  0  0  0  0  0  0  0  0  0  0
    3.8304   -2.2954   -0.2046 C   0  0  0  0  0  0  0  0  0  0  0  0
    1.8410   -2.0780    1.3052 C   0  0  0  0  0  0  0  0  0  0  0  0
   -0.5717    2.8252    2.9932 C   0  0  0  0  0  0  0  0  0  0  0  0
    0.0199    1.7019    3.5724 C   0  0  0  0  0  0  0  0  0  0  0  0
    0.0106    3.3985    1.8614 C   0  0  0  0  0  0  0  0  0  0  0  0
    5.5003    0.1553    4.0285 C   0  0  0  0  0  0  0  0  0  0  0  0
    5.5490   -1.2216    3.7866 C   0  0  0  0  0  0  0  0  0  0  0  0
    1.1791    1.1523    3.0217 C   0  0  0  0  0  0  0  0  0  0  0  0
    1.1689    2.8452    1.3152 C   0  0  0  0  0  0  0  0  0  0  0  0
    4.6997    0.9805    3.2360 C   0  0  0  0  0  0  0  0  0  0  0  0
    4.8007   -1.7833    2.7493 C   0  0  0  0  0  0  0  0  0  0  0  0
    2.8140    0.0310    0.1167 C   0  0  1  0  0  0  0  0  0  0  0  0
    1.7675    1.7070    1.8762 C   0  0  0  0  0  0  0  0  0  0  0  0
    3.9550    0.4180    2.1981 C   0  0  0  0  0  0  0  0  0  0  0  0
    4.0038   -0.9586    1.9522 C   0  0  0  0  0  0  0  0  0  0  0  0
    3.0261    1.1289    1.2318 C   0  0  1  0  0  0  0  0  0  0  0  0
    3.1086   -1.3616    0.7854 C   0  0  0  0  0  0  0  0  0  0  0  0
    1.4462    1.0962   -1.1957 H   0  0  0  0  0  0  0  0  0  0  0  0
    0.6286    0.0303   -0.0524 H   0  0  0  0  0  0  0  0  0  0  0  0
    1.4739   -0.6509   -1.4542 H   0  0  0  0  0  0  0  0  0  0  0  0
    3.2081   -2.4803   -1.0891 H   0  0  0  0  0  0  0  0  0  0  0  0
    4.0459   -3.2690    0.2515 H   0  0  0  0  0  0  0  0  0  0  0  0
    4.7798   -1.8630   -0.5401 H   0  0  0  0  0  0  0  0  0  0  0  0
    1.1969   -2.3913    0.4753 H   0  0  0  0  0  0  0  0  0  0  0  0
    1.2501   -1.4396    1.9683 H   0  0  0  0  0  0  0  0  0  0  0  0
    2.1191   -2.9770    1.8677 H   0  0  0  0  0  0  0  0  0  0  0  0
   -1.4709    3.2560    3.4252 H   0  0  0  0  0  0  0  0  0  0  0  0
   -0.4161    1.2542    4.4618 H   0  0  0  0  0  0  0  0  0  0  0  0
   -0.4315    4.2818    1.4077 H   0  0  0  0  0  0  0  0  0  0  0  0
    6.0884    0.5844    4.8357 H   0  0  0  0  0  0  0  0  0  0  0  0
    6.1749   -1.8577    4.4074 H   0  0  0  0  0  0  0  0  0  0  0  0
    1.6429    0.2950    3.4996 H   0  0  0  0  0  0  0  0  0  0  0  0
    1.6215    3.3058    0.4396 H   0  0  0  0  0  0  0  0  0  0  0  0
    4.6559    2.0502    3.4279 H   0  0  0  0  0  0  0  0  0  0  0  0
    4.8457   -2.8547    2.5671 H   0  0  0  0  0  0  0  0  0  0  0  0
    3.6417    0.1921   -0.5876 H   0  0  0  0  0  0  0  0  0  0  0  0
    3.5444    1.9778    0.7669 H   0  0  0  0  0  0  0  0  0  0  0  0
  1 20  1  0  0  0  0
  1 13  1  0  0  0  0
  2 23  1  0  0  0  0
  2 18  1  0  0  0  0
  3 27  1  0  0  0  0
  3 26  1  0  0  0  0
  4 28  1  0  0  0  0
  4  5  2  0  0  0  0
  5 29  1  0  0  0  0
  6  4  1  0  0  0  0
  7 31  1  0  0  0  0
  8  7  1  0  0  0  0
  8 32  1  0  0  0  0
  9 33  1  0  0  0  0
  9  5  1  0  0  0  0
 10  6  2  0  0  0  0
 10 14  1  0  0  0  0
 11 35  1  0  0  0  0
 11  7  2  0  0  0  0
 12  8  2  0  0  0  0
 13 37  1  6  0  0  0
 13 18  1  0  0  0  0
 13 17  1  0  0  0  0
 14  9  2  0  0  0  0
 15 11  1  0  0  0  0
 16 15  2  0  0  0  0
 16 12  1  0  0  0  0
 17 38  1  6  0  0  0
 17 14  1  0  0  0  0
 17 15  1  0  0  0  0
 18  3  1  0  0  0  0
 18 16  1  0  0  0  0
 19  1  1  0  0  0  0
 21  1  1  0  0  0  0
 22  2  1  0  0  0  0
 24  2  1  0  0  0  0
 25  3  1  0  0  0  0
 30  6  1  0  0  0  0
 34 10  1  0  0  0  0
 36 12  1  0  0  0  0
M  END
>  <HBA>
0

>  <HBD>
0

>  <TPSA>
0.0

>  <cid>
36512

>  <dipole>
0.3

>  <excitation_energy_1>
5.122

>  <excitation_energy_2>
5.238

>  <excitation_energy_3>
5.469

>  <excitation_energy_4>
5.533

>  <homo_energy>
-6.234

>  <homo_lumo_gap>
6.161

>  <logP>
4.746

>  <lumo_energy>
-0.073

>  <melting_point>
69.25

>  <molecular_refractivity>
77.86

>  <oscillator_strength_1>
0.0056

>  <oscillator_strength_2>
0.0116

>  <oscillator_strength_3>
0.0241

>  <oscillator_strength_4>
0.0029

>  <open_babel_can_smiles>
C[C@H]1[C@@H](c2ccccc2)c2c(C1(C)C)cccc2

>  <mulliken_charges>
38
1   -0.460353
2   -0.455841
3   -0.455703
4   -0.130494
5   -0.134073
6   -0.128647
7   -0.134475
8   -0.13237
9   -0.18877
10   -0.185288
11   -0.185331
12   -0.200212
13   -0.097742
14   0.182412
15   0.104028
16   0.126982
17   -0.274498
18   0.024755
19   0.141101
20   0.161149
21   0.140518
22   0.142115
23   0.140636
24   0.146519
25   0.142936
26   0.154445
27   0.139986
28   0.126934
29   0.128494
30   0.127259
31   0.125818
32   0.12516
33   0.141679
34   0.121296
35   0.128792
36   0.122975
37   0.129994
38   0.137814

>  <lowdin_charges>
38
1   -0.448408
2   -0.441194
3   -0.447701
4   -0.161842
5   -0.156484
6   -0.156804
7   -0.160626
8   -0.160068
9   -0.170403
10   -0.168741
11   -0.159015
12   -0.165186
13   -0.120537
14   -0.001738
15   -0.015218
16   -0.011537
17   -0.131135
18   0.00902
19   0.150351
20   0.157268
21   0.148813
22   0.148661
23   0.147119
24   0.150189
25   0.149831
26   0.156116
27   0.149633
28   0.156891
29   0.157353
30   0.157011
31   0.157013
32   0.157199
33   0.164128
34   0.15314
35   0.156187
36   0.15269
37   0.144242
38   0.153783

$$$$

