PCCDB-ID:  13645
public computational chemistry database (PCCDB) project, http://pccdb.org

 33 34  0  0  1  0  0  0  0  0999 V2000
    1.1438    0.5523   -0.4871 C   0  0  0  0  0  0  0  0  0  0  0  0
    1.8655    0.5562    1.8735 C   0  0  0  0  0  0  0  0  0  0  0  0
    2.2805   -2.2791    0.6997 C   0  0  0  0  0  0  0  0  0  0  0  0
    4.7628   -0.3371   -3.0852 C   0  0  0  0  0  0  0  0  0  0  0  0
    4.7079    0.6656    1.0047 C   0  0  0  0  0  0  0  0  0  0  0  0
    4.3906   -0.8549    1.0851 C   0  0  0  0  0  0  0  0  0  0  0  0
    3.9799    1.1717   -1.3554 C   0  0  0  0  0  0  0  0  0  0  0  0
    3.4858   -1.2319   -1.2313 C   0  0  0  0  0  0  0  0  0  0  0  0
    3.5761    1.2584    0.1247 C   0  0  1  0  0  0  0  0  0  0  0  0
    2.3628    0.3292    0.4277 C   0  0  0  0  0  0  0  0  0  0  0  0
    3.0887   -1.0563    0.2548 C   0  0  1  0  0  0  0  0  0  0  0  0
    4.4015   -0.1877   -1.6894 N   0  0  0  0  0  0  0  0  0  0  0  0
    0.7423    1.5629   -0.3395 H   0  0  0  0  0  0  0  0  0  0  0  0
    0.3412   -0.1530   -0.2391 H   0  0  0  0  0  0  0  0  0  0  0  0
    1.3572    0.4415   -1.5519 H   0  0  0  0  0  0  0  0  0  0  0  0
    1.5299    1.5941    1.9916 H   0  0  0  0  0  0  0  0  0  0  0  0
    2.6318    0.3709    2.6308 H   0  0  0  0  0  0  0  0  0  0  0  0
    1.0101   -0.0887    2.1045 H   0  0  0  0  0  0  0  0  0  0  0  0
    2.8740   -3.1955    0.5900 H   0  0  0  0  0  0  0  0  0  0  0  0
    1.3691   -2.4064    0.1023 H   0  0  0  0  0  0  0  0  0  0  0  0
    1.9852   -2.2054    1.7514 H   0  0  0  0  0  0  0  0  0  0  0  0
    5.5304    0.3991   -3.3513 H   0  0  0  0  0  0  0  0  0  0  0  0
    3.9081   -0.2010   -3.7789 H   0  0  0  0  0  0  0  0  0  0  0  0
    5.1776   -1.3372   -3.2573 H   0  0  0  0  0  0  0  0  0  0  0  0
    5.6905    0.8516    0.5618 H   0  0  0  0  0  0  0  0  0  0  0  0
    4.7082    1.1253    1.9988 H   0  0  0  0  0  0  0  0  0  0  0  0
    4.2350   -1.1758    2.1217 H   0  0  0  0  0  0  0  0  0  0  0  0
    5.2064   -1.4625    0.6812 H   0  0  0  0  0  0  0  0  0  0  0  0
    4.8348    1.8380   -1.5368 H   0  0  0  0  0  0  0  0  0  0  0  0
    3.1605    1.5355   -2.0051 H   0  0  0  0  0  0  0  0  0  0  0  0
    2.5767   -1.3011   -1.8598 H   0  0  0  0  0  0  0  0  0  0  0  0
    4.0056   -2.1941   -1.3424 H   0  0  0  0  0  0  0  0  0  0  0  0
    3.3571    2.3056    0.3700 H   0  0  0  0  0  0  0  0  0  0  0  0
  1 13  1  0  0  0  0
  1 14  1  0  0  0  0
  1 10  1  0  0  0  0
  2 16  1  0  0  0  0
  2 18  1  0  0  0  0
  2 17  1  0  0  0  0
  3 21  1  0  0  0  0
  4 12  1  0  0  0  0
  5  6  1  0  0  0  0
  5 26  1  0  0  0  0
  6 27  1  0  0  0  0
  7  9  1  0  0  0  0
  8 11  1  0  0  0  0
  9 33  1  1  0  0  0
  9 10  1  0  0  0  0
  9  5  1  0  0  0  0
 10  2  1  0  0  0  0
 11 10  1  0  0  0  0
 11  3  1  1  0  0  0
 11  6  1  0  0  0  0
 12  7  1  0  0  0  0
 12  8  1  0  0  0  0
 15  1  1  0  0  0  0
 19  3  1  0  0  0  0
 20  3  1  0  0  0  0
 22  4  1  0  0  0  0
 23  4  1  0  0  0  0
 24  4  1  0  0  0  0
 25  5  1  0  0  0  0
 28  6  1  0  0  0  0
 29  7  1  0  0  0  0
 30  7  1  0  0  0  0
 31  8  1  0  0  0  0
 32  8  1  0  0  0  0
M  END
>  <HBA>
1

>  <HBD>
0

>  <TPSA>
3.24

>  <cid>
13645

>  <dipole>
0.43

>  <excitation_energy_1>
5.042

>  <excitation_energy_2>
5.41

>  <excitation_energy_3>
5.423

>  <excitation_energy_4>
5.542

>  <homo_energy>
-5.47

>  <homo_lumo_gap>
7.491

>  <logP>
2.312

>  <lumo_energy>
2.022

>  <melting_point>
55.28

>  <molecular_refractivity>
57.05

>  <oscillator_strength_1>
0.0177

>  <oscillator_strength_2>
0.0067

>  <oscillator_strength_3>
0.0037

>  <oscillator_strength_4>
0.0352

>  <open_babel_can_smiles>
CN1C[C@@H]2CC[C@](C1)(C2(C)C)C

>  <mulliken_charges>
33
1   -0.471223
2   -0.467198
3   -0.473588
4   -0.287786
5   -0.269418
6   -0.273547
7   -0.120758
8   -0.120038
9   -0.114168
10   0.104004
11   0.079516
12   -0.395852
13   0.138052
14   0.140151
15   0.14911
16   0.137659
17   0.146658
18   0.141645
19   0.140493
20   0.139956
21   0.145431
22   0.144831
23   0.113932
24   0.144929
25   0.140166
26   0.129512
27   0.126555
28   0.138627
29   0.132242
30   0.110894
31   0.109013
32   0.129371
33   0.11083

>  <lowdin_charges>
33
1   -0.448666
2   -0.446878
3   -0.44319
4   -0.353975
5   -0.282748
6   -0.282712
7   -0.203107
8   -0.201688
9   -0.135716
10   0.002581
11   -0.001243
12   -0.187942
13   0.148187
14   0.149112
15   0.147476
16   0.146687
17   0.152078
18   0.148691
19   0.1494
20   0.147275
21   0.149698
22   0.14896
23   0.118359
24   0.14747
25   0.149301
26   0.139817
27   0.137524
28   0.150333
29   0.141382
30   0.119054
31   0.117508
32   0.139326
33   0.137643

$$$$

