PCCDB-ID:  11611
public computational chemistry database (PCCDB) project, http://pccdb.org

 21 20  0  0  0  0  0  0  0  0999 V2000
    0.5388    0.4815    0.6800 C   0  0  0  0  0  0  0  0  0  0  0  0
    7.0091    4.0504    1.0060 C   0  0  0  0  0  0  0  0  0  0  0  0
    2.0265    0.5000    0.8895 C   0  0  0  0  0  0  0  0  0  0  0  0
    6.4664    2.6387    0.7620 C   0  0  0  0  0  0  0  0  0  0  0  0
    2.9067    1.1502    0.1236 C   0  0  0  0  0  0  0  0  0  0  0  0
    4.9429    2.5984    0.5882 C   0  0  0  0  0  0  0  0  0  0  0  0
    4.3955    1.1799    0.3383 C   0  0  0  0  0  0  0  0  0  0  0  0
    0.1695   -0.5417    0.5255 H   0  0  0  0  0  0  0  0  0  0  0  0
    0.2476    1.0805   -0.1898 H   0  0  0  0  0  0  0  0  0  0  0  0
    0.0069    0.8761    1.5567 H   0  0  0  0  0  0  0  0  0  0  0  0
    8.0987    4.0458    1.1241 H   0  0  0  0  0  0  0  0  0  0  0  0
    6.5775    4.4900    1.9137 H   0  0  0  0  0  0  0  0  0  0  0  0
    6.7676    4.7177    0.1694 H   0  0  0  0  0  0  0  0  0  0  0  0
    2.3975   -0.0749    1.7407 H   0  0  0  0  0  0  0  0  0  0  0  0
    6.7525    1.9865    1.5995 H   0  0  0  0  0  0  0  0  0  0  0  0
    6.9436    2.2120   -0.1319 H   0  0  0  0  0  0  0  0  0  0  0  0
    2.5361    1.7289   -0.7264 H   0  0  0  0  0  0  0  0  0  0  0  0
    4.6550    3.2508   -0.2495 H   0  0  0  0  0  0  0  0  0  0  0  0
    4.4577    3.0171    1.4810 H   0  0  0  0  0  0  0  0  0  0  0  0
    4.9034    0.7626   -0.5457 H   0  0  0  0  0  0  0  0  0  0  0  0
    4.6610    0.5300    1.1831 H   0  0  0  0  0  0  0  0  0  0  0  0
  1  3  1  0  0  0  0
  1 10  1  0  0  0  0
  2 11  1  0  0  0  0
  2 12  1  0  0  0  0
  3 14  1  0  0  0  0
  4  2  1  0  0  0  0
  4 15  1  0  0  0  0
  5  7  1  0  0  0  0
  5  3  2  0  0  0  0
  6  4  1  0  0  0  0
  6 19  1  0  0  0  0
  7  6  1  0  0  0  0
  7 21  1  0  0  0  0
  8  1  1  0  0  0  0
  9  1  1  0  0  0  0
 13  2  1  0  0  0  0
 16  4  1  0  0  0  0
 17  5  1  0  0  0  0
 18  6  1  0  0  0  0
 20  7  1  0  0  0  0
M  END
>  <HBA>
0

>  <HBD>
0

>  <TPSA>
0.0

>  <cid>
11611

>  <dipole>
0.03

>  <excitation_energy_1>
6.134

>  <excitation_energy_2>
6.416

>  <excitation_energy_3>
6.455

>  <excitation_energy_4>
6.701

>  <homo_energy>
-6.373

>  <homo_lumo_gap>
7.312

>  <logP>
2.753

>  <lumo_energy>
0.939

>  <melting_point>
-17.44

>  <molecular_refractivity>
35.29

>  <oscillator_strength_1>
0.0114

>  <oscillator_strength_2>
0.0006

>  <oscillator_strength_3>
0.019

>  <oscillator_strength_4>
0.0164

>  <open_babel_can_smiles>
CCCC/C=C/C

>  <mulliken_charges>
21
1   -0.485762
2   -0.441151
3   -0.092943
4   -0.246789
5   -0.085595
6   -0.245518
7   -0.301235
8   0.152631
9   0.15041
10   0.152459
11   0.141492
12   0.141995
13   0.141192
14   0.115267
15   0.130581
16   0.12991
17   0.111602
18   0.127348
19   0.134496
20   0.136062
21   0.133549

>  <lowdin_charges>
21
1   -0.439641
2   -0.443355
3   -0.168882
4   -0.27399
5   -0.170031
6   -0.275103
7   -0.271705
8   0.154277
9   0.154013
10   0.155627
11   0.147165
12   0.147039
13   0.146846
14   0.145036
15   0.139701
16   0.139153
17   0.14373
18   0.13848
19   0.14197
20   0.145475
21   0.144196

$$$$

