PCCDB-ID:  22385
public computational chemistry database (PCCDB) project, http://pccdb.org

 30 30  0  0  1  0  0  0  0  0999 V2000
    3.0780    0.3485    4.8270 C   0  0  0  0  0  0  0  0  0  0  0  0
    7.0406    3.2201    3.6474 C   0  0  0  0  0  0  0  0  0  0  0  0
    4.4252   -0.3845    4.8317 C   0  0  0  0  0  0  0  0  0  0  0  0
    5.6461    0.5130    4.5634 C   0  0  0  0  0  0  0  0  0  0  0  0
   10.5256   -0.5275    2.7099 C   0  0  0  0  0  0  0  0  0  0  0  0
   10.2295    0.2201    3.8493 C   0  0  0  0  0  0  0  0  0  0  0  0
    9.6716   -0.4598    1.6073 C   0  0  0  0  0  0  0  0  0  0  0  0
    5.6899    1.0970    3.1443 C   0  0  0  0  0  0  0  0  0  0  0  0
    9.0891    1.0264    3.8884 C   0  0  0  0  0  0  0  0  0  0  0  0
    8.5358    0.3476    1.6523 C   0  0  0  0  0  0  0  0  0  0  0  0
    6.9459    1.9444    2.7942 C   0  0  2  0  0  0  0  0  0  0  0  0
    8.2190    1.1034    2.7919 C   0  0  0  0  0  0  0  0  0  0  0  0
    2.2575   -0.3355    5.0729 H   0  0  0  0  0  0  0  0  0  0  0  0
    2.8539    0.7901    3.8496 H   0  0  0  0  0  0  0  0  0  0  0  0
    3.0677    1.1587    5.5672 H   0  0  0  0  0  0  0  0  0  0  0  0
    6.1291    3.8182    3.5324 H   0  0  0  0  0  0  0  0  0  0  0  0
    7.8920    3.8370    3.3395 H   0  0  0  0  0  0  0  0  0  0  0  0
    7.1547    3.0056    4.7149 H   0  0  0  0  0  0  0  0  0  0  0  0
    4.4028   -1.1954    4.0894 H   0  0  0  0  0  0  0  0  0  0  0  0
    4.5591   -0.8712    5.8072 H   0  0  0  0  0  0  0  0  0  0  0  0
    6.5573   -0.0743    4.7342 H   0  0  0  0  0  0  0  0  0  0  0  0
    5.6576    1.3244    5.3049 H   0  0  0  0  0  0  0  0  0  0  0  0
   11.4143   -1.1523    2.6786 H   0  0  0  0  0  0  0  0  0  0  0  0
   10.8881    0.1803    4.7133 H   0  0  0  0  0  0  0  0  0  0  0  0
    9.8934   -1.0305    0.7089 H   0  0  0  0  0  0  0  0  0  0  0  0
    4.8068    1.7278    2.9734 H   0  0  0  0  0  0  0  0  0  0  0  0
    5.6217    0.2702    2.4232 H   0  0  0  0  0  0  0  0  0  0  0  0
    8.8849    1.6039    4.7851 H   0  0  0  0  0  0  0  0  0  0  0  0
    7.8809    0.3991    0.7844 H   0  0  0  0  0  0  0  0  0  0  0  0
    6.7959    2.2737    1.7560 H   0  0  0  0  0  0  0  0  0  0  0  0
  1  3  1  0  0  0  0
  1 13  1  0  0  0  0
  1 15  1  0  0  0  0
  2 18  1  0  0  0  0
  3 20  1  0  0  0  0
  4 21  1  0  0  0  0
  4  3  1  0  0  0  0
  4 22  1  0  0  0  0
  5  6  2  0  0  0  0
  6  9  1  0  0  0  0
  6 24  1  0  0  0  0
  7 10  2  0  0  0  0
  7  5  1  0  0  0  0
  8  4  1  0  0  0  0
  9 28  1  0  0  0  0
 10 12  1  0  0  0  0
 11 30  1  6  0  0  0
 11  8  1  0  0  0  0
 11  2  1  0  0  0  0
 12 11  1  0  0  0  0
 12  9  2  0  0  0  0
 14  1  1  0  0  0  0
 16  2  1  0  0  0  0
 17  2  1  0  0  0  0
 19  3  1  0  0  0  0
 23  5  1  0  0  0  0
 25  7  1  0  0  0  0
 26  8  1  0  0  0  0
 27  8  1  0  0  0  0
 29 10  1  0  0  0  0
M  END
>  <HBA>
0

>  <HBD>
0

>  <TPSA>
0.0

>  <cid>
22385

>  <dipole>
0.23

>  <excitation_energy_1>
5.291

>  <excitation_energy_2>
5.85

>  <excitation_energy_3>
5.962

>  <excitation_energy_4>
6.156

>  <homo_energy>
-6.389

>  <homo_lumo_gap>
6.512

>  <logP>
3.98

>  <lumo_energy>
0.122

>  <melting_point>
3.83

>  <molecular_refractivity>
55.44

>  <oscillator_strength_1>
0.0009

>  <oscillator_strength_2>
0.0347

>  <oscillator_strength_3>
0.0022

>  <oscillator_strength_4>
0.002

>  <open_babel_can_smiles>
CCCC[C@H](c1ccccc1)C

>  <mulliken_charges>
30
1   -0.442969
2   -0.457917
3   -0.249493
4   -0.257685
5   -0.131895
6   -0.13132
7   -0.126645
8   -0.251639
9   -0.185022
10   -0.186782
11   -0.162535
12   0.174782
13   0.141544
14   0.145105
15   0.139578
16   0.141979
17   0.150155
18   0.149213
19   0.130527
20   0.130267
21   0.142392
22   0.125949
23   0.126019
24   0.12623
25   0.126329
26   0.130484
27   0.13011
28   0.123666
29   0.120726
30   0.128845

>  <lowdin_charges>
30
1   -0.448758
2   -0.445795
3   -0.271738
4   -0.283169
5   -0.162265
6   -0.157253
7   -0.156587
8   -0.275516
9   -0.171623
10   -0.169103
11   -0.12167
12   -6e-05
13   0.150058
14   0.14613
15   0.145648
16   0.15052
17   0.154125
18   0.146174
19   0.139333
20   0.141242
21   0.148763
22   0.137426
23   0.156054
24   0.156227
25   0.156307
26   0.140384
27   0.141774
28   0.156221
29   0.153125
30   0.144023

$$$$

