PCCDB-ID:  50577
public computational chemistry database (PCCDB) project, http://pccdb.org

 24 24  0  0  0  0  0  0  0  0999 V2000
    3.6765   -0.5164   -0.9325 C   0  0  0  0  0  0  0  0  0  0  0  0
    1.2983    5.4163    1.5484 C   0  0  0  0  0  0  0  0  0  0  0  0
    2.5797   -0.1230    0.0752 C   0  0  0  0  0  0  0  0  0  0  0  0
    2.5336    4.9095    0.7818 C   0  0  0  0  0  0  0  0  0  0  0  0
    2.5735    2.3911    0.4636 C   0  0  0  0  0  0  0  0  0  0  0  0
    3.6964    1.0097    2.0566 C   0  0  0  0  0  0  0  0  0  0  0  0
    2.9369    1.1088    0.8725 C   0  0  0  0  0  0  0  0  0  0  0  0
    2.9547    3.5185    1.2030 C   0  0  0  0  0  0  0  0  0  0  0  0
    3.7115    3.2667    2.3624 C   0  0  0  0  0  0  0  0  0  0  0  0
    4.0783    2.0509    2.7826 N   0  0  0  0  0  0  0  0  0  0  0  0
    4.1127    4.4409    3.1234 N   0  0  0  0  0  0  0  0  0  0  0  0
    4.7276    4.2047    4.1467 O   0  0  0  0  0  0  0  0  0  0  0  0
    3.3848   -1.4140   -1.4886 H   0  0  0  0  0  0  0  0  0  0  0  0
    4.6237   -0.7245   -0.4231 H   0  0  0  0  0  0  0  0  0  0  0  0
    3.8555    0.2885   -1.6540 H   0  0  0  0  0  0  0  0  0  0  0  0
    0.9981    6.4027    1.1781 H   0  0  0  0  0  0  0  0  0  0  0  0
    1.5214    5.5062    2.6161 H   0  0  0  0  0  0  0  0  0  0  0  0
    0.4474    4.7355    1.4314 H   0  0  0  0  0  0  0  0  0  0  0  0
    2.4025   -0.9607    0.7613 H   0  0  0  0  0  0  0  0  0  0  0  0
    1.6382    0.0491   -0.4603 H   0  0  0  0  0  0  0  0  0  0  0  0
    3.3594    5.6082    0.9404 H   0  0  0  0  0  0  0  0  0  0  0  0
    2.3168    4.8966   -0.2936 H   0  0  0  0  0  0  0  0  0  0  0  0
    1.9849    2.5229   -0.4429 H   0  0  0  0  0  0  0  0  0  0  0  0
    4.0007    0.0282    2.4216 H   0  0  0  0  0  0  0  0  0  0  0  0
  1 14  1  0  0  0  0
  1  3  1  0  0  0  0
  2 17  1  0  0  0  0
  3 19  1  0  0  0  0
  3  7  1  0  0  0  0
  4 21  1  0  0  0  0
  4  8  1  0  0  0  0
  4  2  1  0  0  0  0
  5  7  1  0  0  0  0
  5  8  2  0  0  0  0
  6 24  1  0  0  0  0
  6 10  1  0  0  0  0
  7  6  2  0  0  0  0
  8  9  1  0  0  0  0
  9 10  2  0  0  0  0
  9 11  1  0  0  0  0
 11 12  1  0  0  0  0
 13  1  1  0  0  0  0
 15  1  1  0  0  0  0
 16  2  1  0  0  0  0
 18  2  1  0  0  0  0
 20  3  1  0  0  0  0
 22  4  1  0  0  0  0
 23  5  1  0  0  0  0
M  RAD  2  11   2  12   2
M  END
>  <HBA>
3

>  <HBD>
0

>  <TPSA>
42.32

>  <cid>
50577

>  <dipole>
5.43

>  <excitation_energy_1>
1.342

>  <excitation_energy_2>
3.414

>  <excitation_energy_3>
4.003

>  <excitation_energy_4>
4.113

>  <homo_energy>
-5.739

>  <homo_lumo_gap>
3.08

>  <logP>
2.604

>  <lumo_energy>
-2.659

>  <melting_point>
54.26

>  <molecular_refractivity>
49.24

>  <oscillator_strength_1>
0.0002

>  <oscillator_strength_2>
0.0008

>  <oscillator_strength_3>
0.0016

>  <oscillator_strength_4>
0.1779

>  <open_babel_can_smiles>
CCc1cc(CC)cnc1[N][O]

>  <mulliken_charges>
24
1   -0.438622
2   -0.44212
3   -0.349814
4   -0.333204
5   -0.210677
6   -0.009133
7   0.173046
8   0.162827
9   0.341894
10   -0.424373
11   -0.057684
12   -0.2553
13   0.154765
14   0.158105
15   0.154012
16   0.151773
17   0.169204
18   0.145462
19   0.156907
20   0.152553
21   0.176555
22   0.140664
23   0.13843
24   0.144727

>  <lowdin_charges>
24
1   -0.439995
2   -0.437739
3   -0.271948
4   -0.272015
5   -0.150673
6   -0.095007
7   0.002991
8   0.011299
9   0.008535
10   -0.110865
11   0.026315
12   -0.144146
13   0.156183
14   0.155078
15   0.153887
16   0.154389
17   0.15848
18   0.149057
19   0.157376
20   0.154243
21   0.169237
22   0.146837
23   0.161072
24   0.157408

$$$$

