PCCDB-ID:  12709
public computational chemistry database (PCCDB) project, http://pccdb.org

 19 18  0  0  0  0  0  0  0  0999 V2000
    3.8499    3.0849    1.5851 C   0  0  0  0  0  0  0  0  0  0  0  0
    3.9506   -1.6920    0.5194 C   0  0  0  0  0  0  0  0  0  0  0  0
    6.0072   -1.2820   -0.7946 C   0  0  0  0  0  0  0  0  0  0  0  0
    3.1377    2.3579    0.4540 C   0  0  0  0  0  0  0  0  0  0  0  0
    4.6095    0.6073   -0.1853 C   0  0  0  0  0  0  0  0  0  0  0  0
    4.8564   -0.7358   -0.0957 N   0  0  0  0  0  0  0  0  0  0  0  0
    5.3327    1.4121   -0.7536 O   0  0  0  0  0  0  0  0  0  0  0  0
    3.4503    0.9490    0.4453 O   0  0  0  0  0  0  0  0  0  0  0  0
    3.5315    4.1337    1.6136 H   0  0  0  0  0  0  0  0  0  0  0  0
    4.9322    3.0578    1.4323 H   0  0  0  0  0  0  0  0  0  0  0  0
    3.6139    2.6284    2.5523 H   0  0  0  0  0  0  0  0  0  0  0  0
    4.5204   -2.3776    1.1592 H   0  0  0  0  0  0  0  0  0  0  0  0
    3.4273   -2.2912   -0.2403 H   0  0  0  0  0  0  0  0  0  0  0  0
    3.2139   -1.1715    1.1271 H   0  0  0  0  0  0  0  0  0  0  0  0
    6.6247   -1.8722   -0.1052 H   0  0  0  0  0  0  0  0  0  0  0  0
    6.5962   -0.4587   -1.1960 H   0  0  0  0  0  0  0  0  0  0  0  0
    5.6911   -1.9368   -1.6191 H   0  0  0  0  0  0  0  0  0  0  0  0
    3.4026    2.7848   -0.5160 H   0  0  0  0  0  0  0  0  0  0  0  0
    2.0520    2.3902    0.5800 H   0  0  0  0  0  0  0  0  0  0  0  0
  1  9  1  0  0  0  0
  1 11  1  0  0  0  0
  2 14  1  0  0  0  0
  2 12  1  0  0  0  0
  3 15  1  0  0  0  0
  3  6  1  0  0  0  0
  4 19  1  0  0  0  0
  4  1  1  0  0  0  0
  5  6  1  0  0  0  0
  5  8  1  0  0  0  0
  6  2  1  0  0  0  0
  7  5  2  0  0  0  0
  8  4  1  0  0  0  0
 10  1  1  0  0  0  0
 13  2  1  0  0  0  0
 16  3  1  0  0  0  0
 17  3  1  0  0  0  0
 18  4  1  0  0  0  0
M  END
>  <HBA>
3

>  <HBD>
0

>  <TPSA>
29.54

>  <cid>
12709

>  <dipole>
2.22

>  <excitation_energy_1>
5.926

>  <excitation_energy_2>
6.526

>  <excitation_energy_3>
6.654

>  <excitation_energy_4>
6.772

>  <homo_energy>
-6.414

>  <homo_lumo_gap>
8.074

>  <logP>
0.705

>  <lumo_energy>
1.66

>  <melting_point>
-0.49

>  <molecular_refractivity>
30.72

>  <oscillator_strength_1>
0.0264

>  <oscillator_strength_2>
0.015

>  <oscillator_strength_3>
0.0019

>  <oscillator_strength_4>
0.039

>  <open_babel_can_smiles>
CCOC(=O)N(C)C

>  <mulliken_charges>
19
1   -0.461018
2   -0.312144
3   -0.316211
4   -0.032239
5   0.79508
6   -0.435487
7   -0.53418
8   -0.495806
9   0.145871
10   0.178166
11   0.151179
12   0.15188
13   0.151904
14   0.194029
15   0.150167
16   0.203154
17   0.149827
18   0.170454
19   0.145374

>  <lowdin_charges>
19
1   -0.453559
2   -0.356499
3   -0.354095
4   -0.120899
5   0.210127
6   -0.111428
7   -0.330805
8   -0.218226
9   0.155338
10   0.164674
11   0.15267
12   0.151141
13   0.147167
14   0.178456
15   0.149346
16   0.185272
17   0.146297
18   0.158868
19   0.146152

$$$$

