PCCDB-ID:  10415
public computational chemistry database (PCCDB) project, http://pccdb.org

 31 30  0  0  1  0  0  0  0  0999 V2000
    0.8322   -3.2460   -1.8031 C   0  0  0  0  0  0  0  0  0  0  0  0
    0.8308   -4.4973    0.3900 C   0  0  0  0  0  0  0  0  0  0  0  0
    7.6222   -1.6352   -1.4627 C   0  0  0  0  0  0  0  0  0  0  0  0
    6.2179   -0.2129   -3.8719 C   0  0  0  0  0  0  0  0  0  0  0  0
    3.7889   -2.3892   -1.1062 C   0  0  0  0  0  0  0  0  0  0  0  0
    3.0095   -3.5618   -0.4953 C   0  0  0  0  0  0  0  0  0  0  0  0
    5.3078   -2.5966   -1.0687 C   0  0  0  0  0  0  0  0  0  0  0  0
    1.4823   -3.3635   -0.4161 C   0  0  0  0  0  0  0  0  0  0  0  0
    6.1159   -1.4713   -1.7397 C   0  0  2  0  0  0  0  0  0  0  0  0
    5.7690   -1.4078   -3.1667 N   0  0  0  0  0  0  0  0  0  0  0  0
   -0.2518   -3.1034   -1.7176 H   0  0  0  0  0  0  0  0  0  0  0  0
    1.0011   -4.1588   -2.3903 H   0  0  0  0  0  0  0  0  0  0  0  0
    1.2336   -2.4030   -2.3751 H   0  0  0  0  0  0  0  0  0  0  0  0
   -0.2523   -4.3509    0.4808 H   0  0  0  0  0  0  0  0  0  0  0  0
    1.2476   -4.5594    1.4025 H   0  0  0  0  0  0  0  0  0  0  0  0
    0.9942   -5.4680   -0.0967 H   0  0  0  0  0  0  0  0  0  0  0  0
    7.8324   -1.6131   -0.3866 H   0  0  0  0  0  0  0  0  0  0  0  0
    8.2110   -0.8388   -1.9307 H   0  0  0  0  0  0  0  0  0  0  0  0
    7.9851   -2.5961   -1.8522 H   0  0  0  0  0  0  0  0  0  0  0  0
    5.8931   -0.2702   -4.9166 H   0  0  0  0  0  0  0  0  0  0  0  0
    7.3086   -0.0371   -3.8673 H   0  0  0  0  0  0  0  0  0  0  0  0
    5.7401    0.6676   -3.4258 H   0  0  0  0  0  0  0  0  0  0  0  0
    3.5399   -1.4662   -0.5603 H   0  0  0  0  0  0  0  0  0  0  0  0
    3.4908   -2.2218   -2.1464 H   0  0  0  0  0  0  0  0  0  0  0  0
    3.3888   -3.7492    0.5207 H   0  0  0  0  0  0  0  0  0  0  0  0
    3.2199   -4.4782   -1.0690 H   0  0  0  0  0  0  0  0  0  0  0  0
    5.5615   -3.5498   -1.5600 H   0  0  0  0  0  0  0  0  0  0  0  0
    5.6426   -2.6976   -0.0265 H   0  0  0  0  0  0  0  0  0  0  0  0
    1.2978   -2.4207    0.1229 H   0  0  0  0  0  0  0  0  0  0  0  0
    5.7892   -0.5136   -1.3071 H   0  0  0  0  0  0  0  0  0  0  0  0
    6.1354   -2.2378   -3.6325 H   0  0  0  0  0  0  0  0  0  0  0  0
  1 11  1  0  0  0  0
  1  8  1  0  0  0  0
  2 14  1  0  0  0  0
  2 15  1  0  0  0  0
  3 17  1  0  0  0  0
  4 21  1  0  0  0  0
  4 22  1  0  0  0  0
  4 10  1  0  0  0  0
  5  7  1  0  0  0  0
  5 23  1  0  0  0  0
  5  6  1  0  0  0  0
  6  8  1  0  0  0  0
  6 25  1  0  0  0  0
  7 28  1  0  0  0  0
  8 29  1  0  0  0  0
  8  2  1  0  0  0  0
  9  3  1  0  0  0  0
  9 30  1  1  0  0  0
  9  7  1  0  0  0  0
 10  9  1  0  0  0  0
 12  1  1  0  0  0  0
 13  1  1  0  0  0  0
 16  2  1  0  0  0  0
 18  3  1  0  0  0  0
 19  3  1  0  0  0  0
 20  4  1  0  0  0  0
 24  5  1  0  0  0  0
 26  6  1  0  0  0  0
 27  7  1  0  0  0  0
 31 10  1  0  0  0  0
M  END
>  <HBA>
1

>  <HBD>
1

>  <TPSA>
12.03

>  <cid>
10415

>  <dipole>
1.05

>  <excitation_energy_1>
5.329

>  <excitation_energy_2>
5.647

>  <excitation_energy_3>
5.827

>  <excitation_energy_4>
5.898

>  <homo_energy>
-5.753

>  <homo_lumo_gap>
8.019

>  <logP>
2.812

>  <lumo_energy>
2.267

>  <melting_point>
-1.38

>  <molecular_refractivity>
48.18

>  <oscillator_strength_1>
0.0032

>  <oscillator_strength_2>
0.0046

>  <oscillator_strength_3>
0.0096

>  <oscillator_strength_4>
0.0064

>  <open_babel_can_smiles>
CN[C@@H](CCCC(C)C)C

>  <mulliken_charges>
31
1   -0.444984
2   -0.441358
3   -0.455052
4   -0.300372
5   -0.258217
6   -0.246323
7   -0.253543
8   -0.063495
9   0.041516
10   -0.534531
11   0.136478
12   0.135364
13   0.148816
14   0.137106
15   0.137202
16   0.136562
17   0.141497
18   0.145236
19   0.13314
20   0.147315
21   0.121314
22   0.149914
23   0.118631
24   0.15933
25   0.119777
26   0.119838
27   0.117434
28   0.124563
29   0.11751
30   0.123494
31   0.285841

>  <lowdin_charges>
31
1   -0.446251
2   -0.441198
3   -0.46225
4   -0.358075
5   -0.27814
6   -0.274642
7   -0.275787
8   -0.119682
9   -0.060957
10   -0.361047
11   0.144608
12   0.144115
13   0.151586
14   0.14439
15   0.145054
16   0.143936
17   0.148835
18   0.150483
19   0.143316
20   0.148761
21   0.118308
22   0.148253
23   0.134782
24   0.151551
25   0.134892
26   0.134755
27   0.134369
28   0.138221
29   0.133159
30   0.135697
31   0.248958

$$$$

