PCCDB-ID:  42014
public computational chemistry database (PCCDB) project, http://pccdb.org

 31 33  0  0  0  0  0  0  0  0999 V2000
   -1.5665    0.4260    0.2125 C   0  0  0  0  0  0  0  0  0  0  0  0
    6.7524   -4.8692   -1.5524 C   0  0  0  0  0  0  0  0  0  0  0  0
   -0.8884   -0.7031    0.6757 C   0  0  0  0  0  0  0  0  0  0  0  0
   -0.8511    1.4545   -0.4034 C   0  0  0  0  0  0  0  0  0  0  0  0
    7.4353   -3.7918   -0.9835 C   0  0  0  0  0  0  0  0  0  0  0  0
    5.3957   -4.7407   -1.8541 C   0  0  0  0  0  0  0  0  0  0  0  0
    0.4934   -0.8038    0.5223 C   0  0  0  0  0  0  0  0  0  0  0  0
    0.5311    1.3554   -0.5534 C   0  0  0  0  0  0  0  0  0  0  0  0
    6.7680   -2.5993   -0.7145 C   0  0  0  0  0  0  0  0  0  0  0  0
    4.7261   -3.5486   -1.5816 C   0  0  0  0  0  0  0  0  0  0  0  0
    3.5321    1.2401   -0.1292 C   0  0  0  0  0  0  0  0  0  0  0  0
    4.9070    1.0724   -0.2747 C   0  0  0  0  0  0  0  0  0  0  0  0
    3.3165   -1.1043   -0.5405 C   0  0  0  0  0  0  0  0  0  0  0  0
    1.2258    0.2238   -0.0949 C   0  0  0  0  0  0  0  0  0  0  0  0
    5.3996   -2.4616   -1.0007 C   0  0  0  0  0  0  0  0  0  0  0  0
    2.6978    0.1199   -0.2584 C   0  0  0  0  0  0  0  0  0  0  0  0
    4.7097   -1.1797   -0.6895 C   0  0  0  0  0  0  0  0  0  0  0  0
    5.4956   -0.0942   -0.5460 N   0  0  0  0  0  0  0  0  0  0  0  0
   -2.6438    0.5037    0.3306 H   0  0  0  0  0  0  0  0  0  0  0  0
    7.2737   -5.7990   -1.7643 H   0  0  0  0  0  0  0  0  0  0  0  0
   -1.4350   -1.5051    1.1645 H   0  0  0  0  0  0  0  0  0  0  0  0
   -1.3707    2.3338   -0.7748 H   0  0  0  0  0  0  0  0  0  0  0  0
    8.4928   -3.8803   -0.7483 H   0  0  0  0  0  0  0  0  0  0  0  0
    4.8575   -5.5670   -2.3110 H   0  0  0  0  0  0  0  0  0  0  0  0
    1.0147   -1.6751    0.9088 H   0  0  0  0  0  0  0  0  0  0  0  0
    1.0757    2.1501   -1.0557 H   0  0  0  0  0  0  0  0  0  0  0  0
    7.2925   -1.7556   -0.2800 H   0  0  0  0  0  0  0  0  0  0  0  0
    3.6776   -3.4601   -1.8502 H   0  0  0  0  0  0  0  0  0  0  0  0
    3.1241    2.2157    0.1154 H   0  0  0  0  0  0  0  0  0  0  0  0
    5.5742    1.9258   -0.1598 H   0  0  0  0  0  0  0  0  0  0  0  0
    2.7093   -1.9962   -0.6470 H   0  0  0  0  0  0  0  0  0  0  0  0
  1 19  1  0  0  0  0
  1  3  2  0  0  0  0
  2  5  2  0  0  0  0
  3 21  1  0  0  0  0
  4  1  1  0  0  0  0
  5 23  1  0  0  0  0
  5  9  1  0  0  0  0
  6 10  2  0  0  0  0
  6  2  1  0  0  0  0
  7  3  1  0  0  0  0
  7 25  1  0  0  0  0
  8  4  2  0  0  0  0
  8 14  1  0  0  0  0
  9 27  1  0  0  0  0
 10 15  1  0  0  0  0
 11 29  1  0  0  0  0
 12 30  1  0  0  0  0
 12 11  2  0  0  0  0
 13 16  2  0  0  0  0
 14  7  2  0  0  0  0
 15  9  2  0  0  0  0
 15 17  1  0  0  0  0
 16 11  1  0  0  0  0
 16 14  1  0  0  0  0
 17 18  2  0  0  0  0
 17 13  1  0  0  0  0
 18 12  1  0  0  0  0
 20  2  1  0  0  0  0
 22  4  1  0  0  0  0
 24  6  1  0  0  0  0
 26  8  1  0  0  0  0
 28 10  1  0  0  0  0
 31 13  1  0  0  0  0
M  END
>  <HBA>
1

>  <HBD>
0

>  <TPSA>
12.89

>  <cid>
42014

>  <dipole>
2.28

>  <excitation_energy_1>
4.23

>  <excitation_energy_2>
4.44

>  <excitation_energy_3>
4.644

>  <excitation_energy_4>
4.764

>  <homo_energy>
-6.133

>  <homo_lumo_gap>
4.849

>  <logP>
4.416

>  <lumo_energy>
-1.284

>  <melting_point>
94.37

>  <molecular_refractivity>
75.11

>  <oscillator_strength_1>
0.1384

>  <oscillator_strength_2>
0.0029

>  <oscillator_strength_3>
0.0751

>  <oscillator_strength_4>
0.2425

>  <open_babel_can_smiles>
c1ccc(cc1)c1ccnc(c1)c1ccccc1

>  <mulliken_charges>
31
1   -0.123905
2   -0.123193
3   -0.134711
4   -0.133985
5   -0.134564
6   -0.137909
7   -0.171006
8   -0.171546
9   -0.159859
10   -0.18068
11   -0.194214
12   0.042753
13   -0.217559
14   0.088724
15   0.102837
16   0.116346
17   0.243494
18   -0.48265
19   0.134092
20   0.129101
21   0.13504
22   0.134834
23   0.130566
24   0.128928
25   0.138685
26   0.136668
27   0.156167
28   0.130012
29   0.138235
30   0.138821
31   0.140481

>  <lowdin_charges>
31
1   -0.150304
2   -0.153924
3   -0.153885
4   -0.153414
5   -0.153796
6   -0.158805
7   -0.158415
8   -0.158632
9   -0.144488
10   -0.158801
11   -0.186649
12   -0.085256
13   -0.184951
14   -0.004567
15   -0.012615
16   0.024998
17   0.056346
18   -0.157681
19   0.158246
20   0.157842
21   0.161501
22   0.160919
23   0.156399
24   0.158391
25   0.162623
26   0.162412
27   0.174273
28   0.155389
29   0.164698
30   0.157122
31   0.165023

$$$$

