PCCDB-ID:  11444
public computational chemistry database (PCCDB) project, http://pccdb.org

 33 33  0  0  1  0  0  0  0  0999 V2000
    0.4797    4.1514    0.8898 C   0  0  0  0  0  0  0  0  0  0  0  0
    4.8436    5.3345    0.7636 C   0  0  0  0  0  0  0  0  0  0  0  0
    5.9108    6.4352    0.6130 C   0  0  0  0  0  0  0  0  0  0  0  0
    2.7433    2.1876    0.0656 C   0  0  0  0  0  0  0  0  0  0  0  0
    3.2820    2.6256    2.5928 C   0  0  0  0  0  0  0  0  0  0  0  0
    1.7517    4.0337    3.0561 C   0  0  0  0  0  0  0  0  0  0  0  0
    2.5555    2.7690    1.4300 C   0  0  0  0  0  0  0  0  0  0  0  0
    3.7540    2.9825   -0.8208 C   0  0  1  0  0  0  0  0  0  0  0  0
    3.7923    5.3326   -0.3276 C   0  0  0  0  0  0  0  0  0  0  0  0
    3.8103    2.2910   -2.1990 C   0  0  0  0  0  0  0  0  0  0  0  0
    6.9688    6.2163    1.5940 N   0  0  0  0  0  0  0  0  0  0  0  0
    2.7823    3.4188    3.5983 N   0  0  0  0  0  0  0  0  0  0  0  0
    3.3319    4.3553   -1.0010 N   0  0  0  0  0  0  0  0  0  0  0  0
    1.5639    3.6911    1.7456 N   0  0  0  0  0  0  0  0  0  0  0  0
    3.2465    6.5455   -0.6256 O   0  0  0  0  0  0  0  0  0  0  0  0
    4.2655    1.1809   -2.3433 O   0  0  0  0  0  0  0  0  0  0  0  0
    3.2725    3.0008   -3.2035 O   0  0  0  0  0  0  0  0  0  0  0  0
   -0.0754    4.9263    1.4233 H   0  0  0  0  0  0  0  0  0  0  0  0
   -0.2071    3.3315    0.6525 H   0  0  0  0  0  0  0  0  0  0  0  0
    0.8763    4.5699   -0.0385 H   0  0  0  0  0  0  0  0  0  0  0  0
    4.3357    5.4384    1.7336 H   0  0  0  0  0  0  0  0  0  0  0  0
    5.3574    4.3733    0.7960 H   0  0  0  0  0  0  0  0  0  0  0  0
    5.4434    7.4396    0.6850 H   0  0  0  0  0  0  0  0  0  0  0  0
    6.3581    6.3739   -0.3860 H   0  0  0  0  0  0  0  0  0  0  0  0
    1.7870    2.1321   -0.4677 H   0  0  0  0  0  0  0  0  0  0  0  0
    3.1234    1.1644    0.1397 H   0  0  0  0  0  0  0  0  0  0  0  0
    4.1427    1.9887    2.7544 H   0  0  0  0  0  0  0  0  0  0  0  0
    1.0940    4.7315    3.5593 H   0  0  0  0  0  0  0  0  0  0  0  0
    4.7512    2.8736   -0.3769 H   0  0  0  0  0  0  0  0  0  0  0  0
    6.6115    6.3480    2.5392 H   0  0  0  0  0  0  0  0  0  0  0  0
    7.7154    6.8961    1.4656 H   0  0  0  0  0  0  0  0  0  0  0  0
    3.6553    7.2291   -0.0721 H   0  0  0  0  0  0  0  0  0  0  0  0
    2.9960    3.8601   -2.8031 H   0  0  0  0  0  0  0  0  0  0  0  0
  1 18  1  0  0  0  0
  1 14  1  0  0  0  0
  2 22  1  0  0  0  0
  2 21  1  0  0  0  0
  3 23  1  0  0  0  0
  3  2  1  0  0  0  0
  3 11  1  0  0  0  0
  4 26  1  0  0  0  0
  4  7  1  0  0  0  0
  5 27  1  0  0  0  0
  5 12  1  0  0  0  0
  6 28  1  0  0  0  0
  6 12  2  0  0  0  0
  7 14  1  0  0  0  0
  7  5  2  0  0  0  0
  8 29  1  1  0  0  0
  8  4  1  0  0  0  0
  9  2  1  0  0  0  0
 10  8  1  0  0  0  0
 11 30  1  0  0  0  0
 13  8  1  0  0  0  0
 13  9  2  0  0  0  0
 14  6  1  0  0  0  0
 15  9  1  0  0  0  0
 15 32  1  0  0  0  0
 16 10  2  0  0  0  0
 17 33  1  0  0  0  0
 17 10  1  0  0  0  0
 19  1  1  0  0  0  0
 20  1  1  0  0  0  0
 24  3  1  0  0  0  0
 25  4  1  0  0  0  0
 31 11  1  0  0  0  0
M  END
>  <HBA>
7

>  <HBD>
3

>  <TPSA>
110.24

>  <cid>
11444

>  <dipole>
7.29

>  <excitation_energy_1>
4.828

>  <excitation_energy_2>
5.152

>  <excitation_energy_3>
5.451

>  <excitation_energy_4>
5.588

>  <homo_energy>
-6.057

>  <homo_lumo_gap>
5.761

>  <logP>
-0.028

>  <lumo_energy>
-0.297

>  <melting_point>
202.48

>  <molecular_refractivity>
59.97

>  <oscillator_strength_1>
0.019

>  <oscillator_strength_2>
0.0185

>  <oscillator_strength_3>
0.023

>  <oscillator_strength_4>
0.0014

>  <open_babel_can_smiles>
NCC/C(=N\[C@H](C(=O)O)Cc1cncn1C)/O

>  <mulliken_charges>
33
1   -0.34067
2   -0.372722
3   -0.150116
4   -0.353859
5   -0.090872
6   0.178482
7   0.302476
8   -0.075442
9   0.528947
10   0.605484
11   -0.709861
12   -0.436889
13   -0.504628
14   -0.412258
15   -0.588187
16   -0.468624
17   -0.577961
18   0.169964
19   0.17771
20   0.202895
21   0.194147
22   0.197484
23   0.102247
24   0.168951
25   0.15735
26   0.193089
27   0.135148
28   0.148264
29   0.162915
30   0.306146
31   0.30911
32   0.413388
33   0.42789

>  <lowdin_charges>
33
1   -0.356852
2   -0.317321
3   -0.203678
4   -0.272684
5   -0.173196
6   -0.113182
7   -0.024627
8   -0.097671
9   0.154696
10   0.175423
11   -0.546495
12   -0.190975
13   -0.237835
14   -0.013575
15   -0.362117
16   -0.256728
17   -0.349801
18   0.16859
19   0.163404
20   0.175721
21   0.176923
22   0.1802
23   0.108233
24   0.154569
25   0.160413
26   0.180835
27   0.160727
28   0.164034
29   0.155562
30   0.259539
31   0.263906
32   0.355667
33   0.358293

$$$$

