PCCDB-ID:  31567
public computational chemistry database (PCCDB) project, http://pccdb.org

 29 28  0  0  0  0  0  0  0  0999 V2000
    3.0210   -1.2736    1.9582 C   0  0  0  0  0  0  0  0  0  0  0  0
    1.2570   -1.6554    0.1555 C   0  0  0  0  0  0  0  0  0  0  0  0
    3.4771    0.9616   -3.4235 C   0  0  0  0  0  0  0  0  0  0  0  0
    4.6036   -0.8641   -4.8137 C   0  0  0  0  0  0  0  0  0  0  0  0
    7.3083   -3.1104   -0.9233 C   0  0  0  0  0  0  0  0  0  0  0  0
    2.7145   -1.8142    0.5675 C   0  0  0  0  0  0  0  0  0  0  0  0
    3.9313   -0.4890   -3.5013 C   0  0  0  0  0  0  0  0  0  0  0  0
    4.2576   -3.1543   -1.8065 O   0  0  0  0  0  0  0  0  0  0  0  0
    3.5213   -1.0566   -0.3947 O   0  0  0  0  0  0  0  0  0  0  0  0
    4.9158   -0.6909   -2.4284 O   0  0  0  0  0  0  0  0  0  0  0  0
    4.6284   -1.8036   -1.3034 P   0  0  0  0  0  0  0  0  0  0  0  0
    6.3593   -1.7559   -0.1142 S   0  0  0  0  0  0  0  0  0  0  0  0
    2.4320   -1.8115    2.7098 H   0  0  0  0  0  0  0  0  0  0  0  0
    2.7706   -0.2089    2.0180 H   0  0  0  0  0  0  0  0  0  0  0  0
    4.0817   -1.3968    2.1963 H   0  0  0  0  0  0  0  0  0  0  0  0
    0.6039   -2.1853    0.8582 H   0  0  0  0  0  0  0  0  0  0  0  0
    1.0949   -2.0687   -0.8446 H   0  0  0  0  0  0  0  0  0  0  0  0
    0.9730   -0.5973    0.1493 H   0  0  0  0  0  0  0  0  0  0  0  0
    2.7385    1.1713   -4.2056 H   0  0  0  0  0  0  0  0  0  0  0  0
    4.3296    1.6359   -3.5604 H   0  0  0  0  0  0  0  0  0  0  0  0
    3.0257    1.1663   -2.4486 H   0  0  0  0  0  0  0  0  0  0  0  0
    3.9152   -0.7085   -5.6521 H   0  0  0  0  0  0  0  0  0  0  0  0
    4.9029   -1.9162   -4.7997 H   0  0  0  0  0  0  0  0  0  0  0  0
    5.4945   -0.2477   -4.9775 H   0  0  0  0  0  0  0  0  0  0  0  0
    8.1267   -3.3563   -0.2433 H   0  0  0  0  0  0  0  0  0  0  0  0
    7.7157   -2.7807   -1.8810 H   0  0  0  0  0  0  0  0  0  0  0  0
    6.6642   -3.9788   -1.0665 H   0  0  0  0  0  0  0  0  0  0  0  0
    2.9989   -2.8692    0.4961 H   0  0  0  0  0  0  0  0  0  0  0  0
    3.0807   -1.1569   -3.3254 H   0  0  0  0  0  0  0  0  0  0  0  0
  1 14  1  0  0  0  0
  1 15  1  0  0  0  0
  1 13  1  0  0  0  0
  2  6  1  0  0  0  0
  2 16  1  0  0  0  0
  3 21  1  0  0  0  0
  4 23  1  0  0  0  0
  4  7  1  0  0  0  0
  5 25  1  0  0  0  0
  5 12  1  0  0  0  0
  6  1  1  0  0  0  0
  7  3  1  0  0  0  0
  7 29  1  0  0  0  0
  7 10  1  0  0  0  0
  8 11  2  0  0  0  0
  9  6  1  0  0  0  0
 10 11  1  0  0  0  0
 11  9  1  0  0  0  0
 11 12  1  0  0  0  0
 17  2  1  0  0  0  0
 18  2  1  0  0  0  0
 19  3  1  0  0  0  0
 20  3  1  0  0  0  0
 22  4  1  0  0  0  0
 24  4  1  0  0  0  0
 26  5  1  0  0  0  0
 27  5  1  0  0  0  0
 28  6  1  0  0  0  0
M  END
>  <HBA>
4

>  <HBD>
0

>  <TPSA>
70.64

>  <cid>
31567

>  <dipole>
1.05

>  <excitation_energy_1>
5.405

>  <excitation_energy_2>
6.187

>  <excitation_energy_3>
6.58

>  <excitation_energy_4>
6.697

>  <homo_energy>
-6.7

>  <homo_lumo_gap>
7.113

>  <logP>
3.308

>  <lumo_energy>
0.414

>  <melting_point>
-20.72

>  <molecular_refractivity>
54.19

>  <oscillator_strength_1>
0.0021

>  <oscillator_strength_2>
0.0138

>  <oscillator_strength_3>
0.002

>  <oscillator_strength_4>
0.0127

>  <open_babel_can_smiles>
CSP(=O)(OC(C)C)OC(C)C

>  <mulliken_charges>
29
1   -0.448095
2   -0.445089
3   -0.441926
4   -0.444848
5   -0.603123
6   0.112106
7   0.11693
8   -0.575113
9   -0.543647
10   -0.522574
11   1.047549
12   -0.076627
13   0.147305
14   0.155945
15   0.173522
16   0.148841
17   0.166098
18   0.154502
19   0.14459
20   0.158006
21   0.168637
22   0.145692
23   0.173623
24   0.15591
25   0.188088
26   0.195685
27   0.221775
28   0.166535
29   0.159702

>  <lowdin_charges>
29
1   -0.449633
2   -0.448085
3   -0.449585
4   -0.448441
5   -0.53667
6   0.02143
7   0.021851
8   -0.59888
9   -0.399807
10   -0.392874
11   0.94693
12   -0.025428
13   0.157559
14   0.155706
15   0.16459
16   0.158348
17   0.161805
18   0.154625
19   0.155401
20   0.158807
21   0.16399
22   0.156085
23   0.165255
24   0.157415
25   0.177781
26   0.172629
27   0.188107
28   0.156785
29   0.154303

$$$$

