PCCDB-ID:  35413
public computational chemistry database (PCCDB) project, http://pccdb.org

 27 27  0  0  1  0  0  0  0  0999 V2000
    0.6994   -0.1523   -0.5859 C   0  0  0  0  0  0  0  0  0  0  0  0
    1.2553    3.1687    0.2165 C   0  0  0  0  0  0  0  0  0  0  0  0
    1.9487    0.1347    0.2581 C   0  0  0  0  0  0  0  0  0  0  0  0
    4.7086    2.2544    1.8145 C   0  0  0  0  0  0  0  0  0  0  0  0
    4.9048    0.8653    1.1917 C   0  0  0  0  0  0  0  0  0  0  0  0
    3.2430    2.7066    1.7287 C   0  0  0  0  0  0  0  0  0  0  0  0
    4.3688    0.8289   -0.2476 C   0  0  0  0  0  0  0  0  0  0  0  0
    2.6947    2.6428    0.2888 C   0  0  1  0  0  0  0  0  0  0  0  0
    2.8784    1.2300   -0.3364 C   0  0  2  0  0  0  0  0  0  0  0  0
    0.0863   -0.9391   -0.1304 H   0  0  0  0  0  0  0  0  0  0  0  0
    0.9766   -0.4889   -1.5927 H   0  0  0  0  0  0  0  0  0  0  0  0
    0.0694    0.7363   -0.6986 H   0  0  0  0  0  0  0  0  0  0  0  0
    1.2038    4.2046    0.5733 H   0  0  0  0  0  0  0  0  0  0  0  0
    0.5741    2.5758    0.8385 H   0  0  0  0  0  0  0  0  0  0  0  0
    0.8723    3.1515   -0.8110 H   0  0  0  0  0  0  0  0  0  0  0  0
    2.5143   -0.8015    0.3587 H   0  0  0  0  0  0  0  0  0  0  0  0
    1.6416    0.3987    1.2782 H   0  0  0  0  0  0  0  0  0  0  0  0
    5.3403    2.9785    1.2785 H   0  0  0  0  0  0  0  0  0  0  0  0
    5.0469    2.2598    2.8588 H   0  0  0  0  0  0  0  0  0  0  0  0
    4.3827    0.1133    1.8009 H   0  0  0  0  0  0  0  0  0  0  0  0
    5.9671    0.5892    1.2042 H   0  0  0  0  0  0  0  0  0  0  0  0
    3.1420    3.7315    2.1105 H   0  0  0  0  0  0  0  0  0  0  0  0
    2.6267    2.0759    2.3864 H   0  0  0  0  0  0  0  0  0  0  0  0
    4.5109   -0.1693   -0.6828 H   0  0  0  0  0  0  0  0  0  0  0  0
    4.9619    1.5232   -0.8614 H   0  0  0  0  0  0  0  0  0  0  0  0
    3.3170    3.3221   -0.3162 H   0  0  0  0  0  0  0  0  0  0  0  0
    2.6310    1.3181   -1.4052 H   0  0  0  0  0  0  0  0  0  0  0  0
  1 10  1  0  0  0  0
  1  3  1  0  0  0  0
  2  8  1  0  0  0  0
  2 13  1  0  0  0  0
  2 14  1  0  0  0  0
  3 16  1  0  0  0  0
  3 17  1  0  0  0  0
  4 19  1  0  0  0  0
  5 21  1  0  0  0  0
  5 20  1  0  0  0  0
  5  4  1  0  0  0  0
  6  4  1  0  0  0  0
  6 22  1  0  0  0  0
  6 23  1  0  0  0  0
  7  5  1  0  0  0  0
  8 26  1  6  0  0  0
  8  6  1  0  0  0  0
  9 27  1  6  0  0  0
  9  7  1  0  0  0  0
  9  3  1  0  0  0  0
  9  8  1  0  0  0  0
 11  1  1  0  0  0  0
 12  1  1  0  0  0  0
 15  2  1  0  0  0  0
 18  4  1  0  0  0  0
 24  7  1  0  0  0  0
 25  7  1  0  0  0  0
M  END
>  <HBA>
0

>  <HBD>
0

>  <TPSA>
0.0

>  <cid>
35413

>  <dipole>
0.08

>  <excitation_energy_1>
7.207

>  <excitation_energy_2>
7.29

>  <excitation_energy_3>
7.482

>  <excitation_energy_4>
7.531

>  <homo_energy>
-7.709

>  <homo_lumo_gap>
9.921

>  <logP>
3.223

>  <lumo_energy>
2.212

>  <melting_point>
-5.98

>  <molecular_refractivity>
43.26

>  <oscillator_strength_1>
0.0012

>  <oscillator_strength_2>
0.0062

>  <oscillator_strength_3>
0.009

>  <oscillator_strength_4>
0.0021

>  <open_babel_can_smiles>
CC[C@@H]1CCCC[C@@H]1C

>  <mulliken_charges>
27
1   -0.452967
2   -0.451796
3   -0.264935
4   -0.257863
5   -0.258983
6   -0.25946
7   -0.275453
8   -0.076811
9   -0.062344
10   0.138593
11   0.14113
12   0.148784
13   0.137921
14   0.143258
15   0.139162
16   0.132102
17   0.135265
18   0.125583
19   0.127583
20   0.13164
21   0.12854
22   0.126185
23   0.127406
24   0.126046
25   0.123163
26   0.11391
27   0.11434

>  <lowdin_charges>
27
1   -0.44741
2   -0.445863
3   -0.279301
4   -0.277615
5   -0.279881
6   -0.281503
7   -0.280464
8   -0.127215
9   -0.129469
10   0.148195
11   0.144482
12   0.149137
13   0.146415
14   0.148177
15   0.145961
16   0.141694
17   0.139187
18   0.137695
19   0.140776
20   0.139868
21   0.141163
22   0.140791
23   0.138025
24   0.139353
25   0.137897
26   0.135225
27   0.134679

$$$$

