PCCDB-ID:  41697
public computational chemistry database (PCCDB) project, http://pccdb.org

 22 22  0  0  1  0  0  0  0  0999 V2000
    2.9281   -1.0494   -3.8119 C   0  0  0  0  0  0  0  0  0  0  0  0
    5.7222   -3.6981    0.5391 C   0  0  0  0  0  0  0  0  0  0  0  0
    3.5163    0.3075   -3.4077 C   0  0  0  0  0  0  0  0  0  0  0  0
    4.6583   -2.7679   -0.0572 C   0  0  0  0  0  0  0  0  0  0  0  0
    4.8738    0.2166   -2.6893 C   0  0  0  0  0  0  0  0  0  0  0  0
    5.2155   -1.8893   -1.1535 C   0  0  1  0  0  0  0  0  0  0  0  0
    4.8064   -0.4897   -1.3529 C   0  0  1  0  0  0  0  0  0  0  0  0
    6.0650   -0.8062   -0.7327 O   0  0  0  0  0  0  0  0  0  0  0  0
    3.6103   -1.5925   -4.4777 H   0  0  0  0  0  0  0  0  0  0  0  0
    2.7420   -1.6853   -2.9390 H   0  0  0  0  0  0  0  0  0  0  0  0
    1.9765   -0.9248   -4.3409 H   0  0  0  0  0  0  0  0  0  0  0  0
    5.3003   -4.3240    1.3330 H   0  0  0  0  0  0  0  0  0  0  0  0
    6.5456   -3.1147    0.9642 H   0  0  0  0  0  0  0  0  0  0  0  0
    6.1414   -4.3640   -0.2250 H   0  0  0  0  0  0  0  0  0  0  0  0
    2.8012    0.8397   -2.7641 H   0  0  0  0  0  0  0  0  0  0  0  0
    3.6377    0.9315   -4.3023 H   0  0  0  0  0  0  0  0  0  0  0  0
    4.2385   -2.1288    0.7295 H   0  0  0  0  0  0  0  0  0  0  0  0
    3.8273   -3.3596   -0.4671 H   0  0  0  0  0  0  0  0  0  0  0  0
    5.2630    1.2301   -2.5201 H   0  0  0  0  0  0  0  0  0  0  0  0
    5.6080   -0.2957   -3.3250 H   0  0  0  0  0  0  0  0  0  0  0  0
    5.6013   -2.4244   -2.0266 H   0  0  0  0  0  0  0  0  0  0  0  0
    4.0677   -0.0848   -0.6541 H   0  0  0  0  0  0  0  0  0  0  0  0
  1  3  1  0  0  0  0
  1 10  1  0  0  0  0
  2 13  1  0  0  0  0
  2 12  1  0  0  0  0
  3 15  1  0  0  0  0
  3  5  1  0  0  0  0
  4  2  1  0  0  0  0
  4 17  1  0  0  0  0
  5 19  1  0  0  0  0
  5  7  1  0  0  0  0
  6 21  1  6  0  0  0
  6  8  1  0  0  0  0
  6  4  1  0  0  0  0
  7  6  1  0  0  0  0
  7  8  1  0  0  0  0
  7 22  1  1  0  0  0
  9  1  1  0  0  0  0
 11  1  1  0  0  0  0
 14  2  1  0  0  0  0
 16  3  1  0  0  0  0
 18  4  1  0  0  0  0
 20  5  1  0  0  0  0
M  END
>  <HBA>
1

>  <HBD>
0

>  <TPSA>
12.53

>  <cid>
41697

>  <dipole>
1.91

>  <excitation_energy_1>
6.722

>  <excitation_energy_2>
6.963

>  <excitation_energy_3>
6.973

>  <excitation_energy_4>
7.13

>  <homo_energy>
-6.98

>  <homo_lumo_gap>
9.233

>  <logP>
1.964

>  <lumo_energy>
2.253

>  <melting_point>
-13.6

>  <molecular_refractivity>
34.73

>  <oscillator_strength_1>
0.0044

>  <oscillator_strength_2>
0.0103

>  <oscillator_strength_3>
0.0062

>  <oscillator_strength_4>
0.0053

>  <open_babel_can_smiles>
CCC[C@@H]1O[C@H]1CC

>  <mulliken_charges>
22
1   -0.443726
2   -0.44764
3   -0.259082
4   -0.277407
5   -0.279282
6   0.100389
7   0.092168
8   -0.472173
9   0.142737
10   0.147745
11   0.145064
12   0.144489
13   0.166262
14   0.142426
15   0.13418
16   0.138308
17   0.143624
18   0.136692
19   0.145971
20   0.140062
21   0.130099
22   0.129093

>  <lowdin_charges>
22
1   -0.449297
2   -0.447157
3   -0.274454
4   -0.279634
5   -0.281005
6   -0.029689
7   -0.027161
8   -0.296356
9   0.148339
10   0.148832
11   0.151016
12   0.152028
13   0.15969
14   0.148402
15   0.141949
16   0.146382
17   0.151746
18   0.147916
19   0.151958
20   0.150164
21   0.143074
22   0.143258

$$$$

