PCCDB-ID:  58379
public computational chemistry database (PCCDB) project, http://pccdb.org

 36 38  0  0  1  0  0  0  0  0999 V2000
    2.3500    0.9010   -1.3829 C   0  0  0  0  0  0  0  0  0  0  0  0
    4.9438   -3.8201   -0.6988 C   0  0  0  0  0  0  0  0  0  0  0  0
    3.7127   -3.5236   -2.8740 C   0  0  0  0  0  0  0  0  0  0  0  0
    2.5255   -4.4998   -0.8809 C   0  0  0  0  0  0  0  0  0  0  0  0
    4.3588   -1.5034   -1.5127 C   0  0  0  0  0  0  0  0  0  0  0  0
    3.1725   -2.4805    0.4752 C   0  0  0  0  0  0  0  0  0  0  0  0
    1.9429   -2.1814   -1.6881 C   0  0  0  0  0  0  0  0  0  0  0  0
    3.1033    0.7642    1.8236 C   0  0  0  0  0  0  0  0  0  0  0  0
    2.5450   -0.1405   -0.2690 C   0  0  1  0  0  0  0  0  0  0  0  0
    4.7867   -2.9231   -1.9439 C   0  0  1  0  0  0  0  0  0  0  0  0
    3.5974   -3.8986    0.0484 C   0  0  2  0  0  0  0  0  0  0  0  0
    2.3674   -3.6008   -2.1231 C   0  0  1  0  0  0  0  0  0  0  0  0
    3.0079   -1.5488   -0.7551 C   0  0  2  0  0  0  0  0  0  0  0  0
    3.5134    0.4075    0.6831 N   0  0  0  0  0  0  0  0  0  0  0  0
    3.9166    1.3039    2.7587 O   0  0  0  0  0  0  0  0  0  0  0  0
    1.6534    0.5520   -2.1511 H   0  0  0  0  0  0  0  0  0  0  0  0
    3.3026    1.1496   -1.8602 H   0  0  0  0  0  0  0  0  0  0  0  0
    1.9435    1.8240   -0.9553 H   0  0  0  0  0  0  0  0  0  0  0  0
    5.7195   -3.4126   -0.0359 H   0  0  0  0  0  0  0  0  0  0  0  0
    5.2724   -4.8260   -0.9957 H   0  0  0  0  0  0  0  0  0  0  0  0
    4.0164   -4.5260   -3.2066 H   0  0  0  0  0  0  0  0  0  0  0  0
    3.6069   -2.9061   -3.7772 H   0  0  0  0  0  0  0  0  0  0  0  0
    1.5671   -4.5819   -0.3493 H   0  0  0  0  0  0  0  0  0  0  0  0
    2.8107   -5.5171   -1.1833 H   0  0  0  0  0  0  0  0  0  0  0  0
    4.2721   -0.8663   -2.4033 H   0  0  0  0  0  0  0  0  0  0  0  0
    5.1228   -1.0502   -0.8699 H   0  0  0  0  0  0  0  0  0  0  0  0
    3.9201   -2.0583    1.1568 H   0  0  0  0  0  0  0  0  0  0  0  0
    2.2236   -2.5240    1.0313 H   0  0  0  0  0  0  0  0  0  0  0  0
    0.9725   -2.2222   -1.1715 H   0  0  0  0  0  0  0  0  0  0  0  0
    1.7997   -1.5623   -2.5830 H   0  0  0  0  0  0  0  0  0  0  0  0
    2.0776    0.6911    2.2014 H   0  0  0  0  0  0  0  0  0  0  0  0
    1.5654   -0.2914    0.2234 H   0  0  0  0  0  0  0  0  0  0  0  0
    5.7445   -2.8637   -2.4781 H   0  0  0  0  0  0  0  0  0  0  0  0
    3.7070   -4.5282    0.9420 H   0  0  0  0  0  0  0  0  0  0  0  0
    1.5978   -4.0176   -2.7867 H   0  0  0  0  0  0  0  0  0  0  0  0
    4.8041    1.3404    2.3544 H   0  0  0  0  0  0  0  0  0  0  0  0
  1 18  1  0  0  0  0
  1  9  1  0  0  0  0
  2 19  1  0  0  0  0
  2 11  1  0  0  0  0
  3 12  1  0  0  0  0
  3 10  1  0  0  0  0
  4 23  1  0  0  0  0
  4 11  1  0  0  0  0
  5 26  1  0  0  0  0
  5 13  1  0  0  0  0
  6 28  1  0  0  0  0
  6 27  1  0  0  0  0
  7 29  1  0  0  0  0
  7 13  1  0  0  0  0
  8 31  1  0  0  0  0
  8 15  1  0  0  0  0
  9 32  1  1  0  0  0
  9 14  1  0  0  0  0
 10 33  1  6  0  0  0
 10  5  1  0  0  0  0
 10  2  1  0  0  0  0
 11  6  1  0  0  0  0
 11 34  1  1  0  0  0
 12 35  1  6  0  0  0
 12  7  1  0  0  0  0
 12  4  1  0  0  0  0
 13  9  1  1  0  0  0
 13  6  1  0  0  0  0
 14  8  2  0  0  0  0
 16  1  1  0  0  0  0
 17  1  1  0  0  0  0
 20  2  1  0  0  0  0
 21  3  1  0  0  0  0
 22  3  1  0  0  0  0
 24  4  1  0  0  0  0
 25  5  1  0  0  0  0
 30  7  1  0  0  0  0
 36 15  1  0  0  0  0
M  END
>  <HBA>
2

>  <HBD>
1

>  <TPSA>
29.1

>  <cid>
58379

>  <dipole>
0.44

>  <excitation_energy_1>
5.975

>  <excitation_energy_2>
6.384

>  <excitation_energy_3>
6.508

>  <excitation_energy_4>
6.525

>  <homo_energy>
-6.89

>  <homo_lumo_gap>
7.565

>  <logP>
3.364

>  <lumo_energy>
0.675

>  <melting_point>
103.78

>  <molecular_refractivity>
61.39

>  <oscillator_strength_1>
0.0012

>  <oscillator_strength_2>
0.0001

>  <oscillator_strength_3>
0.0009

>  <oscillator_strength_4>
0.0202

>  <open_babel_can_smiles>
O/C=N/[C@H]([C@]12C[C@H]3C[C@@H](C2)C[C@@H](C1)C3)C

>  <mulliken_charges>
36
1   -0.450294
2   -0.263807
3   -0.263924
4   -0.262816
5   -0.278414
6   -0.281363
7   -0.281272
8   0.282659
9   0.013017
10   -0.092198
11   -0.089431
12   -0.090103
13   0.091935
14   -0.405792
15   -0.562371
16   0.145599
17   0.158087
18   0.141686
19   0.125026
20   0.122576
21   0.123545
22   0.123065
23   0.12267
24   0.123544
25   0.122857
26   0.142347
27   0.13847
28   0.114307
29   0.120278
30   0.127437
31   0.138603
32   0.100322
33   0.113042
34   0.112763
35   0.113165
36   0.404782

>  <lowdin_charges>
36
1   -0.451766
2   -0.281405
3   -0.280652
4   -0.28009
5   -0.283358
6   -0.283639
7   -0.281509
8   0.009486
9   -0.052944
10   -0.130481
11   -0.130985
12   -0.131485
13   -0.003452
14   -0.222948
15   -0.36058
16   0.152066
17   0.15605
18   0.151523
19   0.140605
20   0.137689
21   0.138255
22   0.138398
23   0.137997
24   0.1379
25   0.139112
26   0.14964
27   0.147285
28   0.134558
29   0.136594
30   0.140391
31   0.137522
32   0.119462
33   0.137587
34   0.137972
35   0.139012
36   0.356188

$$$$

