PCCDB-ID:  398
public computational chemistry database (PCCDB) project, http://pccdb.org

 13 12  0  0  0  0  0  0  0  0999 V2000
    1.0417   -0.0460    0.0955 C   0  0  0  0  0  0  0  0  0  0  0  0
    3.1624    1.3716    0.2340 C   0  0  0  0  0  0  0  0  0  0  0  0
    2.5689   -0.0285    0.0889 C   0  0  0  0  0  0  0  0  0  0  0  0
    3.0675   -0.8849    1.2466 N   0  0  0  0  0  0  0  0  0  0  0  0
    3.7546   -1.8640    0.9725 O   0  0  0  0  0  0  0  0  0  0  0  0
    2.7478   -0.5346    2.3801 O   0  0  0  0  0  0  0  0  0  0  0  0
    0.6711    0.5293   -0.7592 H   0  0  0  0  0  0  0  0  0  0  0  0
    0.6578    0.4033    1.0153 H   0  0  0  0  0  0  0  0  0  0  0  0
    0.6556   -1.0670    0.0130 H   0  0  0  0  0  0  0  0  0  0  0  0
    2.8533    1.9841   -0.6191 H   0  0  0  0  0  0  0  0  0  0  0  0
    4.2564    1.3390    0.2526 H   0  0  0  0  0  0  0  0  0  0  0  0
    2.8074    1.8442    1.1538 H   0  0  0  0  0  0  0  0  0  0  0  0
    2.9649   -0.5340   -0.7933 H   0  0  0  0  0  0  0  0  0  0  0  0
  1  8  1  0  0  0  0
  2 11  1  0  0  0  0
  2 12  1  0  0  0  0
  3  1  1  0  0  0  0
  3  2  1  0  0  0  0
  3  4  1  0  0  0  0
  4  6  2  0  0  0  0
  5  4  2  0  0  0  0
  7  1  1  0  0  0  0
  9  1  1  0  0  0  0
 10  2  1  0  0  0  0
 13  3  1  0  0  0  0
M  END
>  <HBA>
0

>  <HBD>
0

>  <TPSA>
45.82

>  <cid>
398

>  <dipole>
3.72

>  <excitation_energy_1>
4.139

>  <excitation_energy_2>
4.41

>  <excitation_energy_3>
6.844

>  <excitation_energy_4>
7.033

>  <homo_energy>
-7.87

>  <homo_lumo_gap>
6.166

>  <logP>
1.195

>  <lumo_energy>
-1.703

>  <melting_point>
6.19

>  <molecular_refractivity>
24.64

>  <oscillator_strength_1>
0.0002

>  <oscillator_strength_2>
0.0001

>  <oscillator_strength_3>
0.1248

>  <oscillator_strength_4>
0.0037

>  <open_babel_can_smiles>
CC(N(=O)=O)C

>  <mulliken_charges>
13
1   -0.455761
2   -0.455692
3   -0.002517
4   0.460493
5   -0.376974
6   -0.37906
7   0.162815
8   0.182631
9   0.170782
10   0.163064
11   0.171047
12   0.182359
13   0.176813

>  <lowdin_charges>
13
1   -0.445838
2   -0.444408
3   -0.074244
4   0.291515
5   -0.242091
6   -0.248964
7   0.165026
8   0.170169
9   0.163769
10   0.165066
11   0.162688
12   0.169968
13   0.167342

$$$$

