PCCDB-ID:  6984
public computational chemistry database (PCCDB) project, http://pccdb.org

 25 25  0  0  1  0  0  0  0  0999 V2000
    3.0318   -0.5208   -1.2194 C   0  0  0  0  0  0  0  0  0  0  0  0
    2.5475    1.1755    2.2911 C   0  0  0  0  0  0  0  0  0  0  0  0
    2.4779   -0.2392    0.1807 C   0  0  0  0  0  0  0  0  0  0  0  0
    6.3873   -1.0487    2.1643 C   0  0  0  0  0  0  0  0  0  0  0  0
    7.4128   -0.2406    1.6753 C   0  0  0  0  0  0  0  0  0  0  0  0
    5.0597   -0.6908    1.9243 C   0  0  0  0  0  0  0  0  0  0  0  0
    7.1015    0.9109    0.9545 C   0  0  0  0  0  0  0  0  0  0  0  0
    3.2570    0.8415    0.9642 C   0  0  2  0  0  0  0  0  0  0  0  0
    4.7131    0.4581    1.2031 C   0  0  0  0  0  0  0  0  0  0  0  0
    5.7663    1.2572    0.7205 C   0  0  0  0  0  0  0  0  0  0  0  0
    5.4392    2.3891    0.0136 O   0  0  0  0  0  0  0  0  0  0  0  0
    2.4278   -1.2746   -1.7375 H   0  0  0  0  0  0  0  0  0  0  0  0
    4.0621   -0.8901   -1.1732 H   0  0  0  0  0  0  0  0  0  0  0  0
    3.0322    0.3880   -1.8334 H   0  0  0  0  0  0  0  0  0  0  0  0
    1.5221    1.5175    2.1056 H   0  0  0  0  0  0  0  0  0  0  0  0
    3.0769    1.9659    2.8340 H   0  0  0  0  0  0  0  0  0  0  0  0
    2.4924    0.2991    2.9481 H   0  0  0  0  0  0  0  0  0  0  0  0
    2.4549   -1.1715    0.7625 H   0  0  0  0  0  0  0  0  0  0  0  0
    1.4329    0.0906    0.0984 H   0  0  0  0  0  0  0  0  0  0  0  0
    6.6163   -1.9484    2.7282 H   0  0  0  0  0  0  0  0  0  0  0  0
    8.4532   -0.5001    1.8512 H   0  0  0  0  0  0  0  0  0  0  0  0
    4.2649   -1.3249    2.3103 H   0  0  0  0  0  0  0  0  0  0  0  0
    7.8964    1.5481    0.5691 H   0  0  0  0  0  0  0  0  0  0  0  0
    3.2545    1.7496    0.3526 H   0  0  0  0  0  0  0  0  0  0  0  0
    6.2584    2.8338   -0.2528 H   0  0  0  0  0  0  0  0  0  0  0  0
  1 13  1  0  0  0  0
  1  3  1  0  0  0  0
  2 16  1  0  0  0  0
  2 17  1  0  0  0  0
  3 18  1  0  0  0  0
  3  8  1  0  0  0  0
  4 20  1  0  0  0  0
  5 21  1  0  0  0  0
  5  4  2  0  0  0  0
  6  4  1  0  0  0  0
  6 22  1  0  0  0  0
  7  5  1  0  0  0  0
  8 24  1  6  0  0  0
  8  9  1  0  0  0  0
  8  2  1  0  0  0  0
  9  6  2  0  0  0  0
 10  7  2  0  0  0  0
 10  9  1  0  0  0  0
 11 10  1  0  0  0  0
 12  1  1  0  0  0  0
 14  1  1  0  0  0  0
 15  2  1  0  0  0  0
 19  3  1  0  0  0  0
 23  7  1  0  0  0  0
 25 11  1  0  0  0  0
M  END
>  <HBA>
1

>  <HBD>
1

>  <TPSA>
20.23

>  <cid>
6984

>  <dipole>
1.23

>  <excitation_energy_1>
4.988

>  <excitation_energy_2>
5.124

>  <excitation_energy_3>
5.689

>  <excitation_energy_4>
5.74

>  <homo_energy>
-5.834

>  <homo_lumo_gap>
5.899

>  <logP>
2.906

>  <lumo_energy>
0.065

>  <melting_point>
46.13

>  <molecular_refractivity>
47.85

>  <oscillator_strength_1>
0.0521

>  <oscillator_strength_2>
0.0001

>  <oscillator_strength_3>
0.0033

>  <oscillator_strength_4>
0.019

>  <open_babel_can_smiles>
CC[C@H](c1ccccc1O)C

>  <mulliken_charges>
25
1   -0.445096
2   -0.442101
3   -0.2455
4   -0.13119
5   -0.137796
6   -0.20165
7   -0.187614
8   -0.15607
9   0.143416
10   0.281477
11   -0.647337
12   0.137701
13   0.153186
14   0.143379
15   0.138927
16   0.149078
17   0.138869
18   0.12684
19   0.128599
20   0.123605
21   0.127645
22   0.126439
23   0.11343
24   0.154985
25   0.406779

>  <lowdin_charges>
25
1   -0.447948
2   -0.440117
3   -0.268439
4   -0.17806
5   -0.149706
6   -0.156141
7   -0.215866
8   -0.125182
9   -0.030195
10   0.094158
11   -0.386143
12   0.149045
13   0.151595
14   0.147955
15   0.1459
16   0.153812
17   0.145302
18   0.136763
19   0.13895
20   0.156099
21   0.156139
22   0.156653
23   0.15186
24   0.156727
25   0.356839

$$$$

