PCCDB-ID:  68474
public computational chemistry database (PCCDB) project, http://pccdb.org

 20 20  0  0  0  0  0  0  0  0999 V2000
    1.4930   -0.7248    0.1366 C   0  0  0  0  0  0  0  0  0  0  0  0
    3.8311   -0.2619   -3.4211 C   0  0  0  0  0  0  0  0  0  0  0  0
    4.5242    0.9094   -3.7158 C   0  0  0  0  0  0  0  0  0  0  0  0
    3.2062   -0.3860   -2.1857 C   0  0  0  0  0  0  0  0  0  0  0  0
    4.5792    1.9315   -2.7730 C   0  0  0  0  0  0  0  0  0  0  0  0
    2.6088    0.3053    0.1016 C   0  0  0  0  0  0  0  0  0  0  0  0
    3.2803    0.6187   -1.2001 C   0  0  0  0  0  0  0  0  0  0  0  0
    3.9904    1.8182   -1.5054 C   0  0  0  0  0  0  0  0  0  0  0  0
    4.1680    3.0970   -0.6754 C   0  0  0  0  0  0  0  0  0  0  0  0
    2.9357    0.8260    1.1676 O   0  0  0  0  0  0  0  0  0  0  0  0
    4.3925    4.1451   -1.2460 O   0  0  0  0  0  0  0  0  0  0  0  0
    4.1316    3.0365    0.6515 O   0  0  0  0  0  0  0  0  0  0  0  0
    1.9029   -1.7403    0.0764 H   0  0  0  0  0  0  0  0  0  0  0  0
    0.7873   -0.5982   -0.6896 H   0  0  0  0  0  0  0  0  0  0  0  0
    0.9741   -0.6253    1.0914 H   0  0  0  0  0  0  0  0  0  0  0  0
    3.7676   -1.0692   -4.1447 H   0  0  0  0  0  0  0  0  0  0  0  0
    5.0099    1.0365   -4.6791 H   0  0  0  0  0  0  0  0  0  0  0  0
    2.6582   -1.2968   -1.9748 H   0  0  0  0  0  0  0  0  0  0  0  0
    5.0776    2.8656   -3.0032 H   0  0  0  0  0  0  0  0  0  0  0  0
    3.8542    2.1352    0.9627 H   0  0  0  0  0  0  0  0  0  0  0  0
  1 15  1  0  0  0  0
  2  4  1  0  0  0  0
  3  2  2  0  0  0  0
  3  5  1  0  0  0  0
  4 18  1  0  0  0  0
  4  7  2  0  0  0  0
  5  8  2  0  0  0  0
  6  1  1  0  0  0  0
  6 10  2  0  0  0  0
  7  6  1  0  0  0  0
  8  7  1  0  0  0  0
  8  9  1  0  0  0  0
  9 12  1  0  0  0  0
 11  9  2  0  0  0  0
 12 20  1  0  0  0  0
 13  1  1  0  0  0  0
 14  1  1  0  0  0  0
 16  2  1  0  0  0  0
 17  3  1  0  0  0  0
 19  5  1  0  0  0  0
M  END
>  <HBA>
3

>  <HBD>
1

>  <TPSA>
54.37

>  <cid>
68474

>  <dipole>
6.97

>  <excitation_energy_1>
3.795

>  <excitation_energy_2>
3.983

>  <excitation_energy_3>
4.42

>  <excitation_energy_4>
4.823

>  <homo_energy>
-7.037

>  <homo_lumo_gap>
4.634

>  <logP>
1.587

>  <lumo_energy>
-2.403

>  <melting_point>
130.54

>  <molecular_refractivity>
43.6

>  <oscillator_strength_1>
0.0082

>  <oscillator_strength_2>
0.0032

>  <oscillator_strength_3>
0.0302

>  <oscillator_strength_4>
0.1343

>  <open_babel_can_smiles>
OC(=O)c1ccccc1C(=O)C

>  <mulliken_charges>
20
1   -0.540977
2   -0.121498
3   -0.117072
4   -0.181853
5   -0.157581
6   0.418696
7   0.033822
8   -0.007288
9   0.561214
10   -0.482938
11   -0.460644
12   -0.591921
13   0.187779
14   0.182934
15   0.196201
16   0.148284
17   0.152598
18   0.144399
19   0.186637
20   0.449207

>  <lowdin_charges>
20
1   -0.470441
2   -0.146073
3   -0.130659
4   -0.145761
5   -0.126536
6   0.184606
7   -0.051775
8   -0.033114
9   0.187971
10   -0.247276
11   -0.262673
12   -0.352787
13   0.179701
14   0.175095
15   0.183203
16   0.167708
17   0.168735
18   0.167547
19   0.188993
20   0.363537

$$$$

