PCCDB-ID:  20096
public computational chemistry database (PCCDB) project, http://pccdb.org

 31 32  0  0  0  0  0  0  0  0999 V2000
    0.7577   -0.0079    0.1305 C   0  0  0  0  0  0  0  0  0  0  0  0
    2.8634    2.5317   -0.0561 C   0  0  0  0  0  0  0  0  0  0  0  0
    1.3149   -4.3654    0.1240 C   0  0  0  0  0  0  0  0  0  0  0  0
    7.2402    0.0978    0.4107 C   0  0  0  0  0  0  0  0  0  0  0  0
    3.9793   -3.4140   -0.0427 C   0  0  0  0  0  0  0  0  0  0  0  0
    6.4130   -3.8764   -0.1597 C   0  0  0  0  0  0  0  0  0  0  0  0
    2.2549   -0.0149    0.0404 C   0  0  0  0  0  0  0  0  0  0  0  0
    3.0908    1.0612   -0.0349 C   0  0  0  0  0  0  0  0  0  0  0  0
    5.3012   -2.9072   -0.1170 C   0  0  0  0  0  0  0  0  0  0  0  0
    2.8819   -2.5740    0.0284 C   0  0  0  0  0  0  0  0  0  0  0  0
    3.1133   -1.1781    0.0129 C   0  0  0  0  0  0  0  0  0  0  0  0
    5.5560   -1.5240   -0.1401 C   0  0  0  0  0  0  0  0  0  0  0  0
    4.4258   -0.6967   -0.0772 C   0  0  0  0  0  0  0  0  0  0  0  0
    6.2589   -5.0887   -0.1557 O   0  0  0  0  0  0  0  0  0  0  0  0
    1.5766   -2.9691    0.1075 O   0  0  0  0  0  0  0  0  0  0  0  0
    6.8421   -1.0912   -0.2779 O   0  0  0  0  0  0  0  0  0  0  0  0
    4.4153    0.6736   -0.1090 O   0  0  0  0  0  0  0  0  0  0  0  0
    0.3620    1.0123    0.1312 H   0  0  0  0  0  0  0  0  0  0  0  0
    0.4145   -0.5067    1.0434 H   0  0  0  0  0  0  0  0  0  0  0  0
    0.3089   -0.5468   -0.7108 H   0  0  0  0  0  0  0  0  0  0  0  0
    1.7955    2.7546    0.0007 H   0  0  0  0  0  0  0  0  0  0  0  0
    3.2596    2.9800   -0.9756 H   0  0  0  0  0  0  0  0  0  0  0  0
    3.3619    3.0227    0.7890 H   0  0  0  0  0  0  0  0  0  0  0  0
    0.2305   -4.4662    0.1960 H   0  0  0  0  0  0  0  0  0  0  0  0
    1.7865   -4.8504    0.9882 H   0  0  0  0  0  0  0  0  0  0  0  0
    1.6682   -4.8493   -0.7956 H   0  0  0  0  0  0  0  0  0  0  0  0
    8.3265    0.1424    0.3104 H   0  0  0  0  0  0  0  0  0  0  0  0
    6.9728    0.0435    1.4730 H   0  0  0  0  0  0  0  0  0  0  0  0
    6.7901    0.9897   -0.0322 H   0  0  0  0  0  0  0  0  0  0  0  0
    3.8831   -4.4931   -0.0372 H   0  0  0  0  0  0  0  0  0  0  0  0
    7.4264   -3.4368   -0.1911 H   0  0  0  0  0  0  0  0  0  0  0  0
  1 18  1  0  0  0  0
  1 19  1  0  0  0  0
  2  8  1  0  0  0  0
  2 21  1  0  0  0  0
  2 23  1  0  0  0  0
  3 24  1  0  0  0  0
  3 25  1  0  0  0  0
  4 28  1  0  0  0  0
  5 30  1  0  0  0  0
  5 10  2  0  0  0  0
  6 14  2  0  0  0  0
  6  9  1  0  0  0  0
  7  1  1  0  0  0  0
  8  7  2  0  0  0  0
  9  5  1  0  0  0  0
 10 15  1  0  0  0  0
 11 10  1  0  0  0  0
 11  7  1  0  0  0  0
 12  9  2  0  0  0  0
 12 13  1  0  0  0  0
 13 11  2  0  0  0  0
 15  3  1  0  0  0  0
 16 12  1  0  0  0  0
 16  4  1  0  0  0  0
 17 13  1  0  0  0  0
 17  8  1  0  0  0  0
 20  1  1  0  0  0  0
 22  2  1  0  0  0  0
 26  3  1  0  0  0  0
 27  4  1  0  0  0  0
 29  4  1  0  0  0  0
 31  6  1  0  0  0  0
M  END
>  <HBA>
4

>  <HBD>
0

>  <TPSA>
48.67

>  <cid>
20096

>  <dipole>
4.94

>  <excitation_energy_1>
3.548

>  <excitation_energy_2>
3.632

>  <excitation_energy_3>
4.356

>  <excitation_energy_4>
4.916

>  <homo_energy>
-5.407

>  <homo_lumo_gap>
4.044

>  <logP>
2.879

>  <lumo_energy>
-1.363

>  <melting_point>
103.55

>  <molecular_refractivity>
64.52

>  <oscillator_strength_1>
0.1364

>  <oscillator_strength_2>
0.0558

>  <oscillator_strength_3>
0.2522

>  <oscillator_strength_4>
0.0078

>  <open_babel_can_smiles>
O=Cc1cc(OC)c2c(c1OC)oc(c2C)C

>  <mulliken_charges>
31
1   -0.513757
2   -0.539246
3   -0.216962
4   -0.219934
5   -0.273955
6   0.197433
7   0.065799
8   0.295211
9   0.025851
10   0.319663
11   0.063163
12   0.257893
13   0.274152
14   -0.431201
15   -0.525891
16   -0.526826
17   -0.529381
18   0.145797
19   0.171537
20   0.172764
21   0.172425
22   0.177049
23   0.174529
24   0.167313
25   0.159029
26   0.159502
27   0.166903
28   0.152814
29   0.173428
30   0.16238
31   0.122517

>  <lowdin_charges>
31
1   -0.434364
2   -0.442257
3   -0.275439
4   -0.272646
5   -0.197251
6   0.040329
7   -0.050677
8   0.079797
9   -0.076883
10   0.085627
11   -0.032696
12   0.078814
13   0.05459
14   -0.250418
15   -0.201755
16   -0.205249
17   -0.127733
18   0.152469
19   0.167161
20   0.168296
21   0.168838
22   0.170922
23   0.170147
24   0.159657
25   0.15027
26   0.150086
27   0.158549
28   0.146122
29   0.156351
30   0.177931
31   0.131414

$$$$

