PCCDB-ID:  23843
public computational chemistry database (PCCDB) project, http://pccdb.org

 31 31  0  0  1  0  0  0  0  0999 V2000
    2.4485    1.8902   -0.3158 C   0  0  0  0  0  0  0  0  0  0  0  0
    4.1613    1.8628   -2.1687 C   0  0  0  0  0  0  0  0  0  0  0  0
    5.7243    0.5591    4.5175 C   0  0  0  0  0  0  0  0  0  0  0  0
    3.4667   -0.2473    4.3488 C   0  0  0  0  0  0  0  0  0  0  0  0
    5.9038   -0.1852    5.6830 C   0  0  0  0  0  0  0  0  0  0  0  0
    3.6336   -1.0014    5.5071 C   0  0  0  0  0  0  0  0  0  0  0  0
    4.6569    0.4037    1.3117 C   0  0  0  0  0  0  0  0  0  0  0  0
    3.6922    1.1922   -0.8744 C   0  0  0  0  0  0  0  0  0  0  0  0
    4.5053    0.5385    3.8324 C   0  0  0  0  0  0  0  0  0  0  0  0
    4.8594   -0.9713    6.1796 C   0  0  0  0  0  0  0  0  0  0  0  0
    4.3255    1.2992    2.5364 C   0  0  1  0  0  0  0  0  0  0  0  0
    4.8045    1.2177    0.0939 N   0  0  0  0  0  0  0  0  0  0  0  0
    4.9752   -1.7247    7.3179 O   0  0  0  0  0  0  0  0  0  0  0  0
    5.1776    2.4299    2.5030 O   0  0  0  0  0  0  0  0  0  0  0  0
    1.6475    1.8904   -1.0637 H   0  0  0  0  0  0  0  0  0  0  0  0
    2.6775    2.9290   -0.0509 H   0  0  0  0  0  0  0  0  0  0  0  0
    2.0648    1.3871    0.5774 H   0  0  0  0  0  0  0  0  0  0  0  0
    3.3682    1.8456   -2.9235 H   0  0  0  0  0  0  0  0  0  0  0  0
    5.0342    1.3494   -2.5918 H   0  0  0  0  0  0  0  0  0  0  0  0
    4.4382    2.9064   -1.9808 H   0  0  0  0  0  0  0  0  0  0  0  0
    6.5277    1.1821    4.1387 H   0  0  0  0  0  0  0  0  0  0  0  0
    2.5038   -0.2652    3.8416 H   0  0  0  0  0  0  0  0  0  0  0  0
    6.8561   -0.1507    6.2106 H   0  0  0  0  0  0  0  0  0  0  0  0
    2.8269   -1.6066    5.9087 H   0  0  0  0  0  0  0  0  0  0  0  0
    3.9015   -0.3890    1.1981 H   0  0  0  0  0  0  0  0  0  0  0  0
    5.6154   -0.0857    1.5171 H   0  0  0  0  0  0  0  0  0  0  0  0
    3.4155    0.1463   -1.1070 H   0  0  0  0  0  0  0  0  0  0  0  0
    3.2720    1.6183    2.4630 H   0  0  0  0  0  0  0  0  0  0  0  0
    5.6512    0.9347   -0.3917 H   0  0  0  0  0  0  0  0  0  0  0  0
    5.8658   -1.6036    7.6820 H   0  0  0  0  0  0  0  0  0  0  0  0
    5.2557    2.6217    1.5449 H   0  0  0  0  0  0  0  0  0  0  0  0
  1 16  1  0  0  0  0
  1 17  1  0  0  0  0
  2 20  1  0  0  0  0
  2  8  1  0  0  0  0
  3  5  2  0  0  0  0
  4  6  1  0  0  0  0
  5 10  1  0  0  0  0
  5 23  1  0  0  0  0
  6 24  1  0  0  0  0
  6 10  2  0  0  0  0
  7 26  1  0  0  0  0
  7 11  1  0  0  0  0
  8  1  1  0  0  0  0
  8 12  1  0  0  0  0
  9  4  2  0  0  0  0
  9  3  1  0  0  0  0
 10 13  1  0  0  0  0
 11 28  1  6  0  0  0
 11  9  1  0  0  0  0
 12  7  1  0  0  0  0
 13 30  1  0  0  0  0
 14 11  1  0  0  0  0
 15  1  1  0  0  0  0
 18  2  1  0  0  0  0
 19  2  1  0  0  0  0
 21  3  1  0  0  0  0
 22  4  1  0  0  0  0
 25  7  1  0  0  0  0
 27  8  1  0  0  0  0
 29 12  1  0  0  0  0
 31 14  1  0  0  0  0
M  END
>  <HBA>
3

>  <HBD>
3

>  <TPSA>
52.49

>  <cid>
23843

>  <dipole>
2.87

>  <excitation_energy_1>
4.924

>  <excitation_energy_2>
5.084

>  <excitation_energy_3>
5.343

>  <excitation_energy_4>
5.492

>  <homo_energy>
-5.641

>  <homo_lumo_gap>
5.793

>  <logP>
1.815

>  <lumo_energy>
0.152

>  <melting_point>
91.27

>  <molecular_refractivity>
56.62

>  <oscillator_strength_1>
0.0274

>  <oscillator_strength_2>
0.0001

>  <oscillator_strength_3>
0.0054

>  <oscillator_strength_4>
0.0787

>  <open_babel_can_smiles>
O[C@H](c1ccc(cc1)O)CNC(C)C

>  <mulliken_charges>
31
1   -0.441035
2   -0.457653
3   -0.178056
4   -0.188488
5   -0.197602
6   -0.1621
7   -0.1592
8   0.060861
9   0.136289
10   0.350409
11   0.094186
12   -0.587413
13   -0.645782
14   -0.653742
15   0.143486
16   0.154018
17   0.150063
18   0.150125
19   0.138078
20   0.156293
21   0.148827
22   0.119744
23   0.115237
24   0.135701
25   0.132188
26   0.144133
27   0.113714
28   0.116549
29   0.306711
30   0.405634
31   0.398827

>  <lowdin_charges>
31
1   -0.450996
2   -0.448996
3   -0.147336
4   -0.15599
5   -0.214852
6   -0.188965
7   -0.226293
8   -0.052742
9   -0.031564
10   0.101491
11   -0.005359
12   -0.365387
13   -0.382305
14   -0.470098
15   0.153131
16   0.153454
17   0.151658
18   0.156218
19   0.147047
20   0.153827
21   0.169979
22   0.153149
23   0.151161
24   0.166462
25   0.138061
26   0.150458
27   0.118783
28   0.125297
29   0.26152
30   0.355485
31   0.3337

$$$$

