PCCDB-ID:  7686
public computational chemistry database (PCCDB) project, http://pccdb.org

 21 21  0  0  0  0  0  0  0  0999 V2000
   -0.5580    0.8572   -0.0354 C   0  0  0  0  0  0  0  0  0  0  0  0
    1.4235   -0.4171    0.5618 C   0  0  0  0  0  0  0  0  0  0  0  0
   -1.2777   -0.3216   -0.1703 C   0  0  0  0  0  0  0  0  0  0  0  0
    0.7061   -1.5977    0.4311 C   0  0  0  0  0  0  0  0  0  0  0  0
    0.8041    0.8205    0.3114 C   0  0  0  0  0  0  0  0  0  0  0  0
   -0.6379   -1.5397    0.0614 C   0  0  0  0  0  0  0  0  0  0  0  0
    2.2513    2.6160   -0.2690 C   0  0  0  0  0  0  0  0  0  0  0  0
    2.5299    2.1748   -1.7053 C   0  0  0  0  0  0  0  0  0  0  0  0
    1.4936    2.0138    0.5430 N   0  0  0  0  0  0  0  0  0  0  0  0
   -1.3949   -2.7833   -0.0796 N   0  0  0  0  0  0  0  0  0  0  0  0
    2.8656    3.7495    0.1239 O   0  0  0  0  0  0  0  0  0  0  0  0
    3.4096    3.0261   -2.2981 O   0  0  0  0  0  0  0  0  0  0  0  0
    2.0457    1.2192   -2.2518 O   0  0  0  0  0  0  0  0  0  0  0  0
   -2.5828   -2.7011   -0.3989 O   0  0  0  0  0  0  0  0  0  0  0  0
   -0.8024   -3.8445    0.1277 O   0  0  0  0  0  0  0  0  0  0  0  0
   -1.0382    1.8166   -0.1980 H   0  0  0  0  0  0  0  0  0  0  0  0
    2.4666   -0.4388    0.8606 H   0  0  0  0  0  0  0  0  0  0  0  0
   -2.3245   -0.3145   -0.4480 H   0  0  0  0  0  0  0  0  0  0  0  0
    1.1677   -2.5610    0.6100 H   0  0  0  0  0  0  0  0  0  0  0  0
    3.4030    4.0914   -0.6112 H   0  0  0  0  0  0  0  0  0  0  0  0
    3.5525    2.7154   -3.2125 H   0  0  0  0  0  0  0  0  0  0  0  0
  1  5  1  0  0  0  0
  2 17  1  0  0  0  0
  3  1  2  0  0  0  0
  3  6  1  0  0  0  0
  4  2  1  0  0  0  0
  4 19  1  0  0  0  0
  5  9  1  0  0  0  0
  5  2  2  0  0  0  0
  6  4  2  0  0  0  0
  7 11  1  0  0  0  0
  7  9  2  0  0  0  0
  8  7  1  0  0  0  0
 10  6  1  0  0  0  0
 10 15  2  0  0  0  0
 12  8  1  0  0  0  0
 13  8  2  0  0  0  0
 14 10  2  0  0  0  0
 16  1  1  0  0  0  0
 18  3  1  0  0  0  0
 20 11  1  0  0  0  0
 21 12  1  0  0  0  0
M  END
>  <HBA>
4

>  <HBD>
2

>  <TPSA>
112.22

>  <cid>
7686

>  <dipole>
8.17

>  <excitation_energy_1>
3.093

>  <excitation_energy_2>
3.753

>  <excitation_energy_3>
4.009

>  <excitation_energy_4>
4.095

>  <homo_energy>
-6.596

>  <homo_lumo_gap>
4.191

>  <logP>
1.214

>  <lumo_energy>
-2.406

>  <melting_point>
175.55

>  <molecular_refractivity>
51.35

>  <oscillator_strength_1>
0.0031

>  <oscillator_strength_2>
0.0

>  <oscillator_strength_3>
0.3502

>  <oscillator_strength_4>
0.0269

>  <open_babel_can_smiles>
OC(=O)/C(=N\c1ccc(cc1)N(=O)=O)/O

>  <mulliken_charges>
21
1   -0.154608
2   -0.150798
3   -0.156307
4   -0.156517
5   0.280407
6   0.279506
7   0.466309
8   0.560225
9   -0.463241
10   0.371686
11   -0.578518
12   -0.602994
13   -0.417547
14   -0.403857
15   -0.404096
16   0.146505
17   0.143881
18   0.182216
19   0.182053
20   0.441343
21   0.434351

>  <lowdin_charges>
21
1   -0.168457
2   -0.167239
3   -0.126267
4   -0.128126
5   0.078465
6   -0.013095
7   0.11538
8   0.169401
9   -0.117169
10   0.307021
11   -0.335762
12   -0.359848
13   -0.200749
14   -0.255047
15   -0.256874
16   0.169414
17   0.166462
18   0.186353
19   0.187677
20   0.371041
21   0.377417

$$$$

