PCCDB-ID:  35346
public computational chemistry database (PCCDB) project, http://pccdb.org

 28 30  0  0  0  0  0  0  0  0999 V2000
   -1.4328   -0.0617    0.3283 C   0  0  0  0  0  0  0  0  0  0  0  0
   -0.6041   -1.0570    0.8495 C   0  0  0  0  0  0  0  0  0  0  0  0
   -0.8658    1.0003   -0.3787 C   0  0  0  0  0  0  0  0  0  0  0  0
    7.2861    1.0276   -0.8179 C   0  0  0  0  0  0  0  0  0  0  0  0
    7.3369   -0.3040   -0.9191 C   0  0  0  0  0  0  0  0  0  0  0  0
    6.0333    1.8319   -0.5669 C   0  0  0  0  0  0  0  0  0  0  0  0
    6.1503   -1.2297   -0.7973 C   0  0  0  0  0  0  0  0  0  0  0  0
    0.7775   -0.9904    0.6777 C   0  0  0  0  0  0  0  0  0  0  0  0
    0.5127    1.0660   -0.5733 C   0  0  0  0  0  0  0  0  0  0  0  0
    3.5011    1.2994   -0.2686 C   0  0  0  0  0  0  0  0  0  0  0  0
    3.5914   -0.9437   -0.4027 C   0  0  0  0  0  0  0  0  0  0  0  0
    4.8181    0.9532   -0.4656 C   0  0  0  0  0  0  0  0  0  0  0  0
    4.8745   -0.4717   -0.5584 C   0  0  0  0  0  0  0  0  0  0  0  0
    1.3439    0.0717   -0.0401 C   0  0  0  0  0  0  0  0  0  0  0  0
    2.7451    0.1391   -0.2261 N   0  0  0  0  0  0  0  0  0  0  0  0
   -2.5084   -0.1139    0.4701 H   0  0  0  0  0  0  0  0  0  0  0  0
   -1.0316   -1.8851    1.4084 H   0  0  0  0  0  0  0  0  0  0  0  0
   -1.5001    1.7767   -0.7978 H   0  0  0  0  0  0  0  0  0  0  0  0
    8.2069    1.6003   -0.9206 H   0  0  0  0  0  0  0  0  0  0  0  0
    8.2977   -0.7833   -1.1014 H   0  0  0  0  0  0  0  0  0  0  0  0
    5.9153    2.5756   -1.3710 H   0  0  0  0  0  0  0  0  0  0  0  0
    6.1671    2.4278    0.3505 H   0  0  0  0  0  0  0  0  0  0  0  0
    6.3385   -1.9489    0.0160 H   0  0  0  0  0  0  0  0  0  0  0  0
    6.0791   -1.8462   -1.7077 H   0  0  0  0  0  0  0  0  0  0  0  0
    1.4222   -1.7454    1.1161 H   0  0  0  0  0  0  0  0  0  0  0  0
    0.9469    1.8715   -1.1570 H   0  0  0  0  0  0  0  0  0  0  0  0
    3.0388    2.2608   -0.0992 H   0  0  0  0  0  0  0  0  0  0  0  0
    3.1934   -1.9463   -0.4583 H   0  0  0  0  0  0  0  0  0  0  0  0
  1 16  1  0  0  0  0
  1  2  2  0  0  0  0
  2 17  1  0  0  0  0
  3  1  1  0  0  0  0
  4  6  1  0  0  0  0
  5  4  2  0  0  0  0
  5  7  1  0  0  0  0
  6 12  1  0  0  0  0
  6 22  1  0  0  0  0
  7 13  1  0  0  0  0
  7 23  1  0  0  0  0
  8  2  1  0  0  0  0
  8 25  1  0  0  0  0
  9  3  2  0  0  0  0
  9 14  1  0  0  0  0
 10 15  1  0  0  0  0
 10 27  1  0  0  0  0
 11 15  1  0  0  0  0
 12 10  2  0  0  0  0
 13 12  1  0  0  0  0
 13 11  2  0  0  0  0
 14  8  2  0  0  0  0
 15 14  1  0  0  0  0
 18  3  1  0  0  0  0
 19  4  1  0  0  0  0
 20  5  1  0  0  0  0
 21  6  1  0  0  0  0
 24  7  1  0  0  0  0
 26  9  1  0  0  0  0
 28 11  1  0  0  0  0
M  END
>  <HBA>
1

>  <HBD>
0

>  <TPSA>
4.93

>  <cid>
35346

>  <dipole>
1.19

>  <excitation_energy_1>
4.368

>  <excitation_energy_2>
4.438

>  <excitation_energy_3>
4.581

>  <excitation_energy_4>
4.623

>  <homo_energy>
-5.453

>  <homo_lumo_gap>
5.135

>  <logP>
3.132

>  <lumo_energy>
-0.318

>  <melting_point>
78.44

>  <molecular_refractivity>
62.73

>  <oscillator_strength_1>
0.0072

>  <oscillator_strength_2>
0.0029

>  <oscillator_strength_3>
0.0098

>  <oscillator_strength_4>
0.3764

>  <open_babel_can_smiles>
C1=CCc2c(C1)cn(c2)c1ccccc1

>  <mulliken_charges>
28
1   -0.125488
2   -0.140294
3   -0.140267
4   -0.104534
5   -0.104467
6   -0.380951
7   -0.381101
8   -0.163213
9   -0.163193
10   -0.038709
11   -0.039072
12   0.071026
13   0.071586
14   0.32076
15   -0.508498
16   0.131398
17   0.134658
18   0.134648
19   0.116684
20   0.116654
21   0.153228
22   0.154527
23   0.153841
24   0.15397
25   0.142849
26   0.142925
27   0.14554
28   0.145493

>  <lowdin_charges>
28
1   -0.163333
2   -0.148123
3   -0.148864
4   -0.17259
5   -0.17226
6   -0.26788
7   -0.267974
8   -0.177412
9   -0.176635
10   -0.1731
11   -0.172333
12   -0.052967
13   -0.052944
14   0.055865
15   0.023521
16   0.157609
17   0.161315
18   0.161687
19   0.151427
20   0.151047
21   0.15595
22   0.156008
23   0.156272
24   0.155795
25   0.166938
26   0.166653
27   0.163455
28   0.162872

$$$$

