PCCDB-ID:  69327
public computational chemistry database (PCCDB) project, http://pccdb.org

 20 20  0  0  0  0  0  0  0  0999 V2000
   -0.5815    1.1981    0.1234 C   0  0  0  0  0  0  0  0  0  0  0  0
   -1.2369   -0.0318    0.1317 C   0  0  0  0  0  0  0  0  0  0  0  0
    1.5045    0.0836   -0.3338 C   0  0  0  0  0  0  0  0  0  0  0  0
    0.8489   -1.1465   -0.3253 C   0  0  0  0  0  0  0  0  0  0  0  0
    1.5139    2.6110   -0.1050 C   0  0  0  0  0  0  0  0  0  0  0  0
   -1.2465   -2.5592   -0.0969 C   0  0  0  0  0  0  0  0  0  0  0  0
    1.9855    2.9952    1.2334 C   0  0  0  0  0  0  0  0  0  0  0  0
   -1.7497   -2.9267   -1.4285 C   0  0  0  0  0  0  0  0  0  0  0  0
    0.7955    1.2677   -0.1098 C   0  0  0  0  0  0  0  0  0  0  0  0
   -0.5279   -1.2161   -0.0922 C   0  0  0  0  0  0  0  0  0  0  0  0
    2.3529    3.2886    2.2946 N   0  0  0  0  0  0  0  0  0  0  0  0
   -2.1427   -3.2065   -2.4842 N   0  0  0  0  0  0  0  0  0  0  0  0
   -1.1466    2.1092    0.3032 H   0  0  0  0  0  0  0  0  0  0  0  0
   -2.3086   -0.0680    0.3105 H   0  0  0  0  0  0  0  0  0  0  0  0
    2.5761    0.1197   -0.5126 H   0  0  0  0  0  0  0  0  0  0  0  0
    1.4142   -2.0576   -0.5050 H   0  0  0  0  0  0  0  0  0  0  0  0
    2.3788    2.5858   -0.7784 H   0  0  0  0  0  0  0  0  0  0  0  0
    0.8502    3.4021   -0.4737 H   0  0  0  0  0  0  0  0  0  0  0  0
   -0.5744   -3.3547    0.2464 H   0  0  0  0  0  0  0  0  0  0  0  0
   -2.0954   -2.5426    0.5969 H   0  0  0  0  0  0  0  0  0  0  0  0
  1  2  1  0  0  0  0
  1 13  1  0  0  0  0
  2 14  1  0  0  0  0
  3  4  2  0  0  0  0
  3  9  1  0  0  0  0
  4 10  1  0  0  0  0
  5  7  1  0  0  0  0
  6 10  1  0  0  0  0
  6 19  1  0  0  0  0
  6 20  1  0  0  0  0
  7 11  3  0  0  0  0
  8  6  1  0  0  0  0
  9  5  1  0  0  0  0
  9  1  2  0  0  0  0
 10  2  2  0  0  0  0
 12  8  3  0  0  0  0
 15  3  1  0  0  0  0
 16  4  1  0  0  0  0
 17  5  1  0  0  0  0
 18  5  1  0  0  0  0
M  END
>  <HBA>
2

>  <HBD>
0

>  <TPSA>
47.58

>  <cid>
69327

>  <dipole>
0.09

>  <excitation_energy_1>
5.227

>  <excitation_energy_2>
5.79

>  <excitation_energy_3>
6.264

>  <excitation_energy_4>
6.418

>  <homo_energy>
-7.363

>  <homo_lumo_gap>
6.381

>  <logP>
1.819

>  <lumo_energy>
-0.982

>  <melting_point>
78.46

>  <molecular_refractivity>
45.49

>  <oscillator_strength_1>
0.0003

>  <oscillator_strength_2>
0.0722

>  <oscillator_strength_3>
0.0

>  <oscillator_strength_4>
0.0

>  <open_babel_can_smiles>
N#CCc1ccc(cc1)CC#N

>  <mulliken_charges>
20
1   -0.164728
2   -0.164943
3   -0.165272
4   -0.16531
5   -0.442645
6   -0.442681
7   0.367204
8   0.367233
9   0.165128
10   0.165261
11   -0.460326
12   -0.460328
13   0.144091
14   0.144007
15   0.14368
16   0.143768
17   0.20629
18   0.206638
19   0.206361
20   0.206571

>  <lowdin_charges>
20
1   -0.151935
2   -0.148857
3   -0.149189
4   -0.152278
5   -0.26923
6   -0.269286
7   -0.017002
8   -0.016945
9   0.00168
10   0.001684
11   -0.121221
12   -0.121221
13   0.165291
14   0.162942
15   0.162778
16   0.165128
17   0.18904
18   0.189788
19   0.189603
20   0.189228

$$$$

