PCCDB-ID:  25920
public computational chemistry database (PCCDB) project, http://pccdb.org

 27 26  0  0  0  0  0  0  0  0999 V2000
    0.8828    0.1993    0.3858 C   0  0  0  0  0  0  0  0  0  0  0  0
    2.3426   -0.1244    0.0523 C   0  0  0  0  0  0  0  0  0  0  0  0
    2.6112   -0.2188   -1.4549 C   0  0  0  0  0  0  0  0  0  0  0  0
    4.0738   -0.5366   -1.7926 C   0  0  0  0  0  0  0  0  0  0  0  0
    4.3351   -0.6438   -3.3014 C   0  0  0  0  0  0  0  0  0  0  0  0
    6.1955   -1.9519   -7.1519 C   0  0  0  0  0  0  0  0  0  0  0  0
    5.8347   -3.1037   -7.9757 C   0  0  0  0  0  0  0  0  0  0  0  0
    5.7967   -0.9535   -3.6020 C   0  0  0  0  0  0  0  0  0  0  0  0
    5.8407   -2.1326   -5.6724 C   0  0  0  0  0  0  0  0  0  0  0  0
    5.5594   -3.9978   -8.6605 N   0  0  0  0  0  0  0  0  0  0  0  0
    5.4526   -3.1567   -5.1660 O   0  0  0  0  0  0  0  0  0  0  0  0
    6.0559   -0.9692   -5.0327 O   0  0  0  0  0  0  0  0  0  0  0  0
    0.7232    0.2552    1.4685 H   0  0  0  0  0  0  0  0  0  0  0  0
    0.2060   -0.5672   -0.0113 H   0  0  0  0  0  0  0  0  0  0  0  0
    0.5803    1.1618   -0.0452 H   0  0  0  0  0  0  0  0  0  0  0  0
    2.6256   -1.0733    0.5298 H   0  0  0  0  0  0  0  0  0  0  0  0
    2.9970    0.6436    0.4889 H   0  0  0  0  0  0  0  0  0  0  0  0
    2.3243    0.7285   -1.9354 H   0  0  0  0  0  0  0  0  0  0  0  0
    1.9618   -0.9911   -1.8921 H   0  0  0  0  0  0  0  0  0  0  0  0
    4.3606   -1.4800   -1.3055 H   0  0  0  0  0  0  0  0  0  0  0  0
    4.7220    0.2413   -1.3625 H   0  0  0  0  0  0  0  0  0  0  0  0
    4.0598    0.2955   -3.7991 H   0  0  0  0  0  0  0  0  0  0  0  0
    3.7095   -1.4347   -3.7325 H   0  0  0  0  0  0  0  0  0  0  0  0
    5.7026   -1.0494   -7.5310 H   0  0  0  0  0  0  0  0  0  0  0  0
    7.2743   -1.7664   -7.2277 H   0  0  0  0  0  0  0  0  0  0  0  0
    6.0928   -1.9191   -3.1841 H   0  0  0  0  0  0  0  0  0  0  0  0
    6.4591   -0.1725   -3.2198 H   0  0  0  0  0  0  0  0  0  0  0  0
  1 13  1  0  0  0  0
  2  1  1  0  0  0  0
  2 17  1  0  0  0  0
  2 16  1  0  0  0  0
  3  2  1  0  0  0  0
  4  3  1  0  0  0  0
  4 21  1  0  0  0  0
  4 20  1  0  0  0  0
  5  4  1  0  0  0  0
  6  9  1  0  0  0  0
  7  6  1  0  0  0  0
  8  5  1  0  0  0  0
  8 27  1  0  0  0  0
  8 26  1  0  0  0  0
  9 11  2  0  0  0  0
  9 12  1  0  0  0  0
 10  7  3  0  0  0  0
 12  8  1  0  0  0  0
 14  1  1  0  0  0  0
 15  1  1  0  0  0  0
 18  3  1  0  0  0  0
 19  3  1  0  0  0  0
 22  5  1  0  0  0  0
 23  5  1  0  0  0  0
 24  6  1  0  0  0  0
 25  6  1  0  0  0  0
M  END
>  <HBA>
3

>  <HBD>
0

>  <TPSA>
50.09

>  <cid>
25920

>  <dipole>
5.53

>  <excitation_energy_1>
5.861

>  <excitation_energy_2>
7.188

>  <excitation_energy_3>
7.336

>  <excitation_energy_4>
7.528

>  <homo_energy>
-8.0

>  <homo_lumo_gap>
7.761

>  <logP>
2.024

>  <lumo_energy>
-0.239

>  <melting_point>
17.79

>  <molecular_refractivity>
46.41

>  <oscillator_strength_1>
0.0007

>  <oscillator_strength_2>
0.0056

>  <oscillator_strength_3>
0.0889

>  <oscillator_strength_4>
0.0043

>  <open_babel_can_smiles>
CCCCCCOC(=O)CC#N

>  <mulliken_charges>
27
1   -0.44253
2   -0.248715
3   -0.246618
4   -0.265733
5   -0.281472
6   -0.445568
7   0.386807
8   -0.050082
9   0.637051
10   -0.458391
11   -0.446953
12   -0.464414
13   0.144466
14   0.144233
15   0.142252
16   0.13356
17   0.130912
18   0.129707
19   0.134742
20   0.139779
21   0.131135
22   0.144479
23   0.163539
24   0.226791
25   0.229786
26   0.174347
27   0.15689

>  <lowdin_charges>
27
1   -0.443467
2   -0.27319
3   -0.274248
4   -0.275019
5   -0.287676
6   -0.298697
7   -0.006947
8   -0.12885
9   0.20037
10   -0.105485
11   -0.23828
12   -0.191041
13   0.149099
14   0.148834
15   0.146655
16   0.140494
17   0.140258
18   0.138982
19   0.142636
20   0.143683
21   0.140452
22   0.147599
23   0.158063
24   0.204286
25   0.204345
26   0.160882
27   0.156265

$$$$

