PCCDB-ID:  64963
public computational chemistry database (PCCDB) project, http://pccdb.org

 32 32  0  0  0  0  0  0  0  0999 V2000
   -2.2382   -0.9524    0.1430 C   0  0  0  0  0  0  0  0  0  0  0  0
   -2.4162    0.5487   -0.1411 C   0  0  0  0  0  0  0  0  0  0  0  0
   -0.3779   -2.5847    0.1531 C   0  0  0  0  0  0  0  0  0  0  0  0
    1.0836   -2.7628   -0.2840 C   0  0  0  0  0  0  0  0  0  0  0  0
   -0.8556    2.5251   -0.1656 C   0  0  0  0  0  0  0  0  0  0  0  0
    0.5918    2.8738    0.2225 C   0  0  0  0  0  0  0  0  0  0  0  0
    2.1204   -0.4838   -0.4614 C   0  0  0  0  0  0  0  0  0  0  0  0
    1.8675    0.7388    0.4431 C   0  0  0  0  0  0  0  0  0  0  0  0
   -0.9398   -1.3521   -0.3839 N   0  0  0  0  0  0  0  0  0  0  0  0
   -1.3094    1.2905    0.4676 N   0  0  0  0  0  0  0  0  0  0  0  0
    1.9866   -1.7492    0.2819 N   0  0  0  0  0  0  0  0  0  0  0  0
    1.5770    1.9472   -0.3408 N   0  0  0  0  0  0  0  0  0  0  0  0
   -3.0454   -1.5211   -0.3396 H   0  0  0  0  0  0  0  0  0  0  0  0
   -2.3319   -1.1299    1.2347 H   0  0  0  0  0  0  0  0  0  0  0  0
   -3.4128    0.8876    0.1889 H   0  0  0  0  0  0  0  0  0  0  0  0
   -2.3610    0.7001   -1.2246 H   0  0  0  0  0  0  0  0  0  0  0  0
   -0.4181   -2.6258    1.2593 H   0  0  0  0  0  0  0  0  0  0  0  0
   -0.9607   -3.4385   -0.2229 H   0  0  0  0  0  0  0  0  0  0  0  0
    1.1204   -2.7907   -1.3869 H   0  0  0  0  0  0  0  0  0  0  0  0
    1.4213   -3.7415    0.0779 H   0  0  0  0  0  0  0  0  0  0  0  0
   -0.8802    2.3745   -1.2501 H   0  0  0  0  0  0  0  0  0  0  0  0
   -1.5036    3.3945    0.0595 H   0  0  0  0  0  0  0  0  0  0  0  0
    0.6623    2.9608    1.3241 H   0  0  0  0  0  0  0  0  0  0  0  0
    0.8035    3.8728   -0.1791 H   0  0  0  0  0  0  0  0  0  0  0  0
    3.1103   -0.4012   -0.9374 H   0  0  0  0  0  0  0  0  0  0  0  0
    1.3897   -0.4508   -1.2762 H   0  0  0  0  0  0  0  0  0  0  0  0
    2.7160    0.8762    1.1365 H   0  0  0  0  0  0  0  0  0  0  0  0
    0.9970    0.5164    1.0612 H   0  0  0  0  0  0  0  0  0  0  0  0
   -0.3247   -0.5853   -0.1238 H   0  0  0  0  0  0  0  0  0  0  0  0
   -1.4792    1.4370    1.4599 H   0  0  0  0  0  0  0  0  0  0  0  0
    2.8996   -2.1619    0.4352 H   0  0  0  0  0  0  0  0  0  0  0  0
    2.4367    2.4492   -0.5397 H   0  0  0  0  0  0  0  0  0  0  0  0
  1 14  1  0  0  0  0
  2  1  1  0  0  0  0
  2 15  1  0  0  0  0
  2 10  1  0  0  0  0
  3 17  1  0  0  0  0
  4 20  1  0  0  0  0
  4  3  1  0  0  0  0
  4 11  1  0  0  0  0
  5 22  1  0  0  0  0
  5  6  1  0  0  0  0
  5 10  1  0  0  0  0
  6 23  1  0  0  0  0
  7 11  1  0  0  0  0
  7  8  1  0  0  0  0
  8 28  1  0  0  0  0
  8 27  1  0  0  0  0
  9 29  1  0  0  0  0
  9  1  1  0  0  0  0
  9  3  1  0  0  0  0
 10 30  1  0  0  0  0
 11 31  1  0  0  0  0
 12  6  1  0  0  0  0
 12  8  1  0  0  0  0
 13  1  1  0  0  0  0
 16  2  1  0  0  0  0
 18  3  1  0  0  0  0
 19  4  1  0  0  0  0
 21  5  1  0  0  0  0
 24  6  1  0  0  0  0
 25  7  1  0  0  0  0
 26  7  1  0  0  0  0
 32 12  1  0  0  0  0
M  END
>  <HBA>
4

>  <HBD>
4

>  <TPSA>
48.12

>  <cid>
64963

>  <dipole>
1.72

>  <excitation_energy_1>
5.059

>  <excitation_energy_2>
5.139

>  <excitation_energy_3>
5.206

>  <excitation_energy_4>
5.355

>  <homo_energy>
-5.412

>  <homo_lumo_gap>
7.625

>  <logP>
-0.326

>  <lumo_energy>
2.212

>  <melting_point>
103.4

>  <molecular_refractivity>
65.32

>  <oscillator_strength_1>
0.0054

>  <oscillator_strength_2>
0.0115

>  <oscillator_strength_3>
0.0092

>  <oscillator_strength_4>
0.0061

>  <open_babel_can_smiles>
N1CCNCCNCCNCC1

>  <mulliken_charges>
32
1   -0.100022
2   -0.140445
3   -0.092224
4   -0.14573
5   -0.093698
6   -0.135464
7   -0.157234
8   -0.122555
9   -0.594911
10   -0.576485
11   -0.563184
12   -0.554239
13   0.129921
14   0.098804
15   0.119213
16   0.154091
17   0.107327
18   0.120668
19   0.12893
20   0.124995
21   0.151435
22   0.105206
23   0.110495
24   0.126994
25   0.113965
26   0.168597
27   0.107544
28   0.163424
29   0.361806
30   0.294262
31   0.295467
32   0.293046

>  <lowdin_charges>
32
1   -0.204279
2   -0.204618
3   -0.203459
4   -0.202238
5   -0.205463
6   -0.201957
7   -0.220826
8   -0.222603
9   -0.379545
10   -0.35942
11   -0.376362
12   -0.368437
13   0.139192
14   0.109048
15   0.126023
16   0.149665
17   0.113842
18   0.134536
19   0.125903
20   0.14184
21   0.149252
22   0.117287
23   0.116476
24   0.142111
25   0.126772
26   0.154126
27   0.12028
28   0.154722
29   0.266919
30   0.251825
31   0.255518
32   0.253869

$$$$

