PCCDB-ID:  10434
public computational chemistry database (PCCDB) project, http://pccdb.org

 16 16  0  0  0  0  0  0  0  0999 V2000
    0.7241    1.2661   -0.2632 C   0  0  0  0  0  0  0  0  0  0  0  0
    1.4764    0.0110    0.2206 C   0  0  0  0  0  0  0  0  0  0  0  0
   -0.7377    1.2904    0.2248 C   0  0  0  0  0  0  0  0  0  0  0  0
   -0.7511   -1.2868    0.1639 C   0  0  0  0  0  0  0  0  0  0  0  0
    0.7415   -1.2621   -0.1766 C   0  0  0  0  0  0  0  0  0  0  0  0
   -1.4760    0.0193   -0.1721 C   0  0  0  0  0  0  0  0  0  0  0  0
    1.2836   -2.1952   -0.7308 O   0  0  0  0  0  0  0  0  0  0  0  0
   -2.5583    0.0241   -0.7201 O   0  0  0  0  0  0  0  0  0  0  0  0
    0.7421    1.3000   -1.3602 H   0  0  0  0  0  0  0  0  0  0  0  0
    1.2434    2.1643    0.0872 H   0  0  0  0  0  0  0  0  0  0  0  0
    1.5529    0.0341    1.3188 H   0  0  0  0  0  0  0  0  0  0  0  0
    2.4909   -0.0364   -0.1840 H   0  0  0  0  0  0  0  0  0  0  0  0
   -1.2862    2.1476   -0.1747 H   0  0  0  0  0  0  0  0  0  0  0  0
   -0.7518    1.3642    1.3233 H   0  0  0  0  0  0  0  0  0  0  0  0
   -0.8284   -1.4233    1.2550 H   0  0  0  0  0  0  0  0  0  0  0  0
   -1.2399   -2.1313   -0.3256 H   0  0  0  0  0  0  0  0  0  0  0  0
  1 10  1  0  0  0  0
  1  2  1  0  0  0  0
  1  3  1  0  0  0  0
  2 11  1  0  0  0  0
  3 14  1  0  0  0  0
  4 15  1  0  0  0  0
  5  4  1  0  0  0  0
  5  2  1  0  0  0  0
  6  4  1  0  0  0  0
  6  3  1  0  0  0  0
  7  5  2  0  0  0  0
  8  6  2  0  0  0  0
  9  1  1  0  0  0  0
 12  2  1  0  0  0  0
 13  3  1  0  0  0  0
 16  4  1  0  0  0  0
M  END
>  <HBA>
2

>  <HBD>
0

>  <TPSA>
34.14

>  <cid>
10434

>  <dipole>
3.7

>  <excitation_energy_1>
4.159

>  <excitation_energy_2>
4.356

>  <excitation_energy_3>
5.251

>  <excitation_energy_4>
5.673

>  <homo_energy>
-6.738

>  <homo_lumo_gap>
5.695

>  <logP>
0.699

>  <lumo_energy>
-1.042

>  <melting_point>
38.8

>  <molecular_refractivity>
29.24

>  <oscillator_strength_1>
0.0022

>  <oscillator_strength_2>
0.0

>  <oscillator_strength_3>
0.0003

>  <oscillator_strength_4>
0.049

>  <open_babel_can_smiles>
O=C1CCCC(=O)C1

>  <mulliken_charges>
16
1   -0.29049
2   -0.348156
3   -0.347855
4   -0.436099
5   0.452943
6   0.453056
7   -0.430049
8   -0.430273
9   0.164473
10   0.160282
11   0.159401
12   0.175286
13   0.175242
14   0.15936
15   0.186058
16   0.196821

>  <lowdin_charges>
16
1   -0.27035
2   -0.305827
3   -0.306522
4   -0.334263
5   0.158792
6   0.155006
7   -0.219684
8   -0.2184
9   0.152104
10   0.160135
11   0.159566
12   0.169832
13   0.171447
14   0.159571
15   0.183442
16   0.185152

$$$$

