PCCDB-ID:  6650
public computational chemistry database (PCCDB) project, http://pccdb.org

 34 34  0  0  1  0  0  0  0  0999 V2000
    3.1855   -1.2313    0.4947 C   0  0  0  0  0  0  0  0  0  0  0  0
    0.9296   -0.2099    0.1843 C   0  0  0  0  0  0  0  0  0  0  0  0
    4.3741    4.3857   -1.3565 C   0  0  0  0  0  0  0  0  0  0  0  0
    2.1406    2.5294   -0.0735 C   0  0  0  0  0  0  0  0  0  0  0  0
    4.4573    1.5502    0.0410 C   0  0  0  0  0  0  0  0  0  0  0  0
    2.6881    3.8559    0.4763 C   0  0  0  0  0  0  0  0  0  0  0  0
    4.9842    2.8785    0.6045 C   0  0  0  0  0  0  0  0  0  0  0  0
    2.9702    1.3129    0.3878 C   0  0  2  0  0  0  0  0  0  0  0  0
    2.4237   -0.0513   -0.1526 C   0  0  0  0  0  0  0  0  0  0  0  0
    4.1735    4.1087    0.1489 C   0  0  1  0  0  0  0  0  0  0  0  0
    2.5381   -0.0639   -1.6293 N   0  0  0  0  0  0  0  0  0  0  0  0
    4.6175    5.2539    0.9729 N   0  0  0  0  0  0  0  0  0  0  0  0
    3.1219   -1.2070    1.5901 H   0  0  0  0  0  0  0  0  0  0  0  0
    4.2465   -1.2320    0.2222 H   0  0  0  0  0  0  0  0  0  0  0  0
    2.7599   -2.1847    0.1577 H   0  0  0  0  0  0  0  0  0  0  0  0
    0.7500   -0.0674    1.2559 H   0  0  0  0  0  0  0  0  0  0  0  0
    0.5855   -1.2190   -0.0772 H   0  0  0  0  0  0  0  0  0  0  0  0
    0.3165    0.5046   -0.3708 H   0  0  0  0  0  0  0  0  0  0  0  0
    4.0398    3.5609   -1.9953 H   0  0  0  0  0  0  0  0  0  0  0  0
    5.4349    4.5658   -1.5753 H   0  0  0  0  0  0  0  0  0  0  0  0
    3.8138    5.2806   -1.6566 H   0  0  0  0  0  0  0  0  0  0  0  0
    2.1112    2.5392   -1.1693 H   0  0  0  0  0  0  0  0  0  0  0  0
    1.1018    2.4293    0.2600 H   0  0  0  0  0  0  0  0  0  0  0  0
    5.0811    0.7377    0.4313 H   0  0  0  0  0  0  0  0  0  0  0  0
    4.5813    1.5425   -1.0503 H   0  0  0  0  0  0  0  0  0  0  0  0
    2.5905    3.8704    1.5700 H   0  0  0  0  0  0  0  0  0  0  0  0
    2.0803    4.6916    0.0988 H   0  0  0  0  0  0  0  0  0  0  0  0
    6.0405    3.0076    0.3255 H   0  0  0  0  0  0  0  0  0  0  0  0
    4.9525    2.8527    1.7015 H   0  0  0  0  0  0  0  0  0  0  0  0
    2.8971    1.2574    1.4864 H   0  0  0  0  0  0  0  0  0  0  0  0
    2.0352   -0.8733   -1.9940 H   0  0  0  0  0  0  0  0  0  0  0  0
    3.5119   -0.2074   -1.8960 H   0  0  0  0  0  0  0  0  0  0  0  0
    4.0952    6.0860    0.6932 H   0  0  0  0  0  0  0  0  0  0  0  0
    5.5940    5.4611    0.7561 H   0  0  0  0  0  0  0  0  0  0  0  0
  1 13  1  0  0  0  0
  2 16  1  0  0  0  0
  4 23  1  0  0  0  0
  4  8  1  0  0  0  0
  4  6  1  0  0  0  0
  5  8  1  0  0  0  0
  5 24  1  0  0  0  0
  5  7  1  0  0  0  0
  6 26  1  0  0  0  0
  7 29  1  0  0  0  0
  8 30  1  1  0  0  0
  9  2  1  0  0  0  0
  9  8  1  0  0  0  0
  9  1  1  0  0  0  0
 10  3  1  6  0  0  0
 10  6  1  0  0  0  0
 10  7  1  0  0  0  0
 10 12  1  0  0  0  0
 11  9  1  0  0  0  0
 14  1  1  0  0  0  0
 15  1  1  0  0  0  0
 17  2  1  0  0  0  0
 18  2  1  0  0  0  0
 19  3  1  0  0  0  0
 20  3  1  0  0  0  0
 21  3  1  0  0  0  0
 22  4  1  0  0  0  0
 25  5  1  0  0  0  0
 27  6  1  0  0  0  0
 28  7  1  0  0  0  0
 31 11  1  0  0  0  0
 32 11  1  0  0  0  0
 33 12  1  0  0  0  0
 34 12  1  0  0  0  0
M  END
>  <HBA>
2

>  <HBD>
2

>  <TPSA>
52.04

>  <cid>
6650

>  <dipole>
1.41

>  <excitation_energy_1>
5.625

>  <excitation_energy_2>
5.661

>  <excitation_energy_3>
6.024

>  <excitation_energy_4>
6.234

>  <homo_energy>
-6.169

>  <homo_lumo_gap>
8.068

>  <logP>
3.032

>  <lumo_energy>
1.899

>  <melting_point>
123.9

>  <molecular_refractivity>
53.56

>  <oscillator_strength_1>
0.0356

>  <oscillator_strength_2>
0.0393

>  <oscillator_strength_3>
0.0031

>  <oscillator_strength_4>
0.0003

>  <open_babel_can_smiles>
C[C@]1(N)CC[C@@H](CC1)C(N)(C)C

>  <mulliken_charges>
34
1   -0.455092
2   -0.459227
3   -0.458932
4   -0.279057
5   -0.294817
6   -0.264171
7   -0.259672
8   -0.052986
9   0.191742
10   0.193738
11   -0.722073
12   -0.7194
13   0.139224
14   0.138374
15   0.13098
16   0.142745
17   0.130021
18   0.162421
19   0.152599
20   0.128773
21   0.131116
22   0.15615
23   0.128418
24   0.130317
25   0.132891
26   0.140724
27   0.115398
28   0.114773
29   0.14384
30   0.108637
31   0.289719
32   0.292501
33   0.285589
34   0.284738

>  <lowdin_charges>
34
1   -0.456165
2   -0.447559
3   -0.462893
4   -0.279654
5   -0.284674
6   -0.279635
7   -0.275311
8   -0.126914
9   0.064367
10   0.057496
11   -0.549599
12   -0.54593
13   0.146305
14   0.143647
15   0.14381
16   0.149775
17   0.142818
18   0.159168
19   0.152749
20   0.1411
21   0.144459
22   0.148987
23   0.143311
24   0.144164
25   0.137445
26   0.144908
27   0.13752
28   0.134749
29   0.146653
30   0.130741
31   0.251863
32   0.247545
33   0.248509
34   0.246246

$$$$

