PCCDB-ID:  69188
public computational chemistry database (PCCDB) project, http://pccdb.org

 20 20  0  0  0  0  0  0  0  0999 V2000
    1.6428   -0.0183    1.7847 C   0  0  0  0  0  0  0  0  0  0  0  0
    2.9641    0.4483    2.3770 C   0  0  0  0  0  0  0  0  0  0  0  0
    6.6493    1.7574   -1.6381 C   0  0  0  0  0  0  0  0  0  0  0  0
    5.7245    1.4693   -0.6388 C   0  0  0  0  0  0  0  0  0  0  0  0
    7.4139    0.7123   -2.1609 C   0  0  0  0  0  0  0  0  0  0  0  0
    6.4220   -0.8263   -0.7965 C   0  0  0  0  0  0  0  0  0  0  0  0
    5.6036    0.1452   -0.2025 C   0  0  0  0  0  0  0  0  0  0  0  0
    4.6491   -0.2829    0.8587 C   0  0  0  0  0  0  0  0  0  0  0  0
    7.3124   -0.5615   -1.7565 N   0  0  0  0  0  0  0  0  0  0  0  0
    4.5338   -1.4284    1.2485 O   0  0  0  0  0  0  0  0  0  0  0  0
    3.9289    0.7551    1.3410 O   0  0  0  0  0  0  0  0  0  0  0  0
    0.9099   -0.1673    2.5859 H   0  0  0  0  0  0  0  0  0  0  0  0
    1.7717   -0.9669    1.2563 H   0  0  0  0  0  0  0  0  0  0  0  0
    1.2436    0.7256    1.0873 H   0  0  0  0  0  0  0  0  0  0  0  0
    3.3911   -0.3085    3.0393 H   0  0  0  0  0  0  0  0  0  0  0  0
    2.8506    1.3872    2.9244 H   0  0  0  0  0  0  0  0  0  0  0  0
    6.7787    2.7701   -2.0079 H   0  0  0  0  0  0  0  0  0  0  0  0
    5.1063    2.2453   -0.2009 H   0  0  0  0  0  0  0  0  0  0  0  0
    8.1451    0.9055   -2.9442 H   0  0  0  0  0  0  0  0  0  0  0  0
    6.3412   -1.8596   -0.4689 H   0  0  0  0  0  0  0  0  0  0  0  0
  1  2  1  0  0  0  0
  1 12  1  0  0  0  0
  2 16  1  0  0  0  0
  2 15  1  0  0  0  0
  3  4  2  0  0  0  0
  4  7  1  0  0  0  0
  4 18  1  0  0  0  0
  5  9  2  0  0  0  0
  5  3  1  0  0  0  0
  6 20  1  0  0  0  0
  6  7  2  0  0  0  0
  7  8  1  0  0  0  0
  8 10  2  0  0  0  0
  8 11  1  0  0  0  0
  9  6  1  0  0  0  0
 11  2  1  0  0  0  0
 13  1  1  0  0  0  0
 14  1  1  0  0  0  0
 17  3  1  0  0  0  0
 19  5  1  0  0  0  0
M  END
>  <HBA>
3

>  <HBD>
0

>  <TPSA>
39.19

>  <cid>
69188

>  <dipole>
3.62

>  <excitation_energy_1>
4.279

>  <excitation_energy_2>
4.878

>  <excitation_energy_3>
4.913

>  <excitation_energy_4>
5.17

>  <homo_energy>
-7.042

>  <homo_lumo_gap>
5.527

>  <logP>
1.258

>  <lumo_energy>
-1.516

>  <melting_point>
44.1

>  <molecular_refractivity>
40.32

>  <oscillator_strength_1>
0.0006

>  <oscillator_strength_2>
0.0001

>  <oscillator_strength_3>
0.003

>  <oscillator_strength_4>
0.0941

>  <open_babel_can_smiles>
CCOC(=O)c1cccnc1

>  <mulliken_charges>
20
1   -0.46274
2   -0.044068
3   -0.147412
4   -0.124297
5   0.050208
6   0.024676
7   0.028034
8   0.598423
9   -0.413035
10   -0.487623
11   -0.479669
12   0.15273
13   0.179539
14   0.157454
15   0.173999
16   0.154099
17   0.144711
18   0.168171
19   0.150006
20   0.176792

>  <lowdin_charges>
20
1   -0.456574
2   -0.127647
3   -0.175151
4   -0.11417
5   -0.074123
6   -0.064387
7   -0.062567
8   0.195765
9   -0.143213
10   -0.266693
11   -0.192586
12   0.160905
13   0.167014
14   0.157448
15   0.162039
16   0.153262
17   0.166889
18   0.178072
19   0.161049
20   0.174668

$$$$

