PCCDB-ID:  17525
public computational chemistry database (PCCDB) project, http://pccdb.org

 32 31  0  0  0  0  0  0  0  0999 V2000
    0.7177    0.0360   -0.1066 C   0  0  0  0  0  0  0  0  0  0  0  0
    8.6717   -1.1641   -8.5736 C   0  0  0  0  0  0  0  0  0  0  0  0
    2.2467   -0.0594   -0.0927 C   0  0  0  0  0  0  0  0  0  0  0  0
    8.1280   -0.4587   -7.3280 C   0  0  0  0  0  0  0  0  0  0  0  0
    2.8348   -0.5221   -1.4319 C   0  0  0  0  0  0  0  0  0  0  0  0
    4.3662   -0.6133   -1.4277 C   0  0  0  0  0  0  0  0  0  0  0  0
    4.9472   -1.0705   -2.7727 C   0  0  0  0  0  0  0  0  0  0  0  0
    7.7792   -1.4389   -6.2062 C   0  0  0  0  0  0  0  0  0  0  0  0
    6.4698   -1.1557   -2.7408 C   0  0  0  0  0  0  0  0  0  0  0  0
    7.2308   -0.7587   -4.9661 C   0  0  0  0  0  0  0  0  0  0  0  0
    7.0213    0.4304   -4.8519 O   0  0  0  0  0  0  0  0  0  0  0  0
    7.0025   -1.6651   -3.9859 O   0  0  0  0  0  0  0  0  0  0  0  0
    0.3279    0.3626    0.8643 H   0  0  0  0  0  0  0  0  0  0  0  0
    0.2621   -0.9345   -0.3390 H   0  0  0  0  0  0  0  0  0  0  0  0
    0.3721    0.7522   -0.8623 H   0  0  0  0  0  0  0  0  0  0  0  0
    8.9115   -0.4417   -9.3616 H   0  0  0  0  0  0  0  0  0  0  0  0
    7.9414   -1.8728   -8.9836 H   0  0  0  0  0  0  0  0  0  0  0  0
    9.5865   -1.7264   -8.3486 H   0  0  0  0  0  0  0  0  0  0  0  0
    2.5634   -0.7517    0.7004 H   0  0  0  0  0  0  0  0  0  0  0  0
    2.6727    0.9192    0.1702 H   0  0  0  0  0  0  0  0  0  0  0  0
    7.2362    0.1253   -7.5835 H   0  0  0  0  0  0  0  0  0  0  0  0
    8.8621    0.2656   -6.9555 H   0  0  0  0  0  0  0  0  0  0  0  0
    2.5149    0.1679   -2.2265 H   0  0  0  0  0  0  0  0  0  0  0  0
    2.4126   -1.5038   -1.6937 H   0  0  0  0  0  0  0  0  0  0  0  0
    4.6857   -1.3058   -0.6346 H   0  0  0  0  0  0  0  0  0  0  0  0
    4.7864    0.3683   -1.1644 H   0  0  0  0  0  0  0  0  0  0  0  0
    4.6511   -0.3699   -3.5628 H   0  0  0  0  0  0  0  0  0  0  0  0
    4.5410   -2.0544   -3.0426 H   0  0  0  0  0  0  0  0  0  0  0  0
    8.6547   -2.0311   -5.9080 H   0  0  0  0  0  0  0  0  0  0  0  0
    7.0329   -2.1726   -6.5414 H   0  0  0  0  0  0  0  0  0  0  0  0
    6.8110   -1.8689   -1.9848 H   0  0  0  0  0  0  0  0  0  0  0  0
    6.9131   -0.1765   -2.5405 H   0  0  0  0  0  0  0  0  0  0  0  0
  1  3  1  0  0  0  0
  1 13  1  0  0  0  0
  2 18  1  0  0  0  0
  2  4  1  0  0  0  0
  3 20  1  0  0  0  0
  3 19  1  0  0  0  0
  4 22  1  0  0  0  0
  4  8  1  0  0  0  0
  5  6  1  0  0  0  0
  5  3  1  0  0  0  0
  6 26  1  0  0  0  0
  6 25  1  0  0  0  0
  7  9  1  0  0  0  0
  7  6  1  0  0  0  0
  8 29  1  0  0  0  0
  8 10  1  0  0  0  0
  9 32  1  0  0  0  0
  9 31  1  0  0  0  0
 10 11  2  0  0  0  0
 10 12  1  0  0  0  0
 12  9  1  0  0  0  0
 14  1  1  0  0  0  0
 15  1  1  0  0  0  0
 16  2  1  0  0  0  0
 17  2  1  0  0  0  0
 21  4  1  0  0  0  0
 23  5  1  0  0  0  0
 24  5  1  0  0  0  0
 27  7  1  0  0  0  0
 28  7  1  0  0  0  0
 30  8  1  0  0  0  0
M  END
>  <HBA>
2

>  <HBD>
0

>  <TPSA>
26.3

>  <cid>
17525

>  <dipole>
1.53

>  <excitation_energy_1>
5.842

>  <excitation_energy_2>
7.019

>  <excitation_energy_3>
7.406

>  <excitation_energy_4>
7.463

>  <homo_energy>
-7.249

>  <homo_lumo_gap>
7.747

>  <logP>
2.91

>  <lumo_energy>
0.498

>  <melting_point>
-16.78

>  <molecular_refractivity>
51.47

>  <oscillator_strength_1>
0.0005

>  <oscillator_strength_2>
0.0243

>  <oscillator_strength_3>
0.0631

>  <oscillator_strength_4>
0.0349

>  <open_babel_can_smiles>
CCCCCCOC(=O)CCC

>  <mulliken_charges>
32
1   -0.441942
2   -0.446938
3   -0.247918
4   -0.242622
5   -0.245393
6   -0.264226
7   -0.278285
8   -0.35437
9   -0.043614
10   0.62164
11   -0.481392
12   -0.470892
13   0.142554
14   0.141395
15   0.142784
16   0.14777
17   0.141538
18   0.141831
19   0.130049
20   0.132128
21   0.152053
22   0.150151
23   0.132052
24   0.128187
25   0.128525
26   0.136881
27   0.158624
28   0.140269
29   0.167938
30   0.168526
31   0.146837
32   0.165859

>  <lowdin_charges>
32
1   -0.445176
2   -0.446916
3   -0.272726
4   -0.270093
5   -0.273571
6   -0.274822
7   -0.286957
8   -0.302517
9   -0.133334
10   0.195081
11   -0.268574
12   -0.197026
13   0.149638
14   0.146149
15   0.147953
16   0.153524
17   0.147473
18   0.146672
19   0.13954
20   0.139474
21   0.152368
22   0.152009
23   0.141
24   0.13786
25   0.138887
26   0.141858
27   0.155545
28   0.144953
29   0.166985
30   0.167725
31   0.150819
32   0.156199

$$$$

