PCCDB-ID:  8053
public computational chemistry database (PCCDB) project, http://pccdb.org

 19 18  0  0  0  0  0  0  0  0999 V2000
    0.9615   -0.0522   -2.5434 C   0  0  0  0  0  0  0  0  0  0  0  0
    3.2351    1.0479   -2.6245 C   0  0  0  0  0  0  0  0  0  0  0  0
    2.1367    0.4974   -0.3783 C   0  0  0  0  0  0  0  0  0  0  0  0
    3.4244    0.4864    0.4413 C   0  0  0  0  0  0  0  0  0  0  0  0
    2.3258    0.0801   -1.8504 C   0  0  0  0  0  0  0  0  0  0  0  0
    3.5643    1.9995    2.2359 N   0  0  0  0  0  0  0  0  0  0  0  0
    3.3049    2.1975    3.3718 O   0  0  0  0  0  0  0  0  0  0  0  0
    3.1316    0.7065    1.8358 O   0  0  0  0  0  0  0  0  0  0  0  0
    1.0760   -0.3967   -3.5777 H   0  0  0  0  0  0  0  0  0  0  0  0
    0.4404    0.9134   -2.5705 H   0  0  0  0  0  0  0  0  0  0  0  0
    0.3143   -0.7661   -2.0206 H   0  0  0  0  0  0  0  0  0  0  0  0
    3.3272    0.7407   -3.6726 H   0  0  0  0  0  0  0  0  0  0  0  0
    4.2474    1.0934   -2.2073 H   0  0  0  0  0  0  0  0  0  0  0  0
    2.8229    2.0654   -2.6121 H   0  0  0  0  0  0  0  0  0  0  0  0
    1.6939    1.5022   -0.3306 H   0  0  0  0  0  0  0  0  0  0  0  0
    1.4228   -0.1833    0.1031 H   0  0  0  0  0  0  0  0  0  0  0  0
    4.1295    1.2588    0.1177 H   0  0  0  0  0  0  0  0  0  0  0  0
    3.9223   -0.4883    0.3866 H   0  0  0  0  0  0  0  0  0  0  0  0
    2.8033   -0.9123   -1.8570 H   0  0  0  0  0  0  0  0  0  0  0  0
  1 11  1  0  0  0  0
  1  5  1  0  0  0  0
  2 14  1  0  0  0  0
  2 13  1  0  0  0  0
  2  5  1  0  0  0  0
  3 15  1  0  0  0  0
  3 16  1  0  0  0  0
  3  4  1  0  0  0  0
  4  8  1  0  0  0  0
  5  3  1  0  0  0  0
  6  7  1  0  0  0  0
  8  6  1  0  0  0  0
  9  1  1  0  0  0  0
 10  1  1  0  0  0  0
 12  2  1  0  0  0  0
 17  4  1  0  0  0  0
 18  4  1  0  0  0  0
 19  5  1  0  0  0  0
M  RAD  2   6   2   7   2
M  END
>  <HBA>
1

>  <HBD>
0

>  <TPSA>
38.66

>  <cid>
8053

>  <dipole>
2.85

>  <excitation_energy_1>
3.398

>  <excitation_energy_2>
5.401

>  <excitation_energy_3>
6.044

>  <excitation_energy_4>
6.102

>  <homo_energy>
-7.314

>  <homo_lumo_gap>
5.312

>  <logP>
1.73

>  <lumo_energy>
-2.003

>  <melting_point>
-13.45

>  <molecular_refractivity>
31.97

>  <oscillator_strength_1>
0.0008

>  <oscillator_strength_2>
0.0857

>  <oscillator_strength_3>
0.0025

>  <oscillator_strength_4>
0.001

>  <open_babel_can_smiles>
[O][N]OCCC(C)C

>  <mulliken_charges>
19
1   -0.442523
2   -0.448569
3   -0.264027
4   -0.046251
5   -0.077431
6   0.278171
7   -0.241386
8   -0.356518
9   0.144153
10   0.143517
11   0.144495
12   0.146959
13   0.143976
14   0.144818
15   0.140958
16   0.150221
17   0.159218
18   0.154992
19   0.125227

>  <lowdin_charges>
19
1   -0.442956
2   -0.444893
3   -0.28869
4   -0.147332
5   -0.11954
6   0.129919
7   -0.126962
8   -0.191932
9   0.149259
10   0.147932
11   0.151233
12   0.150973
13   0.146932
14   0.14778
15   0.146136
16   0.154046
17   0.151248
18   0.150967
19   0.135879

$$$$

