PCCDB-ID:  19426
public computational chemistry database (PCCDB) project, http://pccdb.org

 13 12  0  0  0  0  0  0  0  0999 V2000
    1.0058   -0.0099   -0.1649 C   0  0  0  0  0  0  0  0  0  0  0  0
    2.5314    0.0894   -0.1367 C   0  0  0  0  0  0  0  0  0  0  0  0
    4.5169    1.1325    0.9740 C   0  0  0  0  0  0  0  0  0  0  0  0
    2.5554    2.4966    0.5820 C   0  0  0  0  0  0  0  0  0  0  0  0
    3.0453    1.1411    0.8935 C   0  0  0  0  0  0  0  0  0  0  0  0
    5.6743    1.0852    1.0298 N   0  0  0  0  0  0  0  0  0  0  0  0
    2.1367    3.5469    0.3238 N   0  0  0  0  0  0  0  0  0  0  0  0
    0.6935   -0.7609   -0.8972 H   0  0  0  0  0  0  0  0  0  0  0  0
    0.5466    0.9438   -0.4447 H   0  0  0  0  0  0  0  0  0  0  0  0
    0.6056   -0.3082    0.8113 H   0  0  0  0  0  0  0  0  0  0  0  0
    2.9232    0.3552   -1.1239 H   0  0  0  0  0  0  0  0  0  0  0  0
    2.9775   -0.8719    0.1401 H   0  0  0  0  0  0  0  0  0  0  0  0
    2.6587    0.8742    1.8876 H   0  0  0  0  0  0  0  0  0  0  0  0
  1  2  1  0  0  0  0
  1 10  1  0  0  0  0
  2 12  1  0  0  0  0
  2  5  1  0  0  0  0
  3  6  3  0  0  0  0
  4  5  1  0  0  0  0
  5  3  1  0  0  0  0
  5 13  1  0  0  0  0
  7  4  3  0  0  0  0
  8  1  1  0  0  0  0
  9  1  1  0  0  0  0
 11  2  1  0  0  0  0
M  END
>  <HBA>
2

>  <HBD>
0

>  <TPSA>
47.58

>  <cid>
19426

>  <dipole>
4.37

>  <excitation_energy_1>
7.305

>  <excitation_energy_2>
7.563

>  <excitation_energy_3>
7.693

>  <excitation_energy_4>
7.725

>  <homo_energy>
-9.222

>  <homo_lumo_gap>
8.904

>  <logP>
1.06

>  <lumo_energy>
-0.318

>  <melting_point>
41.9

>  <molecular_refractivity>
25.65

>  <oscillator_strength_1>
0.0051

>  <oscillator_strength_2>
0.0001

>  <oscillator_strength_3>
0.0143

>  <oscillator_strength_4>
0.0079

>  <open_babel_can_smiles>
CCC(C#N)C#N

>  <mulliken_charges>
13
1   -0.462224
2   -0.259003
3   0.369995
4   0.378317
5   -0.225623
6   -0.447675
7   -0.448911
8   0.169087
9   0.1809
10   0.1552
11   0.180537
12   0.175517
13   0.233882

>  <lowdin_charges>
13
1   -0.448764
2   -0.254905
3   -0.011496
4   -0.010072
5   -0.114129
6   -0.092105
7   -0.093573
8   0.167406
9   0.166862
10   0.154466
11   0.166796
12   0.165232
13   0.204282

$$$$

