PCCDB-ID:  20745
public computational chemistry database (PCCDB) project, http://pccdb.org

 25 24  0  0  1  0  0  0  0  0999 V2000
    0.6917    1.7626    0.2636 C   0  0  0  0  0  0  0  0  0  0  0  0
    2.6072    2.4145   -1.2678 C   0  0  0  0  0  0  0  0  0  0  0  0
    7.3348    2.6528    3.2736 C   0  0  0  0  0  0  0  0  0  0  0  0
    4.5283    1.2126    0.9267 C   0  0  0  0  0  0  0  0  0  0  0  0
    3.0254    1.2805    0.9555 C   0  0  0  0  0  0  0  0  0  0  0  0
    5.1779    1.9854    2.0903 C   0  0  0  0  0  0  0  0  0  0  0  0
    2.1858    1.7886    0.0398 C   0  0  0  0  0  0  0  0  0  0  0  0
    6.7034    1.8214    2.1550 C   0  0  2  0  0  0  0  0  0  0  0  0
    7.0808    0.4446    2.2674 O   0  0  0  0  0  0  0  0  0  0  0  0
    0.1803    1.2039   -0.5332 H   0  0  0  0  0  0  0  0  0  0  0  0
    0.2703    2.7780    0.2492 H   0  0  0  0  0  0  0  0  0  0  0  0
    0.4296    1.3013    1.2211 H   0  0  0  0  0  0  0  0  0  0  0  0
    2.1768    1.8657   -2.1173 H   0  0  0  0  0  0  0  0  0  0  0  0
    3.6905    2.4433   -1.4053 H   0  0  0  0  0  0  0  0  0  0  0  0
    2.2312    3.4445   -1.3430 H   0  0  0  0  0  0  0  0  0  0  0  0
    7.1259    3.7212    3.1453 H   0  0  0  0  0  0  0  0  0  0  0  0
    8.4198    2.5087    3.2886 H   0  0  0  0  0  0  0  0  0  0  0  0
    6.9366    2.3525    4.2528 H   0  0  0  0  0  0  0  0  0  0  0  0
    4.9286    1.5919   -0.0204 H   0  0  0  0  0  0  0  0  0  0  0  0
    4.8534    0.1657    0.9966 H   0  0  0  0  0  0  0  0  0  0  0  0
    2.5769    0.8602    1.8587 H   0  0  0  0  0  0  0  0  0  0  0  0
    4.7475    1.6450    3.0462 H   0  0  0  0  0  0  0  0  0  0  0  0
    4.9314    3.0526    2.0094 H   0  0  0  0  0  0  0  0  0  0  0  0
    7.1332    2.1332    1.1944 H   0  0  0  0  0  0  0  0  0  0  0  0
    6.7525    0.1279    3.1252 H   0  0  0  0  0  0  0  0  0  0  0  0
  1 12  1  0  0  0  0
  2  7  1  0  0  0  0
  3 17  1  0  0  0  0
  3 18  1  0  0  0  0
  4  5  1  0  0  0  0
  4 20  1  0  0  0  0
  4  6  1  0  0  0  0
  5 21  1  0  0  0  0
  6  8  1  0  0  0  0
  6 22  1  0  0  0  0
  7  1  1  0  0  0  0
  7  5  2  0  0  0  0
  8 24  1  6  0  0  0
  8  9  1  0  0  0  0
  8  3  1  0  0  0  0
  9 25  1  0  0  0  0
 10  1  1  0  0  0  0
 11  1  1  0  0  0  0
 13  2  1  0  0  0  0
 14  2  1  0  0  0  0
 15  2  1  0  0  0  0
 16  3  1  0  0  0  0
 19  4  1  0  0  0  0
 23  6  1  0  0  0  0
M  END
>  <HBA>
1

>  <HBD>
1

>  <TPSA>
20.23

>  <cid>
20745

>  <dipole>
1.48

>  <excitation_energy_1>
5.66

>  <excitation_energy_2>
5.983

>  <excitation_energy_3>
6.113

>  <excitation_energy_4>
6.291

>  <homo_energy>
-6.098

>  <homo_lumo_gap>
7.078

>  <logP>
2.114

>  <lumo_energy>
0.98

>  <melting_point>
3.94

>  <molecular_refractivity>
41.26

>  <oscillator_strength_1>
0.0107

>  <oscillator_strength_2>
0.0146

>  <oscillator_strength_3>
0.0385

>  <oscillator_strength_4>
0.1233

>  <open_babel_can_smiles>
C[C@H](CCC=C(C)C)O

>  <mulliken_charges>
25
1   -0.505424
2   -0.512627
3   -0.456928
4   -0.297804
5   -0.161945
6   -0.267006
7   0.186688
8   0.138243
9   -0.618027
10   0.148295
11   0.147124
12   0.149387
13   0.151892
14   0.153972
15   0.149352
16   0.143952
17   0.158089
18   0.130787
19   0.134262
20   0.156143
21   0.105296
22   0.11596
23   0.13543
24   0.134683
25   0.380204

>  <lowdin_charges>
25
1   -0.439848
2   -0.442707
3   -0.455909
4   -0.27468
5   -0.190684
6   -0.288028
7   -0.012175
8   0.002035
9   -0.465369
10   0.152884
11   0.150486
12   0.153233
13   0.155762
14   0.153258
15   0.152689
16   0.151936
17   0.156211
18   0.142613
19   0.144776
20   0.154789
21   0.142597
22   0.133456
23   0.145119
24   0.141279
25   0.336277

$$$$

