PCCDB-ID:  20283
public computational chemistry database (PCCDB) project, http://pccdb.org

 36 36  0  0  0  0  0  0  0  0999 V2000
   10.4202    1.2559    3.0800 C   0  0  0  0  0  0  0  0  0  0  0  0
    8.9272    1.5997    3.1334 C   0  0  0  0  0  0  0  0  0  0  0  0
    8.2646    1.5647    1.7478 C   0  0  0  0  0  0  0  0  0  0  0  0
    6.7320    1.7315    1.7008 C   0  0  0  0  0  0  0  0  0  0  0  0
    3.4988    5.2732    5.5970 C   0  0  0  0  0  0  0  0  0  0  0  0
    6.1673    3.1601    1.8443 C   0  0  0  0  0  0  0  0  0  0  0  0
    5.0084    5.2381    5.8808 C   0  0  0  0  0  0  0  0  0  0  0  0
    3.1635    4.5885    4.2628 C   0  0  0  0  0  0  0  0  0  0  0  0
    6.1308    3.7392    3.2675 C   0  0  0  0  0  0  0  0  0  0  0  0
    5.8094    5.8341    4.7113 C   0  0  0  0  0  0  0  0  0  0  0  0
    3.9808    5.1815    3.1022 C   0  0  0  0  0  0  0  0  0  0  0  0
    5.5064    5.1517    3.3574 C   0  0  0  0  0  0  0  0  0  0  0  0
   10.8733    1.2813    4.0777 H   0  0  0  0  0  0  0  0  0  0  0  0
   10.9682    1.9658    2.4479 H   0  0  0  0  0  0  0  0  0  0  0  0
   10.5821    0.2530    2.6655 H   0  0  0  0  0  0  0  0  0  0  0  0
    8.8063    2.5874    3.5938 H   0  0  0  0  0  0  0  0  0  0  0  0
    8.4123    0.8893    3.7959 H   0  0  0  0  0  0  0  0  0  0  0  0
    8.5087    0.5948    1.2898 H   0  0  0  0  0  0  0  0  0  0  0  0
    8.7304    2.3232    1.1006 H   0  0  0  0  0  0  0  0  0  0  0  0
    6.2704    1.0777    2.4563 H   0  0  0  0  0  0  0  0  0  0  0  0
    6.3937    1.3453    0.7296 H   0  0  0  0  0  0  0  0  0  0  0  0
    3.1660    6.3213    5.5562 H   0  0  0  0  0  0  0  0  0  0  0  0
    2.9439    4.8011    6.4181 H   0  0  0  0  0  0  0  0  0  0  0  0
    5.1453    3.1525    1.4429 H   0  0  0  0  0  0  0  0  0  0  0  0
    6.7383    3.8383    1.1921 H   0  0  0  0  0  0  0  0  0  0  0  0
    5.3229    4.1999    6.0580 H   0  0  0  0  0  0  0  0  0  0  0  0
    5.2333    5.7888    6.8034 H   0  0  0  0  0  0  0  0  0  0  0  0
    2.0915    4.6847    4.0465 H   0  0  0  0  0  0  0  0  0  0  0  0
    3.3624    3.5110    4.3485 H   0  0  0  0  0  0  0  0  0  0  0  0
    7.1515    3.7999    3.6640 H   0  0  0  0  0  0  0  0  0  0  0  0
    5.5967    3.0384    3.9237 H   0  0  0  0  0  0  0  0  0  0  0  0
    6.8858    5.7811    4.9230 H   0  0  0  0  0  0  0  0  0  0  0  0
    5.5623    6.9029    4.6279 H   0  0  0  0  0  0  0  0  0  0  0  0
    3.6765    6.2290    2.9604 H   0  0  0  0  0  0  0  0  0  0  0  0
    3.7337    4.6661    2.1658 H   0  0  0  0  0  0  0  0  0  0  0  0
    5.9858    5.7567    2.5726 H   0  0  0  0  0  0  0  0  0  0  0  0
  1  2  1  0  0  0  0
  1 13  1  0  0  0  0
  2 16  1  0  0  0  0
  2 17  1  0  0  0  0
  3  2  1  0  0  0  0
  4  3  1  0  0  0  0
  4  6  1  0  0  0  0
  4 20  1  0  0  0  0
  5  7  1  0  0  0  0
  5 23  1  0  0  0  0
  6  9  1  0  0  0  0
  7 26  1  0  0  0  0
  7 27  1  0  0  0  0
  8 29  1  0  0  0  0
  8  5  1  0  0  0  0
  9 12  1  0  0  0  0
  9 30  1  0  0  0  0
  9 31  1  0  0  0  0
 10 32  1  0  0  0  0
 10  7  1  0  0  0  0
 11 12  1  0  0  0  0
 11  8  1  0  0  0  0
 12 10  1  0  0  0  0
 14  1  1  0  0  0  0
 15  1  1  0  0  0  0
 18  3  1  0  0  0  0
 19  3  1  0  0  0  0
 21  4  1  0  0  0  0
 22  5  1  0  0  0  0
 24  6  1  0  0  0  0
 25  6  1  0  0  0  0
 28  8  1  0  0  0  0
 33 10  1  0  0  0  0
 34 11  1  0  0  0  0
 35 11  1  0  0  0  0
 36 12  1  0  0  0  0
M  END
>  <HBA>
0

>  <HBD>
0

>  <TPSA>
0.0

>  <cid>
20283

>  <dipole>
0.06

>  <excitation_energy_1>
7.135

>  <excitation_energy_2>
7.261

>  <excitation_energy_3>
7.368

>  <excitation_energy_4>
7.442

>  <homo_energy>
-7.693

>  <homo_lumo_gap>
9.799

>  <logP>
4.537

>  <lumo_energy>
2.106

>  <melting_point>
-7.97

>  <molecular_refractivity>
57.68

>  <oscillator_strength_1>
0.0021

>  <oscillator_strength_2>
0.0001

>  <oscillator_strength_3>
0.0136

>  <oscillator_strength_4>
0.0044

>  <open_babel_can_smiles>
CCCCCCC1CCCCC1

>  <mulliken_charges>
36
1   -0.442477
2   -0.250804
3   -0.244838
4   -0.260964
5   -0.253727
6   -0.26002
7   -0.259357
8   -0.259558
9   -0.265707
10   -0.265869
11   -0.268033
12   -0.072888
13   0.14072
14   0.140962
15   0.140561
16   0.140315
17   0.128697
18   0.126101
19   0.125217
20   0.125498
21   0.12742
22   0.125169
23   0.127267
24   0.13185
25   0.125081
26   0.131319
27   0.128103
28   0.128251
29   0.130423
30   0.134699
31   0.12925
32   0.124631
33   0.123646
34   0.12498
35   0.131047
36   0.113036

>  <lowdin_charges>
36
1   -0.445431
2   -0.277146
3   -0.276991
4   -0.278259
5   -0.277552
6   -0.277634
7   -0.279117
8   -0.276402
9   -0.284384
10   -0.275549
11   -0.280634
12   -0.13073
13   0.148181
14   0.147262
15   0.144891
16   0.140271
17   0.139471
18   0.139327
19   0.138259
20   0.138863
21   0.142844
22   0.134695
23   0.142652
24   0.139912
25   0.138019
26   0.137133
27   0.14259
28   0.140941
29   0.135563
30   0.140621
31   0.138902
32   0.137758
33   0.135663
34   0.137366
35   0.14157
36   0.137073

$$$$

