PCCDB-ID:  20441
public computational chemistry database (PCCDB) project, http://pccdb.org

 19 18  0  0  0  0  0  0  0  0999 V2000
    0.8452   -0.3166    1.3292 C   0  0  0  0  0  0  0  0  0  0  0  0
    2.2228    1.1420   -0.0386 C   0  0  0  0  0  0  0  0  0  0  0  0
    2.0963   -1.2477   -0.5323 C   0  0  0  0  0  0  0  0  0  0  0  0
    2.6719    2.1698    1.0092 C   0  0  0  0  0  0  0  0  0  0  0  0
    2.4107   -2.6464    0.0157 C   0  0  0  0  0  0  0  0  0  0  0  0
    2.0732   -0.2135    0.5148 N   0  0  0  0  0  0  0  0  0  0  0  0
    2.4857    3.3525    0.8847 O   0  0  0  0  0  0  0  0  0  0  0  0
    3.3373    1.6436    2.0591 O   0  0  0  0  0  0  0  0  0  0  0  0
    2.1018   -3.6574   -0.5602 O   0  0  0  0  0  0  0  0  0  0  0  0
    3.1069   -2.6507    1.1721 O   0  0  0  0  0  0  0  0  0  0  0  0
   -0.0598   -0.1474    0.7252 H   0  0  0  0  0  0  0  0  0  0  0  0
    0.8745    0.4233    2.1334 H   0  0  0  0  0  0  0  0  0  0  0  0
    0.7853   -1.3105    1.7805 H   0  0  0  0  0  0  0  0  0  0  0  0
    2.9986    1.1237   -0.8132 H   0  0  0  0  0  0  0  0  0  0  0  0
    1.3023    1.5198   -0.5052 H   0  0  0  0  0  0  0  0  0  0  0  0
    1.1540   -1.3118   -1.0940 H   0  0  0  0  0  0  0  0  0  0  0  0
    2.8888   -1.0047   -1.2500 H   0  0  0  0  0  0  0  0  0  0  0  0
    3.3517    0.6743    1.9218 H   0  0  0  0  0  0  0  0  0  0  0  0
    3.2264   -1.7137    1.4293 H   0  0  0  0  0  0  0  0  0  0  0  0
  1 13  1  0  0  0  0
  1 12  1  0  0  0  0
  2  6  1  0  0  0  0
  2  4  1  0  0  0  0
  3  5  1  0  0  0  0
  3  6  1  0  0  0  0
  4  8  1  0  0  0  0
  5 10  1  0  0  0  0
  6  1  1  0  0  0  0
  7  4  2  0  0  0  0
  9  5  2  0  0  0  0
 10 19  1  0  0  0  0
 11  1  1  0  0  0  0
 14  2  1  0  0  0  0
 15  2  1  0  0  0  0
 16  3  1  0  0  0  0
 17  3  1  0  0  0  0
 18  8  1  0  0  0  0
M  END
>  <HBA>
5

>  <HBD>
2

>  <TPSA>
77.84

>  <cid>
20441

>  <dipole>
1.17

>  <excitation_energy_1>
5.552

>  <excitation_energy_2>
5.599

>  <excitation_energy_3>
6.205

>  <excitation_energy_4>
6.482

>  <homo_energy>
-7.603

>  <homo_lumo_gap>
7.146

>  <logP>
-0.913

>  <lumo_energy>
-0.457

>  <melting_point>
131.05

>  <molecular_refractivity>
32.59

>  <oscillator_strength_1>
0.0004

>  <oscillator_strength_2>
0.0007

>  <oscillator_strength_3>
0.0001

>  <oscillator_strength_4>
0.0001

>  <open_babel_can_smiles>
CN(CC(=O)O)CC(=O)O

>  <mulliken_charges>
19
1   -0.33491
2   -0.230918
3   -0.231069
4   0.58662
5   0.586731
6   -0.480704
7   -0.436424
8   -0.564044
9   -0.436289
10   -0.563977
11   0.162379
12   0.182985
13   0.182968
14   0.191603
15   0.181647
16   0.181582
17   0.191578
18   0.415113
19   0.415131

>  <lowdin_charges>
19
1   -0.369859
2   -0.243332
3   -0.24445
4   0.175796
5   0.181472
6   -0.203462
7   -0.230337
8   -0.346615
9   -0.232351
10   -0.349173
11   0.148342
12   0.1672
13   0.166131
14   0.178091
15   0.165549
16   0.164983
17   0.178303
18   0.346647
19   0.347064

$$$$

