PCCDB-ID:  26204
public computational chemistry database (PCCDB) project, http://pccdb.org

 21 20  0  0  0  0  0  0  0  0999 V2000
    3.5938   -0.2994    1.6308 C   0  0  0  0  0  0  0  0  0  0  0  0
    1.5126   -0.5584    0.2125 C   0  0  0  0  0  0  0  0  0  0  0  0
    6.9614    1.9122   -2.1980 C   0  0  0  0  0  0  0  0  0  0  0  0
    3.4952    0.7019   -0.7022 C   0  0  0  0  0  0  0  0  0  0  0  0
    3.0444   -0.4536    0.2043 C   0  0  0  0  0  0  0  0  0  0  0  0
    5.5057    1.9459   -1.8003 C   0  0  0  0  0  0  0  0  0  0  0  0
    4.9673    0.6965   -1.0531 C   0  0  0  0  0  0  0  0  0  0  0  0
    4.7591    2.8777   -2.0303 O   0  0  0  0  0  0  0  0  0  0  0  0
    5.7330   -0.2182   -0.8101 O   0  0  0  0  0  0  0  0  0  0  0  0
    3.2803   -1.1404    2.2600 H   0  0  0  0  0  0  0  0  0  0  0  0
    3.2189    0.6215    2.0970 H   0  0  0  0  0  0  0  0  0  0  0  0
    4.6875   -0.2679    1.6373 H   0  0  0  0  0  0  0  0  0  0  0  0
    1.1813   -1.3912    0.8434 H   0  0  0  0  0  0  0  0  0  0  0  0
    1.1145   -0.7231   -0.7960 H   0  0  0  0  0  0  0  0  0  0  0  0
    1.0547    0.3584    0.6060 H   0  0  0  0  0  0  0  0  0  0  0  0
    7.1613    1.0431   -2.8346 H   0  0  0  0  0  0  0  0  0  0  0  0
    7.5925    1.7918   -1.3102 H   0  0  0  0  0  0  0  0  0  0  0  0
    7.2192    2.8341   -2.7221 H   0  0  0  0  0  0  0  0  0  0  0  0
    3.2445    1.6798   -0.2692 H   0  0  0  0  0  0  0  0  0  0  0  0
    2.9507    0.6839   -1.6596 H   0  0  0  0  0  0  0  0  0  0  0  0
    3.4538   -1.3819   -0.2156 H   0  0  0  0  0  0  0  0  0  0  0  0
  1 12  1  0  0  0  0
  1 11  1  0  0  0  0
  1 10  1  0  0  0  0
  2 15  1  0  0  0  0
  2 13  1  0  0  0  0
  3  6  1  0  0  0  0
  3 17  1  0  0  0  0
  4 19  1  0  0  0  0
  4  5  1  0  0  0  0
  5  2  1  0  0  0  0
  5  1  1  0  0  0  0
  6  7  1  0  0  0  0
  7  9  2  0  0  0  0
  7  4  1  0  0  0  0
  8  6  2  0  0  0  0
 14  2  1  0  0  0  0
 16  3  1  0  0  0  0
 18  3  1  0  0  0  0
 20  4  1  0  0  0  0
 21  5  1  0  0  0  0
M  END
>  <HBA>
2

>  <HBD>
0

>  <TPSA>
34.14

>  <cid>
26204

>  <dipole>
0.28

>  <excitation_energy_1>
2.656

>  <excitation_energy_2>
4.455

>  <excitation_energy_3>
5.584

>  <excitation_energy_4>
5.764

>  <homo_energy>
-6.561

>  <homo_lumo_gap>
4.256

>  <logP>
1.191

>  <lumo_energy>
-2.305

>  <melting_point>
15.55

>  <molecular_refractivity>
36.16

>  <oscillator_strength_1>
0.0001

>  <oscillator_strength_2>
0.0

>  <oscillator_strength_3>
0.0008

>  <oscillator_strength_4>
0.0073

>  <open_babel_can_smiles>
CC(CC(=O)C(=O)C)C

>  <mulliken_charges>
21
1   -0.451892
2   -0.446322
3   -0.522724
4   -0.350617
5   -0.062625
6   0.39231
7   0.381837
8   -0.41694
9   -0.435023
10   0.144193
11   0.135536
12   0.160058
13   0.145313
14   0.140608
15   0.141282
16   0.186604
17   0.187442
18   0.177839
19   0.175799
20   0.173418
21   0.143904

>  <lowdin_charges>
21
1   -0.446914
2   -0.444677
3   -0.470333
4   -0.305646
5   -0.117838
6   0.136751
7   0.134006
8   -0.205429
9   -0.210306
10   0.151698
11   0.143684
12   0.154664
13   0.151816
14   0.147003
15   0.147063
16   0.182845
17   0.183317
18   0.173437
19   0.172448
20   0.174251
21   0.148159

$$$$

