PCCDB-ID:  68379
public computational chemistry database (PCCDB) project, http://pccdb.org

 23 23  0  0  0  0  0  0  0  0999 V2000
    2.9664   -1.4309   -2.2715 C   0  0  0  0  0  0  0  0  0  0  0  0
    0.9928    0.1072   -1.7762 C   0  0  0  0  0  0  0  0  0  0  0  0
    3.7843    0.3420    3.7182 C   0  0  0  0  0  0  0  0  0  0  0  0
    3.4374    0.2200    2.3759 C   0  0  0  0  0  0  0  0  0  0  0  0
    5.0680    0.7893    4.0375 C   0  0  0  0  0  0  0  0  0  0  0  0
    5.6518    0.9870    1.8394 C   0  0  0  0  0  0  0  0  0  0  0  0
    2.5026   -0.0811   -1.7337 C   0  0  0  0  0  0  0  0  0  0  0  0
    4.3915    0.5498    1.4070 C   0  0  0  0  0  0  0  0  0  0  0  0
    4.1347    0.4604   -0.0592 C   0  0  0  0  0  0  0  0  0  0  0  0
    5.9953    1.1095    3.1244 N   0  0  0  0  0  0  0  0  0  0  0  0
    4.9581    0.7409   -0.9091 O   0  0  0  0  0  0  0  0  0  0  0  0
    2.8811    0.0363   -0.3285 O   0  0  0  0  0  0  0  0  0  0  0  0
    2.6668   -1.5405   -3.3198 H   0  0  0  0  0  0  0  0  0  0  0  0
    2.5178   -2.2496   -1.6977 H   0  0  0  0  0  0  0  0  0  0  0  0
    4.0552   -1.5136   -2.2168 H   0  0  0  0  0  0  0  0  0  0  0  0
    0.6388    0.0577   -2.8115 H   0  0  0  0  0  0  0  0  0  0  0  0
    0.7088    1.0790   -1.3605 H   0  0  0  0  0  0  0  0  0  0  0  0
    0.4858   -0.6764   -1.2022 H   0  0  0  0  0  0  0  0  0  0  0  0
    3.0772    0.0966    4.5049 H   0  0  0  0  0  0  0  0  0  0  0  0
    2.4529   -0.1214    2.0754 H   0  0  0  0  0  0  0  0  0  0  0  0
    5.3687    0.8969    5.0785 H   0  0  0  0  0  0  0  0  0  0  0  0
    6.4047    1.2460    1.0992 H   0  0  0  0  0  0  0  0  0  0  0  0
    3.0095    0.7243   -2.2724 H   0  0  0  0  0  0  0  0  0  0  0  0
  1 15  1  0  0  0  0
  1  7  1  0  0  0  0
  1 14  1  0  0  0  0
  2  7  1  0  0  0  0
  2 17  1  0  0  0  0
  2 18  1  0  0  0  0
  3  5  1  0  0  0  0
  3 19  1  0  0  0  0
  4  3  2  0  0  0  0
  5 21  1  0  0  0  0
  6 10  1  0  0  0  0
  7 12  1  0  0  0  0
  8  6  2  0  0  0  0
  8  4  1  0  0  0  0
  9  8  1  0  0  0  0
 10  5  2  0  0  0  0
 11  9  2  0  0  0  0
 12  9  1  0  0  0  0
 13  1  1  0  0  0  0
 16  2  1  0  0  0  0
 20  4  1  0  0  0  0
 22  6  1  0  0  0  0
 23  7  1  0  0  0  0
M  END
>  <HBA>
3

>  <HBD>
0

>  <TPSA>
39.19

>  <cid>
68379

>  <dipole>
3.78

>  <excitation_energy_1>
4.284

>  <excitation_energy_2>
4.858

>  <excitation_energy_3>
4.91

>  <excitation_energy_4>
5.175

>  <homo_energy>
-7.015

>  <homo_lumo_gap>
5.532

>  <logP>
1.647

>  <lumo_energy>
-1.483

>  <melting_point>
43.44

>  <molecular_refractivity>
45.13

>  <oscillator_strength_1>
0.0006

>  <oscillator_strength_2>
0.0004

>  <oscillator_strength_3>
0.003

>  <oscillator_strength_4>
0.0967

>  <open_babel_can_smiles>
CC(OC(=O)c1cccnc1)C

>  <mulliken_charges>
23
1   -0.459213
2   -0.453791
3   -0.147684
4   -0.124602
5   0.050081
6   0.024855
7   0.130518
8   0.025292
9   0.60312
10   -0.413375
11   -0.489791
12   -0.491652
13   0.150138
14   0.15116
15   0.176381
16   0.152506
17   0.159193
18   0.154216
19   0.144164
20   0.166852
21   0.149528
22   0.176503
23   0.165601

>  <lowdin_charges>
23
1   -0.451727
2   -0.447812
3   -0.177534
4   -0.112635
5   -0.072423
6   -0.066108
7   0.013597
8   -0.063259
9   0.200254
10   -0.144736
11   -0.270522
12   -0.196666
13   0.157127
14   0.154947
15   0.165668
16   0.157793
17   0.159252
18   0.15662
19   0.168438
20   0.175771
21   0.159014
22   0.176988
23   0.157951

$$$$

