PCCDB-ID:  70771
public computational chemistry database (PCCDB) project, http://pccdb.org

 29 29  0  0  1  0  0  0  0  0999 V2000
    1.5608    0.7104   -1.9660 C   0  0  0  0  0  0  0  0  0  0  0  0
    2.5476    0.2838   -0.8745 C   0  0  0  0  0  0  0  0  0  0  0  0
    3.2209   -1.0634   -1.1647 C   0  0  0  0  0  0  0  0  0  0  0  0
    6.8974   -4.3498    0.2577 C   0  0  0  0  0  0  0  0  0  0  0  0
    5.9482   -5.5394    0.4528 C   0  0  0  0  0  0  0  0  0  0  0  0
    4.2158   -1.4862   -0.0747 C   0  0  0  0  0  0  0  0  0  0  0  0
    6.1904   -3.0151    0.5303 C   0  0  0  0  0  0  0  0  0  0  0  0
    4.6749   -5.3860   -0.4067 C   0  0  0  0  0  0  0  0  0  0  0  0
    4.9256   -2.8188   -0.3485 C   0  0  1  0  0  0  0  0  0  0  0  0
    4.0124   -4.0354   -0.1628 C   0  0  0  0  0  0  0  0  0  0  0  0
    2.8514   -3.9442    0.1937 O   0  0  0  0  0  0  0  0  0  0  0  0
    1.0956    1.6749   -1.7321 H   0  0  0  0  0  0  0  0  0  0  0  0
    0.7579   -0.0276   -2.0834 H   0  0  0  0  0  0  0  0  0  0  0  0
    2.0620    0.8095   -2.9371 H   0  0  0  0  0  0  0  0  0  0  0  0
    2.0233    0.2238    0.0896 H   0  0  0  0  0  0  0  0  0  0  0  0
    3.3183    1.0591   -0.7544 H   0  0  0  0  0  0  0  0  0  0  0  0
    3.7451   -1.0026   -2.1311 H   0  0  0  0  0  0  0  0  0  0  0  0
    2.4522   -1.8379   -1.2712 H   0  0  0  0  0  0  0  0  0  0  0  0
    7.2824   -4.3539   -0.7727 H   0  0  0  0  0  0  0  0  0  0  0  0
    7.7692   -4.4527    0.9158 H   0  0  0  0  0  0  0  0  0  0  0  0
    5.6592   -5.6055    1.5109 H   0  0  0  0  0  0  0  0  0  0  0  0
    6.4507   -6.4825    0.2060 H   0  0  0  0  0  0  0  0  0  0  0  0
    3.6921   -1.5568    0.8871 H   0  0  0  0  0  0  0  0  0  0  0  0
    4.9793   -0.7029    0.0368 H   0  0  0  0  0  0  0  0  0  0  0  0
    6.8766   -2.1774    0.3544 H   0  0  0  0  0  0  0  0  0  0  0  0
    5.8989   -2.9618    1.5894 H   0  0  0  0  0  0  0  0  0  0  0  0
    3.9442   -6.1733   -0.2000 H   0  0  0  0  0  0  0  0  0  0  0  0
    4.9513   -5.4478   -1.4699 H   0  0  0  0  0  0  0  0  0  0  0  0
    5.2629   -2.8408   -1.3987 H   0  0  0  0  0  0  0  0  0  0  0  0
  1 12  1  0  0  0  0
  1  2  1  0  0  0  0
  2 16  1  0  0  0  0
  2 15  1  0  0  0  0
  3  2  1  0  0  0  0
  3  6  1  0  0  0  0
  4  5  1  0  0  0  0
  4  7  1  0  0  0  0
  4 20  1  0  0  0  0
  5 21  1  0  0  0  0
  6 24  1  0  0  0  0
  6 23  1  0  0  0  0
  7 26  1  0  0  0  0
  8 27  1  0  0  0  0
  8 10  1  0  0  0  0
  8  5  1  0  0  0  0
  9 29  1  6  0  0  0
  9 10  1  0  0  0  0
  9  6  1  0  0  0  0
  9  7  1  0  0  0  0
 10 11  2  0  0  0  0
 13  1  1  0  0  0  0
 14  1  1  0  0  0  0
 17  3  1  0  0  0  0
 18  3  1  0  0  0  0
 19  4  1  0  0  0  0
 22  5  1  0  0  0  0
 25  7  1  0  0  0  0
 28  8  1  0  0  0  0
M  END
>  <HBA>
1

>  <HBD>
0

>  <TPSA>
17.07

>  <cid>
70771

>  <dipole>
2.82

>  <excitation_energy_1>
4.196

>  <excitation_energy_2>
6.057

>  <excitation_energy_3>
6.359

>  <excitation_energy_4>
6.431

>  <homo_energy>
-6.387

>  <homo_lumo_gap>
6.041

>  <logP>
2.936

>  <lumo_energy>
-0.346

>  <melting_point>
14.75

>  <molecular_refractivity>
48.27

>  <oscillator_strength_1>
0.0

>  <oscillator_strength_2>
0.0028

>  <oscillator_strength_3>
0.0049

>  <oscillator_strength_4>
0.0152

>  <open_babel_can_smiles>
CCCC[C@H]1CCCCC1=O

>  <mulliken_charges>
29
1   -0.441663
2   -0.247499
3   -0.258328
4   -0.265381
5   -0.270138
6   -0.251033
7   -0.272821
8   -0.33825
9   -0.169639
10   0.45021
11   -0.451959
12   0.139839
13   0.144573
14   0.138051
15   0.134993
16   0.124999
17   0.116526
18   0.155576
19   0.132664
20   0.140189
21   0.14603
22   0.143328
23   0.145931
24   0.121819
25   0.14194
26   0.141899
27   0.161754
28   0.15053
29   0.13586

>  <lowdin_charges>
29
1   -0.444192
2   -0.271775
3   -0.278748
4   -0.2789
5   -0.272217
6   -0.272702
7   -0.2731
8   -0.304738
9   -0.158815
10   0.157881
11   -0.236864
12   0.148076
13   0.148404
14   0.144152
15   0.140937
16   0.136338
17   0.131382
18   0.152314
19   0.138779
20   0.149807
21   0.144359
22   0.149806
23   0.150404
24   0.139425
25   0.149511
26   0.143008
27   0.163733
28   0.155582
29   0.148153

$$$$

