PCCDB-ID:  19194
public computational chemistry database (PCCDB) project, http://pccdb.org

 21 21  0  0  0  0  0  0  0  0999 V2000
    1.0922    0.2465   -0.0750 C   0  0  0  0  0  0  0  0  0  0  0  0
    5.0587   -3.5511   -3.5096 C   0  0  0  0  0  0  0  0  0  0  0  0
    2.6227    0.0734   -0.1032 C   0  0  0  0  0  0  0  0  0  0  0  0
    3.6771   -2.9321   -3.7950 C   0  0  0  0  0  0  0  0  0  0  0  0
    3.8667    0.6851   -3.4660 C   0  0  0  0  0  0  0  0  0  0  0  0
    3.1227   -0.1387   -1.5070 C   0  0  0  0  0  0  0  0  0  0  0  0
    3.5786   -1.5364   -3.2399 C   0  0  0  0  0  0  0  0  0  0  0  0
    3.4629    0.9481   -2.2217 N   0  0  0  0  0  0  0  0  0  0  0  0
    3.9516   -0.5186   -4.0352 N   0  0  0  0  0  0  0  0  0  0  0  0
    3.1613   -1.3962   -1.9726 N   0  0  0  0  0  0  0  0  0  0  0  0
    0.7443    0.3985    0.9522 H   0  0  0  0  0  0  0  0  0  0  0  0
    0.5934   -0.6414   -0.4777 H   0  0  0  0  0  0  0  0  0  0  0  0
    0.7875    1.1133   -0.6711 H   0  0  0  0  0  0  0  0  0  0  0  0
    5.1144   -4.5651   -3.9191 H   0  0  0  0  0  0  0  0  0  0  0  0
    5.2443   -3.6062   -2.4316 H   0  0  0  0  0  0  0  0  0  0  0  0
    5.8547   -2.9535   -3.9664 H   0  0  0  0  0  0  0  0  0  0  0  0
    2.9072   -0.7926    0.5027 H   0  0  0  0  0  0  0  0  0  0  0  0
    3.1037    0.9671    0.3063 H   0  0  0  0  0  0  0  0  0  0  0  0
    2.8958   -3.5459   -3.3357 H   0  0  0  0  0  0  0  0  0  0  0  0
    3.5068   -2.8898   -4.8752 H   0  0  0  0  0  0  0  0  0  0  0  0
    4.1558    1.5386   -4.0783 H   0  0  0  0  0  0  0  0  0  0  0  0
  1 11  1  0  0  0  0
  2 15  1  0  0  0  0
  3  1  1  0  0  0  0
  3 18  1  0  0  0  0
  3 17  1  0  0  0  0
  4  2  1  0  0  0  0
  4 19  1  0  0  0  0
  4  7  1  0  0  0  0
  5  8  2  0  0  0  0
  6  3  1  0  0  0  0
  7 10  1  0  0  0  0
  8  6  2  0  0  0  0
  9  5  1  0  0  0  0
  9  7  2  0  0  0  0
 10  6  1  0  0  0  0
 12  1  1  0  0  0  0
 13  1  1  0  0  0  0
 14  2  1  0  0  0  0
 16  2  1  0  0  0  0
 20  4  1  0  0  0  0
 21  5  1  0  0  0  0
M  RAD  1  10   2
M  END
>  <HBA>
3

>  <HBD>
0

>  <TPSA>
38.67

>  <cid>
19194

>  <dipole>
0.8

>  <excitation_energy_1>
4.556

>  <excitation_energy_2>
4.571

>  <excitation_energy_3>
4.66

>  <excitation_energy_4>
4.758

>  <homo_energy>
-7.097

>  <homo_lumo_gap>
5.948

>  <logP>
0.996

>  <lumo_energy>
-1.148

>  <melting_point>
57.18

>  <molecular_refractivity>
39.37

>  <oscillator_strength_1>
0.0

>  <oscillator_strength_2>
0.0053

>  <oscillator_strength_3>
0.0

>  <oscillator_strength_4>
0.0084

>  <open_babel_can_smiles>
CCC1=NC=[N]=C([N]1)CC

>  <mulliken_charges>
21
1   -0.452239
2   -0.452421
3   -0.303091
4   -0.302932
5   0.177141
6   0.419999
7   0.419969
8   -0.412025
9   -0.411981
10   -0.4449
11   0.154064
12   0.161015
13   0.161567
14   0.154107
15   0.160926
16   0.16172
17   0.161236
18   0.162615
19   0.161195
20   0.162611
21   0.161422

>  <lowdin_charges>
21
1   -0.4369
2   -0.435209
3   -0.279632
4   -0.276863
5   -0.015446
6   0.118149
7   0.117611
8   -0.180258
9   -0.180159
10   -0.183086
11   0.155001
12   0.15677
13   0.157028
14   0.155063
15   0.154413
16   0.157522
17   0.163027
18   0.163542
19   0.163431
20   0.161155
21   0.164841

$$$$

