PCCDB-ID:  17565
public computational chemistry database (PCCDB) project, http://pccdb.org

 27 26  0  0  0  0  0  0  0  0999 V2000
    3.8677   -4.7400    2.2691 C   0  0  0  0  0  0  0  0  0  0  0  0
    4.9222   -3.7561    1.7510 C   0  0  0  0  0  0  0  0  0  0  0  0
    4.4238   -2.3041    1.7286 C   0  0  0  0  0  0  0  0  0  0  0  0
    5.4213   -1.2861    1.1512 C   0  0  0  0  0  0  0  0  0  0  0  0
    6.6952   -1.0840    1.9847 C   0  0  0  0  0  0  0  0  0  0  0  0
    7.6305   -0.0198    1.3969 C   0  0  0  0  0  0  0  0  0  0  0  0
    8.8829    0.2553    2.2486 C   0  0  0  0  0  0  0  0  0  0  0  0
   10.2447   -1.3552    1.0983 N   0  0  0  0  0  0  0  0  0  0  0  0
    9.8396   -0.8456    2.4310 N   0  0  0  0  0  0  0  0  0  0  0  0
    4.2461   -5.7687    2.2740 H   0  0  0  0  0  0  0  0  0  0  0  0
    2.9659   -4.7195    1.6446 H   0  0  0  0  0  0  0  0  0  0  0  0
    3.5640   -4.4919    3.2937 H   0  0  0  0  0  0  0  0  0  0  0  0
    5.2281   -4.0472    0.7358 H   0  0  0  0  0  0  0  0  0  0  0  0
    5.8230   -3.8334    2.3739 H   0  0  0  0  0  0  0  0  0  0  0  0
    4.1446   -2.0013    2.7492 H   0  0  0  0  0  0  0  0  0  0  0  0
    3.4975   -2.2619    1.1376 H   0  0  0  0  0  0  0  0  0  0  0  0
    4.9136   -0.3164    1.0476 H   0  0  0  0  0  0  0  0  0  0  0  0
    5.7021   -1.5910    0.1323 H   0  0  0  0  0  0  0  0  0  0  0  0
    7.2351   -2.0371    2.0631 H   0  0  0  0  0  0  0  0  0  0  0  0
    6.4136   -0.8006    3.0112 H   0  0  0  0  0  0  0  0  0  0  0  0
    7.0806    0.9264    1.2876 H   0  0  0  0  0  0  0  0  0  0  0  0
    7.9417   -0.3259    0.3914 H   0  0  0  0  0  0  0  0  0  0  0  0
    8.5901    0.5671    3.2603 H   0  0  0  0  0  0  0  0  0  0  0  0
    9.4406    1.0983    1.8154 H   0  0  0  0  0  0  0  0  0  0  0  0
   10.7686   -0.5716    0.6965 H   0  0  0  0  0  0  0  0  0  0  0  0
   10.9838   -2.0280    1.3196 H   0  0  0  0  0  0  0  0  0  0  0  0
    9.3129   -1.6276    2.8261 H   0  0  0  0  0  0  0  0  0  0  0  0
  1 10  1  0  0  0  0
  1 12  1  0  0  0  0
  2  1  1  0  0  0  0
  2 14  1  0  0  0  0
  3  2  1  0  0  0  0
  3 15  1  0  0  0  0
  4  3  1  0  0  0  0
  4  5  1  0  0  0  0
  5 19  1  0  0  0  0
  5 20  1  0  0  0  0
  6  5  1  0  0  0  0
  6  7  1  0  0  0  0
  7  9  1  0  0  0  0
  7 23  1  0  0  0  0
  8 26  1  0  0  0  0
  8  9  1  0  0  0  0
  9 27  1  0  0  0  0
 11  1  1  0  0  0  0
 13  2  1  0  0  0  0
 16  3  1  0  0  0  0
 17  4  1  0  0  0  0
 18  4  1  0  0  0  0
 21  6  1  0  0  0  0
 22  6  1  0  0  0  0
 24  7  1  0  0  0  0
 25  8  1  0  0  0  0
M  END
>  <HBA>
2

>  <HBD>
2

>  <TPSA>
38.05

>  <cid>
17565

>  <dipole>
0.23

>  <excitation_energy_1>
4.72

>  <excitation_energy_2>
5.191

>  <excitation_energy_3>
5.389

>  <excitation_energy_4>
5.518

>  <homo_energy>
-5.187

>  <homo_lumo_gap>
7.241

>  <logP>
2.511

>  <lumo_energy>
2.054

>  <melting_point>
54.2

>  <molecular_refractivity>
41.27

>  <oscillator_strength_1>
0.0013

>  <oscillator_strength_2>
0.0095

>  <oscillator_strength_3>
0.0083

>  <oscillator_strength_4>
0.0047

>  <open_babel_can_smiles>
CCCCCCCNN

>  <mulliken_charges>
27
1   -0.441453
2   -0.247215
3   -0.248096
4   -0.254766
5   -0.261387
6   -0.24984
7   -0.150852
8   -0.600492
9   -0.456808
10   0.140657
11   0.140812
12   0.140471
13   0.130915
14   0.132871
15   0.124251
16   0.125993
17   0.125828
18   0.130857
19   0.13493
20   0.12101
21   0.122107
22   0.154881
23   0.139702
24   0.131968
25   0.302171
26   0.304814
27   0.30667

>  <lowdin_charges>
27
1   -0.442398
2   -0.274014
3   -0.274933
4   -0.272756
5   -0.278884
6   -0.293227
7   -0.215698
8   -0.501782
9   -0.322277
10   0.147563
11   0.14591
12   0.14488
13   0.138433
14   0.139132
15   0.135377
16   0.139636
17   0.139242
18   0.138932
19   0.1389
20   0.132595
21   0.139829
22   0.151943
23   0.14493
24   0.139286
25   0.252928
26   0.255212
27   0.251244

$$$$

