PCCDB-ID:  69828
public computational chemistry database (PCCDB) project, http://pccdb.org

 11 11  0  0  0  0  0  0  0  0999 V2000
   -0.0306    0.9027   -0.0281 C   0  0  0  0  0  0  0  0  0  0  0  0
    0.7291   -0.4097    0.0096 C   0  0  0  0  0  0  0  0  0  0  0  0
   -0.7692   -0.4219   -0.0552 C   0  0  0  0  0  0  0  0  0  0  0  0
   -1.4322   -0.9507   -1.2277 N   0  0  0  0  0  0  0  0  0  0  0  0
    0.0086    1.4782   -0.9507 H   0  0  0  0  0  0  0  0  0  0  0  0
   -0.0661    1.5093    0.8740 H   0  0  0  0  0  0  0  0  0  0  0  0
    1.2166   -0.7081    0.9337 H   0  0  0  0  0  0  0  0  0  0  0  0
    1.2742   -0.7031   -0.8854 H   0  0  0  0  0  0  0  0  0  0  0  0
   -1.2855   -0.6982    0.8627 H   0  0  0  0  0  0  0  0  0  0  0  0
   -0.8280   -0.8616   -2.0428 H   0  0  0  0  0  0  0  0  0  0  0  0
   -2.2690   -0.4039   -1.4302 H   0  0  0  0  0  0  0  0  0  0  0  0
  1  2  1  0  0  0  0
  1  6  1  0  0  0  0
  2  7  1  0  0  0  0
  3  1  1  0  0  0  0
  3  2  1  0  0  0  0
  3  9  1  0  0  0  0
  4  3  1  0  0  0  0
  5  1  1  0  0  0  0
  8  2  1  0  0  0  0
 10  4  1  0  0  0  0
 11  4  1  0  0  0  0
M  END
>  <HBA>
1

>  <HBD>
1

>  <TPSA>
26.02

>  <cid>
69828

>  <dipole>
1.31

>  <excitation_energy_1>
5.555

>  <excitation_energy_2>
6.017

>  <excitation_energy_3>
6.257

>  <excitation_energy_4>
6.363

>  <homo_energy>
-5.959

>  <homo_lumo_gap>
8.398

>  <logP>
0.808

>  <lumo_energy>
2.438

>  <melting_point>
52.26

>  <molecular_refractivity>
17.13

>  <oscillator_strength_1>
0.0237

>  <oscillator_strength_2>
0.009

>  <oscillator_strength_3>
0.0167

>  <oscillator_strength_4>
0.0065

>  <open_babel_can_smiles>
NC1CC1

>  <mulliken_charges>
11
1   -0.321905
2   -0.319645
3   0.027626
4   -0.710308
5   0.141113
6   0.146398
7   0.154768
8   0.147634
9   0.145599
10   0.292083
11   0.296638

>  <lowdin_charges>
11
1   -0.344489
2   -0.319679
3   -0.090215
4   -0.535724
5   0.153251
6   0.157243
7   0.160871
8   0.156211
9   0.151676
10   0.254402
11   0.256454

$$$$

