PCCDB-ID:  68057
public computational chemistry database (PCCDB) project, http://pccdb.org

 31 32  0  0  0  0  0  0  0  0999 V2000
    0.9207   -0.0917   -0.0907 C   0  0  0  0  0  0  0  0  0  0  0  0
    7.3528    1.0307    0.9123 C   0  0  0  0  0  0  0  0  0  0  0  0
    7.2879    0.3950   -1.5170 C   0  0  0  0  0  0  0  0  0  0  0  0
    6.7176   -2.5667   -0.3740 C   0  0  0  0  0  0  0  0  0  0  0  0
    5.2718   -2.6213    0.1228 C   0  0  0  0  0  0  0  0  0  0  0  0
    3.1492    1.1249   -0.1731 C   0  0  0  0  0  0  0  0  0  0  0  0
    4.5413    1.1195   -0.1692 C   0  0  0  0  0  0  0  0  0  0  0  0
    7.4349   -1.3837    0.2783 C   0  0  0  0  0  0  0  0  0  0  0  0
    3.1665   -1.2576    0.0033 C   0  0  0  0  0  0  0  0  0  0  0  0
    2.4319   -0.0726   -0.0839 C   0  0  0  0  0  0  0  0  0  0  0  0
    4.5669   -1.2810    0.0105 C   0  0  0  0  0  0  0  0  0  0  0  0
    5.2820   -0.0681   -0.0707 C   0  0  0  0  0  0  0  0  0  0  0  0
    6.8212   -0.0113   -0.0974 C   0  0  0  0  0  0  0  0  0  0  0  0
    0.5098    0.9206   -0.1610 H   0  0  0  0  0  0  0  0  0  0  0  0
    0.5195   -0.5511    0.8215 H   0  0  0  0  0  0  0  0  0  0  0  0
    0.5295   -0.6686   -0.9382 H   0  0  0  0  0  0  0  0  0  0  0  0
    8.4496    1.0056    0.9349 H   0  0  0  0  0  0  0  0  0  0  0  0
    6.9879    0.8203    1.9239 H   0  0  0  0  0  0  0  0  0  0  0  0
    7.0549    2.0520    0.6531 H   0  0  0  0  0  0  0  0  0  0  0  0
    8.3821    0.4707   -1.5543 H   0  0  0  0  0  0  0  0  0  0  0  0
    6.8728    1.3672   -1.8046 H   0  0  0  0  0  0  0  0  0  0  0  0
    6.9709   -0.3322   -2.2721 H   0  0  0  0  0  0  0  0  0  0  0  0
    6.7345   -2.4688   -1.4674 H   0  0  0  0  0  0  0  0  0  0  0  0
    7.2343   -3.5045   -0.1353 H   0  0  0  0  0  0  0  0  0  0  0  0
    5.2714   -2.9412    1.1767 H   0  0  0  0  0  0  0  0  0  0  0  0
    4.7005   -3.3832   -0.4225 H   0  0  0  0  0  0  0  0  0  0  0  0
    2.6150    2.0695   -0.2493 H   0  0  0  0  0  0  0  0  0  0  0  0
    5.0626    2.0695   -0.2490 H   0  0  0  0  0  0  0  0  0  0  0  0
    8.5003   -1.3773    0.0134 H   0  0  0  0  0  0  0  0  0  0  0  0
    7.3878   -1.5100    1.3700 H   0  0  0  0  0  0  0  0  0  0  0  0
    2.6331   -2.2060    0.0651 H   0  0  0  0  0  0  0  0  0  0  0  0
  1 10  1  0  0  0  0
  1 15  1  0  0  0  0
  2 17  1  0  0  0  0
  2 18  1  0  0  0  0
  3 13  1  0  0  0  0
  4 24  1  0  0  0  0
  4  5  1  0  0  0  0
  4  8  1  0  0  0  0
  5 25  1  0  0  0  0
  6  7  2  0  0  0  0
  6 10  1  0  0  0  0
  7 12  1  0  0  0  0
  8 30  1  0  0  0  0
  9 11  1  0  0  0  0
  9 31  1  0  0  0  0
 10  9  2  0  0  0  0
 11  5  1  0  0  0  0
 12 11  2  0  0  0  0
 13 12  1  0  0  0  0
 13  8  1  0  0  0  0
 13  2  1  0  0  0  0
 14  1  1  0  0  0  0
 16  1  1  0  0  0  0
 19  2  1  0  0  0  0
 20  3  1  0  0  0  0
 21  3  1  0  0  0  0
 22  3  1  0  0  0  0
 23  4  1  0  0  0  0
 26  5  1  0  0  0  0
 27  6  1  0  0  0  0
 28  7  1  0  0  0  0
 29  8  1  0  0  0  0
M  END
>  <HBA>
0

>  <HBD>
0

>  <TPSA>
0.0

>  <cid>
68057

>  <dipole>
0.32

>  <excitation_energy_1>
5.06

>  <excitation_energy_2>
5.589

>  <excitation_energy_3>
5.711

>  <excitation_energy_4>
5.905

>  <homo_energy>
-6.041

>  <homo_lumo_gap>
6.177

>  <logP>
3.609

>  <lumo_energy>
0.136

>  <melting_point>
43.7

>  <molecular_refractivity>
58.34

>  <oscillator_strength_1>
0.0143

>  <oscillator_strength_2>
0.0146

>  <oscillator_strength_3>
0.0058

>  <oscillator_strength_4>
0.0224

>  <open_babel_can_smiles>
Cc1ccc2c(c1)CCCC2(C)C

>  <mulliken_charges>
31
1   -0.531171
2   -0.449105
3   -0.442256
4   -0.273304
5   -0.340474
6   -0.189025
7   -0.189702
8   -0.271529
9   -0.247124
10   0.187988
11   0.115699
12   0.120269
13   0.026401
14   0.152549
15   0.159709
16   0.15988
17   0.137233
18   0.146283
19   0.140864
20   0.135767
21   0.14298
22   0.147145
23   0.139236
24   0.130978
25   0.147945
26   0.141656
27   0.115541
28   0.119335
29   0.127481
30   0.129886
31   0.108863

>  <lowdin_charges>
31
1   -0.443211
2   -0.435781
3   -0.439613
4   -0.275713
5   -0.275587
6   -0.174591
7   -0.163114
8   -0.271197
9   -0.176488
10   -0.000944
11   -0.013299
12   -0.01739
13   0.012551
14   0.154692
15   0.15946
16   0.159916
17   0.144676
18   0.14995
19   0.145704
20   0.142583
21   0.149329
22   0.150726
23   0.139924
24   0.145084
25   0.148395
26   0.151214
27   0.151611
28   0.152783
29   0.141086
30   0.1385
31   0.148742

$$$$

