PCCDB-ID:  10106
public computational chemistry database (PCCDB) project, http://pccdb.org

 29 30  0  0  1  0  0  0  0  0999 V2000
    1.9360    0.6474   -1.2427 C   0  0  0  0  0  0  0  0  0  0  0  0
    3.5806   -1.0633   -0.3501 C   0  0  0  0  0  0  0  0  0  0  0  0
    1.9638    3.9126    2.8256 C   0  0  0  0  0  0  0  0  0  0  0  0
    3.2346    1.7002    3.3256 C   0  0  0  0  0  0  0  0  0  0  0  0
    4.0486    3.1815    1.4533 C   0  0  0  0  0  0  0  0  0  0  0  0
    3.4365    0.4540    2.4197 C   0  0  0  0  0  0  0  0  0  0  0  0
    4.2504    1.9309    0.5520 C   0  0  0  0  0  0  0  0  0  0  0  0
    2.5278   -0.0044    0.0162 C   0  0  0  0  0  0  0  0  0  0  0  0
    2.8090    2.7747    2.2916 C   0  0  2  0  0  0  0  0  0  0  0  0
    3.0792    1.0192    1.0152 C   0  0  1  0  0  0  0  0  0  0  0  0
    2.0557    1.9883    1.3432 O   0  0  0  0  0  0  0  0  0  0  0  0
    1.4421   -0.1087   -1.8643 H   0  0  0  0  0  0  0  0  0  0  0  0
    2.7107    1.1193   -1.8590 H   0  0  0  0  0  0  0  0  0  0  0  0
    1.2009    1.4120   -0.9772 H   0  0  0  0  0  0  0  0  0  0  0  0
    3.1441   -1.8204   -1.0115 H   0  0  0  0  0  0  0  0  0  0  0  0
    3.9702   -1.5794    0.5345 H   0  0  0  0  0  0  0  0  0  0  0  0
    4.4294   -0.6137   -0.8798 H   0  0  0  0  0  0  0  0  0  0  0  0
    2.5346    4.5080    3.5473 H   0  0  0  0  0  0  0  0  0  0  0  0
    1.0700    3.5282    3.3285 H   0  0  0  0  0  0  0  0  0  0  0  0
    1.6452    4.5726    2.0118 H   0  0  0  0  0  0  0  0  0  0  0  0
    4.1330    1.9858    3.8827 H   0  0  0  0  0  0  0  0  0  0  0  0
    2.4294    1.5384    4.0496 H   0  0  0  0  0  0  0  0  0  0  0  0
    3.8204    4.0691    0.8540 H   0  0  0  0  0  0  0  0  0  0  0  0
    4.9184    3.4137    2.0769 H   0  0  0  0  0  0  0  0  0  0  0  0
    2.7429   -0.3497    2.6896 H   0  0  0  0  0  0  0  0  0  0  0  0
    4.4520    0.0485    2.4657 H   0  0  0  0  0  0  0  0  0  0  0  0
    5.2268    1.4558    0.6884 H   0  0  0  0  0  0  0  0  0  0  0  0
    4.1516    2.1900   -0.5058 H   0  0  0  0  0  0  0  0  0  0  0  0
    1.7038   -0.5130    0.5377 H   0  0  0  0  0  0  0  0  0  0  0  0
  1 14  1  0  0  0  0
  1  8  1  0  0  0  0
  2  8  1  0  0  0  0
  2 16  1  0  0  0  0
  3 19  1  0  0  0  0
  3 18  1  0  0  0  0
  4 21  1  0  0  0  0
  4 22  1  0  0  0  0
  5 24  1  0  0  0  0
  5  9  1  0  0  0  0
  6 26  1  0  0  0  0
  6 25  1  0  0  0  0
  6  4  1  0  0  0  0
  7 27  1  0  0  0  0
  7 10  1  0  0  0  0
  7  5  1  0  0  0  0
  8 29  1  0  0  0  0
  9  3  1  1  0  0  0
  9  4  1  0  0  0  0
 10  8  1  6  0  0  0
 10 11  1  0  0  0  0
 10  6  1  0  0  0  0
 11  9  1  0  0  0  0
 12  1  1  0  0  0  0
 13  1  1  0  0  0  0
 15  2  1  0  0  0  0
 17  2  1  0  0  0  0
 20  3  1  0  0  0  0
 23  5  1  0  0  0  0
 28  7  1  0  0  0  0
M  END
>  <HBA>
1

>  <HBD>
0

>  <TPSA>
9.23

>  <cid>
10106

>  <dipole>
1.24

>  <excitation_energy_1>
6.358

>  <excitation_energy_2>
6.621

>  <excitation_energy_3>
6.906

>  <excitation_energy_4>
6.948

>  <homo_energy>
-6.713

>  <homo_lumo_gap>
8.776

>  <logP>
2.744

>  <lumo_energy>
2.063

>  <melting_point>
29.03

>  <molecular_refractivity>
47.12

>  <oscillator_strength_1>
0.0213

>  <oscillator_strength_2>
0.0005

>  <oscillator_strength_3>
0.0054

>  <oscillator_strength_4>
0.0006

>  <open_babel_can_smiles>
CC([C@]12CC[C@@](O2)(CC1)C)C

>  <mulliken_charges>
29
1   -0.454536
2   -0.456124
3   -0.483022
4   -0.286921
5   -0.287162
6   -0.29734
7   -0.300423
8   -0.114548
9   0.326867
10   0.344191
11   -0.537163
12   0.135963
13   0.136049
14   0.167895
15   0.14444
16   0.145788
17   0.144441
18   0.144101
19   0.152628
20   0.152376
21   0.130999
22   0.140153
23   0.140131
24   0.131048
25   0.139881
26   0.13371
27   0.133793
28   0.144798
29   0.127986

>  <lowdin_charges>
29
1   -0.450647
2   -0.44803
3   -0.446435
4   -0.294837
5   -0.293929
6   -0.294263
7   -0.29558
8   -0.124696
9   0.119927
10   0.115144
11   -0.282823
12   0.148467
13   0.1445
14   0.162267
15   0.152347
16   0.15015
17   0.148373
18   0.15604
19   0.157428
20   0.157649
21   0.144862
22   0.149442
23   0.148961
24   0.144935
25   0.148936
26   0.14401
27   0.144678
28   0.148658
29   0.144466

$$$$

