PCCDB-ID:  7991
public computational chemistry database (PCCDB) project, http://pccdb.org

 17 16  0  0  0  0  0  0  0  0999 V2000
    1.1913   -0.3935    0.5907 C   0  0  0  0  0  0  0  0  0  0  0  0
    2.7164   -0.4089    0.4462 C   0  0  0  0  0  0  0  0  0  0  0  0
    3.2284    0.6331   -0.5554 C   0  0  0  0  0  0  0  0  0  0  0  0
    4.7510    0.6191   -0.7040 C   0  0  0  0  0  0  0  0  0  0  0  0
    5.2666    1.6602   -1.6911 C   0  0  0  0  0  0  0  0  0  0  0  0
    4.5794    2.4627   -2.2696 O   0  0  0  0  0  0  0  0  0  0  0  0
    6.6152    1.6462   -1.8986 O   0  0  0  0  0  0  0  0  0  0  0  0
    0.8516   -1.1431    1.3141 H   0  0  0  0  0  0  0  0  0  0  0  0
    0.7011   -0.6066   -0.3669 H   0  0  0  0  0  0  0  0  0  0  0  0
    0.8360    0.5862    0.9325 H   0  0  0  0  0  0  0  0  0  0  0  0
    3.0437   -1.4108    0.1327 H   0  0  0  0  0  0  0  0  0  0  0  0
    3.1786   -0.2315    1.4280 H   0  0  0  0  0  0  0  0  0  0  0  0
    2.9119    1.6373   -0.2488 H   0  0  0  0  0  0  0  0  0  0  0  0
    2.7743    0.4634   -1.5393 H   0  0  0  0  0  0  0  0  0  0  0  0
    5.0991   -0.3726   -1.0310 H   0  0  0  0  0  0  0  0  0  0  0  0
    5.2350    0.8013    0.2678 H   0  0  0  0  0  0  0  0  0  0  0  0
    7.0253    0.9473   -1.3624 H   0  0  0  0  0  0  0  0  0  0  0  0
  1 10  1  0  0  0  0
  1  8  1  0  0  0  0
  2  1  1  0  0  0  0
  2 12  1  0  0  0  0
  3 13  1  0  0  0  0
  3  2  1  0  0  0  0
  4  3  1  0  0  0  0
  4 16  1  0  0  0  0
  5  4  1  0  0  0  0
  6  5  2  0  0  0  0
  7  5  1  0  0  0  0
  7 17  1  0  0  0  0
  9  1  1  0  0  0  0
 11  2  1  0  0  0  0
 14  3  1  0  0  0  0
 15  4  1  0  0  0  0
M  END
>  <HBA>
2

>  <HBD>
1

>  <TPSA>
37.3

>  <cid>
7991

>  <dipole>
4.17

>  <excitation_energy_1>
5.746

>  <excitation_energy_2>
6.425

>  <excitation_energy_3>
7.439

>  <excitation_energy_4>
7.453

>  <homo_energy>
-7.358

>  <homo_lumo_gap>
7.687

>  <logP>
1.261

>  <lumo_energy>
0.329

>  <melting_point>
51.26

>  <molecular_refractivity>
27.92

>  <oscillator_strength_1>
0.0004

>  <oscillator_strength_2>
0.0152

>  <oscillator_strength_3>
0.0036

>  <oscillator_strength_4>
0.0035

>  <open_babel_can_smiles>
CCCCC(=O)O

>  <mulliken_charges>
17
1   -0.442493
2   -0.253873
3   -0.239431
4   -0.407013
5   0.607586
6   -0.436466
7   -0.569346
8   0.144393
9   0.146656
10   0.146951
11   0.130064
12   0.13034
13   0.156285
14   0.153667
15   0.160266
16   0.164982
17   0.407433

>  <lowdin_charges>
17
1   -0.444286
2   -0.272288
3   -0.267508
4   -0.324246
5   0.199307
6   -0.236098
7   -0.36558
8   0.151926
9   0.14926
10   0.149207
11   0.137722
12   0.138133
13   0.154051
14   0.15291
15   0.158288
16   0.161222
17   0.357979

$$$$

