PCCDB-ID:  27956
public computational chemistry database (PCCDB) project, http://pccdb.org

 37 37  0  0  1  0  0  0  0  0999 V2000
    1.4901    1.0543    2.9423 C   0  0  0  0  0  0  0  0  0  0  0  0
    0.1259    3.4695   -2.7942 C   0  0  0  0  0  0  0  0  0  0  0  0
    3.8505    6.0834    2.7750 C   0  0  0  0  0  0  0  0  0  0  0  0
    2.2071    7.3102   -1.3570 C   0  0  0  0  0  0  0  0  0  0  0  0
    3.0388    1.3074    0.9087 C   0  0  0  0  0  0  0  0  0  0  0  0
    1.8081    2.9287   -0.5829 C   0  0  0  0  0  0  0  0  0  0  0  0
    3.0599    3.8085    1.2907 C   0  0  0  0  0  0  0  0  0  0  0  0
    1.9214    0.4721    1.5961 C   0  0  1  0  0  0  0  0  0  0  0  0
    2.6323    2.7158    0.5294 C   0  0  0  0  0  0  0  0  0  0  0  0
    1.4068    4.2248   -0.9277 C   0  0  0  0  0  0  0  0  0  0  0  0
    2.6619    5.1084    0.9499 C   0  0  0  0  0  0  0  0  0  0  0  0
    1.8225    5.3233   -0.1553 C   0  0  0  0  0  0  0  0  0  0  0  0
    3.4740   -1.1153    2.5319 N   0  0  0  0  0  0  0  0  0  0  0  0
    2.2797   -0.9477    1.7571 N   0  0  0  0  0  0  0  0  0  0  0  0
    0.6175    4.5337   -1.9982 O   0  0  0  0  0  0  0  0  0  0  0  0
    3.0386    6.2347    1.6228 O   0  0  0  0  0  0  0  0  0  0  0  0
    1.3751    6.5874   -0.4510 O   0  0  0  0  0  0  0  0  0  0  0  0
    1.1674    2.0940    2.8328 H   0  0  0  0  0  0  0  0  0  0  0  0
    2.3194    1.0163    3.6554 H   0  0  0  0  0  0  0  0  0  0  0  0
    0.6610    0.4692    3.3529 H   0  0  0  0  0  0  0  0  0  0  0  0
   -0.4888    2.7751   -2.2062 H   0  0  0  0  0  0  0  0  0  0  0  0
    0.9403    2.9092   -3.2735 H   0  0  0  0  0  0  0  0  0  0  0  0
   -0.4925    3.9345   -3.5645 H   0  0  0  0  0  0  0  0  0  0  0  0
    4.8209    5.6296    2.5322 H   0  0  0  0  0  0  0  0  0  0  0  0
    3.3536    5.4762    3.5430 H   0  0  0  0  0  0  0  0  0  0  0  0
    4.0110    7.0921    3.1606 H   0  0  0  0  0  0  0  0  0  0  0  0
    1.7289    8.2820   -1.5036 H   0  0  0  0  0  0  0  0  0  0  0  0
    2.2831    6.7944   -2.3226 H   0  0  0  0  0  0  0  0  0  0  0  0
    3.2108    7.4596   -0.9393 H   0  0  0  0  0  0  0  0  0  0  0  0
    3.3514    0.7676    0.0017 H   0  0  0  0  0  0  0  0  0  0  0  0
    3.9066    1.3376    1.5778 H   0  0  0  0  0  0  0  0  0  0  0  0
    1.4929    2.0795   -1.1792 H   0  0  0  0  0  0  0  0  0  0  0  0
    3.7035    3.6368    2.1458 H   0  0  0  0  0  0  0  0  0  0  0  0
    1.0502    0.4614    0.9253 H   0  0  0  0  0  0  0  0  0  0  0  0
    4.3056   -1.1683    1.9406 H   0  0  0  0  0  0  0  0  0  0  0  0
    3.3930   -2.0034    3.0207 H   0  0  0  0  0  0  0  0  0  0  0  0
    2.3904   -1.3636    0.8299 H   0  0  0  0  0  0  0  0  0  0  0  0
  1 20  1  0  0  0  0
  1 19  1  0  0  0  0
  2 21  1  0  0  0  0
  2 15  1  0  0  0  0
  3 26  1  0  0  0  0
  3 25  1  0  0  0  0
  4 29  1  0  0  0  0
  4 17  1  0  0  0  0
  5 31  1  0  0  0  0
  5  8  1  0  0  0  0
  6  9  1  0  0  0  0
  7 33  1  0  0  0  0
  8 34  1  6  0  0  0
  8 14  1  0  0  0  0
  8  1  1  0  0  0  0
  9  5  1  0  0  0  0
  9  7  2  0  0  0  0
 10  6  2  0  0  0  0
 10 12  1  0  0  0  0
 11  7  1  0  0  0  0
 11 16  1  0  0  0  0
 12 11  2  0  0  0  0
 13 36  1  0  0  0  0
 14 13  1  0  0  0  0
 15 10  1  0  0  0  0
 16  3  1  0  0  0  0
 17 12  1  0  0  0  0
 18  1  1  0  0  0  0
 22  2  1  0  0  0  0
 23  2  1  0  0  0  0
 24  3  1  0  0  0  0
 27  4  1  0  0  0  0
 28  4  1  0  0  0  0
 30  5  1  0  0  0  0
 32  6  1  0  0  0  0
 35 13  1  0  0  0  0
 37 14  1  0  0  0  0
M  END
>  <HBA>
5

>  <HBD>
2

>  <TPSA>
65.74

>  <cid>
27956

>  <dipole>
3.77

>  <excitation_energy_1>
4.882

>  <excitation_energy_2>
4.898

>  <excitation_energy_3>
5.213

>  <excitation_energy_4>
5.234

>  <homo_energy>
-5.467

>  <homo_lumo_gap>
5.772

>  <logP>
2.198

>  <lumo_energy>
0.305

>  <melting_point>
105.58

>  <molecular_refractivity>
66.01

>  <oscillator_strength_1>
0.0244

>  <oscillator_strength_2>
0.0101

>  <oscillator_strength_3>
0.0949

>  <oscillator_strength_4>
0.0406

>  <open_babel_can_smiles>
NN[C@H](Cc1cc(OC)c(c(c1)OC)OC)C

>  <mulliken_charges>
37
1   -0.442157
2   -0.211169
3   -0.212263
4   -0.200135
5   -0.367657
6   -0.27546
7   -0.28114
8   0.063633
9   0.181914
10   0.356865
11   0.358182
12   0.240812
13   -0.593893
14   -0.454114
15   -0.506701
16   -0.507254
17   -0.513326
18   0.149355
19   0.159554
20   0.145618
21   0.15182
22   0.146993
23   0.168704
24   0.148327
25   0.154036
26   0.168193
27   0.154316
28   0.143887
29   0.144216
30   0.119306
31   0.15069
32   0.118264
33   0.126478
34   0.123795
35   0.290794
36   0.316037
37   0.283479

>  <lowdin_charges>
37
1   -0.452412
2   -0.281037
3   -0.276461
4   -0.268945
5   -0.291919
6   -0.243965
7   -0.239022
8   -0.062565
9   0.009722
10   0.090074
11   0.086751
12   0.034532
13   -0.487164
14   -0.30683
15   -0.191662
16   -0.191407
17   -0.21783
18   0.153728
19   0.157694
20   0.154386
21   0.146639
22   0.143391
23   0.163256
24   0.142386
25   0.147461
26   0.161337
27   0.15328
28   0.140183
29   0.139928
30   0.139529
31   0.153191
32   0.157735
33   0.160885
34   0.137695
35   0.241918
36   0.259701
37   0.235813

$$$$

