PCCDB-ID:  61979
public computational chemistry database (PCCDB) project, http://pccdb.org

 30 32  0  0  1  0  0  0  0  0999 V2000
    1.2843    0.6560    0.7956 C   0  0  0  0  0  0  0  0  0  0  0  0
    5.9248    3.0078   -1.2804 C   0  0  0  0  0  0  0  0  0  0  0  0
    3.4123    4.7322   -1.1701 C   0  0  0  0  0  0  0  0  0  0  0  0
    4.2088   -0.5634   -1.2960 C   0  0  0  0  0  0  0  0  0  0  0  0
    4.3060    5.3072   -0.0284 C   0  0  0  0  0  0  0  0  0  0  0  0
    3.0047   -1.4759   -1.6100 C   0  0  0  0  0  0  0  0  0  0  0  0
    2.4394   -0.1419    0.2205 C   0  0  2  0  0  0  0  0  0  0  0  0
    3.3714    3.2731   -0.7298 C   0  0  2  0  0  0  0  0  0  0  0  0
    4.8078    3.0613   -0.2347 C   0  0  2  0  0  0  0  0  0  0  0  0
    3.5664    0.6143   -0.5335 C   0  0  2  0  0  0  0  0  0  0  0  0
    1.9385   -1.0653   -0.7409 O   0  0  0  0  0  0  0  0  0  0  0  0
    4.9905    4.1922    0.6041 O   0  0  0  0  0  0  0  0  0  0  0  0
    2.9053    1.8682   -1.7813 S   0  0  0  0  0  0  0  0  0  0  0  0
    4.7167    1.4540    0.6892 S   0  0  0  0  0  0  0  0  0  0  0  0
    1.6509    1.3595    1.5493 H   0  0  0  0  0  0  0  0  0  0  0  0
    0.5758   -0.0263    1.2753 H   0  0  0  0  0  0  0  0  0  0  0  0
    0.7612    1.2004    0.0052 H   0  0  0  0  0  0  0  0  0  0  0  0
    5.9545    3.9309   -1.8716 H   0  0  0  0  0  0  0  0  0  0  0  0
    5.8042    2.1639   -1.9617 H   0  0  0  0  0  0  0  0  0  0  0  0
    6.8806    2.9095   -0.7583 H   0  0  0  0  0  0  0  0  0  0  0  0
    3.8745    4.8576   -2.1537 H   0  0  0  0  0  0  0  0  0  0  0  0
    2.4247    5.2003   -1.1929 H   0  0  0  0  0  0  0  0  0  0  0  0
    4.7566   -0.2463   -2.1861 H   0  0  0  0  0  0  0  0  0  0  0  0
    4.9146   -1.0692   -0.6293 H   0  0  0  0  0  0  0  0  0  0  0  0
    3.7100    5.8004    0.7461 H   0  0  0  0  0  0  0  0  0  0  0  0
    5.0465    6.0222   -0.4045 H   0  0  0  0  0  0  0  0  0  0  0  0
    3.2415   -2.5344   -1.4396 H   0  0  0  0  0  0  0  0  0  0  0  0
    2.6548   -1.3664   -2.6429 H   0  0  0  0  0  0  0  0  0  0  0  0
    2.9357   -0.6910    1.0433 H   0  0  0  0  0  0  0  0  0  0  0  0
    2.7382    3.2283    0.1610 H   0  0  0  0  0  0  0  0  0  0  0  0
  1 16  1  0  0  0  0
  1 15  1  0  0  0  0
  2 20  1  0  0  0  0
  3  8  1  0  0  0  0
  3  5  1  0  0  0  0
  4 24  1  0  0  0  0
  4 10  1  0  0  0  0
  5 12  1  0  0  0  0
  5 25  1  0  0  0  0
  6 27  1  0  0  0  0
  6  4  1  0  0  0  0
  6 11  1  0  0  0  0
  7  1  1  0  0  0  0
  7 29  1  1  0  0  0
  8  9  1  0  0  0  0
  8 30  1  1  0  0  0
  9  2  1  6  0  0  0
  9 12  1  0  0  0  0
  9 14  1  0  0  0  0
 10 13  1  6  0  0  0
 10  7  1  0  0  0  0
 10 14  1  0  0  0  0
 11  7  1  0  0  0  0
 13  8  1  0  0  0  0
 17  1  1  0  0  0  0
 18  2  1  0  0  0  0
 19  2  1  0  0  0  0
 21  3  1  0  0  0  0
 22  3  1  0  0  0  0
 23  4  1  0  0  0  0
 26  5  1  0  0  0  0
 28  6  1  0  0  0  0
M  END
>  <HBA>
4

>  <HBD>
0

>  <TPSA>
69.06

>  <cid>
61979

>  <dipole>
2.02

>  <excitation_energy_1>
4.499

>  <excitation_energy_2>
4.682

>  <excitation_energy_3>
5.439

>  <excitation_energy_4>
5.636

>  <homo_energy>
-6.125

>  <homo_lumo_gap>
5.829

>  <logP>
2.477

>  <lumo_energy>
-0.297

>  <melting_point>
60.6

>  <molecular_refractivity>
61.27

>  <oscillator_strength_1>
0.0026

>  <oscillator_strength_2>
0.0006

>  <oscillator_strength_3>
0.01

>  <oscillator_strength_4>
0.0059

>  <open_babel_can_smiles>
C[C@H]1OCC[C@]21S[C@H]1[C@@](S2)(C)OCC1

>  <mulliken_charges>
30
1   -0.466588
2   -0.434014
3   -0.333443
4   -0.317923
5   -0.023223
6   -0.015063
7   0.178753
8   -0.279331
9   0.145592
10   -0.281268
11   -0.494819
12   -0.49418
13   0.123682
14   0.117877
15   0.157971
16   0.159363
17   0.174559
18   0.144012
19   0.169577
20   0.170809
21   0.1654
22   0.165711
23   0.170713
24   0.17034
25   0.156186
26   0.149409
27   0.139036
28   0.150647
29   0.130099
30   0.200117

>  <lowdin_charges>
30
1   -0.45633
2   -0.456166
3   -0.294183
4   -0.303483
5   -0.127975
6   -0.130406
7   -0.002877
8   -0.247435
9   0.024177
10   -0.183893
11   -0.276397
12   -0.267832
13   0.10494
14   0.100284
15   0.16176
16   0.163708
17   0.167298
18   0.151235
19   0.166566
20   0.168617
21   0.156121
22   0.163109
23   0.165478
24   0.163402
25   0.153444
26   0.147379
27   0.139049
28   0.145028
29   0.134955
30   0.170426

$$$$

