PCCDB-ID:  15095
public computational chemistry database (PCCDB) project, http://pccdb.org

 39 40  0  0  1  0  0  0  0  0999 V2000
    3.3179   -2.1582    0.2713 C   0  0  0  0  0  0  0  0  0  0  0  0
    0.9846    0.5008    3.4968 C   0  0  0  0  0  0  0  0  0  0  0  0
    4.2332    3.1364    0.1806 C   0  0  0  0  0  0  0  0  0  0  0  0
    6.2706    1.7374    0.6059 C   0  0  0  0  0  0  0  0  0  0  0  0
    4.8234    1.3563    3.5679 C   0  0  0  0  0  0  0  0  0  0  0  0
    3.4166    0.8335    3.9199 C   0  0  0  0  0  0  0  0  0  0  0  0
    1.5641   -0.5527   -0.6945 C   0  0  0  0  0  0  0  0  0  0  0  0
    1.3868    0.5160    0.4946 C   0  0  0  0  0  0  0  0  0  0  0  0
    4.8040    2.4858    2.5285 C   0  0  0  0  0  0  0  0  0  0  0  0
    3.7714    0.1998   -0.5097 C   0  0  0  0  0  0  0  0  0  0  0  0
    3.0164   -0.9295   -0.5448 C   0  0  1  0  0  0  0  0  0  0  0  0
    2.3494    0.6464    2.8433 C   0  0  0  0  0  0  0  0  0  0  0  0
    2.5562    0.6385    1.5093 C   0  0  0  0  0  0  0  0  0  0  0  0
    4.0314    0.6703    0.9058 C   0  0  2  0  0  0  0  0  0  0  0  0
    4.8186    2.0068    1.0492 C   0  0  0  0  0  0  0  0  0  0  0  0
    2.7437   -2.1793    1.2099 H   0  0  0  0  0  0  0  0  0  0  0  0
    4.3817   -2.2369    0.5153 H   0  0  0  0  0  0  0  0  0  0  0  0
    3.0331   -3.0592   -0.2899 H   0  0  0  0  0  0  0  0  0  0  0  0
    1.0744   -0.0642    4.4335 H   0  0  0  0  0  0  0  0  0  0  0  0
    0.2472   -0.0133    2.8775 H   0  0  0  0  0  0  0  0  0  0  0  0
    0.5657    1.4814    3.7655 H   0  0  0  0  0  0  0  0  0  0  0  0
    4.7323    4.0853    0.4139 H   0  0  0  0  0  0  0  0  0  0  0  0
    3.1618    3.2724    0.3713 H   0  0  0  0  0  0  0  0  0  0  0  0
    4.3716    2.9518   -0.8900 H   0  0  0  0  0  0  0  0  0  0  0  0
    6.8551    2.6656    0.5923 H   0  0  0  0  0  0  0  0  0  0  0  0
    6.2936    1.3024   -0.3999 H   0  0  0  0  0  0  0  0  0  0  0  0
    6.7750    1.0351    1.2817 H   0  0  0  0  0  0  0  0  0  0  0  0
    5.4748    0.5405    3.2322 H   0  0  0  0  0  0  0  0  0  0  0  0
    5.2749    1.7206    4.4995 H   0  0  0  0  0  0  0  0  0  0  0  0
    2.9843    1.5413    4.6449 H   0  0  0  0  0  0  0  0  0  0  0  0
    3.5064   -0.1101    4.4821 H   0  0  0  0  0  0  0  0  0  0  0  0
    1.3367   -0.0560   -1.6445 H   0  0  0  0  0  0  0  0  0  0  0  0
    0.8785   -1.4023   -0.5852 H   0  0  0  0  0  0  0  0  0  0  0  0
    0.4455    0.3334    1.0147 H   0  0  0  0  0  0  0  0  0  0  0  0
    1.2749    1.4958    0.0095 H   0  0  0  0  0  0  0  0  0  0  0  0
    5.6635    3.1527    2.6777 H   0  0  0  0  0  0  0  0  0  0  0  0
    3.9114    3.1017    2.7021 H   0  0  0  0  0  0  0  0  0  0  0  0
    3.3873    1.0018   -1.1476 H   0  0  0  0  0  0  0  0  0  0  0  0
    4.5910   -0.0910    1.4572 H   0  0  0  0  0  0  0  0  0  0  0  0
  1 17  1  0  0  0  0
  1 16  1  0  0  0  0
  2 21  1  0  0  0  0
  2 19  1  0  0  0  0
  3 23  1  0  0  0  0
  3 22  1  0  0  0  0
  3 15  1  0  0  0  0
  4 15  1  0  0  0  0
  4 27  1  0  0  0  0
  5  6  1  0  0  0  0
  5 29  1  0  0  0  0
  6 31  1  0  0  0  0
  6 30  1  0  0  0  0
  7 33  1  0  0  0  0
  7 11  1  0  0  0  0
  7  8  1  0  0  0  0
  8 34  1  0  0  0  0
  8 13  1  0  0  0  0
  9 36  1  0  0  0  0
  9 37  1  0  0  0  0
  9  5  1  0  0  0  0
 10 14  1  0  0  0  0
 11 10  1  0  0  0  0
 11  1  1  1  0  0  0
 12  2  1  0  0  0  0
 12  6  1  0  0  0  0
 13 12  2  0  0  0  0
 14 15  1  0  0  0  0
 14 39  1  1  0  0  0
 14 13  1  0  0  0  0
 15  9  1  0  0  0  0
 18  1  1  0  0  0  0
 20  2  1  0  0  0  0
 24  3  1  0  0  0  0
 25  4  1  0  0  0  0
 26  4  1  0  0  0  0
 28  5  1  0  0  0  0
 32  7  1  0  0  0  0
 35  8  1  0  0  0  0
 38 10  1  0  0  0  0
M  RAD  2  10   2  11   2
M  END
>  <HBA>
0

>  <HBD>
0

>  <TPSA>
0.0

>  <cid>
15095

>  <dipole>
1.33

>  <excitation_energy_1>
3.945

>  <excitation_energy_2>
4.269

>  <excitation_energy_3>
4.594

>  <excitation_energy_4>
4.748

>  <homo_energy>
-5.075

>  <homo_lumo_gap>
4.4

>  <logP>
4.869

>  <lumo_energy>
-0.675

>  <melting_point>
61.14

>  <molecular_refractivity>
68.78

>  <oscillator_strength_1>
0.0567

>  <oscillator_strength_2>
0.0055

>  <oscillator_strength_3>
0.0164

>  <oscillator_strength_4>
0.002

>  <open_babel_can_smiles>
C[C]1CCC2=C(C)CCCC([C@@H]2[CH]1)(C)C

>  <mulliken_charges>
39
1   -0.499746
2   -0.516847
3   -0.470852
4   -0.456364
5   -0.274793
6   -0.32957
7   -0.312613
8   -0.340838
9   -0.271595
10   -0.197576
11   0.122288
12   0.096786
13   0.088964
14   -0.169686
15   0.125745
16   0.155537
17   0.154889
18   0.15201
19   0.147924
20   0.154437
21   0.155403
22   0.136908
23   0.143472
24   0.145213
25   0.135209
26   0.152524
27   0.134943
28   0.13796
29   0.130851
30   0.141367
31   0.140404
32   0.149599
33   0.135175
34   0.140565
35   0.150658
36   0.126644
37   0.132794
38   0.109991
39   0.14222

>  <lowdin_charges>
39
1   -0.448466
2   -0.446565
3   -0.443075
4   -0.445756
5   -0.283825
6   -0.278876
7   -0.274289
8   -0.284299
9   -0.278786
10   -0.219147
11   0.001328
12   -0.033728
13   -0.045078
14   -0.118359
15   0.012481
16   0.156867
17   0.154755
18   0.158628
19   0.15165
20   0.155513
21   0.155665
22   0.147319
23   0.146113
24   0.146897
25   0.145354
26   0.152819
27   0.145261
28   0.140842
29   0.146111
30   0.148293
31   0.148005
32   0.156984
33   0.142302
34   0.152051
35   0.152319
36   0.142915
37   0.143861
38   0.138029
39   0.157887

$$$$

