PCCDB-ID:  4
public computational chemistry database (PCCDB) project, http://pccdb.org

 14 13  0  0  1  0  0  0  0  0999 V2000
    0.8689    0.0380    0.0621 C   0  0  0  0  0  0  0  0  0  0  0  0
    2.8657    0.3580   -1.4903 C   0  0  0  0  0  0  0  0  0  0  0  0
    2.3903    0.0909   -0.0597 C   0  0  1  0  0  0  0  0  0  0  0  0
    4.3234    0.2727   -1.5459 N   0  0  0  0  0  0  0  0  0  0  0  0
    2.9508    1.0630    0.8357 O   0  0  0  0  0  0  0  0  0  0  0  0
    0.4499   -0.7761   -0.5404 H   0  0  0  0  0  0  0  0  0  0  0  0
    0.4133    0.9763   -0.2841 H   0  0  0  0  0  0  0  0  0  0  0  0
    0.5779   -0.1176    1.1056 H   0  0  0  0  0  0  0  0  0  0  0  0
    2.4485    1.3357   -1.8105 H   0  0  0  0  0  0  0  0  0  0  0  0
    2.4388   -0.3982   -2.1623 H   0  0  0  0  0  0  0  0  0  0  0  0
    2.8255   -0.8588    0.2697 H   0  0  0  0  0  0  0  0  0  0  0  0
    4.7026    0.8977   -0.8359 H   0  0  0  0  0  0  0  0  0  0  0  0
    4.6649    0.6019   -2.4466 H   0  0  0  0  0  0  0  0  0  0  0  0
    2.5103    1.9087    0.6481 H   0  0  0  0  0  0  0  0  0  0  0  0
  1  8  1  0  0  0  0
  2  3  1  0  0  0  0
  3  1  1  0  0  0  0
  3 11  1  1  0  0  0
  3  5  1  0  0  0  0
  4  2  1  0  0  0  0
  4 12  1  0  0  0  0
  6  1  1  0  0  0  0
  7  1  1  0  0  0  0
  9  2  1  0  0  0  0
 10  2  1  0  0  0  0
 13  4  1  0  0  0  0
 14  5  1  0  0  0  0
M  END
>  <HBA>
2

>  <HBD>
2

>  <TPSA>
46.25

>  <cid>
4

>  <dipole>
2.47

>  <excitation_energy_1>
5.596

>  <excitation_energy_2>
6.262

>  <excitation_energy_3>
6.46

>  <excitation_energy_4>
6.642

>  <homo_energy>
-6.188

>  <homo_lumo_gap>
8.036

>  <logP>
0.026

>  <lumo_energy>
1.848

>  <melting_point>
48.3

>  <molecular_refractivity>
20.4

>  <oscillator_strength_1>
0.0039

>  <oscillator_strength_2>
0.0227

>  <oscillator_strength_3>
0.0011

>  <oscillator_strength_4>
0.0442

>  <open_babel_can_smiles>
C[C@@H](CN)O

>  <mulliken_charges>
14
1   -0.464472
2   -0.129213
3   0.131922
4   -0.720924
5   -0.622405
6   0.148951
7   0.131458
8   0.161801
9   0.092821
10   0.136684
11   0.153963
12   0.30602
13   0.292737
14   0.380656

>  <lowdin_charges>
14
1   -0.461103
2   -0.221347
3   -0.003749
4   -0.562056
5   -0.466274
6   0.157431
7   0.143024
8   0.159247
9   0.108165
10   0.145349
11   0.151923
12   0.259173
13   0.253554
14   0.336663

$$$$

