PCCDB-ID:  31562
public computational chemistry database (PCCDB) project, http://pccdb.org

 26 25  0  0  0  0  0  0  0  0999 V2000
    1.0434   -3.0520   -1.8481 C   0  0  0  0  0  0  0  0  0  0  0  0
   -4.4214    1.0208   -1.4775 C   0  0  0  0  0  0  0  0  0  0  0  0
    0.4079   -1.6860   -2.1171 C   0  0  0  0  0  0  0  0  0  0  0  0
   -4.3873   -0.2293   -2.3772 C   0  0  0  0  0  0  0  0  0  0  0  0
   -0.7601    0.6064   -4.2357 C   0  0  0  0  0  0  0  0  0  0  0  0
   -1.6870   -0.1281   -3.2449 C   0  0  0  0  0  0  0  0  0  0  0  0
    1.4443   -3.7042   -3.0962 N   0  0  0  0  0  0  0  0  0  0  0  0
   -4.9358    2.2488   -2.0660 N   0  0  0  0  0  0  0  0  0  0  0  0
   -0.5139    1.7799   -4.1179 O   0  0  0  0  0  0  0  0  0  0  0  0
   -0.2745   -0.1335   -5.2482 O   0  0  0  0  0  0  0  0  0  0  0  0
   -1.2318   -1.8911   -2.9489 S   0  0  0  0  0  0  0  0  0  0  0  0
   -3.3974   -0.0482   -3.9194 S   0  0  0  0  0  0  0  0  0  0  0  0
    0.3666   -3.6489   -1.2108 H   0  0  0  0  0  0  0  0  0  0  0  0
    1.9514   -2.8727   -1.2597 H   0  0  0  0  0  0  0  0  0  0  0  0
   -3.4154    1.2280   -1.0913 H   0  0  0  0  0  0  0  0  0  0  0  0
   -5.0353    0.7725   -0.6007 H   0  0  0  0  0  0  0  0  0  0  0  0
    1.0677   -1.1036   -2.7669 H   0  0  0  0  0  0  0  0  0  0  0  0
    0.2513   -1.1484   -1.1761 H   0  0  0  0  0  0  0  0  0  0  0  0
   -5.3953   -0.4582   -2.7438 H   0  0  0  0  0  0  0  0  0  0  0  0
   -4.0296   -1.1105   -1.8326 H   0  0  0  0  0  0  0  0  0  0  0  0
   -1.6429    0.4324   -2.3089 H   0  0  0  0  0  0  0  0  0  0  0  0
    0.6234   -4.0367   -3.5993 H   0  0  0  0  0  0  0  0  0  0  0  0
    2.0047   -4.5283   -2.8887 H   0  0  0  0  0  0  0  0  0  0  0  0
   -4.3603    2.5140   -2.8642 H   0  0  0  0  0  0  0  0  0  0  0  0
   -5.8782    2.1008   -2.4252 H   0  0  0  0  0  0  0  0  0  0  0  0
   -0.5122   -1.0725   -5.0960 H   0  0  0  0  0  0  0  0  0  0  0  0
  1 14  1  0  0  0  0
  1 13  1  0  0  0  0
  2 15  1  0  0  0  0
  2 16  1  0  0  0  0
  3  1  1  0  0  0  0
  3 18  1  0  0  0  0
  4 20  1  0  0  0  0
  4  2  1  0  0  0  0
  5  9  2  0  0  0  0
  5  6  1  0  0  0  0
  6 11  1  0  0  0  0
  6 21  1  0  0  0  0
  7 23  1  0  0  0  0
  7  1  1  0  0  0  0
  8  2  1  0  0  0  0
 10 26  1  0  0  0  0
 10  5  1  0  0  0  0
 11  3  1  0  0  0  0
 12  6  1  0  0  0  0
 12  4  1  0  0  0  0
 17  3  1  0  0  0  0
 19  4  1  0  0  0  0
 22  7  1  0  0  0  0
 24  8  1  0  0  0  0
 25  8  1  0  0  0  0
M  END
>  <HBA>
6

>  <HBD>
3

>  <TPSA>
139.94

>  <cid>
31562

>  <dipole>
5.75

>  <excitation_energy_1>
4.956

>  <excitation_energy_2>
5.075

>  <excitation_energy_3>
5.347

>  <excitation_energy_4>
5.402

>  <homo_energy>
-6.493

>  <homo_lumo_gap>
6.016

>  <logP>
1.181

>  <lumo_energy>
-0.476

>  <melting_point>
177.03

>  <molecular_refractivity>
53.32

>  <oscillator_strength_1>
0.0099

>  <oscillator_strength_2>
0.0021

>  <oscillator_strength_3>
0.005

>  <oscillator_strength_4>
0.0018

>  <open_babel_can_smiles>
NCCSC(C(=O)O)SCCN

>  <mulliken_charges>
26
1   -0.151809
2   -0.140297
3   -0.40912
4   -0.435607
5   0.598643
6   -0.509092
7   -0.714166
8   -0.701005
9   -0.425298
10   -0.554187
11   0.07271
12   0.135246
13   0.137119
14   0.15976
15   0.154
16   0.154494
17   0.201578
18   0.174892
19   0.176303
20   0.189174
21   0.223594
22   0.31059
23   0.305266
24   0.321921
25   0.293259
26   0.43203

>  <lowdin_charges>
26
1   -0.206324
2   -0.212137
3   -0.381591
4   -0.397192
5   0.175074
6   -0.37268
7   -0.557463
8   -0.54557
9   -0.228572
10   -0.338857
11   0.082378
12   0.136473
13   0.130818
14   0.156624
15   0.1461
16   0.152461
17   0.173096
18   0.162065
19   0.168679
20   0.170195
21   0.185753
22   0.260022
23   0.261074
24   0.266344
25   0.25291
26   0.360321

$$$$

