PCCDB-ID:  25841
public computational chemistry database (PCCDB) project, http://pccdb.org

 17 17  0  0  1  0  0  0  0  0999 V2000
    0.9896   -0.4459    0.4583 C   0  0  0  0  0  0  0  0  0  0  0  0
    0.3180    0.6888    1.0924 C   0  0  0  0  0  0  0  0  0  0  0  0
    2.4796   -0.2313    0.2017 C   0  0  1  0  0  0  0  0  0  0  0  0
    4.5287   -1.0655   -0.4598 C   0  0  0  0  0  0  0  0  0  0  0  0
    4.3400    1.3316    0.1512 C   0  0  0  0  0  0  0  0  0  0  0  0
   -0.1636    1.6237    1.5837 N   0  0  0  0  0  0  0  0  0  0  0  0
    5.3210   -1.9831   -0.8565 N   0  0  0  0  0  0  0  0  0  0  0  0
    4.9083    2.4632    0.2999 N   0  0  0  0  0  0  0  0  0  0  0  0
    3.1610   -1.2496   -0.1890 N   0  0  0  0  0  0  0  0  0  0  0  0
    2.9800    1.0314    0.3785 N   0  0  0  0  0  0  0  0  0  0  0  0
    5.0400    0.2252   -0.2745 N   0  0  0  0  0  0  0  0  0  0  0  0
    0.5035   -0.6643   -0.5002 H   0  0  0  0  0  0  0  0  0  0  0  0
    0.8787   -1.3418    1.0777 H   0  0  0  0  0  0  0  0  0  0  0  0
    4.7953   -2.8543   -0.9412 H   0  0  0  0  0  0  0  0  0  0  0  0
    4.2584    3.1825    0.6167 H   0  0  0  0  0  0  0  0  0  0  0  0
    2.3814    1.7713    0.7244 H   0  0  0  0  0  0  0  0  0  0  0  0
    6.0253    0.3611   -0.4620 H   0  0  0  0  0  0  0  0  0  0  0  0
  1 13  1  0  0  0  0
  1  2  1  0  0  0  0
  2  6  3  0  0  0  0
  3 10  1  0  0  0  0
  3  1  1  6  0  0  0
  4 11  1  0  0  0  0
  4  9  2  0  0  0  0
  5  8  2  0  0  0  0
  5 10  1  0  0  0  0
  7  4  1  0  0  0  0
  8 15  1  0  0  0  0
  9  3  1  0  0  0  0
 10 16  1  0  0  0  0
 11  5  1  0  0  0  0
 12  1  1  0  0  0  0
 14  7  1  0  0  0  0
 17 11  1  0  0  0  0
M  RAD  2   3   2   7   2
M  END
>  <HBA>
6

>  <HBD>
2

>  <TPSA>
114.5

>  <cid>
25841

>  <dipole>
3.02

>  <excitation_energy_1>
4.651

>  <excitation_energy_2>
5.07

>  <excitation_energy_3>
5.237

>  <excitation_energy_4>
5.557

>  <homo_energy>
-6.64

>  <homo_lumo_gap>
5.317

>  <logP>
0.264

>  <lumo_energy>
-1.322

>  <melting_point>
187.22

>  <molecular_refractivity>
38.16

>  <oscillator_strength_1>
0.0222

>  <oscillator_strength_2>
0.0706

>  <oscillator_strength_3>
0.0019

>  <oscillator_strength_4>
0.0058

>  <open_babel_can_smiles>
N#CC[C]1NC(=N)NC(=N1)[NH]

>  <mulliken_charges>
17
1   -0.410117
2   0.357324
3   0.542531
4   0.609467
5   0.691734
6   -0.461668
7   -0.63919
8   -0.637675
9   -0.508579
10   -0.696821
11   -0.645622
12   0.243896
13   0.244652
14   0.298852
15   0.286253
16   0.361692
17   0.363271

>  <lowdin_charges>
17
1   -0.276643
2   -0.021492
3   0.123335
4   0.12084
5   0.140174
6   -0.106362
7   -0.416677
8   -0.441286
9   -0.222929
10   -0.247153
11   -0.231149
12   0.213307
13   0.215369
14   0.266207
15   0.262152
16   0.308898
17   0.313408

$$$$

