PCCDB-ID:  68463
public computational chemistry database (PCCDB) project, http://pccdb.org

 20 21  0  0  0  0  0  0  0  0999 V2000
    2.4427   -0.6646    0.0148 C   0  0  0  0  0  0  0  0  0  0  0  0
    1.2730   -1.3871    0.0080 C   0  0  0  0  0  0  0  0  0  0  0  0
    2.4278    0.7505    0.0105 C   0  0  0  0  0  0  0  0  0  0  0  0
   -2.4407    0.6644   -0.0224 C   0  0  0  0  0  0  0  0  0  0  0  0
   -1.2647    1.3791   -0.0171 C   0  0  0  0  0  0  0  0  0  0  0  0
   -1.2096   -1.4276   -0.0094 C   0  0  0  0  0  0  0  0  0  0  0  0
    0.0165   -0.7181   -0.0021 C   0  0  0  0  0  0  0  0  0  0  0  0
   -2.4132   -0.7530   -0.0188 C   0  0  0  0  0  0  0  0  0  0  0  0
   -0.0130    0.7149   -0.0058 C   0  0  0  0  0  0  0  0  0  0  0  0
    1.2245    1.4250    0.0010 C   0  0  0  0  0  0  0  0  0  0  0  0
   -3.5668   -1.4893   -0.0223 O   0  0  0  0  0  0  0  0  0  0  0  0
    1.1389    2.7915   -0.0020 O   0  0  0  0  0  0  0  0  0  0  0  0
    3.4000   -1.1788    0.0231 H   0  0  0  0  0  0  0  0  0  0  0  0
    1.2920   -2.4733    0.0114 H   0  0  0  0  0  0  0  0  0  0  0  0
    3.3642    1.3053    0.0161 H   0  0  0  0  0  0  0  0  0  0  0  0
   -3.3978    1.1836   -0.0295 H   0  0  0  0  0  0  0  0  0  0  0  0
   -1.2844    2.4633   -0.0196 H   0  0  0  0  0  0  0  0  0  0  0  0
   -1.2103   -2.5134   -0.0064 H   0  0  0  0  0  0  0  0  0  0  0  0
   -4.3250   -0.8853   -0.0390 H   0  0  0  0  0  0  0  0  0  0  0  0
    2.0366    3.1581   -0.0004 H   0  0  0  0  0  0  0  0  0  0  0  0
  1 13  1  0  0  0  0
  2 14  1  0  0  0  0
  2  1  2  0  0  0  0
  3  1  1  0  0  0  0
  3 15  1  0  0  0  0
  4  8  2  0  0  0  0
  4  5  1  0  0  0  0
  5  9  2  0  0  0  0
  6 18  1  0  0  0  0
  6  7  2  0  0  0  0
  7  2  1  0  0  0  0
  8  6  1  0  0  0  0
  9  7  1  0  0  0  0
  9 10  1  0  0  0  0
 10  3  2  0  0  0  0
 11  8  1  0  0  0  0
 12 20  1  0  0  0  0
 12 10  1  0  0  0  0
 16  4  1  0  0  0  0
 17  5  1  0  0  0  0
 19 11  1  0  0  0  0
M  END
>  <HBA>
2

>  <HBD>
2

>  <TPSA>
40.46

>  <cid>
68463

>  <dipole>
1.64

>  <excitation_energy_1>
3.998

>  <excitation_energy_2>
4.342

>  <excitation_energy_3>
4.663

>  <excitation_energy_4>
4.841

>  <homo_energy>
-5.282

>  <homo_lumo_gap>
4.547

>  <logP>
2.251

>  <lumo_energy>
-0.735

>  <melting_point>
129.6

>  <molecular_refractivity>
47.99

>  <oscillator_strength_1>
0.0564

>  <oscillator_strength_2>
0.0096

>  <oscillator_strength_3>
0.0

>  <oscillator_strength_4>
0.0007

>  <open_babel_can_smiles>
Oc1ccc2c(c1)cccc2O

>  <mulliken_charges>
20
1   -0.140202
2   -0.195932
3   -0.206088
4   -0.19777
5   -0.178474
6   -0.252624
7   0.136869
8   0.359861
9   0.081357
10   0.288889
11   -0.645418
12   -0.644306
13   0.128528
14   0.12515
15   0.112203
16   0.119461
17   0.15499
18   0.136631
19   0.407246
20   0.409629

>  <lowdin_charges>
20
1   -0.14509
2   -0.182861
3   -0.23488
4   -0.20842
5   -0.134547
6   -0.196161
7   0.018439
8   0.102428
9   -0.039662
10   0.108113
11   -0.378954
12   -0.378771
13   0.158429
14   0.155118
15   0.152166
16   0.153691
17   0.169876
18   0.164597
19   0.357881
20   0.35861

$$$$

