PCCDB-ID:  12121
public computational chemistry database (PCCDB) project, http://pccdb.org

 21 21  0  0  0  0  0  0  0  0999 V2000
    0.8904    0.2104    0.2195 C   0  0  0  0  0  0  0  0  0  0  0  0
    4.4081    1.5882   -0.3587 C   0  0  0  0  0  0  0  0  0  0  0  0
    3.0304    1.5254   -0.1377 C   0  0  0  0  0  0  0  0  0  0  0  0
    5.1561    0.4192   -0.4772 C   0  0  0  0  0  0  0  0  0  0  0  0
    3.1455   -0.8756   -0.1586 C   0  0  0  0  0  0  0  0  0  0  0  0
    5.3350   -2.1092   -0.4725 C   0  0  0  0  0  0  0  0  0  0  0  0
    2.3781    0.2923   -0.0325 C   0  0  0  0  0  0  0  0  0  0  0  0
    4.5295   -0.8323   -0.3804 C   0  0  0  0  0  0  0  0  0  0  0  0
    5.8529   -2.6786    0.8622 C   0  0  0  0  0  0  0  0  0  0  0  0
    6.7416   -3.4909    0.9150 O   0  0  0  0  0  0  0  0  0  0  0  0
    5.2300   -2.2533    1.9858 O   0  0  0  0  0  0  0  0  0  0  0  0
    0.4013    1.1728    0.0403 H   0  0  0  0  0  0  0  0  0  0  0  0
    0.6780   -0.0787    1.2570 H   0  0  0  0  0  0  0  0  0  0  0  0
    0.4148   -0.5365   -0.4260 H   0  0  0  0  0  0  0  0  0  0  0  0
    4.8978    2.5546   -0.4428 H   0  0  0  0  0  0  0  0  0  0  0  0
    2.4556    2.4441   -0.0502 H   0  0  0  0  0  0  0  0  0  0  0  0
    6.2279    0.4716   -0.6517 H   0  0  0  0  0  0  0  0  0  0  0  0
    2.6480   -1.8433   -0.1017 H   0  0  0  0  0  0  0  0  0  0  0  0
    6.2147   -1.9829   -1.1099 H   0  0  0  0  0  0  0  0  0  0  0  0
    4.7366   -2.9094   -0.9271 H   0  0  0  0  0  0  0  0  0  0  0  0
    4.5731   -1.5717    1.7520 H   0  0  0  0  0  0  0  0  0  0  0  0
  1 13  1  0  0  0  0
  2  3  2  0  0  0  0
  3 16  1  0  0  0  0
  3  7  1  0  0  0  0
  4  8  2  0  0  0  0
  4  2  1  0  0  0  0
  5 18  1  0  0  0  0
  5  7  2  0  0  0  0
  6  8  1  0  0  0  0
  6  9  1  0  0  0  0
  7  1  1  0  0  0  0
  8  5  1  0  0  0  0
  9 10  2  0  0  0  0
  9 11  1  0  0  0  0
 12  1  1  0  0  0  0
 14  1  1  0  0  0  0
 15  2  1  0  0  0  0
 17  4  1  0  0  0  0
 19  6  1  0  0  0  0
 20  6  1  0  0  0  0
 21 11  1  0  0  0  0
M  END
>  <HBA>
2

>  <HBD>
1

>  <TPSA>
37.3

>  <cid>
12121

>  <dipole>
5.19

>  <excitation_energy_1>
5.105

>  <excitation_energy_2>
5.544

>  <excitation_energy_3>
5.653

>  <excitation_energy_4>
6.026

>  <homo_energy>
-6.776

>  <homo_lumo_gap>
6.147

>  <logP>
1.622

>  <lumo_energy>
-0.629

>  <melting_point>
88.48

>  <molecular_refractivity>
42.95

>  <oscillator_strength_1>
0.0053

>  <oscillator_strength_2>
0.0089

>  <oscillator_strength_3>
0.0332

>  <oscillator_strength_4>
0.047

>  <open_babel_can_smiles>
OC(=O)Cc1cccc(c1)C

>  <mulliken_charges>
21
1   -0.530064
2   -0.123118
3   -0.180836
4   -0.168565
5   -0.252556
6   -0.454287
7   0.185736
8   0.105572
9   0.588726
10   -0.44167
11   -0.566122
12   0.161169
13   0.169841
14   0.165466
15   0.13965
16   0.131283
17   0.139226
18   0.13168
19   0.190603
20   0.191811
21   0.416454

>  <lowdin_charges>
21
1   -0.442691
2   -0.145962
3   -0.165562
4   -0.164022
5   -0.190632
6   -0.315457
7   0.007686
8   -0.025527
9   0.187959
10   -0.244226
11   -0.354086
12   0.160415
13   0.163828
14   0.164089
15   0.162764
16   0.159494
17   0.160255
18   0.156853
19   0.182035
20   0.182124
21   0.360663

$$$$

