PCCDB-ID:  70114
public computational chemistry database (PCCDB) project, http://pccdb.org

 20 20  0  0  0  0  0  0  0  0999 V2000
    0.6810    1.2860   -0.1487 C   0  0  0  0  0  0  0  0  0  0  0  0
    1.3897   -0.0096    0.2683 C   0  0  0  0  0  0  0  0  0  0  0  0
   -0.8191    1.2106    0.1709 C   0  0  0  0  0  0  0  0  0  0  0  0
    0.6968   -1.2535   -0.3155 C   0  0  0  0  0  0  0  0  0  0  0  0
   -1.4336   -0.0602   -0.4248 C   0  0  0  0  0  0  0  0  0  0  0  0
   -1.3149   -2.0988    0.9471 C   0  0  0  0  0  0  0  0  0  0  0  0
   -0.7303   -1.2689    0.0487 N   0  0  0  0  0  0  0  0  0  0  0  0
   -2.7306   -1.7975    1.7823 S   0  0  0  0  0  0  0  0  0  0  0  0
   -0.5561   -3.6830    1.3257 S   0  0  0  0  0  0  0  0  0  0  0  0
    0.8144    1.4421   -1.2295 H   0  0  0  0  0  0  0  0  0  0  0  0
    1.1404    2.1464    0.3520 H   0  0  0  0  0  0  0  0  0  0  0  0
    1.3939   -0.0981    1.3624 H   0  0  0  0  0  0  0  0  0  0  0  0
    2.4366   -0.0063   -0.0600 H   0  0  0  0  0  0  0  0  0  0  0  0
   -1.3462    2.0848   -0.2304 H   0  0  0  0  0  0  0  0  0  0  0  0
   -0.9807    1.2033    1.2559 H   0  0  0  0  0  0  0  0  0  0  0  0
    1.1883   -2.1518    0.0506 H   0  0  0  0  0  0  0  0  0  0  0  0
    0.7689   -1.2508   -1.4120 H   0  0  0  0  0  0  0  0  0  0  0  0
   -1.3358   -0.0482   -1.5199 H   0  0  0  0  0  0  0  0  0  0  0  0
   -2.4873   -0.1569   -0.1683 H   0  0  0  0  0  0  0  0  0  0  0  0
    0.2186   -3.8678    0.2290 H   0  0  0  0  0  0  0  0  0  0  0  0
  1  3  1  0  0  0  0
  1  2  1  0  0  0  0
  1 11  1  0  0  0  0
  2 12  1  0  0  0  0
  3 15  1  0  0  0  0
  4  7  1  0  0  0  0
  4 16  1  0  0  0  0
  4  2  1  0  0  0  0
  5 19  1  0  0  0  0
  5  7  1  0  0  0  0
  5  3  1  0  0  0  0
  6  9  1  0  0  0  0
  6  8  2  0  0  0  0
  7  6  1  0  0  0  0
 10  1  1  0  0  0  0
 13  2  1  0  0  0  0
 14  3  1  0  0  0  0
 17  4  1  0  0  0  0
 18  5  1  0  0  0  0
 20  9  1  0  0  0  0
M  END
>  <HBA>
3

>  <HBD>
1

>  <TPSA>
74.13

>  <cid>
70114

>  <dipole>
5.76

>  <excitation_energy_1>
3.355

>  <excitation_energy_2>
4.582

>  <excitation_energy_3>
4.798

>  <excitation_energy_4>
5.025

>  <homo_energy>
-5.646

>  <homo_lumo_gap>
4.689

>  <logP>
1.625

>  <lumo_energy>
-0.958

>  <melting_point>
49.27

>  <molecular_refractivity>
51.37

>  <oscillator_strength_1>
0.0011

>  <oscillator_strength_2>
0.0633

>  <oscillator_strength_3>
0.0759

>  <oscillator_strength_4>
0.0786

>  <open_babel_can_smiles>
SC(=S)N1CCCCC1

>  <mulliken_charges>
20
1   -0.268483
2   -0.262886
3   -0.264139
4   -0.157766
5   -0.157255
6   -0.035667
7   -0.322105
8   -0.214865
9   0.047415
10   0.133228
11   0.147866
12   0.159027
13   0.146114
14   0.146149
15   0.16772
16   0.154707
17   0.155845
18   0.146272
19   0.203889
20   0.074933

>  <lowdin_charges>
20
1   -0.279252
2   -0.279554
3   -0.28176
4   -0.199239
5   -0.195388
6   -0.156846
7   -0.07374
8   -0.201739
9   0.022951
10   0.138136
11   0.153257
12   0.151984
13   0.152376
14   0.15488
15   0.156823
16   0.162066
17   0.147083
18   0.143329
19   0.182664
20   0.101971

$$$$

