PCCDB-ID:  61200
public computational chemistry database (PCCDB) project, http://pccdb.org

 18 18  0  0  0  0  0  0  0  0999 V2000
    0.9020    0.0364    0.1852 C   0  0  0  0  0  0  0  0  0  0  0  0
    3.1552    1.1867    0.0236 C   0  0  0  0  0  0  0  0  0  0  0  0
    4.5367    1.1271   -0.1030 C   0  0  0  0  0  0  0  0  0  0  0  0
    3.0699   -1.2163   -0.1277 C   0  0  0  0  0  0  0  0  0  0  0  0
    6.6927   -0.0385   -0.3772 C   0  0  0  0  0  0  0  0  0  0  0  0
    2.4018    0.0036    0.0159 C   0  0  0  0  0  0  0  0  0  0  0  0
    5.2230   -0.0888   -0.2442 C   0  0  0  0  0  0  0  0  0  0  0  0
    4.4618   -1.2814   -0.2556 C   0  0  0  0  0  0  0  0  0  0  0  0
    7.4527   -0.9777   -0.5052 O   0  0  0  0  0  0  0  0  0  0  0  0
    5.1050   -2.4660   -0.3949 O   0  0  0  0  0  0  0  0  0  0  0  0
    0.4886    1.0059   -0.1093 H   0  0  0  0  0  0  0  0  0  0  0  0
    0.6224   -0.1340    1.2334 H   0  0  0  0  0  0  0  0  0  0  0  0
    0.4116   -0.7403   -0.4113 H   0  0  0  0  0  0  0  0  0  0  0  0
    2.6552    2.1453    0.1288 H   0  0  0  0  0  0  0  0  0  0  0  0
    5.1196    2.0460   -0.0989 H   0  0  0  0  0  0  0  0  0  0  0  0
    2.4965   -2.1430   -0.1412 H   0  0  0  0  0  0  0  0  0  0  0  0
    7.0871    1.0049   -0.3487 H   0  0  0  0  0  0  0  0  0  0  0  0
    4.4466   -3.1795   -0.3894 H   0  0  0  0  0  0  0  0  0  0  0  0
  1 12  1  0  0  0  0
  2 14  1  0  0  0  0
  3 15  1  0  0  0  0
  3  2  2  0  0  0  0
  4  6  2  0  0  0  0
  5 17  1  0  0  0  0
  5  7  1  0  0  0  0
  6  2  1  0  0  0  0
  6  1  1  0  0  0  0
  7  3  1  0  0  0  0
  8  7  2  0  0  0  0
  8  4  1  0  0  0  0
  9  5  2  0  0  0  0
 10 18  1  0  0  0  0
 10  8  1  0  0  0  0
 11  1  1  0  0  0  0
 13  1  1  0  0  0  0
 16  4  1  0  0  0  0
M  END
>  <HBA>
2

>  <HBD>
1

>  <TPSA>
37.3

>  <cid>
61200

>  <dipole>
4.77

>  <excitation_energy_1>
3.627

>  <excitation_energy_2>
4.317

>  <excitation_energy_3>
5.138

>  <excitation_energy_4>
5.347

>  <homo_energy>
-6.329

>  <homo_lumo_gap>
4.936

>  <logP>
1.513

>  <lumo_energy>
-1.393

>  <melting_point>
82.9

>  <molecular_refractivity>
38.82

>  <oscillator_strength_1>
0.0001

>  <oscillator_strength_2>
0.0807

>  <oscillator_strength_3>
0.186

>  <oscillator_strength_4>
0.0004

>  <open_babel_can_smiles>
O=Cc1ccc(cc1O)C

>  <mulliken_charges>
18
1   -0.533297
2   -0.185044
3   -0.198942
4   -0.247079
5   0.189721
6   0.183445
7   0.087485
8   0.316171
9   -0.40048
10   -0.602484
11   0.164123
12   0.174217
13   0.162779
14   0.127903
15   0.142494
16   0.116488
17   0.092809
18   0.409689

>  <lowdin_charges>
18
1   -0.441835
2   -0.192138
3   -0.129294
4   -0.225854
5   0.043167
6   0.031682
7   -0.087274
8   0.127499
9   -0.223236
10   -0.33959
11   0.16216
12   0.166594
13   0.162711
14   0.158872
15   0.163262
16   0.153277
17   0.110157
18   0.359841

$$$$

