PCCDB-ID:  31358
public computational chemistry database (PCCDB) project, http://pccdb.org

 22 22  0  0  0  0  0  0  0  0999 V2000
    0.9771    0.0703    0.0138 C   0  0  0  0  0  0  0  0  0  0  0  0
    3.0381    0.2519   -1.4163 C   0  0  0  0  0  0  0  0  0  0  0  0
    3.0463   -0.3120    2.9717 C   0  0  0  0  0  0  0  0  0  0  0  0
    3.0432   -1.2802    0.5847 C   0  0  0  0  0  0  0  0  0  0  0  0
    3.0466    1.2265    0.9076 C   0  0  0  0  0  0  0  0  0  0  0  0
    2.6882   -1.4797    2.0509 C   0  0  0  0  0  0  0  0  0  0  0  0
    2.6853    1.0492    2.3747 C   0  0  0  0  0  0  0  0  0  0  0  0
    2.5193    0.0675    0.0193 C   0  0  0  0  0  0  0  0  0  0  0  0
    2.1545   -2.4847    2.4731 O   0  0  0  0  0  0  0  0  0  0  0  0
    2.1453    1.9128    3.0348 O   0  0  0  0  0  0  0  0  0  0  0  0
    0.5906   -0.7441   -0.6093 H   0  0  0  0  0  0  0  0  0  0  0  0
    0.5929    1.0154   -0.3865 H   0  0  0  0  0  0  0  0  0  0  0  0
    0.5570   -0.0564    1.0187 H   0  0  0  0  0  0  0  0  0  0  0  0
    2.6834   -0.5566   -2.0663 H   0  0  0  0  0  0  0  0  0  0  0  0
    4.1343    0.2541   -1.4487 H   0  0  0  0  0  0  0  0  0  0  0  0
    2.6866    1.2003   -1.8396 H   0  0  0  0  0  0  0  0  0  0  0  0
    4.1409   -0.3271    3.1004 H   0  0  0  0  0  0  0  0  0  0  0  0
    2.5820   -0.4384    3.9515 H   0  0  0  0  0  0  0  0  0  0  0  0
    2.6483   -2.1288    0.0177 H   0  0  0  0  0  0  0  0  0  0  0  0
    4.1406   -1.3001    0.4951 H   0  0  0  0  0  0  0  0  0  0  0  0
    4.1445    1.2624    0.8302 H   0  0  0  0  0  0  0  0  0  0  0  0
    2.6576    2.1926    0.5716 H   0  0  0  0  0  0  0  0  0  0  0  0
  1  8  1  0  0  0  0
  1 13  1  0  0  0  0
  2  8  1  0  0  0  0
  3 17  1  0  0  0  0
  3 18  1  0  0  0  0
  4  6  1  0  0  0  0
  5  7  1  0  0  0  0
  6  9  2  0  0  0  0
  6  3  1  0  0  0  0
  7  3  1  0  0  0  0
  7 10  2  0  0  0  0
  8  4  1  0  0  0  0
  8  5  1  0  0  0  0
 11  1  1  0  0  0  0
 12  1  1  0  0  0  0
 14  2  1  0  0  0  0
 15  2  1  0  0  0  0
 16  2  1  0  0  0  0
 19  4  1  0  0  0  0
 20  4  1  0  0  0  0
 21  5  1  0  0  0  0
 22  5  1  0  0  0  0
M  END
>  <HBA>
2

>  <HBD>
0

>  <TPSA>
34.14

>  <cid>
31358

>  <dipole>
3.7

>  <excitation_energy_1>
4.147

>  <excitation_energy_2>
4.351

>  <excitation_energy_3>
5.241

>  <excitation_energy_4>
5.646

>  <homo_energy>
-6.664

>  <homo_lumo_gap>
5.679

>  <logP>
1.335

>  <lumo_energy>
-0.985

>  <melting_point>
56.16

>  <molecular_refractivity>
38.6

>  <oscillator_strength_1>
0.0019

>  <oscillator_strength_2>
0.0

>  <oscillator_strength_3>
0.0002

>  <oscillator_strength_4>
0.0472

>  <open_babel_can_smiles>
O=C1CC(=O)CC(C1)(C)C

>  <mulliken_charges>
22
1   -0.455537
2   -0.443765
3   -0.434287
4   -0.34498
5   -0.344884
6   0.449745
7   0.449888
8   0.061866
9   -0.436292
10   -0.436462
11   0.153706
12   0.153735
13   0.161825
14   0.150367
15   0.142076
16   0.150318
17   0.185439
18   0.195474
19   0.167865
20   0.153164
21   0.152964
22   0.167776

>  <lowdin_charges>
22
1   -0.447139
2   -0.438373
3   -0.332662
4   -0.306209
5   -0.305599
6   0.156194
7   0.158286
8   0.014956
9   -0.220972
10   -0.221725
11   0.156967
12   0.156213
13   0.156373
14   0.15473
15   0.14676
16   0.153871
17   0.183264
18   0.183231
19   0.167947
20   0.158573
21   0.158419
22   0.166896

$$$$

