PCCDB-ID:  70271
public computational chemistry database (PCCDB) project, http://pccdb.org

 23 23  0  0  0  0  0  0  0  0999 V2000
    0.7008    1.4020   -0.3206 C   0  0  0  0  0  0  0  0  0  0  0  0
    1.5294    0.1536    0.0146 C   0  0  0  0  0  0  0  0  0  0  0  0
   -0.7008    1.3223    0.3015 C   0  0  0  0  0  0  0  0  0  0  0  0
    0.8001   -1.1435   -0.3989 C   0  0  0  0  0  0  0  0  0  0  0  0
   -1.4267    0.0279   -0.1188 C   0  0  0  0  0  0  0  0  0  0  0  0
   -1.0956   -2.2084    0.9222 C   0  0  0  0  0  0  0  0  0  0  0  0
   -0.4265   -3.4861    1.3435 C   0  0  0  0  0  0  0  0  0  0  0  0
   -0.5964   -1.2030    0.1854 C   0  0  0  0  0  0  0  0  0  0  0  0
   -0.5041   -3.6813    2.7596 O   0  0  0  0  0  0  0  0  0  0  0  0
    0.6070    1.4915   -1.4133 H   0  0  0  0  0  0  0  0  0  0  0  0
    1.2199    2.3054    0.0237 H   0  0  0  0  0  0  0  0  0  0  0  0
    1.7214    0.1254    1.0966 H   0  0  0  0  0  0  0  0  0  0  0  0
    2.5082    0.1990   -0.4793 H   0  0  0  0  0  0  0  0  0  0  0  0
   -1.2988    2.1958    0.0127 H   0  0  0  0  0  0  0  0  0  0  0  0
   -0.6150    1.3442    1.3971 H   0  0  0  0  0  0  0  0  0  0  0  0
    1.3979   -2.0160   -0.1193 H   0  0  0  0  0  0  0  0  0  0  0  0
    0.7223   -1.1614   -1.4977 H   0  0  0  0  0  0  0  0  0  0  0  0
   -1.6159    0.0747   -1.2036 H   0  0  0  0  0  0  0  0  0  0  0  0
   -2.4056   -0.0396    0.3697 H   0  0  0  0  0  0  0  0  0  0  0  0
   -2.1190   -2.1166    1.2900 H   0  0  0  0  0  0  0  0  0  0  0  0
    0.6154   -3.5403    0.9970 H   0  0  0  0  0  0  0  0  0  0  0  0
   -0.9511   -4.3495    0.9163 H   0  0  0  0  0  0  0  0  0  0  0  0
   -0.1313   -2.8852    3.1702 H   0  0  0  0  0  0  0  0  0  0  0  0
  1  2  1  0  0  0  0
  1 11  1  0  0  0  0
  1  3  1  0  0  0  0
  2 12  1  0  0  0  0
  3 15  1  0  0  0  0
  4 16  1  0  0  0  0
  4  2  1  0  0  0  0
  4  8  1  0  0  0  0
  5  8  1  0  0  0  0
  5  3  1  0  0  0  0
  5 19  1  0  0  0  0
  6 20  1  0  0  0  0
  6  7  1  0  0  0  0
  7  9  1  0  0  0  0
  8  6  2  0  0  0  0
  9 23  1  0  0  0  0
 10  1  1  0  0  0  0
 13  2  1  0  0  0  0
 14  3  1  0  0  0  0
 17  4  1  0  0  0  0
 18  5  1  0  0  0  0
 21  7  1  0  0  0  0
 22  7  1  0  0  0  0
M  END
>  <HBA>
1

>  <HBD>
1

>  <TPSA>
20.23

>  <cid>
70271

>  <dipole>
2.34

>  <excitation_energy_1>
5.853

>  <excitation_energy_2>
5.935

>  <excitation_energy_3>
6.357

>  <excitation_energy_4>
6.389

>  <homo_energy>
-6.397

>  <homo_lumo_gap>
6.795

>  <logP>
1.869

>  <lumo_energy>
0.397

>  <melting_point>
26.52

>  <molecular_refractivity>
39.14

>  <oscillator_strength_1>
0.1174

>  <oscillator_strength_2>
0.1113

>  <oscillator_strength_3>
0.0099

>  <oscillator_strength_4>
0.0379

>  <open_babel_can_smiles>
OCC=C1CCCCC1

>  <mulliken_charges>
23
1   -0.258673
2   -0.255695
3   -0.256149
4   -0.335195
5   -0.326293
6   -0.23499
7   -0.062422
8   0.201512
9   -0.615753
10   0.129248
11   0.134311
12   0.131269
13   0.134109
14   0.133606
15   0.133154
16   0.14078
17   0.142371
18   0.138368
19   0.140134
20   0.12535
21   0.126625
22   0.151737
23   0.382595

>  <lowdin_charges>
23
1   -0.277537
2   -0.272782
3   -0.274773
4   -0.279097
5   -0.271573
6   -0.217149
7   -0.132509
8   -0.007717
9   -0.47319
10   0.13587
11   0.145969
12   0.137452
13   0.14467
14   0.145504
15   0.138061
16   0.149454
17   0.146244
18   0.143413
19   0.14866
20   0.15064
21   0.129179
22   0.152697
23   0.33851

$$$$

