PCCDB-ID:  16498
public computational chemistry database (PCCDB) project, http://pccdb.org

 23 23  0  0  0  0  0  0  0  0999 V2000
    2.3825   -0.9175   -1.5751 C   0  0  0  0  0  0  0  0  0  0  0  0
    3.4160   -0.9586    0.7522 C   0  0  0  0  0  0  0  0  0  0  0  0
    2.8370    3.6789   -0.2942 C   0  0  0  0  0  0  0  0  0  0  0  0
    2.3696    2.3792   -0.1128 C   0  0  0  0  0  0  0  0  0  0  0  0
    4.0992    3.8922   -0.8529 C   0  0  0  0  0  0  0  0  0  0  0  0
    2.5765   -0.1471   -0.2541 C   0  0  0  0  0  0  0  0  0  0  0  0
    3.1302    1.2553   -0.4739 C   0  0  0  0  0  0  0  0  0  0  0  0
    4.8681    2.7934   -1.2171 C   0  0  0  0  0  0  0  0  0  0  0  0
    4.3955    1.4833   -1.0329 C   0  0  0  0  0  0  0  0  0  0  0  0
    6.1286    2.8745   -1.7765 O   0  0  0  0  0  0  0  0  0  0  0  0
    5.1939    0.4341   -1.4081 O   0  0  0  0  0  0  0  0  0  0  0  0
    1.9048   -1.8858   -1.3820 H   0  0  0  0  0  0  0  0  0  0  0  0
    3.3404   -1.1015   -2.0694 H   0  0  0  0  0  0  0  0  0  0  0  0
    1.7431   -0.3567   -2.2663 H   0  0  0  0  0  0  0  0  0  0  0  0
    2.9421   -1.9287    0.9458 H   0  0  0  0  0  0  0  0  0  0  0  0
    3.5043   -0.4285    1.7073 H   0  0  0  0  0  0  0  0  0  0  0  0
    4.4238   -1.1407    0.3685 H   0  0  0  0  0  0  0  0  0  0  0  0
    2.2241    4.5274   -0.0049 H   0  0  0  0  0  0  0  0  0  0  0  0
    1.3863    2.2205    0.3226 H   0  0  0  0  0  0  0  0  0  0  0  0
    4.4838    4.8996   -1.0014 H   0  0  0  0  0  0  0  0  0  0  0  0
    1.5808   -0.0125    0.1901 H   0  0  0  0  0  0  0  0  0  0  0  0
    6.3787    3.8046   -1.8780 H   0  0  0  0  0  0  0  0  0  0  0  0
    6.0128    0.8147   -1.7703 H   0  0  0  0  0  0  0  0  0  0  0  0
  1 12  1  0  0  0  0
  1  6  1  0  0  0  0
  2 15  1  0  0  0  0
  2 16  1  0  0  0  0
  3  4  1  0  0  0  0
  3 18  1  0  0  0  0
  4 19  1  0  0  0  0
  5  3  2  0  0  0  0
  6 21  1  0  0  0  0
  6  2  1  0  0  0  0
  7  6  1  0  0  0  0
  7  4  2  0  0  0  0
  8  9  2  0  0  0  0
  8  5  1  0  0  0  0
  9  7  1  0  0  0  0
 10  8  1  0  0  0  0
 11  9  1  0  0  0  0
 13  1  1  0  0  0  0
 14  1  1  0  0  0  0
 17  2  1  0  0  0  0
 20  5  1  0  0  0  0
 22 10  1  0  0  0  0
 23 11  1  0  0  0  0
M  END
>  <HBA>
2

>  <HBD>
2

>  <TPSA>
40.46

>  <cid>
16498

>  <dipole>
2.4

>  <excitation_energy_1>
4.681

>  <excitation_energy_2>
4.971

>  <excitation_energy_3>
5.303

>  <excitation_energy_4>
5.452

>  <homo_energy>
-5.578

>  <homo_lumo_gap>
5.848

>  <logP>
2.221

>  <lumo_energy>
0.269

>  <melting_point>
87.77

>  <molecular_refractivity>
45.07

>  <oscillator_strength_1>
0.0008

>  <oscillator_strength_2>
0.0307

>  <oscillator_strength_3>
0.0007

>  <oscillator_strength_4>
0.0032

>  <open_babel_can_smiles>
CC(c1cccc(c1O)O)C

>  <mulliken_charges>
23
1   -0.447397
2   -0.447665
3   -0.134256
4   -0.210466
5   -0.197363
6   -0.144153
7   0.14103
8   0.312339
9   0.254114
10   -0.684917
11   -0.660818
12   0.134295
13   0.169114
14   0.140095
15   0.134343
16   0.14018
17   0.169282
18   0.124957
19   0.120635
20   0.116935
21   0.124189
22   0.416905
23   0.428619

>  <lowdin_charges>
23
1   -0.447659
2   -0.445408
3   -0.169967
4   -0.176349
5   -0.208962
6   -0.111068
7   -0.022708
8   0.06049
9   0.069893
10   -0.404775
11   -0.38299
12   0.144982
13   0.159558
14   0.149422
15   0.144994
16   0.147916
17   0.158933
18   0.158319
19   0.154226
20   0.152801
21   0.140076
22   0.363365
23   0.364911

$$$$

