PCCDB-ID:  66749
public computational chemistry database (PCCDB) project, http://pccdb.org

 34 34  0  0  0  0  0  0  0  0999 V2000
    3.1747   -1.0757    3.3347 C   0  0  0  0  0  0  0  0  0  0  0  0
    0.3213   -1.0265    0.8309 C   0  0  0  0  0  0  0  0  0  0  0  0
    2.5641   -2.2020    2.4814 C   0  0  0  0  0  0  0  0  0  0  0  0
    1.8138   -0.9167    0.5119 C   0  0  0  0  0  0  0  0  0  0  0  0
    5.9638   -4.6643   -4.2496 C   0  0  0  0  0  0  0  0  0  0  0  0
    4.7701   -4.6765   -3.5264 C   0  0  0  0  0  0  0  0  0  0  0  0
    7.1479   -4.2448   -3.6350 C   0  0  0  0  0  0  0  0  0  0  0  0
    4.7570   -4.2723   -2.1911 C   0  0  0  0  0  0  0  0  0  0  0  0
    7.1342   -3.8366   -2.3054 C   0  0  0  0  0  0  0  0  0  0  0  0
    4.7226   -3.3507    0.6973 C   0  0  0  0  0  0  0  0  0  0  0  0
    3.9592   -2.0295    0.4591 C   0  0  0  0  0  0  0  0  0  0  0  0
    5.9399   -3.8472   -1.5661 C   0  0  0  0  0  0  0  0  0  0  0  0
    5.9978   -3.3938   -0.1358 C   0  0  0  0  0  0  0  0  0  0  0  0
    2.6090   -2.0401    1.0213 N   0  0  0  0  0  0  0  0  0  0  0  0
    7.0565   -3.0258    0.3543 O   0  0  0  0  0  0  0  0  0  0  0  0
    3.0725   -1.3199    4.3985 H   0  0  0  0  0  0  0  0  0  0  0  0
    2.6730   -0.1161    3.1668 H   0  0  0  0  0  0  0  0  0  0  0  0
    4.2418   -0.9363    3.1300 H   0  0  0  0  0  0  0  0  0  0  0  0
   -0.2318   -0.2563    0.2819 H   0  0  0  0  0  0  0  0  0  0  0  0
    0.1069   -0.8835    1.8951 H   0  0  0  0  0  0  0  0  0  0  0  0
   -0.0631   -2.0079    0.5325 H   0  0  0  0  0  0  0  0  0  0  0  0
    1.5159   -2.3413    2.7654 H   0  0  0  0  0  0  0  0  0  0  0  0
    3.0613   -3.1471    2.7264 H   0  0  0  0  0  0  0  0  0  0  0  0
    2.1914    0.0641    0.8602 H   0  0  0  0  0  0  0  0  0  0  0  0
    1.9340   -0.9158   -0.5785 H   0  0  0  0  0  0  0  0  0  0  0  0
    5.9726   -4.9818   -5.2890 H   0  0  0  0  0  0  0  0  0  0  0  0
    3.8483   -5.0016   -4.0009 H   0  0  0  0  0  0  0  0  0  0  0  0
    8.0784   -4.2354   -4.1961 H   0  0  0  0  0  0  0  0  0  0  0  0
    3.8200   -4.2888   -1.6434 H   0  0  0  0  0  0  0  0  0  0  0  0
    8.0397   -3.5055   -1.8076 H   0  0  0  0  0  0  0  0  0  0  0  0
    4.0568   -4.1893    0.4693 H   0  0  0  0  0  0  0  0  0  0  0  0
    5.0363   -3.4337    1.7409 H   0  0  0  0  0  0  0  0  0  0  0  0
    3.8523   -1.8757   -0.6215 H   0  0  0  0  0  0  0  0  0  0  0  0
    4.5833   -1.1942    0.8268 H   0  0  0  0  0  0  0  0  0  0  0  0
  1 16  1  0  0  0  0
  2 20  1  0  0  0  0
  3 23  1  0  0  0  0
  3 22  1  0  0  0  0
  3  1  1  0  0  0  0
  4  2  1  0  0  0  0
  4 24  1  0  0  0  0
  4 14  1  0  0  0  0
  5  7  2  0  0  0  0
  5  6  1  0  0  0  0
  6  8  2  0  0  0  0
  7  9  1  0  0  0  0
  8 29  1  0  0  0  0
  8 12  1  0  0  0  0
  9 30  1  0  0  0  0
  9 12  2  0  0  0  0
 10 32  1  0  0  0  0
 11 10  1  0  0  0  0
 11 34  1  0  0  0  0
 11 14  1  0  0  0  0
 12 13  1  0  0  0  0
 13 15  2  0  0  0  0
 13 10  1  0  0  0  0
 14  3  1  0  0  0  0
 17  1  1  0  0  0  0
 18  1  1  0  0  0  0
 19  2  1  0  0  0  0
 21  2  1  0  0  0  0
 25  4  1  0  0  0  0
 26  5  1  0  0  0  0
 27  6  1  0  0  0  0
 28  7  1  0  0  0  0
 31 10  1  0  0  0  0
 33 11  1  0  0  0  0
M  END
>  <HBA>
2

>  <HBD>
0

>  <TPSA>
20.31

>  <cid>
66749

>  <dipole>
2.59

>  <excitation_energy_1>
3.395

>  <excitation_energy_2>
3.709

>  <excitation_energy_3>
4.688

>  <excitation_energy_4>
4.76

>  <homo_energy>
-5.646

>  <homo_lumo_gap>
4.166

>  <logP>
2.601

>  <lumo_energy>
-1.48

>  <melting_point>
37.53

>  <molecular_refractivity>
63.57

>  <oscillator_strength_1>
0.0058

>  <oscillator_strength_2>
0.0004

>  <oscillator_strength_3>
0.0152

>  <oscillator_strength_4>
0.0085

>  <open_babel_can_smiles>
CCN(CCC(=O)c1ccccc1)CC

>  <mulliken_charges>
34
1   -0.46294
2   -0.457704
3   -0.140282
4   -0.106625
5   -0.119188
6   -0.135472
7   -0.131937
8   -0.185617
9   -0.156012
10   -0.360779
11   -0.119696
12   0.073926
13   0.388294
14   -0.390757
15   -0.461861
16   0.144682
17   0.149164
18   0.155875
19   0.144684
20   0.149313
21   0.154952
22   0.144423
23   0.144606
24   0.116188
25   0.136036
26   0.137315
27   0.136418
28   0.137946
29   0.148035
30   0.164414
31   0.15623
32   0.168713
33   0.142256
34   0.135401

>  <lowdin_charges>
34
1   -0.463316
2   -0.451202
3   -0.205802
4   -0.19412
5   -0.137509
6   -0.158443
7   -0.155713
8   -0.151114
9   -0.128331
10   -0.311177
11   -0.196189
12   -0.050785
13   0.160443
14   -0.193109
15   -0.246378
16   0.152897
17   0.149467
18   0.151156
19   0.15546
20   0.147465
21   0.154091
22   0.145523
23   0.145469
24   0.1179
25   0.141072
26   0.159841
27   0.161153
28   0.161699
29   0.166015
30   0.1774
31   0.158337
32   0.16441
33   0.143989
34   0.129403

$$$$

