PCCDB-ID:  1196
public computational chemistry database (PCCDB) project, http://pccdb.org

 15 15  0  0  1  0  0  0  0  0999 V2000
   -0.1849    1.2228    0.1176 C   0  0  0  0  0  0  0  0  0  0  0  0
   -1.2855    0.3198   -0.4888 C   0  0  0  0  0  0  0  0  0  0  0  0
    0.8321    0.2046    0.5796 C   0  0  0  0  0  0  0  0  0  0  0  0
   -0.9253   -1.0846    0.0585 C   0  0  1  0  0  0  0  0  0  0  0  0
   -1.0565   -2.2211   -0.9631 C   0  0  0  0  0  0  0  0  0  0  0  0
    0.4606   -1.0152    0.5666 N   0  0  0  0  0  0  0  0  0  0  0  0
   -1.9484   -2.2775   -1.7743 O   0  0  0  0  0  0  0  0  0  0  0  0
   -0.1089   -3.1718   -0.8563 O   0  0  0  0  0  0  0  0  0  0  0  0
   -0.5423    1.8085    0.9764 H   0  0  0  0  0  0  0  0  0  0  0  0
    0.2437    1.9391   -0.5927 H   0  0  0  0  0  0  0  0  0  0  0  0
   -1.2404    0.3154   -1.5813 H   0  0  0  0  0  0  0  0  0  0  0  0
   -2.2940    0.6276   -0.2065 H   0  0  0  0  0  0  0  0  0  0  0  0
    1.8324    0.4718    0.9220 H   0  0  0  0  0  0  0  0  0  0  0  0
   -1.5710   -1.3646    0.9040 H   0  0  0  0  0  0  0  0  0  0  0  0
    0.5370   -2.8581   -0.1862 H   0  0  0  0  0  0  0  0  0  0  0  0
  1  3  1  0  0  0  0
  1  9  1  0  0  0  0
  2 12  1  0  0  0  0
  2  4  1  0  0  0  0
  2  1  1  0  0  0  0
  3 13  1  0  0  0  0
  4  6  1  0  0  0  0
  4 14  1  1  0  0  0
  5  8  1  0  0  0  0
  5  4  1  0  0  0  0
  6  3  1  0  0  0  0
  7  5  2  0  0  0  0
  8 15  1  0  0  0  0
 10  1  1  0  0  0  0
 11  2  1  0  0  0  0
M  RAD  2   3   2   6   2
M  END
>  <HBA>
3

>  <HBD>
1

>  <TPSA>
49.66

>  <cid>
1196

>  <dipole>
5.16

>  <excitation_energy_1>
5.571

>  <excitation_energy_2>
5.621

>  <excitation_energy_3>
5.764

>  <excitation_energy_4>
6.644

>  <homo_energy>
-7.127

>  <homo_lumo_gap>
6.4

>  <logP>
-0.26

>  <lumo_energy>
-0.727

>  <melting_point>
91.7

>  <molecular_refractivity>
32.82

>  <oscillator_strength_1>
0.0089

>  <oscillator_strength_2>
0.0006

>  <oscillator_strength_3>
0.0374

>  <oscillator_strength_4>
0.0113

>  <open_babel_can_smiles>
OC(=O)[C@@H]1CC[CH][N]1

>  <mulliken_charges>
15
1   -0.339844
2   -0.291593
3   0.088539
4   -0.092698
5   0.598552
6   -0.395048
7   -0.453585
8   -0.575085
9   0.171249
10   0.169922
11   0.179391
12   0.163795
13   0.158809
14   0.18805
15   0.429545

>  <lowdin_charges>
15
1   -0.301205
2   -0.279375
3   -0.061702
4   -0.112901
5   0.181486
6   -0.186912
7   -0.247925
8   -0.350444
9   0.166492
10   0.166776
11   0.165177
12   0.162892
13   0.162681
14   0.17374
15   0.361221

$$$$

