PCCDB-ID:  17442
public computational chemistry database (PCCDB) project, http://pccdb.org

 25 25  0  0  0  0  0  0  0  0999 V2000
    0.9085   -0.1931    0.1129 C   0  0  0  0  0  0  0  0  0  0  0  0
    4.5509   -1.3168   -0.0563 C   0  0  0  0  0  0  0  0  0  0  0  0
    5.2315   -0.1022   -0.1175 C   0  0  0  0  0  0  0  0  0  0  0  0
    3.1578   -1.3214    0.0134 C   0  0  0  0  0  0  0  0  0  0  0  0
    4.5069    1.0894   -0.1099 C   0  0  0  0  0  0  0  0  0  0  0  0
    2.3734    2.4235   -0.0754 C   0  0  0  0  0  0  0  0  0  0  0  0
    2.0346    2.8806   -1.5040 C   0  0  0  0  0  0  0  0  0  0  0  0
    2.4178   -0.1322    0.0195 C   0  0  0  0  0  0  0  0  0  0  0  0
    3.1078    1.0980   -0.0443 C   0  0  0  0  0  0  0  0  0  0  0  0
    1.1046    4.6156   -2.8475 N   0  0  0  0  0  0  0  0  0  0  0  0
    1.2226    4.1005   -1.4632 N   0  0  0  0  0  0  0  0  0  0  0  0
    0.5617   -1.2310    0.1127 H   0  0  0  0  0  0  0  0  0  0  0  0
    0.4192    0.3197   -0.7238 H   0  0  0  0  0  0  0  0  0  0  0  0
    0.5383    0.2779    1.0327 H   0  0  0  0  0  0  0  0  0  0  0  0
    5.0979   -2.2560   -0.0594 H   0  0  0  0  0  0  0  0  0  0  0  0
    6.3169   -0.0793   -0.1677 H   0  0  0  0  0  0  0  0  0  0  0  0
    2.6272   -2.2697    0.0663 H   0  0  0  0  0  0  0  0  0  0  0  0
    5.0362    2.0393   -0.1523 H   0  0  0  0  0  0  0  0  0  0  0  0
    1.4433    2.3765    0.5008 H   0  0  0  0  0  0  0  0  0  0  0  0
    2.9975    3.1927    0.4000 H   0  0  0  0  0  0  0  0  0  0  0  0
    1.4451    2.1021   -2.0083 H   0  0  0  0  0  0  0  0  0  0  0  0
    2.9582    3.0098   -2.0930 H   0  0  0  0  0  0  0  0  0  0  0  0
    0.4114    5.3646   -2.7647 H   0  0  0  0  0  0  0  0  0  0  0  0
    0.5824    3.8806   -3.3335 H   0  0  0  0  0  0  0  0  0  0  0  0
    1.8036    4.8101   -1.0102 H   0  0  0  0  0  0  0  0  0  0  0  0
  1 14  1  0  0  0  0
  2  4  2  0  0  0  0
  3  5  2  0  0  0  0
  3  2  1  0  0  0  0
  4  8  1  0  0  0  0
  4 17  1  0  0  0  0
  5  9  1  0  0  0  0
  6  9  1  0  0  0  0
  6 20  1  0  0  0  0
  6 19  1  0  0  0  0
  7 11  1  0  0  0  0
  7  6  1  0  0  0  0
  8  1  1  0  0  0  0
  9  8  2  0  0  0  0
 10 23  1  0  0  0  0
 10 11  1  0  0  0  0
 11 25  1  0  0  0  0
 12  1  1  0  0  0  0
 13  1  1  0  0  0  0
 15  2  1  0  0  0  0
 16  3  1  0  0  0  0
 18  5  1  0  0  0  0
 21  7  1  0  0  0  0
 22  7  1  0  0  0  0
 24 10  1  0  0  0  0
M  END
>  <HBA>
2

>  <HBD>
2

>  <TPSA>
38.05

>  <cid>
17442

>  <dipole>
0.68

>  <excitation_energy_1>
4.709

>  <excitation_energy_2>
4.899

>  <excitation_energy_3>
5.003

>  <excitation_energy_4>
5.234

>  <homo_energy>
-5.331

>  <homo_lumo_gap>
5.423

>  <logP>
2.092

>  <lumo_energy>
0.093

>  <melting_point>
92.75

>  <molecular_refractivity>
46.69

>  <oscillator_strength_1>
0.0015

>  <oscillator_strength_2>
0.0016

>  <oscillator_strength_3>
0.0026

>  <oscillator_strength_4>
0.0019

>  <open_babel_can_smiles>
NNCCc1ccccc1C

>  <mulliken_charges>
25
1   -0.53929
2   -0.125987
3   -0.129921
4   -0.185862
5   -0.181187
6   -0.363039
7   -0.11233
8   0.132187
9   0.114974
10   -0.59487
11   -0.469766
12   0.154133
13   0.163038
14   0.164173
15   0.125658
16   0.125958
17   0.119683
18   0.120506
19   0.156217
20   0.138591
21   0.138486
22   0.136702
23   0.30411
24   0.302408
25   0.305428

>  <lowdin_charges>
25
1   -0.444747
2   -0.160271
3   -0.158462
4   -0.167882
5   -0.165789
6   -0.27987
7   -0.208847
8   -0.007024
9   -0.011123
10   -0.498681
11   -0.325147
12   0.155822
13   0.159582
14   0.160447
15   0.156404
16   0.154148
17   0.152986
18   0.153033
19   0.156852
20   0.147997
21   0.139097
22   0.130977
23   0.254263
24   0.253535
25   0.252703

$$$$

