PCCDB-ID:  20616
public computational chemistry database (PCCDB) project, http://pccdb.org

 22 24  0  0  0  0  0  0  0  0999 V2000
    2.4756   -1.0173   -0.0306 C   0  0  0  0  0  0  0  0  0  0  0  0
    2.3722    0.3990    0.0151 C   0  0  0  0  0  0  0  0  0  0  0  0
    1.3619   -1.8443   -0.0621 C   0  0  0  0  0  0  0  0  0  0  0  0
    0.5825    2.3429    0.0474 C   0  0  0  0  0  0  0  0  0  0  0  0
   -0.7827    2.2835    0.0290 C   0  0  0  0  0  0  0  0  0  0  0  0
   -2.4015    0.1878   -0.0425 C   0  0  0  0  0  0  0  0  0  0  0  0
   -2.3890   -1.2275   -0.0629 C   0  0  0  0  0  0  0  0  0  0  0  0
    1.1153    0.9751    0.0212 C   0  0  0  0  0  0  0  0  0  0  0  0
   -1.2036    0.8791   -0.0082 C   0  0  0  0  0  0  0  0  0  0  0  0
    0.0553   -1.2828   -0.0444 C   0  0  0  0  0  0  0  0  0  0  0  0
   -1.2092   -1.9773   -0.0596 C   0  0  0  0  0  0  0  0  0  0  0  0
   -0.0144    0.1135   -0.0103 C   0  0  0  0  0  0  0  0  0  0  0  0
   -1.2449   -3.3649   -0.1237 N   0  0  0  0  0  0  0  0  0  0  0  0
    3.4650   -1.4667   -0.0481 H   0  0  0  0  0  0  0  0  0  0  0  0
    3.2783    1.0001    0.0375 H   0  0  0  0  0  0  0  0  0  0  0  0
    1.5077   -2.9202   -0.1218 H   0  0  0  0  0  0  0  0  0  0  0  0
    1.1824    3.2452    0.0737 H   0  0  0  0  0  0  0  0  0  0  0  0
   -1.4546    3.1346    0.0380 H   0  0  0  0  0  0  0  0  0  0  0  0
   -3.3602    0.7020   -0.0441 H   0  0  0  0  0  0  0  0  0  0  0  0
   -3.3387   -1.7580   -0.0787 H   0  0  0  0  0  0  0  0  0  0  0  0
   -2.1322   -3.7863    0.1202 H   0  0  0  0  0  0  0  0  0  0  0  0
   -0.4664   -3.8486    0.3039 H   0  0  0  0  0  0  0  0  0  0  0  0
  1  2  2  0  0  0  0
  2  8  1  0  0  0  0
  2 15  1  0  0  0  0
  3 10  2  0  0  0  0
  3  1  1  0  0  0  0
  4 17  1  0  0  0  0
  5 18  1  0  0  0  0
  5  4  2  0  0  0  0
  6  9  2  0  0  0  0
  7 11  2  0  0  0  0
  7  6  1  0  0  0  0
  8  4  1  0  0  0  0
  9  5  1  0  0  0  0
 10 12  1  0  0  0  0
 11 10  1  0  0  0  0
 12  9  1  0  0  0  0
 12  8  2  0  0  0  0
 13 11  1  0  0  0  0
 13 21  1  0  0  0  0
 13 22  1  0  0  0  0
 14  1  1  0  0  0  0
 16  3  1  0  0  0  0
 19  6  1  0  0  0  0
 20  7  1  0  0  0  0
M  END
>  <HBA>
1

>  <HBD>
1

>  <TPSA>
26.02

>  <cid>
20616

>  <dipole>
2.48

>  <excitation_energy_1>
2.857

>  <excitation_energy_2>
3.655

>  <excitation_energy_3>
4.134

>  <excitation_energy_4>
4.457

>  <homo_energy>
-5.11

>  <homo_lumo_gap>
3.538

>  <logP>
3.487

>  <lumo_energy>
-1.573

>  <melting_point>
160.98

>  <molecular_refractivity>
57.28

>  <oscillator_strength_1>
0.0451

>  <oscillator_strength_2>
0.1283

>  <oscillator_strength_3>
0.0195

>  <oscillator_strength_4>
0.054

>  <open_babel_can_smiles>
Nc1ccc2c3c1cccc3C=C2

>  <mulliken_charges>
22
1   -0.130183
2   -0.218882
3   -0.214512
4   -0.19683
5   -0.190287
6   -0.227928
7   -0.179778
8   0.139093
9   0.1472
10   0.193311
11   0.233931
12   -0.092625
13   -0.787078
14   0.125472
15   0.130975
16   0.118919
17   0.124956
18   0.126653
19   0.130991
20   0.111598
21   0.326245
22   0.328758

>  <lowdin_charges>
22
1   -0.162524
2   -0.147076
3   -0.156443
4   -0.187458
5   -0.164842
6   -0.12814
7   -0.220068
8   -0.001152
9   -0.034833
10   -0.027599
11   0.074833
12   -0.022163
13   -0.474362
14   0.156601
15   0.158835
16   0.149888
17   0.157707
18   0.158055
19   0.158558
20   0.151796
21   0.279579
22   0.280809

$$$$

