PCCDB-ID:  70165
public computational chemistry database (PCCDB) project, http://pccdb.org

 39 39  0  0  0  0  0  0  0  0999 V2000
   -2.6962   -1.0769   -0.1506 C   0  0  0  0  0  0  0  0  0  0  0  0
   -2.7755    0.4451   -0.3959 C   0  0  0  0  0  0  0  0  0  0  0  0
   -1.4135   -1.7592   -0.7020 C   0  0  0  0  0  0  0  0  0  0  0  0
   -1.7098    1.2909    0.3556 C   0  0  0  0  0  0  0  0  0  0  0  0
   -0.5497   -2.4684    0.3645 C   0  0  0  0  0  0  0  0  0  0  0  0
   -0.7276    2.0497   -0.5609 C   0  0  0  0  0  0  0  0  0  0  0  0
    0.9077   -2.7614   -0.0730 C   0  0  0  0  0  0  0  0  0  0  0  0
    0.4343    2.7504    0.2013 C   0  0  0  0  0  0  0  0  0  0  0  0
    1.9201   -1.6866    0.3809 C   0  0  0  0  0  0  0  0  0  0  0  0
    1.8729    2.2704   -0.1083 C   0  0  0  0  0  0  0  0  0  0  0  0
    1.5367   -0.2799   -0.0933 C   0  0  0  0  0  0  0  0  0  0  0  0
    2.3235    0.8994    0.4913 C   0  0  0  0  0  0  0  0  0  0  0  0
    2.1831    0.9615    2.0134 C   0  0  0  0  0  0  0  0  0  0  0  0
    1.2311    0.5501    2.6329 O   0  0  0  0  0  0  0  0  0  0  0  0
    3.1937    1.5885    2.6790 O   0  0  0  0  0  0  0  0  0  0  0  0
   -3.5841   -1.5421   -0.5978 H   0  0  0  0  0  0  0  0  0  0  0  0
   -2.7768   -1.2633    0.9294 H   0  0  0  0  0  0  0  0  0  0  0  0
   -3.7789    0.7845   -0.1088 H   0  0  0  0  0  0  0  0  0  0  0  0
   -2.6999    0.6325   -1.4770 H   0  0  0  0  0  0  0  0  0  0  0  0
   -0.8078   -1.0138   -1.2285 H   0  0  0  0  0  0  0  0  0  0  0  0
   -1.6854   -2.4945   -1.4716 H   0  0  0  0  0  0  0  0  0  0  0  0
   -1.1424    0.6556    1.0457 H   0  0  0  0  0  0  0  0  0  0  0  0
   -2.2087    2.0273    0.9995 H   0  0  0  0  0  0  0  0  0  0  0  0
   -1.0472   -3.4070    0.6426 H   0  0  0  0  0  0  0  0  0  0  0  0
   -0.5270   -1.8644    1.2818 H   0  0  0  0  0  0  0  0  0  0  0  0
   -1.2953    2.7979   -1.1296 H   0  0  0  0  0  0  0  0  0  0  0  0
   -0.3241    1.3637   -1.3150 H   0  0  0  0  0  0  0  0  0  0  0  0
    0.9486   -2.8748   -1.1664 H   0  0  0  0  0  0  0  0  0  0  0  0
    1.2318   -3.7248    0.3403 H   0  0  0  0  0  0  0  0  0  0  0  0
    0.2567    2.6775    1.2815 H   0  0  0  0  0  0  0  0  0  0  0  0
    0.4139    3.8229   -0.0274 H   0  0  0  0  0  0  0  0  0  0  0  0
    2.9249   -1.9523    0.0215 H   0  0  0  0  0  0  0  0  0  0  0  0
    1.9616   -1.6978    1.4770 H   0  0  0  0  0  0  0  0  0  0  0  0
    2.5684    3.0413    0.2521 H   0  0  0  0  0  0  0  0  0  0  0  0
    2.0175    2.2184   -1.1958 H   0  0  0  0  0  0  0  0  0  0  0  0
    0.4940   -0.1131    0.1606 H   0  0  0  0  0  0  0  0  0  0  0  0
    1.6109   -0.2304   -1.1885 H   0  0  0  0  0  0  0  0  0  0  0  0
    3.3915    0.7773    0.2490 H   0  0  0  0  0  0  0  0  0  0  0  0
    3.8918    1.8409    2.0525 H   0  0  0  0  0  0  0  0  0  0  0  0
  1 17  1  0  0  0  0
  2  1  1  0  0  0  0
  2 18  1  0  0  0  0
  2  4  1  0  0  0  0
  3  1  1  0  0  0  0
  3  5  1  0  0  0  0
  4 23  1  0  0  0  0
  4 22  1  0  0  0  0
  5 24  1  0  0  0  0
  5 25  1  0  0  0  0
  6  8  1  0  0  0  0
  6  4  1  0  0  0  0
  7 29  1  0  0  0  0
  7  5  1  0  0  0  0
  7  9  1  0  0  0  0
  8 30  1  0  0  0  0
  9 33  1  0  0  0  0
 10  8  1  0  0  0  0
 10 34  1  0  0  0  0
 10 12  1  0  0  0  0
 11 36  1  0  0  0  0
 11  9  1  0  0  0  0
 11 12  1  0  0  0  0
 12 13  1  0  0  0  0
 13 14  2  0  0  0  0
 13 15  1  0  0  0  0
 16  1  1  0  0  0  0
 19  2  1  0  0  0  0
 20  3  1  0  0  0  0
 21  3  1  0  0  0  0
 26  6  1  0  0  0  0
 27  6  1  0  0  0  0
 28  7  1  0  0  0  0
 31  8  1  0  0  0  0
 32  9  1  0  0  0  0
 35 10  1  0  0  0  0
 37 11  1  0  0  0  0
 38 12  1  0  0  0  0
 39 15  1  0  0  0  0
M  END
>  <HBA>
2

>  <HBD>
1

>  <TPSA>
37.3

>  <cid>
70165

>  <dipole>
3.65

>  <excitation_energy_1>
5.578

>  <excitation_energy_2>
6.309

>  <excitation_energy_3>
6.903

>  <excitation_energy_4>
7.022

>  <homo_energy>
-7.26

>  <homo_lumo_gap>
7.475

>  <logP>
3.992

>  <lumo_energy>
0.215

>  <melting_point>
68.53

>  <molecular_refractivity>
64.26

>  <oscillator_strength_1>
0.0021

>  <oscillator_strength_2>
0.0103

>  <oscillator_strength_3>
0.0015

>  <oscillator_strength_4>
0.0024

>  <open_babel_can_smiles>
OC(=O)C1CCCCCCCCCCC1

>  <mulliken_charges>
39
1   -0.266487
2   -0.269064
3   -0.268264
4   -0.28272
5   -0.278719
6   -0.271582
7   -0.261491
8   -0.275466
9   -0.272733
10   -0.276824
11   -0.264643
12   -0.203364
13   0.615198
14   -0.454874
15   -0.571169
16   0.127917
17   0.138778
18   0.129837
19   0.129598
20   0.139932
21   0.13014
22   0.173269
23   0.133338
24   0.13137
25   0.157167
26   0.132972
27   0.138942
28   0.127149
29   0.131351
30   0.164509
31   0.13624
32   0.119307
33   0.153973
34   0.12484
35   0.146063
36   0.17977
37   0.125986
38   0.120462
39   0.409291

>  <lowdin_charges>
39
1   -0.277634
2   -0.276903
3   -0.288454
4   -0.292044
5   -0.285201
6   -0.287626
7   -0.274992
8   -0.282363
9   -0.277531
10   -0.270578
11   -0.278465
12   -0.166133
13   0.198291
14   -0.248285
15   -0.357177
16   0.141396
17   0.140501
18   0.141423
19   0.135904
20   0.142094
21   0.141676
22   0.153614
23   0.144929
24   0.14268
25   0.14806
26   0.142854
27   0.139878
28   0.135145
29   0.144085
30   0.154108
31   0.146055
32   0.134488
33   0.148015
34   0.140088
35   0.146312
36   0.166523
37   0.138834
38   0.138206
39   0.358229

$$$$

