PCCDB-ID:  61137
public computational chemistry database (PCCDB) project, http://pccdb.org

 29 28  0  0  0  0  0  0  0  0999 V2000
    6.0591    4.4137   -2.3230 C   0  0  0  0  0  0  0  0  0  0  0  0
   12.4475   -1.4478    2.3507 C   0  0  0  0  0  0  0  0  0  0  0  0
    5.2710    3.2774   -1.6612 C   0  0  0  0  0  0  0  0  0  0  0  0
   11.5543   -1.5209    1.1081 C   0  0  0  0  0  0  0  0  0  0  0  0
    6.1075    2.0349   -1.3186 C   0  0  0  0  0  0  0  0  0  0  0  0
   10.6958   -0.2630    0.9173 C   0  0  0  0  0  0  0  0  0  0  0  0
    7.1957    2.2912   -0.2540 C   0  0  0  0  0  0  0  0  0  0  0  0
    9.8098   -0.3536   -0.3207 C   0  0  0  0  0  0  0  0  0  0  0  0
    7.8957    0.9995    0.1136 C   0  0  0  0  0  0  0  0  0  0  0  0
    7.4427    0.1590    0.8623 O   0  0  0  0  0  0  0  0  0  0  0  0
    9.0744    0.8728   -0.5420 O   0  0  0  0  0  0  0  0  0  0  0  0
    5.3966    5.2424   -2.5971 H   0  0  0  0  0  0  0  0  0  0  0  0
    6.5565    4.0685   -3.2381 H   0  0  0  0  0  0  0  0  0  0  0  0
    6.8313    4.8186   -1.6591 H   0  0  0  0  0  0  0  0  0  0  0  0
   13.0477   -2.3575    2.4630 H   0  0  0  0  0  0  0  0  0  0  0  0
   11.8483   -1.3280    3.2612 H   0  0  0  0  0  0  0  0  0  0  0  0
   13.1374   -0.5971    2.2934 H   0  0  0  0  0  0  0  0  0  0  0  0
    4.4581    2.9680   -2.3316 H   0  0  0  0  0  0  0  0  0  0  0  0
    4.7865    3.6491   -0.7472 H   0  0  0  0  0  0  0  0  0  0  0  0
   10.8992   -2.4003    1.1807 H   0  0  0  0  0  0  0  0  0  0  0  0
   12.1792   -1.6772    0.2171 H   0  0  0  0  0  0  0  0  0  0  0  0
    6.5826    1.6488   -2.2310 H   0  0  0  0  0  0  0  0  0  0  0  0
    5.4459    1.2429   -0.9471 H   0  0  0  0  0  0  0  0  0  0  0  0
   11.3413    0.6213    0.8294 H   0  0  0  0  0  0  0  0  0  0  0  0
   10.0573   -0.1122    1.7960 H   0  0  0  0  0  0  0  0  0  0  0  0
    6.7284    2.6822    0.6567 H   0  0  0  0  0  0  0  0  0  0  0  0
    7.9297    3.0178   -0.6123 H   0  0  0  0  0  0  0  0  0  0  0  0
    9.1001   -1.1811   -0.2352 H   0  0  0  0  0  0  0  0  0  0  0  0
   10.4079   -0.4809   -1.2277 H   0  0  0  0  0  0  0  0  0  0  0  0
  1  3  1  0  0  0  0
  1 14  1  0  0  0  0
  2 15  1  0  0  0  0
  2 16  1  0  0  0  0
  3  5  1  0  0  0  0
  3 19  1  0  0  0  0
  4 20  1  0  0  0  0
  4  2  1  0  0  0  0
  5 23  1  0  0  0  0
  5  7  1  0  0  0  0
  6  4  1  0  0  0  0
  6 25  1  0  0  0  0
  7  9  1  0  0  0  0
  7 26  1  0  0  0  0
  8 28  1  0  0  0  0
  8  6  1  0  0  0  0
  9 10  2  0  0  0  0
 11  8  1  0  0  0  0
 11  9  1  0  0  0  0
 12  1  1  0  0  0  0
 13  1  1  0  0  0  0
 17  2  1  0  0  0  0
 18  3  1  0  0  0  0
 21  4  1  0  0  0  0
 22  5  1  0  0  0  0
 24  6  1  0  0  0  0
 27  7  1  0  0  0  0
 29  8  1  0  0  0  0
M  END
>  <HBA>
2

>  <HBD>
0

>  <TPSA>
26.3

>  <cid>
61137

>  <dipole>
1.61

>  <excitation_energy_1>
5.749

>  <excitation_energy_2>
7.005

>  <excitation_energy_3>
7.3

>  <excitation_energy_4>
7.341

>  <homo_energy>
-7.157

>  <homo_lumo_gap>
7.611

>  <logP>
2.52

>  <lumo_energy>
0.454

>  <melting_point>
-16.11

>  <molecular_refractivity>
46.66

>  <oscillator_strength_1>
0.0016

>  <oscillator_strength_2>
0.0246

>  <oscillator_strength_3>
0.0148

>  <oscillator_strength_4>
0.0046

>  <open_babel_can_smiles>
CCCCOC(=O)CCCC

>  <mulliken_charges>
29
1   -0.445361
2   -0.441143
3   -0.25106
4   -0.258467
5   -0.264413
6   -0.272121
7   -0.333179
8   -0.045173
9   0.603123
10   -0.481616
11   -0.460992
12   0.145857
13   0.144156
14   0.146645
15   0.144569
16   0.147699
17   0.143447
18   0.13748
19   0.135189
20   0.140291
21   0.131823
22   0.141874
23   0.155417
24   0.140068
25   0.160275
26   0.162429
27   0.161379
28   0.165452
29   0.146353

>  <lowdin_charges>
29
1   -0.449691
2   -0.443332
3   -0.273711
4   -0.272553
5   -0.271006
6   -0.287979
7   -0.299463
8   -0.134505
9   0.200558
10   -0.27577
11   -0.197007
12   0.152671
13   0.148015
14   0.148376
15   0.151166
16   0.149815
17   0.147883
18   0.146564
19   0.141791
20   0.143819
21   0.139588
22   0.145104
23   0.154778
24   0.14551
25   0.156023
26   0.164535
27   0.161825
28   0.157072
29   0.149924

$$$$

