PCCDB-ID:  11345
public computational chemistry database (PCCDB) project, http://pccdb.org

 30 30  0  0  0  0  0  0  0  0999 V2000
    0.9233    0.3990    0.4150 C   0  0  0  0  0  0  0  0  0  0  0  0
    3.2015   -0.0548    1.4419 C   0  0  0  0  0  0  0  0  0  0  0  0
    4.7533    2.7044   -1.4944 C   0  0  0  0  0  0  0  0  0  0  0  0
    3.1928    2.9488   -3.4683 C   0  0  0  0  0  0  0  0  0  0  0  0
    3.2746   -2.0965   -2.4071 C   0  0  0  0  0  0  0  0  0  0  0  0
    3.7255   -1.3280   -3.4778 C   0  0  0  0  0  0  0  0  0  0  0  0
    2.8725   -1.4605   -1.2354 C   0  0  0  0  0  0  0  0  0  0  0  0
    3.7538    0.0599   -3.3599 C   0  0  0  0  0  0  0  0  0  0  0  0
    2.4482    0.5388    0.2356 C   0  0  0  0  0  0  0  0  0  0  0  0
    3.4179    2.2465   -2.1180 C   0  0  0  0  0  0  0  0  0  0  0  0
    2.9075   -0.0647   -1.0936 C   0  0  0  0  0  0  0  0  0  0  0  0
    3.3459    0.7185   -2.1892 C   0  0  0  0  0  0  0  0  0  0  0  0
    0.5970    0.8673    1.3517 H   0  0  0  0  0  0  0  0  0  0  0  0
    0.6240   -0.6553    0.4443 H   0  0  0  0  0  0  0  0  0  0  0  0
    0.3813    0.8734   -0.4108 H   0  0  0  0  0  0  0  0  0  0  0  0
    2.9066    0.4592    2.3646 H   0  0  0  0  0  0  0  0  0  0  0  0
    4.2857    0.0512    1.3242 H   0  0  0  0  0  0  0  0  0  0  0  0
    2.9842   -1.1206    1.5764 H   0  0  0  0  0  0  0  0  0  0  0  0
    4.7892    3.7971   -1.4042 H   0  0  0  0  0  0  0  0  0  0  0  0
    5.5968    2.3877   -2.1196 H   0  0  0  0  0  0  0  0  0  0  0  0
    4.9031    2.2760   -0.4974 H   0  0  0  0  0  0  0  0  0  0  0  0
    3.1051    4.0304   -3.3134 H   0  0  0  0  0  0  0  0  0  0  0  0
    2.2763    2.5995   -3.9559 H   0  0  0  0  0  0  0  0  0  0  0  0
    4.0267    2.7911   -4.1619 H   0  0  0  0  0  0  0  0  0  0  0  0
    3.2356   -3.1803   -2.4803 H   0  0  0  0  0  0  0  0  0  0  0  0
    4.0471   -1.8012   -4.4020 H   0  0  0  0  0  0  0  0  0  0  0  0
    2.5221   -2.0675   -0.4044 H   0  0  0  0  0  0  0  0  0  0  0  0
    4.1010    0.6455   -4.2055 H   0  0  0  0  0  0  0  0  0  0  0  0
    2.6736    1.6089    0.2306 H   0  0  0  0  0  0  0  0  0  0  0  0
    2.6104    2.5913   -1.4614 H   0  0  0  0  0  0  0  0  0  0  0  0
  1 14  1  0  0  0  0
  1 13  1  0  0  0  0
  2 18  1  0  0  0  0
  2 16  1  0  0  0  0
  3 19  1  0  0  0  0
  3 21  1  0  0  0  0
  4 22  1  0  0  0  0
  4 10  1  0  0  0  0
  5  7  2  0  0  0  0
  6  8  2  0  0  0  0
  6  5  1  0  0  0  0
  7 11  1  0  0  0  0
  7 27  1  0  0  0  0
  8 12  1  0  0  0  0
  9  1  1  0  0  0  0
  9  2  1  0  0  0  0
 10  3  1  0  0  0  0
 10 30  1  0  0  0  0
 11  9  1  0  0  0  0
 12 10  1  0  0  0  0
 12 11  2  0  0  0  0
 15  1  1  0  0  0  0
 17  2  1  0  0  0  0
 20  3  1  0  0  0  0
 23  4  1  0  0  0  0
 24  4  1  0  0  0  0
 25  5  1  0  0  0  0
 26  6  1  0  0  0  0
 28  8  1  0  0  0  0
 29  9  1  0  0  0  0
M  END
>  <HBA>
0

>  <HBD>
0

>  <TPSA>
0.0

>  <cid>
11345

>  <dipole>
0.52

>  <excitation_energy_1>
5.222

>  <excitation_energy_2>
5.76

>  <excitation_energy_3>
5.846

>  <excitation_energy_4>
5.996

>  <homo_energy>
-6.229

>  <homo_lumo_gap>
6.425

>  <logP>
3.933

>  <lumo_energy>
0.196

>  <melting_point>
9.33

>  <molecular_refractivity>
55.6

>  <oscillator_strength_1>
0.0015

>  <oscillator_strength_2>
0.0271

>  <oscillator_strength_3>
0.0111

>  <oscillator_strength_4>
0.0037

>  <open_babel_can_smiles>
CC(c1ccccc1C(C)C)C

>  <mulliken_charges>
30
1   -0.436723
2   -0.443415
3   -0.437394
4   -0.451894
5   -0.129749
6   -0.131486
7   -0.186593
8   -0.187504
9   -0.159318
10   -0.157536
11   0.118985
12   0.109758
13   0.138944
14   0.144468
15   0.147376
16   0.139643
17   0.150067
18   0.143431
19   0.139401
20   0.146413
21   0.149228
22   0.141377
23   0.150723
24   0.144366
25   0.123485
26   0.123415
27   0.121016
28   0.120382
29   0.132671
30   0.136463

>  <lowdin_charges>
30
1   -0.44108
2   -0.438744
3   -0.439888
4   -0.443648
5   -0.158936
6   -0.161957
7   -0.166263
8   -0.170255
9   -0.12289
10   -0.1245
11   -0.010329
12   -0.012422
13   0.146959
14   0.147039
15   0.152129
16   0.147983
17   0.1499
18   0.145155
19   0.144854
20   0.150926
21   0.149867
22   0.148177
23   0.153404
24   0.146746
25   0.152769
26   0.15505
27   0.15349
28   0.156317
29   0.144207
30   0.14594

$$$$

