PCCDB-ID:  26161
public computational chemistry database (PCCDB) project, http://pccdb.org

 31 33  0  0  0  0  0  0  0  0999 V2000
    2.6996    0.2386   -0.7499 C   0  0  0  0  0  0  0  0  0  0  0  0
    2.4929   -1.1184   -0.4790 C   0  0  0  0  0  0  0  0  0  0  0  0
   -6.7671    0.4210    2.5457 C   0  0  0  0  0  0  0  0  0  0  0  0
   -5.5193   -0.1839    2.4521 C   0  0  0  0  0  0  0  0  0  0  0  0
    1.6714    1.1594   -0.5511 C   0  0  0  0  0  0  0  0  0  0  0  0
    1.2544   -1.5438   -0.0137 C   0  0  0  0  0  0  0  0  0  0  0  0
   -0.6947    1.7297    0.1771 C   0  0  0  0  0  0  0  0  0  0  0  0
   -2.0781    1.1221   -0.1119 C   0  0  0  0  0  0  0  0  0  0  0  0
   -7.1985    1.2223    1.4867 C   0  0  0  0  0  0  0  0  0  0  0  0
   -3.4054   -0.6054    1.2285 C   0  0  0  0  0  0  0  0  0  0  0  0
   -5.2810    0.8365    0.3007 C   0  0  0  0  0  0  0  0  0  0  0  0
   -4.7188    0.0375    1.3168 C   0  0  0  0  0  0  0  0  0  0  0  0
    0.4195    0.7447   -0.0849 C   0  0  0  0  0  0  0  0  0  0  0  0
   -2.2751   -0.1885    0.6151 C   0  0  0  0  0  0  0  0  0  0  0  0
    0.2127   -0.6233    0.1783 C   0  0  0  0  0  0  0  0  0  0  0  0
   -1.0992   -1.1235    0.6855 C   0  0  0  0  0  0  0  0  0  0  0  0
   -6.4808    1.4190    0.3738 N   0  0  0  0  0  0  0  0  0  0  0  0
   -1.2065   -2.2636    1.1298 O   0  0  0  0  0  0  0  0  0  0  0  0
    3.6636    0.5789   -1.1192 H   0  0  0  0  0  0  0  0  0  0  0  0
    3.2951   -1.8347   -0.6328 H   0  0  0  0  0  0  0  0  0  0  0  0
   -7.3982    0.2736    3.4171 H   0  0  0  0  0  0  0  0  0  0  0  0
   -5.1504   -0.8198    3.2532 H   0  0  0  0  0  0  0  0  0  0  0  0
    1.8401    2.2133   -0.7600 H   0  0  0  0  0  0  0  0  0  0  0  0
    1.0611   -2.5878    0.2108 H   0  0  0  0  0  0  0  0  0  0  0  0
   -0.6594    2.0491    1.2292 H   0  0  0  0  0  0  0  0  0  0  0  0
   -0.5513    2.6341   -0.4249 H   0  0  0  0  0  0  0  0  0  0  0  0
   -2.1691    0.9633   -1.1971 H   0  0  0  0  0  0  0  0  0  0  0  0
   -2.8569    1.8381    0.1667 H   0  0  0  0  0  0  0  0  0  0  0  0
   -8.1671    1.7178    1.5258 H   0  0  0  0  0  0  0  0  0  0  0  0
   -3.3158   -1.5551    1.7550 H   0  0  0  0  0  0  0  0  0  0  0  0
   -4.7473    0.9800   -0.6352 H   0  0  0  0  0  0  0  0  0  0  0  0
  1  5  2  0  0  0  0
  1  2  1  0  0  0  0
  2  6  2  0  0  0  0
  3 21  1  0  0  0  0
  4  3  1  0  0  0  0
  4 22  1  0  0  0  0
  5 13  1  0  0  0  0
  6 15  1  0  0  0  0
  6 24  1  0  0  0  0
  7 25  1  0  0  0  0
  8 28  1  0  0  0  0
  8  7  1  0  0  0  0
  8 14  1  0  0  0  0
  9 29  1  0  0  0  0
  9  3  2  0  0  0  0
 10 12  1  0  0  0  0
 10 30  1  0  0  0  0
 11 17  2  0  0  0  0
 11 12  1  0  0  0  0
 12  4  2  0  0  0  0
 13  7  1  0  0  0  0
 13 15  2  0  0  0  0
 14 16  1  0  0  0  0
 14 10  2  0  0  0  0
 15 16  1  0  0  0  0
 16 18  2  0  0  0  0
 17  9  1  0  0  0  0
 19  1  1  0  0  0  0
 20  2  1  0  0  0  0
 23  5  1  0  0  0  0
 26  7  1  0  0  0  0
 27  8  1  0  0  0  0
 31 11  1  0  0  0  0
M  END
>  <HBA>
2

>  <HBD>
0

>  <TPSA>
29.96

>  <cid>
26161

>  <dipole>
2.15

>  <excitation_energy_1>
3.237

>  <excitation_energy_2>
3.825

>  <excitation_energy_3>
4.08

>  <excitation_energy_4>
4.123

>  <homo_energy>
-6.441

>  <homo_lumo_gap>
4.327

>  <logP>
3.294

>  <lumo_energy>
-2.114

>  <melting_point>
133.97

>  <molecular_refractivity>
71.7

>  <oscillator_strength_1>
0.002

>  <oscillator_strength_2>
0.4206

>  <oscillator_strength_3>
0.0594

>  <oscillator_strength_4>
0.1094

>  <open_babel_can_smiles>
O=C1/C(=C/c2cccnc2)/CCc2c1cccc2

>  <mulliken_charges>
31
1   -0.114758
2   -0.138309
3   -0.142586
4   -0.143117
5   -0.201541
6   -0.156884
7   -0.355305
8   -0.359212
9   0.041768
10   -0.251457
11   -0.007807
12   0.142059
13   0.132923
14   0.100676
15   0.034973
16   0.348944
17   -0.410225
18   -0.491006
19   0.136464
20   0.136777
21   0.142993
22   0.151372
23   0.128968
24   0.162019
25   0.166385
26   0.151105
27   0.162614
28   0.158181
29   0.146504
30   0.17373
31   0.153748

>  <lowdin_charges>
31
1   -0.136277
2   -0.161111
3   -0.173736
4   -0.12579
5   -0.167715
6   -0.122964
7   -0.27219
8   -0.278146
9   -0.08434
10   -0.128455
11   -0.093275
12   -0.023151
13   0.006586
14   -0.048741
15   -0.05548
16   0.146178
17   -0.144767
18   -0.259014
19   0.160984
20   0.162278
21   0.167452
22   0.167905
23   0.156182
24   0.175118
25   0.158741
26   0.156041
27   0.155652
28   0.161765
29   0.158432
30   0.17963
31   0.162209

$$$$

