PCCDB-ID:  18667
public computational chemistry database (PCCDB) project, http://pccdb.org

 17 17  0  0  0  0  0  0  0  0999 V2000
   -1.6866   -0.2216   -0.1338 C   0  0  0  0  0  0  0  0  0  0  0  0
   -1.0236    0.9842   -0.3692 C   0  0  0  0  0  0  0  0  0  0  0  0
   -0.9597   -1.3560    0.2325 C   0  0  0  0  0  0  0  0  0  0  0  0
    0.3641    1.0567   -0.2422 C   0  0  0  0  0  0  0  0  0  0  0  0
    0.4281   -1.2870    0.3603 C   0  0  0  0  0  0  0  0  0  0  0  0
    3.4311   -0.2740   -0.8670 C   0  0  0  0  0  0  0  0  0  0  0  0
    1.0954   -0.0795    0.1233 C   0  0  0  0  0  0  0  0  0  0  0  0
    2.5942    0.0062    0.2994 C   0  0  0  0  0  0  0  0  0  0  0  0
    2.4491   -0.8613   -3.0310 N   0  0  0  0  0  0  0  0  0  0  0  0
    2.9148   -0.5890   -2.0285 N   0  0  0  0  0  0  0  0  0  0  0  0
    3.1084    0.2976    1.3703 O   0  0  0  0  0  0  0  0  0  0  0  0
   -2.7671   -0.2769   -0.2342 H   0  0  0  0  0  0  0  0  0  0  0  0
   -1.5863    1.8701   -0.6510 H   0  0  0  0  0  0  0  0  0  0  0  0
   -1.4725   -2.2954    0.4201 H   0  0  0  0  0  0  0  0  0  0  0  0
    0.8797    1.9969   -0.4198 H   0  0  0  0  0  0  0  0  0  0  0  0
    0.9934   -2.1685    0.6513 H   0  0  0  0  0  0  0  0  0  0  0  0
    4.5115   -0.2313   -0.8135 H   0  0  0  0  0  0  0  0  0  0  0  0
  1  3  2  0  0  0  0
  2  4  2  0  0  0  0
  2  1  1  0  0  0  0
  3  5  1  0  0  0  0
  3 14  1  0  0  0  0
  4  7  1  0  0  0  0
  5 16  1  0  0  0  0
  6 17  1  0  0  0  0
  6  8  1  0  0  0  0
  7  8  1  0  0  0  0
  7  5  2  0  0  0  0
  8 11  2  0  0  0  0
  9 10  1  0  0  0  0
 10  6  1  0  0  0  0
 12  1  1  0  0  0  0
 13  2  1  0  0  0  0
 15  4  1  0  0  0  0
M  RAD  3   6   2   9   3  10   2
M  END
>  <HBA>
2

>  <HBD>
0

>  <TPSA>
51.21

>  <cid>
18667

>  <dipole>
2.29

>  <excitation_energy_1>
3.084

>  <excitation_energy_2>
3.946

>  <excitation_energy_3>
4.035

>  <excitation_energy_4>
4.29

>  <homo_energy>
-6.727

>  <homo_lumo_gap>
4.705

>  <logP>
2.269

>  <lumo_energy>
-2.022

>  <melting_point>
55.87

>  <molecular_refractivity>
40.19

>  <oscillator_strength_1>
0.0

>  <oscillator_strength_2>
0.002

>  <oscillator_strength_3>
0.0

>  <oscillator_strength_4>
0.0003

>  <open_babel_can_smiles>
[N][N][CH]C(=O)c1ccccc1

>  <mulliken_charges>
17
1   -0.121458
2   -0.130733
3   -0.130692
4   -0.149207
5   -0.14926
6   -0.135282
7   0.05027
8   0.350858
9   -0.18426
10   0.155297
11   -0.458205
12   0.136399
13   0.137862
14   0.137849
15   0.141998
16   0.141956
17   0.206607

>  <lowdin_charges>
17
1   -0.147897
2   -0.151112
3   -0.150543
4   -0.153729
5   -0.154322
6   -0.276508
7   -0.035468
8   0.150475
9   -0.028085
10   0.177559
11   -0.244207
12   0.159265
13   0.162531
14   0.162014
15   0.16392
16   0.164429
17   0.201678

$$$$

