PCCDB-ID:  69641
public computational chemistry database (PCCDB) project, http://pccdb.org

 26 25  0  0  0  0  0  0  0  0999 V2000
   -0.4828    0.8538    0.9357 C   0  0  0  0  0  0  0  0  0  0  0  0
    0.3980   -1.2830   -0.0330 C   0  0  0  0  0  0  0  0  0  0  0  0
    2.3102    2.0873    0.7016 C   0  0  0  0  0  0  0  0  0  0  0  0
    6.0493   -2.2801    1.2135 C   0  0  0  0  0  0  0  0  0  0  0  0
    3.1504   -0.0671   -0.3090 C   0  0  0  0  0  0  0  0  0  0  0  0
    3.9757   -0.7945    0.7642 C   0  0  0  0  0  0  0  0  0  0  0  0
    0.7286    0.1343    0.3840 C   0  0  0  0  0  0  0  0  0  0  0  0
    1.9574    0.6799    0.2696 C   0  0  0  0  0  0  0  0  0  0  0  0
    5.2436   -1.4496    0.2260 C   0  0  0  0  0  0  0  0  0  0  0  0
    5.5938   -1.3222   -0.9323 O   0  0  0  0  0  0  0  0  0  0  0  0
   -1.2867    0.8743    0.1861 H   0  0  0  0  0  0  0  0  0  0  0  0
   -0.2924    1.8843    1.2390 H   0  0  0  0  0  0  0  0  0  0  0  0
   -0.8895    0.3186    1.8056 H   0  0  0  0  0  0  0  0  0  0  0  0
   -0.3981   -1.2894   -0.7912 H   0  0  0  0  0  0  0  0  0  0  0  0
    0.0087   -1.8526    0.8231 H   0  0  0  0  0  0  0  0  0  0  0  0
    1.2465   -1.8372   -0.4378 H   0  0  0  0  0  0  0  0  0  0  0  0
    3.2197    2.0855    1.3184 H   0  0  0  0  0  0  0  0  0  0  0  0
    1.5304    2.5876    1.2781 H   0  0  0  0  0  0  0  0  0  0  0  0
    2.5356    2.7154   -0.1722 H   0  0  0  0  0  0  0  0  0  0  0  0
    5.4705   -3.1596    1.5240 H   0  0  0  0  0  0  0  0  0  0  0  0
    6.2690   -1.7075    2.1227 H   0  0  0  0  0  0  0  0  0  0  0  0
    6.9807   -2.6090    0.7481 H   0  0  0  0  0  0  0  0  0  0  0  0
    2.8531   -0.7901   -1.0732 H   0  0  0  0  0  0  0  0  0  0  0  0
    3.8099    0.6418   -0.8235 H   0  0  0  0  0  0  0  0  0  0  0  0
    3.3704   -1.5626    1.2669 H   0  0  0  0  0  0  0  0  0  0  0  0
    4.2733   -0.1016    1.5661 H   0  0  0  0  0  0  0  0  0  0  0  0
  1 12  1  0  0  0  0
  1 13  1  0  0  0  0
  2  7  1  0  0  0  0
  2 15  1  0  0  0  0
  3 18  1  0  0  0  0
  3 17  1  0  0  0  0
  4 20  1  0  0  0  0
  4 21  1  0  0  0  0
  5  8  1  0  0  0  0
  5  6  1  0  0  0  0
  6 25  1  0  0  0  0
  6 26  1  0  0  0  0
  7  1  1  0  0  0  0
  8  7  2  0  0  0  0
  8  3  1  0  0  0  0
  9  6  1  0  0  0  0
  9  4  1  0  0  0  0
 10  9  2  0  0  0  0
 11  1  1  0  0  0  0
 14  2  1  0  0  0  0
 16  2  1  0  0  0  0
 19  3  1  0  0  0  0
 22  4  1  0  0  0  0
 23  5  1  0  0  0  0
 24  5  1  0  0  0  0
M  END
>  <HBA>
1

>  <HBD>
0

>  <TPSA>
17.07

>  <cid>
69641

>  <dipole>
2.66

>  <excitation_energy_1>
4.356

>  <excitation_energy_2>
4.999

>  <excitation_energy_3>
5.381

>  <excitation_energy_4>
5.808

>  <homo_energy>
-5.951

>  <homo_lumo_gap>
5.679

>  <logP>
2.712

>  <lumo_energy>
-0.272

>  <melting_point>
9.47

>  <molecular_refractivity>
45.1

>  <oscillator_strength_1>
0.0002

>  <oscillator_strength_2>
0.0015

>  <oscillator_strength_3>
0.0093

>  <oscillator_strength_4>
0.0243

>  <open_babel_can_smiles>
CC(=O)CCC(=C(C)C)C

>  <mulliken_charges>
26
1   -0.508506
2   -0.50871
3   -0.518134
4   -0.528257
5   -0.332237
6   -0.355507
7   0.11991
8   0.11456
9   0.456007
10   -0.436685
11   0.150562
12   0.151929
13   0.147524
14   0.150884
15   0.147661
16   0.15112
17   0.145444
18   0.152076
19   0.156547
20   0.169706
21   0.164214
22   0.179405
23   0.156836
24   0.155172
25   0.159475
26   0.158999

>  <lowdin_charges>
26
1   -0.443642
2   -0.447392
3   -0.445911
4   -0.476543
5   -0.274514
6   -0.31151
7   -0.028278
8   -0.034599
9   0.164371
10   -0.23577
11   0.154298
12   0.153314
13   0.152467
14   0.154314
15   0.153158
16   0.155742
17   0.149722
18   0.155116
19   0.156578
20   0.171205
21   0.166937
22   0.17279
23   0.157193
24   0.157983
25   0.161434
26   0.161537

$$$$

