PCCDB-ID:  35996
public computational chemistry database (PCCDB) project, http://pccdb.org

 37 39  0  0  1  0  0  0  0  0999 V2000
    1.3302   -0.4950   -0.0337 C   0  0  0  0  0  0  0  0  0  0  0  0
    4.4736    1.4884    0.6592 C   0  0  0  0  0  0  0  0  0  0  0  0
    2.9709    1.1952    0.5861 C   0  0  0  0  0  0  0  0  0  0  0  0
    4.3751    5.5709    2.3484 C   0  0  0  0  0  0  0  0  0  0  0  0
    6.4117    5.4229    0.8761 C   0  0  0  0  0  0  0  0  0  0  0  0
    6.4654    4.4579    3.2022 C   0  0  0  0  0  0  0  0  0  0  0  0
    4.3708    4.0369    0.3513 C   0  0  0  0  0  0  0  0  0  0  0  0
    4.4239    3.0749    2.6728 C   0  0  0  0  0  0  0  0  0  0  0  0
    6.4543    2.9303    1.2050 C   0  0  0  0  0  0  0  0  0  0  0  0
    4.8703    5.3918    0.8981 C   0  0  1  0  0  0  0  0  0  0  0  0
    4.9240    4.4266    3.2254 C   0  0  2  0  0  0  0  0  0  0  0  0
    6.9606    4.2788    1.7524 C   0  0  1  0  0  0  0  0  0  0  0  0
    4.9043    2.8641    1.2137 C   0  0  1  0  0  0  0  0  0  0  0  0
    2.7436   -0.1697    0.1118 N   0  0  0  0  0  0  0  0  0  0  0  0
    1.2261   -1.5048   -0.4449 H   0  0  0  0  0  0  0  0  0  0  0  0
    0.7634    0.2020   -0.6809 H   0  0  0  0  0  0  0  0  0  0  0  0
    0.8525   -0.4871    0.9536 H   0  0  0  0  0  0  0  0  0  0  0  0
    4.8971    1.3802   -0.3525 H   0  0  0  0  0  0  0  0  0  0  0  0
    4.9356    0.6988    1.2674 H   0  0  0  0  0  0  0  0  0  0  0  0
    2.4586    1.9485   -0.0436 H   0  0  0  0  0  0  0  0  0  0  0  0
    2.5206    1.2718    1.5845 H   0  0  0  0  0  0  0  0  0  0  0  0
    3.2763    5.5739    2.3753 H   0  0  0  0  0  0  0  0  0  0  0  0
    4.7063    6.5416    2.7432 H   0  0  0  0  0  0  0  0  0  0  0  0
    6.7759    6.3917    1.2455 H   0  0  0  0  0  0  0  0  0  0  0  0
    6.7767    5.3170   -0.1551 H   0  0  0  0  0  0  0  0  0  0  0  0
    6.8692    3.6594    3.8403 H   0  0  0  0  0  0  0  0  0  0  0  0
    6.8307    5.4096    3.6127 H   0  0  0  0  0  0  0  0  0  0  0  0
    4.6978    3.9080   -0.6911 H   0  0  0  0  0  0  0  0  0  0  0  0
    3.2728    4.0315    0.3403 H   0  0  0  0  0  0  0  0  0  0  0  0
    3.3270    3.0475    2.7184 H   0  0  0  0  0  0  0  0  0  0  0  0
    4.7867    2.2507    3.3040 H   0  0  0  0  0  0  0  0  0  0  0  0
    6.8595    2.1042    1.8069 H   0  0  0  0  0  0  0  0  0  0  0  0
    6.8207    2.7806    0.1789 H   0  0  0  0  0  0  0  0  0  0  0  0
    4.4762    6.2026    0.2706 H   0  0  0  0  0  0  0  0  0  0  0  0
    4.5687    4.5493    4.2574 H   0  0  0  0  0  0  0  0  0  0  0  0
    8.0587    4.2918    1.7324 H   0  0  0  0  0  0  0  0  0  0  0  0
    3.2044   -0.2821   -0.7905 H   0  0  0  0  0  0  0  0  0  0  0  0
  1 14  1  0  0  0  0
  1 17  1  0  0  0  0
  2 19  1  0  0  0  0
  3  2  1  0  0  0  0
  3 21  1  0  0  0  0
  4 22  1  0  0  0  0
  4 23  1  0  0  0  0
  4 11  1  0  0  0  0
  5 10  1  0  0  0  0
  5 24  1  0  0  0  0
  5 12  1  0  0  0  0
  6 11  1  0  0  0  0
  6 27  1  0  0  0  0
  6 26  1  0  0  0  0
  7 10  1  0  0  0  0
  7 13  1  0  0  0  0
  8 30  1  0  0  0  0
  8 11  1  0  0  0  0
  8 31  1  0  0  0  0
  9 13  1  0  0  0  0
  9 12  1  0  0  0  0
  9 32  1  0  0  0  0
 10 34  1  6  0  0  0
 10  4  1  0  0  0  0
 11 35  1  1  0  0  0
 12 36  1  6  0  0  0
 12  6  1  0  0  0  0
 13  2  1  6  0  0  0
 13  8  1  0  0  0  0
 14  3  1  0  0  0  0
 15  1  1  0  0  0  0
 16  1  1  0  0  0  0
 18  2  1  0  0  0  0
 20  3  1  0  0  0  0
 25  5  1  0  0  0  0
 28  7  1  0  0  0  0
 29  7  1  0  0  0  0
 33  9  1  0  0  0  0
 37 14  1  0  0  0  0
M  END
>  <HBA>
1

>  <HBD>
1

>  <TPSA>
12.03

>  <cid>
35996

>  <dipole>
0.94

>  <excitation_energy_1>
5.28

>  <excitation_energy_2>
5.586

>  <excitation_energy_3>
5.775

>  <excitation_energy_4>
6.011

>  <homo_energy>
-5.812

>  <homo_lumo_gap>
7.693

>  <logP>
3.203

>  <lumo_energy>
1.88

>  <melting_point>
82.39

>  <molecular_refractivity>
60.8

>  <oscillator_strength_1>
0.0017

>  <oscillator_strength_2>
0.0036

>  <oscillator_strength_3>
0.016

>  <oscillator_strength_4>
0.0218

>  <open_babel_can_smiles>
CNCC[C@]12C[C@H]3C[C@@H](C2)C[C@@H](C1)C3

>  <mulliken_charges>
37
1   -0.297062
2   -0.275065
3   -0.124042
4   -0.264702
5   -0.263749
6   -0.263942
7   -0.276184
8   -0.277117
9   -0.272134
10   -0.090477
11   -0.090623
12   -0.089597
13   0.090204
14   -0.542727
15   0.146219
16   0.11632
17   0.149582
18   0.115122
19   0.141178
20   0.110922
21   0.140028
22   0.123717
23   0.124143
24   0.123767
25   0.123494
26   0.124593
27   0.123634
28   0.119875
29   0.127743
30   0.127048
31   0.124575
32   0.123698
33   0.121111
34   0.113423
35   0.113906
36   0.113554
37   0.289563

>  <lowdin_charges>
37
1   -0.360506
2   -0.277963
3   -0.206432
4   -0.278518
5   -0.279913
6   -0.282428
7   -0.278309
8   -0.279878
9   -0.278726
10   -0.132004
11   -0.129559
12   -0.128812
13   0.001783
14   -0.362214
15   0.148637
16   0.120015
17   0.146798
18   0.13372
19   0.14924
20   0.116709
21   0.139963
22   0.136314
23   0.138988
24   0.138717
25   0.137546
26   0.140235
27   0.138944
28   0.136012
29   0.137059
30   0.137177
31   0.140541
32   0.139993
33   0.136723
34   0.138952
35   0.137075
36   0.135802
37   0.248315

$$$$

