PCCDB-ID:  1606
public computational chemistry database (PCCDB) project, http://pccdb.org

 24 23  0  0  0  0  0  0  0  0999 V2000
    1.5471   -0.4661   -3.3953 C   0  0  0  0  0  0  0  0  0  0  0  0
   -2.3843   -2.2043   -5.2431 C   0  0  0  0  0  0  0  0  0  0  0  0
    1.2306   -0.9579   -4.8163 C   0  0  0  0  0  0  0  0  0  0  0  0
   -1.2627   -1.3316   -4.6544 C   0  0  0  0  0  0  0  0  0  0  0  0
    2.6955    0.4432   -3.4655 N   0  0  0  0  0  0  0  0  0  0  0  0
   -2.3512   -2.4334   -6.6826 N   0  0  0  0  0  0  0  0  0  0  0  0
    0.1603   -4.1765   -5.2545 N   0  0  0  0  0  0  0  0  0  0  0  0
    0.0794   -1.8642   -4.9694 N   0  0  0  0  0  0  0  0  0  0  0  0
    0.3023   -3.1140   -4.4761 N   0  0  0  0  0  0  0  0  0  0  0  0
    0.1374   -5.2404   -4.6121 O   0  0  0  0  0  0  0  0  0  0  0  0
    0.2343   -3.3192   -3.0842 O   0  0  0  0  0  0  0  0  0  0  0  0
    1.8239   -1.3233   -2.7747 H   0  0  0  0  0  0  0  0  0  0  0  0
    0.6439   -0.0222   -2.9413 H   0  0  0  0  0  0  0  0  0  0  0  0
   -3.3382   -1.7295   -4.9799 H   0  0  0  0  0  0  0  0  0  0  0  0
   -2.3863   -3.1811   -4.7446 H   0  0  0  0  0  0  0  0  0  0  0  0
    2.1082   -1.4668   -5.2241 H   0  0  0  0  0  0  0  0  0  0  0  0
    1.0243   -0.1000   -5.4687 H   0  0  0  0  0  0  0  0  0  0  0  0
   -1.4092   -1.2093   -3.5714 H   0  0  0  0  0  0  0  0  0  0  0  0
   -1.2935   -0.3347   -5.1099 H   0  0  0  0  0  0  0  0  0  0  0  0
    2.4059    1.3453   -3.8411 H   0  0  0  0  0  0  0  0  0  0  0  0
    3.0500    0.6280   -2.5296 H   0  0  0  0  0  0  0  0  0  0  0  0
   -2.3343   -1.5430   -7.1788 H   0  0  0  0  0  0  0  0  0  0  0  0
   -1.4865   -2.9148   -6.9247 H   0  0  0  0  0  0  0  0  0  0  0  0
    0.1817   -4.3164   -3.0887 H   0  0  0  0  0  0  0  0  0  0  0  0
  1 13  1  0  0  0  0
  1 12  1  0  0  0  0
  2 14  1  0  0  0  0
  2 15  1  0  0  0  0
  2  4  1  0  0  0  0
  3  1  1  0  0  0  0
  4 18  1  0  0  0  0
  5  1  1  0  0  0  0
  5 21  1  0  0  0  0
  6  2  1  0  0  0  0
  7 10  1  0  0  0  0
  7  9  1  0  0  0  0
  8  3  1  0  0  0  0
  8  4  1  0  0  0  0
  8  9  1  0  0  0  0
  9 11  1  0  0  0  0
 16  3  1  0  0  0  0
 17  3  1  0  0  0  0
 19  4  1  0  0  0  0
 20  5  1  0  0  0  0
 22  6  1  0  0  0  0
 23  6  1  0  0  0  0
 24 11  1  0  0  0  0
M  RAD  2   7   2  10   2
M  END
>  <HBA>
7

>  <HBD>
3

>  <TPSA>
108.18

>  <cid>
1606

>  <dipole>
5.13

>  <excitation_energy_1>
3.788

>  <excitation_energy_2>
4.09

>  <excitation_energy_3>
4.468

>  <excitation_energy_4>
4.931

>  <homo_energy>
-6.346

>  <homo_lumo_gap>
4.925

>  <logP>
-0.106

>  <lumo_energy>
-1.42

>  <melting_point>
161.49

>  <molecular_refractivity>
38.02

>  <oscillator_strength_1>
0.0029

>  <oscillator_strength_2>
0.0022

>  <oscillator_strength_3>
0.0008

>  <oscillator_strength_4>
0.0003

>  <open_babel_can_smiles>
NCCN(N([N][O])O)CCN

>  <mulliken_charges>
24
1   -0.158238
2   -0.166005
3   -0.118516
4   -0.134513
5   -0.718216
6   -0.70341
7   0.165856
8   -0.28454
9   0.161546
10   -0.406978
11   -0.511756
12   0.172589
13   0.122835
14   0.150482
15   0.162059
16   0.180074
17   0.145994
18   0.15402
19   0.143651
20   0.295224
21   0.305363
22   0.28778
23   0.320005
24   0.434693

>  <lowdin_charges>
24
1   -0.226019
2   -0.217003
3   -0.20735
4   -0.221039
5   -0.554115
6   -0.548913
7   0.053777
8   -0.095585
9   0.122467
10   -0.293737
11   -0.389183
12   0.158839
13   0.123064
14   0.151966
15   0.152344
16   0.167285
17   0.150171
18   0.142835
19   0.14961
20   0.25269
21   0.260003
22   0.250042
23   0.261016
24   0.356835

$$$$

