PCCDB-ID:  57565
public computational chemistry database (PCCDB) project, http://pccdb.org

 27 28  0  0  0  0  0  0  0  0999 V2000
   -2.3438    2.2823    0.0909 C   0  0  0  0  0  0  0  0  0  0  0  0
   -3.0428    1.9581    1.3862 C   0  0  0  0  0  0  0  0  0  0  0  0
   -3.1170   -1.2829   -3.5428 C   0  0  0  0  0  0  0  0  0  0  0  0
   -4.2153   -1.8295   -4.4531 C   0  0  0  0  0  0  0  0  0  0  0  0
   -4.4273   -2.9854   -6.6352 C   0  0  0  0  0  0  0  0  0  0  0  0
   -3.1116   -3.3745   -6.0538 C   0  0  0  0  0  0  0  0  0  0  0  0
   -2.9555   -0.2531    0.0236 C   0  0  0  0  0  0  0  0  0  0  0  0
   -3.3812    1.1870    0.1301 C   0  0  0  0  0  0  0  0  0  0  0  0
   -3.6259   -0.9369   -2.1589 C   0  0  0  0  0  0  0  0  0  0  0  0
   -3.6825   -2.0525   -5.7951 N   0  0  0  0  0  0  0  0  0  0  0  0
   -4.7930   -0.9298   -1.8245 O   0  0  0  0  0  0  0  0  0  0  0  0
   -2.6017   -0.6263   -1.3339 O   0  0  0  0  0  0  0  0  0  0  0  0
   -1.3019    1.9907   -0.0159 H   0  0  0  0  0  0  0  0  0  0  0  0
   -2.5981    3.2085   -0.4166 H   0  0  0  0  0  0  0  0  0  0  0  0
   -3.7812    2.6562    1.7695 H   0  0  0  0  0  0  0  0  0  0  0  0
   -2.4737    1.4492    2.1607 H   0  0  0  0  0  0  0  0  0  0  0  0
   -2.6825   -0.3785   -3.9875 H   0  0  0  0  0  0  0  0  0  0  0  0
   -2.2882   -1.9947   -3.4471 H   0  0  0  0  0  0  0  0  0  0  0  0
   -5.0304   -1.1018   -4.5232 H   0  0  0  0  0  0  0  0  0  0  0  0
   -4.6456   -2.7464   -4.0108 H   0  0  0  0  0  0  0  0  0  0  0  0
   -5.3158   -3.4580   -6.2141 H   0  0  0  0  0  0  0  0  0  0  0  0
   -4.5125   -2.7113   -7.6846 H   0  0  0  0  0  0  0  0  0  0  0  0
   -2.2147   -3.3921   -6.6693 H   0  0  0  0  0  0  0  0  0  0  0  0
   -3.1240   -4.1067   -5.2445 H   0  0  0  0  0  0  0  0  0  0  0  0
   -3.7436   -0.9245    0.3749 H   0  0  0  0  0  0  0  0  0  0  0  0
   -2.0412   -0.4346    0.5954 H   0  0  0  0  0  0  0  0  0  0  0  0
   -4.3427    1.4004   -0.3293 H   0  0  0  0  0  0  0  0  0  0  0  0
  1  8  1  0  0  0  0
  1  2  1  0  0  0  0
  2 15  1  0  0  0  0
  2 16  1  0  0  0  0
  3 18  1  0  0  0  0
  3  9  1  0  0  0  0
  4 20  1  0  0  0  0
  4  3  1  0  0  0  0
  5 21  1  0  0  0  0
  5  6  1  0  0  0  0
  5 10  1  0  0  0  0
  6 10  1  0  0  0  0
  6 24  1  0  0  0  0
  7  8  1  0  0  0  0
  7 25  1  0  0  0  0
  7 26  1  0  0  0  0
  8  2  1  0  0  0  0
  9 11  2  0  0  0  0
  9 12  1  0  0  0  0
 10  4  1  0  0  0  0
 12  7  1  0  0  0  0
 13  1  1  0  0  0  0
 14  1  1  0  0  0  0
 17  3  1  0  0  0  0
 19  4  1  0  0  0  0
 22  5  1  0  0  0  0
 23  6  1  0  0  0  0
 27  8  1  0  0  0  0
M  END
>  <HBA>
3

>  <HBD>
0

>  <TPSA>
29.31

>  <cid>
57565

>  <dipole>
1.34

>  <excitation_energy_1>
5.783

>  <excitation_energy_2>
5.941

>  <excitation_energy_3>
6.087

>  <excitation_energy_4>
6.284

>  <homo_energy>
-6.351

>  <homo_lumo_gap>
6.787

>  <logP>
0.583

>  <lumo_energy>
0.435

>  <melting_point>
17.75

>  <molecular_refractivity>
49.24

>  <oscillator_strength_1>
0.0023

>  <oscillator_strength_2>
0.0081

>  <oscillator_strength_3>
0.0134

>  <oscillator_strength_4>
0.0262

>  <open_babel_can_smiles>
O=C(CCN1CC1)OCC1CC1

>  <mulliken_charges>
27
1   -0.304731
2   -0.319877
3   -0.365264
4   -0.120076
5   -0.191609
6   -0.197153
7   -0.058475
8   -0.113604
9   0.628521
10   -0.357776
11   -0.487221
12   -0.464865
13   0.155312
14   0.155441
15   0.157557
16   0.150765
17   0.188567
18   0.171055
19   0.163998
20   0.123892
21   0.146844
22   0.157465
23   0.157239
24   0.14328
25   0.169391
26   0.143769
27   0.167555

>  <lowdin_charges>
27
1   -0.31027
2   -0.313935
3   -0.304666
4   -0.196174
5   -0.240088
6   -0.247154
7   -0.125112
8   -0.164081
9   0.196781
10   -0.194663
11   -0.273389
12   -0.195229
13   0.158357
14   0.161978
15   0.16373
16   0.158421
17   0.178831
18   0.168873
19   0.157661
20   0.128248
21   0.149456
22   0.157371
23   0.158712
24   0.146881
25   0.161396
26   0.152077
27   0.165988

$$$$

