PCCDB-ID:  35795
public computational chemistry database (PCCDB) project, http://pccdb.org

 27 27  0  0  0  0  0  0  0  0999 V2000
    2.0893    2.9617   -0.3523 C   0  0  0  0  0  0  0  0  0  0  0  0
    4.3473    1.9114   -0.2111 C   0  0  0  0  0  0  0  0  0  0  0  0
    2.9824    1.7637   -0.1909 C   0  0  0  0  0  0  0  0  0  0  0  0
    2.4595    0.4078   -0.1017 C   0  0  0  0  0  0  0  0  0  0  0  0
    0.0981    0.5837    0.2254 C   0  0  0  0  0  0  0  0  0  0  0  0
    5.4684   -2.7070   -0.0153 C   0  0  0  0  0  0  0  0  0  0  0  0
    4.7875   -0.2943   -0.1114 C   0  0  0  0  0  0  0  0  0  0  0  0
    0.0114    1.4142    1.2113 N   0  0  0  0  0  0  0  0  0  0  0  0
   -0.9887    0.1032   -0.5180 N   0  0  0  0  0  0  0  0  0  0  0  0
    4.2763   -3.1718   -0.1221 N   0  0  0  0  0  0  0  0  0  0  0  0
    6.6548   -3.4313    0.0976 N   0  0  0  0  0  0  0  0  0  0  0  0
    5.2835    0.9176   -0.1505 N   0  0  0  0  0  0  0  0  0  0  0  0
    1.2615   -0.0866   -0.1078 N   0  0  0  0  0  0  0  0  0  0  0  0
    3.4689   -0.5725   -0.1058 N   0  0  0  0  0  0  0  0  0  0  0  0
    5.7039   -1.3381   -0.0658 N   0  0  0  0  0  0  0  0  0  0  0  0
    2.6935    3.8609   -0.5141 H   0  0  0  0  0  0  0  0  0  0  0  0
    1.4438    3.0918    0.5206 H   0  0  0  0  0  0  0  0  0  0  0  0
    1.4243    2.8421   -1.2179 H   0  0  0  0  0  0  0  0  0  0  0  0
    4.7637    2.9139   -0.2917 H   0  0  0  0  0  0  0  0  0  0  0  0
   -0.9641    1.6980    1.3436 H   0  0  0  0  0  0  0  0  0  0  0  0
   -1.7786    0.7310   -0.5872 H   0  0  0  0  0  0  0  0  0  0  0  0
   -0.7361   -0.3295   -1.3972 H   0  0  0  0  0  0  0  0  0  0  0  0
    4.2430   -4.1823   -0.0015 H   0  0  0  0  0  0  0  0  0  0  0  0
    6.5209   -4.4196    0.2697 H   0  0  0  0  0  0  0  0  0  0  0  0
    7.3588   -3.0341    0.7102 H   0  0  0  0  0  0  0  0  0  0  0  0
    3.1883   -1.5596   -0.1003 H   0  0  0  0  0  0  0  0  0  0  0  0
    6.6530   -1.0108   -0.1880 H   0  0  0  0  0  0  0  0  0  0  0  0
  1  3  1  0  0  0  0
  1 17  1  0  0  0  0
  2  3  1  0  0  0  0
  2 12  1  0  0  0  0
  3  4  2  0  0  0  0
  5  8  1  0  0  0  0
  6 11  2  0  0  0  0
  7 14  1  0  0  0  0
  7 15  1  0  0  0  0
  8 20  1  0  0  0  0
  9  5  1  0  0  0  0
 10  6  1  0  0  0  0
 10 23  1  0  0  0  0
 11 24  1  0  0  0  0
 11 25  1  0  0  0  0
 12  7  2  0  0  0  0
 13  4  1  0  0  0  0
 13  5  2  3  0  0  0
 14  4  1  0  0  0  0
 14 26  1  0  0  0  0
 15  6  1  0  0  0  0
 16  1  1  0  0  0  0
 18  1  1  0  0  0  0
 19  2  1  0  0  0  0
 21  9  1  0  0  0  0
 22  9  1  0  0  0  0
 27 15  1  0  0  0  0
M  RAD  2   8   2  10   2
M  END
>  <HBA>
8

>  <HBD>
4

>  <TPSA>
154.58

>  <cid>
35795

>  <dipole>
5.57

>  <excitation_energy_1>
3.909

>  <excitation_energy_2>
4.308

>  <excitation_energy_3>
4.367

>  <excitation_energy_4>
4.7

>  <homo_energy>
-5.197

>  <homo_lumo_gap>
4.563

>  <logP>
1.396

>  <lumo_energy>
-0.634

>  <melting_point>
307.64

>  <molecular_refractivity>
56.25

>  <oscillator_strength_1>
0.1374

>  <oscillator_strength_2>
0.0015

>  <oscillator_strength_3>
0.0408

>  <oscillator_strength_4>
0.1959

>  <open_babel_can_smiles>
[NH]C(=[NH2])NC1=NCC(=C(N1)/N=C(/N)\[NH])C

>  <mulliken_charges>
27
1   -0.532217
2   -0.027057
3   0.142643
4   0.507186
5   0.536113
6   0.672534
7   0.772392
8   -0.632835
9   -0.736831
10   -0.67869
11   -0.760405
12   -0.532079
13   -0.579663
14   -0.684428
15   -0.698664
16   0.137688
17   0.212963
18   0.146286
19   0.139667
20   0.252747
21   0.309473
22   0.320197
23   0.290874
24   0.335447
25   0.33503
26   0.398128
27   0.3535

>  <lowdin_charges>
27
1   -0.445087
2   -0.083944
3   -0.05918
4   0.129933
5   0.127181
6   0.146823
7   0.156087
8   -0.482872
9   -0.503295
10   -0.46419
11   -0.492433
12   -0.23633
13   -0.256654
14   -0.185277
15   -0.237683
16   0.149353
17   0.186387
18   0.154094
19   0.157545
20   0.236061
21   0.270414
22   0.277539
23   0.260986
24   0.284936
25   0.287549
26   0.318293
27   0.303764

$$$$

