PCCDB-ID:  48045
public computational chemistry database (PCCDB) project, http://pccdb.org

 24 24  0  0  0  0  0  0  0  0999 V2000
    0.9994    0.1945   -0.0493 C   0  0  0  0  0  0  0  0  0  0  0  0
    3.2666    1.2696   -0.4599 C   0  0  0  0  0  0  0  0  0  0  0  0
    3.4823   -0.8327    3.2140 C   0  0  0  0  0  0  0  0  0  0  0  0
    3.2239   -3.1529    0.2944 C   0  0  0  0  0  0  0  0  0  0  0  0
    4.5950   -2.4812    0.0345 C   0  0  0  0  0  0  0  0  0  0  0  0
    2.4988   -0.0460   -0.2711 C   0  0  0  0  0  0  0  0  0  0  0  0
    3.1064   -0.8966    0.8615 C   0  0  0  0  0  0  0  0  0  0  0  0
    2.9755   -0.1958    2.0413 O   0  0  0  0  0  0  0  0  0  0  0  0
    2.4597   -2.1637    0.9669 O   0  0  0  0  0  0  0  0  0  0  0  0
    4.4795   -1.1920    0.6162 O   0  0  0  0  0  0  0  0  0  0  0  0
    0.5679    0.7224   -0.9077 H   0  0  0  0  0  0  0  0  0  0  0  0
    0.8357    0.8053    0.8442 H   0  0  0  0  0  0  0  0  0  0  0  0
    0.4625   -0.7498    0.0805 H   0  0  0  0  0  0  0  0  0  0  0  0
    2.8768    1.8159   -1.3265 H   0  0  0  0  0  0  0  0  0  0  0  0
    4.3332    1.0857   -0.6190 H   0  0  0  0  0  0  0  0  0  0  0  0
    3.1591    1.9086    0.4225 H   0  0  0  0  0  0  0  0  0  0  0  0
    3.3003   -0.1331    4.0323 H   0  0  0  0  0  0  0  0  0  0  0  0
    4.5568   -1.0225    3.1248 H   0  0  0  0  0  0  0  0  0  0  0  0
    2.9558   -1.7726    3.4091 H   0  0  0  0  0  0  0  0  0  0  0  0
    3.2982   -4.0338    0.9413 H   0  0  0  0  0  0  0  0  0  0  0  0
    2.7323   -3.4509   -0.6408 H   0  0  0  0  0  0  0  0  0  0  0  0
    4.8141   -2.4045   -1.0387 H   0  0  0  0  0  0  0  0  0  0  0  0
    5.4250   -3.0061    0.5192 H   0  0  0  0  0  0  0  0  0  0  0  0
    2.6211   -0.6526   -1.1807 H   0  0  0  0  0  0  0  0  0  0  0  0
  1 13  1  0  0  0  0
  1 12  1  0  0  0  0
  2  6  1  0  0  0  0
  2 16  1  0  0  0  0
  3 19  1  0  0  0  0
  3 17  1  0  0  0  0
  4 20  1  0  0  0  0
  4  9  1  0  0  0  0
  5  4  1  0  0  0  0
  5 23  1  0  0  0  0
  5 10  1  0  0  0  0
  6  1  1  0  0  0  0
  6  7  1  0  0  0  0
  7  9  1  0  0  0  0
  7  8  1  0  0  0  0
  8  3  1  0  0  0  0
 10  7  1  0  0  0  0
 11  1  1  0  0  0  0
 14  2  1  0  0  0  0
 15  2  1  0  0  0  0
 18  3  1  0  0  0  0
 21  4  1  0  0  0  0
 22  5  1  0  0  0  0
 24  6  1  0  0  0  0
M  END
>  <HBA>
3

>  <HBD>
0

>  <TPSA>
27.69

>  <cid>
48045

>  <dipole>
2.23

>  <excitation_energy_1>
6.711

>  <excitation_energy_2>
6.765

>  <excitation_energy_3>
7.114

>  <excitation_energy_4>
7.168

>  <homo_energy>
-7.227

>  <homo_lumo_gap>
9.154

>  <logP>
0.989

>  <lumo_energy>
1.927

>  <melting_point>
-20.47

>  <molecular_refractivity>
36.94

>  <oscillator_strength_1>
0.0005

>  <oscillator_strength_2>
0.0114

>  <oscillator_strength_3>
0.0018

>  <oscillator_strength_4>
0.0006

>  <open_babel_can_smiles>
COC1(OCCO1)C(C)C

>  <mulliken_charges>
24
1   -0.450542
2   -0.450556
3   -0.21675
4   -0.050961
5   -0.052959
6   -0.095264
7   0.773103
8   -0.486684
9   -0.518654
10   -0.517565
11   0.134716
12   0.159028
13   0.155217
14   0.134885
15   0.155115
16   0.158835
17   0.156984
18   0.154439
19   0.154585
20   0.15012
21   0.143337
22   0.143212
23   0.151159
24   0.1152

>  <lowdin_charges>
24
1   -0.447649
2   -0.445973
3   -0.284409
4   -0.145441
5   -0.144373
6   -0.136209
7   0.27387
8   -0.227102
9   -0.262317
10   -0.262022
11   0.147346
12   0.156369
13   0.155838
14   0.147321
15   0.15417
16   0.156338
17   0.157163
18   0.145116
19   0.147052
20   0.148699
21   0.139614
22   0.1368
23   0.150361
24   0.139434

$$$$

