PCCDB-ID:  29482
public computational chemistry database (PCCDB) project, http://pccdb.org

 21 21  0  0  0  0  0  0  0  0999 V2000
    2.8242    0.9811   -0.4957 C   0  0  0  0  0  0  0  0  0  0  0  0
    5.8826   -2.1008   -5.1757 C   0  0  0  0  0  0  0  0  0  0  0  0
    2.7502   -2.5899   -1.2341 C   0  0  0  0  0  0  0  0  0  0  0  0
    4.1513   -3.0974   -3.1763 C   0  0  0  0  0  0  0  0  0  0  0  0
    3.9493   -0.8110   -2.3681 C   0  0  0  0  0  0  0  0  0  0  0  0
    2.9407   -4.8925   -2.0308 C   0  0  0  0  0  0  0  0  0  0  0  0
    3.2826   -3.5025   -2.1430 C   0  0  0  0  0  0  0  0  0  0  0  0
    3.0912   -1.2326   -1.3538 C   0  0  0  0  0  0  0  0  0  0  0  0
    4.4767   -1.7454   -3.2767 C   0  0  0  0  0  0  0  0  0  0  0  0
    2.6694   -6.0206   -1.9475 N   0  0  0  0  0  0  0  0  0  0  0  0
    2.5319   -0.4078   -0.4283 O   0  0  0  0  0  0  0  0  0  0  0  0
    5.3014   -1.2197   -4.2233 O   0  0  0  0  0  0  0  0  0  0  0  0
    2.2669    1.4416    0.3214 H   0  0  0  0  0  0  0  0  0  0  0  0
    2.4971    1.4143   -1.4497 H   0  0  0  0  0  0  0  0  0  0  0  0
    3.8962    1.1726   -0.3589 H   0  0  0  0  0  0  0  0  0  0  0  0
    6.5047   -1.4753   -5.8178 H   0  0  0  0  0  0  0  0  0  0  0  0
    5.1153   -2.5970   -5.7835 H   0  0  0  0  0  0  0  0  0  0  0  0
    6.5085   -2.8600   -4.6899 H   0  0  0  0  0  0  0  0  0  0  0  0
    2.0828   -2.9052   -0.4411 H   0  0  0  0  0  0  0  0  0  0  0  0
    4.5428   -3.8359   -3.8629 H   0  0  0  0  0  0  0  0  0  0  0  0
    4.2353    0.2261   -2.4898 H   0  0  0  0  0  0  0  0  0  0  0  0
  1 11  1  0  0  0  0
  1 15  1  0  0  0  0
  1 13  1  0  0  0  0
  2 18  1  0  0  0  0
  2 12  1  0  0  0  0
  3 19  1  0  0  0  0
  4  7  1  0  0  0  0
  5  8  2  0  0  0  0
  6 10  3  0  0  0  0
  7  6  1  0  0  0  0
  7  3  2  0  0  0  0
  8  3  1  0  0  0  0
  8 11  1  0  0  0  0
  9  4  2  0  0  0  0
  9  5  1  0  0  0  0
 12  9  1  0  0  0  0
 14  1  1  0  0  0  0
 16  2  1  0  0  0  0
 17  2  1  0  0  0  0
 20  4  1  0  0  0  0
 21  5  1  0  0  0  0
M  END
>  <HBA>
3

>  <HBD>
0

>  <TPSA>
42.25

>  <cid>
29482

>  <dipole>
5.42

>  <excitation_energy_1>
4.458

>  <excitation_energy_2>
5.112

>  <excitation_energy_3>
5.75

>  <excitation_energy_4>
5.983

>  <homo_energy>
-6.297

>  <homo_lumo_gap>
5.11

>  <logP>
1.575

>  <lumo_energy>
-1.186

>  <melting_point>
53.27

>  <molecular_refractivity>
44.14

>  <oscillator_strength_1>
0.0666

>  <oscillator_strength_2>
0.0984

>  <oscillator_strength_3>
0.0007

>  <oscillator_strength_4>
0.2689

>  <open_babel_can_smiles>
COc1cc(OC)cc(c1)C#N

>  <mulliken_charges>
21
1   -0.219357
2   -0.220802
3   -0.197459
4   -0.224429
5   -0.246277
6   0.235232
7   0.136062
8   0.393188
9   0.389166
10   -0.481787
11   -0.508753
12   -0.510034
13   0.176887
14   0.158043
15   0.157998
16   0.175613
17   0.159834
18   0.15983
19   0.162283
20   0.15437
21   0.150391

>  <lowdin_charges>
21
1   -0.275208
2   -0.282067
3   -0.178354
4   -0.220037
5   -0.226223
6   -0.010327
7   -0.001099
8   0.112665
9   0.116039
10   -0.121191
11   -0.190885
12   -0.192759
13   0.168053
14   0.148997
15   0.147079
16   0.167921
17   0.151178
18   0.151018
19   0.182449
20   0.177445
21   0.175307

$$$$

