PCCDB-ID:  37119
public computational chemistry database (PCCDB) project, http://pccdb.org

 31 32  0  0  1  0  0  0  0  0999 V2000
    0.9600    0.0707   -0.2152 C   0  0  0  0  0  0  0  0  0  0  0  0
    2.4734   -0.0383   -0.0056 C   0  0  0  0  0  0  0  0  0  0  0  0
    1.3777   -0.4335    5.0638 C   0  0  0  0  0  0  0  0  0  0  0  0
    1.8258   -1.4055    4.1668 C   0  0  0  0  0  0  0  0  0  0  0  0
    1.4398    0.9138    4.7061 C   0  0  0  0  0  0  0  0  0  0  0  0
    2.3290   -1.0296    2.9211 C   0  0  0  0  0  0  0  0  0  0  0  0
    1.9444    1.2867    3.4589 C   0  0  0  0  0  0  0  0  0  0  0  0
    5.8912    3.6699    2.5495 C   0  0  0  0  0  0  0  0  0  0  0  0
    7.0659    2.6500    2.5429 C   0  0  0  0  0  0  0  0  0  0  0  0
    2.3935    0.3211    2.5486 C   0  0  0  0  0  0  0  0  0  0  0  0
    2.9841    0.7565    1.2087 C   0  0  1  0  0  0  0  0  0  0  0  0
    5.1599    1.7459    1.7817 C   0  0  0  0  0  0  0  0  0  0  0  0
    4.7342    2.9245    2.0474 N   0  0  0  0  0  0  0  0  0  0  0  0
    4.4563    0.7150    1.2243 N   0  0  0  0  0  0  0  0  0  0  0  0
    6.4737    1.4393    2.0191 O   0  0  0  0  0  0  0  0  0  0  0  0
    0.6526   -0.4766   -1.1130 H   0  0  0  0  0  0  0  0  0  0  0  0
    0.6547    1.1165   -0.3416 H   0  0  0  0  0  0  0  0  0  0  0  0
    0.4049   -0.3376    0.6356 H   0  0  0  0  0  0  0  0  0  0  0  0
    3.0034    0.3392   -0.8880 H   0  0  0  0  0  0  0  0  0  0  0  0
    2.7581   -1.0958    0.0910 H   0  0  0  0  0  0  0  0  0  0  0  0
    0.9834   -0.7254    6.0336 H   0  0  0  0  0  0  0  0  0  0  0  0
    1.7812   -2.4578    4.4359 H   0  0  0  0  0  0  0  0  0  0  0  0
    1.0957    1.6777    5.3986 H   0  0  0  0  0  0  0  0  0  0  0  0
    2.6699   -1.8013    2.2341 H   0  0  0  0  0  0  0  0  0  0  0  0
    2.0109    2.3369    3.1893 H   0  0  0  0  0  0  0  0  0  0  0  0
    6.1004    4.5361    1.9083 H   0  0  0  0  0  0  0  0  0  0  0  0
    5.6908    4.0558    3.5571 H   0  0  0  0  0  0  0  0  0  0  0  0
    7.4642    2.4319    3.5388 H   0  0  0  0  0  0  0  0  0  0  0  0
    7.8921    2.9367    1.8850 H   0  0  0  0  0  0  0  0  0  0  0  0
    2.7357    1.8105    1.0574 H   0  0  0  0  0  0  0  0  0  0  0  0
    4.8767   -0.1938    1.3784 H   0  0  0  0  0  0  0  0  0  0  0  0
  1  2  1  0  0  0  0
  1 18  1  0  0  0  0
  2 20  1  0  0  0  0
  2 11  1  0  0  0  0
  3 21  1  0  0  0  0
  4 22  1  0  0  0  0
  4  3  2  0  0  0  0
  5  3  1  0  0  0  0
  5 23  1  0  0  0  0
  6  4  1  0  0  0  0
  7  5  2  0  0  0  0
  8 27  1  0  0  0  0
  9  8  1  0  0  0  0
  9 28  1  0  0  0  0
 10  6  2  0  0  0  0
 10  7  1  0  0  0  0
 11 30  1  6  0  0  0
 11 14  1  0  0  0  0
 11 10  1  0  0  0  0
 12 15  1  0  0  0  0
 12 13  2  0  0  0  0
 13  8  1  0  0  0  0
 14 31  1  0  0  0  0
 14 12  1  0  0  0  0
 15  9  1  0  0  0  0
 16  1  1  0  0  0  0
 17  1  1  0  0  0  0
 19  2  1  0  0  0  0
 24  6  1  0  0  0  0
 25  7  1  0  0  0  0
 26  8  1  0  0  0  0
 29  9  1  0  0  0  0
M  END
>  <HBA>
3

>  <HBD>
1

>  <TPSA>
33.62

>  <cid>
37119

>  <dipole>
1.2

>  <excitation_energy_1>
4.962

>  <excitation_energy_2>
5.077

>  <excitation_energy_3>
5.37

>  <excitation_energy_4>
5.389

>  <homo_energy>
-5.774

>  <homo_lumo_gap>
5.75

>  <logP>
1.94

>  <lumo_energy>
-0.024

>  <melting_point>
62.5

>  <molecular_refractivity>
64.23

>  <oscillator_strength_1>
0.0124

>  <oscillator_strength_2>
0.0227

>  <oscillator_strength_3>
0.0163

>  <oscillator_strength_4>
0.0013

>  <open_babel_can_smiles>
CC[C@@H](c1ccccc1)NC1=NCCO1

>  <mulliken_charges>
31
1   -0.449566
2   -0.260564
3   -0.129323
4   -0.130168
5   -0.129426
6   -0.192712
7   -0.183736
8   -0.165022
9   -0.056232
10   0.177213
11   -0.061454
12   0.730254
13   -0.50118
14   -0.631378
15   -0.506019
16   0.145098
17   0.147035
18   0.158391
19   0.151062
20   0.127202
21   0.12796
22   0.127697
23   0.129544
24   0.120382
25   0.152456
26   0.146162
27   0.146543
28   0.153066
29   0.153412
30   0.177292
31   0.326012

>  <lowdin_charges>
31
1   -0.447366
2   -0.275934
3   -0.157703
4   -0.155368
5   -0.156878
6   -0.173295
7   -0.157039
8   -0.208887
9   -0.139135
10   -0.014714
11   -0.051262
12   0.157049
13   -0.291243
14   -0.275358
15   -0.228371
16   0.152831
17   0.148721
18   0.15634
19   0.153545
20   0.135668
21   0.156525
22   0.155002
23   0.158867
24   0.152522
25   0.166705
26   0.144896
27   0.144218
28   0.147969
29   0.149905
30   0.168755
31   0.283034

$$$$

