PCCDB-ID:  15711
public computational chemistry database (PCCDB) project, http://pccdb.org

 16 16  0  0  1  0  0  0  0  0999 V2000
    1.0238   -0.0520   -0.2416 C   0  0  0  0  0  0  0  0  0  0  0  0
    3.7593    0.8713   -1.8126 C   0  0  0  0  0  0  0  0  0  0  0  0
    3.2528    1.2228   -0.4076 C   0  0  0  0  0  0  0  0  0  0  0  0
    4.4559   -0.4882   -1.6952 C   0  0  0  0  0  0  0  0  0  0  0  0
    2.5039   -0.0055    0.1472 C   0  0  2  0  0  0  0  0  0  0  0  0
    3.4361   -1.4828   -0.5135 S   0  0  0  0  0  0  0  0  0  0  0  0
    0.4832    0.7828    0.2246 H   0  0  0  0  0  0  0  0  0  0  0  0
    0.5569   -0.9845    0.0912 H   0  0  0  0  0  0  0  0  0  0  0  0
    0.8928    0.0154   -1.3269 H   0  0  0  0  0  0  0  0  0  0  0  0
    4.4440    1.6339   -2.2028 H   0  0  0  0  0  0  0  0  0  0  0  0
    2.9168    0.7973   -2.5102 H   0  0  0  0  0  0  0  0  0  0  0  0
    2.5986    2.1034   -0.4143 H   0  0  0  0  0  0  0  0  0  0  0  0
    4.1087    1.4535    0.2388 H   0  0  0  0  0  0  0  0  0  0  0  0
    5.4698   -0.3808   -1.2960 H   0  0  0  0  0  0  0  0  0  0  0  0
    4.5147   -1.0175   -2.6499 H   0  0  0  0  0  0  0  0  0  0  0  0
    2.5891   -0.0397    1.2379 H   0  0  0  0  0  0  0  0  0  0  0  0
  1  8  1  0  0  0  0
  1  5  1  0  0  0  0
  1  7  1  0  0  0  0
  2  4  1  0  0  0  0
  2  3  1  0  0  0  0
  3  5  1  0  0  0  0
  3 13  1  0  0  0  0
  4 14  1  0  0  0  0
  4  6  1  0  0  0  0
  5 16  1  1  0  0  0
  6  5  1  0  0  0  0
  9  1  1  0  0  0  0
 10  2  1  0  0  0  0
 11  2  1  0  0  0  0
 12  3  1  0  0  0  0
 15  4  1  0  0  0  0
M  END
>  <HBA>
1

>  <HBD>
0

>  <TPSA>
25.3

>  <cid>
15711

>  <dipole>
2.12

>  <excitation_energy_1>
4.989

>  <excitation_energy_2>
5.224

>  <excitation_energy_3>
5.764

>  <excitation_energy_4>
5.817

>  <homo_energy>
-5.753

>  <homo_lumo_gap>
6.762

>  <logP>
1.902

>  <lumo_energy>
1.01

>  <melting_point>
5.65

>  <molecular_refractivity>
31.63

>  <oscillator_strength_1>
0.0003

>  <oscillator_strength_2>
0.0174

>  <oscillator_strength_3>
0.006

>  <oscillator_strength_4>
0.0229

>  <open_babel_can_smiles>
C[C@@H]1CCCS1

>  <mulliken_charges>
16
1   -0.432056
2   -0.268977
3   -0.262486
4   -0.404078
5   -0.234392
6   0.05248
7   0.140847
8   0.158697
9   0.153688
10   0.146073
11   0.151966
12   0.144332
13   0.146652
14   0.169435
15   0.173342
16   0.164477

>  <lowdin_charges>
16
1   -0.446773
2   -0.282297
3   -0.28161
4   -0.368021
5   -0.210576
6   0.053981
7   0.14799
8   0.158735
9   0.151015
10   0.153106
11   0.149816
12   0.151407
13   0.150274
14   0.153659
15   0.164245
16   0.155048

$$$$

