PCCDB-ID:  67701
public computational chemistry database (PCCDB) project, http://pccdb.org

 18 17  0  0  0  0  0  0  0  0999 V2000
    1.4882    0.6667   -0.0306 C   0  0  0  0  0  0  0  0  0  0  0  0
    0.5680   -0.2280   -0.8737 C   0  0  0  0  0  0  0  0  0  0  0  0
    1.0391    0.7667    1.4184 C   0  0  0  0  0  0  0  0  0  0  0  0
   -1.0780    1.3729   -1.7300 C   0  0  0  0  0  0  0  0  0  0  0  0
   -0.1614    1.9255   -2.4452 N   0  0  0  0  0  0  0  0  0  0  0  0
   -2.4060    1.7944   -1.5837 N   0  0  0  0  0  0  0  0  0  0  0  0
   -0.8040    0.2486   -0.9632 N   0  0  0  0  0  0  0  0  0  0  0  0
    0.0375    0.2592    1.8680 O   0  0  0  0  0  0  0  0  0  0  0  0
    1.8472    1.4923    2.2364 O   0  0  0  0  0  0  0  0  0  0  0  0
    1.5105    1.6682   -0.4794 H   0  0  0  0  0  0  0  0  0  0  0  0
    2.5181    0.2809   -0.0571 H   0  0  0  0  0  0  0  0  0  0  0  0
    0.5389   -1.2362   -0.4493 H   0  0  0  0  0  0  0  0  0  0  0  0
    0.9693   -0.2877   -1.8872 H   0  0  0  0  0  0  0  0  0  0  0  0
   -0.5530    2.6622   -3.0342 H   0  0  0  0  0  0  0  0  0  0  0  0
   -2.7000    2.4801   -2.2679 H   0  0  0  0  0  0  0  0  0  0  0  0
   -3.0774    1.0388   -1.4966 H   0  0  0  0  0  0  0  0  0  0  0  0
   -1.2817    0.2230   -0.0683 H   0  0  0  0  0  0  0  0  0  0  0  0
    2.5995    1.8406    1.7290 H   0  0  0  0  0  0  0  0  0  0  0  0
  1  3  1  0  0  0  0
  2 12  1  0  0  0  0
  2  1  1  0  0  0  0
  3  8  2  0  0  0  0
  3  9  1  0  0  0  0
  4  6  2  0  0  0  0
  4  7  1  0  0  0  0
  5  4  1  0  0  0  0
  6 16  1  0  0  0  0
  7  2  1  0  0  0  0
  7 17  1  0  0  0  0
 10  1  1  0  0  0  0
 11  1  1  0  0  0  0
 13  2  1  0  0  0  0
 14  5  1  0  0  0  0
 15  6  1  0  0  0  0
 18  9  1  0  0  0  0
M  RAD  1   5   2
M  END
>  <HBA>
5

>  <HBD>
3

>  <TPSA>
101.7

>  <cid>
67701

>  <dipole>
2.29

>  <excitation_energy_1>
5.332

>  <excitation_energy_2>
5.453

>  <excitation_energy_3>
5.566

>  <excitation_energy_4>
5.784

>  <homo_energy>
-6.101

>  <homo_lumo_gap>
6.346

>  <logP>
0.135

>  <lumo_energy>
0.245

>  <melting_point>
178.29

>  <molecular_refractivity>
32.21

>  <oscillator_strength_1>
0.0024

>  <oscillator_strength_2>
0.008

>  <oscillator_strength_3>
0.0139

>  <oscillator_strength_4>
0.0029

>  <open_babel_can_smiles>
[NH]C(=[NH2])NCCC(=O)O

>  <mulliken_charges>
18
1   -0.418564
2   -0.11861
3   0.612959
4   0.588555
5   -0.660602
6   -0.753532
7   -0.593263
8   -0.456015
9   -0.564452
10   0.211303
11   0.157967
12   0.154146
13   0.177455
14   0.263723
15   0.319387
16   0.326032
17   0.341621
18   0.41189

>  <lowdin_charges>
18
1   -0.339996
2   -0.188726
3   0.199207
4   0.128744
5   -0.497843
6   -0.508791
7   -0.305945
8   -0.255415
9   -0.353489
10   0.185989
11   0.161761
12   0.154128
13   0.169868
14   0.247337
15   0.277064
16   0.281103
17   0.284141
18   0.360863

$$$$

