PCCDB-ID:  20654
public computational chemistry database (PCCDB) project, http://pccdb.org

 45 45  0  0  1  0  0  0  0  0999 V2000
   11.2745    6.7562  -11.4927 C   0  0  0  0  0  0  0  0  0  0  0  0
   10.3818    0.9294   -2.2193 C   0  0  0  0  0  0  0  0  0  0  0  0
   10.2028    7.5049  -10.6911 C   0  0  0  0  0  0  0  0  0  0  0  0
    9.5348    2.0973   -2.7422 C   0  0  0  0  0  0  0  0  0  0  0  0
    9.5609    6.6793   -9.5632 C   0  0  0  0  0  0  0  0  0  0  0  0
   10.5167    6.2950   -8.4249 C   0  0  0  0  0  0  0  0  0  0  0  0
    9.8302    5.5254   -7.2886 C   0  0  0  0  0  0  0  0  0  0  0  0
   14.4491    1.5175   -4.7141 C   0  0  0  0  0  0  0  0  0  0  0  0
   10.7818    5.1464   -6.1462 C   0  0  0  0  0  0  0  0  0  0  0  0
   13.2471    1.3138   -5.3923 C   0  0  0  0  0  0  0  0  0  0  0  0
   14.5348    2.5415   -3.7692 C   0  0  0  0  0  0  0  0  0  0  0  0
   10.1976    3.4877   -2.6079 C   0  0  0  0  0  0  0  0  0  0  0  0
   10.0933    4.3652   -5.0183 C   0  0  0  0  0  0  0  0  0  0  0  0
   12.1409    2.1234   -5.1257 C   0  0  0  0  0  0  0  0  0  0  0  0
   13.4266    3.3480   -3.5094 C   0  0  0  0  0  0  0  0  0  0  0  0
   11.0096    4.0296   -3.8219 C   0  0  2  0  0  0  0  0  0  0  0  0
   12.2068    3.1521   -4.1747 C   0  0  0  0  0  0  0  0  0  0  0  0
   11.6545    7.3734  -12.3151 H   0  0  0  0  0  0  0  0  0  0  0  0
   10.8673    5.8351  -11.9287 H   0  0  0  0  0  0  0  0  0  0  0  0
   12.1311    6.4769  -10.8694 H   0  0  0  0  0  0  0  0  0  0  0  0
    9.8416   -0.0200   -2.3183 H   0  0  0  0  0  0  0  0  0  0  0  0
   10.6167    1.0668   -1.1563 H   0  0  0  0  0  0  0  0  0  0  0  0
   11.3279    0.8342   -2.7595 H   0  0  0  0  0  0  0  0  0  0  0  0
    9.4116    7.8358  -11.3775 H   0  0  0  0  0  0  0  0  0  0  0  0
   10.6377    8.4208  -10.2657 H   0  0  0  0  0  0  0  0  0  0  0  0
    8.5890    2.1119   -2.1848 H   0  0  0  0  0  0  0  0  0  0  0  0
    9.2547    1.9099   -3.7872 H   0  0  0  0  0  0  0  0  0  0  0  0
    9.1203    5.7662   -9.9914 H   0  0  0  0  0  0  0  0  0  0  0  0
    8.7220    7.2506   -9.1402 H   0  0  0  0  0  0  0  0  0  0  0  0
   10.9774    7.2077   -8.0172 H   0  0  0  0  0  0  0  0  0  0  0  0
   11.3433    5.6867   -8.8174 H   0  0  0  0  0  0  0  0  0  0  0  0
    9.3702    4.6127   -7.6967 H   0  0  0  0  0  0  0  0  0  0  0  0
    9.0011    6.1290   -6.8892 H   0  0  0  0  0  0  0  0  0  0  0  0
   15.3108    0.8893   -4.9236 H   0  0  0  0  0  0  0  0  0  0  0  0
   11.2296    6.0605   -5.7281 H   0  0  0  0  0  0  0  0  0  0  0  0
   11.6167    4.5579   -6.5490 H   0  0  0  0  0  0  0  0  0  0  0  0
   13.1678    0.5253   -6.1366 H   0  0  0  0  0  0  0  0  0  0  0  0
   15.4669    2.7177   -3.2382 H   0  0  0  0  0  0  0  0  0  0  0  0
   10.8542    3.4820   -1.7269 H   0  0  0  0  0  0  0  0  0  0  0  0
    9.4195    4.2346   -2.3990 H   0  0  0  0  0  0  0  0  0  0  0  0
    9.6435    3.4515   -5.4302 H   0  0  0  0  0  0  0  0  0  0  0  0
    9.2510    4.9609   -4.6379 H   0  0  0  0  0  0  0  0  0  0  0  0
   11.2162    1.9456   -5.6676 H   0  0  0  0  0  0  0  0  0  0  0  0
   13.5070    4.1475   -2.7753 H   0  0  0  0  0  0  0  0  0  0  0  0
   11.4239    4.9889   -3.4768 H   0  0  0  0  0  0  0  0  0  0  0  0
  1 20  1  0  0  0  0
  1  3  1  0  0  0  0
  2 22  1  0  0  0  0
  3 25  1  0  0  0  0
  3  5  1  0  0  0  0
  4 12  1  0  0  0  0
  4  2  1  0  0  0  0
  4 26  1  0  0  0  0
  5 29  1  0  0  0  0
  5  6  1  0  0  0  0
  6 30  1  0  0  0  0
  6  7  1  0  0  0  0
  7 33  1  0  0  0  0
  7  9  1  0  0  0  0
  8 11  2  0  0  0  0
  9 35  1  0  0  0  0
  9 13  1  0  0  0  0
 10 14  2  0  0  0  0
 10  8  1  0  0  0  0
 11 15  1  0  0  0  0
 11 38  1  0  0  0  0
 12 40  1  0  0  0  0
 12 39  1  0  0  0  0
 13 42  1  0  0  0  0
 13 16  1  0  0  0  0
 14 17  1  0  0  0  0
 15 44  1  0  0  0  0
 16 45  1  1  0  0  0
 16 12  1  0  0  0  0
 17 16  1  0  0  0  0
 17 15  2  0  0  0  0
 18  1  1  0  0  0  0
 19  1  1  0  0  0  0
 21  2  1  0  0  0  0
 23  2  1  0  0  0  0
 24  3  1  0  0  0  0
 27  4  1  0  0  0  0
 28  5  1  0  0  0  0
 31  6  1  0  0  0  0
 32  7  1  0  0  0  0
 34  8  1  0  0  0  0
 36  9  1  0  0  0  0
 37 10  1  0  0  0  0
 41 13  1  0  0  0  0
 43 14  1  0  0  0  0
M  END
>  <HBA>
0

>  <HBD>
0

>  <TPSA>
0.0

>  <cid>
20654

>  <dipole>
0.25

>  <excitation_energy_1>
5.261

>  <excitation_energy_2>
5.793

>  <excitation_energy_3>
5.962

>  <excitation_energy_4>
6.18

>  <homo_energy>
-6.37

>  <homo_lumo_gap>
6.465

>  <logP>
5.931

>  <lumo_energy>
0.095

>  <melting_point>
0.51

>  <molecular_refractivity>
79.48

>  <oscillator_strength_1>
0.0011

>  <oscillator_strength_2>
0.0434

>  <oscillator_strength_3>
0.0023

>  <oscillator_strength_4>
0.0047

>  <open_babel_can_smiles>
CCC[C@@H](c1ccccc1)CCCCCCC

>  <mulliken_charges>
45
1   -0.442922
2   -0.449578
3   -0.247948
4   -0.253138
5   -0.248934
6   -0.252712
7   -0.252499
8   -0.132143
9   -0.258495
10   -0.131523
11   -0.126087
12   -0.25422
13   -0.267596
14   -0.186666
15   -0.188897
16   -0.17156
17   0.180067
18   0.14089
19   0.139665
20   0.14702
21   0.135054
22   0.13708
23   0.165818
24   0.129355
25   0.128849
26   0.131433
27   0.132771
28   0.124795
29   0.125813
30   0.1254
31   0.132882
32   0.124946
33   0.125127
34   0.12668
35   0.125695
36   0.141854
37   0.127065
38   0.126988
39   0.131575
40   0.127885
41   0.132108
42   0.127272
43   0.125045
44   0.121513
45   0.124274

>  <lowdin_charges>
45
1   -0.449043
2   -0.448148
3   -0.274373
4   -0.27604
5   -0.277037
6   -0.277715
7   -0.274503
8   -0.16398
9   -0.279156
10   -0.156741
11   -0.155857
12   -0.275578
13   -0.278271
14   -0.171671
15   -0.167664
16   -0.125763
17   0.000621
18   0.149988
19   0.145654
20   0.148184
21   0.145658
22   0.142226
23   0.158109
24   0.142054
25   0.138539
26   0.142176
27   0.138141
28   0.136903
29   0.140033
30   0.137304
31   0.140619
32   0.136865
33   0.13685
34   0.156983
35   0.137837
36   0.146405
37   0.156407
38   0.156422
39   0.142714
40   0.142027
41   0.138427
42   0.142203
43   0.155518
44   0.153361
45   0.143315

$$$$

