PCCDB-ID:  29837
public computational chemistry database (PCCDB) project, http://pccdb.org

 14 14  0  0  1  0  0  0  0  0999 V2000
    1.3079   -0.4305    0.1989 C   0  0  0  0  0  0  0  0  0  0  0  0
    3.1172    0.1687   -1.1822 C   0  0  0  0  0  0  0  0  0  0  0  0
    5.5470    0.8704   -0.6217 C   0  0  0  0  0  0  0  0  0  0  0  0
    4.6081   -0.0334   -1.3237 C   0  0  2  0  0  0  0  0  0  0  0  0
    2.7046   -0.4990   -0.0026 O   0  0  0  0  0  0  0  0  0  0  0  0
    5.5120    1.1109   -2.4465 S   0  0  0  0  0  0  0  0  0  0  0  0
    1.0878   -0.9834    1.1156 H   0  0  0  0  0  0  0  0  0  0  0  0
    0.7525   -0.8863   -0.6367 H   0  0  0  0  0  0  0  0  0  0  0  0
    0.9629    0.6095    0.3164 H   0  0  0  0  0  0  0  0  0  0  0  0
    2.5934   -0.2399   -2.0621 H   0  0  0  0  0  0  0  0  0  0  0  0
    2.8880    1.2459   -1.1315 H   0  0  0  0  0  0  0  0  0  0  0  0
    6.4703    0.4565   -0.2246 H   0  0  0  0  0  0  0  0  0  0  0  0
    5.1284    1.6895   -0.0411 H   0  0  0  0  0  0  0  0  0  0  0  0
    4.9089   -1.0751   -1.4171 H   0  0  0  0  0  0  0  0  0  0  0  0
  1  9  1  0  0  0  0
  1  7  1  0  0  0  0
  2 11  1  0  0  0  0
  2  5  1  0  0  0  0
  3 12  1  0  0  0  0
  3 13  1  0  0  0  0
  4 14  1  6  0  0  0
  4  2  1  0  0  0  0
  4  3  1  0  0  0  0
  5  1  1  0  0  0  0
  6  4  1  0  0  0  0
  6  3  1  0  0  0  0
  8  1  1  0  0  0  0
 10  2  1  0  0  0  0
M  END
>  <HBA>
2

>  <HBD>
0

>  <TPSA>
34.53

>  <cid>
29837

>  <dipole>
1.92

>  <excitation_energy_1>
4.716

>  <excitation_energy_2>
5.712

>  <excitation_energy_3>
5.816

>  <excitation_energy_4>
6.158

>  <homo_energy>
-6.199

>  <homo_lumo_gap>
6.357

>  <logP>
0.748

>  <lumo_energy>
0.158

>  <melting_point>
-2.64

>  <molecular_refractivity>
27.9

>  <oscillator_strength_1>
0.0

>  <oscillator_strength_2>
0.0075

>  <oscillator_strength_3>
0.0338

>  <oscillator_strength_4>
0.0124

>  <open_babel_can_smiles>
COC[C@@H]1CS1

>  <mulliken_charges>
14
1   -0.193803
2   -0.006903
3   -0.371392
4   -0.205774
5   -0.461748
6   -0.026794
7   0.161715
8   0.133111
9   0.133007
10   0.13289
11   0.134407
12   0.191178
13   0.190692
14   0.189413

>  <lowdin_charges>
14
1   -0.278634
2   -0.127006
3   -0.345299
4   -0.198322
5   -0.274585
6   0.002694
7   0.157481
8   0.13447
9   0.132262
10   0.136374
11   0.135856
12   0.176416
13   0.175223
14   0.17307

$$$$

