PCCDB-ID:  23459
public computational chemistry database (PCCDB) project, http://pccdb.org

 38 37  0  0  0  0  0  0  0  0999 V2000
    3.0378   -1.4342    2.2594 C   0  0  0  0  0  0  0  0  0  0  0  0
    8.7865    6.6117    0.4927 C   0  0  0  0  0  0  0  0  0  0  0  0
    9.2315    4.6976   -1.0887 C   0  0  0  0  0  0  0  0  0  0  0  0
    3.0658    0.0983    2.3071 C   0  0  0  0  0  0  0  0  0  0  0  0
    4.1438    0.7480    1.4221 C   0  0  0  0  0  0  0  0  0  0  0  0
    3.9285    0.5579   -0.0870 C   0  0  0  0  0  0  0  0  0  0  0  0
    5.0153    1.1916   -0.9729 C   0  0  0  0  0  0  0  0  0  0  0  0
    5.0663    2.7261   -0.9391 C   0  0  0  0  0  0  0  0  0  0  0  0
    6.1070    3.3121   -1.9048 C   0  0  0  0  0  0  0  0  0  0  0  0
    6.1807    4.8511   -1.8912 C   0  0  0  0  0  0  0  0  0  0  0  0
    6.8237    5.4839   -0.6338 C   0  0  0  0  0  0  0  0  0  0  0  0
    8.3084    5.8835   -0.7725 C   0  0  0  0  0  0  0  0  0  0  0  0
    2.2839   -1.8355    2.9465 H   0  0  0  0  0  0  0  0  0  0  0  0
    4.0091   -1.8550    2.5489 H   0  0  0  0  0  0  0  0  0  0  0  0
    2.8007   -1.8097    1.2577 H   0  0  0  0  0  0  0  0  0  0  0  0
    9.8196    6.9630    0.3837 H   0  0  0  0  0  0  0  0  0  0  0  0
    8.7533    5.9453    1.3648 H   0  0  0  0  0  0  0  0  0  0  0  0
    8.1582    7.4824    0.7164 H   0  0  0  0  0  0  0  0  0  0  0  0
   10.2742    5.0272   -1.1726 H   0  0  0  0  0  0  0  0  0  0  0  0
    8.9646    4.2082   -2.0314 H   0  0  0  0  0  0  0  0  0  0  0  0
    9.1860    3.9420   -0.2932 H   0  0  0  0  0  0  0  0  0  0  0  0
    3.2278    0.4168    3.3458 H   0  0  0  0  0  0  0  0  0  0  0  0
    2.0793    0.4909    2.0209 H   0  0  0  0  0  0  0  0  0  0  0  0
    5.1298    0.3442    1.6993 H   0  0  0  0  0  0  0  0  0  0  0  0
    4.1793    1.8209    1.6525 H   0  0  0  0  0  0  0  0  0  0  0  0
    2.9472    0.9712   -0.3659 H   0  0  0  0  0  0  0  0  0  0  0  0
    3.8813   -0.5150   -0.3150 H   0  0  0  0  0  0  0  0  0  0  0  0
    4.8517    0.8705   -2.0117 H   0  0  0  0  0  0  0  0  0  0  0  0
    5.9978    0.7889   -0.6840 H   0  0  0  0  0  0  0  0  0  0  0  0
    5.2758    3.0697    0.0823 H   0  0  0  0  0  0  0  0  0  0  0  0
    4.0734    3.1254   -1.1967 H   0  0  0  0  0  0  0  0  0  0  0  0
    5.8627    2.9789   -2.9238 H   0  0  0  0  0  0  0  0  0  0  0  0
    7.0930    2.8858   -1.6760 H   0  0  0  0  0  0  0  0  0  0  0  0
    5.1589    5.2379   -2.0083 H   0  0  0  0  0  0  0  0  0  0  0  0
    6.7268    5.1939   -2.7813 H   0  0  0  0  0  0  0  0  0  0  0  0
    6.7178    4.8055    0.2257 H   0  0  0  0  0  0  0  0  0  0  0  0
    6.2651    6.3901   -0.3639 H   0  0  0  0  0  0  0  0  0  0  0  0
    8.3768    6.5921   -1.6130 H   0  0  0  0  0  0  0  0  0  0  0  0
  1  4  1  0  0  0  0
  1 14  1  0  0  0  0
  1 13  1  0  0  0  0
  2 18  1  0  0  0  0
  2 17  1  0  0  0  0
  3 12  1  0  0  0  0
  3 21  1  0  0  0  0
  4 22  1  0  0  0  0
  5 25  1  0  0  0  0
  5 24  1  0  0  0  0
  5  4  1  0  0  0  0
  6  5  1  0  0  0  0
  7  8  1  0  0  0  0
  7 29  1  0  0  0  0
  7  6  1  0  0  0  0
  8 30  1  0  0  0  0
  9 10  1  0  0  0  0
  9 33  1  0  0  0  0
  9  8  1  0  0  0  0
 10 11  1  0  0  0  0
 11 37  1  0  0  0  0
 11 36  1  0  0  0  0
 12 11  1  0  0  0  0
 12  2  1  0  0  0  0
 15  1  1  0  0  0  0
 16  2  1  0  0  0  0
 19  3  1  0  0  0  0
 20  3  1  0  0  0  0
 23  4  1  0  0  0  0
 26  6  1  0  0  0  0
 27  6  1  0  0  0  0
 28  7  1  0  0  0  0
 31  8  1  0  0  0  0
 32  9  1  0  0  0  0
 34 10  1  0  0  0  0
 35 10  1  0  0  0  0
 38 12  1  0  0  0  0
M  END
>  <HBA>
0

>  <HBD>
0

>  <TPSA>
0.0

>  <cid>
23459

>  <dipole>
0.11

>  <excitation_energy_1>
7.591

>  <excitation_energy_2>
7.676

>  <excitation_energy_3>
7.756

>  <excitation_energy_4>
7.811

>  <homo_energy>
-8.03

>  <homo_lumo_gap>
10.33

>  <logP>
4.783

>  <lumo_energy>
2.299

>  <melting_point>
-30.55

>  <molecular_refractivity>
59.8

>  <oscillator_strength_1>
0.0029

>  <oscillator_strength_2>
0.0027

>  <oscillator_strength_3>
0.0045

>  <oscillator_strength_4>
0.0269

>  <open_babel_can_smiles>
CCCCCCCCCC(C)C

>  <mulliken_charges>
38
1   -0.443152
2   -0.442295
3   -0.442656
4   -0.248433
5   -0.250556
6   -0.25513
7   -0.254283
8   -0.256715
9   -0.260178
10   -0.265081
11   -0.250336
12   -0.068753
13   0.141172
14   0.139996
15   0.146184
16   0.138308
17   0.137882
18   0.13838
19   0.137784
20   0.147087
21   0.136611
22   0.129416
23   0.129048
24   0.123932
25   0.132114
26   0.124491
27   0.13076
28   0.125744
29   0.125811
30   0.13754
31   0.124352
32   0.125174
33   0.134136
34   0.127865
35   0.129323
36   0.128692
37   0.126104
38   0.119663

>  <lowdin_charges>
38
1   -0.448121
2   -0.444685
3   -0.447034
4   -0.271079
5   -0.2759
6   -0.275254
7   -0.273164
8   -0.277779
9   -0.276899
10   -0.279211
11   -0.281176
12   -0.120233
13   0.150341
14   0.145327
15   0.146387
16   0.145985
17   0.145072
18   0.147005
19   0.145956
20   0.14951
21   0.144603
22   0.139844
23   0.137946
24   0.135532
25   0.13921
26   0.136013
27   0.139512
28   0.138167
29   0.136659
30   0.138198
31   0.13534
32   0.138102
33   0.140078
34   0.140119
35   0.141566
36   0.138518
37   0.141809
38   0.133737

$$$$

