PCCDB-ID:  594
public computational chemistry database (PCCDB) project, http://pccdb.org

 14 13  0  0  1  0  0  0  0  0999 V2000
    0.7508   -0.9918    0.0477 C   0  0  0  0  0  0  0  0  0  0  0  0
    0.6203   -0.2109   -1.2717 C   0  0  1  0  0  0  0  0  0  0  0  0
    1.0567   -0.9746   -2.5387 C   0  0  0  0  0  0  0  0  0  0  0  0
   -0.7338    0.3530   -1.3979 N   0  0  0  0  0  0  0  0  0  0  0  0
    1.7976   -0.4875   -3.3589 O   0  0  0  0  0  0  0  0  0  0  0  0
    0.4969   -2.1898   -2.7462 O   0  0  0  0  0  0  0  0  0  0  0  0
   -0.4729   -2.3560    0.2931 S   0  0  0  0  0  0  0  0  0  0  0  0
    0.6471   -0.2960    0.8829 H   0  0  0  0  0  0  0  0  0  0  0  0
    1.7319   -1.4714    0.1196 H   0  0  0  0  0  0  0  0  0  0  0  0
    1.3166    0.6302   -1.2022 H   0  0  0  0  0  0  0  0  0  0  0  0
   -1.3697   -0.3476   -1.7776 H   0  0  0  0  0  0  0  0  0  0  0  0
   -0.7190    1.1117   -2.0774 H   0  0  0  0  0  0  0  0  0  0  0  0
   -0.0137   -2.4760   -1.9567 H   0  0  0  0  0  0  0  0  0  0  0  0
   -1.5587   -1.5566    0.3687 H   0  0  0  0  0  0  0  0  0  0  0  0
  1  9  1  0  0  0  0
  1  7  1  0  0  0  0
  1  8  1  0  0  0  0
  2 10  1  1  0  0  0
  2  1  1  0  0  0  0
  3  2  1  0  0  0  0
  4  2  1  0  0  0  0
  5  3  2  0  0  0  0
  6  3  1  0  0  0  0
  6 13  1  0  0  0  0
  7 14  1  0  0  0  0
 11  4  1  0  0  0  0
 12  4  1  0  0  0  0
M  END
>  <HBA>
4

>  <HBD>
3

>  <TPSA>
102.12

>  <cid>
594

>  <dipole>
3.48

>  <excitation_energy_1>
5.277

>  <excitation_energy_2>
5.62

>  <excitation_energy_3>
5.888

>  <excitation_energy_4>
6.086

>  <homo_energy>
-6.776

>  <homo_lumo_gap>
6.792

>  <logP>
0.028

>  <lumo_energy>
0.016

>  <melting_point>
127.1

>  <molecular_refractivity>
28.94

>  <oscillator_strength_1>
0.01

>  <oscillator_strength_2>
0.0004

>  <oscillator_strength_3>
0.0052

>  <oscillator_strength_4>
0.0412

>  <open_babel_can_smiles>
N[C@H](C(=O)O)CS

>  <mulliken_charges>
14
1   -0.424327
2   -0.080823
3   0.576237
4   -0.711387
5   -0.446284
6   -0.578491
7   -0.110576
8   0.206041
9   0.198813
10   0.182168
11   0.303332
12   0.324719
13   0.425244
14   0.135334

>  <lowdin_charges>
14
1   -0.37819
2   -0.110279
3   0.169683
4   -0.541487
5   -0.246332
6   -0.368113
7   -0.065933
8   0.180434
9   0.178119
10   0.17446
11   0.259122
12   0.273278
13   0.342628
14   0.132611

$$$$

