PCCDB-ID:  35456
public computational chemistry database (PCCDB) project, http://pccdb.org

 20 20  0  0  1  0  0  0  0  0999 V2000
    1.2322    0.0785   -1.0084 C   0  0  0  0  0  0  0  0  0  0  0  0
    3.0515   -2.0874    0.9736 C   0  0  0  0  0  0  0  0  0  0  0  0
    4.0042   -1.6237   -1.3229 C   0  0  0  0  0  0  0  0  0  0  0  0
    2.9834    1.0336    0.6876 C   0  0  0  0  0  0  0  0  0  0  0  0
    5.0525   -0.0814    1.7861 C   0  0  0  0  0  0  0  0  0  0  0  0
    2.3097    0.0315   -0.2330 C   0  0  0  0  0  0  0  0  0  0  0  0
    4.2872    0.1742    0.5739 C   0  0  1  0  0  0  0  0  0  0  0  0
    3.4248   -1.0052   -0.0510 C   0  0  0  0  0  0  0  0  0  0  0  0
    5.6491   -0.2972    2.7598 N   0  0  0  0  0  0  0  0  0  0  0  0
    0.5812    0.9493   -1.0309 H   0  0  0  0  0  0  0  0  0  0  0  0
    0.9548   -0.7530   -1.6521 H   0  0  0  0  0  0  0  0  0  0  0  0
    2.3011   -2.7607    0.5446 H   0  0  0  0  0  0  0  0  0  0  0  0
    2.6322   -1.6585    1.8896 H   0  0  0  0  0  0  0  0  0  0  0  0
    3.9298   -2.6805    1.2525 H   0  0  0  0  0  0  0  0  0  0  0  0
    3.2763   -2.2977   -1.7900 H   0  0  0  0  0  0  0  0  0  0  0  0
    4.9032   -2.2101   -1.0970 H   0  0  0  0  0  0  0  0  0  0  0  0
    4.2683   -0.8552   -2.0576 H   0  0  0  0  0  0  0  0  0  0  0  0
    2.5765    1.0299    1.7050 H   0  0  0  0  0  0  0  0  0  0  0  0
    3.0584    2.0701    0.3456 H   0  0  0  0  0  0  0  0  0  0  0  0
    4.9567    0.5902   -0.1861 H   0  0  0  0  0  0  0  0  0  0  0  0
  1  6  2  0  0  0  0
  2 14  1  0  0  0  0
  2 13  1  0  0  0  0
  3 16  1  0  0  0  0
  3  8  1  0  0  0  0
  4 18  1  0  0  0  0
  5  9  3  0  0  0  0
  6  8  1  0  0  0  0
  6  4  1  0  0  0  0
  7 20  1  6  0  0  0
  7  4  1  0  0  0  0
  7  5  1  0  0  0  0
  8  7  1  0  0  0  0
  8  2  1  0  0  0  0
 10  1  1  0  0  0  0
 11  1  1  0  0  0  0
 12  2  1  0  0  0  0
 15  3  1  0  0  0  0
 17  3  1  0  0  0  0
 19  4  1  0  0  0  0
M  END
>  <HBA>
1

>  <HBD>
0

>  <TPSA>
23.79

>  <cid>
35456

>  <dipole>
3.82

>  <excitation_energy_1>
6.319

>  <excitation_energy_2>
6.574

>  <excitation_energy_3>
6.653

>  <excitation_energy_4>
6.918

>  <homo_energy>
-7.075

>  <homo_lumo_gap>
7.143

>  <logP>
2.112

>  <lumo_energy>
0.068

>  <melting_point>
30.1

>  <molecular_refractivity>
37.47

>  <oscillator_strength_1>
0.0326

>  <oscillator_strength_2>
0.2481

>  <oscillator_strength_3>
0.0082

>  <oscillator_strength_4>
0.0188

>  <open_babel_can_smiles>
N#C[C@@H]1CC(=C)C1(C)C

>  <mulliken_charges>
20
1   -0.444341
2   -0.453983
3   -0.456402
4   -0.336566
5   0.341421
6   0.226851
7   -0.202382
8   0.053518
9   -0.475131
10   0.144733
11   0.142887
12   0.152345
13   0.156709
14   0.163804
15   0.152603
16   0.155459
17   0.149348
18   0.176127
19   0.168068
20   0.184931

>  <lowdin_charges>
20
1   -0.356876
2   -0.4396
3   -0.442823
4   -0.266626
5   -0.019968
6   -0.003927
7   -0.141177
8   0.021689
9   -0.133055
10   0.164435
11   0.163226
12   0.158199
13   0.158204
14   0.160631
15   0.157247
16   0.157088
17   0.153565
18   0.168058
19   0.161664
20   0.180047

$$$$

