PCCDB-ID:  29545
public computational chemistry database (PCCDB) project, http://pccdb.org

 33 33  0  0  1  0  0  0  0  0999 V2000
    3.1042    1.3306   -0.7856 C   0  0  0  0  0  0  0  0  0  0  0  0
    2.1188   -0.9903   -0.8330 C   0  0  0  0  0  0  0  0  0  0  0  0
    2.6521   -1.5458    6.9311 C   0  0  0  0  0  0  0  0  0  0  0  0
    3.8301   -0.7978    6.9942 C   0  0  0  0  0  0  0  0  0  0  0  0
    2.3235   -2.2100    5.7489 C   0  0  0  0  0  0  0  0  0  0  0  0
    4.6681   -0.7149    5.8829 C   0  0  0  0  0  0  0  0  0  0  0  0
    3.1659   -2.1216    4.6388 C   0  0  0  0  0  0  0  0  0  0  0  0
    5.2542   -1.2462    3.4786 C   0  0  0  0  0  0  0  0  0  0  0  0
    3.8371    0.4961    2.1830 C   0  0  0  0  0  0  0  0  0  0  0  0
    2.5704    0.1687    0.0597 C   0  0  0  0  0  0  0  0  0  0  0  0
    4.3495   -1.3718    4.6843 C   0  0  0  0  0  0  0  0  0  0  0  0
    5.2073    0.1420    2.7880 C   0  0  2  0  0  0  0  0  0  0  0  0
    3.6118   -0.3224    0.9832 N   0  0  0  0  0  0  0  0  0  0  0  0
    6.1929    0.2164    1.7707 O   0  0  0  0  0  0  0  0  0  0  0  0
    2.3194    1.7141   -1.4474 H   0  0  0  0  0  0  0  0  0  0  0  0
    3.9470    0.9953   -1.4008 H   0  0  0  0  0  0  0  0  0  0  0  0
    3.4502    2.1645   -0.1663 H   0  0  0  0  0  0  0  0  0  0  0  0
    1.3598   -0.6574   -1.5482 H   0  0  0  0  0  0  0  0  0  0  0  0
    1.6837   -1.8055   -0.2404 H   0  0  0  0  0  0  0  0  0  0  0  0
    2.9691   -1.3934   -1.3957 H   0  0  0  0  0  0  0  0  0  0  0  0
    2.0004   -1.6145    7.7979 H   0  0  0  0  0  0  0  0  0  0  0  0
    4.0995   -0.2828    7.9129 H   0  0  0  0  0  0  0  0  0  0  0  0
    1.4135   -2.8020    5.6908 H   0  0  0  0  0  0  0  0  0  0  0  0
    5.5888   -0.1385    5.9462 H   0  0  0  0  0  0  0  0  0  0  0  0
    2.9053   -2.6524    3.7248 H   0  0  0  0  0  0  0  0  0  0  0  0
    5.0141   -2.0217    2.7393 H   0  0  0  0  0  0  0  0  0  0  0  0
    6.2990   -1.4121    3.7660 H   0  0  0  0  0  0  0  0  0  0  0  0
    3.8736    1.5448    1.8735 H   0  0  0  0  0  0  0  0  0  0  0  0
    3.0357    0.3992    2.9322 H   0  0  0  0  0  0  0  0  0  0  0  0
    1.6913    0.5278    0.6265 H   0  0  0  0  0  0  0  0  0  0  0  0
    5.4623    0.9019    3.5376 H   0  0  0  0  0  0  0  0  0  0  0  0
    3.3587   -1.2645    1.2766 H   0  0  0  0  0  0  0  0  0  0  0  0
    5.7297   -0.1157    0.9753 H   0  0  0  0  0  0  0  0  0  0  0  0
  1 17  1  0  0  0  0
  1 10  1  0  0  0  0
  2 19  1  0  0  0  0
  2 10  1  0  0  0  0
  3  4  1  0  0  0  0
  3 21  1  0  0  0  0
  4 22  1  0  0  0  0
  5  3  2  0  0  0  0
  6 24  1  0  0  0  0
  6  4  2  0  0  0  0
  7 11  2  0  0  0  0
  7  5  1  0  0  0  0
  8 27  1  0  0  0  0
  8 11  1  0  0  0  0
  9 12  1  0  0  0  0
  9 29  1  0  0  0  0
 10 30  1  0  0  0  0
 10 13  1  0  0  0  0
 11  6  1  0  0  0  0
 12  8  1  0  0  0  0
 12 31  1  1  0  0  0
 13 32  1  0  0  0  0
 13  9  1  0  0  0  0
 14 12  1  0  0  0  0
 15  1  1  0  0  0  0
 16  1  1  0  0  0  0
 18  2  1  0  0  0  0
 20  2  1  0  0  0  0
 23  5  1  0  0  0  0
 25  7  1  0  0  0  0
 26  8  1  0  0  0  0
 28  9  1  0  0  0  0
 33 14  1  0  0  0  0
M  END
>  <HBA>
2

>  <HBD>
2

>  <TPSA>
32.26

>  <cid>
29545

>  <dipole>
2.72

>  <excitation_energy_1>
5.216

>  <excitation_energy_2>
5.551

>  <excitation_energy_3>
5.579

>  <excitation_energy_4>
5.717

>  <homo_energy>
-6.234

>  <homo_lumo_gap>
6.202

>  <logP>
1.979

>  <lumo_energy>
-0.033

>  <melting_point>
49.63

>  <molecular_refractivity>
59.41

>  <oscillator_strength_1>
0.0032

>  <oscillator_strength_2>
0.0494

>  <oscillator_strength_3>
0.0026

>  <oscillator_strength_4>
0.0029

>  <open_babel_can_smiles>
O[C@H](Cc1ccccc1)CNC(C)C

>  <mulliken_charges>
33
1   -0.436268
2   -0.463353
3   -0.132308
4   -0.127121
5   -0.125973
6   -0.184553
7   -0.19096
8   -0.374048
9   -0.161081
10   0.070597
11   0.176315
12   0.145851
13   -0.595996
14   -0.64319
15   0.140849
16   0.150408
17   0.150776
18   0.151111
19   0.138149
20   0.155281
21   0.128358
22   0.129693
23   0.127718
24   0.129017
25   0.113718
26   0.130302
27   0.161789
28   0.153442
29   0.138545
30   0.113776
31   0.128433
32   0.302063
33   0.398661

>  <lowdin_charges>
33
1   -0.451764
2   -0.452166
3   -0.162754
4   -0.153762
5   -0.155052
6   -0.166551
7   -0.174013
8   -0.294217
9   -0.22814
10   -0.053806
11   -0.002974
12   -0.007677
13   -0.366166
14   -0.472413
15   0.151737
16   0.153499
17   0.153076
18   0.157279
19   0.146956
20   0.154982
21   0.157764
22   0.157756
23   0.156563
24   0.156188
25   0.148891
26   0.144379
27   0.161683
28   0.150673
29   0.137953
30   0.121994
31   0.141009
32   0.252106
33   0.336968

$$$$

