PCCDB-ID:  16007
public computational chemistry database (PCCDB) project, http://pccdb.org

 23 24  0  0  0  0  0  0  0  0999 V2000
    2.1516   -0.2732    4.3249 C   0  0  0  0  0  0  0  0  0  0  0  0
   -3.5451   -0.5145    1.9266 C   0  0  0  0  0  0  0  0  0  0  0  0
   -3.8961   -1.8388    1.6247 C   0  0  0  0  0  0  0  0  0  0  0  0
   -2.2138   -0.1488    2.1040 C   0  0  0  0  0  0  0  0  0  0  0  0
   -2.9182   -2.8253    1.4960 C   0  0  0  0  0  0  0  0  0  0  0  0
   -1.2164   -1.1237    1.9799 C   0  0  0  0  0  0  0  0  0  0  0  0
   -1.5868   -2.4567    1.6787 C   0  0  0  0  0  0  0  0  0  0  0  0
    3.0807   -1.0509    2.2841 C   0  0  0  0  0  0  0  0  0  0  0  0
    0.8158   -1.9795    1.9377 C   0  0  0  0  0  0  0  0  0  0  0  0
    3.1013   -0.2166    3.2311 N   0  0  0  0  0  0  0  0  0  0  0  0
    0.1467   -0.8886    2.1086 N   0  0  0  0  0  0  0  0  0  0  0  0
    2.1891   -2.1098    2.0107 N   0  0  0  0  0  0  0  0  0  0  0  0
    4.0717   -1.0733    1.3477 O   0  0  0  0  0  0  0  0  0  0  0  0
   -0.1383   -3.4570    1.5995 S   0  0  0  0  0  0  0  0  0  0  0  0
    2.6280    0.1459    5.2171 H   0  0  0  0  0  0  0  0  0  0  0  0
    1.8162   -1.2949    4.5551 H   0  0  0  0  0  0  0  0  0  0  0  0
    1.2618    0.3214    4.0921 H   0  0  0  0  0  0  0  0  0  0  0  0
   -4.3236    0.2372    2.0213 H   0  0  0  0  0  0  0  0  0  0  0  0
   -4.9410   -2.1031    1.4895 H   0  0  0  0  0  0  0  0  0  0  0  0
   -1.9306    0.8735    2.3340 H   0  0  0  0  0  0  0  0  0  0  0  0
   -3.1907   -3.8502    1.2630 H   0  0  0  0  0  0  0  0  0  0  0  0
    2.5921   -2.8289    1.4214 H   0  0  0  0  0  0  0  0  0  0  0  0
    4.7243   -0.4189    1.6556 H   0  0  0  0  0  0  0  0  0  0  0  0
  1 16  1  0  0  0  0
  1 15  1  0  0  0  0
  2 18  1  0  0  0  0
  2  4  2  0  0  0  0
  3  2  1  0  0  0  0
  4 20  1  0  0  0  0
  5  3  2  0  0  0  0
  5  7  1  0  0  0  0
  6  4  1  0  0  0  0
  6 11  1  0  0  0  0
  7  6  2  0  0  0  0
  8 10  2  0  0  0  0
  9 12  1  0  0  0  0
  9 11  2  0  0  0  0
 10  1  1  0  0  0  0
 12  8  1  0  0  0  0
 13 23  1  0  0  0  0
 13  8  1  0  0  0  0
 14  7  1  0  0  0  0
 14  9  1  0  0  0  0
 17  1  1  0  0  0  0
 19  3  1  0  0  0  0
 21  5  1  0  0  0  0
 22 12  1  0  0  0  0
M  END
>  <HBA>
5

>  <HBD>
2

>  <TPSA>
82.26

>  <cid>
16007

>  <dipole>
1.47

>  <excitation_energy_1>
4.539

>  <excitation_energy_2>
4.693

>  <excitation_energy_3>
4.791

>  <excitation_energy_4>
4.975

>  <homo_energy>
-5.997

>  <homo_lumo_gap>
5.246

>  <logP>
2.511

>  <lumo_energy>
-0.751

>  <melting_point>
156.18

>  <molecular_refractivity>
57.12

>  <oscillator_strength_1>
0.1011

>  <oscillator_strength_2>
0.0066

>  <oscillator_strength_3>
0.2236

>  <oscillator_strength_4>
0.0056

>  <open_babel_can_smiles>
C/N=C(\Nc1nc2c(s1)cccc2)/O

>  <mulliken_charges>
23
1   -0.322509
2   -0.146336
3   -0.120786
4   -0.153842
5   -0.185931
6   0.291726
7   -0.120918
8   0.651697
9   0.31191
10   -0.430417
11   -0.497582
12   -0.6697
13   -0.602357
14   0.191276
15   0.150858
16   0.140335
17   0.179784
18   0.134267
19   0.133314
20   0.144785
21   0.143665
22   0.358103
23   0.418659

>  <lowdin_charges>
23
1   -0.355767
2   -0.158017
3   -0.159637
4   -0.159374
5   -0.159645
6   0.028461
7   -0.148712
8   0.161828
9   -0.012087
10   -0.231841
11   -0.184849
12   -0.252949
13   -0.379967
14   0.229793
15   0.150987
16   0.139001
17   0.164538
18   0.161907
19   0.159763
20   0.168999
21   0.16468
22   0.305125
23   0.367765

$$$$

