PCCDB-ID:  57772
public computational chemistry database (PCCDB) project, http://pccdb.org

 37 37  0  0  0  0  0  0  0  0999 V2000
    5.8612   -0.7026    2.3927 C   0  0  0  0  0  0  0  0  0  0  0  0
    6.4490   -7.4143   -6.3892 C   0  0  0  0  0  0  0  0  0  0  0  0
    5.6240   -0.4176   -2.7376 C   0  0  0  0  0  0  0  0  0  0  0  0
    3.4738   -4.4879   -0.5796 C   0  0  0  0  0  0  0  0  0  0  0  0
    5.5511   -0.7483    0.8920 C   0  0  0  0  0  0  0  0  0  0  0  0
    7.2240   -7.2259   -5.0932 C   0  0  0  0  0  0  0  0  0  0  0  0
    4.3251   -1.6096    0.5941 C   0  0  0  0  0  0  0  0  0  0  0  0
    6.1597   -2.7692   -3.4926 C   0  0  0  0  0  0  0  0  0  0  0  0
    5.1542   -4.7000   -2.4458 C   0  0  0  0  0  0  0  0  0  0  0  0
    5.4922   -1.9166   -2.6158 C   0  0  0  0  0  0  0  0  0  0  0  0
    4.4597   -3.8814   -1.5519 C   0  0  0  0  0  0  0  0  0  0  0  0
    6.0128   -4.1588   -3.4078 C   0  0  0  0  0  0  0  0  0  0  0  0
    4.6657   -2.4890   -1.6273 C   0  0  0  0  0  0  0  0  0  0  0  0
    6.7660   -5.0006   -4.3753 C   0  0  0  0  0  0  0  0  0  0  0  0
    7.5100   -4.5620   -5.2333 O   0  0  0  0  0  0  0  0  0  0  0  0
    6.5389   -6.3255   -4.1937 O   0  0  0  0  0  0  0  0  0  0  0  0
    3.9722   -1.6300   -0.7995 O   0  0  0  0  0  0  0  0  0  0  0  0
    6.7445   -0.0869    2.5922 H   0  0  0  0  0  0  0  0  0  0  0  0
    6.0592   -1.7051    2.7915 H   0  0  0  0  0  0  0  0  0  0  0  0
    5.0249   -0.2778    2.9613 H   0  0  0  0  0  0  0  0  0  0  0  0
    6.9491   -8.1615   -7.0164 H   0  0  0  0  0  0  0  0  0  0  0  0
    6.3997   -6.4752   -6.9470 H   0  0  0  0  0  0  0  0  0  0  0  0
    5.4303   -7.7615   -6.1872 H   0  0  0  0  0  0  0  0  0  0  0  0
    6.1951   -0.1548   -3.6329 H   0  0  0  0  0  0  0  0  0  0  0  0
    6.1344    0.0197   -1.8720 H   0  0  0  0  0  0  0  0  0  0  0  0
    4.6417    0.0626   -2.7995 H   0  0  0  0  0  0  0  0  0  0  0  0
    3.0626   -5.4173   -0.9862 H   0  0  0  0  0  0  0  0  0  0  0  0
    2.6446   -3.8020   -0.3824 H   0  0  0  0  0  0  0  0  0  0  0  0
    3.9341   -4.7358    0.3859 H   0  0  0  0  0  0  0  0  0  0  0  0
    6.4143   -1.1494    0.3457 H   0  0  0  0  0  0  0  0  0  0  0  0
    5.3725    0.2648    0.5120 H   0  0  0  0  0  0  0  0  0  0  0  0
    8.2262   -6.8357   -5.2863 H   0  0  0  0  0  0  0  0  0  0  0  0
    7.2996   -8.1614   -4.5329 H   0  0  0  0  0  0  0  0  0  0  0  0
    3.4429   -1.2057    1.1023 H   0  0  0  0  0  0  0  0  0  0  0  0
    4.4850   -2.6299    0.9627 H   0  0  0  0  0  0  0  0  0  0  0  0
    6.8098   -2.3638   -4.2617 H   0  0  0  0  0  0  0  0  0  0  0  0
    5.0072   -5.7743   -2.4084 H   0  0  0  0  0  0  0  0  0  0  0  0
  1 18  1  0  0  0  0
  1 19  1  0  0  0  0
  1 20  1  0  0  0  0
  2 23  1  0  0  0  0
  2  6  1  0  0  0  0
  3 10  1  0  0  0  0
  3 25  1  0  0  0  0
  4 28  1  0  0  0  0
  4 29  1  0  0  0  0
  5  1  1  0  0  0  0
  6 33  1  0  0  0  0
  6 16  1  0  0  0  0
  7  5  1  0  0  0  0
  7 35  1  0  0  0  0
  7 34  1  0  0  0  0
  8 12  2  0  0  0  0
  8 10  1  0  0  0  0
  9 37  1  0  0  0  0
  9 11  2  0  0  0  0
 10 13  2  0  0  0  0
 11  4  1  0  0  0  0
 12  9  1  0  0  0  0
 13 11  1  0  0  0  0
 13 17  1  0  0  0  0
 14 16  1  0  0  0  0
 14 12  1  0  0  0  0
 15 14  2  0  0  0  0
 17  7  1  0  0  0  0
 21  2  1  0  0  0  0
 22  2  1  0  0  0  0
 24  3  1  0  0  0  0
 26  3  1  0  0  0  0
 27  4  1  0  0  0  0
 30  5  1  0  0  0  0
 31  5  1  0  0  0  0
 32  6  1  0  0  0  0
 36  8  1  0  0  0  0
M  END
>  <HBA>
3

>  <HBD>
0

>  <TPSA>
35.53

>  <cid>
57772

>  <dipole>
2.8

>  <excitation_energy_1>
4.687

>  <excitation_energy_2>
4.854

>  <excitation_energy_3>
4.943

>  <excitation_energy_4>
5.658

>  <homo_energy>
-6.259

>  <homo_lumo_gap>
5.325

>  <logP>
3.269

>  <lumo_energy>
-0.933

>  <melting_point>
43.06

>  <molecular_refractivity>
68.57

>  <oscillator_strength_1>
0.0113

>  <oscillator_strength_2>
0.2859

>  <oscillator_strength_3>
0.0331

>  <oscillator_strength_4>
0.0142

>  <open_babel_can_smiles>
CCCOc1c(C)cc(cc1C)C(=O)OCC

>  <mulliken_charges>
37
1   -0.45396
2   -0.461434
3   -0.520369
4   -0.539895
5   -0.272432
6   -0.040001
7   -0.029173
8   -0.244345
9   -0.248937
10   0.145934
11   0.165344
12   0.07492
13   0.235312
14   0.593782
15   -0.499554
16   -0.481312
17   -0.536654
18   0.154289
19   0.147152
20   0.146857
21   0.147787
22   0.177929
23   0.155291
24   0.154063
25   0.161583
26   0.170858
27   0.160453
28   0.173905
29   0.161242
30   0.149826
31   0.149832
32   0.169946
33   0.148763
34   0.146585
35   0.136221
36   0.154054
37   0.146137

>  <lowdin_charges>
37
1   -0.445969
2   -0.455645
3   -0.440376
4   -0.445002
5   -0.288754
6   -0.127318
7   -0.123342
8   -0.144417
9   -0.14859
10   -0.020425
11   -0.026022
12   -0.055244
13   0.088224
14   0.200186
15   -0.280375
16   -0.198192
17   -0.228481
18   0.157332
19   0.148519
20   0.150063
21   0.158645
22   0.166267
23   0.154285
24   0.157545
25   0.161124
26   0.166086
27   0.161309
28   0.166583
29   0.157072
30   0.150357
31   0.14822
32   0.157915
33   0.150359
34   0.149251
35   0.138399
36   0.1742
37   0.166212

$$$$

