PCCDB-ID:  16134
public computational chemistry database (PCCDB) project, http://pccdb.org

 21 21  0  0  1  0  0  0  0  0999 V2000
    1.6061    1.1773   -1.3567 C   0  0  0  0  0  0  0  0  0  0  0  0
    1.9048   -0.8554    0.0589 C   0  0  0  0  0  0  0  0  0  0  0  0
    4.0557    1.4311    2.7480 C   0  0  0  0  0  0  0  0  0  0  0  0
    3.7256    3.4772    1.3525 C   0  0  0  0  0  0  0  0  0  0  0  0
    2.8889    1.2720    0.7488 C   0  0  1  0  0  0  0  0  0  0  0  0
    4.5245    0.8747    3.8030 N   0  0  0  0  0  0  0  0  0  0  0  0
    3.8108    4.7136    1.0315 N   0  0  0  0  0  0  0  0  0  0  0  0
    4.2194    2.8203    2.4618 N   0  0  0  0  0  0  0  0  0  0  0  0
    3.3560    0.6943    1.8177 N   0  0  0  0  0  0  0  0  0  0  0  0
    3.0447    2.6206    0.4885 N   0  0  0  0  0  0  0  0  0  0  0  0
    2.2146    0.5482   -0.1951 N   0  0  0  0  0  0  0  0  0  0  0  0
    1.2086    0.3930   -2.0030 H   0  0  0  0  0  0  0  0  0  0  0  0
    2.3417    1.7392   -1.9461 H   0  0  0  0  0  0  0  0  0  0  0  0
    0.7744    1.8466   -1.0909 H   0  0  0  0  0  0  0  0  0  0  0  0
    2.1634   -1.4554   -0.8207 H   0  0  0  0  0  0  0  0  0  0  0  0
    0.8369   -0.9901    0.2780 H   0  0  0  0  0  0  0  0  0  0  0  0
    2.4881   -1.1880    0.9154 H   0  0  0  0  0  0  0  0  0  0  0  0
    5.0163    1.5547    4.3886 H   0  0  0  0  0  0  0  0  0  0  0  0
    4.3267    5.2485    1.7305 H   0  0  0  0  0  0  0  0  0  0  0  0
    4.7169    3.3823    3.1386 H   0  0  0  0  0  0  0  0  0  0  0  0
    2.6565    3.0779   -0.3228 H   0  0  0  0  0  0  0  0  0  0  0  0
  1 14  1  0  0  0  0
  1 11  1  0  0  0  0
  2 16  1  0  0  0  0
  2 17  1  0  0  0  0
  3  6  1  0  0  0  0
  4  8  1  0  0  0  0
  5 11  1  6  0  0  0
  5  9  1  0  0  0  0
  6 18  1  0  0  0  0
  7  4  2  0  0  0  0
  7 19  1  0  0  0  0
  8  3  1  0  0  0  0
  8 20  1  0  0  0  0
  9  3  2  0  0  0  0
 10  5  1  0  0  0  0
 10  4  1  0  0  0  0
 11  2  1  0  0  0  0
 12  1  1  0  0  0  0
 13  1  1  0  0  0  0
 15  2  1  0  0  0  0
 21 10  1  0  0  0  0
M  RAD  2   5   2   6   2
M  END
>  <HBA>
6

>  <HBD>
2

>  <TPSA>
93.95

>  <cid>
16134

>  <dipole>
3.77

>  <excitation_energy_1>
4.965

>  <excitation_energy_2>
5.24

>  <excitation_energy_3>
5.31

>  <excitation_energy_4>
5.49

>  <homo_energy>
-5.804

>  <homo_lumo_gap>
5.962

>  <logP>
0.264

>  <lumo_energy>
0.158

>  <melting_point>
159.5

>  <molecular_refractivity>
42.84

>  <oscillator_strength_1>
0.0022

>  <oscillator_strength_2>
0.0696

>  <oscillator_strength_3>
0.1019

>  <oscillator_strength_4>
0.0011

>  <open_babel_can_smiles>
N=C1NC(=N[C](N1)N(C)C)[NH]

>  <mulliken_charges>
21
1   -0.34279
2   -0.326181
3   0.615013
4   0.694605
5   0.795675
6   -0.628822
7   -0.664463
8   -0.698246
9   -0.553008
10   -0.704913
11   -0.463897
12   0.181161
13   0.171575
14   0.170228
15   0.154878
16   0.157035
17   0.230603
18   0.256485
19   0.277591
20   0.325144
21   0.352326

>  <lowdin_charges>
21
1   -0.360708
2   -0.351458
3   0.130071
4   0.13652
5   0.158664
6   -0.432971
7   -0.471692
8   -0.286309
9   -0.251509
10   -0.247369
11   -0.101983
12   0.174379
13   0.15912
14   0.153637
15   0.152264
16   0.147729
17   0.19804
18   0.241066
19   0.25678
20   0.289959
21   0.30577

$$$$

