PCCDB-ID:  30507
public computational chemistry database (PCCDB) project, http://pccdb.org

 23 23  0  0  0  0  0  0  0  0999 V2000
    0.8032    0.0821   -0.0658 C   0  0  0  0  0  0  0  0  0  0  0  0
    2.9132   -0.3356   -1.3663 C   0  0  0  0  0  0  0  0  0  0  0  0
    3.1802   -2.3613    0.8876 C   0  0  0  0  0  0  0  0  0  0  0  0
    2.9150    1.3973    0.4328 C   0  0  0  0  0  0  0  0  0  0  0  0
    3.1391   -1.9856    2.9911 C   0  0  0  0  0  0  0  0  0  0  0  0
    2.7630   -1.0531    1.0172 C   0  0  0  0  0  0  0  0  0  0  0  0
    2.3477    0.0106    0.0242 C   0  0  0  0  0  0  0  0  0  0  0  0
    2.3796    1.8863    1.7206 N   0  0  0  0  0  0  0  0  0  0  0  0
    3.4110   -2.9351    2.1193 N   0  0  0  0  0  0  0  0  0  0  0  0
    2.7338   -0.8353    2.3828 N   0  0  0  0  0  0  0  0  0  0  0  0
    0.4854    0.8688   -0.7636 H   0  0  0  0  0  0  0  0  0  0  0  0
    0.3493    0.2794    0.9114 H   0  0  0  0  0  0  0  0  0  0  0  0
    0.4005   -0.8714   -0.4222 H   0  0  0  0  0  0  0  0  0  0  0  0
    2.6030    0.4120   -2.1057 H   0  0  0  0  0  0  0  0  0  0  0  0
    2.5466   -1.3099   -1.7057 H   0  0  0  0  0  0  0  0  0  0  0  0
    4.0079   -0.3748   -1.3521 H   0  0  0  0  0  0  0  0  0  0  0  0
    3.3291   -2.9273   -0.0223 H   0  0  0  0  0  0  0  0  0  0  0  0
    2.7275    2.1028   -0.3942 H   0  0  0  0  0  0  0  0  0  0  0  0
    4.0018    1.3112    0.5426 H   0  0  0  0  0  0  0  0  0  0  0  0
    3.2191   -2.0757    4.0667 H   0  0  0  0  0  0  0  0  0  0  0  0
    1.4247    2.2180    1.5944 H   0  0  0  0  0  0  0  0  0  0  0  0
    2.9185    2.6943    2.0272 H   0  0  0  0  0  0  0  0  0  0  0  0
    2.5428    0.0884    2.7679 H   0  0  0  0  0  0  0  0  0  0  0  0
  1  7  1  0  0  0  0
  1 12  1  0  0  0  0
  2 16  1  0  0  0  0
  2  7  1  0  0  0  0
  3  6  2  0  0  0  0
  3  9  1  0  0  0  0
  4 19  1  0  0  0  0
  4  8  1  0  0  0  0
  5 20  1  0  0  0  0
  6 10  1  0  0  0  0
  7  4  1  0  0  0  0
  7  6  1  0  0  0  0
  8 22  1  0  0  0  0
  9  5  2  0  0  0  0
 10 23  1  0  0  0  0
 10  5  1  0  0  0  0
 11  1  1  0  0  0  0
 13  1  1  0  0  0  0
 14  2  1  0  0  0  0
 15  2  1  0  0  0  0
 17  3  1  0  0  0  0
 18  4  1  0  0  0  0
 21  8  1  0  0  0  0
M  END
>  <HBA>
2

>  <HBD>
2

>  <TPSA>
54.7

>  <cid>
30507

>  <dipole>
5.67

>  <excitation_energy_1>
4.833

>  <excitation_energy_2>
5.445

>  <excitation_energy_3>
5.652

>  <excitation_energy_4>
5.665

>  <homo_energy>
-5.505

>  <homo_lumo_gap>
6.857

>  <logP>
1.346

>  <lumo_energy>
1.352

>  <melting_point>
129.13

>  <molecular_refractivity>
40.57

>  <oscillator_strength_1>
0.0012

>  <oscillator_strength_2>
0.012

>  <oscillator_strength_3>
0.0255

>  <oscillator_strength_4>
0.0238

>  <open_babel_can_smiles>
NCC(c1[nH]cnc1)(C)C

>  <mulliken_charges>
23
1   -0.450203
2   -0.455442
3   -0.094695
4   -0.149216
5   0.200665
6   0.316374
7   0.018818
8   -0.750714
9   -0.437508
10   -0.60691
11   0.13329
12   0.145626
13   0.159635
14   0.138243
15   0.155823
16   0.152842
17   0.119604
18   0.125002
19   0.153001
20   0.142193
21   0.312295
22   0.312698
23   0.358579

>  <lowdin_charges>
23
1   -0.446224
2   -0.436258
3   -0.183469
4   -0.206749
5   -0.099941
6   -0.017989
7   0.00918
8   -0.552939
9   -0.197884
10   -0.191112
11   0.143841
12   0.149334
13   0.159971
14   0.148379
15   0.15647
16   0.152695
17   0.154989
18   0.129091
19   0.149011
20   0.158154
21   0.259896
22   0.264809
23   0.296745

$$$$

