PCCDB-ID:  67974
public computational chemistry database (PCCDB) project, http://pccdb.org

 28 30  0  0  0  0  0  0  0  0999 V2000
   -3.2254   -1.2679    0.7788 C   0  0  0  0  0  0  0  0  0  0  0  0
   -3.5842    0.0726    0.9145 C   0  0  0  0  0  0  0  0  0  0  0  0
    3.4382   -1.1364    0.4609 C   0  0  0  0  0  0  0  0  0  0  0  0
    3.6217    0.1768    0.8953 C   0  0  0  0  0  0  0  0  0  0  0  0
   -2.0641   -1.6113    0.0823 C   0  0  0  0  0  0  0  0  0  0  0  0
    2.2734   -1.4519   -0.2346 C   0  0  0  0  0  0  0  0  0  0  0  0
   -2.7762    1.0634    0.3523 C   0  0  0  0  0  0  0  0  0  0  0  0
    2.6605    1.1397    0.6169 C   0  0  0  0  0  0  0  0  0  0  0  0
    0.0180   -0.9734   -1.2382 C   0  0  0  0  0  0  0  0  0  0  0  0
   -0.7159    1.7750   -0.9639 C   0  0  0  0  0  0  0  0  0  0  0  0
   -1.2533   -0.6272   -0.4885 C   0  0  0  0  0  0  0  0  0  0  0  0
    1.2823   -0.5050   -0.5235 C   0  0  0  0  0  0  0  0  0  0  0  0
   -1.6160    0.7259   -0.3480 C   0  0  0  0  0  0  0  0  0  0  0  0
    1.4846    0.8308   -0.0969 C   0  0  0  0  0  0  0  0  0  0  0  0
    0.6117    1.8962   -0.3552 N   0  0  0  0  0  0  0  0  0  0  0  0
   -3.8460   -2.0469    1.2138 H   0  0  0  0  0  0  0  0  0  0  0  0
   -4.4864    0.3472    1.4544 H   0  0  0  0  0  0  0  0  0  0  0  0
    4.1802   -1.9019    0.6679 H   0  0  0  0  0  0  0  0  0  0  0  0
    4.5143    0.4559    1.4492 H   0  0  0  0  0  0  0  0  0  0  0  0
   -1.7850   -2.6575   -0.0205 H   0  0  0  0  0  0  0  0  0  0  0  0
    2.1103   -2.4770   -0.5613 H   0  0  0  0  0  0  0  0  0  0  0  0
   -3.0532    2.1109    0.4551 H   0  0  0  0  0  0  0  0  0  0  0  0
    2.8149    2.1676    0.9399 H   0  0  0  0  0  0  0  0  0  0  0  0
   -0.0257   -0.5577   -2.2557 H   0  0  0  0  0  0  0  0  0  0  0  0
    0.0778   -2.0593   -1.3649 H   0  0  0  0  0  0  0  0  0  0  0  0
   -1.1808    2.7628   -0.8893 H   0  0  0  0  0  0  0  0  0  0  0  0
   -0.5904    1.5790   -2.0370 H   0  0  0  0  0  0  0  0  0  0  0  0
    0.6540    2.6081    0.3618 H   0  0  0  0  0  0  0  0  0  0  0  0
  1  2  1  0  0  0  0
  1 16  1  0  0  0  0
  2 17  1  0  0  0  0
  3 18  1  0  0  0  0
  3  4  2  0  0  0  0
  4 19  1  0  0  0  0
  5  1  2  0  0  0  0
  6  3  1  0  0  0  0
  7 22  1  0  0  0  0
  7  2  2  0  0  0  0
  8  4  1  0  0  0  0
  8 23  1  0  0  0  0
  9 12  1  0  0  0  0
  9 11  1  0  0  0  0
 10 26  1  0  0  0  0
 10 15  1  0  0  0  0
 10 13  1  0  0  0  0
 11 13  2  0  0  0  0
 11  5  1  0  0  0  0
 12  6  2  0  0  0  0
 12 14  1  0  0  0  0
 13  7  1  0  0  0  0
 14  8  2  0  0  0  0
 15 14  1  0  0  0  0
 15 28  1  0  0  0  0
 20  5  1  0  0  0  0
 21  6  1  0  0  0  0
 24  9  1  0  0  0  0
 25  9  1  0  0  0  0
 27 10  1  0  0  0  0
M  END
>  <HBA>
1

>  <HBD>
1

>  <TPSA>
12.03

>  <cid>
67974

>  <dipole>
1.44

>  <excitation_energy_1>
4.149

>  <excitation_energy_2>
4.241

>  <excitation_energy_3>
4.529

>  <excitation_energy_4>
4.635

>  <homo_energy>
-5.083

>  <homo_lumo_gap>
4.993

>  <logP>
3.341

>  <lumo_energy>
-0.09

>  <melting_point>
101.18

>  <molecular_refractivity>
66.18

>  <oscillator_strength_1>
0.0442

>  <oscillator_strength_2>
0.0018

>  <oscillator_strength_3>
0.0094

>  <oscillator_strength_4>
0.0134

>  <open_babel_can_smiles>
c1ccc2c(c1)Cc1ccccc1CN2

>  <mulliken_charges>
28
1   -0.1261
2   -0.12837
3   -0.134137
4   -0.134106
5   -0.187396
6   -0.201166
7   -0.190727
8   -0.191297
9   -0.457257
10   -0.235923
11   0.142555
12   0.154782
13   0.132848
14   0.302121
15   -0.654851
16   0.128404
17   0.127492
18   0.118772
19   0.122594
20   0.124817
21   0.116353
22   0.120348
23   0.113346
24   0.159977
25   0.150736
26   0.14904
27   0.161905
28   0.31524

>  <lowdin_charges>
28
1   -0.157156
2   -0.159959
3   -0.189044
4   -0.150886
5   -0.162639
6   -0.157192
7   -0.164221
8   -0.195164
9   -0.270701
10   -0.194499
11   -0.001054
12   -0.040628
13   -0.028102
14   0.054438
15   -0.304536
16   0.158886
17   0.157238
18   0.155235
19   0.1554
20   0.154096
21   0.15011
22   0.151251
23   0.148995
24   0.155254
25   0.154397
26   0.155201
27   0.150228
28   0.275052

$$$$

