PCCDB-ID:  41421
public computational chemistry database (PCCDB) project, http://pccdb.org

 31 33  0  0  0  0  0  0  0  0999 V2000
    2.0976   -4.4966    3.2477 C   0  0  0  0  0  0  0  0  0  0  0  0
    2.8266   -3.8685    4.2780 C   0  0  0  0  0  0  0  0  0  0  0  0
    1.0862   -3.8247    2.5722 C   0  0  0  0  0  0  0  0  0  0  0  0
    2.5531   -2.5590    4.6561 C   0  0  0  0  0  0  0  0  0  0  0  0
    1.1304    1.1009    0.3398 C   0  0  0  0  0  0  0  0  0  0  0  0
    1.5108    1.0564   -1.1293 C   0  0  0  0  0  0  0  0  0  0  0  0
   -1.2013   -1.7104    1.3773 C   0  0  0  0  0  0  0  0  0  0  0  0
   -0.6657   -1.9534   -0.0625 C   0  0  0  0  0  0  0  0  0  0  0  0
    0.0118   -0.4043    3.2316 C   0  0  0  0  0  0  0  0  0  0  0  0
   -0.1752   -1.5221    2.4587 C   0  0  0  0  0  0  0  0  0  0  0  0
    1.0513   -0.1959   -0.4364 C   0  0  0  0  0  0  0  0  0  0  0  0
    0.7883   -2.4952    2.9236 C   0  0  0  0  0  0  0  0  0  0  0  0
    1.5332   -1.8878    3.9737 C   0  0  0  0  0  0  0  0  0  0  0  0
   -0.1809   -0.8233   -0.8489 N   0  0  0  0  0  0  0  0  0  0  0  0
    1.0377   -0.6113    4.1373 N   0  0  0  0  0  0  0  0  0  0  0  0
    2.3327   -5.5232    2.9803 H   0  0  0  0  0  0  0  0  0  0  0  0
    3.6126   -4.4181    4.7887 H   0  0  0  0  0  0  0  0  0  0  0  0
    0.5288   -4.3264    1.7855 H   0  0  0  0  0  0  0  0  0  0  0  0
    3.1111   -2.0760    5.4544 H   0  0  0  0  0  0  0  0  0  0  0  0
    0.1940    1.5923    0.5961 H   0  0  0  0  0  0  0  0  0  0  0  0
    1.9126    1.2238    1.0851 H   0  0  0  0  0  0  0  0  0  0  0  0
    2.5575    1.1513   -1.4068 H   0  0  0  0  0  0  0  0  0  0  0  0
    0.8264    1.5128   -1.8419 H   0  0  0  0  0  0  0  0  0  0  0  0
   -1.8285   -2.5795    1.6301 H   0  0  0  0  0  0  0  0  0  0  0  0
   -1.8813   -0.8474    1.3595 H   0  0  0  0  0  0  0  0  0  0  0  0
   -1.4793   -2.4080   -0.6430 H   0  0  0  0  0  0  0  0  0  0  0  0
    0.1404   -2.6963   -0.0277 H   0  0  0  0  0  0  0  0  0  0  0  0
   -0.5122    0.5416    3.2065 H   0  0  0  0  0  0  0  0  0  0  0  0
    1.8168   -0.9367   -0.2149 H   0  0  0  0  0  0  0  0  0  0  0  0
   -0.9151   -0.1276   -0.9660 H   0  0  0  0  0  0  0  0  0  0  0  0
    1.3548    0.0563    4.8222 H   0  0  0  0  0  0  0  0  0  0  0  0
  1  2  2  0  0  0  0
  2  4  1  0  0  0  0
  2 17  1  0  0  0  0
  3 12  2  0  0  0  0
  3  1  1  0  0  0  0
  4 19  1  0  0  0  0
  5 20  1  0  0  0  0
  5 21  1  0  0  0  0
  6 11  1  0  0  0  0
  6  5  1  0  0  0  0
  7 24  1  0  0  0  0
  7 10  1  0  0  0  0
  8 27  1  0  0  0  0
  8  7  1  0  0  0  0
  9 15  1  0  0  0  0
 10 12  1  0  0  0  0
 10  9  2  0  0  0  0
 11 29  1  0  0  0  0
 11  5  1  0  0  0  0
 12 13  1  0  0  0  0
 13 15  1  0  0  0  0
 13  4  2  0  0  0  0
 14 11  1  0  0  0  0
 14  8  1  0  0  0  0
 15 31  1  0  0  0  0
 16  1  1  0  0  0  0
 18  3  1  0  0  0  0
 22  6  1  0  0  0  0
 23  6  1  0  0  0  0
 25  7  1  0  0  0  0
 26  8  1  0  0  0  0
 28  9  1  0  0  0  0
 30 14  1  0  0  0  0
M  END
>  <HBA>
1

>  <HBD>
2

>  <TPSA>
27.82

>  <cid>
41421

>  <dipole>
2.68

>  <excitation_energy_1>
4.201

>  <excitation_energy_2>
4.451

>  <excitation_energy_3>
4.71

>  <excitation_energy_4>
4.784

>  <homo_energy>
-4.991

>  <homo_lumo_gap>
4.912

>  <logP>
2.853

>  <lumo_energy>
-0.079

>  <melting_point>
146.86

>  <molecular_refractivity>
63.18

>  <oscillator_strength_1>
0.0291

>  <oscillator_strength_2>
0.0012

>  <oscillator_strength_3>
0.0074

>  <oscillator_strength_4>
0.0231

>  <open_babel_can_smiles>
C(Cc1c[nH]c2c1cccc2)NC1CC1

>  <mulliken_charges>
31
1   -0.140331
2   -0.151892
3   -0.214049
4   -0.16325
5   -0.315576
6   -0.335124
7   -0.346115
8   -0.14087
9   -0.001745
10   0.09656
11   0.06411
12   0.071413
13   0.313226
14   -0.544912
15   -0.693043
16   0.119136
17   0.12133
18   0.124588
19   0.118782
20   0.130842
21   0.144875
22   0.150204
23   0.144992
24   0.13971
25   0.125748
26   0.133769
27   0.149585
28   0.142554
29   0.14788
30   0.283035
31   0.324568

>  <lowdin_charges>
31
1   -0.176513
2   -0.166293
3   -0.167645
4   -0.189758
5   -0.339626
6   -0.325985
7   -0.287545
8   -0.2052
9   -0.13321
10   -0.059215
11   -0.083363
12   -0.037117
13   0.032278
14   -0.341962
15   -0.204891
16   0.152907
17   0.15603
18   0.155925
19   0.155145
20   0.147873
21   0.157114
22   0.157532
23   0.156489
24   0.151083
25   0.144023
26   0.143617
27   0.148026
28   0.16157
29   0.157044
30   0.250463
31   0.291202

$$$$

