PCCDB-ID:  8066
public computational chemistry database (PCCDB) project, http://pccdb.org

 12 11  0  0  0  0  0  0  0  0999 V2000
    0.9588   -0.0822   -0.0692 C   0  0  0  0  0  0  0  0  0  0  0  0
   -0.2483    0.0138   -0.0477 C   0  0  0  0  0  0  0  0  0  0  0  0
    2.4225   -0.1800   -0.1173 C   0  0  0  0  0  0  0  0  0  0  0  0
   -1.7118    0.1241   -0.0460 C   0  0  0  0  0  0  0  0  0  0  0  0
    3.0603    0.9925   -0.6156 O   0  0  0  0  0  0  0  0  0  0  0  0
   -2.3518   -0.7046   -1.0119 O   0  0  0  0  0  0  0  0  0  0  0  0
    2.7085   -1.0710   -0.6999 H   0  0  0  0  0  0  0  0  0  0  0  0
    2.8208   -0.3209    0.8934 H   0  0  0  0  0  0  0  0  0  0  0  0
   -1.9947    1.1817   -0.1759 H   0  0  0  0  0  0  0  0  0  0  0  0
   -2.1110   -0.1941    0.9232 H   0  0  0  0  0  0  0  0  0  0  0  0
    2.6856    1.1741   -1.4917 H   0  0  0  0  0  0  0  0  0  0  0  0
   -1.9660   -0.4913   -1.8760 H   0  0  0  0  0  0  0  0  0  0  0  0
  1  2  3  0  0  0  0
  2  4  1  0  0  0  0
  3  1  1  0  0  0  0
  3  8  1  0  0  0  0
  4 10  1  0  0  0  0
  5  3  1  0  0  0  0
  6  4  1  0  0  0  0
  7  3  1  0  0  0  0
  9  4  1  0  0  0  0
 11  5  1  0  0  0  0
 12  6  1  0  0  0  0
M  END
>  <HBA>
2

>  <HBD>
2

>  <TPSA>
40.46

>  <cid>
8066

>  <dipole>
1.3

>  <excitation_energy_1>
6.007

>  <excitation_energy_2>
6.158

>  <excitation_energy_3>
6.275

>  <excitation_energy_4>
6.599

>  <homo_energy>
-7.108

>  <homo_lumo_gap>
7.766

>  <logP>
-1.026

>  <lumo_energy>
0.659

>  <melting_point>
29.35

>  <molecular_refractivity>
21.83

>  <oscillator_strength_1>
0.0091

>  <oscillator_strength_2>
0.0022

>  <oscillator_strength_3>
0.0083

>  <oscillator_strength_4>
0.1455

>  <open_babel_can_smiles>
OCC#CCO

>  <mulliken_charges>
12
1   0.025216
2   0.024622
3   -0.160814
4   -0.159361
5   -0.597535
6   -0.598032
7   0.157932
8   0.183697
9   0.157811
10   0.183594
11   0.391431
12   0.39144

>  <lowdin_charges>
12
1   -0.094372
2   -0.094527
3   -0.11678
4   -0.115452
5   -0.455401
6   -0.455741
7   0.151523
8   0.171006
9   0.149297
10   0.17148
11   0.344191
12   0.344776

$$$$

