PCCDB-ID:  26001
public computational chemistry database (PCCDB) project, http://pccdb.org

 13 12  0  0  0  0  0  0  0  0999 V2000
    2.0048   -0.1567   -0.1169 C   0  0  0  0  0  0  0  0  0  0  0  0
    0.8054    0.5553   -0.7217 C   0  0  0  0  0  0  0  0  0  0  0  0
    2.0964    0.1239    1.3151 N   0  0  0  0  0  0  0  0  0  0  0  0
   -1.5906    0.4742   -0.5318 N   0  0  0  0  0  0  0  0  0  0  0  0
   -2.5377   -0.0676   -0.0148 O   0  0  0  0  0  0  0  0  0  0  0  0
   -1.5592    1.4003   -1.3173 O   0  0  0  0  0  0  0  0  0  0  0  0
   -0.3563   -0.0905   -0.1396 O   0  0  0  0  0  0  0  0  0  0  0  0
    2.8968    0.2502   -0.6086 H   0  0  0  0  0  0  0  0  0  0  0  0
    1.9502   -1.2273   -0.3810 H   0  0  0  0  0  0  0  0  0  0  0  0
    0.7722    0.4463   -1.8097 H   0  0  0  0  0  0  0  0  0  0  0  0
    0.8039    1.6143   -0.4536 H   0  0  0  0  0  0  0  0  0  0  0  0
    1.3097   -0.3087    1.7960 H   0  0  0  0  0  0  0  0  0  0  0  0
    2.9380   -0.3014    1.6981 H   0  0  0  0  0  0  0  0  0  0  0  0
  1  3  1  0  0  0  0
  2 11  1  0  0  0  0
  2  7  1  0  0  0  0
  2  1  1  0  0  0  0
  3 13  1  0  0  0  0
  3 12  1  0  0  0  0
  4  7  1  0  0  0  0
  4  5  2  0  0  0  0
  6  4  2  0  0  0  0
  8  1  1  0  0  0  0
  9  1  1  0  0  0  0
 10  2  1  0  0  0  0
M  END
>  <HBA>
1

>  <HBD>
1

>  <TPSA>
81.07

>  <cid>
26001

>  <dipole>
3.61

>  <excitation_energy_1>
4.304

>  <excitation_energy_2>
4.721

>  <excitation_energy_3>
5.652

>  <excitation_energy_4>
5.888

>  <homo_energy>
-6.83

>  <homo_lumo_gap>
5.113

>  <logP>
0.377

>  <lumo_energy>
-1.717

>  <melting_point>
54.5

>  <molecular_refractivity>
23.63

>  <oscillator_strength_1>
0.0005

>  <oscillator_strength_2>
0.0

>  <oscillator_strength_3>
0.0004

>  <oscillator_strength_4>
0.0099

>  <open_babel_can_smiles>
NCCON(=O)=O

>  <mulliken_charges>
13
1   -0.163228
2   -0.027949
3   -0.717136
4   0.754023
5   -0.357282
6   -0.368292
7   -0.390284
8   0.159176
9   0.140515
10   0.1661
11   0.184346
12   0.314718
13   0.305293

>  <lowdin_charges>
13
1   -0.207677
2   -0.136934
3   -0.558565
4   0.377213
5   -0.199363
6   -0.21856
7   -0.19102
8   0.15879
9   0.131385
10   0.155245
11   0.16402
12   0.263881
13   0.261586

$$$$

