PCCDB-ID:  11418
public computational chemistry database (PCCDB) project, http://pccdb.org

 22 22  0  0  1  0  0  0  0  0999 V2000
    0.8275    0.0634   -0.0732 C   0  0  0  0  0  0  0  0  0  0  0  0
    4.4755    1.3385    0.5934 C   0  0  0  0  0  0  0  0  0  0  0  0
    5.0395    0.0725    1.2565 C   0  0  0  0  0  0  0  0  0  0  0  0
    2.9382    1.3346    0.5879 C   0  0  0  0  0  0  0  0  0  0  0  0
    4.4667   -1.2000    0.6109 C   0  0  0  0  0  0  0  0  0  0  0  0
    2.3597    0.0616   -0.0633 C   0  0  1  0  0  0  0  0  0  0  0  0
    2.9284   -1.2088    0.6128 C   0  0  2  0  0  0  0  0  0  0  0  0
    2.4065   -1.4008    1.9332 O   0  0  0  0  0  0  0  0  0  0  0  0
    0.4368    0.9565   -0.5751 H   0  0  0  0  0  0  0  0  0  0  0  0
    0.4335    0.0399    0.9478 H   0  0  0  0  0  0  0  0  0  0  0  0
    0.4352   -0.8167   -0.5969 H   0  0  0  0  0  0  0  0  0  0  0  0
    4.8376    1.3925   -0.4439 H   0  0  0  0  0  0  0  0  0  0  0  0
    4.8517    2.2355    1.1015 H   0  0  0  0  0  0  0  0  0  0  0  0
    4.7985    0.0844    2.3309 H   0  0  0  0  0  0  0  0  0  0  0  0
    6.1348    0.0627    1.1991 H   0  0  0  0  0  0  0  0  0  0  0  0
    2.5576    2.2201    0.0628 H   0  0  0  0  0  0  0  0  0  0  0  0
    2.5660    1.4199    1.6215 H   0  0  0  0  0  0  0  0  0  0  0  0
    4.8287   -2.0960    1.1287 H   0  0  0  0  0  0  0  0  0  0  0  0
    4.8169   -1.2644   -0.4293 H   0  0  0  0  0  0  0  0  0  0  0  0
    2.7134    0.0396   -1.1063 H   0  0  0  0  0  0  0  0  0  0  0  0
    2.5727   -2.0886    0.0634 H   0  0  0  0  0  0  0  0  0  0  0  0
    2.7122   -0.6639    2.4845 H   0  0  0  0  0  0  0  0  0  0  0  0
  1  6  1  0  0  0  0
  1 10  1  0  0  0  0
  2 13  1  0  0  0  0
  2  3  1  0  0  0  0
  3 14  1  0  0  0  0
  4  2  1  0  0  0  0
  4 17  1  0  0  0  0
  5  7  1  0  0  0  0
  5 18  1  0  0  0  0
  5  3  1  0  0  0  0
  6 20  1  6  0  0  0
  6  4  1  0  0  0  0
  6  7  1  0  0  0  0
  7 21  1  6  0  0  0
  7  8  1  0  0  0  0
  8 22  1  0  0  0  0
  9  1  1  0  0  0  0
 11  1  1  0  0  0  0
 12  2  1  0  0  0  0
 15  3  1  0  0  0  0
 16  4  1  0  0  0  0
 19  5  1  0  0  0  0
M  END
>  <HBA>
1

>  <HBD>
1

>  <TPSA>
20.23

>  <cid>
11418

>  <dipole>
1.75

>  <excitation_energy_1>
6.326

>  <excitation_energy_2>
6.722

>  <excitation_energy_3>
7.094

>  <excitation_energy_4>
7.21

>  <homo_energy>
-6.947

>  <homo_lumo_gap>
8.607

>  <logP>
1.557

>  <lumo_energy>
1.66

>  <melting_point>
13.97

>  <molecular_refractivity>
34.81

>  <oscillator_strength_1>
0.0037

>  <oscillator_strength_2>
0.0006

>  <oscillator_strength_3>
0.0087

>  <oscillator_strength_4>
0.006

>  <open_babel_can_smiles>
C[C@H]1CCCC[C@H]1O

>  <mulliken_charges>
22
1   -0.441699
2   -0.25729
3   -0.276412
4   -0.274327
5   -0.27252
6   -0.087192
7   0.137024
8   -0.634582
9   0.134586
10   0.153511
11   0.139287
12   0.131088
13   0.132496
14   0.119561
15   0.138725
16   0.135715
17   0.116391
18   0.143093
19   0.127841
20   0.11655
21   0.128177
22   0.389978

>  <lowdin_charges>
22
1   -0.445047
2   -0.278419
3   -0.278658
4   -0.28294
5   -0.29477
6   -0.142377
7   -0.004206
8   -0.468455
9   0.146262
10   0.152814
11   0.149656
12   0.13851
13   0.144885
14   0.1298
15   0.146268
16   0.147449
17   0.129945
18   0.151259
19   0.141817
20   0.136234
21   0.143376
22   0.336599

$$$$

