PCCDB-ID:  29757
public computational chemistry database (PCCDB) project, http://pccdb.org

 20 21  0  0  0  0  0  0  0  0999 V2000
    0.6692    1.5090   -0.1616 C   0  0  0  0  0  0  0  0  0  0  0  0
    1.9855    1.0313   -0.1636 C   0  0  0  0  0  0  0  0  0  0  0  0
   -1.8769    0.8433    0.0862 C   0  0  0  0  0  0  0  0  0  0  0  0
   -2.4365   -0.5896   -0.0960 C   0  0  0  0  0  0  0  0  0  0  0  0
    1.1636   -1.2585    0.1874 C   0  0  0  0  0  0  0  0  0  0  0  0
   -0.3821    0.6198    0.0042 C   0  0  0  0  0  0  0  0  0  0  0  0
    2.1983   -0.3343    0.0113 C   0  0  0  0  0  0  0  0  0  0  0  0
   -0.1349   -0.7571    0.1823 C   0  0  0  0  0  0  0  0  0  0  0  0
   -1.3314   -1.4474    0.3725 N   0  0  0  0  0  0  0  0  0  0  0  0
    3.5811   -0.8376    0.0016 N   0  0  0  0  0  0  0  0  0  0  0  0
    4.4910   -0.0230   -0.1572 O   0  0  0  0  0  0  0  0  0  0  0  0
    3.7522   -2.0484    0.1530 O   0  0  0  0  0  0  0  0  0  0  0  0
    0.4805    2.5702   -0.3002 H   0  0  0  0  0  0  0  0  0  0  0  0
    2.8325    1.6906   -0.2999 H   0  0  0  0  0  0  0  0  0  0  0  0
   -2.1475    1.2407    1.0741 H   0  0  0  0  0  0  0  0  0  0  0  0
   -2.2630    1.5399   -0.6641 H   0  0  0  0  0  0  0  0  0  0  0  0
   -2.6660   -0.7768   -1.1568 H   0  0  0  0  0  0  0  0  0  0  0  0
   -3.3433   -0.7709    0.4879 H   0  0  0  0  0  0  0  0  0  0  0  0
    1.3915   -2.3090    0.3177 H   0  0  0  0  0  0  0  0  0  0  0  0
   -1.3550   -2.4183    0.0844 H   0  0  0  0  0  0  0  0  0  0  0  0
  1  6  1  0  0  0  0
  2  1  2  0  0  0  0
  2  7  1  0  0  0  0
  3 15  1  0  0  0  0
  4  3  1  0  0  0  0
  4  9  1  0  0  0  0
  4 18  1  0  0  0  0
  5 19  1  0  0  0  0
  6  3  1  0  0  0  0
  6  8  2  0  0  0  0
  7  5  2  0  0  0  0
  8  5  1  0  0  0  0
  8  9  1  0  0  0  0
 10  7  1  0  0  0  0
 10 12  2  0  0  0  0
 11 10  2  0  0  0  0
 13  1  1  0  0  0  0
 14  2  1  0  0  0  0
 16  3  1  0  0  0  0
 17  4  1  0  0  0  0
 20  9  1  0  0  0  0
M  END
>  <HBA>
1

>  <HBD>
1

>  <TPSA>
57.85

>  <cid>
29757

>  <dipole>
6.24

>  <excitation_energy_1>
2.966

>  <excitation_energy_2>
3.736

>  <excitation_energy_3>
4.285

>  <excitation_energy_4>
4.387

>  <homo_energy>
-5.834

>  <homo_lumo_gap>
3.684

>  <logP>
2.224

>  <lumo_energy>
-2.15

>  <melting_point>
105.08

>  <molecular_refractivity>
50.36

>  <oscillator_strength_1>
0.0385

>  <oscillator_strength_2>
0.0

>  <oscillator_strength_3>
0.0006

>  <oscillator_strength_4>
0.0962

>  <open_babel_can_smiles>
O=N(=O)c1ccc2c(c1)NCC2

>  <mulliken_charges>
20
1   -0.217118
2   -0.166716
3   -0.352838
4   -0.133958
5   -0.221047
6   0.132054
7   0.268147
8   0.315655
9   -0.653131
10   0.377832
11   -0.400691
12   -0.398711
13   0.140121
14   0.174719
15   0.174083
16   0.163482
17   0.146395
18   0.158179
19   0.172781
20   0.320764

>  <lowdin_charges>
20
1   -0.150327
2   -0.16557
3   -0.278415
4   -0.188651
5   -0.186335
6   -0.017821
7   0.009952
8   0.051221
9   -0.30228
10   0.308041
11   -0.251883
12   -0.252425
13   0.162895
14   0.18592
15   0.163671
16   0.163713
17   0.135367
18   0.153765
19   0.183403
20   0.27576

$$$$

