PCCDB-ID:  66346
public computational chemistry database (PCCDB) project, http://pccdb.org

 25 25  0  0  0  0  0  0  0  0999 V2000
    1.2358   -0.2962   -1.2702 C   0  0  0  0  0  0  0  0  0  0  0  0
    4.9251    3.2207   -2.4317 C   0  0  0  0  0  0  0  0  0  0  0  0
    7.0720   -0.8624   -0.3465 C   0  0  0  0  0  0  0  0  0  0  0  0
    5.6887   -0.9997   -0.2371 C   0  0  0  0  0  0  0  0  0  0  0  0
    6.7546    1.2603   -1.4822 C   0  0  0  0  0  0  0  0  0  0  0  0
    2.6893   -0.3371   -1.6652 C   0  0  0  0  0  0  0  0  0  0  0  0
    7.6062    0.2567   -0.9868 C   0  0  0  0  0  0  0  0  0  0  0  0
    4.8483   -0.0173   -0.7391 C   0  0  0  0  0  0  0  0  0  0  0  0
    5.3699    1.1395   -1.3519 C   0  0  0  0  0  0  0  0  0  0  0  0
    9.0975    0.3593   -1.0941 C   0  0  0  0  0  0  0  0  0  0  0  0
    3.1315   -0.5151   -2.7697 O   0  0  0  0  0  0  0  0  0  0  0  0
    9.8621   -0.1945   -0.3411 O   0  0  0  0  0  0  0  0  0  0  0  0
    9.5809    1.1304   -2.1100 O   0  0  0  0  0  0  0  0  0  0  0  0
    4.4593    2.0620   -1.7539 O   0  0  0  0  0  0  0  0  0  0  0  0
    3.4789   -0.1374   -0.5509 O   0  0  0  0  0  0  0  0  0  0  0  0
    0.6214   -0.5992   -2.1186 H   0  0  0  0  0  0  0  0  0  0  0  0
    0.9700    0.7228   -0.9686 H   0  0  0  0  0  0  0  0  0  0  0  0
    1.0511   -0.9514   -0.4138 H   0  0  0  0  0  0  0  0  0  0  0  0
    4.0336    3.7995   -2.6767 H   0  0  0  0  0  0  0  0  0  0  0  0
    5.4527    2.9561   -3.3569 H   0  0  0  0  0  0  0  0  0  0  0  0
    5.5842    3.8221   -1.7923 H   0  0  0  0  0  0  0  0  0  0  0  0
    7.7446   -1.6153    0.0483 H   0  0  0  0  0  0  0  0  0  0  0  0
    5.2444   -1.8676    0.2394 H   0  0  0  0  0  0  0  0  0  0  0  0
    7.1714    2.1634   -1.9147 H   0  0  0  0  0  0  0  0  0  0  0  0
    8.8645    1.3396   -2.7312 H   0  0  0  0  0  0  0  0  0  0  0  0
  1 17  1  0  0  0  0
  1 18  1  0  0  0  0
  2 21  1  0  0  0  0
  2 14  1  0  0  0  0
  3  4  1  0  0  0  0
  3 22  1  0  0  0  0
  4 23  1  0  0  0  0
  5  9  2  0  0  0  0
  5  7  1  0  0  0  0
  6  1  1  0  0  0  0
  6 15  1  0  0  0  0
  7  3  2  0  0  0  0
  8 15  1  0  0  0  0
  8  4  2  0  0  0  0
  9  8  1  0  0  0  0
 10  7  1  0  0  0  0
 10 12  2  0  0  0  0
 11  6  2  0  0  0  0
 13 10  1  0  0  0  0
 14  9  1  0  0  0  0
 16  1  1  0  0  0  0
 19  2  1  0  0  0  0
 20  2  1  0  0  0  0
 24  5  1  0  0  0  0
 25 13  1  0  0  0  0
M  END
>  <HBA>
5

>  <HBD>
1

>  <TPSA>
72.83

>  <cid>
66346

>  <dipole>
5.24

>  <excitation_energy_1>
4.477

>  <excitation_energy_2>
4.783

>  <excitation_energy_3>
5.193

>  <excitation_energy_4>
5.518

>  <homo_energy>
-6.487

>  <homo_lumo_gap>
5.127

>  <logP>
1.319

>  <lumo_energy>
-1.361

>  <melting_point>
127.59

>  <molecular_refractivity>
51.39

>  <oscillator_strength_1>
0.1043

>  <oscillator_strength_2>
0.0029

>  <oscillator_strength_3>
0.087

>  <oscillator_strength_4>
0.0097

>  <open_babel_can_smiles>
COc1cc(ccc1OC(=O)C)C(=O)O

>  <mulliken_charges>
25
1   -0.528392
2   -0.219806
3   -0.170884
4   -0.167757
5   -0.286043
6   0.606554
7   0.061635
8   0.32957
9   0.384239
10   0.54603
11   -0.44116
12   -0.443363
13   -0.574686
14   -0.509197
15   -0.522646
16   0.186417
17   0.191458
18   0.185442
19   0.180317
20   0.158229
21   0.159606
22   0.169759
23   0.152964
24   0.141982
25   0.409733

>  <lowdin_charges>
25
1   -0.462945
2   -0.277199
3   -0.142076
4   -0.154833
5   -0.218486
6   0.214635
7   -0.051686
8   0.09225
9   0.093913
10   0.197274
11   -0.234578
12   -0.237991
13   -0.361059
14   -0.184318
15   -0.165771
16   0.178919
17   0.183072
18   0.1802
19   0.169908
20   0.149492
21   0.150628
22   0.182957
23   0.175533
24   0.164417
25   0.357743

$$$$

