PCCDB-ID:  35931
public computational chemistry database (PCCDB) project, http://pccdb.org

 12 12  0  0  1  0  0  0  0  0999 V2000
    1.3082    0.1747   -0.5042 C   0  0  0  0  0  0  0  0  0  0  0  0
    2.6639    0.1571   -1.0926 C   0  0  1  0  0  0  0  0  0  0  0  0
    4.0399    0.6444   -1.0518 C   0  0  2  0  0  0  0  0  0  0  0  0
    4.4153    1.9874   -1.6084 C   0  0  0  0  0  0  0  0  0  0  0  0
    3.3425   -0.3591   -2.0172 N   0  0  0  0  0  0  0  0  0  0  0  0
    5.1002    2.7759   -1.0036 O   0  0  0  0  0  0  0  0  0  0  0  0
    3.9158    2.2665   -2.8374 O   0  0  0  0  0  0  0  0  0  0  0  0
    1.3527   -0.1588    0.5389 H   0  0  0  0  0  0  0  0  0  0  0  0
    0.6336   -0.4763   -1.0672 H   0  0  0  0  0  0  0  0  0  0  0  0
    0.9164    1.1982   -0.5013 H   0  0  0  0  0  0  0  0  0  0  0  0
    4.7458    0.2433   -0.3278 H   0  0  0  0  0  0  0  0  0  0  0  0
    3.5138    1.4572   -3.2064 H   0  0  0  0  0  0  0  0  0  0  0  0
  1 10  1  0  0  0  0
  1  8  1  0  0  0  0
  2  3  1  0  0  0  0
  2  1  1  1  0  0  0
  3 11  1  1  0  0  0
  4  3  1  0  0  0  0
  4  6  2  0  0  0  0
  5  2  1  0  0  0  0
  5  3  1  0  0  0  0
  7  4  1  0  0  0  0
  9  1  1  0  0  0  0
 12  7  1  0  0  0  0
M  RAD  2   2   2   5   2
M  END
>  <HBA>
3

>  <HBD>
1

>  <TPSA>
49.66

>  <cid>
35931

>  <dipole>
5.01

>  <excitation_energy_1>
5.15

>  <excitation_energy_2>
5.345

>  <excitation_energy_3>
5.758

>  <excitation_energy_4>
6.635

>  <homo_energy>
-7.271

>  <homo_lumo_gap>
6.147

>  <logP>
-0.65

>  <lumo_energy>
-1.124

>  <melting_point>
92.37

>  <molecular_refractivity>
28.01

>  <oscillator_strength_1>
0.0026

>  <oscillator_strength_2>
0.0015

>  <oscillator_strength_3>
0.004

>  <oscillator_strength_4>
0.0073

>  <open_babel_can_smiles>
C[C]1[N][C@H]1C(=O)O

>  <mulliken_charges>
12
1   -0.548774
2   0.359494
3   -0.19765
4   0.609492
5   -0.395261
6   -0.450836
7   -0.578366
8   0.200791
9   0.194976
10   0.202488
11   0.180045
12   0.423601

>  <lowdin_charges>
12
1   -0.438695
2   0.076432
3   -0.154145
4   0.183974
5   -0.167475
6   -0.241925
7   -0.358125
8   0.188708
9   0.183901
10   0.189627
11   0.175294
12   0.36243

$$$$

