PCCDB-ID:  20524
public computational chemistry database (PCCDB) project, http://pccdb.org

 22 21  0  0  0  0  0  0  0  0999 V2000
    1.6618    0.1332   -0.7995 C   0  0  0  0  0  0  0  0  0  0  0  0
    1.6953    1.3808    1.3975 C   0  0  0  0  0  0  0  0  0  0  0  0
    1.7642   -1.2123    1.3737 C   0  0  0  0  0  0  0  0  0  0  0  0
    2.2274    1.5249    2.8187 C   0  0  0  0  0  0  0  0  0  0  0  0
    0.2722   -1.4474    1.5908 C   0  0  0  0  0  0  0  0  0  0  0  0
    2.1476    0.1042    0.6598 C   0  0  0  0  0  0  0  0  0  0  0  0
    1.8425    2.8141    3.2903 O   0  0  0  0  0  0  0  0  0  0  0  0
    0.1369   -2.7111    2.2390 O   0  0  0  0  0  0  0  0  0  0  0  0
    2.0599    1.0085   -1.3261 H   0  0  0  0  0  0  0  0  0  0  0  0
    0.5683    0.1842   -0.8637 H   0  0  0  0  0  0  0  0  0  0  0  0
    1.9863   -0.7619   -1.3434 H   0  0  0  0  0  0  0  0  0  0  0  0
    2.0350    2.2575    0.8306 H   0  0  0  0  0  0  0  0  0  0  0  0
    0.5994    1.4440    1.4262 H   0  0  0  0  0  0  0  0  0  0  0  0
    2.1541   -2.0580    0.7924 H   0  0  0  0  0  0  0  0  0  0  0  0
    2.2536   -1.2688    2.3541 H   0  0  0  0  0  0  0  0  0  0  0  0
    3.3253    1.4137    2.8176 H   0  0  0  0  0  0  0  0  0  0  0  0
    1.8201    0.7344    3.4686 H   0  0  0  0  0  0  0  0  0  0  0  0
   -0.2637   -1.4431    0.6284 H   0  0  0  0  0  0  0  0  0  0  0  0
   -0.1592   -0.6437    2.2090 H   0  0  0  0  0  0  0  0  0  0  0  0
    3.2479    0.1207    0.6318 H   0  0  0  0  0  0  0  0  0  0  0  0
    2.1485    2.8984    4.2058 H   0  0  0  0  0  0  0  0  0  0  0  0
   -0.8083   -2.8725    2.3786 H   0  0  0  0  0  0  0  0  0  0  0  0
  1  6  1  0  0  0  0
  2 13  1  0  0  0  0
  2  4  1  0  0  0  0
  3  5  1  0  0  0  0
  3 15  1  0  0  0  0
  4  7  1  0  0  0  0
  4 17  1  0  0  0  0
  5 19  1  0  0  0  0
  5  8  1  0  0  0  0
  6  3  1  0  0  0  0
  6  2  1  0  0  0  0
  7 21  1  0  0  0  0
  8 22  1  0  0  0  0
  9  1  1  0  0  0  0
 10  1  1  0  0  0  0
 11  1  1  0  0  0  0
 12  2  1  0  0  0  0
 14  3  1  0  0  0  0
 16  4  1  0  0  0  0
 18  5  1  0  0  0  0
 20  6  1  0  0  0  0
M  END
>  <HBA>
2

>  <HBD>
2

>  <TPSA>
40.46

>  <cid>
20524

>  <dipole>
0.61

>  <excitation_energy_1>
6.327

>  <excitation_energy_2>
6.332

>  <excitation_energy_3>
6.996

>  <excitation_energy_4>
7.013

>  <homo_energy>
-7.124

>  <homo_lumo_gap>
9.143

>  <logP>
0.387

>  <lumo_energy>
2.019

>  <melting_point>
10.67

>  <molecular_refractivity>
33.28

>  <oscillator_strength_1>
0.0005

>  <oscillator_strength_2>
0.0006

>  <oscillator_strength_3>
0.0004

>  <oscillator_strength_4>
0.0031

>  <open_babel_can_smiles>
OCCC(CCO)C

>  <mulliken_charges>
22
1   -0.44925
2   -0.262921
3   -0.270465
4   -0.035989
5   -0.036208
6   -0.087204
7   -0.621729
8   -0.622247
9   0.143654
10   0.142071
11   0.142362
12   0.145229
13   0.139895
14   0.143252
15   0.143816
16   0.115939
17   0.123546
18   0.120869
19   0.121732
20   0.123899
21   0.390069
22   0.38968

>  <lowdin_charges>
22
1   -0.445473
2   -0.283303
3   -0.286475
4   -0.134703
5   -0.138039
6   -0.120879
7   -0.473239
8   -0.47326
9   0.150795
10   0.143468
11   0.149518
12   0.151919
13   0.142149
14   0.150785
15   0.147017
16   0.120692
17   0.127505
18   0.125449
19   0.126623
20   0.13655
21   0.341979
22   0.34092

$$$$

