PCCDB-ID:  73537
public computational chemistry database (PCCDB) project, http://pccdb.org

 23 23  0  0  1  0  0  0  0  0999 V2000
   -0.8597   -1.0938   -0.0447 C   0  0  0  0  0  0  0  0  0  0  0  0
    0.6025   -1.1183    0.4773 C   0  0  0  0  0  0  0  0  0  0  0  0
   -0.0759    1.1906    0.0577 C   0  0  0  0  0  0  0  0  0  0  0  0
   -1.0458    0.2853   -0.7258 C   0  0  2  0  0  0  0  0  0  0  0  0
   -2.4838    0.7847   -0.6235 C   0  0  0  0  0  0  0  0  0  0  0  0
    2.0850    0.7979    1.3886 C   0  0  0  0  0  0  0  0  0  0  0  0
    1.1857    0.3087    0.2300 C   0  0  1  0  0  0  0  0  0  0  0  0
    1.9101    0.3037   -1.0421 N   0  0  0  0  0  0  0  0  0  0  0  0
   -3.0524    0.9422    0.4302 O   0  0  0  0  0  0  0  0  0  0  0  0
   -3.1229    1.0597   -1.7893 O   0  0  0  0  0  0  0  0  0  0  0  0
    3.2328    1.1356    1.2324 O   0  0  0  0  0  0  0  0  0  0  0  0
    1.5299    0.8441    2.6290 O   0  0  0  0  0  0  0  0  0  0  0  0
   -1.5672   -1.1681    0.7872 H   0  0  0  0  0  0  0  0  0  0  0  0
   -1.0706   -1.9199   -0.7299 H   0  0  0  0  0  0  0  0  0  0  0  0
    1.2155   -1.8532   -0.0527 H   0  0  0  0  0  0  0  0  0  0  0  0
    0.6366   -1.3931    1.5371 H   0  0  0  0  0  0  0  0  0  0  0  0
   -0.5360    1.4396    1.0216 H   0  0  0  0  0  0  0  0  0  0  0  0
    0.1522    2.1326   -0.4523 H   0  0  0  0  0  0  0  0  0  0  0  0
   -0.7041    0.2317   -1.7651 H   0  0  0  0  0  0  0  0  0  0  0  0
    2.6996   -0.3376   -0.9628 H   0  0  0  0  0  0  0  0  0  0  0  0
    2.3449    1.2187   -1.1671 H   0  0  0  0  0  0  0  0  0  0  0  0
   -2.5318    0.8833   -2.5393 H   0  0  0  0  0  0  0  0  0  0  0  0
    0.6015    0.5597    2.5990 H   0  0  0  0  0  0  0  0  0  0  0  0
  1  2  1  0  0  0  0
  1 13  1  0  0  0  0
  2 16  1  0  0  0  0
  3  7  1  0  0  0  0
  3 17  1  0  0  0  0
  4 19  1  6  0  0  0
  4  5  1  0  0  0  0
  4  1  1  0  0  0  0
  4  3  1  0  0  0  0
  5  9  2  0  0  0  0
  6 12  1  0  0  0  0
  7  2  1  0  0  0  0
  7  6  1  1  0  0  0
  8 20  1  0  0  0  0
  8  7  1  0  0  0  0
 10  5  1  0  0  0  0
 11  6  2  0  0  0  0
 14  1  1  0  0  0  0
 15  2  1  0  0  0  0
 18  3  1  0  0  0  0
 21  8  1  0  0  0  0
 22 10  1  0  0  0  0
 23 12  1  0  0  0  0
M  END
>  <HBA>
5

>  <HBD>
3

>  <TPSA>
100.62

>  <cid>
73537

>  <dipole>
3.54

>  <excitation_energy_1>
5.532

>  <excitation_energy_2>
5.619

>  <excitation_energy_3>
5.93

>  <excitation_energy_4>
6.131

>  <homo_energy>
-7.127

>  <homo_lumo_gap>
6.83

>  <logP>
0.353

>  <lumo_energy>
-0.297

>  <melting_point>
214.94

>  <molecular_refractivity>
39.94

>  <oscillator_strength_1>
0.0021

>  <oscillator_strength_2>
0.0005

>  <oscillator_strength_3>
0.0009

>  <oscillator_strength_4>
0.004

>  <open_babel_can_smiles>
OC(=O)[C@@H]1CC[C@](C1)(N)C(=O)O

>  <mulliken_charges>
23
1   -0.284869
2   -0.297418
3   -0.283587
4   -0.19063
5   0.600755
6   0.571003
7   0.060112
8   -0.710587
9   -0.453252
10   -0.563274
11   -0.445354
12   -0.56652
13   0.172946
14   0.156837
15   0.163161
16   0.148153
17   0.160842
18   0.162001
19   0.150158
20   0.310112
21   0.311276
22   0.411165
23   0.41697

>  <lowdin_charges>
23
1   -0.276917
2   -0.286045
3   -0.27496
4   -0.166437
5   0.195961
6   0.170968
7   0.014081
8   -0.530335
9   -0.249946
10   -0.349244
11   -0.24064
12   -0.349068
13   0.162433
14   0.15816
15   0.163143
16   0.14786
17   0.154755
18   0.160005
19   0.152841
20   0.263018
21   0.262551
22   0.359901
23   0.357913

$$$$

