PCCDB-ID:  31405
public computational chemistry database (PCCDB) project, http://pccdb.org

 37 37  0  0  0  0  0  0  0  0999 V2000
    3.5777    0.1814   -1.2377 C   0  0  0  0  0  0  0  0  0  0  0  0
    2.3953    1.4608    0.5360 C   0  0  0  0  0  0  0  0  0  0  0  0
    1.0835   -0.1203   -0.8649 C   0  0  0  0  0  0  0  0  0  0  0  0
    1.8570   -5.4251    0.2025 C   0  0  0  0  0  0  0  0  0  0  0  0
    4.3764   -5.1358   -0.1687 C   0  0  0  0  0  0  0  0  0  0  0  0
    3.4805   -5.9085    2.0015 C   0  0  0  0  0  0  0  0  0  0  0  0
    3.1718   -1.8293    3.0933 C   0  0  0  0  0  0  0  0  0  0  0  0
    2.9155   -0.8067    2.1848 C   0  0  0  0  0  0  0  0  0  0  0  0
    3.2596   -3.1420    2.6475 C   0  0  0  0  0  0  0  0  0  0  0  0
    2.7404   -1.0573    0.8194 C   0  0  0  0  0  0  0  0  0  0  0  0
    3.0975   -3.4740    1.2949 C   0  0  0  0  0  0  0  0  0  0  0  0
    2.8388   -2.4065    0.3993 C   0  0  0  0  0  0  0  0  0  0  0  0
    2.4539    0.0923   -0.1750 C   0  0  0  0  0  0  0  0  0  0  0  0
    3.1976   -4.9483    0.8256 C   0  0  0  0  0  0  0  0  0  0  0  0
    2.6662   -2.6260   -0.9513 O   0  0  0  0  0  0  0  0  0  0  0  0
    3.3723    1.0088   -1.9285 H   0  0  0  0  0  0  0  0  0  0  0  0
    3.6608   -0.7377   -1.8195 H   0  0  0  0  0  0  0  0  0  0  0  0
    4.5453    0.3758   -0.7597 H   0  0  0  0  0  0  0  0  0  0  0  0
    2.1949    2.2418   -0.2060 H   0  0  0  0  0  0  0  0  0  0  0  0
    3.3415    1.7120    1.0289 H   0  0  0  0  0  0  0  0  0  0  0  0
    1.5947    1.5051    1.2832 H   0  0  0  0  0  0  0  0  0  0  0  0
    0.8794    0.7099   -1.5529 H   0  0  0  0  0  0  0  0  0  0  0  0
    0.2779   -0.1446   -0.1213 H   0  0  0  0  0  0  0  0  0  0  0  0
    1.0546   -1.0509   -1.4333 H   0  0  0  0  0  0  0  0  0  0  0  0
    1.9423   -6.4683   -0.1244 H   0  0  0  0  0  0  0  0  0  0  0  0
    1.5220   -4.8406   -0.6610 H   0  0  0  0  0  0  0  0  0  0  0  0
    1.0557   -5.3666    0.9469 H   0  0  0  0  0  0  0  0  0  0  0  0
    4.4321   -6.1804   -0.4971 H   0  0  0  0  0  0  0  0  0  0  0  0
    5.3230   -4.8818    0.3203 H   0  0  0  0  0  0  0  0  0  0  0  0
    4.3169   -4.5147   -1.0689 H   0  0  0  0  0  0  0  0  0  0  0  0
    3.5465   -6.9345    1.6226 H   0  0  0  0  0  0  0  0  0  0  0  0
    2.6819   -5.8847    2.7505 H   0  0  0  0  0  0  0  0  0  0  0  0
    4.4285   -5.6796    2.4995 H   0  0  0  0  0  0  0  0  0  0  0  0
    3.3033   -1.6022    4.1476 H   0  0  0  0  0  0  0  0  0  0  0  0
    2.8503    0.2088    2.5554 H   0  0  0  0  0  0  0  0  0  0  0  0
    3.4573   -3.9214    3.3728 H   0  0  0  0  0  0  0  0  0  0  0  0
    2.7600   -3.5674   -1.1389 H   0  0  0  0  0  0  0  0  0  0  0  0
  1 18  1  0  0  0  0
  1 13  1  0  0  0  0
  2 20  1  0  0  0  0
  2 21  1  0  0  0  0
  3 13  1  0  0  0  0
  3 23  1  0  0  0  0
  4 14  1  0  0  0  0
  4 27  1  0  0  0  0
  5 29  1  0  0  0  0
  5 14  1  0  0  0  0
  6 33  1  0  0  0  0
  6 32  1  0  0  0  0
  7 34  1  0  0  0  0
  8 35  1  0  0  0  0
  8  7  2  0  0  0  0
  9  7  1  0  0  0  0
  9 36  1  0  0  0  0
 10  8  1  0  0  0  0
 11  9  2  0  0  0  0
 12 10  2  0  0  0  0
 12 11  1  0  0  0  0
 13  2  1  0  0  0  0
 13 10  1  0  0  0  0
 14 11  1  0  0  0  0
 14  6  1  0  0  0  0
 15 12  1  0  0  0  0
 16  1  1  0  0  0  0
 17  1  1  0  0  0  0
 19  2  1  0  0  0  0
 22  3  1  0  0  0  0
 24  3  1  0  0  0  0
 25  4  1  0  0  0  0
 26  4  1  0  0  0  0
 28  5  1  0  0  0  0
 30  5  1  0  0  0  0
 31  6  1  0  0  0  0
 37 15  1  0  0  0  0
M  END
>  <HBA>
1

>  <HBD>
1

>  <TPSA>
20.23

>  <cid>
31405

>  <dipole>
1.93

>  <excitation_energy_1>
5.005

>  <excitation_energy_2>
5.227

>  <excitation_energy_3>
5.619

>  <excitation_energy_4>
5.63

>  <homo_energy>
-5.701

>  <homo_lumo_gap>
5.943

>  <logP>
3.987

>  <lumo_energy>
0.242

>  <melting_point>
62.87

>  <molecular_refractivity>
67.0

>  <oscillator_strength_1>
0.0495

>  <oscillator_strength_2>
0.0

>  <oscillator_strength_3>
0.003

>  <oscillator_strength_4>
0.0078

>  <open_babel_can_smiles>
CC(c1cccc(c1O)C(C)(C)C)(C)C

>  <mulliken_charges>
37
1   -0.448858
2   -0.457088
3   -0.448943
4   -0.456189
5   -0.457055
6   -0.457369
7   -0.129708
8   -0.208533
9   -0.211237
10   0.143454
11   0.162995
12   0.188889
13   0.038324
14   -0.01372
15   -0.655604
16   0.129834
17   0.168259
18   0.135955
19   0.1394
20   0.142287
21   0.142247
22   0.12977
23   0.136037
24   0.16847
25   0.145199
26   0.140266
27   0.160118
28   0.145658
29   0.160391
30   0.139996
31   0.142205
32   0.151295
33   0.151283
34   0.119439
35   0.125129
36   0.122729
37   0.414672

>  <lowdin_charges>
37
1   -0.446966
2   -0.445086
3   -0.447674
4   -0.448321
5   -0.447254
6   -0.440235
7   -0.178991
8   -0.164106
9   -0.17009
10   -0.027933
11   -0.052705
12   0.09255
13   0.02323
14   0.010603
15   -0.384512
16   0.143498
17   0.160525
18   0.145527
19   0.150279
20   0.147185
21   0.147618
22   0.143501
23   0.146372
24   0.160463
25   0.149067
26   0.145554
27   0.159832
28   0.149328
29   0.159357
30   0.144859
31   0.149728
32   0.152728
33   0.152081
34   0.152589
35   0.159863
36   0.160123
37   0.347414

$$$$

