PCCDB-ID:  29644
public computational chemistry database (PCCDB) project, http://pccdb.org

 23 23  0  0  0  0  0  0  0  0999 V2000
    3.5453    0.3203    0.9791 C   0  0  0  0  0  0  0  0  0  0  0  0
    2.2855    0.6981   -1.1998 C   0  0  0  0  0  0  0  0  0  0  0  0
    2.8580   -5.1320   -1.0807 C   0  0  0  0  0  0  0  0  0  0  0  0
    5.5147   -3.4156   -2.2836 C   0  0  0  0  0  0  0  0  0  0  0  0
    2.5375   -0.2688   -0.0264 C   0  0  0  0  0  0  0  0  0  0  0  0
    3.2143   -3.6814   -1.0226 C   0  0  0  0  0  0  0  0  0  0  0  0
    4.2976   -3.0273   -1.5228 C   0  0  0  0  0  0  0  0  0  0  0  0
    2.9776   -1.6153   -0.5161 C   0  0  0  0  0  0  0  0  0  0  0  0
    2.3814   -2.7588   -0.3816 N   0  0  0  0  0  0  0  0  0  0  0  0
    4.1559   -1.6905   -1.2014 O   0  0  0  0  0  0  0  0  0  0  0  0
    3.1826    1.2810    1.3619 H   0  0  0  0  0  0  0  0  0  0  0  0
    4.5177    0.4895    0.5037 H   0  0  0  0  0  0  0  0  0  0  0  0
    3.6943   -0.3517    1.8310 H   0  0  0  0  0  0  0  0  0  0  0  0
    1.9198    1.6615   -0.8268 H   0  0  0  0  0  0  0  0  0  0  0  0
    1.5392    0.2949   -1.8926 H   0  0  0  0  0  0  0  0  0  0  0  0
    3.2088    0.8793   -1.7610 H   0  0  0  0  0  0  0  0  0  0  0  0
    3.6156   -5.7109   -1.6179 H   0  0  0  0  0  0  0  0  0  0  0  0
    1.8957   -5.2779   -1.5856 H   0  0  0  0  0  0  0  0  0  0  0  0
    2.7594   -5.5510   -0.0722 H   0  0  0  0  0  0  0  0  0  0  0  0
    5.5030   -4.4899   -2.4871 H   0  0  0  0  0  0  0  0  0  0  0  0
    6.4310   -3.1861   -1.7252 H   0  0  0  0  0  0  0  0  0  0  0  0
    5.5751   -2.8888   -3.2443 H   0  0  0  0  0  0  0  0  0  0  0  0
    1.5887   -0.4520    0.4898 H   0  0  0  0  0  0  0  0  0  0  0  0
  1 11  1  0  0  0  0
  1 13  1  0  0  0  0
  2 14  1  0  0  0  0
  2  5  1  0  0  0  0
  3  6  1  0  0  0  0
  3 19  1  0  0  0  0
  4 21  1  0  0  0  0
  4  7  1  0  0  0  0
  5 23  1  0  0  0  0
  5  1  1  0  0  0  0
  6  9  1  0  0  0  0
  7 10  1  0  0  0  0
  7  6  2  0  0  0  0
  8  9  2  0  0  0  0
  8  5  1  0  0  0  0
 10  8  1  0  0  0  0
 12  1  1  0  0  0  0
 15  2  1  0  0  0  0
 16  2  1  0  0  0  0
 17  3  1  0  0  0  0
 18  3  1  0  0  0  0
 20  4  1  0  0  0  0
 22  4  1  0  0  0  0
M  END
>  <HBA>
2

>  <HBD>
0

>  <TPSA>
26.03

>  <cid>
29644

>  <dipole>
1.48

>  <excitation_energy_1>
5.37

>  <excitation_energy_2>
5.75

>  <excitation_energy_3>
5.847

>  <excitation_energy_4>
6.164

>  <homo_energy>
-5.886

>  <homo_lumo_gap>
6.346

>  <logP>
2.415

>  <lumo_energy>
0.46

>  <melting_point>
30.24

>  <molecular_refractivity>
41.02

>  <oscillator_strength_1>
0.0017

>  <oscillator_strength_2>
0.2193

>  <oscillator_strength_3>
0.0012

>  <oscillator_strength_4>
0.0001

>  <open_babel_can_smiles>
CC(c1oc(c(n1)C)C)C

>  <mulliken_charges>
23
1   -0.449818
2   -0.450214
3   -0.521414
4   -0.534788
5   -0.152888
6   0.19862
7   0.301551
8   0.513531
9   -0.496609
10   -0.477604
11   0.145962
12   0.156551
13   0.155331
14   0.146071
15   0.155606
16   0.15648
17   0.148179
18   0.167958
19   0.167994
20   0.167351
21   0.170496
22   0.170505
23   0.161147

>  <lowdin_charges>
23
1   -0.441708
2   -0.442868
3   -0.437849
4   -0.438381
5   -0.124246
6   -0.014244
7   0.037628
8   0.108717
9   -0.194843
10   -0.123926
11   0.151352
12   0.154105
13   0.156011
14   0.151309
15   0.1567
16   0.154547
17   0.156327
18   0.164884
19   0.164511
20   0.16647
21   0.16596
22   0.165636
23   0.163909

$$$$

