PCCDB-ID:  39357
public computational chemistry database (PCCDB) project, http://pccdb.org

 29 28  0  0  0  0  0  0  0  0999 V2000
    1.5785    0.6315    0.6858 C   0  0  0  0  0  0  0  0  0  0  0  0
    3.0850    0.4352    0.4871 C   0  0  0  0  0  0  0  0  0  0  0  0
    3.4780   -1.0290    0.2528 C   0  0  0  0  0  0  0  0  0  0  0  0
    4.9855   -1.2359    0.0579 C   0  0  0  0  0  0  0  0  0  0  0  0
    5.3747   -2.6994   -0.1890 C   0  0  0  0  0  0  0  0  0  0  0  0
    6.8828   -2.9031   -0.3793 C   0  0  0  0  0  0  0  0  0  0  0  0
    7.2870   -4.3662   -0.6309 C   0  0  0  0  0  0  0  0  0  0  0  0
    7.2736   -4.5925   -3.1024 C   0  0  0  0  0  0  0  0  0  0  0  0
    8.3504   -3.9856   -3.4338 N   0  0  0  0  0  0  0  0  0  0  0  0
    6.7820   -4.9458   -1.8671 N   0  0  0  0  0  0  0  0  0  0  0  0
    6.4291   -5.0306   -4.0773 O   0  0  0  0  0  0  0  0  0  0  0  0
    1.3295    1.6865    0.8469 H   0  0  0  0  0  0  0  0  0  0  0  0
    1.2163    0.0673    1.5542 H   0  0  0  0  0  0  0  0  0  0  0  0
    1.0152    0.2862   -0.1900 H   0  0  0  0  0  0  0  0  0  0  0  0
    3.6234    0.8188    1.3655 H   0  0  0  0  0  0  0  0  0  0  0  0
    3.4239    1.0416   -0.3649 H   0  0  0  0  0  0  0  0  0  0  0  0
    2.9422   -1.4112   -0.6290 H   0  0  0  0  0  0  0  0  0  0  0  0
    3.1339   -1.6368    1.1031 H   0  0  0  0  0  0  0  0  0  0  0  0
    5.5217   -0.8614    0.9426 H   0  0  0  0  0  0  0  0  0  0  0  0
    5.3304   -0.6231   -0.7877 H   0  0  0  0  0  0  0  0  0  0  0  0
    4.8398   -3.0651   -1.0772 H   0  0  0  0  0  0  0  0  0  0  0  0
    5.0276   -3.3150    0.6552 H   0  0  0  0  0  0  0  0  0  0  0  0
    7.4161   -2.5510    0.5153 H   0  0  0  0  0  0  0  0  0  0  0  0
    7.2360   -2.2887   -1.2180 H   0  0  0  0  0  0  0  0  0  0  0  0
    6.9344   -5.0014    0.1902 H   0  0  0  0  0  0  0  0  0  0  0  0
    8.3800   -4.4575   -0.6380 H   0  0  0  0  0  0  0  0  0  0  0  0
    8.9050   -3.7097   -2.6255 H   0  0  0  0  0  0  0  0  0  0  0  0
    5.8208   -5.2585   -1.8755 H   0  0  0  0  0  0  0  0  0  0  0  0
    6.8673   -4.7837   -4.9104 H   0  0  0  0  0  0  0  0  0  0  0  0
  1 12  1  0  0  0  0
  1 13  1  0  0  0  0
  2  1  1  0  0  0  0
  2 15  1  0  0  0  0
  3  2  1  0  0  0  0
  3 18  1  0  0  0  0
  4  3  1  0  0  0  0
  4 19  1  0  0  0  0
  5  4  1  0  0  0  0
  5 22  1  0  0  0  0
  6  5  1  0  0  0  0
  6 23  1  0  0  0  0
  7  6  1  0  0  0  0
  7 25  1  0  0  0  0
  8 10  1  0  0  0  0
  9  8  2  0  0  0  0
  9 27  1  0  0  0  0
 10  7  1  0  0  0  0
 11  8  1  0  0  0  0
 14  1  1  0  0  0  0
 16  2  1  0  0  0  0
 17  3  1  0  0  0  0
 20  4  1  0  0  0  0
 21  5  1  0  0  0  0
 24  6  1  0  0  0  0
 26  7  1  0  0  0  0
 28 10  1  0  0  0  0
 29 11  1  0  0  0  0
M  END
>  <HBA>
3

>  <HBD>
2

>  <TPSA>
55.12

>  <cid>
39357

>  <dipole>
2.55

>  <excitation_energy_1>
5.613

>  <excitation_energy_2>
5.955

>  <excitation_energy_3>
6.133

>  <excitation_energy_4>
6.455

>  <homo_energy>
-6.144

>  <homo_lumo_gap>
7.872

>  <logP>
2.716

>  <lumo_energy>
1.728

>  <melting_point>
85.26

>  <molecular_refractivity>
46.67

>  <oscillator_strength_1>
0.0035

>  <oscillator_strength_2>
0.0135

>  <oscillator_strength_3>
0.0132

>  <oscillator_strength_4>
0.0541

>  <open_babel_can_smiles>
CCCCCCCNC(=N)O

>  <mulliken_charges>
29
1   -0.441618
2   -0.24737
3   -0.246958
4   -0.252934
5   -0.258188
6   -0.256359
7   -0.157386
8   0.640911
9   -0.666089
10   -0.582516
11   -0.610175
12   0.1426
13   0.140964
14   0.141969
15   0.130251
16   0.131891
17   0.128156
18   0.125952
19   0.128234
20   0.133279
21   0.130939
22   0.125156
23   0.132787
24   0.149533
25   0.149477
26   0.152618
27   0.280999
28   0.3348
29   0.419081

>  <lowdin_charges>
29
1   -0.444515
2   -0.27345
3   -0.276087
4   -0.274788
5   -0.279633
6   -0.291515
7   -0.197957
8   0.161077
9   -0.501088
10   -0.297055
11   -0.386189
12   0.148472
13   0.14671
14   0.147216
15   0.139501
16   0.140408
17   0.138674
18   0.137695
19   0.138653
20   0.141614
21   0.139122
22   0.136772
23   0.145536
24   0.150385
25   0.152872
26   0.147908
27   0.256316
28   0.286171
29   0.367175

$$$$

