PCCDB-ID:  10966
public computational chemistry database (PCCDB) project, http://pccdb.org

 10  9  0  0  0  0  0  0  0  0999 V2000
    0.9843    0.0321    0.0584 C   0  0  0  0  0  0  0  0  0  0  0  0
    2.5128    0.1253    0.0559 C   0  0  0  0  0  0  0  0  0  0  0  0
    3.0206   -0.6291   -2.3266 C   0  0  0  0  0  0  0  0  0  0  0  0
    3.0923   -0.3142   -1.1797 N   0  0  0  0  0  0  0  0  0  0  0  0
    3.0388   -1.0681   -3.8605 S   0  0  0  0  0  0  0  0  0  0  0  0
    0.5953    0.3913    1.0172 H   0  0  0  0  0  0  0  0  0  0  0  0
    0.6579   -1.0026   -0.0830 H   0  0  0  0  0  0  0  0  0  0  0  0
    0.5563    0.6452   -0.7405 H   0  0  0  0  0  0  0  0  0  0  0  0
    2.9381   -0.4832    0.8623 H   0  0  0  0  0  0  0  0  0  0  0  0
    2.8370    1.1581    0.2331 H   0  0  0  0  0  0  0  0  0  0  0  0
  1  6  1  0  0  0  0
  2  1  1  0  0  0  0
  2 10  1  0  0  0  0
  2  9  1  0  0  0  0
  3  4  2  0  0  0  0
  4  2  1  0  0  0  0
  5  3  2  0  0  0  0
  7  1  1  0  0  0  0
  8  1  1  0  0  0  0
M  END
>  <HBA>
2

>  <HBD>
0

>  <TPSA>
44.45

>  <cid>
10966

>  <dipole>
3.93

>  <excitation_energy_1>
4.751

>  <excitation_energy_2>
5.246

>  <excitation_energy_3>
5.564

>  <excitation_energy_4>
5.833

>  <homo_energy>
-6.585

>  <homo_lumo_gap>
6.34

>  <logP>
1.109

>  <lumo_energy>
-0.245

>  <melting_point>
24.84

>  <molecular_refractivity>
25.7

>  <oscillator_strength_1>
0.0

>  <oscillator_strength_2>
0.0086

>  <oscillator_strength_3>
0.0001

>  <oscillator_strength_4>
0.026

>  <open_babel_can_smiles>
CCN=C=S

>  <mulliken_charges>
10
1   -0.451527
2   -0.150458
3   0.212056
4   -0.333963
5   -0.138405
6   0.159615
7   0.171699
8   0.17183
9   0.179548
10   0.179605

>  <lowdin_charges>
10
1   -0.445229
2   -0.168676
3   -0.049015
4   -0.099601
5   -0.057102
6   0.162169
7   0.162594
8   0.164636
9   0.16613
10   0.164091

$$$$

