PCCDB-ID:  49722
public computational chemistry database (PCCDB) project, http://pccdb.org

 29 30  0  0  0  0  0  0  0  0999 V2000
    1.1673   -0.7212    0.7226 C   0  0  0  0  0  0  0  0  0  0  0  0
    1.4771    0.6499    1.3391 C   0  0  0  0  0  0  0  0  0  0  0  0
   -0.2797   -0.5622    0.2293 C   0  0  0  0  0  0  0  0  0  0  0  0
    0.8556    1.6452    0.3368 C   0  0  0  0  0  0  0  0  0  0  0  0
   -2.7891    0.4071   -2.0394 C   0  0  0  0  0  0  0  0  0  0  0  0
   -3.9056    0.1821   -2.8455 C   0  0  0  0  0  0  0  0  0  0  0  0
   -1.4399    0.6602   -4.0247 C   0  0  0  0  0  0  0  0  0  0  0  0
   -0.3530    0.9111   -0.3096 C   0  0  0  0  0  0  0  0  0  0  0  0
   -1.5392    0.6506   -2.6204 C   0  0  0  0  0  0  0  0  0  0  0  0
   -3.8016    0.1998   -4.2362 C   0  0  0  0  0  0  0  0  0  0  0  0
   -2.5435    0.4414   -4.8334 C   0  0  0  0  0  0  0  0  0  0  0  0
   -0.2882    0.9059   -1.8404 C   0  0  0  0  0  0  0  0  0  0  0  0
   -4.8550   -0.0052   -5.0721 O   0  0  0  0  0  0  0  0  0  0  0  0
   -2.4985    0.4455   -6.1975 O   0  0  0  0  0  0  0  0  0  0  0  0
    0.7745    1.0685   -2.4287 O   0  0  0  0  0  0  0  0  0  0  0  0
    1.2861   -1.5561    1.4223 H   0  0  0  0  0  0  0  0  0  0  0  0
    1.8317   -0.9042   -0.1315 H   0  0  0  0  0  0  0  0  0  0  0  0
    2.5478    0.8229    1.4939 H   0  0  0  0  0  0  0  0  0  0  0  0
    0.9890    0.7325    2.3200 H   0  0  0  0  0  0  0  0  0  0  0  0
   -0.9755   -0.6730    1.0707 H   0  0  0  0  0  0  0  0  0  0  0  0
   -0.5630   -1.3065   -0.5225 H   0  0  0  0  0  0  0  0  0  0  0  0
    1.5770    1.8843   -0.4497 H   0  0  0  0  0  0  0  0  0  0  0  0
    0.5530    2.5850    0.8103 H   0  0  0  0  0  0  0  0  0  0  0  0
   -2.9095    0.3807   -0.9623 H   0  0  0  0  0  0  0  0  0  0  0  0
   -4.8760   -0.0094   -2.3907 H   0  0  0  0  0  0  0  0  0  0  0  0
   -0.4630    0.8474   -4.4638 H   0  0  0  0  0  0  0  0  0  0  0  0
   -1.2970    1.3697   -0.0015 H   0  0  0  0  0  0  0  0  0  0  0  0
   -5.6508   -0.1577   -4.5385 H   0  0  0  0  0  0  0  0  0  0  0  0
   -1.5853    0.6247   -6.4715 H   0  0  0  0  0  0  0  0  0  0  0  0
  1  2  1  0  0  0  0
  1 16  1  0  0  0  0
  2 18  1  0  0  0  0
  2 19  1  0  0  0  0
  3  1  1  0  0  0  0
  3 20  1  0  0  0  0
  4 23  1  0  0  0  0
  4  2  1  0  0  0  0
  5 24  1  0  0  0  0
  6 25  1  0  0  0  0
  6  5  2  0  0  0  0
  7  9  2  0  0  0  0
  8 27  1  0  0  0  0
  8  3  1  0  0  0  0
  8  4  1  0  0  0  0
  9  5  1  0  0  0  0
  9 12  1  0  0  0  0
 10  6  1  0  0  0  0
 11 10  2  0  0  0  0
 11  7  1  0  0  0  0
 12  8  1  0  0  0  0
 13 28  1  0  0  0  0
 13 10  1  0  0  0  0
 14 11  1  0  0  0  0
 15 12  2  0  0  0  0
 17  1  1  0  0  0  0
 21  3  1  0  0  0  0
 22  4  1  0  0  0  0
 26  7  1  0  0  0  0
 29 14  1  0  0  0  0
M  END
>  <HBA>
3

>  <HBD>
2

>  <TPSA>
57.53

>  <cid>
49722

>  <dipole>
2.96

>  <excitation_energy_1>
3.828

>  <excitation_energy_2>
4.228

>  <excitation_energy_3>
4.754

>  <excitation_energy_4>
5.066

>  <homo_energy>
-5.927

>  <homo_lumo_gap>
4.694

>  <logP>
2.471

>  <lumo_energy>
-1.233

>  <melting_point>
140.08

>  <molecular_refractivity>
57.8

>  <oscillator_strength_1>
0.0003

>  <oscillator_strength_2>
0.1366

>  <oscillator_strength_3>
0.1448

>  <oscillator_strength_4>
0.0005

>  <open_babel_can_smiles>
O=C(c1ccc(c(c1)O)O)C1CCCC1

>  <mulliken_charges>
29
1   -0.265218
2   -0.269492
3   -0.277323
4   -0.280463
5   -0.193445
6   -0.204328
7   -0.24437
8   -0.183124
9   0.079439
10   0.333729
11   0.332685
12   0.38341
13   -0.621206
14   -0.634045
15   -0.476964
16   0.134169
17   0.151664
18   0.137234
19   0.128036
20   0.136489
21   0.147334
22   0.17603
23   0.131851
24   0.137933
25   0.124252
26   0.154176
27   0.137281
28   0.411654
29   0.412614

>  <lowdin_charges>
29
1   -0.281203
2   -0.277138
3   -0.278643
4   -0.287432
5   -0.156279
6   -0.209134
7   -0.182493
8   -0.164277
9   -0.059257
10   0.091619
11   0.079126
12   0.158786
13   -0.354551
14   -0.366828
15   -0.25934
16   0.145949
17   0.149735
18   0.144936
19   0.136451
20   0.144096
21   0.150951
22   0.16484
23   0.144973
24   0.161931
25   0.156293
26   0.174187
27   0.149904
28   0.362078
29   0.360719

$$$$

