PCCDB-ID:  17288
public computational chemistry database (PCCDB) project, http://pccdb.org

 14 14  0  0  1  0  0  0  0  0999 V2000
   -0.2059    1.0881    0.3251 C   0  0  0  0  0  0  0  0  0  0  0  0
   -0.8542   -0.1300   -0.3765 C   0  0  0  0  0  0  0  0  0  0  0  0
    1.1386    0.3051    0.2295 C   0  0  1  0  0  0  0  0  0  0  0  0
    1.9567    0.1991    1.5155 C   0  0  0  0  0  0  0  0  0  0  0  0
    0.3667   -0.9298   -0.0769 N   0  0  0  0  0  0  0  0  0  0  0  0
    2.7564    1.0357    1.8628 O   0  0  0  0  0  0  0  0  0  0  0  0
    1.6605   -0.8946    2.2387 O   0  0  0  0  0  0  0  0  0  0  0  0
   -0.5435    1.2281    1.3549 H   0  0  0  0  0  0  0  0  0  0  0  0
   -0.2423    2.0435   -0.2000 H   0  0  0  0  0  0  0  0  0  0  0  0
   -1.0148    0.0387   -1.4491 H   0  0  0  0  0  0  0  0  0  0  0  0
   -1.7716   -0.5392    0.0588 H   0  0  0  0  0  0  0  0  0  0  0  0
    1.7835    0.6708   -0.5771 H   0  0  0  0  0  0  0  0  0  0  0  0
    0.7257   -1.4955   -0.8440 H   0  0  0  0  0  0  0  0  0  0  0  0
    0.9941   -1.3867    1.6962 H   0  0  0  0  0  0  0  0  0  0  0  0
  1  8  1  0  0  0  0
  2  5  1  0  0  0  0
  2 11  1  0  0  0  0
  2  1  1  0  0  0  0
  3 12  1  6  0  0  0
  3  1  1  0  0  0  0
  3  4  1  0  0  0  0
  4  6  2  0  0  0  0
  4  7  1  0  0  0  0
  5  3  1  0  0  0  0
  9  1  1  0  0  0  0
 10  2  1  0  0  0  0
 13  5  1  0  0  0  0
 14  7  1  0  0  0  0
M  END
>  <HBA>
3

>  <HBD>
2

>  <TPSA>
49.33

>  <cid>
17288

>  <dipole>
5.43

>  <excitation_energy_1>
5.389

>  <excitation_energy_2>
5.944

>  <excitation_energy_3>
6.416

>  <excitation_energy_4>
6.622

>  <homo_energy>
-6.789

>  <homo_lumo_gap>
7.138

>  <logP>
-0.238

>  <lumo_energy>
0.348

>  <melting_point>
101.68

>  <molecular_refractivity>
27.72

>  <oscillator_strength_1>
0.0008

>  <oscillator_strength_2>
0.0014

>  <oscillator_strength_3>
0.0124

>  <oscillator_strength_4>
0.0026

>  <open_babel_can_smiles>
OC(=O)[C@@H]1CCN1

>  <mulliken_charges>
14
1   -0.305132
2   -0.121364
3   -0.063482
4   0.598106
5   -0.615581
6   -0.461003
7   -0.58066
8   0.173157
9   0.168522
10   0.146206
11   0.157536
12   0.162643
13   0.314898
14   0.426154

>  <lowdin_charges>
14
1   -0.276936
2   -0.193246
3   -0.101868
4   0.172326
5   -0.380689
6   -0.254745
7   -0.359186
8   0.162916
9   0.16201
10   0.139675
11   0.149414
12   0.16069
13   0.26291
14   0.356731

$$$$

