PCCDB-ID:  11519
public computational chemistry database (PCCDB) project, http://pccdb.org

 26 25  0  0  1  0  0  0  0  0999 V2000
    2.3987    0.3442    1.1991 C   0  0  0  0  0  0  0  0  0  0  0  0
    4.2443   -3.2808   -5.3695 C   0  0  0  0  0  0  0  0  0  0  0  0
    2.0661   -1.4602   -4.0560 C   0  0  0  0  0  0  0  0  0  0  0  0
    3.3653    0.1616    0.0246 C   0  0  0  0  0  0  0  0  0  0  0  0
    4.4987   -2.1798   -4.3330 C   0  0  0  0  0  0  0  0  0  0  0  0
    2.8198   -0.7637   -1.0718 C   0  0  0  0  0  0  0  0  0  0  0  0
    3.7905   -0.9397   -2.2477 C   0  0  0  0  0  0  0  0  0  0  0  0
    3.3424   -1.9322   -3.3415 C   0  0  1  0  0  0  0  0  0  0  0  0
    2.8172    1.0094    1.9632 H   0  0  0  0  0  0  0  0  0  0  0  0
    2.1738   -0.6157    1.6804 H   0  0  0  0  0  0  0  0  0  0  0  0
    1.4471    0.7768    0.8663 H   0  0  0  0  0  0  0  0  0  0  0  0
    5.1369   -3.4536   -5.9817 H   0  0  0  0  0  0  0  0  0  0  0  0
    3.4258   -3.0251   -6.0511 H   0  0  0  0  0  0  0  0  0  0  0  0
    3.9873   -4.2305   -4.8833 H   0  0  0  0  0  0  0  0  0  0  0  0
    1.7291   -2.1835   -4.8060 H   0  0  0  0  0  0  0  0  0  0  0  0
    2.2394   -0.5042   -4.5687 H   0  0  0  0  0  0  0  0  0  0  0  0
    1.2386   -1.3152   -3.3538 H   0  0  0  0  0  0  0  0  0  0  0  0
    4.3200   -0.2385    0.3947 H   0  0  0  0  0  0  0  0  0  0  0  0
    3.5978    1.1429   -0.4134 H   0  0  0  0  0  0  0  0  0  0  0  0
    4.7329   -1.2373   -4.8504 H   0  0  0  0  0  0  0  0  0  0  0  0
    5.3981   -2.4400   -3.7577 H   0  0  0  0  0  0  0  0  0  0  0  0
    1.8607   -0.3630   -1.4270 H   0  0  0  0  0  0  0  0  0  0  0  0
    2.5955   -1.7486   -0.6346 H   0  0  0  0  0  0  0  0  0  0  0  0
    4.7594   -1.2758   -1.8494 H   0  0  0  0  0  0  0  0  0  0  0  0
    3.9795    0.0412   -2.7112 H   0  0  0  0  0  0  0  0  0  0  0  0
    3.1196   -2.8928   -2.8485 H   0  0  0  0  0  0  0  0  0  0  0  0
  1 10  1  0  0  0  0
  1  9  1  0  0  0  0
  2 14  1  0  0  0  0
  2  5  1  0  0  0  0
  3 17  1  0  0  0  0
  3  8  1  0  0  0  0
  4 18  1  0  0  0  0
  4  1  1  0  0  0  0
  5 21  1  0  0  0  0
  5  8  1  0  0  0  0
  6 23  1  0  0  0  0
  6  4  1  0  0  0  0
  7 24  1  0  0  0  0
  7  6  1  0  0  0  0
  8 26  1  1  0  0  0
  8  7  1  0  0  0  0
 11  1  1  0  0  0  0
 12  2  1  0  0  0  0
 13  2  1  0  0  0  0
 15  3  1  0  0  0  0
 16  3  1  0  0  0  0
 19  4  1  0  0  0  0
 20  5  1  0  0  0  0
 22  6  1  0  0  0  0
 25  7  1  0  0  0  0
M  END
>  <HBA>
0

>  <HBD>
0

>  <TPSA>
0.0

>  <cid>
11519

>  <dipole>
0.05

>  <excitation_energy_1>
7.667

>  <excitation_energy_2>
7.983

>  <excitation_energy_3>
7.998

>  <excitation_energy_4>
8.04

>  <homo_energy>
-8.019

>  <homo_lumo_gap>
10.376

>  <logP>
3.223

>  <lumo_energy>
2.357

>  <melting_point>
-27.89

>  <molecular_refractivity>
40.57

>  <oscillator_strength_1>
0.0032

>  <oscillator_strength_2>
0.0076

>  <oscillator_strength_3>
0.0004

>  <oscillator_strength_4>
0.0089

>  <open_babel_can_smiles>
CCCC[C@H](CC)C

>  <mulliken_charges>
26
1   -0.441273
2   -0.448456
3   -0.453777
4   -0.246866
5   -0.24571
6   -0.25217
7   -0.252321
8   -0.063293
9   0.140974
10   0.14072
11   0.140644
12   0.141284
13   0.145616
14   0.140173
15   0.143937
16   0.136217
17   0.144983
18   0.129449
19   0.129899
20   0.126013
21   0.127388
22   0.130987
23   0.125094
24   0.123647
25   0.122793
26   0.114049

>  <lowdin_charges>
26
1   -0.445469
2   -0.448125
3   -0.450456
4   -0.271325
5   -0.274051
6   -0.276289
7   -0.274885
8   -0.123401
9   0.149877
10   0.145869
11   0.145741
12   0.150182
13   0.147994
14   0.145635
15   0.150324
16   0.144199
17   0.149915
18   0.138052
19   0.138305
20   0.137549
21   0.139867
22   0.138611
23   0.136289
24   0.137822
25   0.135938
26   0.131834

$$$$

