PCCDB-ID:  20615
public computational chemistry database (PCCDB) project, http://pccdb.org

 24 24  0  0  1  0  0  0  0  0999 V2000
    1.6157   -0.2959   -0.9985 C   0  0  0  0  0  0  0  0  0  0  0  0
    2.2420    1.4515    3.6313 C   0  0  0  0  0  0  0  0  0  0  0  0
    4.4054    1.0707    2.4182 C   0  0  0  0  0  0  0  0  0  0  0  0
    2.8210   -1.3205    1.0566 C   0  0  0  0  0  0  0  0  0  0  0  0
    2.6954   -0.8093    2.5142 C   0  0  0  0  0  0  0  0  0  0  0  0
    2.2309    1.0648    1.0999 C   0  0  0  0  0  0  0  0  0  0  0  0
    2.6227   -0.0760    0.1337 C   0  0  2  0  0  0  0  0  0  0  0  0
    2.9031    0.7262    2.4517 C   0  0  0  0  0  0  0  0  0  0  0  0
    1.9351   -1.1048   -1.6670 H   0  0  0  0  0  0  0  0  0  0  0  0
    1.4929    0.6088   -1.6066 H   0  0  0  0  0  0  0  0  0  0  0  0
    0.6294   -0.5648   -0.5983 H   0  0  0  0  0  0  0  0  0  0  0  0
    2.6830    1.1404    4.5869 H   0  0  0  0  0  0  0  0  0  0  0  0
    1.1666    1.2392    3.6739 H   0  0  0  0  0  0  0  0  0  0  0  0
    2.3655    2.5389    3.5502 H   0  0  0  0  0  0  0  0  0  0  0  0
    4.8923    0.7787    3.3570 H   0  0  0  0  0  0  0  0  0  0  0  0
    4.5567    2.1493    2.2853 H   0  0  0  0  0  0  0  0  0  0  0  0
    4.9299    0.5599    1.6027 H   0  0  0  0  0  0  0  0  0  0  0  0
    2.0714   -2.0926    0.8460 H   0  0  0  0  0  0  0  0  0  0  0  0
    3.7980   -1.7831    0.8771 H   0  0  0  0  0  0  0  0  0  0  0  0
    3.3985   -1.2973    3.1999 H   0  0  0  0  0  0  0  0  0  0  0  0
    1.6870   -1.0165    2.8958 H   0  0  0  0  0  0  0  0  0  0  0  0
    1.1390    1.0703    1.2359 H   0  0  0  0  0  0  0  0  0  0  0  0
    2.5101    2.0562    0.7211 H   0  0  0  0  0  0  0  0  0  0  0  0
    3.5884    0.1758   -0.3243 H   0  0  0  0  0  0  0  0  0  0  0  0
  1 11  1  0  0  0  0
  1  7  1  0  0  0  0
  2 13  1  0  0  0  0
  2 12  1  0  0  0  0
  3  8  1  0  0  0  0
  3 15  1  0  0  0  0
  4  5  1  0  0  0  0
  5 21  1  0  0  0  0
  5 20  1  0  0  0  0
  6 22  1  0  0  0  0
  6  8  1  0  0  0  0
  7 24  1  6  0  0  0
  7  4  1  0  0  0  0
  7  6  1  0  0  0  0
  8  5  1  0  0  0  0
  8  2  1  0  0  0  0
  9  1  1  0  0  0  0
 10  1  1  0  0  0  0
 14  2  1  0  0  0  0
 16  3  1  0  0  0  0
 17  3  1  0  0  0  0
 18  4  1  0  0  0  0
 19  4  1  0  0  0  0
 23  6  1  0  0  0  0
M  END
>  <HBA>
0

>  <HBD>
0

>  <TPSA>
0.0

>  <cid>
20615

>  <dipole>
0.08

>  <excitation_energy_1>
7.543

>  <excitation_energy_2>
7.634

>  <excitation_energy_3>
7.849

>  <excitation_energy_4>
7.908

>  <homo_energy>
-8.052

>  <homo_lumo_gap>
10.076

>  <logP>
2.833

>  <lumo_energy>
2.025

>  <melting_point>
13.37

>  <molecular_refractivity>
38.2

>  <oscillator_strength_1>
0.0394

>  <oscillator_strength_2>
0.0172

>  <oscillator_strength_3>
0.0507

>  <oscillator_strength_4>
0.0342

>  <open_babel_can_smiles>
C[C@@H]1CCC(C1)(C)C

>  <mulliken_charges>
24
1   -0.452759
2   -0.450623
3   -0.452849
4   -0.281819
5   -0.272481
6   -0.268343
7   -0.067865
8   0.104052
9   0.14013
10   0.139427
11   0.137484
12   0.137393
13   0.13555
14   0.137156
15   0.137943
16   0.137712
17   0.142802
18   0.133337
19   0.13374
20   0.128297
21   0.128411
22   0.122905
23   0.125999
24   0.1244

>  <lowdin_charges>
24
1   -0.443708
2   -0.437953
3   -0.444383
4   -0.289149
5   -0.283686
6   -0.279872
7   -0.127959
8   0.009974
9   0.147996
10   0.147325
11   0.143253
12   0.14632
13   0.143345
14   0.144471
15   0.146687
16   0.144528
17   0.149
18   0.144903
19   0.142984
20   0.1435
21   0.139598
22   0.135661
23   0.140723
24   0.13644

$$$$

