PCCDB-ID:  10037
public computational chemistry database (PCCDB) project, http://pccdb.org

  7  6  0  0  0  0  0  0  0  0999 V2000
    0.9928    0.0654   -0.0728 C   0  0  0  0  0  0  0  0  0  0  0  0
    3.6064    0.0648   -0.0729 C   0  0  0  0  0  0  0  0  0  0  0  0
    2.2996    0.0651   -0.0728 C   0  0  0  0  0  0  0  0  0  0  0  0
    0.4232   -0.7200   -0.5655 H   0  0  0  0  0  0  0  0  0  0  0  0
    0.4235    0.8510    0.4200 H   0  0  0  0  0  0  0  0  0  0  0  0
    4.1758   -0.4281    0.7126 H   0  0  0  0  0  0  0  0  0  0  0  0
    4.1759    0.5574   -0.8585 H   0  0  0  0  0  0  0  0  0  0  0  0
  1  5  1  0  0  0  0
  2  3  2  0  0  0  0
  2  6  1  0  0  0  0
  3  1  2  0  0  0  0
  4  1  1  0  0  0  0
  7  2  1  0  0  0  0
M  END
>  <HBA>
0

>  <HBD>
0

>  <TPSA>
0.0

>  <cid>
10037

>  <dipole>
0.0

>  <excitation_energy_1>
5.819

>  <excitation_energy_2>
6.036

>  <excitation_energy_3>
6.884

>  <excitation_energy_4>
6.885

>  <homo_energy>
-7.157

>  <homo_lumo_gap>
7.72

>  <logP>
0.957

>  <lumo_energy>
0.563

>  <melting_point>
-74.89

>  <molecular_refractivity>
14.77

>  <oscillator_strength_1>
0.0

>  <oscillator_strength_2>
0.0

>  <oscillator_strength_3>
0.0391

>  <oscillator_strength_4>
0.0391

>  <open_babel_can_smiles>
C=C=C

>  <mulliken_charges>
7
1   -0.520941
2   -0.521087
3   0.372277
4   0.167436
5   0.167435
6   0.167442
7   0.167439

>  <lowdin_charges>
7
1   -0.366859
2   -0.366869
3   0.01513
4   0.179649
5   0.179649
6   0.17965
7   0.17965

$$$$

