PCCDB-ID:  13399
public computational chemistry database (PCCDB) project, http://pccdb.org

 17 18  0  0  0  0  0  0  0  0999 V2000
    2.1461   -0.6574    0.0109 C   0  0  0  0  0  0  0  0  0  0  0  0
    2.1048    0.7454   -0.0557 C   0  0  0  0  0  0  0  0  0  0  0  0
    0.9645   -1.3946    0.0545 C   0  0  0  0  0  0  0  0  0  0  0  0
    0.8963    1.4398   -0.0903 C   0  0  0  0  0  0  0  0  0  0  0  0
   -0.2503   -0.7095    0.0337 C   0  0  0  0  0  0  0  0  0  0  0  0
   -0.2798    0.6873   -0.0570 C   0  0  0  0  0  0  0  0  0  0  0  0
   -1.6467   -1.1777    0.0685 C   0  0  0  0  0  0  0  0  0  0  0  0
   -2.2016   -2.3298   -0.0010 N   0  0  0  0  0  0  0  0  0  0  0  0
   -1.6069    1.1459   -0.1276 N   0  0  0  0  0  0  0  0  0  0  0  0
   -2.4224   -0.0002    0.1733 N   0  0  0  0  0  0  0  0  0  0  0  0
    3.1050   -1.1663    0.0317 H   0  0  0  0  0  0  0  0  0  0  0  0
    3.0363    1.3042   -0.0853 H   0  0  0  0  0  0  0  0  0  0  0  0
    0.9874   -2.4797    0.1182 H   0  0  0  0  0  0  0  0  0  0  0  0
    0.8722    2.5240   -0.1531 H   0  0  0  0  0  0  0  0  0  0  0  0
   -1.4881   -3.0580   -0.0693 H   0  0  0  0  0  0  0  0  0  0  0  0
   -1.8114    1.8840    0.5446 H   0  0  0  0  0  0  0  0  0  0  0  0
   -3.2672   -0.0153   -0.3895 H   0  0  0  0  0  0  0  0  0  0  0  0
  1 11  1  0  0  0  0
  1  3  1  0  0  0  0
  2  1  2  0  0  0  0
  3 13  1  0  0  0  0
  4  6  2  0  0  0  0
  4  2  1  0  0  0  0
  5  3  2  0  0  0  0
  5  7  1  0  0  0  0
  6  5  1  0  0  0  0
  7 10  1  0  0  0  0
  8  7  2  0  0  0  0
  9  6  1  0  0  0  0
  9 10  1  0  0  0  0
  9 16  1  0  0  0  0
 12  2  1  0  0  0  0
 14  4  1  0  0  0  0
 15  8  1  0  0  0  0
 17 10  1  0  0  0  0
M  END
>  <HBA>
2

>  <HBD>
2

>  <TPSA>
54.7

>  <cid>
13399

>  <dipole>
3.2

>  <excitation_energy_1>
3.935

>  <excitation_energy_2>
4.749

>  <excitation_energy_3>
4.947

>  <excitation_energy_4>
4.963

>  <homo_energy>
-5.499

>  <homo_lumo_gap>
4.558

>  <logP>
1.726

>  <lumo_energy>
-0.942

>  <melting_point>
160.59

>  <molecular_refractivity>
40.5

>  <oscillator_strength_1>
0.0853

>  <oscillator_strength_2>
0.051

>  <oscillator_strength_3>
0.0044

>  <oscillator_strength_4>
0.0093

>  <open_babel_can_smiles>
N=c1[nH][nH]c2c1cccc2

>  <mulliken_charges>
17
1   -0.137344
2   -0.138354
3   -0.199353
4   -0.164913
5   0.094444
6   0.275031
7   0.415315
8   -0.657025
9   -0.522763
10   -0.479176
11   0.134513
12   0.137772
13   0.139247
14   0.137337
15   0.280788
16   0.339266
17   0.345216

>  <lowdin_charges>
17
1   -0.170606
2   -0.137766
3   -0.13571
4   -0.180704
5   -0.063639
6   0.04596
7   0.077527
8   -0.436426
9   -0.232617
10   -0.237149
11   0.161392
12   0.1627
13   0.159997
14   0.161613
15   0.25607
16   0.281475
17   0.287881

$$$$

