PCCDB-ID:  33054
public computational chemistry database (PCCDB) project, http://pccdb.org

 34 35  0  0  1  0  0  0  0  0999 V2000
    0.7175   -0.5856    1.2872 C   0  0  0  0  0  0  0  0  0  0  0  0
    1.6266   -0.0910    0.1557 C   0  0  0  0  0  0  0  0  0  0  0  0
    7.2351    1.8275    1.1595 C   0  0  0  0  0  0  0  0  0  0  0  0
    6.5301    1.4764    2.4782 C   0  0  0  0  0  0  0  0  0  0  0  0
    6.2374    1.9045   -0.0059 C   0  0  0  0  0  0  0  0  0  0  0  0
    5.7003    0.1904    2.3453 C   0  0  0  0  0  0  0  0  0  0  0  0
    3.5794   -0.6077   -1.4239 C   0  0  0  0  0  0  0  0  0  0  0  0
    4.4000    0.6860   -1.3015 C   0  0  0  0  0  0  0  0  0  0  0  0
    3.8719   -1.0233    1.0461 C   0  0  0  0  0  0  0  0  0  0  0  0
    2.8527   -0.9911   -0.1158 C   0  0  1  0  0  0  0  0  0  0  0  0
    5.4070    0.6171   -0.1420 C   0  0  2  0  0  0  0  0  0  0  0  0
    4.6935    0.2710    1.1845 C   0  0  2  0  0  0  0  0  0  0  0  0
   -0.1727    0.0472    1.3795 H   0  0  0  0  0  0  0  0  0  0  0  0
    1.2258   -0.5769    2.2578 H   0  0  0  0  0  0  0  0  0  0  0  0
    0.3776   -1.6122    1.1007 H   0  0  0  0  0  0  0  0  0  0  0  0
    1.9447    0.9369    0.3730 H   0  0  0  0  0  0  0  0  0  0  0  0
    1.0361   -0.0316   -0.7695 H   0  0  0  0  0  0  0  0  0  0  0  0
    7.9911    1.0595    0.9382 H   0  0  0  0  0  0  0  0  0  0  0  0
    7.7766    2.7773    1.2586 H   0  0  0  0  0  0  0  0  0  0  0  0
    5.8658    2.3058    2.7636 H   0  0  0  0  0  0  0  0  0  0  0  0
    7.2641    1.3733    3.2878 H   0  0  0  0  0  0  0  0  0  0  0  0
    6.7676    2.1060   -0.9469 H   0  0  0  0  0  0  0  0  0  0  0  0
    5.5567    2.7551    0.1543 H   0  0  0  0  0  0  0  0  0  0  0  0
    5.1700   -0.0177    3.2847 H   0  0  0  0  0  0  0  0  0  0  0  0
    6.3756   -0.6624    2.1753 H   0  0  0  0  0  0  0  0  0  0  0  0
    4.2595   -1.4269   -1.6996 H   0  0  0  0  0  0  0  0  0  0  0  0
    2.8530   -0.5203   -2.2431 H   0  0  0  0  0  0  0  0  0  0  0  0
    3.7306    1.5450   -1.1471 H   0  0  0  0  0  0  0  0  0  0  0  0
    4.9308    0.8790   -2.2438 H   0  0  0  0  0  0  0  0  0  0  0  0
    4.5676   -1.8591    0.8762 H   0  0  0  0  0  0  0  0  0  0  0  0
    3.3659   -1.2428    1.9955 H   0  0  0  0  0  0  0  0  0  0  0  0
    2.4652   -2.0136   -0.2433 H   0  0  0  0  0  0  0  0  0  0  0  0
    6.1069   -0.2098   -0.3576 H   0  0  0  0  0  0  0  0  0  0  0  0
    4.0019    1.1001    1.4098 H   0  0  0  0  0  0  0  0  0  0  0  0
  1 13  1  0  0  0  0
  1 14  1  0  0  0  0
  2 16  1  0  0  0  0
  2  1  1  0  0  0  0
  3 19  1  0  0  0  0
  3  4  1  0  0  0  0
  4 20  1  0  0  0  0
  4 21  1  0  0  0  0
  5 23  1  0  0  0  0
  5  3  1  0  0  0  0
  6  4  1  0  0  0  0
  6 24  1  0  0  0  0
  7  8  1  0  0  0  0
  7 10  1  0  0  0  0
  8 28  1  0  0  0  0
  8 11  1  0  0  0  0
  9 12  1  0  0  0  0
  9 31  1  0  0  0  0
 10 32  1  6  0  0  0
 10  2  1  0  0  0  0
 10  9  1  0  0  0  0
 11 33  1  6  0  0  0
 11  5  1  0  0  0  0
 11 12  1  0  0  0  0
 12 34  1  1  0  0  0
 12  6  1  0  0  0  0
 15  1  1  0  0  0  0
 17  2  1  0  0  0  0
 18  3  1  0  0  0  0
 22  5  1  0  0  0  0
 25  6  1  0  0  0  0
 26  7  1  0  0  0  0
 27  7  1  0  0  0  0
 29  8  1  0  0  0  0
 30  9  1  0  0  0  0
M  END
>  <HBA>
0

>  <HBD>
0

>  <TPSA>
0.0

>  <cid>
33054

>  <dipole>
0.02

>  <excitation_energy_1>
6.919

>  <excitation_energy_2>
7.021

>  <excitation_energy_3>
7.094

>  <excitation_energy_4>
7.188

>  <homo_energy>
-7.388

>  <homo_lumo_gap>
9.606

>  <logP>
4.003

>  <lumo_energy>
2.218

>  <melting_point>
14.61

>  <molecular_refractivity>
55.57

>  <oscillator_strength_1>
0.0006

>  <oscillator_strength_2>
0.0014

>  <oscillator_strength_3>
0.0013

>  <oscillator_strength_4>
0.0012

>  <open_babel_can_smiles>
CC[C@H]1CC[C@@H]2[C@@H](C1)CCCC2

>  <mulliken_charges>
34
1   -0.448356
2   -0.254683
3   -0.258472
4   -0.259103
5   -0.261603
6   -0.260603
7   -0.269635
8   -0.266226
9   -0.274584
10   -0.070647
11   -0.073065
12   -0.079701
13   0.140954
14   0.145508
15   0.140706
16   0.133782
17   0.12752
18   0.126406
19   0.127863
20   0.126072
21   0.127985
22   0.125387
23   0.122593
24   0.125008
25   0.122997
26   0.12443
27   0.124698
28   0.127679
29   0.125489
30   0.122017
31   0.1277
32   0.112002
33   0.107025
34   0.11286

>  <lowdin_charges>
34
1   -0.445289
2   -0.277128
3   -0.2782
4   -0.279231
5   -0.278275
6   -0.277699
7   -0.279778
8   -0.279411
9   -0.280826
10   -0.127956
11   -0.131333
12   -0.133645
13   0.149692
14   0.146234
15   0.144793
16   0.137809
17   0.140262
18   0.137588
19   0.14224
20   0.137404
21   0.142953
22   0.141081
23   0.13617
24   0.140794
25   0.136244
26   0.138968
27   0.140849
28   0.137805
29   0.14146
30   0.138632
31   0.141077
32   0.134821
33   0.129909
34   0.131987

$$$$

