PCCDB-ID:  1017
public computational chemistry database (PCCDB) project, http://pccdb.org

 18 18  0  0  0  0  0  0  0  0999 V2000
   -1.2896   -0.0242   -0.0425 C   0  0  0  0  0  0  0  0  0  0  0  0
   -0.5547   -1.2051    0.0516 C   0  0  0  0  0  0  0  0  0  0  0  0
   -0.6273    1.1966   -0.1173 C   0  0  0  0  0  0  0  0  0  0  0  0
    0.8338   -1.1444    0.0516 C   0  0  0  0  0  0  0  0  0  0  0  0
    0.7734    1.2856   -0.1528 C   0  0  0  0  0  0  0  0  0  0  0  0
    1.5153    0.0779   -0.0818 C   0  0  0  0  0  0  0  0  0  0  0  0
    1.2728    2.7276   -0.1318 C   0  0  0  0  0  0  0  0  0  0  0  0
    3.0008   -0.0952   -0.0899 C   0  0  0  0  0  0  0  0  0  0  0  0
    0.5649    3.6046    0.3120 O   0  0  0  0  0  0  0  0  0  0  0  0
    2.4836    3.0285   -0.6209 O   0  0  0  0  0  0  0  0  0  0  0  0
    3.6098   -0.8932    0.5822 O   0  0  0  0  0  0  0  0  0  0  0  0
    3.6493    0.6727   -1.0242 O   0  0  0  0  0  0  0  0  0  0  0  0
   -2.3755   -0.0490   -0.0364 H   0  0  0  0  0  0  0  0  0  0  0  0
   -1.0550   -2.1653    0.1355 H   0  0  0  0  0  0  0  0  0  0  0  0
   -1.1851    2.1255   -0.1292 H   0  0  0  0  0  0  0  0  0  0  0  0
    1.4218   -2.0503    0.1515 H   0  0  0  0  0  0  0  0  0  0  0  0
    2.9338    2.2423   -0.9890 H   0  0  0  0  0  0  0  0  0  0  0  0
    4.6030    0.4843   -0.9276 H   0  0  0  0  0  0  0  0  0  0  0  0
  1 13  1  0  0  0  0
  1  2  2  0  0  0  0
  2  4  1  0  0  0  0
  2 14  1  0  0  0  0
  3  1  1  0  0  0  0
  4 16  1  0  0  0  0
  5  7  1  0  0  0  0
  5  3  2  0  0  0  0
  5  6  1  0  0  0  0
  6  4  2  0  0  0  0
  7  9  2  0  0  0  0
  8  6  1  0  0  0  0
  8 11  2  0  0  0  0
 10  7  1  0  0  0  0
 12 18  1  0  0  0  0
 12  8  1  0  0  0  0
 15  3  1  0  0  0  0
 17 10  1  0  0  0  0
M  END
>  <HBA>
4

>  <HBD>
2

>  <TPSA>
74.6

>  <cid>
1017

>  <dipole>
4.23

>  <excitation_energy_1>
4.325

>  <excitation_energy_2>
4.721

>  <excitation_energy_3>
4.968

>  <excitation_energy_4>
5.3

>  <homo_energy>
-7.227

>  <homo_lumo_gap>
5.238

>  <logP>
1.083

>  <lumo_energy>
-1.989

>  <melting_point>
186.97

>  <molecular_refractivity>
40.36

>  <oscillator_strength_1>
0.0212

>  <oscillator_strength_2>
0.0372

>  <oscillator_strength_3>
0.0633

>  <oscillator_strength_4>
0.0088

>  <open_babel_can_smiles>
OC(=O)c1ccccc1C(=O)O

>  <mulliken_charges>
18
1   -0.11793
2   -0.124595
3   -0.159964
4   -0.154081
5   0.003884
6   0.041433
7   0.554873
8   0.503537
9   -0.446913
10   -0.597841
11   -0.435503
12   -0.599608
13   0.151664
14   0.150738
15   0.182532
16   0.169641
17   0.448553
18   0.429581

>  <lowdin_charges>
18
1   -0.133596
2   -0.140504
3   -0.125798
4   -0.131791
5   -0.04753
6   -0.042653
7   0.194169
8   0.203246
9   -0.249352
10   -0.359016
11   -0.236006
12   -0.36373
13   0.166702
14   0.168607
15   0.187074
16   0.179157
17   0.358819
18   0.372203

$$$$

