PCCDB-ID:  56072
public computational chemistry database (PCCDB) project, http://pccdb.org

 24 23  0  0  0  0  0  0  0  0999 V2000
    0.4130   -0.5363    2.5475 C   0  0  0  0  0  0  0  0  0  0  0  0
   -4.5684    0.2742    2.4192 C   0  0  0  0  0  0  0  0  0  0  0  0
    0.5907    0.8697    1.9345 C   0  0  0  0  0  0  0  0  0  0  0  0
   -4.2902    1.6393    1.7557 C   0  0  0  0  0  0  0  0  0  0  0  0
    0.3979   -1.5927    1.5306 C   0  0  0  0  0  0  0  0  0  0  0  0
   -5.7598    0.2953    3.2710 C   0  0  0  0  0  0  0  0  0  0  0  0
   -0.5730    1.2907    1.0323 C   0  0  0  0  0  0  0  0  0  0  0  0
   -2.9962    1.6310    0.9371 C   0  0  0  0  0  0  0  0  0  0  0  0
    0.3846   -2.4097    0.7057 N   0  0  0  0  0  0  0  0  0  0  0  0
   -6.7035    0.3330    3.9463 N   0  0  0  0  0  0  0  0  0  0  0  0
   -1.8318    1.3468    1.7774 N   0  0  0  0  0  0  0  0  0  0  0  0
   -0.5336   -0.5754    3.0971 H   0  0  0  0  0  0  0  0  0  0  0  0
    1.2203   -0.7486    3.2580 H   0  0  0  0  0  0  0  0  0  0  0  0
   -3.7015   -0.0247    3.0179 H   0  0  0  0  0  0  0  0  0  0  0  0
   -4.7007   -0.4984    1.6510 H   0  0  0  0  0  0  0  0  0  0  0  0
    1.5233    0.9084    1.3604 H   0  0  0  0  0  0  0  0  0  0  0  0
    0.6988    1.5844    2.7614 H   0  0  0  0  0  0  0  0  0  0  0  0
   -4.2349    2.4146    2.5313 H   0  0  0  0  0  0  0  0  0  0  0  0
   -5.1283    1.9116    1.1046 H   0  0  0  0  0  0  0  0  0  0  0  0
   -0.6927    0.5538    0.2282 H   0  0  0  0  0  0  0  0  0  0  0  0
   -0.3217    2.2504    0.5439 H   0  0  0  0  0  0  0  0  0  0  0  0
   -2.9091    2.5924    0.3973 H   0  0  0  0  0  0  0  0  0  0  0  0
   -3.0510    0.8478    0.1692 H   0  0  0  0  0  0  0  0  0  0  0  0
   -1.7587    2.0767    2.4878 H   0  0  0  0  0  0  0  0  0  0  0  0
  1 12  1  0  0  0  0
  1 13  1  0  0  0  0
  2 14  1  0  0  0  0
  2  6  1  0  0  0  0
  3  1  1  0  0  0  0
  3 17  1  0  0  0  0
  4  2  1  0  0  0  0
  4 18  1  0  0  0  0
  5  1  1  0  0  0  0
  6 10  3  0  0  0  0
  7 11  1  0  0  0  0
  7  3  1  0  0  0  0
  8  4  1  0  0  0  0
  8 11  1  0  0  0  0
  9  5  3  0  0  0  0
 11 24  1  0  0  0  0
 15  2  1  0  0  0  0
 16  3  1  0  0  0  0
 19  4  1  0  0  0  0
 20  7  1  0  0  0  0
 21  7  1  0  0  0  0
 22  8  1  0  0  0  0
 23  8  1  0  0  0  0
M  END
>  <HBA>
3

>  <HBD>
1

>  <TPSA>
59.61

>  <cid>
56072

>  <dipole>
5.38

>  <excitation_energy_1>
5.604

>  <excitation_energy_2>
6.141

>  <excitation_energy_3>
6.231

>  <excitation_energy_4>
6.281

>  <homo_energy>
-6.765

>  <homo_lumo_gap>
7.527

>  <logP>
1.574

>  <lumo_energy>
0.762

>  <melting_point>
67.09

>  <molecular_refractivity>
42.87

>  <oscillator_strength_1>
0.0018

>  <oscillator_strength_2>
0.0346

>  <oscillator_strength_3>
0.0412

>  <oscillator_strength_4>
0.0243

>  <open_babel_can_smiles>
N#CCCCNCCCC#N

>  <mulliken_charges>
24
1   -0.33444
2   -0.334118
3   -0.279169
4   -0.281714
5   0.348044
6   0.34595
7   -0.128351
8   -0.121807
9   -0.47317
10   -0.474773
11   -0.561399
12   0.206676
13   0.19102
14   0.206909
15   0.192727
16   0.162822
17   0.146131
18   0.154328
19   0.163895
20   0.168813
21   0.126724
22   0.128259
23   0.152842
24   0.293801

>  <lowdin_charges>
24
1   -0.278856
2   -0.277247
3   -0.271287
4   -0.272531
5   -0.016564
6   -0.018378
7   -0.205957
8   -0.201798
9   -0.132717
10   -0.13277
11   -0.366852
12   0.186839
13   0.182225
14   0.187049
15   0.181643
16   0.16021
17   0.150229
18   0.152463
19   0.161447
20   0.156534
21   0.127845
22   0.127973
23   0.148944
24   0.251554

$$$$

