PCCDB-ID:  47371
public computational chemistry database (PCCDB) project, http://pccdb.org

 31 32  0  0  0  0  0  0  0  0999 V2000
    1.9274    1.4828    0.1681 C   0  0  0  0  0  0  0  0  0  0  0  0
    5.9054    3.0578   -4.4882 C   0  0  0  0  0  0  0  0  0  0  0  0
    5.3386   -4.2117   -4.1688 C   0  0  0  0  0  0  0  0  0  0  0  0
    5.8013    0.3139   -5.1749 C   0  0  0  0  0  0  0  0  0  0  0  0
    5.6846   -1.0497   -5.4649 C   0  0  0  0  0  0  0  0  0  0  0  0
    3.6214    0.4696   -2.0956 C   0  0  0  0  0  0  0  0  0  0  0  0
    3.3151   -1.8658   -1.4006 C   0  0  0  0  0  0  0  0  0  0  0  0
    2.2148    0.0081   -0.0728 C   0  0  0  0  0  0  0  0  0  0  0  0
    3.0430   -0.3914   -1.2279 C   0  0  0  0  0  0  0  0  0  0  0  0
    4.4045   -0.0235   -3.2096 C   0  0  0  0  0  0  0  0  0  0  0  0
    5.1630    0.8287   -4.0472 C   0  0  0  0  0  0  0  0  0  0  0  0
    4.9444   -1.9162   -4.6644 C   0  0  0  0  0  0  0  0  0  0  0  0
    4.3092   -1.3950   -3.5228 C   0  0  0  0  0  0  0  0  0  0  0  0
    1.7735   -0.8485    0.6880 O   0  0  0  0  0  0  0  0  0  0  0  0
    5.1995    2.1393   -3.6672 O   0  0  0  0  0  0  0  0  0  0  0  0
    4.8075   -3.2251   -5.0566 O   0  0  0  0  0  0  0  0  0  0  0  0
    3.5302   -2.2262   -2.7804 O   0  0  0  0  0  0  0  0  0  0  0  0
    1.3955    1.9265   -0.6815 H   0  0  0  0  0  0  0  0  0  0  0  0
    2.8550    2.0501    0.3078 H   0  0  0  0  0  0  0  0  0  0  0  0
    1.3125    1.5734    1.0653 H   0  0  0  0  0  0  0  0  0  0  0  0
    5.7906    4.0331   -4.0121 H   0  0  0  0  0  0  0  0  0  0  0  0
    5.4860    3.0947   -5.5018 H   0  0  0  0  0  0  0  0  0  0  0  0
    6.9719    2.8054   -4.5461 H   0  0  0  0  0  0  0  0  0  0  0  0
    5.2427   -5.1668   -4.6906 H   0  0  0  0  0  0  0  0  0  0  0  0
    4.7792   -4.2501   -3.2296 H   0  0  0  0  0  0  0  0  0  0  0  0
    6.3993   -4.0191   -3.9588 H   0  0  0  0  0  0  0  0  0  0  0  0
    6.3899    0.9478   -5.8266 H   0  0  0  0  0  0  0  0  0  0  0  0
    6.1754   -1.4669   -6.3389 H   0  0  0  0  0  0  0  0  0  0  0  0
    3.4958    1.5429   -2.0035 H   0  0  0  0  0  0  0  0  0  0  0  0
    2.4661   -2.4622   -1.0665 H   0  0  0  0  0  0  0  0  0  0  0  0
    4.1964   -2.1749   -0.8153 H   0  0  0  0  0  0  0  0  0  0  0  0
  1 19  1  0  0  0  0
  1 20  1  0  0  0  0
  2 21  1  0  0  0  0
  2 15  1  0  0  0  0
  3 26  1  0  0  0  0
  3 25  1  0  0  0  0
  4 11  1  0  0  0  0
  5  4  2  0  0  0  0
  5 12  1  0  0  0  0
  6 29  1  0  0  0  0
  6  9  2  0  0  0  0
  7  9  1  0  0  0  0
  7 30  1  0  0  0  0
  7 31  1  0  0  0  0
  8  1  1  0  0  0  0
  8 14  2  0  0  0  0
  9  8  1  0  0  0  0
 10  6  1  0  0  0  0
 11 15  1  0  0  0  0
 11 10  2  0  0  0  0
 12 13  2  0  0  0  0
 13 10  1  0  0  0  0
 13 17  1  0  0  0  0
 16 12  1  0  0  0  0
 16  3  1  0  0  0  0
 17  7  1  0  0  0  0
 18  1  1  0  0  0  0
 22  2  1  0  0  0  0
 23  2  1  0  0  0  0
 24  3  1  0  0  0  0
 27  4  1  0  0  0  0
 28  5  1  0  0  0  0
M  END
>  <HBA>
4

>  <HBD>
0

>  <TPSA>
44.76

>  <cid>
47371

>  <dipole>
4.76

>  <excitation_energy_1>
3.257

>  <excitation_energy_2>
3.495

>  <excitation_energy_3>
3.628

>  <excitation_energy_4>
4.822

>  <homo_energy>
-5.761

>  <homo_lumo_gap>
3.927

>  <logP>
2.069

>  <lumo_energy>
-1.834

>  <melting_point>
91.23

>  <molecular_refractivity>
63.71

>  <oscillator_strength_1>
0.0212

>  <oscillator_strength_2>
0.01

>  <oscillator_strength_3>
0.3678

>  <oscillator_strength_4>
0.0094

>  <open_babel_can_smiles>
COc1ccc(c2c1C=C(CO2)C(=O)C)OC

>  <mulliken_charges>
31
1   -0.540242
2   -0.216443
3   -0.21266
4   -0.209323
5   -0.18251
6   -0.160245
7   -0.094521
8   0.419926
9   0.01824
10   0.040557
11   0.324395
12   0.316975
13   0.279414
14   -0.471295
15   -0.514556
16   -0.523785
17   -0.524073
18   0.170471
19   0.169203
20   0.179934
21   0.172439
22   0.157754
23   0.15677
24   0.160178
25   0.165868
26   0.137108
27   0.135556
28   0.144099
29   0.160054
30   0.188334
31   0.152378

>  <lowdin_charges>
31
1   -0.476793
2   -0.273594
3   -0.274452
4   -0.229169
5   -0.149756
6   -0.114278
7   -0.117399
8   0.155408
9   -0.079691
10   -0.074604
11   0.105702
12   0.053386
13   0.094661
14   -0.257868
15   -0.198405
16   -0.222611
17   -0.189939
18   0.170254
19   0.168991
20   0.174802
21   0.163876
22   0.147641
23   0.146174
24   0.156694
25   0.150876
26   0.136284
27   0.166991
28   0.171183
29   0.173818
30   0.176125
31   0.145695

$$$$

