PCCDB-ID:  66768
public computational chemistry database (PCCDB) project, http://pccdb.org

 30 30  0  0  0  0  0  0  0  0999 V2000
    2.7082    1.9623   -0.1859 C   0  0  0  0  0  0  0  0  0  0  0  0
    4.0898    1.3569   -0.4546 C   0  0  0  0  0  0  0  0  0  0  0  0
    4.0295   -0.0890   -0.9634 C   0  0  0  0  0  0  0  0  0  0  0  0
    5.4097   -0.6982   -1.2403 C   0  0  0  0  0  0  0  0  0  0  0  0
    5.3508   -2.1498   -1.7325 C   0  0  0  0  0  0  0  0  0  0  0  0
    6.1768   -6.3874   -3.1722 C   0  0  0  0  0  0  0  0  0  0  0  0
    6.7365   -2.7399   -2.0141 C   0  0  0  0  0  0  0  0  0  0  0  0
    5.7351   -5.0186   -2.7092 C   0  0  0  0  0  0  0  0  0  0  0  0
    7.7159   -6.2967   -3.1976 C   0  0  0  0  0  0  0  0  0  0  0  0
    6.7502   -4.1674   -2.4760 C   0  0  0  0  0  0  0  0  0  0  0  0
    8.0372   -4.8621   -2.7564 C   0  0  0  0  0  0  0  0  0  0  0  0
    9.1489   -4.3755   -2.6528 O   0  0  0  0  0  0  0  0  0  0  0  0
    2.7870    2.9912    0.1832 H   0  0  0  0  0  0  0  0  0  0  0  0
    2.1597    1.3802    0.5651 H   0  0  0  0  0  0  0  0  0  0  0  0
    2.0988    1.9818   -1.0979 H   0  0  0  0  0  0  0  0  0  0  0  0
    4.6897    1.3910    0.4660 H   0  0  0  0  0  0  0  0  0  0  0  0
    4.6250    1.9765   -1.1882 H   0  0  0  0  0  0  0  0  0  0  0  0
    3.4243   -0.1247   -1.8817 H   0  0  0  0  0  0  0  0  0  0  0  0
    3.4985   -0.7101   -0.2264 H   0  0  0  0  0  0  0  0  0  0  0  0
    6.0183   -0.6511   -0.3252 H   0  0  0  0  0  0  0  0  0  0  0  0
    5.9356   -0.0833   -1.9856 H   0  0  0  0  0  0  0  0  0  0  0  0
    4.7387   -2.1997   -2.6446 H   0  0  0  0  0  0  0  0  0  0  0  0
    4.8349   -2.7665   -0.9825 H   0  0  0  0  0  0  0  0  0  0  0  0
    5.7535   -6.6231   -4.1580 H   0  0  0  0  0  0  0  0  0  0  0  0
    5.8121   -7.1694   -2.4927 H   0  0  0  0  0  0  0  0  0  0  0  0
    7.3683   -2.6648   -1.1170 H   0  0  0  0  0  0  0  0  0  0  0  0
    7.2586   -2.1312   -2.7669 H   0  0  0  0  0  0  0  0  0  0  0  0
    4.6823   -4.7772   -2.5878 H   0  0  0  0  0  0  0  0  0  0  0  0
    8.1434   -6.4786   -4.1895 H   0  0  0  0  0  0  0  0  0  0  0  0
    8.1983   -7.0029   -2.5129 H   0  0  0  0  0  0  0  0  0  0  0  0
  1 13  1  0  0  0  0
  1 14  1  0  0  0  0
  2  1  1  0  0  0  0
  2 16  1  0  0  0  0
  3  2  1  0  0  0  0
  3 19  1  0  0  0  0
  4  3  1  0  0  0  0
  4 20  1  0  0  0  0
  5  4  1  0  0  0  0
  5 23  1  0  0  0  0
  6  8  1  0  0  0  0
  6 25  1  0  0  0  0
  7  5  1  0  0  0  0
  7 26  1  0  0  0  0
  8 28  1  0  0  0  0
  8 10  2  0  0  0  0
  9  6  1  0  0  0  0
  9 11  1  0  0  0  0
  9 30  1  0  0  0  0
 10  7  1  0  0  0  0
 11 12  2  0  0  0  0
 11 10  1  0  0  0  0
 15  1  1  0  0  0  0
 17  2  1  0  0  0  0
 18  3  1  0  0  0  0
 21  4  1  0  0  0  0
 22  5  1  0  0  0  0
 24  6  1  0  0  0  0
 27  7  1  0  0  0  0
 29  9  1  0  0  0  0
M  END
>  <HBA>
1

>  <HBD>
0

>  <TPSA>
17.07

>  <cid>
66768

>  <dipole>
3.19

>  <excitation_energy_1>
3.826

>  <excitation_energy_2>
5.698

>  <excitation_energy_3>
6.184

>  <excitation_energy_4>
6.473

>  <homo_energy>
-6.373

>  <homo_lumo_gap>
5.374

>  <logP>
3.246

>  <lumo_energy>
-0.999

>  <melting_point>
27.3

>  <molecular_refractivity>
52.6

>  <oscillator_strength_1>
0.0002

>  <oscillator_strength_2>
0.2144

>  <oscillator_strength_3>
0.0117

>  <oscillator_strength_4>
0.0181

>  <open_babel_can_smiles>
CCCCCCC1=CCCC1=O

>  <mulliken_charges>
30
1   -0.441607
2   -0.247103
3   -0.246723
4   -0.252627
5   -0.265431
6   -0.318902
7   -0.32296
8   -0.175865
9   -0.366753
10   0.126097
11   0.383785
12   -0.470164
13   0.142466
14   0.140958
15   0.141032
16   0.131243
17   0.131251
18   0.126157
19   0.126054
20   0.131
21   0.130964
22   0.132209
23   0.132332
24   0.159281
25   0.158872
26   0.160424
27   0.160367
28   0.142902
29   0.175202
30   0.175538

>  <lowdin_charges>
30
1   -0.444923
2   -0.273542
3   -0.276065
4   -0.275157
5   -0.275633
6   -0.277878
7   -0.270485
8   -0.139057
9   -0.311671
10   -0.049614
11   0.14321
12   -0.250644
13   0.148663
14   0.147279
15   0.146283
16   0.139456
17   0.140714
18   0.137185
19   0.138333
20   0.139928
21   0.141097
22   0.139848
23   0.141067
24   0.156956
25   0.158018
26   0.16147
27   0.162488
28   0.158881
29   0.170973
30   0.172821

$$$$

