PCCDB-ID:  24979
public computational chemistry database (PCCDB) project, http://pccdb.org

 26 26  0  0  1  0  0  0  0  0999 V2000
    0.9278    1.7792    1.0141 C   0  0  0  0  0  0  0  0  0  0  0  0
    5.0839    0.5792   -1.2638 C   0  0  0  0  0  0  0  0  0  0  0  0
    2.4263    2.0738    0.9936 C   0  0  0  0  0  0  0  0  0  0  0  0
    5.8992    5.5997   -0.7744 C   0  0  0  0  0  0  0  0  0  0  0  0
    4.9989    5.0188   -1.6713 C   0  0  0  0  0  0  0  0  0  0  0  0
    6.3524    4.8608    0.3183 C   0  0  0  0  0  0  0  0  0  0  0  0
    4.5612    3.7097   -1.4748 C   0  0  0  0  0  0  0  0  0  0  0  0
    5.9072    3.5508    0.5101 C   0  0  0  0  0  0  0  0  0  0  0  0
    4.5368    1.5110   -0.1725 C   0  0  1  0  0  0  0  0  0  0  0  0
    5.0097    2.9534   -0.3822 C   0  0  0  0  0  0  0  0  0  0  0  0
    3.0820    1.3327   -0.0851 N   0  0  0  0  0  0  0  0  0  0  0  0
    0.4401    2.2983    1.8467 H   0  0  0  0  0  0  0  0  0  0  0  0
    0.7464    0.7043    1.1155 H   0  0  0  0  0  0  0  0  0  0  0  0
    0.4461    2.1170    0.0873 H   0  0  0  0  0  0  0  0  0  0  0  0
    6.1772    0.6231   -1.3041 H   0  0  0  0  0  0  0  0  0  0  0  0
    4.7055    0.8672   -2.2527 H   0  0  0  0  0  0  0  0  0  0  0  0
    4.7722   -0.4510   -1.0661 H   0  0  0  0  0  0  0  0  0  0  0  0
    2.8784    1.7444    1.9390 H   0  0  0  0  0  0  0  0  0  0  0  0
    2.5908    3.1644    0.9341 H   0  0  0  0  0  0  0  0  0  0  0  0
    6.2414    6.6199   -0.9264 H   0  0  0  0  0  0  0  0  0  0  0  0
    4.6382    5.5869   -2.5251 H   0  0  0  0  0  0  0  0  0  0  0  0
    7.0499    5.3036    1.0249 H   0  0  0  0  0  0  0  0  0  0  0  0
    3.8581    3.2726   -2.1817 H   0  0  0  0  0  0  0  0  0  0  0  0
    6.2629    2.9821    1.3673 H   0  0  0  0  0  0  0  0  0  0  0  0
    4.9420    1.1740    0.7918 H   0  0  0  0  0  0  0  0  0  0  0  0
    2.6568    1.5906   -0.9763 H   0  0  0  0  0  0  0  0  0  0  0  0
  1 13  1  0  0  0  0
  1 12  1  0  0  0  0
  2 17  1  0  0  0  0
  2  9  1  0  0  0  0
  3  1  1  0  0  0  0
  3 18  1  0  0  0  0
  4  6  2  0  0  0  0
  5  7  2  0  0  0  0
  5  4  1  0  0  0  0
  6  8  1  0  0  0  0
  6 22  1  0  0  0  0
  7 10  1  0  0  0  0
  8 24  1  0  0  0  0
  9 11  1  0  0  0  0
  9 25  1  1  0  0  0
 10  9  1  0  0  0  0
 10  8  2  0  0  0  0
 11  3  1  0  0  0  0
 14  1  1  0  0  0  0
 15  2  1  0  0  0  0
 16  2  1  0  0  0  0
 19  3  1  0  0  0  0
 20  4  1  0  0  0  0
 21  5  1  0  0  0  0
 23  7  1  0  0  0  0
 26 11  1  0  0  0  0
M  END
>  <HBA>
1

>  <HBD>
1

>  <TPSA>
12.03

>  <cid>
24979

>  <dipole>
0.78

>  <excitation_energy_1>
4.925

>  <excitation_energy_2>
5.045

>  <excitation_energy_3>
5.376

>  <excitation_energy_4>
5.413

>  <homo_energy>
-5.853

>  <homo_lumo_gap>
5.864

>  <logP>
2.748

>  <lumo_energy>
0.011

>  <melting_point>
32.34

>  <molecular_refractivity>
48.63

>  <oscillator_strength_1>
0.0027

>  <oscillator_strength_2>
0.0217

>  <oscillator_strength_3>
0.0068

>  <oscillator_strength_4>
0.0055

>  <open_babel_can_smiles>
CCN[C@H](c1ccccc1)C

>  <mulliken_charges>
26
1   -0.449409
2   -0.443353
3   -0.110678
4   -0.131912
5   -0.128196
6   -0.124925
7   -0.18919
8   -0.194809
9   -0.05484
10   0.18719
11   -0.540064
12   0.143102
13   0.156903
14   0.136573
15   0.148929
16   0.13764
17   0.157783
18   0.135155
19   0.12599
20   0.127785
21   0.127671
22   0.127958
23   0.114794
24   0.123377
25   0.131043
26   0.285482

>  <lowdin_charges>
26
1   -0.447276
2   -0.440009
3   -0.198533
4   -0.160025
5   -0.155457
6   -0.155826
7   -0.16904
8   -0.170511
9   -0.059905
10   -0.014787
11   -0.358634
12   0.152891
13   0.153166
14   0.144352
15   0.152534
16   0.145462
17   0.156681
18   0.13959
19   0.121772
20   0.155836
21   0.157122
22   0.157937
23   0.149796
24   0.154348
25   0.141618
26   0.246897

$$$$

