PCCDB-ID:  38084
public computational chemistry database (PCCDB) project, http://pccdb.org

 28 29  0  0  0  0  0  0  0  0999 V2000
    2.5677    1.2220   -0.0580 C   0  0  0  0  0  0  0  0  0  0  0  0
    2.3439    2.5629    0.3146 C   0  0  0  0  0  0  0  0  0  0  0  0
    1.5277    0.3017   -0.1136 C   0  0  0  0  0  0  0  0  0  0  0  0
    1.0715    3.0166    0.6427 C   0  0  0  0  0  0  0  0  0  0  0  0
   -1.9713    1.0536    0.6630 C   0  0  0  0  0  0  0  0  0  0  0  0
   -2.4842   -5.4554   -0.1337 C   0  0  0  0  0  0  0  0  0  0  0  0
   -2.8030   -1.7862    0.1032 C   0  0  0  0  0  0  0  0  0  0  0  0
    0.2323    0.7341    0.2128 C   0  0  0  0  0  0  0  0  0  0  0  0
   -1.0629    0.0850    0.2680 C   0  0  0  0  0  0  0  0  0  0  0  0
    0.0309    2.0858    0.5851 C   0  0  0  0  0  0  0  0  0  0  0  0
   -1.3423   -1.3156   -0.0322 C   0  0  0  0  0  0  0  0  0  0  0  0
   -2.5471   -4.0862    0.5159 C   0  0  0  0  0  0  0  0  0  0  0  0
   -1.3241    2.2412    0.8524 N   0  0  0  0  0  0  0  0  0  0  0  0
   -2.3258   -6.4607    0.8342 O   0  0  0  0  0  0  0  0  0  0  0  0
   -0.4772   -2.1105   -0.3718 O   0  0  0  0  0  0  0  0  0  0  0  0
   -2.2689   -3.8952    1.6813 O   0  0  0  0  0  0  0  0  0  0  0  0
   -2.9376   -3.1318   -0.3504 O   0  0  0  0  0  0  0  0  0  0  0  0
    3.5762    0.9039   -0.3068 H   0  0  0  0  0  0  0  0  0  0  0  0
    3.1806    3.2551    0.3474 H   0  0  0  0  0  0  0  0  0  0  0  0
    1.6948   -0.7304   -0.3983 H   0  0  0  0  0  0  0  0  0  0  0  0
    0.8957    4.0496    0.9305 H   0  0  0  0  0  0  0  0  0  0  0  0
   -3.0372    0.9826    0.8308 H   0  0  0  0  0  0  0  0  0  0  0  0
   -1.6479   -5.4292   -0.8525 H   0  0  0  0  0  0  0  0  0  0  0  0
   -3.4004   -5.6321   -0.7103 H   0  0  0  0  0  0  0  0  0  0  0  0
   -3.4636   -1.1921   -0.5338 H   0  0  0  0  0  0  0  0  0  0  0  0
   -3.1286   -1.7029    1.1450 H   0  0  0  0  0  0  0  0  0  0  0  0
   -1.7655    3.1006    1.1435 H   0  0  0  0  0  0  0  0  0  0  0  0
   -2.0073   -6.0072    1.6360 H   0  0  0  0  0  0  0  0  0  0  0  0
  1  2  1  0  0  0  0
  2 19  1  0  0  0  0
  2  4  2  0  0  0  0
  3  1  2  0  0  0  0
  3  8  1  0  0  0  0
  4 21  1  0  0  0  0
  5 22  1  0  0  0  0
  5 13  1  0  0  0  0
  6 12  1  0  0  0  0
  6 14  1  0  0  0  0
  7 26  1  0  0  0  0
  8  9  1  0  0  0  0
  8 10  2  0  0  0  0
  9  5  2  0  0  0  0
 10  4  1  0  0  0  0
 10 13  1  0  0  0  0
 11  7  1  0  0  0  0
 11  9  1  0  0  0  0
 12 16  2  0  0  0  0
 13 27  1  0  0  0  0
 14 28  1  0  0  0  0
 15 11  2  0  0  0  0
 17  7  1  0  0  0  0
 17 12  1  0  0  0  0
 18  1  1  0  0  0  0
 20  3  1  0  0  0  0
 23  6  1  0  0  0  0
 24  6  1  0  0  0  0
 25  7  1  0  0  0  0
M  END
>  <HBA>
4

>  <HBD>
2

>  <TPSA>
79.39

>  <cid>
38084

>  <dipole>
7.31

>  <excitation_energy_1>
4.069

>  <excitation_energy_2>
4.269

>  <excitation_energy_3>
4.436

>  <excitation_energy_4>
5.046

>  <homo_energy>
-6.093

>  <homo_lumo_gap>
4.751

>  <logP>
0.886

>  <lumo_energy>
-1.342

>  <melting_point>
160.55

>  <molecular_refractivity>
60.55

>  <oscillator_strength_1>
0.0001

>  <oscillator_strength_2>
0.1562

>  <oscillator_strength_3>
0.0461

>  <oscillator_strength_4>
0.0012

>  <open_babel_can_smiles>
OCC(=O)OCC(=O)c1c[nH]c2c1cccc2

>  <mulliken_charges>
28
1   -0.141021
2   -0.145332
3   -0.192338
4   -0.161892
5   0.015615
6   -0.085879
7   -0.144261
8   0.082314
9   0.006991
10   0.312325
11   0.396183
12   0.593323
13   -0.689626
14   -0.620918
15   -0.476499
16   -0.483022
17   -0.442781
18   0.131735
19   0.131084
20   0.167251
21   0.1281
22   0.16702
23   0.173046
24   0.166268
25   0.174773
26   0.191242
27   0.337778
28   0.408522

>  <lowdin_charges>
28
1   -0.16481
2   -0.156567
3   -0.145602
4   -0.183487
5   -0.101062
6   -0.155486
7   -0.170261
8   -0.015526
9   -0.100231
10   0.031754
11   0.15157
12   0.186909
13   -0.177766
14   -0.460776
15   -0.248368
16   -0.26607
17   -0.165524
18   0.159232
19   0.160473
20   0.177418
21   0.157534
22   0.170826
23   0.162389
24   0.162327
25   0.170115
26   0.172258
27   0.29779
28   0.350941

$$$$

