PCCDB-ID:  16391
public computational chemistry database (PCCDB) project, http://pccdb.org

 31 30  0  0  0  0  0  0  0  0999 V2000
    3.6484   -0.2295   -1.4472 C   0  0  0  0  0  0  0  0  0  0  0  0
    3.9730    4.2836   -1.1019 C   0  0  0  0  0  0  0  0  0  0  0  0
    2.9988    4.4937    1.2151 C   0  0  0  0  0  0  0  0  0  0  0  0
    5.3964    3.8515    0.8958 C   0  0  0  0  0  0  0  0  0  0  0  0
    1.6367    2.0635   -1.0706 C   0  0  0  0  0  0  0  0  0  0  0  0
    1.5788    1.5214    1.3814 C   0  0  0  0  0  0  0  0  0  0  0  0
    2.8390    0.0292   -0.1736 C   0  0  0  0  0  0  0  0  0  0  0  0
    3.9730    3.6894    0.3226 C   0  0  0  0  0  0  0  0  0  0  0  0
    2.4594    1.5139    0.1059 C   0  0  0  0  0  0  0  0  0  0  0  0
    3.7508    2.2225    0.2780 N   0  0  0  0  0  0  0  0  0  0  0  0
    3.9727   -1.2758   -1.4909 H   0  0  0  0  0  0  0  0  0  0  0  0
    4.5348    0.4108   -1.4716 H   0  0  0  0  0  0  0  0  0  0  0  0
    3.0616   -0.0324   -2.3514 H   0  0  0  0  0  0  0  0  0  0  0  0
    4.3334    5.3191   -1.0786 H   0  0  0  0  0  0  0  0  0  0  0  0
    2.9767    4.2960   -1.5503 H   0  0  0  0  0  0  0  0  0  0  0  0
    4.6335    3.7008   -1.7519 H   0  0  0  0  0  0  0  0  0  0  0  0
    3.3045    5.5467    1.2581 H   0  0  0  0  0  0  0  0  0  0  0  0
    2.9895    4.1065    2.2403 H   0  0  0  0  0  0  0  0  0  0  0  0
    1.9745    4.4685    0.8305 H   0  0  0  0  0  0  0  0  0  0  0  0
    5.6979    4.9041    0.8982 H   0  0  0  0  0  0  0  0  0  0  0  0
    6.1166    3.2839    0.2970 H   0  0  0  0  0  0  0  0  0  0  0  0
    5.4485    3.4883    1.9309 H   0  0  0  0  0  0  0  0  0  0  0  0
    0.7840    1.4006   -1.2580 H   0  0  0  0  0  0  0  0  0  0  0  0
    2.2288    2.1224   -1.9872 H   0  0  0  0  0  0  0  0  0  0  0  0
    1.2329    3.0584   -0.8584 H   0  0  0  0  0  0  0  0  0  0  0  0
    0.6982    0.8803    1.2498 H   0  0  0  0  0  0  0  0  0  0  0  0
    1.2242    2.5238    1.6337 H   0  0  0  0  0  0  0  0  0  0  0  0
    2.1415    1.1355    2.2413 H   0  0  0  0  0  0  0  0  0  0  0  0
    3.4102   -0.3379    0.6926 H   0  0  0  0  0  0  0  0  0  0  0  0
    1.9141   -0.5633   -0.1943 H   0  0  0  0  0  0  0  0  0  0  0  0
    4.2004    1.8138    1.0947 H   0  0  0  0  0  0  0  0  0  0  0  0
  1  7  1  0  0  0  0
  2 14  1  0  0  0  0
  2  8  1  0  0  0  0
  3 17  1  0  0  0  0
  3 18  1  0  0  0  0
  4 20  1  0  0  0  0
  4 22  1  0  0  0  0
  5 25  1  0  0  0  0
  5  9  1  0  0  0  0
  6 27  1  0  0  0  0
  6 28  1  0  0  0  0
  7  9  1  0  0  0  0
  7 29  1  0  0  0  0
  8  4  1  0  0  0  0
  8  3  1  0  0  0  0
  9 10  1  0  0  0  0
  9  6  1  0  0  0  0
 10  8  1  0  0  0  0
 10 31  1  0  0  0  0
 11  1  1  0  0  0  0
 12  1  1  0  0  0  0
 13  1  1  0  0  0  0
 15  2  1  0  0  0  0
 16  2  1  0  0  0  0
 19  3  1  0  0  0  0
 21  4  1  0  0  0  0
 23  5  1  0  0  0  0
 24  5  1  0  0  0  0
 26  6  1  0  0  0  0
 30  7  1  0  0  0  0
M  END
>  <HBA>
1

>  <HBD>
1

>  <TPSA>
12.03

>  <cid>
16391

>  <dipole>
0.75

>  <excitation_energy_1>
5.063

>  <excitation_energy_2>
5.632

>  <excitation_energy_3>
5.658

>  <excitation_energy_4>
5.746

>  <homo_energy>
-5.562

>  <homo_lumo_gap>
7.377

>  <logP>
2.954

>  <lumo_energy>
1.815

>  <melting_point>
20.67

>  <molecular_refractivity>
48.25

>  <oscillator_strength_1>
0.0244

>  <oscillator_strength_2>
0.0017

>  <oscillator_strength_3>
0.0008

>  <oscillator_strength_4>
0.0045

>  <open_babel_can_smiles>
CCC(NC(C)(C)C)(C)C

>  <mulliken_charges>
31
1   -0.444954
2   -0.43506
3   -0.446843
4   -0.461063
5   -0.463076
6   -0.448504
7   -0.243424
8   0.233544
9   0.225705
10   -0.586036
11   0.133467
12   0.161063
13   0.137916
14   0.130448
15   0.141829
16   0.148253
17   0.135233
18   0.136403
19   0.1439
20   0.142501
21   0.153958
22   0.132349
23   0.138915
24   0.15926
25   0.143744
26   0.134374
27   0.144583
28   0.127197
29   0.116811
30   0.123668
31   0.283841

>  <lowdin_charges>
31
1   -0.449756
2   -0.449118
3   -0.454263
4   -0.444983
5   -0.448154
6   -0.46013
7   -0.275455
8   0.076584
9   0.070653
10   -0.364129
11   0.145258
12   0.156604
13   0.144764
14   0.143694
15   0.14969
16   0.154687
17   0.146619
18   0.145402
19   0.145763
20   0.149485
21   0.155649
22   0.141405
23   0.151315
24   0.157216
25   0.146813
26   0.146756
27   0.150611
28   0.142475
29   0.135369
30   0.138581
31   0.250599

$$$$

