PCCDB-ID:  47457
public computational chemistry database (PCCDB) project, http://pccdb.org

 26 27  0  0  0  0  0  0  0  0999 V2000
    2.7401    0.1201    0.0041 C   0  0  0  0  0  0  0  0  0  0  0  0
    1.9770   -1.0535   -0.6277 C   0  0  0  0  0  0  0  0  0  0  0  0
    1.8591    1.3753    0.0821 C   0  0  0  0  0  0  0  0  0  0  0  0
    0.6598   -1.3268    0.1141 C   0  0  0  0  0  0  0  0  0  0  0  0
    0.5424    1.0896    0.8209 C   0  0  0  0  0  0  0  0  0  0  0  0
   -0.8806    0.2863   -1.1631 C   0  0  0  0  0  0  0  0  0  0  0  0
   -1.5348   -0.4042    1.0771 C   0  0  0  0  0  0  0  0  0  0  0  0
   -2.3655    0.1402   -0.8994 C   0  0  0  0  0  0  0  0  0  0  0  0
   -0.2564   -0.0864    0.2138 C   0  0  0  0  0  0  0  0  0  0  0  0
   -2.7320   -0.2200    0.2608 N   0  0  0  0  0  0  0  0  0  0  0  0
   -3.2765    0.3864   -1.8759 O   0  0  0  0  0  0  0  0  0  0  0  0
    3.6567    0.3303   -0.5616 H   0  0  0  0  0  0  0  0  0  0  0  0
    3.0566   -0.1612    1.0195 H   0  0  0  0  0  0  0  0  0  0  0  0
    2.5984   -1.9580   -0.6279 H   0  0  0  0  0  0  0  0  0  0  0  0
    1.7692   -0.8239   -1.6833 H   0  0  0  0  0  0  0  0  0  0  0  0
    1.6446    1.7311   -0.9367 H   0  0  0  0  0  0  0  0  0  0  0  0
    2.3971    2.1897    0.5836 H   0  0  0  0  0  0  0  0  0  0  0  0
    0.8923   -1.6667    1.1343 H   0  0  0  0  0  0  0  0  0  0  0  0
    0.1117   -2.1493   -0.3657 H   0  0  0  0  0  0  0  0  0  0  0  0
   -0.0888    1.9887    0.8445 H   0  0  0  0  0  0  0  0  0  0  0  0
    0.7702    0.8470    1.8694 H   0  0  0  0  0  0  0  0  0  0  0  0
   -0.6390    1.3091   -1.4840 H   0  0  0  0  0  0  0  0  0  0  0  0
   -0.5615   -0.3812   -1.9757 H   0  0  0  0  0  0  0  0  0  0  0  0
   -1.5953    0.2493    1.9582 H   0  0  0  0  0  0  0  0  0  0  0  0
   -1.5128   -1.4347    1.4575 H   0  0  0  0  0  0  0  0  0  0  0  0
   -2.8067    0.6476   -2.6822 H   0  0  0  0  0  0  0  0  0  0  0  0
  1  3  1  0  0  0  0
  1 13  1  0  0  0  0
  2  1  1  0  0  0  0
  2  4  1  0  0  0  0
  3 17  1  0  0  0  0
  3  5  1  0  0  0  0
  4  9  1  0  0  0  0
  4 18  1  0  0  0  0
  5 20  1  0  0  0  0
  5 21  1  0  0  0  0
  6  8  1  0  0  0  0
  6  9  1  0  0  0  0
  7 25  1  0  0  0  0
  7 24  1  0  0  0  0
  8 10  2  0  0  0  0
  9  5  1  0  0  0  0
  9  7  1  0  0  0  0
 10  7  1  0  0  0  0
 11  8  1  0  0  0  0
 12  1  1  0  0  0  0
 14  2  1  0  0  0  0
 15  2  1  0  0  0  0
 16  3  1  0  0  0  0
 19  4  1  0  0  0  0
 22  6  1  0  0  0  0
 23  6  1  0  0  0  0
 26 11  1  0  0  0  0
M  END
>  <HBA>
2

>  <HBD>
1

>  <TPSA>
29.1

>  <cid>
47457

>  <dipole>
3.96

>  <excitation_energy_1>
5.697

>  <excitation_energy_2>
5.893

>  <excitation_energy_3>
6.116

>  <excitation_energy_4>
6.412

>  <homo_energy>
-6.656

>  <homo_lumo_gap>
7.606

>  <logP>
1.786

>  <lumo_energy>
0.95

>  <melting_point>
83.86

>  <molecular_refractivity>
47.81

>  <oscillator_strength_1>
0.0043

>  <oscillator_strength_2>
0.01

>  <oscillator_strength_3>
0.0022

>  <oscillator_strength_4>
0.0006

>  <open_babel_can_smiles>
OC1=NCC2(C1)CCCCC2

>  <mulliken_charges>
26
1   -0.255082
2   -0.263479
3   -0.263074
4   -0.287611
5   -0.287581
6   -0.404846
7   -0.168314
8   0.495463
9   0.111728
10   -0.419443
11   -0.588732
12   0.131864
13   0.130139
14   0.134902
15   0.127556
16   0.127465
17   0.134823
18   0.133091
19   0.133648
20   0.13371
21   0.133105
22   0.157019
23   0.157388
24   0.143514
25   0.143608
26   0.409135

>  <lowdin_charges>
26
1   -0.277042
2   -0.279457
3   -0.280675
4   -0.278963
5   -0.27793
6   -0.321985
7   -0.202613
8   0.108083
9   -0.002475
10   -0.203837
11   -0.357696
12   0.144409
13   0.137926
14   0.146344
15   0.134526
16   0.135139
17   0.147101
18   0.140599
19   0.144578
20   0.143945
21   0.140102
22   0.154599
23   0.156361
24   0.145207
25   0.143972
26   0.359782

$$$$

