PCCDB-ID:  33199
public computational chemistry database (PCCDB) project, http://pccdb.org

 32 35  0  0  0  0  0  0  0  0999 V2000
    0.9149   -0.0866   -0.0627 C   0  0  0  0  0  0  0  0  0  0  0  0
    2.4261   -2.6203   -0.0623 C   0  0  0  0  0  0  0  0  0  0  0  0
    6.5974    4.4157   -0.0662 C   0  0  0  0  0  0  0  0  0  0  0  0
    9.0878    0.2435   -0.0659 C   0  0  0  0  0  0  0  0  0  0  0  0
    7.8485    3.8227   -0.0663 C   0  0  0  0  0  0  0  0  0  0  0  0
    9.1596    1.6261   -0.0661 C   0  0  0  0  0  0  0  0  0  0  0  0
    5.3921    3.6583   -0.0658 C   0  0  0  0  0  0  0  0  0  0  0  0
    7.8491   -0.4580   -0.0654 C   0  0  0  0  0  0  0  0  0  0  0  0
    3.1160    1.1416   -0.0646 C   0  0  0  0  0  0  0  0  0  0  0  0
    4.5533   -1.2669   -0.0642 C   0  0  0  0  0  0  0  0  0  0  0  0
    2.4259   -0.0802   -0.0639 C   0  0  0  0  0  0  0  0  0  0  0  0
    3.1503   -1.2943   -0.0637 C   0  0  0  0  0  0  0  0  0  0  0  0
    7.9655    2.4029   -0.0662 C   0  0  0  0  0  0  0  0  0  0  0  0
    5.4735    2.2805   -0.0656 C   0  0  0  0  0  0  0  0  0  0  0  0
    6.6750    0.2676   -0.0654 C   0  0  0  0  0  0  0  0  0  0  0  0
    4.5058    1.1663   -0.0652 C   0  0  0  0  0  0  0  0  0  0  0  0
    5.2349   -0.0554   -0.0650 C   0  0  0  0  0  0  0  0  0  0  0  0
    6.7606    1.6837   -0.0657 C   0  0  0  0  0  0  0  0  0  0  0  0
    0.5172    0.9328   -0.0664 H   0  0  0  0  0  0  0  0  0  0  0  0
    0.5096   -0.5991    0.8199 H   0  0  0  0  0  0  0  0  0  0  0  0
    0.5081   -0.6062   -0.9403 H   0  0  0  0  0  0  0  0  0  0  0  0
    3.1332   -3.4553   -0.0668 H   0  0  0  0  0  0  0  0  0  0  0  0
    1.7750   -2.7307   -0.9396 H   0  0  0  0  0  0  0  0  0  0  0  0
    1.7833   -2.7332    0.8207 H   0  0  0  0  0  0  0  0  0  0  0  0
    6.5270    5.5004   -0.0662 H   0  0  0  0  0  0  0  0  0  0  0  0
   10.0091   -0.3333   -0.0658 H   0  0  0  0  0  0  0  0  0  0  0  0
    8.7435    4.4402   -0.0667 H   0  0  0  0  0  0  0  0  0  0  0  0
   10.1279    2.1208   -0.0665 H   0  0  0  0  0  0  0  0  0  0  0  0
    4.4363    4.1763   -0.0664 H   0  0  0  0  0  0  0  0  0  0  0  0
    7.8514   -1.5451   -0.0657 H   0  0  0  0  0  0  0  0  0  0  0  0
    2.5487    2.0700   -0.0642 H   0  0  0  0  0  0  0  0  0  0  0  0
    5.1016   -2.2067   -0.0636 H   0  0  0  0  0  0  0  0  0  0  0  0
  1 20  1  0  0  0  0
  2 24  1  0  0  0  0
  3 25  1  0  0  0  0
  3  7  1  0  0  0  0
  4 26  1  0  0  0  0
  4  8  1  0  0  0  0
  5  3  2  0  0  0  0
  5 13  1  0  0  0  0
  6  4  2  0  0  0  0
  7 14  2  0  0  0  0
  8 15  2  0  0  0  0
  9 31  1  0  0  0  0
  9 11  1  0  0  0  0
 10 12  1  0  0  0  0
 10 32  1  0  0  0  0
 11 12  2  0  0  0  0
 11  1  1  0  0  0  0
 12  2  1  0  0  0  0
 13  6  1  0  0  0  0
 13 18  2  0  0  0  0
 14 16  1  0  0  0  0
 15 17  1  0  0  0  0
 16 17  1  0  0  0  0
 16  9  2  0  0  0  0
 17 10  2  0  0  0  0
 18 14  1  0  0  0  0
 18 15  1  0  0  0  0
 19  1  1  0  0  0  0
 21  1  1  0  0  0  0
 22  2  1  0  0  0  0
 23  2  1  0  0  0  0
 27  5  1  0  0  0  0
 28  6  1  0  0  0  0
 29  7  1  0  0  0  0
 30  8  1  0  0  0  0
M  END
>  <HBA>
0

>  <HBD>
0

>  <TPSA>
0.0

>  <cid>
33199

>  <dipole>
0.49

>  <excitation_energy_1>
3.213

>  <excitation_energy_2>
3.534

>  <excitation_energy_3>
4.145

>  <excitation_energy_4>
4.492

>  <homo_energy>
-5.646

>  <homo_lumo_gap>
3.989

>  <logP>
5.104

>  <lumo_energy>
-1.657

>  <melting_point>
131.57

>  <molecular_refractivity>
78.31

>  <oscillator_strength_1>
0.0078

>  <oscillator_strength_2>
0.1891

>  <oscillator_strength_3>
0.0266

>  <oscillator_strength_4>
0.2665

>  <open_babel_can_smiles>
Cc1cc2c(cc1C)c1c3c2cccc3ccc1

>  <mulliken_charges>
32
1   -0.536496
2   -0.536335
3   -0.130645
4   -0.130631
5   -0.207953
6   -0.207834
7   -0.222334
8   -0.22274
9   -0.265029
10   -0.265265
11   0.129956
12   0.130408
13   0.198175
14   0.115992
15   0.116499
16   0.07239
17   0.07239
18   -0.084087
19   0.155187
20   0.159291
21   0.159216
22   0.155105
23   0.159159
24   0.159246
25   0.129093
26   0.129089
27   0.129976
28   0.129886
29   0.13206
30   0.132134
31   0.12202
32   0.122076

>  <lowdin_charges>
32
1   -0.442013
2   -0.442059
3   -0.153621
4   -0.156753
5   -0.1554
6   -0.154706
7   -0.152435
8   -0.14941
9   -0.167128
10   -0.167387
11   -0.007186
12   -0.008033
13   -0.000591
14   -0.003091
15   -0.003978
16   -0.0119
17   -0.01107
18   -0.017897
19   0.156025
20   0.158738
21   0.158729
22   0.157186
23   0.158443
24   0.158461
25   0.156496
26   0.158951
27   0.158969
28   0.158315
29   0.158949
30   0.156778
31   0.15435
32   0.15427

$$$$

