PCCDB-ID:  9297
public computational chemistry database (PCCDB) project, http://pccdb.org

 25 24  0  0  1  0  0  0  0  0999 V2000
    1.8822   -1.2587    3.1598 C   0  0  0  0  0  0  0  0  0  0  0  0
    6.4810    1.3005    1.1639 C   0  0  0  0  0  0  0  0  0  0  0  0
    4.2227    1.7571    0.1456 C   0  0  0  0  0  0  0  0  0  0  0  0
    2.4158   -0.4978    2.1979 C   0  0  0  0  0  0  0  0  0  0  0  0
    3.2537   -1.0097    1.0526 C   0  0  0  0  0  0  0  0  0  0  0  0
    4.9844    0.9529    1.2115 C   0  0  0  0  0  0  0  0  0  0  0  0
    4.7557   -0.5793    1.0525 C   0  0  1  0  0  0  0  0  0  0  0  0
    5.5636   -1.3735    2.0812 C   0  0  0  0  0  0  0  0  0  0  0  0
    6.5829   -2.0999    1.8560 N   0  0  0  0  0  0  0  0  0  0  0  0
    5.1699   -1.2437    3.3780 O   0  0  0  0  0  0  0  0  0  0  0  0
    1.2697   -0.8336    3.9506 H   0  0  0  0  0  0  0  0  0  0  0  0
    2.0295   -2.3366    3.1839 H   0  0  0  0  0  0  0  0  0  0  0  0
    6.6260    2.3806    1.2791 H   0  0  0  0  0  0  0  0  0  0  0  0
    6.9199    1.0080    0.2008 H   0  0  0  0  0  0  0  0  0  0  0  0
    7.0443    0.7969    1.9547 H   0  0  0  0  0  0  0  0  0  0  0  0
    4.4362    2.8267    0.2508 H   0  0  0  0  0  0  0  0  0  0  0  0
    3.1368    1.6331    0.2134 H   0  0  0  0  0  0  0  0  0  0  0  0
    4.5305    1.4577   -0.8648 H   0  0  0  0  0  0  0  0  0  0  0  0
    2.2282    0.5761    2.2197 H   0  0  0  0  0  0  0  0  0  0  0  0
    2.8070   -0.6600    0.1132 H   0  0  0  0  0  0  0  0  0  0  0  0
    3.2093   -2.1053    1.0293 H   0  0  0  0  0  0  0  0  0  0  0  0
    4.6077    1.2517    2.2002 H   0  0  0  0  0  0  0  0  0  0  0  0
    5.1535   -0.8642    0.0693 H   0  0  0  0  0  0  0  0  0  0  0  0
    6.8011   -2.0854    0.8585 H   0  0  0  0  0  0  0  0  0  0  0  0
    4.2742   -0.8641    3.4157 H   0  0  0  0  0  0  0  0  0  0  0  0
  1 12  1  0  0  0  0
  1 11  1  0  0  0  0
  2  6  1  0  0  0  0
  2 13  1  0  0  0  0
  2 15  1  0  0  0  0
  3 17  1  0  0  0  0
  3 16  1  0  0  0  0
  3  6  1  0  0  0  0
  4 19  1  0  0  0  0
  4  1  2  0  0  0  0
  5  4  1  0  0  0  0
  6 22  1  0  0  0  0
  7 23  1  6  0  0  0
  7  5  1  0  0  0  0
  7  6  1  0  0  0  0
  7  8  1  0  0  0  0
  8 10  1  0  0  0  0
  9  8  2  0  0  0  0
 10 25  1  0  0  0  0
 14  2  1  0  0  0  0
 18  3  1  0  0  0  0
 20  5  1  0  0  0  0
 21  5  1  0  0  0  0
 24  9  1  0  0  0  0
M  END
>  <HBA>
2

>  <HBD>
1

>  <TPSA>
43.09

>  <cid>
9297

>  <dipole>
4.67

>  <excitation_energy_1>
5.757

>  <excitation_energy_2>
5.847

>  <excitation_energy_3>
6.096

>  <excitation_energy_4>
6.345

>  <homo_energy>
-6.77

>  <homo_lumo_gap>
6.536

>  <logP>
2.02

>  <lumo_energy>
-0.234

>  <melting_point>
27.15

>  <molecular_refractivity>
43.0

>  <oscillator_strength_1>
0.015

>  <oscillator_strength_2>
0.0124

>  <oscillator_strength_3>
0.0036

>  <oscillator_strength_4>
0.0082

>  <open_babel_can_smiles>
C=CC[C@H](C(=N)O)C(C)C

>  <mulliken_charges>
25
1   -0.337299
2   -0.457789
3   -0.455324
4   -0.098287
5   -0.323814
6   -0.073658
7   -0.171281
8   0.47858
9   -0.5921
10   -0.59762
11   0.155855
12   0.161855
13   0.143781
14   0.138315
15   0.178031
16   0.151228
17   0.143751
18   0.144664
19   0.145455
20   0.16183
21   0.160288
22   0.126537
23   0.128506
24   0.277776
25   0.410718

>  <lowdin_charges>
25
1   -0.328819
2   -0.447612
3   -0.443114
4   -0.161671
5   -0.279604
6   -0.123534
7   -0.158479
8   0.122432
9   -0.402501
10   -0.373787
11   0.166679
12   0.163621
13   0.149336
14   0.145759
15   0.167235
16   0.153371
17   0.145294
18   0.148037
19   0.154953
20   0.161819
21   0.157191
22   0.137327
23   0.148072
24   0.249543
25   0.348451

$$$$

