PCCDB-ID:  12578
public computational chemistry database (PCCDB) project, http://pccdb.org

 26 26  0  0  0  0  0  0  0  0999 V2000
    3.6365    0.8362    0.6495 C   0  0  0  0  0  0  0  0  0  0  0  0
    1.1367    0.7833    0.2000 C   0  0  0  0  0  0  0  0  0  0  0  0
    3.6400   -1.6354   -6.2729 C   0  0  0  0  0  0  0  0  0  0  0  0
    2.7230   -2.0387   -1.3487 C   0  0  0  0  0  0  0  0  0  0  0  0
    2.9223    0.1504   -2.3228 C   0  0  0  0  0  0  0  0  0  0  0  0
    2.9491   -2.6182   -2.5922 C   0  0  0  0  0  0  0  0  0  0  0  0
    3.1507   -0.4238   -3.5707 C   0  0  0  0  0  0  0  0  0  0  0  0
    2.4488   -0.0246    0.1786 C   0  0  0  0  0  0  0  0  0  0  0  0
    3.4022   -2.4934   -5.0395 C   0  0  0  0  0  0  0  0  0  0  0  0
    2.7033   -0.6450   -1.1878 C   0  0  0  0  0  0  0  0  0  0  0  0
    3.1667   -1.8186   -3.7239 C   0  0  0  0  0  0  0  0  0  0  0  0
    3.4051   -3.7127   -5.1251 O   0  0  0  0  0  0  0  0  0  0  0  0
    3.4571    1.2157    1.6623 H   0  0  0  0  0  0  0  0  0  0  0  0
    3.7871    1.7013   -0.0070 H   0  0  0  0  0  0  0  0  0  0  0  0
    4.5669    0.2583    0.6610 H   0  0  0  0  0  0  0  0  0  0  0  0
    0.9444    1.1782    1.2045 H   0  0  0  0  0  0  0  0  0  0  0  0
    0.2830    0.1624   -0.0924 H   0  0  0  0  0  0  0  0  0  0  0  0
    1.1827    1.6345   -0.4897 H   0  0  0  0  0  0  0  0  0  0  0  0
    4.5270   -1.0027   -6.1478 H   0  0  0  0  0  0  0  0  0  0  0  0
    2.7892   -0.9701   -6.4626 H   0  0  0  0  0  0  0  0  0  0  0  0
    3.7841   -2.2923   -7.1323 H   0  0  0  0  0  0  0  0  0  0  0  0
    2.5562   -2.6754   -0.4826 H   0  0  0  0  0  0  0  0  0  0  0  0
    2.9154    1.2337   -2.2332 H   0  0  0  0  0  0  0  0  0  0  0  0
    2.9646   -3.6965   -2.7146 H   0  0  0  0  0  0  0  0  0  0  0  0
    3.3164    0.2243   -4.4262 H   0  0  0  0  0  0  0  0  0  0  0  0
    2.3375   -0.8521    0.8922 H   0  0  0  0  0  0  0  0  0  0  0  0
  1 15  1  0  0  0  0
  1 13  1  0  0  0  0
  2 16  1  0  0  0  0
  3 19  1  0  0  0  0
  3  9  1  0  0  0  0
  4 10  1  0  0  0  0
  4 22  1  0  0  0  0
  5 23  1  0  0  0  0
  5 10  2  0  0  0  0
  6  4  2  0  0  0  0
  7  5  1  0  0  0  0
  8  2  1  0  0  0  0
  8  1  1  0  0  0  0
  8 26  1  0  0  0  0
  9 11  1  0  0  0  0
 10  8  1  0  0  0  0
 11  7  2  0  0  0  0
 11  6  1  0  0  0  0
 12  9  2  0  0  0  0
 14  1  1  0  0  0  0
 17  2  1  0  0  0  0
 18  2  1  0  0  0  0
 20  3  1  0  0  0  0
 21  3  1  0  0  0  0
 24  6  1  0  0  0  0
 25  7  1  0  0  0  0
M  END
>  <HBA>
1

>  <HBD>
0

>  <TPSA>
17.07

>  <cid>
12578

>  <dipole>
3.4

>  <excitation_energy_1>
3.765

>  <excitation_energy_2>
4.719

>  <excitation_energy_3>
4.956

>  <excitation_energy_4>
5.534

>  <homo_energy>
-6.631

>  <homo_lumo_gap>
5.26

>  <logP>
3.013

>  <lumo_energy>
-1.371

>  <melting_point>
41.72

>  <molecular_refractivity>
51.22

>  <oscillator_strength_1>
0.0001

>  <oscillator_strength_2>
0.0214

>  <oscillator_strength_3>
0.3579

>  <oscillator_strength_4>
0.0001

>  <open_babel_can_smiles>
CC(c1ccc(cc1)C(=O)C)C

>  <mulliken_charges>
26
1   -0.440585
2   -0.439639
3   -0.542559
4   -0.198265
5   -0.188486
6   -0.157054
7   -0.184805
8   -0.162609
9   0.406794
10   0.194782
11   0.076356
12   -0.455751
13   0.145282
14   0.144419
15   0.152704
16   0.145158
17   0.152492
18   0.144599
19   0.169678
20   0.16928
21   0.180461
22   0.130591
23   0.12918
24   0.162618
25   0.132384
26   0.132974

>  <lowdin_charges>
26
1   -0.440985
2   -0.44152
3   -0.476255
4   -0.16966
5   -0.164836
6   -0.123866
7   -0.150179
8   -0.119674
9   0.158446
10   0.016658
11   -0.055893
12   -0.245362
13   0.150099
14   0.148399
15   0.154328
16   0.150068
17   0.154894
18   0.148599
19   0.169463
20   0.169345
21   0.174902
22   0.158235
23   0.154555
24   0.174276
25   0.161309
26   0.144655

$$$$

