PCCDB-ID:  13213
public computational chemistry database (PCCDB) project, http://pccdb.org

 22 23  0  0  0  0  0  0  0  0999 V2000
    1.2791    0.2020   -0.5614 C   0  0  0  0  0  0  0  0  0  0  0  0
    5.5933   -0.0392    3.8212 C   0  0  0  0  0  0  0  0  0  0  0  0
    5.4890   -1.4193    3.6251 C   0  0  0  0  0  0  0  0  0  0  0  0
    4.8125    0.8439    3.0681 C   0  0  0  0  0  0  0  0  0  0  0  0
    4.6029   -1.9340    2.6729 C   0  0  0  0  0  0  0  0  0  0  0  0
    2.9773    1.0631    1.1988 C   0  0  0  0  0  0  0  0  0  0  0  0
    2.7959   -1.3545    0.8542 C   0  0  0  0  0  0  0  0  0  0  0  0
    2.6334    0.0029    0.1172 C   0  0  0  0  0  0  0  0  0  0  0  0
    3.9318    0.3311    2.1178 C   0  0  0  0  0  0  0  0  0  0  0  0
    3.8269   -1.0542    1.9213 C   0  0  0  0  0  0  0  0  0  0  0  0
    1.2242    1.1749   -1.0644 H   0  0  0  0  0  0  0  0  0  0  0  0
    0.4631    0.1595    0.1714 H   0  0  0  0  0  0  0  0  0  0  0  0
    1.0916   -0.5729   -1.3143 H   0  0  0  0  0  0  0  0  0  0  0  0
    6.2889    0.3503    4.5601 H   0  0  0  0  0  0  0  0  0  0  0  0
    6.1061   -2.0961    4.2104 H   0  0  0  0  0  0  0  0  0  0  0  0
    4.8999    1.9174    3.2206 H   0  0  0  0  0  0  0  0  0  0  0  0
    4.5285   -3.0084    2.5198 H   0  0  0  0  0  0  0  0  0  0  0  0
    2.0682    1.3586    1.7465 H   0  0  0  0  0  0  0  0  0  0  0  0
    3.3977    1.9808    0.7702 H   0  0  0  0  0  0  0  0  0  0  0  0
    3.0883   -2.1680    0.1793 H   0  0  0  0  0  0  0  0  0  0  0  0
    1.8417   -1.6555    1.3152 H   0  0  0  0  0  0  0  0  0  0  0  0
    3.4220    0.0529   -0.6470 H   0  0  0  0  0  0  0  0  0  0  0  0
  1  8  1  0  0  0  0
  1 12  1  0  0  0  0
  2 14  1  0  0  0  0
  3  2  1  0  0  0  0
  3 15  1  0  0  0  0
  4 16  1  0  0  0  0
  4  2  2  0  0  0  0
  5  3  2  0  0  0  0
  6 18  1  0  0  0  0
  6  9  1  0  0  0  0
  7 21  1  0  0  0  0
  7 10  1  0  0  0  0
  8  7  1  0  0  0  0
  8  6  1  0  0  0  0
  9  4  1  0  0  0  0
 10  9  2  0  0  0  0
 10  5  1  0  0  0  0
 11  1  1  0  0  0  0
 13  1  1  0  0  0  0
 17  5  1  0  0  0  0
 19  6  1  0  0  0  0
 20  7  1  0  0  0  0
 22  8  1  0  0  0  0
M  END
>  <HBA>
0

>  <HBD>
0

>  <TPSA>
0.0

>  <cid>
13213

>  <dipole>
0.54

>  <excitation_energy_1>
5.161

>  <excitation_energy_2>
5.791

>  <excitation_energy_3>
5.854

>  <excitation_energy_4>
6.066

>  <homo_energy>
-6.177

>  <homo_lumo_gap>
6.299

>  <logP>
2.421

>  <lumo_energy>
0.122

>  <melting_point>
33.24

>  <molecular_refractivity>
43.87

>  <oscillator_strength_1>
0.0216

>  <oscillator_strength_2>
0.0022

>  <oscillator_strength_3>
0.0044

>  <oscillator_strength_4>
0.0028

>  <open_babel_can_smiles>
CC1Cc2c(C1)cccc2

>  <mulliken_charges>
22
1   -0.450553
2   -0.132817
3   -0.132915
4   -0.198237
5   -0.198387
6   -0.347528
7   -0.347503
8   -0.085406
9   0.130085
10   0.130419
11   0.14313
12   0.14057
13   0.143112
14   0.123849
15   0.123813
16   0.121664
17   0.1217
18   0.146064
19   0.14365
20   0.143682
21   0.145997
22   0.13561

>  <lowdin_charges>
22
1   -0.445628
2   -0.160986
3   -0.162162
4   -0.164815
5   -0.164843
6   -0.281183
7   -0.281723
8   -0.118724
9   -0.013963
10   -0.013335
11   0.149501
12   0.146446
13   0.150476
14   0.156053
15   0.156636
16   0.152489
17   0.152464
18   0.149626
19   0.150653
20   0.151129
21   0.149236
22   0.142653

$$$$

