PCCDB-ID:  8351
public computational chemistry database (PCCDB) project, http://pccdb.org

 28 29  0  0  0  0  0  0  0  0999 V2000
    1.1080    0.1571   -0.0100 C   0  0  0  0  0  0  0  0  0  0  0  0
    3.2978    2.1490   -1.1384 C   0  0  0  0  0  0  0  0  0  0  0  0
    3.2884    2.0156    1.3895 C   0  0  0  0  0  0  0  0  0  0  0  0
    2.5173   -2.4359   -0.0517 C   0  0  0  0  0  0  0  0  0  0  0  0
    7.1542    0.0408    0.0319 C   0  0  0  0  0  0  0  0  0  0  0  0
    6.9008   -1.3300   -0.0136 C   0  0  0  0  0  0  0  0  0  0  0  0
    6.0834    0.9481    0.0639 C   0  0  0  0  0  0  0  0  0  0  0  0
    5.5923   -1.8299   -0.0289 C   0  0  0  0  0  0  0  0  0  0  0  0
    2.4465    0.0527    0.0207 C   0  0  0  0  0  0  0  0  0  0  0  0
    4.7834    0.4696    0.0492 C   0  0  0  0  0  0  0  0  0  0  0  0
    4.5408   -0.9142    0.0051 C   0  0  0  0  0  0  0  0  0  0  0  0
    3.4553    1.2150    0.0795 C   0  0  0  0  0  0  0  0  0  0  0  0
    3.1635   -1.1472    0.0044 N   0  0  0  0  0  0  0  0  0  0  0  0
    0.6353    1.1321    0.0117 H   0  0  0  0  0  0  0  0  0  0  0  0
    0.4528   -0.7053   -0.0554 H   0  0  0  0  0  0  0  0  0  0  0  0
    2.3110    2.6253   -1.1368 H   0  0  0  0  0  0  0  0  0  0  0  0
    3.4072    1.5953   -2.0761 H   0  0  0  0  0  0  0  0  0  0  0  0
    4.0583    2.9383   -1.1169 H   0  0  0  0  0  0  0  0  0  0  0  0
    2.2995    2.4859    1.4314 H   0  0  0  0  0  0  0  0  0  0  0  0
    4.0465    2.8048    1.4573 H   0  0  0  0  0  0  0  0  0  0  0  0
    3.3939    1.3655    2.2638 H   0  0  0  0  0  0  0  0  0  0  0  0
    1.9518   -2.5567   -0.9861 H   0  0  0  0  0  0  0  0  0  0  0  0
    1.8192   -2.5526    0.7875 H   0  0  0  0  0  0  0  0  0  0  0  0
    3.2645   -3.2281    0.0092 H   0  0  0  0  0  0  0  0  0  0  0  0
    8.1767    0.4068    0.0417 H   0  0  0  0  0  0  0  0  0  0  0  0
    7.7311   -2.0312   -0.0398 H   0  0  0  0  0  0  0  0  0  0  0  0
    6.2768    2.0179    0.0975 H   0  0  0  0  0  0  0  0  0  0  0  0
    5.4184   -2.9009   -0.0685 H   0  0  0  0  0  0  0  0  0  0  0  0
  1 14  1  0  0  0  0
  1  9  2  0  0  0  0
  2 16  1  0  0  0  0
  2 18  1  0  0  0  0
  2 12  1  0  0  0  0
  3 19  1  0  0  0  0
  3 20  1  0  0  0  0
  3 21  1  0  0  0  0
  4 13  1  0  0  0  0
  4 24  1  0  0  0  0
  4 23  1  0  0  0  0
  5 25  1  0  0  0  0
  5  7  2  0  0  0  0
  6  5  1  0  0  0  0
  7 27  1  0  0  0  0
  8  6  2  0  0  0  0
  8 11  1  0  0  0  0
  9 12  1  0  0  0  0
 10  7  1  0  0  0  0
 10 12  1  0  0  0  0
 11 10  2  0  0  0  0
 12  3  1  0  0  0  0
 13 11  1  0  0  0  0
 13  9  1  0  0  0  0
 15  1  1  0  0  0  0
 17  2  1  0  0  0  0
 22  4  1  0  0  0  0
 26  6  1  0  0  0  0
 28  8  1  0  0  0  0
M  END
>  <HBA>
1

>  <HBD>
0

>  <TPSA>
3.24

>  <cid>
8351

>  <dipole>
0.74

>  <excitation_energy_1>
4.079

>  <excitation_energy_2>
4.375

>  <excitation_energy_3>
4.576

>  <excitation_energy_4>
4.775

>  <homo_energy>
-4.8

>  <homo_lumo_gap>
4.898

>  <logP>
2.993

>  <lumo_energy>
0.098

>  <melting_point>
27.85

>  <molecular_refractivity>
60.27

>  <oscillator_strength_1>
0.0216

>  <oscillator_strength_2>
0.0254

>  <oscillator_strength_3>
0.3858

>  <oscillator_strength_4>
0.0001

>  <open_babel_can_smiles>
CN1c2ccccc2C(C1=C)(C)C

>  <mulliken_charges>
28
1   -0.480637
2   -0.431315
3   -0.429629
4   -0.326839
5   -0.141824
6   -0.137438
7   -0.212802
8   -0.188009
9   0.425535
10   0.090632
11   0.350557
12   -0.070224
13   -0.584281
14   0.131864
15   0.129144
16   0.145528
17   0.155386
18   0.141626
19   0.145632
20   0.141698
21   0.155175
22   0.164678
23   0.166245
24   0.167884
25   0.120544
26   0.124058
27   0.122712
28   0.124099

>  <lowdin_charges>
28
1   -0.445782
2   -0.430972
3   -0.431161
4   -0.348287
5   -0.184101
6   -0.149407
7   -0.154884
8   -0.205908
9   0.058685
10   -0.034025
11   0.051227
12   0.016024
13   -0.06875
14   0.161228
15   0.159382
16   0.150573
17   0.156501
18   0.149122
19   0.150569
20   0.14913
21   0.156823
22   0.154121
23   0.157059
24   0.165271
25   0.154049
26   0.156797
27   0.153178
28   0.153538

$$$$

