PCCDB-ID:  61313
public computational chemistry database (PCCDB) project, http://pccdb.org

 27 26  0  0  0  0  0  0  0  0999 V2000
    1.8486   -1.7756    1.1318 C   0  0  0  0  0  0  0  0  0  0  0  0
    8.4917    6.8536   -0.0232 C   0  0  0  0  0  0  0  0  0  0  0  0
    3.0796   -0.9953    0.6593 C   0  0  0  0  0  0  0  0  0  0  0  0
    3.4074    0.2111    1.5482 C   0  0  0  0  0  0  0  0  0  0  0  0
    4.6379    0.9964    1.0771 C   0  0  0  0  0  0  0  0  0  0  0  0
    4.9590    2.2090    1.9748 C   0  0  0  0  0  0  0  0  0  0  0  0
    6.1874    2.9440    1.5319 C   0  0  0  0  0  0  0  0  0  0  0  0
    6.2327    4.2292    1.1587 C   0  0  0  0  0  0  0  0  0  0  0  0
    7.5045    4.8504    0.7285 C   0  0  0  0  0  0  0  0  0  0  0  0
    8.5860    4.2980    0.6599 O   0  0  0  0  0  0  0  0  0  0  0  0
    7.3155    6.1557    0.4082 O   0  0  0  0  0  0  0  0  0  0  0  0
    1.6426   -2.6307    0.4781 H   0  0  0  0  0  0  0  0  0  0  0  0
    0.9548   -1.1398    1.1400 H   0  0  0  0  0  0  0  0  0  0  0  0
    1.9895   -2.1608    2.1493 H   0  0  0  0  0  0  0  0  0  0  0  0
    8.1679    7.8736   -0.2339 H   0  0  0  0  0  0  0  0  0  0  0  0
    8.9084    6.3895   -0.9216 H   0  0  0  0  0  0  0  0  0  0  0  0
    9.2540    6.8466    0.7609 H   0  0  0  0  0  0  0  0  0  0  0  0
    2.9218   -0.6520   -0.3729 H   0  0  0  0  0  0  0  0  0  0  0  0
    3.9489   -1.6672    0.6262 H   0  0  0  0  0  0  0  0  0  0  0  0
    3.5678   -0.1314    2.5814 H   0  0  0  0  0  0  0  0  0  0  0  0
    2.5372    0.8833    1.5830 H   0  0  0  0  0  0  0  0  0  0  0  0
    4.4824    1.3440    0.0467 H   0  0  0  0  0  0  0  0  0  0  0  0
    5.5099    0.3278    1.0464 H   0  0  0  0  0  0  0  0  0  0  0  0
    5.1124    1.8489    3.0040 H   0  0  0  0  0  0  0  0  0  0  0  0
    4.0997    2.8911    2.0031 H   0  0  0  0  0  0  0  0  0  0  0  0
    7.1198    2.3794    1.5005 H   0  0  0  0  0  0  0  0  0  0  0  0
    5.3494    4.8623    1.1606 H   0  0  0  0  0  0  0  0  0  0  0  0
  1 13  1  0  0  0  0
  1 14  1  0  0  0  0
  2 11  1  0  0  0  0
  2 17  1  0  0  0  0
  3  1  1  0  0  0  0
  3  4  1  0  0  0  0
  4 21  1  0  0  0  0
  4 20  1  0  0  0  0
  5  4  1  0  0  0  0
  5  6  1  0  0  0  0
  6 25  1  0  0  0  0
  6 24  1  0  0  0  0
  7  6  1  0  0  0  0
  8 27  1  0  0  0  0
  8  7  2  0  0  0  0
  9  8  1  0  0  0  0
 10  9  2  0  0  0  0
 11  9  1  0  0  0  0
 12  1  1  0  0  0  0
 15  2  1  0  0  0  0
 16  2  1  0  0  0  0
 18  3  1  0  0  0  0
 19  3  1  0  0  0  0
 22  5  1  0  0  0  0
 23  5  1  0  0  0  0
 26  7  1  0  0  0  0
M  END
>  <HBA>
2

>  <HBD>
0

>  <TPSA>
26.3

>  <cid>
61313

>  <dipole>
1.7

>  <excitation_energy_1>
4.869

>  <excitation_energy_2>
5.888

>  <excitation_energy_3>
6.455

>  <excitation_energy_4>
6.833

>  <homo_energy>
-7.151

>  <homo_lumo_gap>
6.21

>  <logP>
2.296

>  <lumo_energy>
-0.942

>  <melting_point>
-6.32

>  <molecular_refractivity>
46.19

>  <oscillator_strength_1>
0.0001

>  <oscillator_strength_2>
0.5898

>  <oscillator_strength_3>
0.0941

>  <oscillator_strength_4>
0.0088

>  <open_babel_can_smiles>
CCCCC/C=C/C(=O)OC

>  <mulliken_charges>
27
1   -0.442009
2   -0.215516
3   -0.248239
4   -0.246686
5   -0.258942
6   -0.314728
7   -0.054277
8   -0.195702
9   0.609668
10   -0.498814
11   -0.466528
12   0.143878
13   0.142131
14   0.142226
15   0.161168
16   0.168499
17   0.168745
18   0.132904
19   0.132674
20   0.129155
21   0.129689
22   0.141865
23   0.137485
24   0.151648
25   0.144254
26   0.162664
27   0.142788

>  <lowdin_charges>
27
1   -0.444146
2   -0.27955
3   -0.271252
4   -0.273826
5   -0.271207
6   -0.271006
7   -0.09567
8   -0.215353
9   0.195705
10   -0.279215
11   -0.196881
12   0.151022
13   0.146921
14   0.145908
15   0.157597
16   0.15878
17   0.15917
18   0.139103
19   0.140482
20   0.137353
21   0.139218
22   0.143812
23   0.143227
24   0.154371
25   0.149054
26   0.170389
27   0.165993

$$$$

