PCCDB-ID:  31560
public computational chemistry database (PCCDB) project, http://pccdb.org

 29 28  0  0  0  0  0  0  0  0999 V2000
    0.9994   -0.5182   -0.2808 C   0  0  0  0  0  0  0  0  0  0  0  0
    3.0402   -1.5657   -1.3361 C   0  0  0  0  0  0  0  0  0  0  0  0
    3.0417    3.6171    0.2699 C   0  0  0  0  0  0  0  0  0  0  0  0
    2.5282   -3.0521    3.2918 C   0  0  0  0  0  0  0  0  0  0  0  0
    2.5580    2.1970    0.5723 C   0  0  0  0  0  0  0  0  0  0  0  0
    2.2405   -2.6543    1.8408 C   0  0  0  0  0  0  0  0  0  0  0  0
    2.5273   -0.6110   -0.2484 C   0  0  0  0  0  0  0  0  0  0  0  0
    2.4408    4.1255   -0.9669 N   0  0  0  0  0  0  0  0  0  0  0  0
    1.8725   -2.1321    4.2249 N   0  0  0  0  0  0  0  0  0  0  0  0
    3.3362    1.0189   -0.6151 S   0  0  0  0  0  0  0  0  0  0  0  0
    3.1816   -1.1181    1.4274 S   0  0  0  0  0  0  0  0  0  0  0  0
    0.6754   -0.1023   -1.2412 H   0  0  0  0  0  0  0  0  0  0  0  0
    0.6080    0.1092    0.5234 H   0  0  0  0  0  0  0  0  0  0  0  0
    0.5519   -1.5130   -0.1778 H   0  0  0  0  0  0  0  0  0  0  0  0
    2.6771   -1.2510   -2.3217 H   0  0  0  0  0  0  0  0  0  0  0  0
    2.6731   -2.5807   -1.1477 H   0  0  0  0  0  0  0  0  0  0  0  0
    4.1330   -1.5954   -1.3552 H   0  0  0  0  0  0  0  0  0  0  0  0
    4.1464    3.6352    0.2868 H   0  0  0  0  0  0  0  0  0  0  0  0
    2.7047    4.2599    1.0929 H   0  0  0  0  0  0  0  0  0  0  0  0
    3.6204   -3.1484    3.4300 H   0  0  0  0  0  0  0  0  0  0  0  0
    2.1022   -4.0509    3.4519 H   0  0  0  0  0  0  0  0  0  0  0  0
    1.4707    2.1663    0.4669 H   0  0  0  0  0  0  0  0  0  0  0  0
    2.8343    1.9055    1.5890 H   0  0  0  0  0  0  0  0  0  0  0  0
    1.1671   -2.4772    1.7349 H   0  0  0  0  0  0  0  0  0  0  0  0
    2.5451   -3.4615    1.1667 H   0  0  0  0  0  0  0  0  0  0  0  0
    2.7491    3.5578   -1.7552 H   0  0  0  0  0  0  0  0  0  0  0  0
    2.7756    5.0706   -1.1463 H   0  0  0  0  0  0  0  0  0  0  0  0
    2.2585   -1.1966    4.1046 H   0  0  0  0  0  0  0  0  0  0  0  0
    2.0813   -2.4091    5.1825 H   0  0  0  0  0  0  0  0  0  0  0  0
  1  7  1  0  0  0  0
  1 14  1  0  0  0  0
  1 13  1  0  0  0  0
  2 16  1  0  0  0  0
  2  7  1  0  0  0  0
  3 18  1  0  0  0  0
  3  5  1  0  0  0  0
  3 19  1  0  0  0  0
  4 20  1  0  0  0  0
  4 21  1  0  0  0  0
  4  9  1  0  0  0  0
  5 23  1  0  0  0  0
  6  4  1  0  0  0  0
  7 11  1  0  0  0  0
  8  3  1  0  0  0  0
  9 29  1  0  0  0  0
 10  7  1  0  0  0  0
 10  5  1  0  0  0  0
 11  6  1  0  0  0  0
 12  1  1  0  0  0  0
 15  2  1  0  0  0  0
 17  2  1  0  0  0  0
 22  5  1  0  0  0  0
 24  6  1  0  0  0  0
 25  6  1  0  0  0  0
 26  8  1  0  0  0  0
 27  8  1  0  0  0  0
 28  9  1  0  0  0  0
M  END
>  <HBA>
4

>  <HBD>
2

>  <TPSA>
102.64

>  <cid>
31560

>  <dipole>
0.74

>  <excitation_energy_1>
5.095

>  <excitation_energy_2>
5.153

>  <excitation_energy_3>
5.425

>  <excitation_energy_4>
5.542

>  <homo_energy>
-5.946

>  <homo_lumo_gap>
6.634

>  <logP>
2.507

>  <lumo_energy>
0.688

>  <melting_point>
110.23

>  <molecular_refractivity>
56.4

>  <oscillator_strength_1>
0.0021

>  <oscillator_strength_2>
0.0053

>  <oscillator_strength_3>
0.0029

>  <oscillator_strength_4>
0.0038

>  <open_babel_can_smiles>
NCCSC(SCCN)(C)C

>  <mulliken_charges>
29
1   -0.442943
2   -0.445877
3   -0.148868
4   -0.144574
5   -0.411308
6   -0.414623
7   -0.21605
8   -0.718577
9   -0.718144
10   0.087211
11   0.080758
12   0.167383
13   0.170861
14   0.154424
15   0.162278
16   0.154604
17   0.177648
18   0.134272
19   0.149967
20   0.133605
21   0.148062
22   0.185051
23   0.187141
24   0.183928
25   0.164623
26   0.312236
27   0.297347
28   0.31244
29   0.297128

>  <lowdin_charges>
29
1   -0.448419
2   -0.443129
3   -0.201883
4   -0.199943
5   -0.373668
6   -0.383014
7   -0.163002
8   -0.561743
9   -0.559405
10   0.083843
11   0.061213
12   0.163608
13   0.16403
14   0.154744
15   0.158982
16   0.154868
17   0.166828
18   0.125264
19   0.150857
20   0.125041
21   0.14795
22   0.163001
23   0.165996
24   0.162278
25   0.155431
26   0.26076
27   0.255267
28   0.259449
29   0.254796

$$$$

