PCCDB-ID:  18569
public computational chemistry database (PCCDB) project, http://pccdb.org

 14 14  0  0  0  0  0  0  0  0999 V2000
   -0.3612    1.2514    0.0136 C   0  0  0  0  0  0  0  0  0  0  0  0
   -1.2837   -0.0112   -0.0108 C   0  0  0  0  0  0  0  0  0  0  0  0
    1.0371    0.6867   -0.0129 C   0  0  0  0  0  0  0  0  0  0  0  0
   -0.3485   -1.2522   -0.0364 C   0  0  0  0  0  0  0  0  0  0  0  0
    1.0301   -0.6517   -0.0389 C   0  0  0  0  0  0  0  0  0  0  0  0
    2.0770   -1.5255   -0.0664 O   0  0  0  0  0  0  0  0  0  0  0  0
   -0.5403    1.8639    0.9092 H   0  0  0  0  0  0  0  0  0  0  0  0
   -0.5558    1.9095   -0.8455 H   0  0  0  0  0  0  0  0  0  0  0  0
   -1.9373    0.0017   -0.8881 H   0  0  0  0  0  0  0  0  0  0  0  0
   -1.9380   -0.0334    0.8657 H   0  0  0  0  0  0  0  0  0  0  0  0
    1.9299    1.3075   -0.0089 H   0  0  0  0  0  0  0  0  0  0  0  0
   -0.4994   -1.8830   -0.9227 H   0  0  0  0  0  0  0  0  0  0  0  0
   -0.4848   -1.9081    0.8340 H   0  0  0  0  0  0  0  0  0  0  0  0
    2.9041   -1.0176   -0.0593 H   0  0  0  0  0  0  0  0  0  0  0  0
  1  7  1  0  0  0  0
  2  1  1  0  0  0  0
  2 10  1  0  0  0  0
  3 11  1  0  0  0  0
  3  1  1  0  0  0  0
  4  2  1  0  0  0  0
  4 13  1  0  0  0  0
  5  4  1  0  0  0  0
  5  3  2  0  0  0  0
  6 14  1  0  0  0  0
  6  5  1  0  0  0  0
  8  1  1  0  0  0  0
  9  2  1  0  0  0  0
 12  4  1  0  0  0  0
M  END
>  <HBA>
1

>  <HBD>
1

>  <TPSA>
20.23

>  <cid>
18569

>  <dipole>
0.91

>  <excitation_energy_1>
4.869

>  <excitation_energy_2>
5.579

>  <excitation_energy_3>
5.987

>  <excitation_energy_4>
6.164

>  <homo_energy>
-5.625

>  <homo_lumo_gap>
7.105

>  <logP>
1.612

>  <lumo_energy>
1.48

>  <melting_point>
21.18

>  <molecular_refractivity>
25.13

>  <oscillator_strength_1>
0.0021

>  <oscillator_strength_2>
0.0001

>  <oscillator_strength_3>
0.0017

>  <oscillator_strength_4>
0.0717

>  <open_babel_can_smiles>
OC1=CCCC1

>  <mulliken_charges>
14
1   -0.294691
2   -0.286071
3   -0.185569
4   -0.320976
5   0.333281
6   -0.623416
7   0.136854
8   0.136824
9   0.143646
10   0.143334
11   0.105418
12   0.153026
13   0.153012
14   0.405329

>  <lowdin_charges>
14
1   -0.266319
2   -0.27617
3   -0.26801
4   -0.280055
5   0.077393
6   -0.378738
7   0.141108
8   0.141396
9   0.148291
10   0.148212
11   0.147447
12   0.153375
13   0.153367
14   0.358705

$$$$

