PCCDB-ID:  7452
public computational chemistry database (PCCDB) project, http://pccdb.org

 16 16  0  0  0  0  0  0  0  0999 V2000
   -0.7667    1.1703    0.0330 C   0  0  0  0  0  0  0  0  0  0  0  0
   -1.3979   -0.0730    0.0069 C   0  0  0  0  0  0  0  0  0  0  0  0
    0.6243    1.2553   -0.0178 C   0  0  0  0  0  0  0  0  0  0  0  0
    0.7742   -1.1783   -0.1221 C   0  0  0  0  0  0  0  0  0  0  0  0
   -0.6141   -1.2236   -0.0704 C   0  0  0  0  0  0  0  0  0  0  0  0
    1.3678    0.0783   -0.0943 C   0  0  0  0  0  0  0  0  0  0  0  0
   -1.2795   -2.5415   -0.0998 N   0  0  0  0  0  0  0  0  0  0  0  0
    2.8409    0.1655   -0.1490 N   0  0  0  0  0  0  0  0  0  0  0  0
   -2.5079   -2.5544   -0.0548 O   0  0  0  0  0  0  0  0  0  0  0  0
   -0.5627   -3.5365   -0.1672 O   0  0  0  0  0  0  0  0  0  0  0  0
    3.3407    1.2883   -0.1248 O   0  0  0  0  0  0  0  0  0  0  0  0
    3.4685   -0.8880   -0.2148 O   0  0  0  0  0  0  0  0  0  0  0  0
   -1.3610    2.0762    0.0929 H   0  0  0  0  0  0  0  0  0  0  0  0
   -2.4761   -0.1672    0.0448 H   0  0  0  0  0  0  0  0  0  0  0  0
    1.1396    2.2077    0.0004 H   0  0  0  0  0  0  0  0  0  0  0  0
    1.3664   -2.0813   -0.1815 H   0  0  0  0  0  0  0  0  0  0  0  0
  1 13  1  0  0  0  0
  2  1  1  0  0  0  0
  2 14  1  0  0  0  0
  3 15  1  0  0  0  0
  3  1  2  0  0  0  0
  4  6  2  0  0  0  0
  4  5  1  0  0  0  0
  5  2  2  0  0  0  0
  6  3  1  0  0  0  0
  7  5  1  0  0  0  0
  7  9  2  0  0  0  0
  8 11  2  0  0  0  0
  8  6  1  0  0  0  0
 10  7  2  0  0  0  0
 12  8  2  0  0  0  0
 16  4  1  0  0  0  0
M  END
>  <HBA>
0

>  <HBD>
0

>  <TPSA>
91.64

>  <cid>
7452

>  <dipole>
4.22

>  <excitation_energy_1>
3.731

>  <excitation_energy_2>
3.734

>  <excitation_energy_3>
4.209

>  <excitation_energy_4>
4.237

>  <homo_energy>
-8.414

>  <homo_lumo_gap>
5.279

>  <logP>
2.549

>  <lumo_energy>
-3.135

>  <melting_point>
81.91

>  <molecular_refractivity>
44.09

>  <oscillator_strength_1>
0.0

>  <oscillator_strength_2>
0.0

>  <oscillator_strength_3>
0.0005

>  <oscillator_strength_4>
0.0

>  <open_babel_can_smiles>
O=N(=O)c1cccc(c1)N(=O)=O

>  <mulliken_charges>
16
1   -0.148308
2   -0.127606
3   -0.127552
4   -0.171561
5   0.263751
6   0.263682
7   0.389001
8   0.388934
9   -0.385377
10   -0.378374
11   -0.385446
12   -0.378253
13   0.169495
14   0.199057
15   0.199064
16   0.229493

>  <lowdin_charges>
16
1   -0.139322
2   -0.113983
3   -0.11691
4   -0.118959
5   0.009209
6   0.00988
7   0.306446
8   0.309186
9   -0.233231
10   -0.230341
11   -0.23536
12   -0.230405
13   0.178971
14   0.194211
15   0.196163
16   0.214444

$$$$

