PCCDB-ID:  24625
public computational chemistry database (PCCDB) project, http://pccdb.org

 26 25  0  0  1  0  0  0  0  0999 V2000
    1.5590    2.6163    0.8604 C   0  0  0  0  0  0  0  0  0  0  0  0
    4.4286   -0.5459   -0.8540 C   0  0  0  0  0  0  0  0  0  0  0  0
    4.7303   -1.4630    4.9544 C   0  0  0  0  0  0  0  0  0  0  0  0
    2.1379    1.2615    0.4371 C   0  0  0  0  0  0  0  0  0  0  0  0
    3.5573    1.0295    0.9725 C   0  0  0  0  0  0  0  0  0  0  0  0
    5.4530   -0.5978    1.4199 C   0  0  0  0  0  0  0  0  0  0  0  0
    4.1534   -0.3536    0.6457 C   0  0  2  0  0  0  0  0  0  0  0  0
    4.8839   -1.6815    3.4668 C   0  0  0  0  0  0  0  0  0  0  0  0
    4.6991   -2.7314    2.8908 O   0  0  0  0  0  0  0  0  0  0  0  0
    5.2639   -0.5343    2.8531 O   0  0  0  0  0  0  0  0  0  0  0  0
    0.5449    2.7567    0.4693 H   0  0  0  0  0  0  0  0  0  0  0  0
    2.1762    3.4445    0.4908 H   0  0  0  0  0  0  0  0  0  0  0  0
    1.5108    2.7031    1.9529 H   0  0  0  0  0  0  0  0  0  0  0  0
    3.5141   -0.4395   -1.4457 H   0  0  0  0  0  0  0  0  0  0  0  0
    4.8380   -1.5421   -1.0575 H   0  0  0  0  0  0  0  0  0  0  0  0
    5.1499    0.1959   -1.2220 H   0  0  0  0  0  0  0  0  0  0  0  0
    3.9591   -0.7092    5.1455 H   0  0  0  0  0  0  0  0  0  0  0  0
    5.6658   -1.0872    5.3809 H   0  0  0  0  0  0  0  0  0  0  0  0
    4.4538   -2.4035    5.4322 H   0  0  0  0  0  0  0  0  0  0  0  0
    2.1322    1.1966   -0.6588 H   0  0  0  0  0  0  0  0  0  0  0  0
    1.4814    0.4555    0.7949 H   0  0  0  0  0  0  0  0  0  0  0  0
    3.5476    1.1581    2.0627 H   0  0  0  0  0  0  0  0  0  0  0  0
    4.2274    1.8102    0.5791 H   0  0  0  0  0  0  0  0  0  0  0  0
    6.1889    0.1842    1.2064 H   0  0  0  0  0  0  0  0  0  0  0  0
    5.8756   -1.5734    1.1661 H   0  0  0  0  0  0  0  0  0  0  0  0
    3.4427   -1.1280    0.9661 H   0  0  0  0  0  0  0  0  0  0  0  0
  1 13  1  0  0  0  0
  2  7  1  0  0  0  0
  3 17  1  0  0  0  0
  3 18  1  0  0  0  0
  3 19  1  0  0  0  0
  4 21  1  0  0  0  0
  4  1  1  0  0  0  0
  4  5  1  0  0  0  0
  5 22  1  0  0  0  0
  6 10  1  0  0  0  0
  7 26  1  1  0  0  0
  7  5  1  0  0  0  0
  7  6  1  0  0  0  0
  8  3  1  0  0  0  0
  9  8  2  0  0  0  0
 10  8  1  0  0  0  0
 11  1  1  0  0  0  0
 12  1  1  0  0  0  0
 14  2  1  0  0  0  0
 15  2  1  0  0  0  0
 16  2  1  0  0  0  0
 20  4  1  0  0  0  0
 23  5  1  0  0  0  0
 24  6  1  0  0  0  0
 25  6  1  0  0  0  0
M  END
>  <HBA>
2

>  <HBD>
0

>  <TPSA>
26.3

>  <cid>
24625

>  <dipole>
1.68

>  <excitation_energy_1>
5.802

>  <excitation_energy_2>
6.993

>  <excitation_energy_3>
7.343

>  <excitation_energy_4>
7.421

>  <homo_energy>
-7.293

>  <homo_lumo_gap>
7.698

>  <logP>
1.986

>  <lumo_energy>
0.405

>  <melting_point>
-15.45

>  <molecular_refractivity>
41.85

>  <oscillator_strength_1>
0.0011

>  <oscillator_strength_2>
0.0267

>  <oscillator_strength_3>
0.0406

>  <oscillator_strength_4>
0.0514

>  <open_babel_can_smiles>
CCC[C@H](COC(=O)C)C

>  <mulliken_charges>
26
1   -0.441757
2   -0.460931
3   -0.523335
4   -0.254093
5   -0.248845
6   -0.044353
7   -0.100839
8   0.600927
9   -0.46862
10   -0.457209
11   0.142457
12   0.141819
13   0.141551
14   0.154498
15   0.150786
16   0.139682
17   0.180538
18   0.181232
19   0.181835
20   0.134476
21   0.132453
22   0.140451
23   0.121367
24   0.143467
25   0.165316
26   0.147128

>  <lowdin_charges>
26
1   -0.441821
2   -0.446982
3   -0.466082
4   -0.272247
5   -0.278409
6   -0.133824
7   -0.137009
8   0.200569
9   -0.267351
10   -0.200167
11   0.148839
12   0.147317
13   0.144206
14   0.155523
15   0.152877
16   0.146893
17   0.17769
18   0.177503
19   0.175347
20   0.137678
21   0.14088
22   0.14331
23   0.136745
24   0.149878
25   0.1581
26   0.150538

$$$$

