PCCDB-ID:  22303
public computational chemistry database (PCCDB) project, http://pccdb.org

 29 28  0  0  0  0  0  0  0  0999 V2000
    2.3097    1.4262   -1.7212 C   0  0  0  0  0  0  0  0  0  0  0  0
    3.1285    2.7746    0.7996 C   0  0  0  0  0  0  0  0  0  0  0  0
    9.0842    1.4240    3.2625 C   0  0  0  0  0  0  0  0  0  0  0  0
    7.1355    2.5573    4.3957 C   0  0  0  0  0  0  0  0  0  0  0  0
    3.2135    0.8789   -0.8953 C   0  0  0  0  0  0  0  0  0  0  0  0
    5.2664    1.0799    2.3856 C   0  0  0  0  0  0  0  0  0  0  0  0
    4.6095    0.7406    1.0784 C   0  0  0  0  0  0  0  0  0  0  0  0
    6.7951    1.2294    2.2352 C   0  0  0  0  0  0  0  0  0  0  0  0
    3.6970    1.4426    0.3719 C   0  0  0  0  0  0  0  0  0  0  0  0
    7.5778    1.3474    3.5576 C   0  0  0  0  0  0  0  0  0  0  0  0
    7.2945    0.1315    4.2734 O   0  0  0  0  0  0  0  0  0  0  0  0
    2.0160    0.9278   -2.6402 H   0  0  0  0  0  0  0  0  0  0  0  0
    1.8315    2.3800   -1.5175 H   0  0  0  0  0  0  0  0  0  0  0  0
    2.0404    2.7111    0.9286 H   0  0  0  0  0  0  0  0  0  0  0  0
    3.3120    3.5391    0.0338 H   0  0  0  0  0  0  0  0  0  0  0  0
    3.5553    3.1332    1.7382 H   0  0  0  0  0  0  0  0  0  0  0  0
    9.3358    2.3177    2.6797 H   0  0  0  0  0  0  0  0  0  0  0  0
    9.4071    0.5404    2.7025 H   0  0  0  0  0  0  0  0  0  0  0  0
    9.6597    1.4644    4.1968 H   0  0  0  0  0  0  0  0  0  0  0  0
    7.2678    3.4960    3.8451 H   0  0  0  0  0  0  0  0  0  0  0  0
    7.7349    2.6263    5.3131 H   0  0  0  0  0  0  0  0  0  0  0  0
    6.0852    2.4699    4.6881 H   0  0  0  0  0  0  0  0  0  0  0  0
    3.6481   -0.0832   -1.1685 H   0  0  0  0  0  0  0  0  0  0  0  0
    5.0782    0.2719    3.1051 H   0  0  0  0  0  0  0  0  0  0  0  0
    4.8402    1.9906    2.8168 H   0  0  0  0  0  0  0  0  0  0  0  0
    4.9382   -0.2081    0.6487 H   0  0  0  0  0  0  0  0  0  0  0  0
    7.0202    2.1033    1.6107 H   0  0  0  0  0  0  0  0  0  0  0  0
    7.1854    0.3527    1.7019 H   0  0  0  0  0  0  0  0  0  0  0  0
    7.7614    0.1784    5.1228 H   0  0  0  0  0  0  0  0  0  0  0  0
  1 13  1  0  0  0  0
  1  5  2  0  0  0  0
  2 14  1  0  0  0  0
  2 16  1  0  0  0  0
  3 10  1  0  0  0  0
  3 19  1  0  0  0  0
  4 22  1  0  0  0  0
  4 21  1  0  0  0  0
  5  9  1  0  0  0  0
  6 25  1  0  0  0  0
  6 24  1  0  0  0  0
  7  6  1  0  0  0  0
  8  6  1  0  0  0  0
  8 10  1  0  0  0  0
  9  2  1  0  0  0  0
  9  7  2  0  0  0  0
 10 11  1  0  0  0  0
 10  4  1  0  0  0  0
 11 29  1  0  0  0  0
 12  1  1  0  0  0  0
 15  2  1  0  0  0  0
 17  3  1  0  0  0  0
 18  3  1  0  0  0  0
 20  4  1  0  0  0  0
 23  5  1  0  0  0  0
 26  7  1  0  0  0  0
 27  8  1  0  0  0  0
 28  8  1  0  0  0  0
M  END
>  <HBA>
1

>  <HBD>
1

>  <TPSA>
20.23

>  <cid>
22303

>  <dipole>
2.11

>  <excitation_energy_1>
5.23

>  <excitation_energy_2>
5.394

>  <excitation_energy_3>
5.621

>  <excitation_energy_4>
5.81

>  <homo_energy>
-5.742

>  <homo_lumo_gap>
5.483

>  <logP>
2.67

>  <lumo_energy>
-0.259

>  <melting_point>
-6.97

>  <molecular_refractivity>
50.44

>  <oscillator_strength_1>
0.2992

>  <oscillator_strength_2>
0.4755

>  <oscillator_strength_3>
0.0239

>  <oscillator_strength_4>
0.0068

>  <open_babel_can_smiles>
C=C/C(=C/CCC(O)(C)C)/C

>  <mulliken_charges>
29
1   -0.364292
2   -0.537705
3   -0.453319
4   -0.464024
5   -0.099222
6   -0.316108
7   -0.186817
8   -0.2552
9   0.197209
10   0.307315
11   -0.637614
12   0.137479
13   0.135311
14   0.159962
15   0.158027
16   0.15288
17   0.14177
18   0.15479
19   0.128161
20   0.143216
21   0.129549
22   0.16022
23   0.120645
24   0.171329
25   0.137555
26   0.121384
27   0.133211
28   0.140481
29   0.383808

>  <lowdin_charges>
29
1   -0.353512
2   -0.444921
3   -0.456949
4   -0.45899
5   -0.145317
6   -0.279977
7   -0.165288
8   -0.27656
9   -0.014609
10   0.123811
11   -0.465064
12   0.15923
13   0.155542
14   0.157502
15   0.158996
16   0.156043
17   0.152301
18   0.156956
19   0.143251
20   0.152948
21   0.144241
22   0.155905
23   0.15099
24   0.165197
25   0.145318
26   0.148268
27   0.146086
28   0.149679
29   0.338926

$$$$

