PCCDB-ID:  7137
public computational chemistry database (PCCDB) project, http://pccdb.org

 29 29  0  0  0  0  0  0  0  0999 V2000
    0.4716    2.1814    1.0473 C   0  0  0  0  0  0  0  0  0  0  0  0
   10.5060    0.4982   -0.6496 C   0  0  0  0  0  0  0  0  0  0  0  0
    7.0385   -0.8599    3.0364 C   0  0  0  0  0  0  0  0  0  0  0  0
    1.9095    2.2452    0.6248 C   0  0  0  0  0  0  0  0  0  0  0  0
    2.8863    1.4820    1.1368 C   0  0  0  0  0  0  0  0  0  0  0  0
    4.8308    2.2104   -0.3117 C   0  0  0  0  0  0  0  0  0  0  0  0
    6.1932    2.1689   -0.5999 C   0  0  0  0  0  0  0  0  0  0  0  0
    5.1995    0.7180    1.5516 C   0  0  0  0  0  0  0  0  0  0  0  0
    9.0107    0.3090   -0.5837 C   0  0  0  0  0  0  0  0  0  0  0  0
    4.3119    1.4850    0.7717 C   0  0  0  0  0  0  0  0  0  0  0  0
    7.0552    1.4124    0.1806 C   0  0  0  0  0  0  0  0  0  0  0  0
    6.5669    0.6780    1.2745 C   0  0  0  0  0  0  0  0  0  0  0  0
    8.4000   -0.6750   -0.9127 O   0  0  0  0  0  0  0  0  0  0  0  0
    7.4939   -0.0148    1.9912 O   0  0  0  0  0  0  0  0  0  0  0  0
    8.4232    1.4453   -0.0796 O   0  0  0  0  0  0  0  0  0  0  0  0
   -0.1796    1.9118    0.2041 H   0  0  0  0  0  0  0  0  0  0  0  0
    0.1194    3.1558    1.4129 H   0  0  0  0  0  0  0  0  0  0  0  0
    0.3174    1.4441    1.8424 H   0  0  0  0  0  0  0  0  0  0  0  0
   10.9537   -0.3317   -1.1973 H   0  0  0  0  0  0  0  0  0  0  0  0
   10.9122    0.5279    0.3675 H   0  0  0  0  0  0  0  0  0  0  0  0
   10.7539    1.4494   -1.1298 H   0  0  0  0  0  0  0  0  0  0  0  0
    7.9299   -1.3483    3.4337 H   0  0  0  0  0  0  0  0  0  0  0  0
    6.3429   -1.6211    2.6612 H   0  0  0  0  0  0  0  0  0  0  0  0
    6.5534   -0.2859    3.8369 H   0  0  0  0  0  0  0  0  0  0  0  0
    2.1435    2.9735   -0.1515 H   0  0  0  0  0  0  0  0  0  0  0  0
    2.6186    0.7756    1.9242 H   0  0  0  0  0  0  0  0  0  0  0  0
    4.1741    2.7996   -0.9431 H   0  0  0  0  0  0  0  0  0  0  0  0
    6.6050    2.7222   -1.4383 H   0  0  0  0  0  0  0  0  0  0  0  0
    4.8022    0.1571    2.3906 H   0  0  0  0  0  0  0  0  0  0  0  0
  1 17  1  0  0  0  0
  1 18  1  0  0  0  0
  2  9  1  0  0  0  0
  2 20  1  0  0  0  0
  3 22  1  0  0  0  0
  3 24  1  0  0  0  0
  4  1  1  0  0  0  0
  4  5  2  0  0  0  0
  5 26  1  0  0  0  0
  6 10  1  0  0  0  0
  7  6  2  0  0  0  0
  7 11  1  0  0  0  0
  8 29  1  0  0  0  0
  9 15  1  0  0  0  0
 10  5  1  0  0  0  0
 10  8  2  0  0  0  0
 11 12  2  0  0  0  0
 12  8  1  0  0  0  0
 12 14  1  0  0  0  0
 13  9  2  0  0  0  0
 14  3  1  0  0  0  0
 15 11  1  0  0  0  0
 16  1  1  0  0  0  0
 19  2  1  0  0  0  0
 21  2  1  0  0  0  0
 23  3  1  0  0  0  0
 25  4  1  0  0  0  0
 27  6  1  0  0  0  0
 28  7  1  0  0  0  0
M  END
>  <HBA>
3

>  <HBD>
0

>  <TPSA>
35.53

>  <cid>
7137

>  <dipole>
1.85

>  <excitation_energy_1>
4.457

>  <excitation_energy_2>
4.723

>  <excitation_energy_3>
5.1

>  <excitation_energy_4>
5.296

>  <homo_energy>
-5.589

>  <homo_lumo_gap>
4.895

>  <logP>
2.654

>  <lumo_energy>
-0.694

>  <melting_point>
59.12

>  <molecular_refractivity>
59.33

>  <oscillator_strength_1>
0.2403

>  <oscillator_strength_2>
0.1729

>  <oscillator_strength_3>
0.0125

>  <oscillator_strength_4>
0.0034

>  <open_babel_can_smiles>
C/C=C/c1ccc(c(c1)OC)OC(=O)C

>  <mulliken_charges>
29
1   -0.490572
2   -0.52791
3   -0.214184
4   -0.093979
5   -0.170059
6   -0.205333
7   -0.163172
8   -0.291644
9   0.605333
10   0.191973
11   0.315516
12   0.383468
13   -0.444965
14   -0.515117
15   -0.525759
16   0.158606
17   0.157366
18   0.154403
19   0.181586
20   0.188307
21   0.18034
22   0.171129
23   0.159981
24   0.151873
25   0.12699
26   0.116202
27   0.127671
28   0.138788
29   0.133165

>  <lowdin_charges>
29
1   -0.438084
2   -0.464587
3   -0.277943
4   -0.151125
5   -0.170946
6   -0.174
7   -0.158372
8   -0.212653
9   0.213159
10   0.007234
11   0.074509
12   0.091248
13   -0.240402
14   -0.190646
15   -0.1679
16   0.159373
17   0.157834
18   0.155696
19   0.17631
20   0.181079
21   0.176612
22   0.164783
23   0.151055
24   0.146124
25   0.150475
26   0.149664
27   0.160062
28   0.168481
29   0.162959

$$$$

