PCCDB-ID:  70737
public computational chemistry database (PCCDB) project, http://pccdb.org

 16 16  0  0  0  0  0  0  0  0999 V2000
    1.0124   -0.1377   -0.0919 C   0  0  0  0  0  0  0  0  0  0  0  0
    4.6192    1.0608    0.1310 C   0  0  0  0  0  0  0  0  0  0  0  0
    3.2352    1.0858    0.0249 C   0  0  0  0  0  0  0  0  0  0  0  0
    5.2567   -0.1769    0.2377 C   0  0  0  0  0  0  0  0  0  0  0  0
    5.1398   -2.6606    0.3482 C   0  0  0  0  0  0  0  0  0  0  0  0
    2.5169   -0.1278    0.0271 C   0  0  0  0  0  0  0  0  0  0  0  0
    4.4686   -1.3294    0.2326 C   0  0  0  0  0  0  0  0  0  0  0  0
    3.1272   -1.3106    0.1298 N   0  0  0  0  0  0  0  0  0  0  0  0
    4.5760   -3.7316    0.3479 O   0  0  0  0  0  0  0  0  0  0  0  0
    0.5463    0.4548    0.7046 H   0  0  0  0  0  0  0  0  0  0  0  0
    0.6475   -1.1646   -0.0283 H   0  0  0  0  0  0  0  0  0  0  0  0
    0.6887    0.2922   -1.0480 H   0  0  0  0  0  0  0  0  0  0  0  0
    5.1925    1.9839    0.1320 H   0  0  0  0  0  0  0  0  0  0  0  0
    2.7021    2.0291   -0.0586 H   0  0  0  0  0  0  0  0  0  0  0  0
    6.3376   -0.2501    0.3234 H   0  0  0  0  0  0  0  0  0  0  0  0
    6.2485   -2.5948    0.4390 H   0  0  0  0  0  0  0  0  0  0  0  0
  1 11  1  0  0  0  0
  1  6  1  0  0  0  0
  1 10  1  0  0  0  0
  2 13  1  0  0  0  0
  2  4  2  0  0  0  0
  3  6  2  0  0  0  0
  3  2  1  0  0  0  0
  4 15  1  0  0  0  0
  5 16  1  0  0  0  0
  6  8  1  0  0  0  0
  7  4  1  0  0  0  0
  7  5  1  0  0  0  0
  8  7  2  0  0  0  0
  9  5  2  0  0  0  0
 12  1  1  0  0  0  0
 14  3  1  0  0  0  0
M  END
>  <HBA>
2

>  <HBD>
0

>  <TPSA>
29.96

>  <cid>
70737

>  <dipole>
4.84

>  <excitation_energy_1>
3.437

>  <excitation_energy_2>
3.988

>  <excitation_energy_3>
4.816

>  <excitation_energy_4>
4.961

>  <homo_energy>
-6.817

>  <homo_lumo_gap>
4.909

>  <logP>
1.202

>  <lumo_energy>
-1.908

>  <melting_point>
57.43

>  <molecular_refractivity>
34.59

>  <oscillator_strength_1>
0.0

>  <oscillator_strength_2>
0.0011

>  <oscillator_strength_3>
0.1404

>  <oscillator_strength_4>
0.0015

>  <open_babel_can_smiles>
O=Cc1cccc(n1)C

>  <mulliken_charges>
16
1   -0.524193
2   -0.100537
3   -0.15791
4   -0.173493
5   0.208875
6   0.309791
7   0.244764
8   -0.489125
9   -0.376335
10   0.16358
11   0.188584
12   0.165675
13   0.150055
14   0.142451
15   0.149054
16   0.098765

>  <lowdin_charges>
16
1   -0.450154
2   -0.126925
3   -0.164674
4   -0.162994
5   0.043949
6   0.064422
7   0.000784
8   -0.126669
9   -0.194225
10   0.164767
11   0.176245
12   0.164941
13   0.167237
14   0.166324
15   0.165919
16   0.111055

$$$$

