PCCDB-ID:  35727
public computational chemistry database (PCCDB) project, http://pccdb.org

 32 31  0  0  1  0  0  0  0  0999 V2000
    4.3211   -2.4379    1.5020 C   0  0  0  0  0  0  0  0  0  0  0  0
    2.8649    3.5173    4.3703 C   0  0  0  0  0  0  0  0  0  0  0  0
    4.6095    3.8649    0.2034 C   0  0  0  0  0  0  0  0  0  0  0  0
    3.9853   -1.1434    0.7549 C   0  0  0  0  0  0  0  0  0  0  0  0
    3.1141    3.1434    2.9040 C   0  0  0  0  0  0  0  0  0  0  0  0
    4.6623    0.0935    1.3616 C   0  0  0  0  0  0  0  0  0  0  0  0
    4.6125    3.0061    2.5987 C   0  0  0  0  0  0  0  0  0  0  0  0
    4.3172    1.3861    0.6095 C   0  0  0  0  0  0  0  0  0  0  0  0
    6.5331    2.5293    1.0799 C   0  0  0  0  0  0  0  0  0  0  0  0
    4.9957    2.6855    1.1304 C   0  0  1  0  0  0  0  0  0  0  0  0
    7.2738    2.6982    2.0164 O   0  0  0  0  0  0  0  0  0  0  0  0
    7.0661    2.1883   -0.1294 O   0  0  0  0  0  0  0  0  0  0  0  0
    3.8260   -3.3020    1.0450 H   0  0  0  0  0  0  0  0  0  0  0  0
    4.0007   -2.3856    2.5497 H   0  0  0  0  0  0  0  0  0  0  0  0
    5.4009   -2.6297    1.4961 H   0  0  0  0  0  0  0  0  0  0  0  0
    1.7935    3.6104    4.5810 H   0  0  0  0  0  0  0  0  0  0  0  0
    3.3400    4.4734    4.6209 H   0  0  0  0  0  0  0  0  0  0  0  0
    3.2748    2.7585    5.0477 H   0  0  0  0  0  0  0  0  0  0  0  0
    3.5241    4.0036    0.1892 H   0  0  0  0  0  0  0  0  0  0  0  0
    4.9253    3.6997   -0.8340 H   0  0  0  0  0  0  0  0  0  0  0  0
    5.0681    4.7995    0.5445 H   0  0  0  0  0  0  0  0  0  0  0  0
    2.8961   -0.9947    0.7487 H   0  0  0  0  0  0  0  0  0  0  0  0
    4.2848   -1.2415   -0.2985 H   0  0  0  0  0  0  0  0  0  0  0  0
    2.6575    3.9062    2.2596 H   0  0  0  0  0  0  0  0  0  0  0  0
    2.5922    2.2027    2.6838 H   0  0  0  0  0  0  0  0  0  0  0  0
    5.7512   -0.0558    1.3636 H   0  0  0  0  0  0  0  0  0  0  0  0
    4.3647    0.1844    2.4144 H   0  0  0  0  0  0  0  0  0  0  0  0
    5.0427    2.2375    3.2499 H   0  0  0  0  0  0  0  0  0  0  0  0
    5.1238    3.9345    2.8803 H   0  0  0  0  0  0  0  0  0  0  0  0
    3.2310    1.5410    0.6260 H   0  0  0  0  0  0  0  0  0  0  0  0
    4.5607    1.2468   -0.4560 H   0  0  0  0  0  0  0  0  0  0  0  0
    6.3609    2.0837   -0.7884 H   0  0  0  0  0  0  0  0  0  0  0  0
  1 14  1  0  0  0  0
  2 16  1  0  0  0  0
  2 17  1  0  0  0  0
  2 18  1  0  0  0  0
  3 21  1  0  0  0  0
  3 10  1  0  0  0  0
  4  6  1  0  0  0  0
  4  1  1  0  0  0  0
  5  2  1  0  0  0  0
  6 26  1  0  0  0  0
  6 27  1  0  0  0  0
  7 29  1  0  0  0  0
  7  5  1  0  0  0  0
  7 28  1  0  0  0  0
  8 30  1  0  0  0  0
  8 10  1  0  0  0  0
  8  6  1  0  0  0  0
  9 11  2  0  0  0  0
 10  9  1  6  0  0  0
 10  7  1  0  0  0  0
 12  9  1  0  0  0  0
 13  1  1  0  0  0  0
 15  1  1  0  0  0  0
 19  3  1  0  0  0  0
 20  3  1  0  0  0  0
 22  4  1  0  0  0  0
 23  4  1  0  0  0  0
 24  5  1  0  0  0  0
 25  5  1  0  0  0  0
 31  8  1  0  0  0  0
 32 12  1  0  0  0  0
M  END
>  <HBA>
2

>  <HBD>
1

>  <TPSA>
37.3

>  <cid>
35727

>  <dipole>
4.18

>  <excitation_energy_1>
5.605

>  <excitation_energy_2>
6.376

>  <excitation_energy_3>
7.091

>  <excitation_energy_4>
7.207

>  <homo_energy>
-7.119

>  <homo_lumo_gap>
7.505

>  <logP>
3.068

>  <lumo_energy>
0.386

>  <melting_point>
66.63

>  <molecular_refractivity>
51.7

>  <oscillator_strength_1>
0.0021

>  <oscillator_strength_2>
0.0098

>  <oscillator_strength_3>
0.0306

>  <oscillator_strength_4>
0.0196

>  <open_babel_can_smiles>
CCCC[C@](C(=O)O)(CCC)C

>  <mulliken_charges>
32
1   -0.443217
2   -0.441992
3   -0.460771
4   -0.250193
5   -0.268075
6   -0.262439
7   -0.250639
8   -0.282308
9   0.616987
10   -0.04391
11   -0.449312
12   -0.584146
13   0.144438
14   0.144345
15   0.147938
16   0.142324
17   0.146661
18   0.146098
19   0.161193
20   0.129427
21   0.16602
22   0.13194
23   0.13046
24   0.132829
25   0.134249
26   0.150801
27   0.144026
28   0.153671
29   0.14712
30   0.148296
31   0.108232
32   0.409948

>  <lowdin_charges>
32
1   -0.441796
2   -0.441681
3   -0.43943
4   -0.267415
5   -0.280074
6   -0.278336
7   -0.275185
8   -0.273829
9   0.19624
10   -0.032118
11   -0.238864
12   -0.363255
13   0.151651
14   0.146675
15   0.147984
16   0.148146
17   0.148955
18   0.149899
19   0.155994
20   0.141136
21   0.161185
22   0.137149
23   0.136877
24   0.140561
25   0.139441
26   0.1469
27   0.144902
28   0.155645
29   0.153522
30   0.14798
31   0.12741
32   0.353735

$$$$

