PCCDB-ID:  12725
public computational chemistry database (PCCDB) project, http://pccdb.org

 17 16  0  0  0  0  0  0  0  0999 V2000
    0.9056    0.2598   -0.0833 C   0  0  0  0  0  0  0  0  0  0  0  0
    2.8459    0.4138    1.5577 C   0  0  0  0  0  0  0  0  0  0  0  0
    2.4133    0.0541    0.1341 C   0  0  0  0  0  0  0  0  0  0  0  0
    2.8611   -1.8293   -1.4326 C   0  0  0  0  0  0  0  0  0  0  0  0
    2.8573   -1.2477   -2.5728 N   0  0  0  0  0  0  0  0  0  0  0  0
    2.8410   -1.3146   -0.1561 N   0  0  0  0  0  0  0  0  0  0  0  0
    2.9325   -3.1887   -1.3812 O   0  0  0  0  0  0  0  0  0  0  0  0
    0.6249    1.3069    0.0795 H   0  0  0  0  0  0  0  0  0  0  0  0
    0.3284   -0.3591    0.6146 H   0  0  0  0  0  0  0  0  0  0  0  0
    0.6189   -0.0191   -1.1023 H   0  0  0  0  0  0  0  0  0  0  0  0
    2.5822    1.4507    1.7893 H   0  0  0  0  0  0  0  0  0  0  0  0
    3.9265    0.2914    1.6806 H   0  0  0  0  0  0  0  0  0  0  0  0
    2.3417   -0.2275    2.2928 H   0  0  0  0  0  0  0  0  0  0  0  0
    2.9620    0.7046   -0.5594 H   0  0  0  0  0  0  0  0  0  0  0  0
    2.8119   -0.2337   -2.4909 H   0  0  0  0  0  0  0  0  0  0  0  0
    2.6398   -2.0038    0.5588 H   0  0  0  0  0  0  0  0  0  0  0  0
    2.9923   -3.4664   -2.3121 H   0  0  0  0  0  0  0  0  0  0  0  0
  1  8  1  0  0  0  0
  1  3  1  0  0  0  0
  1  9  1  0  0  0  0
  2 12  1  0  0  0  0
  2 11  1  0  0  0  0
  2 13  1  0  0  0  0
  3  2  1  0  0  0  0
  4  7  1  0  0  0  0
  4  6  1  0  0  0  0
  5 15  1  0  0  0  0
  5  4  2  0  0  0  0
  6  3  1  0  0  0  0
  6 16  1  0  0  0  0
 10  1  1  0  0  0  0
 14  3  1  0  0  0  0
 17  7  1  0  0  0  0
M  END
>  <HBA>
3

>  <HBD>
2

>  <TPSA>
55.12

>  <cid>
12725

>  <dipole>
2.57

>  <excitation_energy_1>
5.689

>  <excitation_energy_2>
6.153

>  <excitation_energy_3>
6.283

>  <excitation_energy_4>
6.481

>  <homo_energy>
-6.169

>  <homo_lumo_gap>
7.946

>  <logP>
1.154

>  <lumo_energy>
1.777

>  <melting_point>
87.92

>  <molecular_refractivity>
27.44

>  <oscillator_strength_1>
0.0015

>  <oscillator_strength_2>
0.0108

>  <oscillator_strength_3>
0.01

>  <oscillator_strength_4>
0.0628

>  <open_babel_can_smiles>
CC(NC(=N)O)C

>  <mulliken_charges>
17
1   -0.440367
2   -0.45601
3   0.034421
4   0.644327
5   -0.667429
6   -0.588148
7   -0.609498
8   0.145427
9   0.142516
10   0.163659
11   0.154194
12   0.163963
13   0.142354
14   0.14277
15   0.281461
16   0.32749
17   0.418868

>  <lowdin_charges>
17
1   -0.458242
2   -0.445221
3   -0.051185
4   0.162263
5   -0.496857
6   -0.30033
7   -0.386602
8   0.151829
9   0.150819
10   0.159439
11   0.156707
12   0.158655
13   0.149225
14   0.145414
15   0.253344
16   0.285646
17   0.365097

$$$$

