PCCDB-ID:  33814
public computational chemistry database (PCCDB) project, http://pccdb.org

 34 34  0  0  1  0  0  0  0  0999 V2000
    3.3189    0.9188   -3.4814 C   0  0  0  0  0  0  0  0  0  0  0  0
   10.2444   -6.6682   -4.1071 C   0  0  0  0  0  0  0  0  0  0  0  0
   10.0309   -1.2407   -0.3807 C   0  0  0  0  0  0  0  0  0  0  0  0
    3.5782   -0.2978   -2.5875 C   0  0  0  0  0  0  0  0  0  0  0  0
   10.1634   -5.4170   -3.2345 C   0  0  0  0  0  0  0  0  0  0  0  0
    4.6154   -0.0246   -1.4915 C   0  0  0  0  0  0  0  0  0  0  0  0
    4.9016   -1.2451   -0.5963 C   0  0  0  0  0  0  0  0  0  0  0  0
    9.0460   -2.1586   -1.0510 C   0  0  2  0  0  0  0  0  0  0  0  0
    8.5060   -4.0058   -2.3375 C   0  0  0  0  0  0  0  0  0  0  0  0
    6.6715   -2.5903   -1.4437 C   0  0  0  0  0  0  0  0  0  0  0  0
    8.7675   -5.0400   -3.0354 N   0  0  0  0  0  0  0  0  0  0  0  0
    5.4163   -2.3808   -1.3405 N   0  0  0  0  0  0  0  0  0  0  0  0
    9.4589   -3.1756   -1.7282 N   0  0  0  0  0  0  0  0  0  0  0  0
    7.7162   -1.8303   -0.8868 N   0  0  0  0  0  0  0  0  0  0  0  0
    7.1548   -3.6647   -2.1568 N   0  0  0  0  0  0  0  0  0  0  0  0
    2.5722    0.6948   -4.2518 H   0  0  0  0  0  0  0  0  0  0  0  0
    4.2359    1.2389   -3.9918 H   0  0  0  0  0  0  0  0  0  0  0  0
    2.9501    1.7726   -2.8993 H   0  0  0  0  0  0  0  0  0  0  0  0
   11.2873   -6.9674   -4.2659 H   0  0  0  0  0  0  0  0  0  0  0  0
    9.7836   -6.4887   -5.0847 H   0  0  0  0  0  0  0  0  0  0  0  0
    9.7130   -7.5028   -3.6366 H   0  0  0  0  0  0  0  0  0  0  0  0
   11.0413   -1.5981   -0.5796 H   0  0  0  0  0  0  0  0  0  0  0  0
    9.8657   -1.2145    0.7034 H   0  0  0  0  0  0  0  0  0  0  0  0
    9.9311   -0.2159   -0.7593 H   0  0  0  0  0  0  0  0  0  0  0  0
    3.9175   -1.1444   -3.1948 H   0  0  0  0  0  0  0  0  0  0  0  0
    2.6368   -0.6155   -2.1170 H   0  0  0  0  0  0  0  0  0  0  0  0
   10.7254   -4.5962   -3.7037 H   0  0  0  0  0  0  0  0  0  0  0  0
   10.6561   -5.6019   -2.2684 H   0  0  0  0  0  0  0  0  0  0  0  0
    4.2682    0.8001   -0.8520 H   0  0  0  0  0  0  0  0  0  0  0  0
    5.5552    0.3129   -1.9538 H   0  0  0  0  0  0  0  0  0  0  0  0
    3.9618   -1.5629   -0.1261 H   0  0  0  0  0  0  0  0  0  0  0  0
    5.5526   -0.9327    0.2430 H   0  0  0  0  0  0  0  0  0  0  0  0
    7.4685   -1.0150   -0.3463 H   0  0  0  0  0  0  0  0  0  0  0  0
    6.4667   -4.2673   -2.5891 H   0  0  0  0  0  0  0  0  0  0  0  0
  1 18  1  0  0  0  0
  1  4  1  0  0  0  0
  2 21  1  0  0  0  0
  2  5  1  0  0  0  0
  3 23  1  0  0  0  0
  4 26  1  0  0  0  0
  4  6  1  0  0  0  0
  5 11  1  0  0  0  0
  5 28  1  0  0  0  0
  6 29  1  0  0  0  0
  6  7  1  0  0  0  0
  7 31  1  0  0  0  0
  7 32  1  0  0  0  0
  8 14  1  0  0  0  0
  8  3  1  6  0  0  0
  9 15  1  0  0  0  0
  9 13  2  0  0  0  0
 10 12  2  0  0  0  0
 10 14  1  0  0  0  0
 11  9  1  0  0  0  0
 12  7  1  0  0  0  0
 13  8  1  0  0  0  0
 14 33  1  0  0  0  0
 15 10  1  0  0  0  0
 16  1  1  0  0  0  0
 17  1  1  0  0  0  0
 19  2  1  0  0  0  0
 20  2  1  0  0  0  0
 22  3  1  0  0  0  0
 24  3  1  0  0  0  0
 25  4  1  0  0  0  0
 27  5  1  0  0  0  0
 30  6  1  0  0  0  0
 34 15  1  0  0  0  0
M  RAD  2   8   2  11   2
M  END
>  <HBA>
5

>  <HBD>
2

>  <TPSA>
62.73

>  <cid>
33814

>  <dipole>
4.87

>  <excitation_energy_1>
4.316

>  <excitation_energy_2>
4.657

>  <excitation_energy_3>
4.838

>  <excitation_energy_4>
4.943

>  <homo_energy>
-5.821

>  <homo_lumo_gap>
5.018

>  <logP>
1.97

>  <lumo_energy>
-0.803

>  <melting_point>
122.13

>  <molecular_refractivity>
62.63

>  <oscillator_strength_1>
0.0283

>  <oscillator_strength_2>
0.0008

>  <oscillator_strength_3>
0.0777

>  <oscillator_strength_4>
0.0608

>  <open_babel_can_smiles>
CCCC/N=C/1\N[C](C)N=C(N1)[N]CC

>  <mulliken_charges>
34
1   -0.443358
2   -0.43565
3   -0.538334
4   -0.240145
5   -0.115404
6   -0.245985
7   -0.167604
8   0.523057
9   0.663515
10   0.742868
11   -0.507459
12   -0.485457
13   -0.511468
14   -0.696314
15   -0.687196
16   0.144406
17   0.139696
18   0.137865
19   0.127914
20   0.145135
21   0.145401
22   0.204319
23   0.175685
24   0.175399
25   0.156723
26   0.129931
27   0.13606
28   0.135978
29   0.126073
30   0.12014
31   0.150754
32   0.095106
33   0.348197
34   0.350152

>  <lowdin_charges>
34
1   -0.446538
2   -0.446169
3   -0.448472
4   -0.274235
5   -0.194264
6   -0.282597
7   -0.201825
8   0.128071
9   0.11537
10   0.132852
11   -0.239482
12   -0.262908
13   -0.216887
14   -0.251623
15   -0.235543
16   0.151379
17   0.145661
18   0.144736
19   0.141764
20   0.149098
21   0.150519
22   0.187273
23   0.168822
24   0.169542
25   0.153161
26   0.140102
27   0.139736
28   0.138577
29   0.140659
30   0.133563
31   0.149867
32   0.112424
33   0.298194
34   0.309174

$$$$

