PCCDB-ID:  9307
public computational chemistry database (PCCDB) project, http://pccdb.org

 28 28  0  0  1  0  0  0  0  0999 V2000
    2.6669    0.3590   -0.6021 C   0  0  0  0  0  0  0  0  0  0  0  0
    4.0186   -0.4927    4.1821 C   0  0  0  0  0  0  0  0  0  0  0  0
    3.6370   -1.7153    3.6217 C   0  0  0  0  0  0  0  0  0  0  0  0
    4.3716    2.0124    4.0331 C   0  0  0  0  0  0  0  0  0  0  0  0
    3.5312    0.5981    2.0895 C   0  0  0  0  0  0  0  0  0  0  0  0
    3.9702    0.6815    3.4260 C   0  0  0  0  0  0  0  0  0  0  0  0
    5.8933    2.2046    4.2889 C   0  0  1  0  0  0  0  0  0  0  0  0
    3.1994   -1.7932    2.3027 C   0  0  0  0  0  0  0  0  0  0  0  0
    3.1462   -0.6167    1.5197 C   0  0  0  0  0  0  0  0  0  0  0  0
    6.6905    2.3800    2.9775 C   0  0  0  0  0  0  0  0  0  0  0  0
    6.0895    3.3140    5.2147 N   0  0  0  0  0  0  0  0  0  0  0  0
    2.8117   -2.9555    1.7034 O   0  0  0  0  0  0  0  0  0  0  0  0
    7.3432    3.3666    2.7322 O   0  0  0  0  0  0  0  0  0  0  0  0
    6.6464    1.3519    2.0963 O   0  0  0  0  0  0  0  0  0  0  0  0
    2.7143   -0.7819    0.2415 O   0  0  0  0  0  0  0  0  0  0  0  0
    1.9704    1.1161   -0.2180 H   0  0  0  0  0  0  0  0  0  0  0  0
    2.3105   -0.0021   -1.5680 H   0  0  0  0  0  0  0  0  0  0  0  0
    3.6602    0.8101   -0.7254 H   0  0  0  0  0  0  0  0  0  0  0  0
    4.3420   -0.4597    5.2194 H   0  0  0  0  0  0  0  0  0  0  0  0
    3.6734   -2.6230    4.2217 H   0  0  0  0  0  0  0  0  0  0  0  0
    3.8962    2.1344    5.0124 H   0  0  0  0  0  0  0  0  0  0  0  0
    4.0106    2.8362    3.4039 H   0  0  0  0  0  0  0  0  0  0  0  0
    3.4911    1.5045    1.4954 H   0  0  0  0  0  0  0  0  0  0  0  0
    6.2676    1.2931    4.7761 H   0  0  0  0  0  0  0  0  0  0  0  0
    7.0905    3.4271    5.3738 H   0  0  0  0  0  0  0  0  0  0  0  0
    5.8193    4.1763    4.7391 H   0  0  0  0  0  0  0  0  0  0  0  0
    2.8957   -3.6768    2.3465 H   0  0  0  0  0  0  0  0  0  0  0  0
    6.0081    0.6785    2.3978 H   0  0  0  0  0  0  0  0  0  0  0  0
  1 16  1  0  0  0  0
  1 15  1  0  0  0  0
  2 19  1  0  0  0  0
  3  2  1  0  0  0  0
  3 20  1  0  0  0  0
  4  7  1  0  0  0  0
  4 21  1  0  0  0  0
  5  6  1  0  0  0  0
  6  4  1  0  0  0  0
  6  2  2  0  0  0  0
  7 24  1  1  0  0  0
  7 11  1  0  0  0  0
  8  3  2  0  0  0  0
  9  5  2  0  0  0  0
  9  8  1  0  0  0  0
 10  7  1  0  0  0  0
 11 25  1  0  0  0  0
 12  8  1  0  0  0  0
 12 27  1  0  0  0  0
 13 10  2  0  0  0  0
 14 28  1  0  0  0  0
 14 10  1  0  0  0  0
 15  9  1  0  0  0  0
 17  1  1  0  0  0  0
 18  1  1  0  0  0  0
 22  4  1  0  0  0  0
 23  5  1  0  0  0  0
 26 11  1  0  0  0  0
M  END
>  <HBA>
5

>  <HBD>
3

>  <TPSA>
92.78

>  <cid>
9307

>  <dipole>
3.55

>  <excitation_energy_1>
4.82

>  <excitation_energy_2>
4.96

>  <excitation_energy_3>
5.165

>  <excitation_energy_4>
5.273

>  <homo_energy>
-5.859

>  <homo_lumo_gap>
5.649

>  <logP>
1.056

>  <lumo_energy>
-0.21

>  <melting_point>
184.31

>  <molecular_refractivity>
54.02

>  <oscillator_strength_1>
0.0542

>  <oscillator_strength_2>
0.0001

>  <oscillator_strength_3>
0.0492

>  <oscillator_strength_4>
0.06

>  <open_babel_can_smiles>
COc1cc(ccc1O)C[C@@H](C(=O)O)N

>  <mulliken_charges>
28
1   -0.220509
2   -0.191708
3   -0.193347
4   -0.341802
5   -0.275718
6   0.092843
7   -0.107295
8   0.30424
9   0.371496
10   0.56912
11   -0.692245
12   -0.626494
13   -0.451891
14   -0.573887
15   -0.496932
16   0.153334
17   0.176245
18   0.161126
19   0.134911
20   0.125849
21   0.182139
22   0.150198
23   0.143804
24   0.159846
25   0.309988
26   0.304558
27   0.409859
28   0.422271

>  <lowdin_charges>
28
1   -0.277529
2   -0.17865
3   -0.206083
4   -0.275918
5   -0.222805
6   -0.041491
7   -0.114241
8   0.081899
9   0.080561
10   0.169152
11   -0.529948
12   -0.363581
13   -0.252712
14   -0.358475
15   -0.183709
16   0.147094
17   0.166332
18   0.149615
19   0.159622
20   0.157891
21   0.171937
22   0.153605
23   0.168223
24   0.156114
25   0.261517
26   0.260146
27   0.360998
28   0.360433

$$$$

