PCCDB-ID:  26839
public computational chemistry database (PCCDB) project, http://pccdb.org

 32 31  0  0  1  0  0  0  0  0999 V2000
    3.8094    0.2611    1.3489 C   0  0  0  0  0  0  0  0  0  0  0  0
    7.9616   -0.6220    3.0347 C   0  0  0  0  0  0  0  0  0  0  0  0
    9.1943   -1.9877   -0.9804 C   0  0  0  0  0  0  0  0  0  0  0  0
   10.1573   -2.5980    1.2610 C   0  0  0  0  0  0  0  0  0  0  0  0
    8.6991   -4.2226    0.0326 C   0  0  0  0  0  0  0  0  0  0  0  0
    5.0536   -0.5100    1.8042 C   0  0  0  0  0  0  0  0  0  0  0  0
    6.3447    0.0338    1.1737 C   0  0  0  0  0  0  0  0  0  0  0  0
    7.6357   -2.1843    1.0207 C   0  0  0  0  0  0  0  0  0  0  0  0
    7.6506   -0.7166    1.5301 C   0  0  2  0  0  0  0  0  0  0  0  0
    8.9260   -2.7294    0.3445 C   0  0  0  0  0  0  0  0  0  0  0  0
    2.8991   -0.1368    1.8122 H   0  0  0  0  0  0  0  0  0  0  0  0
    3.6824    0.2026    0.2607 H   0  0  0  0  0  0  0  0  0  0  0  0
    3.8816    1.3230    1.6149 H   0  0  0  0  0  0  0  0  0  0  0  0
    7.9690    0.4227    3.3701 H   0  0  0  0  0  0  0  0  0  0  0  0
    8.9390   -1.0536    3.2722 H   0  0  0  0  0  0  0  0  0  0  0  0
    7.2159   -1.1584    3.6333 H   0  0  0  0  0  0  0  0  0  0  0  0
   10.0855   -2.3911   -1.4769 H   0  0  0  0  0  0  0  0  0  0  0  0
    9.3638   -0.9161   -0.8253 H   0  0  0  0  0  0  0  0  0  0  0  0
    8.3493   -2.0967   -1.6718 H   0  0  0  0  0  0  0  0  0  0  0  0
   11.0397   -3.0440    0.7851 H   0  0  0  0  0  0  0  0  0  0  0  0
   10.0002   -3.1122    2.2171 H   0  0  0  0  0  0  0  0  0  0  0  0
   10.3966   -1.5507    1.4765 H   0  0  0  0  0  0  0  0  0  0  0  0
    9.5689   -4.6559   -0.4765 H   0  0  0  0  0  0  0  0  0  0  0  0
    7.8270   -4.3643   -0.6180 H   0  0  0  0  0  0  0  0  0  0  0  0
    8.5278   -4.7985    0.9506 H   0  0  0  0  0  0  0  0  0  0  0  0
    4.9333   -1.5718    1.5501 H   0  0  0  0  0  0  0  0  0  0  0  0
    5.1240   -0.4633    2.8987 H   0  0  0  0  0  0  0  0  0  0  0  0
    6.4573    1.0901    1.4610 H   0  0  0  0  0  0  0  0  0  0  0  0
    6.2302    0.0283    0.0795 H   0  0  0  0  0  0  0  0  0  0  0  0
    6.8244   -2.3017    0.2883 H   0  0  0  0  0  0  0  0  0  0  0  0
    7.3768   -2.8510    1.8559 H   0  0  0  0  0  0  0  0  0  0  0  0
    8.4511   -0.1783    1.0036 H   0  0  0  0  0  0  0  0  0  0  0  0
  1 13  1  0  0  0  0
  1  6  1  0  0  0  0
  1 11  1  0  0  0  0
  2 15  1  0  0  0  0
  2 14  1  0  0  0  0
  2 16  1  0  0  0  0
  3 18  1  0  0  0  0
  3 10  1  0  0  0  0
  4 22  1  0  0  0  0
  4 21  1  0  0  0  0
  5 10  1  0  0  0  0
  5 25  1  0  0  0  0
  6 27  1  0  0  0  0
  7 28  1  0  0  0  0
  7  9  1  0  0  0  0
  7  6  1  0  0  0  0
  8  9  1  0  0  0  0
  8 31  1  0  0  0  0
  9 32  1  6  0  0  0
  9  2  1  0  0  0  0
 10  8  1  0  0  0  0
 10  4  1  0  0  0  0
 12  1  1  0  0  0  0
 17  3  1  0  0  0  0
 19  3  1  0  0  0  0
 20  4  1  0  0  0  0
 23  5  1  0  0  0  0
 24  5  1  0  0  0  0
 26  6  1  0  0  0  0
 29  7  1  0  0  0  0
 30  8  1  0  0  0  0
M  END
>  <HBA>
0

>  <HBD>
0

>  <TPSA>
0.0

>  <cid>
26839

>  <dipole>
0.08

>  <excitation_energy_1>
7.421

>  <excitation_energy_2>
7.512

>  <excitation_energy_3>
7.796

>  <excitation_energy_4>
7.816

>  <homo_energy>
-7.929

>  <homo_lumo_gap>
9.924

>  <logP>
3.859

>  <lumo_energy>
1.995

>  <melting_point>
-10.53

>  <molecular_refractivity>
49.92

>  <oscillator_strength_1>
0.0549

>  <oscillator_strength_2>
0.0287

>  <oscillator_strength_3>
0.0194

>  <oscillator_strength_4>
0.0703

>  <open_babel_can_smiles>
CCC[C@H](CC(C)(C)C)C

>  <mulliken_charges>
32
1   -0.440805
2   -0.458817
3   -0.444356
4   -0.444418
5   -0.440846
6   -0.253844
7   -0.260565
8   -0.260747
9   -0.0657
10   0.094101
11   0.140264
12   0.140165
13   0.140745
14   0.136023
15   0.146138
16   0.142714
17   0.137167
18   0.142051
19   0.136155
20   0.135788
21   0.137736
22   0.143791
23   0.135926
24   0.136445
25   0.136912
26   0.135535
27   0.134398
28   0.121901
29   0.124424
30   0.125202
31   0.124499
32   0.122017

>  <lowdin_charges>
32
1   -0.440371
2   -0.450015
3   -0.444333
4   -0.443806
5   -0.443561
6   -0.273569
7   -0.272741
8   -0.279608
9   -0.128076
10   0.015782
11   0.148649
12   0.143465
13   0.144179
14   0.14442
15   0.150092
16   0.146723
17   0.147299
18   0.14485
19   0.146118
20   0.146953
21   0.145832
22   0.146731
23   0.146445
24   0.145978
25   0.145859
26   0.138802
27   0.138271
28   0.135091
29   0.134871
30   0.140514
31   0.140529
32   0.138629

$$$$

