PCCDB-ID:  29044
public computational chemistry database (PCCDB) project, http://pccdb.org

 20 19  0  0  0  0  0  0  0  0999 V2000
    3.3401   -0.0401   -1.4634 C   0  0  0  0  0  0  0  0  0  0  0  0
    8.8056   -2.0337    3.9310 C   0  0  0  0  0  0  0  0  0  0  0  0
    4.1740   -1.0773   -1.3394 C   0  0  0  0  0  0  0  0  0  0  0  0
    7.2878   -2.0773    3.7576 C   0  0  0  0  0  0  0  0  0  0  0  0
    4.3176   -1.0089    1.0288 C   0  0  0  0  0  0  0  0  0  0  0  0
    5.0107   -1.7504    2.1597 C   0  0  0  0  0  0  0  0  0  0  0  0
    4.6865   -1.6179   -0.2033 O   0  0  0  0  0  0  0  0  0  0  0  0
    6.8392   -1.5987    2.0396 S   0  0  0  0  0  0  0  0  0  0  0  0
    3.0259    0.2636   -2.4551 H   0  0  0  0  0  0  0  0  0  0  0  0
    2.9548    0.5278   -0.6246 H   0  0  0  0  0  0  0  0  0  0  0  0
    9.0760   -2.3141    4.9553 H   0  0  0  0  0  0  0  0  0  0  0  0
    9.1976   -1.0294    3.7392 H   0  0  0  0  0  0  0  0  0  0  0  0
    9.3024   -2.7295    3.2468 H   0  0  0  0  0  0  0  0  0  0  0  0
    4.5459   -1.6251   -2.2008 H   0  0  0  0  0  0  0  0  0  0  0  0
    6.8014   -1.3884    4.4583 H   0  0  0  0  0  0  0  0  0  0  0  0
    6.9099   -3.0863    3.9581 H   0  0  0  0  0  0  0  0  0  0  0  0
    4.6058    0.0510    1.0220 H   0  0  0  0  0  0  0  0  0  0  0  0
    3.2265   -1.0692    1.1587 H   0  0  0  0  0  0  0  0  0  0  0  0
    4.7196   -2.8063    2.1456 H   0  0  0  0  0  0  0  0  0  0  0  0
    4.6828   -1.3131    3.1099 H   0  0  0  0  0  0  0  0  0  0  0  0
  1  3  2  0  0  0  0
  1 10  1  0  0  0  0
  2 11  1  0  0  0  0
  3  7  1  0  0  0  0
  4  2  1  0  0  0  0
  4 16  1  0  0  0  0
  4 15  1  0  0  0  0
  5 18  1  0  0  0  0
  5  6  1  0  0  0  0
  6 20  1  0  0  0  0
  7  5  1  0  0  0  0
  8  6  1  0  0  0  0
  8  4  1  0  0  0  0
  9  1  1  0  0  0  0
 12  2  1  0  0  0  0
 13  2  1  0  0  0  0
 14  3  1  0  0  0  0
 17  5  1  0  0  0  0
 19  6  1  0  0  0  0
M  END
>  <HBA>
2

>  <HBD>
0

>  <TPSA>
34.53

>  <cid>
29044

>  <dipole>
2.26

>  <excitation_energy_1>
5.056

>  <excitation_energy_2>
5.25

>  <excitation_energy_3>
5.737

>  <excitation_energy_4>
5.897

>  <homo_energy>
-5.872

>  <homo_lumo_gap>
6.868

>  <logP>
1.9

>  <lumo_energy>
0.996

>  <melting_point>
-47.14

>  <molecular_refractivity>
39.16

>  <oscillator_strength_1>
0.0006

>  <oscillator_strength_2>
0.0018

>  <oscillator_strength_3>
0.0232

>  <oscillator_strength_4>
0.0164

>  <open_babel_can_smiles>
C=COCCSCC

>  <mulliken_charges>
20
1   -0.401056
2   -0.454728
3   0.159985
4   -0.396273
5   -0.040046
6   -0.423003
7   -0.439245
8   0.101339
9   0.142738
10   0.140524
11   0.152485
12   0.164737
13   0.166212
14   0.145333
15   0.162323
16   0.166324
17   0.158882
18   0.146788
19   0.181135
20   0.165546

>  <lowdin_charges>
20
1   -0.429954
2   -0.444474
3   -0.033873
4   -0.370418
5   -0.123684
6   -0.3777
7   -0.192129
8   0.089398
9   0.168848
10   0.161838
11   0.155263
12   0.15841
13   0.161135
14   0.161387
15   0.15197
16   0.152396
17   0.14757
18   0.142243
19   0.160923
20   0.160851

$$$$

