PCCDB-ID:  35968
public computational chemistry database (PCCDB) project, http://pccdb.org

 30 30  0  0  1  0  0  0  0  0999 V2000
    1.4942    0.6342   -0.1084 C   0  0  0  0  0  0  0  0  0  0  0  0
    4.4816    1.0787    2.0252 C   0  0  0  0  0  0  0  0  0  0  0  0
    2.4179   -4.3744    0.7521 C   0  0  0  0  0  0  0  0  0  0  0  0
    2.8558   -0.0025   -0.4059 C   0  0  0  0  0  0  0  0  0  0  0  0
    3.5536   -0.1417    2.0655 C   0  0  0  0  0  0  0  0  0  0  0  0
    2.7492   -3.0553    0.0694 C   0  0  2  0  0  0  0  0  0  0  0  0
    4.2145   -2.9087   -0.4050 C   0  0  2  0  0  0  0  0  0  0  0  0
    4.7165   -1.6237    0.3148 C   0  0  2  0  0  0  0  0  0  0  0  0
    3.4087   -0.8875    0.7302 C   0  0  0  0  0  0  0  0  0  0  0  0
    4.3655   -2.7966   -1.8258 O   0  0  0  0  0  0  0  0  0  0  0  0
    5.6146   -0.8821   -0.4785 O   0  0  0  0  0  0  0  0  0  0  0  0
    2.5162   -1.9947    0.9991 O   0  0  0  0  0  0  0  0  0  0  0  0
    1.1085    1.1532   -0.9930 H   0  0  0  0  0  0  0  0  0  0  0  0
    1.5591    1.3693    0.7006 H   0  0  0  0  0  0  0  0  0  0  0  0
    0.7648   -0.1266    0.1875 H   0  0  0  0  0  0  0  0  0  0  0  0
    4.6211    1.4819    3.0344 H   0  0  0  0  0  0  0  0  0  0  0  0
    4.0700    1.8828    1.4051 H   0  0  0  0  0  0  0  0  0  0  0  0
    5.4674    0.8248    1.6214 H   0  0  0  0  0  0  0  0  0  0  0  0
    2.5417   -5.2109    0.0556 H   0  0  0  0  0  0  0  0  0  0  0  0
    1.3835   -4.3668    1.1090 H   0  0  0  0  0  0  0  0  0  0  0  0
    3.0742   -4.5347    1.6147 H   0  0  0  0  0  0  0  0  0  0  0  0
    3.6001    0.7634   -0.6455 H   0  0  0  0  0  0  0  0  0  0  0  0
    2.7640   -0.6106   -1.3173 H   0  0  0  0  0  0  0  0  0  0  0  0
    2.5575    0.1537    2.4152 H   0  0  0  0  0  0  0  0  0  0  0  0
    3.9268   -0.8679    2.7988 H   0  0  0  0  0  0  0  0  0  0  0  0
    2.0888   -2.9352   -0.8089 H   0  0  0  0  0  0  0  0  0  0  0  0
    4.8225   -3.7756   -0.1340 H   0  0  0  0  0  0  0  0  0  0  0  0
    5.2355   -1.9199    1.2361 H   0  0  0  0  0  0  0  0  0  0  0  0
    3.5878   -2.3375   -2.1818 H   0  0  0  0  0  0  0  0  0  0  0  0
    5.5364   -1.2627   -1.3752 H   0  0  0  0  0  0  0  0  0  0  0  0
  1 15  1  0  0  0  0
  1 14  1  0  0  0  0
  2  5  1  0  0  0  0
  2 16  1  0  0  0  0
  3 20  1  0  0  0  0
  3 21  1  0  0  0  0
  4  1  1  0  0  0  0
  4  9  1  0  0  0  0
  5 24  1  0  0  0  0
  5 25  1  0  0  0  0
  6 26  1  6  0  0  0
  6  3  1  0  0  0  0
  6 12  1  0  0  0  0
  7 27  1  1  0  0  0
  7  6  1  0  0  0  0
  7  8  1  0  0  0  0
  8  9  1  0  0  0  0
  8 28  1  1  0  0  0
  9 12  1  0  0  0  0
  9  5  1  0  0  0  0
 10  7  1  0  0  0  0
 11  8  1  0  0  0  0
 13  1  1  0  0  0  0
 17  2  1  0  0  0  0
 18  2  1  0  0  0  0
 19  3  1  0  0  0  0
 22  4  1  0  0  0  0
 23  4  1  0  0  0  0
 29 10  1  0  0  0  0
 30 11  1  0  0  0  0
M  END
>  <HBA>
3

>  <HBD>
2

>  <TPSA>
49.69

>  <cid>
35968

>  <dipole>
1.64

>  <excitation_energy_1>
5.91

>  <excitation_energy_2>
6.317

>  <excitation_energy_3>
6.528

>  <excitation_energy_4>
6.543

>  <homo_energy>
-6.697

>  <homo_lumo_gap>
7.875

>  <logP>
0.686

>  <lumo_energy>
1.178

>  <melting_point>
33.33

>  <molecular_refractivity>
46.71

>  <oscillator_strength_1>
0.0052

>  <oscillator_strength_2>
0.0017

>  <oscillator_strength_3>
0.0098

>  <oscillator_strength_4>
0.0137

>  <open_babel_can_smiles>
CCC1(CC)O[C@@H]([C@H]([C@H]1O)O)C

>  <mulliken_charges>
30
1   -0.454966
2   -0.46156
3   -0.463068
4   -0.272489
5   -0.286158
6   0.156184
7   0.048869
8   0.11874
9   0.319602
10   -0.644211
11   -0.64551
12   -0.532981
13   0.14028
14   0.150824
15   0.159938
16   0.142586
17   0.145729
18   0.172528
19   0.14948
20   0.162624
21   0.155048
22   0.163914
23   0.08762
24   0.145401
25   0.136227
26   0.109113
27   0.157261
28   0.129673
29   0.403663
30   0.405643

>  <lowdin_charges>
30
1   -0.449928
2   -0.449741
3   -0.447134
4   -0.288531
5   -0.278848
6   -0.009152
7   -0.03465
8   -0.036418
9   0.100817
10   -0.45343
11   -0.457857
12   -0.274417
13   0.150398
14   0.151114
15   0.156463
16   0.150745
17   0.14898
18   0.160595
19   0.156596
20   0.161012
21   0.156298
22   0.160681
23   0.123803
24   0.149083
25   0.147167
26   0.123188
27   0.155965
28   0.143001
29   0.341539
30   0.34266

$$$$

