PCCDB-ID:  21981
public computational chemistry database (PCCDB) project, http://pccdb.org

 17 17  0  0  0  0  0  0  0  0999 V2000
   -0.5689   -0.9511    0.2642 C   0  0  0  0  0  0  0  0  0  0  0  0
    0.8037   -0.8885   -0.4309 C   0  0  0  0  0  0  0  0  0  0  0  0
    0.1026    1.3611   -0.1852 C   0  0  0  0  0  0  0  0  0  0  0  0
   -0.9795    0.4636    0.2801 N   0  0  0  0  0  0  0  0  0  0  0  0
    1.2712    0.4913   -0.2015 N   0  0  0  0  0  0  0  0  0  0  0  0
   -2.2605    0.7926   -0.1117 N   0  0  0  0  0  0  0  0  0  0  0  0
    2.1836    0.6668    0.8785 N   0  0  0  0  0  0  0  0  0  0  0  0
   -2.4324    1.9629   -0.4554 O   0  0  0  0  0  0  0  0  0  0  0  0
   -3.1152   -0.0877   -0.0423 O   0  0  0  0  0  0  0  0  0  0  0  0
    2.8803   -0.2967    1.1696 O   0  0  0  0  0  0  0  0  0  0  0  0
    2.2526    1.7884    1.3622 O   0  0  0  0  0  0  0  0  0  0  0  0
   -0.4962   -1.3287    1.2889 H   0  0  0  0  0  0  0  0  0  0  0  0
   -1.3063   -1.5469   -0.2760 H   0  0  0  0  0  0  0  0  0  0  0  0
    0.7091   -1.0238   -1.5125 H   0  0  0  0  0  0  0  0  0  0  0  0
    1.5353   -1.5937   -0.0447 H   0  0  0  0  0  0  0  0  0  0  0  0
    0.2603    2.2040    0.4835 H   0  0  0  0  0  0  0  0  0  0  0  0
   -0.1147    1.7280   -1.1931 H   0  0  0  0  0  0  0  0  0  0  0  0
  1  4  1  0  0  0  0
  1 12  1  0  0  0  0
  2  5  1  0  0  0  0
  2 15  1  0  0  0  0
  2  1  1  0  0  0  0
  3  4  1  0  0  0  0
  3 16  1  0  0  0  0
  5  3  1  0  0  0  0
  5  7  1  0  0  0  0
  6  9  2  0  0  0  0
  6  4  1  0  0  0  0
  7 10  2  0  0  0  0
  7 11  2  0  0  0  0
  8  6  2  0  0  0  0
 13  1  1  0  0  0  0
 14  2  1  0  0  0  0
 17  3  1  0  0  0  0
M  END
>  <HBA>
2

>  <HBD>
0

>  <TPSA>
98.12

>  <cid>
21981

>  <dipole>
3.11

>  <excitation_energy_1>
4.475

>  <excitation_energy_2>
4.595

>  <excitation_energy_3>
5.096

>  <excitation_energy_4>
5.285

>  <homo_energy>
-8.066

>  <homo_lumo_gap>
6.033

>  <logP>
-0.133

>  <lumo_energy>
-2.033

>  <melting_point>
64.79

>  <molecular_refractivity>
44.25

>  <oscillator_strength_1>
0.001

>  <oscillator_strength_2>
0.0004

>  <oscillator_strength_3>
0.0033

>  <oscillator_strength_4>
0.063

>  <open_babel_can_smiles>
O=N(=O)N1CCN(C1)N(=O)=O

>  <mulliken_charges>
17
1   -0.147249
2   -0.193637
3   -0.004501
4   -0.290395
5   -0.297429
6   0.633857
7   0.638441
8   -0.411047
9   -0.412246
10   -0.394804
11   -0.387084
12   0.193041
13   0.209138
14   0.192139
15   0.225294
16   0.238933
17   0.207548

>  <lowdin_charges>
17
1   -0.21066
2   -0.213185
3   -0.137725
4   -0.09473
5   -0.094893
6   0.335826
7   0.337658
8   -0.263999
9   -0.263176
10   -0.244593
11   -0.238046
12   0.167844
13   0.184465
14   0.169026
15   0.194807
16   0.197127
17   0.174253

$$$$

