PCCDB-ID:  16446
public computational chemistry database (PCCDB) project, http://pccdb.org

 20 19  0  0  0  0  0  0  0  0999 V2000
    4.7617    1.9368    0.0397 C   0  0  0  0  0  0  0  0  0  0  0  0
    4.4416    0.4448    0.0863 C   0  0  0  0  0  0  0  0  0  0  0  0
    4.9105   -1.2665   -3.8815 C   0  0  0  0  0  0  0  0  0  0  0  0
    4.5360   -1.5143   -1.3877 C   0  0  0  0  0  0  0  0  0  0  0  0
    4.8730    0.0209   -3.9150 N   0  0  0  0  0  0  0  0  0  0  0  0
    5.0592   -2.1180   -4.9830 N   0  0  0  0  0  0  0  0  0  0  0  0
    4.1897   -2.4287   -0.5490 N   0  0  0  0  0  0  0  0  0  0  0  0
    4.7703   -0.1840   -1.1804 N   0  0  0  0  0  0  0  0  0  0  0  0
    4.7525   -1.9768   -2.7073 N   0  0  0  0  0  0  0  0  0  0  0  0
    4.5259    2.4080    0.9992 H   0  0  0  0  0  0  0  0  0  0  0  0
    4.1751    2.4413   -0.7368 H   0  0  0  0  0  0  0  0  0  0  0  0
    5.8234    2.1011   -0.1735 H   0  0  0  0  0  0  0  0  0  0  0  0
    3.3783    0.2958    0.3380 H   0  0  0  0  0  0  0  0  0  0  0  0
    5.0244   -0.0309    0.8876 H   0  0  0  0  0  0  0  0  0  0  0  0
    5.0811    0.3786   -4.8460 H   0  0  0  0  0  0  0  0  0  0  0  0
    5.3518   -1.6452   -5.8288 H   0  0  0  0  0  0  0  0  0  0  0  0
    5.6136   -2.9500   -4.8109 H   0  0  0  0  0  0  0  0  0  0  0  0
    4.0580   -2.0416    0.3841 H   0  0  0  0  0  0  0  0  0  0  0  0
    4.7980    0.3858   -2.0283 H   0  0  0  0  0  0  0  0  0  0  0  0
    4.4989   -2.9532   -2.7826 H   0  0  0  0  0  0  0  0  0  0  0  0
  1  2  1  0  0  0  0
  1 10  1  0  0  0  0
  2 13  1  0  0  0  0
  2 14  1  0  0  0  0
  3  9  1  0  0  0  0
  4  8  1  0  0  0  0
  4  7  2  0  0  0  0
  5  3  1  0  0  0  0
  6 17  1  0  0  0  0
  6  3  2  0  0  0  0
  7 18  1  0  0  0  0
  8  2  1  0  0  0  0
  9  4  1  0  0  0  0
 11  1  1  0  0  0  0
 12  1  1  0  0  0  0
 15  5  1  0  0  0  0
 16  6  1  0  0  0  0
 19  8  1  0  0  0  0
 20  9  1  0  0  0  0
M  RAD  1   5   2
M  END
>  <HBA>
5

>  <HBD>
3

>  <TPSA>
102.78

>  <cid>
16446

>  <dipole>
3.11

>  <excitation_energy_1>
4.92

>  <excitation_energy_2>
5.524

>  <excitation_energy_3>
5.639

>  <excitation_energy_4>
5.843

>  <homo_energy>
-5.597

>  <homo_lumo_gap>
6.457

>  <logP>
0.695

>  <lumo_energy>
0.86

>  <melting_point>
173.24

>  <molecular_refractivity>
36.83

>  <oscillator_strength_1>
0.0013

>  <oscillator_strength_2>
0.0295

>  <oscillator_strength_3>
0.0017

>  <oscillator_strength_4>
0.0743

>  <open_babel_can_smiles>
CCNC(=N)NC(=[NH2])[NH]

>  <mulliken_charges>
20
1   -0.471976
2   -0.107764
3   0.660869
4   0.657665
5   -0.689368
6   -0.757238
7   -0.690987
8   -0.62948
9   -0.665107
10   0.151603
11   0.157804
12   0.160562
13   0.142022
14   0.146762
15   0.277413
16   0.325707
17   0.329278
18   0.280431
19   0.378097
20   0.343708

>  <lowdin_charges>
20
1   -0.446999
2   -0.189879
3   0.142833
4   0.142686
5   -0.487822
6   -0.500324
7   -0.500651
8   -0.31355
9   -0.257135
10   0.157051
11   0.155774
12   0.155105
13   0.133198
14   0.142979
15   0.253631
16   0.280511
17   0.282895
18   0.252118
19   0.30088
20   0.296698

$$$$

