PCCDB-ID:  5603
public computational chemistry database (PCCDB) project, http://pccdb.org

 25 24  0  0  1  0  0  0  0  0999 V2000
    1.7105   -0.8396   -0.8816 C   0  0  0  0  0  0  0  0  0  0  0  0
    5.5329    5.7228    0.0164 C   0  0  0  0  0  0  0  0  0  0  0  0
    3.0335   -0.1970   -0.4526 C   0  0  0  0  0  0  0  0  0  0  0  0
    3.0125    1.3355   -0.5185 C   0  0  0  0  0  0  0  0  0  0  0  0
    4.3328    1.9869   -0.0860 C   0  0  0  0  0  0  0  0  0  0  0  0
    4.3017    3.5202   -0.1518 C   0  0  0  0  0  0  0  0  0  0  0  0
    5.6379    4.2044    0.1779 C   0  0  2  0  0  0  0  0  0  0  0  0
    6.0192    3.9072    1.5687 N   0  0  0  0  0  0  0  0  0  0  0  0
    1.7581   -1.9330   -0.8222 H   0  0  0  0  0  0  0  0  0  0  0  0
    1.4566   -0.5730   -1.9152 H   0  0  0  0  0  0  0  0  0  0  0  0
    0.8830   -0.5069   -0.2428 H   0  0  0  0  0  0  0  0  0  0  0  0
    5.2427    5.9894   -1.0060 H   0  0  0  0  0  0  0  0  0  0  0  0
    6.4928    6.2111    0.2287 H   0  0  0  0  0  0  0  0  0  0  0  0
    4.7878    6.1283    0.7101 H   0  0  0  0  0  0  0  0  0  0  0  0
    3.8470   -0.5757   -1.0880 H   0  0  0  0  0  0  0  0  0  0  0  0
    3.2770   -0.5118    0.5722 H   0  0  0  0  0  0  0  0  0  0  0  0
    2.1971    1.7145    0.1152 H   0  0  0  0  0  0  0  0  0  0  0  0
    2.7709    1.6509   -1.5446 H   0  0  0  0  0  0  0  0  0  0  0  0
    5.1475    1.6088   -0.7229 H   0  0  0  0  0  0  0  0  0  0  0  0
    4.5632    1.6651    0.9396 H   0  0  0  0  0  0  0  0  0  0  0  0
    3.5395    3.9013    0.5416 H   0  0  0  0  0  0  0  0  0  0  0  0
    3.9987    3.8270   -1.1633 H   0  0  0  0  0  0  0  0  0  0  0  0
    6.3874    3.8371   -0.5510 H   0  0  0  0  0  0  0  0  0  0  0  0
    6.2365    2.9166    1.6640 H   0  0  0  0  0  0  0  0  0  0  0  0
    6.8811    4.4027    1.7955 H   0  0  0  0  0  0  0  0  0  0  0  0
  1  9  1  0  0  0  0
  1  3  1  0  0  0  0
  1 11  1  0  0  0  0
  2  7  1  0  0  0  0
  2 13  1  0  0  0  0
  2 14  1  0  0  0  0
  3 16  1  0  0  0  0
  4  3  1  0  0  0  0
  4  5  1  0  0  0  0
  4 17  1  0  0  0  0
  5 20  1  0  0  0  0
  6  5  1  0  0  0  0
  6  7  1  0  0  0  0
  6 21  1  0  0  0  0
  7 23  1  6  0  0  0
  7  8  1  0  0  0  0
  8 24  1  0  0  0  0
  8 25  1  0  0  0  0
 10  1  1  0  0  0  0
 12  2  1  0  0  0  0
 15  3  1  0  0  0  0
 18  4  1  0  0  0  0
 19  5  1  0  0  0  0
 22  6  1  0  0  0  0
M  END
>  <HBA>
1

>  <HBD>
1

>  <TPSA>
26.02

>  <cid>
5603

>  <dipole>
1.29

>  <excitation_energy_1>
5.684

>  <excitation_energy_2>
6.425

>  <excitation_energy_3>
6.591

>  <excitation_energy_4>
6.695

>  <homo_energy>
-6.231

>  <homo_lumo_gap>
8.378

>  <logP>
2.614

>  <lumo_energy>
2.147

>  <melting_point>
27.02

>  <molecular_refractivity>
38.47

>  <oscillator_strength_1>
0.0076

>  <oscillator_strength_2>
0.0106

>  <oscillator_strength_3>
0.0703

>  <oscillator_strength_4>
0.004

>  <open_babel_can_smiles>
CCCCC[C@H](N)C

>  <mulliken_charges>
25
1   -0.441285
2   -0.443535
3   -0.247091
4   -0.245663
5   -0.268706
6   -0.233948
7   0.037051
8   -0.722193
9   0.140953
10   0.140868
11   0.141831
12   0.139969
13   0.132032
14   0.155716
15   0.128585
16   0.129902
17   0.129977
18   0.126147
19   0.122833
20   0.131399
21   0.138067
22   0.121392
23   0.099334
24   0.295959
25   0.290407

>  <lowdin_charges>
25
1   -0.442107
2   -0.447666
3   -0.272488
4   -0.273296
5   -0.278753
6   -0.279178
7   -0.061418
8   -0.558075
9   0.146813
10   0.144961
11   0.147229
12   0.148981
13   0.143983
14   0.155958
15   0.13882
16   0.137651
17   0.140071
18   0.136004
19   0.135864
20   0.137922
21   0.146922
22   0.138198
23   0.112683
24   0.249795
25   0.251124

$$$$

