PCCDB-ID:  45052
public computational chemistry database (PCCDB) project, http://pccdb.org

 36 36  0  0  0  0  0  0  0  0999 V2000
    6.5223    5.6452    4.2648 C   0  0  0  0  0  0  0  0  0  0  0  0
    7.3663   -1.8157    3.3860 C   0  0  0  0  0  0  0  0  0  0  0  0
    8.4175   -0.3986    6.5420 C   0  0  0  0  0  0  0  0  0  0  0  0
    6.6990    4.3409    4.0573 C   0  0  0  0  0  0  0  0  0  0  0  0
    8.8553   -1.8006    3.7431 C   0  0  0  0  0  0  0  0  0  0  0  0
    9.6462   -0.3384    5.6294 C   0  0  0  0  0  0  0  0  0  0  0  0
   12.0455    3.3400    3.5556 C   0  0  0  0  0  0  0  0  0  0  0  0
   11.2600    4.3149    4.1664 C   0  0  0  0  0  0  0  0  0  0  0  0
   11.4924    2.0859    3.2938 C   0  0  0  0  0  0  0  0  0  0  0  0
    9.9350    4.0456    4.5173 C   0  0  0  0  0  0  0  0  0  0  0  0
    7.1900    3.3741    5.1008 C   0  0  0  0  0  0  0  0  0  0  0  0
   10.1791    1.7828    3.6600 C   0  0  0  0  0  0  0  0  0  0  0  0
    9.3918    2.7809    4.2659 C   0  0  0  0  0  0  0  0  0  0  0  0
    9.6113    0.4417    3.2448 C   0  0  0  0  0  0  0  0  0  0  0  0
    9.3394   -0.4935    4.2085 N   0  0  0  0  0  0  0  0  0  0  0  0
    9.4472    0.2033    2.0489 O   0  0  0  0  0  0  0  0  0  0  0  0
    8.1106    2.4081    4.5848 O   0  0  0  0  0  0  0  0  0  0  0  0
    6.1157    6.2960    3.4960 H   0  0  0  0  0  0  0  0  0  0  0  0
    6.7703    6.1147    5.2153 H   0  0  0  0  0  0  0  0  0  0  0  0
    7.0717   -2.8159    3.0464 H   0  0  0  0  0  0  0  0  0  0  0  0
    7.1712   -1.1066    2.5776 H   0  0  0  0  0  0  0  0  0  0  0  0
    6.7431   -1.5479    4.2458 H   0  0  0  0  0  0  0  0  0  0  0  0
    8.7203   -0.2529    7.5857 H   0  0  0  0  0  0  0  0  0  0  0  0
    7.9113   -1.3678    6.4763 H   0  0  0  0  0  0  0  0  0  0  0  0
    7.7051    0.3848    6.2704 H   0  0  0  0  0  0  0  0  0  0  0  0
    6.4454    3.8928    3.0973 H   0  0  0  0  0  0  0  0  0  0  0  0
    9.4405   -2.0801    2.8617 H   0  0  0  0  0  0  0  0  0  0  0  0
    9.0687   -2.5268    4.5351 H   0  0  0  0  0  0  0  0  0  0  0  0
   10.3592   -1.1248    5.9191 H   0  0  0  0  0  0  0  0  0  0  0  0
   10.1600    0.6150    5.7612 H   0  0  0  0  0  0  0  0  0  0  0  0
   13.0717    3.5545    3.2727 H   0  0  0  0  0  0  0  0  0  0  0  0
   11.6688    5.3020    4.3654 H   0  0  0  0  0  0  0  0  0  0  0  0
   12.0797    1.3228    2.7909 H   0  0  0  0  0  0  0  0  0  0  0  0
    9.3302    4.8282    4.9575 H   0  0  0  0  0  0  0  0  0  0  0  0
    6.3573    2.7596    5.4616 H   0  0  0  0  0  0  0  0  0  0  0  0
    7.6141    3.8992    5.9673 H   0  0  0  0  0  0  0  0  0  0  0  0
  1 19  1  0  0  0  0
  2  5  1  0  0  0  0
  2 22  1  0  0  0  0
  3 23  1  0  0  0  0
  4  1  2  0  0  0  0
  4 11  1  0  0  0  0
  5 15  1  0  0  0  0
  5 28  1  0  0  0  0
  6 30  1  0  0  0  0
  6 29  1  0  0  0  0
  6  3  1  0  0  0  0
  7  8  1  0  0  0  0
  8 32  1  0  0  0  0
  8 10  2  0  0  0  0
  9  7  2  0  0  0  0
  9 12  1  0  0  0  0
 10 34  1  0  0  0  0
 11 35  1  0  0  0  0
 11 36  1  0  0  0  0
 12 13  2  0  0  0  0
 13 10  1  0  0  0  0
 13 17  1  0  0  0  0
 14 12  1  0  0  0  0
 14 15  1  0  0  0  0
 15  6  1  0  0  0  0
 16 14  2  0  0  0  0
 17 11  1  0  0  0  0
 18  1  1  0  0  0  0
 20  2  1  0  0  0  0
 21  2  1  0  0  0  0
 24  3  1  0  0  0  0
 25  3  1  0  0  0  0
 26  4  1  0  0  0  0
 27  5  1  0  0  0  0
 31  7  1  0  0  0  0
 33  9  1  0  0  0  0
M  END
>  <HBA>
3

>  <HBD>
0

>  <TPSA>
29.54

>  <cid>
45052

>  <dipole>
4.0

>  <excitation_energy_1>
4.816

>  <excitation_energy_2>
4.989

>  <excitation_energy_3>
5.032

>  <excitation_energy_4>
5.193

>  <homo_energy>
-5.91

>  <homo_lumo_gap>
5.663

>  <logP>
2.733

>  <lumo_energy>
-0.248

>  <melting_point>
23.04

>  <molecular_refractivity>
69.59

>  <oscillator_strength_1>
0.0465

>  <oscillator_strength_2>
0.0244

>  <oscillator_strength_3>
0.0052

>  <oscillator_strength_4>
0.0051

>  <open_babel_can_smiles>
C=CCOc1ccccc1C(=O)N(CC)CC

>  <mulliken_charges>
36
1   -0.332692
2   -0.444142
3   -0.449482
4   -0.064485
5   -0.135804
6   -0.14162
7   -0.134492
8   -0.135764
9   -0.158433
10   -0.183888
11   -0.087571
12   -0.014804
13   0.357922
14   0.527019
15   -0.392361
16   -0.519581
17   -0.533808
18   0.153768
19   0.140499
20   0.138667
21   0.182063
22   0.142362
23   0.142573
24   0.149418
25   0.167766
26   0.156194
27   0.171901
28   0.133928
29   0.141903
30   0.167309
31   0.12887
32   0.130759
33   0.14309
34   0.13721
35   0.168868
36   0.14684

>  <lowdin_charges>
36
1   -0.328028
2   -0.45239
3   -0.45517
4   -0.160082
5   -0.193732
6   -0.19411
7   -0.174203
8   -0.144746
9   -0.139228
10   -0.209355
11   -0.12985
12   -0.056809
13   0.101227
14   0.15905
15   -0.096137
16   -0.310971
17   -0.204014
18   0.167671
19   0.1558
20   0.149852
21   0.168591
22   0.147532
23   0.151246
24   0.149578
25   0.159783
26   0.166583
27   0.163447
28   0.143863
29   0.14094
30   0.164211
31   0.157789
32   0.158118
33   0.167503
34   0.16712
35   0.164285
36   0.144636

$$$$

