PCCDB-ID:  7662
public computational chemistry database (PCCDB) project, http://pccdb.org

 33 33  0  0  0  0  0  0  0  0999 V2000
    1.6842    3.2019   -1.8602 C   0  0  0  0  0  0  0  0  0  0  0  0
    3.0414    1.1070   -1.3458 C   0  0  0  0  0  0  0  0  0  0  0  0
   11.6215    1.4146   -2.0057 C   0  0  0  0  0  0  0  0  0  0  0  0
   10.8855    2.3533   -2.7316 C   0  0  0  0  0  0  0  0  0  0  0  0
   11.3409    1.2174   -0.6528 C   0  0  0  0  0  0  0  0  0  0  0  0
    7.0840    2.9978   -0.2836 C   0  0  0  0  0  0  0  0  0  0  0  0
    9.8762    3.0865   -2.1071 C   0  0  0  0  0  0  0  0  0  0  0  0
   10.3299    1.9535   -0.0328 C   0  0  0  0  0  0  0  0  0  0  0  0
    8.4593    3.6671   -0.0872 C   0  0  0  0  0  0  0  0  0  0  0  0
    5.9664    3.7923    0.3848 C   0  0  0  0  0  0  0  0  0  0  0  0
    2.7099    2.5545   -0.9250 C   0  0  0  0  0  0  0  0  0  0  0  0
    9.5825    2.8968   -0.7498 C   0  0  0  0  0  0  0  0  0  0  0  0
    3.9970    3.3677   -0.8905 C   0  0  0  0  0  0  0  0  0  0  0  0
    4.3818    4.1116   -1.7682 O   0  0  0  0  0  0  0  0  0  0  0  0
    4.6890    3.1286    0.2506 O   0  0  0  0  0  0  0  0  0  0  0  0
    0.7678    2.6024   -1.8906 H   0  0  0  0  0  0  0  0  0  0  0  0
    2.0843    3.2807   -2.8754 H   0  0  0  0  0  0  0  0  0  0  0  0
    1.4218    4.2117   -1.5280 H   0  0  0  0  0  0  0  0  0  0  0  0
    2.1325    0.4956   -1.3390 H   0  0  0  0  0  0  0  0  0  0  0  0
    3.7670    0.6518   -0.6647 H   0  0  0  0  0  0  0  0  0  0  0  0
    3.4574    1.0843   -2.3597 H   0  0  0  0  0  0  0  0  0  0  0  0
   12.4104    0.8451   -2.4896 H   0  0  0  0  0  0  0  0  0  0  0  0
   11.1004    2.5185   -3.7843 H   0  0  0  0  0  0  0  0  0  0  0  0
   11.9114    0.4927   -0.0775 H   0  0  0  0  0  0  0  0  0  0  0  0
    7.1039    1.9812    0.1284 H   0  0  0  0  0  0  0  0  0  0  0  0
    6.8677    2.9105   -1.3541 H   0  0  0  0  0  0  0  0  0  0  0  0
    9.3104    3.8200   -2.6780 H   0  0  0  0  0  0  0  0  0  0  0  0
   10.1209    1.7981    1.0238 H   0  0  0  0  0  0  0  0  0  0  0  0
    8.6643    3.7653    0.9872 H   0  0  0  0  0  0  0  0  0  0  0  0
    8.4213    4.6865   -0.4937 H   0  0  0  0  0  0  0  0  0  0  0  0
    5.8903    4.7967   -0.0410 H   0  0  0  0  0  0  0  0  0  0  0  0
    6.1240    3.8683    1.4646 H   0  0  0  0  0  0  0  0  0  0  0  0
    2.3192    2.5267    0.0994 H   0  0  0  0  0  0  0  0  0  0  0  0
  1 18  1  0  0  0  0
  1 11  1  0  0  0  0
  2 19  1  0  0  0  0
  2 11  1  0  0  0  0
  2 20  1  0  0  0  0
  3  5  2  0  0  0  0
  4  7  2  0  0  0  0
  4  3  1  0  0  0  0
  5 24  1  0  0  0  0
  5  8  1  0  0  0  0
  6  9  1  0  0  0  0
  6 25  1  0  0  0  0
  6 10  1  0  0  0  0
  7 12  1  0  0  0  0
  8 28  1  0  0  0  0
  9 29  1  0  0  0  0
 10 32  1  0  0  0  0
 11 13  1  0  0  0  0
 11 33  1  0  0  0  0
 12  9  1  0  0  0  0
 12  8  2  0  0  0  0
 13 15  1  0  0  0  0
 14 13  2  0  0  0  0
 15 10  1  0  0  0  0
 16  1  1  0  0  0  0
 17  1  1  0  0  0  0
 21  2  1  0  0  0  0
 22  3  1  0  0  0  0
 23  4  1  0  0  0  0
 26  6  1  0  0  0  0
 27  7  1  0  0  0  0
 30  9  1  0  0  0  0
 31 10  1  0  0  0  0
M  END
>  <HBA>
2

>  <HBD>
0

>  <TPSA>
26.3

>  <cid>
7662

>  <dipole>
1.59

>  <excitation_energy_1>
5.303

>  <excitation_energy_2>
5.743

>  <excitation_energy_3>
5.873

>  <excitation_energy_4>
6.049

>  <homo_energy>
-6.493

>  <homo_lumo_gap>
6.539

>  <logP>
2.818

>  <lumo_energy>
0.046

>  <melting_point>
15.61

>  <molecular_refractivity>
61.53

>  <oscillator_strength_1>
0.0006

>  <oscillator_strength_2>
0.0015

>  <oscillator_strength_3>
0.0538

>  <oscillator_strength_4>
0.0009

>  <open_babel_can_smiles>
O=C(C(C)C)OCCCc1ccccc1

>  <mulliken_charges>
33
1   -0.439066
2   -0.452518
3   -0.130877
4   -0.128602
5   -0.127964
6   -0.274915
7   -0.179339
8   -0.181271
9   -0.359648
10   -0.043044
11   -0.159917
12   0.172613
13   0.62646
14   -0.48436
15   -0.47177
16   0.139901
17   0.165595
18   0.151561
19   0.152704
20   0.160658
21   0.157778
22   0.127855
23   0.129482
24   0.128042
25   0.148085
26   0.166435
27   0.12793
28   0.120891
29   0.14044
30   0.149532
31   0.166733
32   0.147962
33   0.152632

>  <lowdin_charges>
33
1   -0.438414
2   -0.438858
3   -0.162006
4   -0.15273
5   -0.156533
6   -0.282235
7   -0.167742
8   -0.167262
9   -0.26953
10   -0.130039
11   -0.144178
12   0.000499
13   0.199552
14   -0.270726
15   -0.196221
16   0.149909
17   0.160252
18   0.154565
19   0.154968
20   0.158864
21   0.154185
22   0.158022
23   0.155998
24   0.158154
25   0.148558
26   0.157051
27   0.157658
28   0.151656
29   0.145455
30   0.150826
31   0.155911
32   0.14818
33   0.156212

$$$$

