PCCDB-ID:  4626
public computational chemistry database (PCCDB) project, http://pccdb.org

 21 21  0  0  1  0  0  0  0  0999 V2000
   -0.8451   -1.4377   -0.0382 C   0  0  0  0  0  0  0  0  0  0  0  0
    1.1256   -0.0766    0.3028 C   0  0  0  0  0  0  0  0  0  0  0  0
   -0.0190    2.2066   -0.0967 C   0  0  0  0  0  0  0  0  0  0  0  0
    0.6931   -1.5048   -0.1131 C   0  0  2  0  0  0  0  0  0  0  0  0
   -0.0229    2.8034   -1.5078 C   0  0  0  0  0  0  0  0  0  0  0  0
   -1.1603    0.0274   -0.3031 C   0  0  0  0  0  0  0  0  0  0  0  0
    0.8661    3.5630   -2.0084 N   0  0  0  0  0  0  0  0  0  0  0  0
   -0.0193    0.7437   -0.0944 N   0  0  0  0  0  0  0  0  0  0  0  0
    1.1625   -1.8494   -1.4057 O   0  0  0  0  0  0  0  0  0  0  0  0
   -1.0984    2.4726   -2.2494 O   0  0  0  0  0  0  0  0  0  0  0  0
   -2.2368    0.5191   -0.6464 O   0  0  0  0  0  0  0  0  0  0  0  0
   -1.2163   -1.6970    0.9618 H   0  0  0  0  0  0  0  0  0  0  0  0
   -1.3325   -2.0987   -0.7586 H   0  0  0  0  0  0  0  0  0  0  0  0
    2.0363    0.2202   -0.2268 H   0  0  0  0  0  0  0  0  0  0  0  0
    1.3069    0.0029    1.3847 H   0  0  0  0  0  0  0  0  0  0  0  0
   -0.9166    2.5478    0.4358 H   0  0  0  0  0  0  0  0  0  0  0  0
    0.8580    2.5510    0.4556 H   0  0  0  0  0  0  0  0  0  0  0  0
    1.1168   -2.2580    0.5537 H   0  0  0  0  0  0  0  0  0  0  0  0
    1.6164    3.7193   -1.3343 H   0  0  0  0  0  0  0  0  0  0  0  0
    0.8064   -1.2086   -2.0440 H   0  0  0  0  0  0  0  0  0  0  0  0
   -1.7046    1.8954   -1.7302 H   0  0  0  0  0  0  0  0  0  0  0  0
  1 12  1  0  0  0  0
  2 15  1  0  0  0  0
  3  8  1  0  0  0  0
  3 16  1  0  0  0  0
  3 17  1  0  0  0  0
  4  1  1  0  0  0  0
  4  2  1  0  0  0  0
  4 18  1  1  0  0  0
  5  3  1  0  0  0  0
  6  8  1  0  0  0  0
  6  1  1  0  0  0  0
  7  5  2  0  0  0  0
  7 19  1  0  0  0  0
  8  2  1  0  0  0  0
  9  4  1  0  0  0  0
 10 21  1  0  0  0  0
 10  5  1  0  0  0  0
 11  6  2  0  0  0  0
 13  1  1  0  0  0  0
 14  2  1  0  0  0  0
 20  9  1  0  0  0  0
M  END
>  <HBA>
5

>  <HBD>
2

>  <TPSA>
83.63

>  <cid>
4626

>  <dipole>
5.98

>  <excitation_energy_1>
5.672

>  <excitation_energy_2>
5.742

>  <excitation_energy_3>
6.039

>  <excitation_energy_4>
6.081

>  <homo_energy>
-6.879

>  <homo_lumo_gap>
6.626

>  <logP>
-1.297

>  <lumo_energy>
-0.253

>  <melting_point>
114.3

>  <molecular_refractivity>
39.92

>  <oscillator_strength_1>
0.0024

>  <oscillator_strength_2>
0.0225

>  <oscillator_strength_3>
0.0274

>  <oscillator_strength_4>
0.0236

>  <open_babel_can_smiles>
O[C@@H]1CC(=O)N(C1)CC(=N)O

>  <mulliken_charges>
21
1   -0.38461
2   -0.145506
3   -0.261777
4   0.104593
5   0.493826
6   0.58646
7   -0.580726
8   -0.408445
9   -0.609758
10   -0.597585
11   -0.547154
12   0.183653
13   0.195427
14   0.180046
15   0.157885
16   0.194812
17   0.163377
18   0.159402
19   0.275837
20   0.399157
21   0.441086

>  <lowdin_charges>
21
1   -0.319964
2   -0.211856
3   -0.230501
4   -0.000962
5   0.115529
6   0.15116
7   -0.400314
8   -0.100329
9   -0.449396
10   -0.371644
11   -0.319605
12   0.178987
13   0.183077
14   0.164538
15   0.147627
16   0.175389
17   0.165469
18   0.158938
19   0.252548
20   0.349798
21   0.361512

$$$$

