PCCDB-ID:  69674
public computational chemistry database (PCCDB) project, http://pccdb.org

 20 20  0  0  0  0  0  0  0  0999 V2000
    0.8912    0.3018    0.0450 C   0  0  0  0  0  0  0  0  0  0  0  0
    3.1793    1.1381   -0.6800 C   0  0  0  0  0  0  0  0  0  0  0  0
    3.4550   -1.1970    2.0668 C   0  0  0  0  0  0  0  0  0  0  0  0
    2.8054    1.0633    2.4393 C   0  0  0  0  0  0  0  0  0  0  0  0
    3.8837   -1.2382    3.3943 C   0  0  0  0  0  0  0  0  0  0  0  0
    3.2633    0.9225    3.7480 C   0  0  0  0  0  0  0  0  0  0  0  0
    2.4121    0.0660    0.1168 C   0  0  0  0  0  0  0  0  0  0  0  0
    2.8963   -0.0209    1.5558 C   0  0  0  0  0  0  0  0  0  0  0  0
    3.7980   -0.2039    4.2388 N   0  0  0  0  0  0  0  0  0  0  0  0
    0.5520    0.2988   -0.9974 H   0  0  0  0  0  0  0  0  0  0  0  0
    0.6179    1.2695    0.4819 H   0  0  0  0  0  0  0  0  0  0  0  0
    0.3424   -0.4767    0.5857 H   0  0  0  0  0  0  0  0  0  0  0  0
    2.8657    1.1314   -1.7303 H   0  0  0  0  0  0  0  0  0  0  0  0
    4.2599    0.9627   -0.6446 H   0  0  0  0  0  0  0  0  0  0  0  0
    2.9896    2.1421   -0.2827 H   0  0  0  0  0  0  0  0  0  0  0  0
    3.5579   -2.0774    1.4369 H   0  0  0  0  0  0  0  0  0  0  0  0
    2.3829    2.0121    2.1194 H   0  0  0  0  0  0  0  0  0  0  0  0
    4.3183   -2.1513    3.7993 H   0  0  0  0  0  0  0  0  0  0  0  0
    3.1982    1.7601    4.4413 H   0  0  0  0  0  0  0  0  0  0  0  0
    2.6187   -0.9056   -0.3521 H   0  0  0  0  0  0  0  0  0  0  0  0
  1  7  1  0  0  0  0
  1 11  1  0  0  0  0
  1 12  1  0  0  0  0
  2 14  1  0  0  0  0
  2 15  1  0  0  0  0
  2  7  1  0  0  0  0
  3  5  1  0  0  0  0
  4  6  2  0  0  0  0
  5 18  1  0  0  0  0
  5  9  2  0  0  0  0
  6  9  1  0  0  0  0
  6 19  1  0  0  0  0
  7  8  1  0  0  0  0
  8  3  2  0  0  0  0
  8  4  1  0  0  0  0
 10  1  1  0  0  0  0
 13  2  1  0  0  0  0
 16  3  1  0  0  0  0
 17  4  1  0  0  0  0
 20  7  1  0  0  0  0
M  END
>  <HBA>
1

>  <HBD>
0

>  <TPSA>
12.89

>  <cid>
69674

>  <dipole>
2.7

>  <excitation_energy_1>
4.93

>  <excitation_energy_2>
5.155

>  <excitation_energy_3>
5.475

>  <excitation_energy_4>
6.15

>  <homo_energy>
-6.768

>  <homo_lumo_gap>
6.294

>  <logP>
2.205

>  <lumo_energy>
-0.473

>  <melting_point>
21.33

>  <molecular_refractivity>
38.82

>  <oscillator_strength_1>
0.0051

>  <oscillator_strength_2>
0.0001

>  <oscillator_strength_3>
0.0245

>  <oscillator_strength_4>
0.0032

>  <open_babel_can_smiles>
CC(c1ccncc1)C

>  <mulliken_charges>
20
1   -0.440337
2   -0.44117
3   -0.200992
4   -0.188779
5   0.041181
6   0.03603
7   -0.159344
8   0.20164
9   -0.41075
10   0.146397
11   0.14657
12   0.153345
13   0.14649
14   0.153514
15   0.146382
16   0.129376
17   0.130406
18   0.138425
19   0.138543
20   0.133071

>  <lowdin_charges>
20
1   -0.440709
2   -0.437102
3   -0.191251
4   -0.18593
5   -0.088531
6   -0.090141
7   -0.118938
8   0.02558
9   -0.155161
10   0.150337
11   0.149145
12   0.155938
13   0.150266
14   0.15298
15   0.148432
16   0.160075
17   0.159691
18   0.155543
19   0.15602
20   0.143755

$$$$

