PCCDB-ID:  40847
public computational chemistry database (PCCDB) project, http://pccdb.org

 28 28  0  0  0  0  0  0  0  0999 V2000
    5.3153    0.3273   -1.6035 C   0  0  0  0  0  0  0  0  0  0  0  0
    4.1383    6.4331    2.7475 C   0  0  0  0  0  0  0  0  0  0  0  0
    4.5670    0.9214   -0.4060 C   0  0  0  0  0  0  0  0  0  0  0  0
    5.4680    1.7455    0.5218 C   0  0  0  0  0  0  0  0  0  0  0  0
    4.7096    2.3309    1.7312 C   0  0  0  0  0  0  0  0  0  0  0  0
    6.6618    2.5585    3.5075 C   0  0  0  0  0  0  0  0  0  0  0  0
    6.4979    5.0287    3.8127 C   0  0  0  0  0  0  0  0  0  0  0  0
    5.5668    3.1508    2.6515 C   0  0  0  0  0  0  0  0  0  0  0  0
    7.2440    3.7612    4.2587 C   0  0  0  0  0  0  0  0  0  0  0  0
    5.4990    4.4843    2.8209 C   0  0  0  0  0  0  0  0  0  0  0  0
    8.1391    3.7268    5.0716 O   0  0  0  0  0  0  0  0  0  0  0  0
    4.6603    5.2818    2.0938 O   0  0  0  0  0  0  0  0  0  0  0  0
    4.6430   -0.2488   -2.2495 H   0  0  0  0  0  0  0  0  0  0  0  0
    6.1189   -0.3442   -1.2767 H   0  0  0  0  0  0  0  0  0  0  0  0
    5.7719    1.1145   -2.2160 H   0  0  0  0  0  0  0  0  0  0  0  0
    3.5108    6.9405    2.0121 H   0  0  0  0  0  0  0  0  0  0  0  0
    4.9337    7.1169    3.0702 H   0  0  0  0  0  0  0  0  0  0  0  0
    3.5249    6.1596    3.6167 H   0  0  0  0  0  0  0  0  0  0  0  0
    4.0968    0.1121    0.1710 H   0  0  0  0  0  0  0  0  0  0  0  0
    3.7442    1.5553   -0.7657 H   0  0  0  0  0  0  0  0  0  0  0  0
    5.9264    2.5677   -0.0449 H   0  0  0  0  0  0  0  0  0  0  0  0
    6.2969    1.1147    0.8740 H   0  0  0  0  0  0  0  0  0  0  0  0
    4.2626    1.4986    2.2976 H   0  0  0  0  0  0  0  0  0  0  0  0
    3.8805    2.9502    1.3704 H   0  0  0  0  0  0  0  0  0  0  0  0
    7.4610    2.0643    2.9345 H   0  0  0  0  0  0  0  0  0  0  0  0
    6.3019    1.8074    4.2272 H   0  0  0  0  0  0  0  0  0  0  0  0
    7.2038    5.7494    3.3752 H   0  0  0  0  0  0  0  0  0  0  0  0
    6.0529    5.5212    4.6883 H   0  0  0  0  0  0  0  0  0  0  0  0
  1 14  1  0  0  0  0
  1  3  1  0  0  0  0
  2 17  1  0  0  0  0
  2 18  1  0  0  0  0
  3 19  1  0  0  0  0
  3  4  1  0  0  0  0
  4 22  1  0  0  0  0
  4  5  1  0  0  0  0
  5 23  1  0  0  0  0
  5  8  1  0  0  0  0
  6 26  1  0  0  0  0
  6  9  1  0  0  0  0
  7  9  1  0  0  0  0
  7 28  1  0  0  0  0
  8 10  2  0  0  0  0
  8  6  1  0  0  0  0
  9 11  2  0  0  0  0
 10  7  1  0  0  0  0
 12  2  1  0  0  0  0
 12 10  1  0  0  0  0
 13  1  1  0  0  0  0
 15  1  1  0  0  0  0
 16  2  1  0  0  0  0
 20  3  1  0  0  0  0
 21  4  1  0  0  0  0
 24  5  1  0  0  0  0
 25  6  1  0  0  0  0
 27  7  1  0  0  0  0
M  END
>  <HBA>
2

>  <HBD>
0

>  <TPSA>
26.3

>  <cid>
40847

>  <dipole>
2.65

>  <excitation_energy_1>
4.217

>  <excitation_energy_2>
4.338

>  <excitation_energy_3>
5.19

>  <excitation_energy_4>
5.7

>  <homo_energy>
-5.81

>  <homo_lumo_gap>
5.32

>  <logP>
2.44

>  <lumo_energy>
-0.49

>  <melting_point>
22.43

>  <molecular_refractivity>
48.88

>  <oscillator_strength_1>
0.0029

>  <oscillator_strength_2>
0.0047

>  <oscillator_strength_3>
0.0143

>  <oscillator_strength_4>
0.0077

>  <open_babel_can_smiles>
CCCCC1=C(OC)CC(=O)C1

>  <mulliken_charges>
28
1   -0.44206
2   -0.215969
3   -0.245049
4   -0.24793
5   -0.336606
6   -0.421346
7   -0.436305
8   0.10925
9   0.455115
10   0.312541
11   -0.447139
12   -0.50279
13   0.142223
14   0.141365
15   0.1428
16   0.168881
17   0.150271
18   0.148676
19   0.129768
20   0.132967
21   0.137909
22   0.127698
23   0.132285
24   0.153841
25   0.175966
26   0.171651
27   0.183291
28   0.178697

>  <lowdin_charges>
28
1   -0.447544
2   -0.278328
3   -0.274137
4   -0.274613
5   -0.27336
6   -0.305
7   -0.32446
8   -0.06325
9   0.170756
10   0.052226
11   -0.220922
12   -0.208581
13   0.150976
14   0.147032
15   0.148186
16   0.16329
17   0.144616
18   0.143442
19   0.139645
20   0.141005
21   0.144276
22   0.137747
23   0.145201
24   0.157277
25   0.169267
26   0.168189
27   0.174902
28   0.172162

$$$$

