PCCDB-ID:  51153
public computational chemistry database (PCCDB) project, http://pccdb.org

 26 25  0  0  0  0  0  0  0  0999 V2000
    1.7824   -1.4133    1.6069 C   0  0  0  0  0  0  0  0  0  0  0  0
    0.0999   -0.3016    0.0672 C   0  0  0  0  0  0  0  0  0  0  0  0
    3.8102   -2.8728   -5.3486 C   0  0  0  0  0  0  0  0  0  0  0  0
    2.4356   -0.7113   -0.7511 C   0  0  0  0  0  0  0  0  0  0  0  0
    3.5797   -2.7759   -1.6573 C   0  0  0  0  0  0  0  0  0  0  0  0
    1.3101   -1.2426    0.1575 C   0  0  0  0  0  0  0  0  0  0  0  0
    3.5937   -3.3810   -3.9438 C   0  0  0  0  0  0  0  0  0  0  0  0
    4.7460   -1.1280   -0.2862 N   0  0  0  0  0  0  0  0  0  0  0  0
    3.5981   -1.5903   -0.8516 N   0  0  0  0  0  0  0  0  0  0  0  0
    3.3388   -4.5230   -3.6318 O   0  0  0  0  0  0  0  0  0  0  0  0
    5.7345   -1.8215   -0.4579 O   0  0  0  0  0  0  0  0  0  0  0  0
    3.7304   -2.3772   -3.0398 O   0  0  0  0  0  0  0  0  0  0  0  0
    0.9822   -1.8296    2.2290 H   0  0  0  0  0  0  0  0  0  0  0  0
    2.0752   -0.4479    2.0388 H   0  0  0  0  0  0  0  0  0  0  0  0
    2.6455   -2.0833    1.6764 H   0  0  0  0  0  0  0  0  0  0  0  0
   -0.7289   -0.6736    0.6790 H   0  0  0  0  0  0  0  0  0  0  0  0
   -0.2615   -0.2044   -0.9635 H   0  0  0  0  0  0  0  0  0  0  0  0
    0.3553    0.7022    0.4300 H   0  0  0  0  0  0  0  0  0  0  0  0
    3.6144   -3.6771   -6.0584 H   0  0  0  0  0  0  0  0  0  0  0  0
    4.8429   -2.5255   -5.4608 H   0  0  0  0  0  0  0  0  0  0  0  0
    3.1547   -2.0206   -5.5529 H   0  0  0  0  0  0  0  0  0  0  0  0
    2.8147    0.2396   -0.3627 H   0  0  0  0  0  0  0  0  0  0  0  0
    2.0566   -0.5308   -1.7647 H   0  0  0  0  0  0  0  0  0  0  0  0
    2.6357   -3.3091   -1.5352 H   0  0  0  0  0  0  0  0  0  0  0  0
    4.4157   -3.4107   -1.3654 H   0  0  0  0  0  0  0  0  0  0  0  0
    0.9990   -2.2271   -0.2230 H   0  0  0  0  0  0  0  0  0  0  0  0
  1 15  1  0  0  0  0
  1 14  1  0  0  0  0
  1 13  1  0  0  0  0
  2  6  1  0  0  0  0
  2 18  1  0  0  0  0
  2 16  1  0  0  0  0
  3  7  1  0  0  0  0
  4 22  1  0  0  0  0
  4  6  1  0  0  0  0
  5 24  1  0  0  0  0
  5 25  1  0  0  0  0
  5  9  1  0  0  0  0
  6  1  1  0  0  0  0
  7 10  2  0  0  0  0
  7 12  1  0  0  0  0
  9  4  1  0  0  0  0
  9  8  1  0  0  0  0
 11  8  2  0  0  0  0
 12  5  1  0  0  0  0
 17  2  1  0  0  0  0
 19  3  1  0  0  0  0
 20  3  1  0  0  0  0
 21  3  1  0  0  0  0
 23  4  1  0  0  0  0
 26  6  1  0  0  0  0
M  END
>  <HBA>
5

>  <HBD>
0

>  <TPSA>
58.97

>  <cid>
51153

>  <dipole>
3.71

>  <excitation_energy_1>
3.254

>  <excitation_energy_2>
5.459

>  <excitation_energy_3>
5.74

>  <excitation_energy_4>
5.799

>  <homo_energy>
-6.43

>  <homo_lumo_gap>
5.124

>  <logP>
1.146

>  <lumo_energy>
-1.306

>  <melting_point>
6.9

>  <molecular_refractivity>
44.68

>  <oscillator_strength_1>
0.0011

>  <oscillator_strength_2>
0.1098

>  <oscillator_strength_3>
0.0017

>  <oscillator_strength_4>
0.0028

>  <open_babel_can_smiles>
O=NN(CC(C)C)COC(=O)C

>  <mulliken_charges>
26
1   -0.444204
2   -0.447152
3   -0.523834
4   -0.132791
5   0.079758
6   -0.088085
7   0.607524
8   0.17297
9   -0.258178
10   -0.464159
11   -0.355891
12   -0.454834
13   0.148326
14   0.148431
15   0.155891
16   0.153118
17   0.145018
18   0.147555
19   0.186309
20   0.191388
21   0.181162
22   0.173445
23   0.161302
24   0.18056
25   0.203883
26   0.132488

>  <lowdin_charges>
26
1   -0.448564
2   -0.443049
3   -0.463636
4   -0.203506
5   -0.080673
6   -0.13011
7   0.200591
8   0.066795
9   -0.049752
10   -0.258418
11   -0.243065
12   -0.205974
13   0.154376
14   0.151146
15   0.155499
16   0.15693
17   0.149193
18   0.149562
19   0.178831
20   0.182249
21   0.178012
22   0.166181
23   0.154155
24   0.164858
25   0.180015
26   0.138355

$$$$

