PCCDB-ID:  37894
public computational chemistry database (PCCDB) project, http://pccdb.org

 29 29  0  0  1  0  0  0  0  0999 V2000
    0.5629    0.7278    0.3798 C   0  0  0  0  0  0  0  0  0  0  0  0
    1.9493   -0.9233   -0.7886 C   0  0  0  0  0  0  0  0  0  0  0  0
    3.8482    0.5989    1.3153 C   0  0  0  0  0  0  0  0  0  0  0  0
    2.8655    3.6601   -1.6997 C   0  0  0  0  0  0  0  0  0  0  0  0
    2.0084    3.5931   -0.4270 C   0  0  0  0  0  0  0  0  0  0  0  0
    3.2532    2.2520   -2.1755 C   0  0  0  0  0  0  0  0  0  0  0  0
    2.6662    2.7186    0.6543 C   0  0  0  0  0  0  0  0  0  0  0  0
    1.7811    0.4044   -0.0755 C   0  0  0  0  0  0  0  0  0  0  0  0
    3.9462    1.4732   -1.0507 C   0  0  1  0  0  0  0  0  0  0  0  0
    3.0282    1.2777    0.1910 C   0  0  2  0  0  0  0  0  0  0  0  0
    4.4518    0.2134   -1.4942 O   0  0  0  0  0  0  0  0  0  0  0  0
   -0.2780    0.0533    0.2372 H   0  0  0  0  0  0  0  0  0  0  0  0
    0.3407    1.6465    0.9107 H   0  0  0  0  0  0  0  0  0  0  0  0
    1.0094   -1.4843   -0.7656 H   0  0  0  0  0  0  0  0  0  0  0  0
    2.7290   -1.5396   -0.3284 H   0  0  0  0  0  0  0  0  0  0  0  0
    2.2531   -0.7919   -1.8310 H   0  0  0  0  0  0  0  0  0  0  0  0
    3.2563    0.5414    2.2354 H   0  0  0  0  0  0  0  0  0  0  0  0
    4.7573    1.1755    1.5280 H   0  0  0  0  0  0  0  0  0  0  0  0
    4.1559   -0.4119    1.0374 H   0  0  0  0  0  0  0  0  0  0  0  0
    3.7818    4.2335   -1.4950 H   0  0  0  0  0  0  0  0  0  0  0  0
    2.3330    4.1984   -2.4934 H   0  0  0  0  0  0  0  0  0  0  0  0
    1.0219    3.1908   -0.6823 H   0  0  0  0  0  0  0  0  0  0  0  0
    1.8440    4.6034   -0.0303 H   0  0  0  0  0  0  0  0  0  0  0  0
    3.9306    2.3187   -3.0400 H   0  0  0  0  0  0  0  0  0  0  0  0
    2.3645    1.7004   -2.5083 H   0  0  0  0  0  0  0  0  0  0  0  0
    2.0359    2.6726    1.5495 H   0  0  0  0  0  0  0  0  0  0  0  0
    3.5991    3.2030    0.9766 H   0  0  0  0  0  0  0  0  0  0  0  0
    4.7954    2.0845   -0.6957 H   0  0  0  0  0  0  0  0  0  0  0  0
    5.0332    0.3881   -2.2505 H   0  0  0  0  0  0  0  0  0  0  0  0
  1 13  1  0  0  0  0
  2 14  1  0  0  0  0
  2 15  1  0  0  0  0
  2  8  1  0  0  0  0
  3 18  1  0  0  0  0
  3 17  1  0  0  0  0
  4 20  1  0  0  0  0
  4  5  1  0  0  0  0
  5 23  1  0  0  0  0
  5  7  1  0  0  0  0
  6  4  1  0  0  0  0
  6  9  1  0  0  0  0
  7 27  1  0  0  0  0
  7 26  1  0  0  0  0
  8  1  2  0  0  0  0
  9 28  1  1  0  0  0
  9 10  1  0  0  0  0
 10  8  1  6  0  0  0
 10  7  1  0  0  0  0
 10  3  1  0  0  0  0
 11  9  1  0  0  0  0
 12  1  1  0  0  0  0
 16  2  1  0  0  0  0
 19  3  1  0  0  0  0
 21  4  1  0  0  0  0
 22  5  1  0  0  0  0
 24  6  1  0  0  0  0
 25  6  1  0  0  0  0
 29 11  1  0  0  0  0
M  END
>  <HBA>
1

>  <HBD>
1

>  <TPSA>
20.23

>  <cid>
37894

>  <dipole>
1.7

>  <excitation_energy_1>
5.899

>  <excitation_energy_2>
6.138

>  <excitation_energy_3>
6.258

>  <excitation_energy_4>
6.275

>  <homo_energy>
-6.354

>  <homo_lumo_gap>
7.165

>  <logP>
2.504

>  <lumo_energy>
0.811

>  <melting_point>
13.48

>  <molecular_refractivity>
48.5

>  <oscillator_strength_1>
0.0012

>  <oscillator_strength_2>
0.0127

>  <oscillator_strength_3>
0.0894

>  <oscillator_strength_4>
0.0098

>  <open_babel_can_smiles>
CC(=C)[C@]1(C)CCCC[C@@H]1O

>  <mulliken_charges>
29
1   -0.411104
2   -0.494314
3   -0.449071
4   -0.264197
5   -0.261912
6   -0.285991
7   -0.285224
8   0.214151
9   0.145615
10   0.01875
11   -0.637927
12   0.128715
13   0.132619
14   0.135022
15   0.157761
16   0.162369
17   0.14331
18   0.133108
19   0.164852
20   0.127079
21   0.133751
22   0.144761
23   0.128783
24   0.114799
25   0.150385
26   0.138244
27   0.125342
28   0.102113
29   0.388211

>  <lowdin_charges>
29
1   -0.373473
2   -0.442731
3   -0.437257
4   -0.278349
5   -0.281753
6   -0.296452
7   -0.278759
8   0.013223
9   -0.00777
10   0.001022
11   -0.459542
12   0.15294
13   0.153311
14   0.147134
15   0.159342
16   0.159308
17   0.150441
18   0.145325
19   0.158677
20   0.136686
21   0.146918
22   0.147117
23   0.143179
24   0.136766
25   0.151142
26   0.147385
27   0.140617
28   0.122653
29   0.342898

$$$$

