PCCDB-ID:  26934
public computational chemistry database (PCCDB) project, http://pccdb.org

 24 24  0  0  1  0  0  0  0  0999 V2000
    3.3320    1.1660    0.1580 C   0  0  0  0  0  0  0  0  0  0  0  0
   -1.4409   -3.3755   -0.2721 C   0  0  0  0  0  0  0  0  0  0  0  0
   -1.5540   -2.6233    0.8962 C   0  0  0  0  0  0  0  0  0  0  0  0
   -0.5548   -2.9632   -1.2707 C   0  0  0  0  0  0  0  0  0  0  0  0
   -0.7834   -1.4707    1.0694 C   0  0  0  0  0  0  0  0  0  0  0  0
    0.2163   -1.8157   -1.0930 C   0  0  0  0  0  0  0  0  0  0  0  0
    2.5053   -0.1201    0.2075 C   0  0  2  0  0  0  0  0  0  0  0  0
    0.1187   -1.0558    0.0833 C   0  0  0  0  0  0  0  0  0  0  0  0
    0.9777    0.1947    0.2690 C   0  0  1  0  0  0  0  0  0  0  0  0
    2.9828   -0.9580    1.3131 N   0  0  0  0  0  0  0  0  0  0  0  0
    0.6623    0.8969    1.4678 O   0  0  0  0  0  0  0  0  0  0  0  0
    3.0900    1.7527   -0.7349 H   0  0  0  0  0  0  0  0  0  0  0  0
    3.1203    1.7922    1.0321 H   0  0  0  0  0  0  0  0  0  0  0  0
    4.3998    0.9289    0.1437 H   0  0  0  0  0  0  0  0  0  0  0  0
   -2.0421   -4.2702   -0.4093 H   0  0  0  0  0  0  0  0  0  0  0  0
   -2.2494   -2.9269    1.6747 H   0  0  0  0  0  0  0  0  0  0  0  0
   -0.4659   -3.5349   -2.1909 H   0  0  0  0  0  0  0  0  0  0  0  0
   -0.9035   -0.8669    1.9630 H   0  0  0  0  0  0  0  0  0  0  0  0
    0.8934   -1.5026   -1.8845 H   0  0  0  0  0  0  0  0  0  0  0  0
    2.6864   -0.6866   -0.7146 H   0  0  0  0  0  0  0  0  0  0  0  0
    0.7428    0.9022   -0.5362 H   0  0  0  0  0  0  0  0  0  0  0  0
    2.3846   -1.7723    1.4446 H   0  0  0  0  0  0  0  0  0  0  0  0
    3.0093   -0.4369    2.1882 H   0  0  0  0  0  0  0  0  0  0  0  0
    1.0074    0.3563    2.1989 H   0  0  0  0  0  0  0  0  0  0  0  0
  1  7  1  0  0  0  0
  1 13  1  0  0  0  0
  2  3  2  0  0  0  0
  3  5  1  0  0  0  0
  3 16  1  0  0  0  0
  4  6  2  0  0  0  0
  4  2  1  0  0  0  0
  5 18  1  0  0  0  0
  6  8  1  0  0  0  0
  7 20  1  6  0  0  0
  7  9  1  0  0  0  0
  7 10  1  0  0  0  0
  8  9  1  0  0  0  0
  8  5  2  0  0  0  0
  9 21  1  6  0  0  0
  9 11  1  0  0  0  0
 10 22  1  0  0  0  0
 10 23  1  0  0  0  0
 11 24  1  0  0  0  0
 12  1  1  0  0  0  0
 14  1  1  0  0  0  0
 15  2  1  0  0  0  0
 17  4  1  0  0  0  0
 19  6  1  0  0  0  0
M  END
>  <HBA>
2

>  <HBD>
2

>  <TPSA>
46.25

>  <cid>
26934

>  <dipole>
1.02

>  <excitation_energy_1>
5.271

>  <excitation_energy_2>
5.423

>  <excitation_energy_3>
5.56

>  <excitation_energy_4>
5.685

>  <homo_energy>
-6.359

>  <homo_lumo_gap>
6.221

>  <logP>
1.768

>  <lumo_energy>
-0.139

>  <melting_point>
78.69

>  <molecular_refractivity>
44.89

>  <oscillator_strength_1>
0.0038

>  <oscillator_strength_2>
0.0147

>  <oscillator_strength_3>
0.037

>  <oscillator_strength_4>
0.0116

>  <open_babel_can_smiles>
O[C@H](c1ccccc1)[C@H](N)C

>  <mulliken_charges>
24
1   -0.447714
2   -0.12834
3   -0.12825
4   -0.132181
5   -0.19631
6   -0.179193
7   0.011686
8   0.129389
9   0.057371
10   -0.722301
11   -0.617666
12   0.143715
13   0.150801
14   0.16022
15   0.129875
16   0.130021
17   0.130978
18   0.130387
19   0.127541
20   0.138252
21   0.14806
22   0.305156
23   0.288756
24   0.369748

>  <lowdin_charges>
24
1   -0.448504
2   -0.159184
3   -0.154987
4   -0.153814
5   -0.174703
6   -0.169427
7   -0.077891
8   -0.02571
9   -0.022118
10   -0.553037
11   -0.452314
12   0.152866
13   0.152932
14   0.15784
15   0.158031
16   0.158425
17   0.158237
18   0.159736
19   0.156081
20   0.144131
21   0.154897
22   0.25996
23   0.249923
24   0.328628

$$$$

