PCCDB-ID:  25611
public computational chemistry database (PCCDB) project, http://pccdb.org

 25 24  0  0  0  0  0  0  0  0999 V2000
    3.6109    0.6081   -2.0976 C   0  0  0  0  0  0  0  0  0  0  0  0
    2.9959    2.1116    5.3095 C   0  0  0  0  0  0  0  0  0  0  0  0
    4.4036    0.0380    4.8844 C   0  0  0  0  0  0  0  0  0  0  0  0
    4.2854    1.0866   -0.8080 C   0  0  0  0  0  0  0  0  0  0  0  0
    3.4228    0.8572    0.4388 C   0  0  0  0  0  0  0  0  0  0  0  0
    4.0979    1.3235    1.7292 C   0  0  0  0  0  0  0  0  0  0  0  0
    3.9356    1.4001    4.3283 C   0  0  0  0  0  0  0  0  0  0  0  0
    3.2445    1.1573    2.9800 C   0  0  0  0  0  0  0  0  0  0  0  0
    2.0730    0.8290    2.9223 O   0  0  0  0  0  0  0  0  0  0  0  0
    4.2467    0.7873   -2.9721 H   0  0  0  0  0  0  0  0  0  0  0  0
    2.6598    1.1287   -2.2636 H   0  0  0  0  0  0  0  0  0  0  0  0
    3.3954   -0.4666   -2.0560 H   0  0  0  0  0  0  0  0  0  0  0  0
    3.4748    2.2267    6.2883 H   0  0  0  0  0  0  0  0  0  0  0  0
    2.0743    1.5359    5.4346 H   0  0  0  0  0  0  0  0  0  0  0  0
    2.7206    3.1085    4.9472 H   0  0  0  0  0  0  0  0  0  0  0  0
    4.9310    0.1752    5.8349 H   0  0  0  0  0  0  0  0  0  0  0  0
    5.0840   -0.4746    4.1941 H   0  0  0  0  0  0  0  0  0  0  0  0
    3.5423   -0.6157    5.0601 H   0  0  0  0  0  0  0  0  0  0  0  0
    4.5237    2.1567   -0.8950 H   0  0  0  0  0  0  0  0  0  0  0  0
    5.2492    0.5710   -0.6868 H   0  0  0  0  0  0  0  0  0  0  0  0
    3.1742   -0.2085    0.5286 H   0  0  0  0  0  0  0  0  0  0  0  0
    2.4623    1.3762    0.3328 H   0  0  0  0  0  0  0  0  0  0  0  0
    4.3643    2.3913    1.6638 H   0  0  0  0  0  0  0  0  0  0  0  0
    5.0561    0.8058    1.8886 H   0  0  0  0  0  0  0  0  0  0  0  0
    4.8253    2.0210    4.1541 H   0  0  0  0  0  0  0  0  0  0  0  0
  1 12  1  0  0  0  0
  1  4  1  0  0  0  0
  2 14  1  0  0  0  0
  2 13  1  0  0  0  0
  3 18  1  0  0  0  0
  3 16  1  0  0  0  0
  4 20  1  0  0  0  0
  4  5  1  0  0  0  0
  5 21  1  0  0  0  0
  5  6  1  0  0  0  0
  6 24  1  0  0  0  0
  6  8  1  0  0  0  0
  7  3  1  0  0  0  0
  7  2  1  0  0  0  0
  8  7  1  0  0  0  0
  9  8  2  0  0  0  0
 10  1  1  0  0  0  0
 11  1  1  0  0  0  0
 15  2  1  0  0  0  0
 17  3  1  0  0  0  0
 19  4  1  0  0  0  0
 22  5  1  0  0  0  0
 23  6  1  0  0  0  0
 25  7  1  0  0  0  0
M  END
>  <HBA>
1

>  <HBD>
0

>  <TPSA>
17.07

>  <cid>
25611

>  <dipole>
2.48

>  <excitation_energy_1>
4.359

>  <excitation_energy_2>
5.955

>  <excitation_energy_3>
6.63

>  <excitation_energy_4>
6.661

>  <homo_energy>
-6.474

>  <homo_lumo_gap>
6.24

>  <logP>
2.402

>  <lumo_energy>
-0.234

>  <melting_point>
-6.5

>  <molecular_refractivity>
40.77

>  <oscillator_strength_1>
0.0005

>  <oscillator_strength_2>
0.0027

>  <oscillator_strength_3>
0.0063

>  <oscillator_strength_4>
0.0003

>  <open_babel_can_smiles>
CCCCC(=O)C(C)C

>  <mulliken_charges>
25
1   -0.441386
2   -0.44178
3   -0.451241
4   -0.250858
5   -0.239061
6   -0.366675
7   -0.150208
8   0.461503
9   -0.459023
10   0.141544
11   0.144755
12   0.143742
13   0.139227
14   0.170647
15   0.144899
16   0.152133
17   0.144985
18   0.165774
19   0.128718
20   0.127925
21   0.142262
22   0.151302
23   0.15945
24   0.15352
25   0.127845

>  <lowdin_charges>
25
1   -0.442653
2   -0.439634
3   -0.439847
4   -0.270823
5   -0.269958
6   -0.307435
7   -0.151638
8   0.161861
9   -0.240007
10   0.149688
11   0.148093
12   0.146015
13   0.148599
14   0.163023
15   0.150699
16   0.154341
17   0.150465
18   0.159599
19   0.136112
20   0.136911
21   0.14586
22   0.151747
23   0.16001
24   0.156466
25   0.142506

$$$$

