PCCDB-ID:  11802
public computational chemistry database (PCCDB) project, http://pccdb.org

 23 24  0  0  0  0  0  0  0  0999 V2000
   -2.6319   -0.6252   -0.0361 C   0  0  0  0  0  0  0  0  0  0  0  0
   -2.6547    0.7804    0.0491 C   0  0  0  0  0  0  0  0  0  0  0  0
   -1.4377   -1.3116   -0.0964 C   0  0  0  0  0  0  0  0  0  0  0  0
   -1.4688    1.4784    0.0648 C   0  0  0  0  0  0  0  0  0  0  0  0
    2.2534   -0.5224   -0.0089 C   0  0  0  0  0  0  0  0  0  0  0  0
   -0.1948   -0.6245   -0.0825 C   0  0  0  0  0  0  0  0  0  0  0  0
   -0.2179    0.8112   -0.0103 C   0  0  0  0  0  0  0  0  0  0  0  0
    1.0956   -1.2544   -0.0899 C   0  0  0  0  0  0  0  0  0  0  0  0
    2.2202    0.8785    0.0449 C   0  0  0  0  0  0  0  0  0  0  0  0
    1.0085    1.5657    0.0080 C   0  0  0  0  0  0  0  0  0  0  0  0
    1.2775   -2.7102   -0.1900 N   0  0  0  0  0  0  0  0  0  0  0  0
    3.5137    1.5698    0.0999 N   0  0  0  0  0  0  0  0  0  0  0  0
    1.0043    2.9071   -0.0272 O   0  0  0  0  0  0  0  0  0  0  0  0
    2.3469   -3.1761    0.2012 O   0  0  0  0  0  0  0  0  0  0  0  0
    0.3699   -3.3866   -0.6801 O   0  0  0  0  0  0  0  0  0  0  0  0
    4.4965    0.9389   -0.2945 O   0  0  0  0  0  0  0  0  0  0  0  0
    3.5443    2.7118    0.5484 O   0  0  0  0  0  0  0  0  0  0  0  0
   -3.5654   -1.1800   -0.0453 H   0  0  0  0  0  0  0  0  0  0  0  0
   -3.5997    1.3104    0.1184 H   0  0  0  0  0  0  0  0  0  0  0  0
   -1.4358   -2.3894   -0.1555 H   0  0  0  0  0  0  0  0  0  0  0  0
   -1.5153    2.5580    0.1863 H   0  0  0  0  0  0  0  0  0  0  0  0
    3.2126   -1.0213   -0.0089 H   0  0  0  0  0  0  0  0  0  0  0  0
    0.1175    3.2266   -0.2568 H   0  0  0  0  0  0  0  0  0  0  0  0
  1  2  2  0  0  0  0
  2  4  1  0  0  0  0
  2 19  1  0  0  0  0
  3  6  2  0  0  0  0
  3  1  1  0  0  0  0
  4 21  1  0  0  0  0
  5  9  1  0  0  0  0
  6  7  1  0  0  0  0
  7 10  1  0  0  0  0
  7  4  2  0  0  0  0
  8  6  1  0  0  0  0
  8  5  2  0  0  0  0
  9 12  1  0  0  0  0
 10  9  2  0  0  0  0
 11  8  1  0  0  0  0
 11 14  2  0  0  0  0
 12 17  2  0  0  0  0
 13 10  1  0  0  0  0
 15 11  2  0  0  0  0
 16 12  2  0  0  0  0
 18  1  1  0  0  0  0
 20  3  1  0  0  0  0
 22  5  1  0  0  0  0
 23 13  1  0  0  0  0
M  END
>  <HBA>
1

>  <HBD>
1

>  <TPSA>
111.87

>  <cid>
11802

>  <dipole>
7.57

>  <excitation_energy_1>
3.498

>  <excitation_energy_2>
3.621

>  <excitation_energy_3>
3.708

>  <excitation_energy_4>
3.752

>  <homo_energy>
-6.904

>  <homo_lumo_gap>
4.008

>  <logP>
3.408

>  <lumo_energy>
-2.895

>  <melting_point>
168.22

>  <molecular_refractivity>
63.62

>  <oscillator_strength_1>
0.121

>  <oscillator_strength_2>
0.0517

>  <oscillator_strength_3>
0.0022

>  <oscillator_strength_4>
0.0371

>  <open_babel_can_smiles>
O=N(=O)c1cc(N(=O)=O)c(c2c1cccc2)O

>  <mulliken_charges>
23
1   -0.128373
2   -0.124658
3   -0.179005
4   -0.220217
5   -0.194071
6   0.129307
7   0.088697
8   0.205163
9   0.25906
10   0.26634
11   0.358472
12   0.360537
13   -0.587191
14   -0.380896
15   -0.39598
16   -0.387073
17   -0.369379
18   0.155998
19   0.152776
20   0.196219
21   0.135237
22   0.228709
23   0.430328

>  <lowdin_charges>
23
1   -0.132893
2   -0.142585
3   -0.14623
4   -0.159176
5   -0.111097
6   0.019069
7   -0.034014
8   -0.012519
9   -0.033045
10   0.139313
11   0.311097
12   0.307626
13   -0.312137
14   -0.239538
15   -0.25001
16   -0.247219
17   -0.223062
18   0.171869
19   0.170294
20   0.189594
21   0.155707
22   0.214044
23   0.364912

$$$$

