PCCDB-ID:  45263
public computational chemistry database (PCCDB) project, http://pccdb.org

 21 20  0  0  0  0  0  0  0  0999 V2000
    1.8245    0.3827    0.6714 C   0  0  0  0  0  0  0  0  0  0  0  0
    3.3274    0.2925    0.4700 C   0  0  0  0  0  0  0  0  0  0  0  0
    5.1550    0.8186   -2.6985 C   0  0  0  0  0  0  0  0  0  0  0  0
    4.6220    2.1723   -3.0395 C   0  0  0  0  0  0  0  0  0  0  0  0
    4.9906    0.4940   -1.2083 C   0  0  0  0  0  0  0  0  0  0  0  0
    6.5798    2.9040   -4.3068 C   0  0  0  0  0  0  0  0  0  0  0  0
    4.6517    4.3878   -4.0392 C   0  0  0  0  0  0  0  0  0  0  0  0
    5.2638    3.1162   -3.7679 C   0  0  0  0  0  0  0  0  0  0  0  0
    7.6453    2.7215   -4.7350 N   0  0  0  0  0  0  0  0  0  0  0  0
    4.1530    5.4155   -4.2551 N   0  0  0  0  0  0  0  0  0  0  0  0
    3.6135    0.5460   -0.9010 O   0  0  0  0  0  0  0  0  0  0  0  0
    1.5694    0.1910    1.7191 H   0  0  0  0  0  0  0  0  0  0  0  0
    1.3078   -0.3538    0.0479 H   0  0  0  0  0  0  0  0  0  0  0  0
    1.4587    1.3789    0.4026 H   0  0  0  0  0  0  0  0  0  0  0  0
    3.6998   -0.7067    0.7498 H   0  0  0  0  0  0  0  0  0  0  0  0
    3.8520    1.0264    1.1037 H   0  0  0  0  0  0  0  0  0  0  0  0
    6.2050    0.7179   -2.9911 H   0  0  0  0  0  0  0  0  0  0  0  0
    4.5794    0.0721   -3.2653 H   0  0  0  0  0  0  0  0  0  0  0  0
    3.6306    2.4079   -2.6619 H   0  0  0  0  0  0  0  0  0  0  0  0
    5.5573    1.2131   -0.5938 H   0  0  0  0  0  0  0  0  0  0  0  0
    5.4015   -0.5089   -1.0073 H   0  0  0  0  0  0  0  0  0  0  0  0
  1 12  1  0  0  0  0
  2  1  1  0  0  0  0
  2 15  1  0  0  0  0
  2 16  1  0  0  0  0
  3  5  1  0  0  0  0
  4  3  1  0  0  0  0
  4 19  1  0  0  0  0
  5 21  1  0  0  0  0
  5 11  1  0  0  0  0
  5 20  1  0  0  0  0
  6  8  1  0  0  0  0
  7  8  1  0  0  0  0
  8  4  2  0  0  0  0
  9  6  3  0  0  0  0
 10  7  3  0  0  0  0
 11  2  1  0  0  0  0
 13  1  1  0  0  0  0
 14  1  1  0  0  0  0
 17  3  1  0  0  0  0
 18  3  1  0  0  0  0
M  END
>  <HBA>
3

>  <HBD>
0

>  <TPSA>
56.81

>  <cid>
45263

>  <dipole>
6.15

>  <excitation_energy_1>
4.452

>  <excitation_energy_2>
5.404

>  <excitation_energy_3>
5.848

>  <excitation_energy_4>
6.084

>  <homo_energy>
-7.581

>  <homo_lumo_gap>
5.236

>  <logP>
1.387

>  <lumo_energy>
-2.346

>  <melting_point>
44.17

>  <molecular_refractivity>
40.68

>  <oscillator_strength_1>
0.0002

>  <oscillator_strength_2>
0.4223

>  <oscillator_strength_3>
0.0003

>  <oscillator_strength_4>
0.0012

>  <open_babel_can_smiles>
CCOCCC=C(C#N)C#N

>  <mulliken_charges>
21
1   -0.455992
2   -0.011349
3   -0.353693
4   -0.061172
5   -0.012674
6   0.301655
7   0.297198
8   0.114689
9   -0.469239
10   -0.456545
11   -0.475826
12   0.151341
13   0.162231
14   0.161251
15   0.127402
16   0.128464
17   0.182677
18   0.191599
19   0.201583
20   0.137246
21   0.139153

>  <lowdin_charges>
21
1   -0.447628
2   -0.1244
3   -0.283524
4   -0.055483
5   -0.124854
6   -0.005635
7   -0.004841
8   -0.044534
9   -0.093061
10   -0.091606
11   -0.281403
12   0.157646
13   0.160403
14   0.158118
15   0.129457
16   0.131796
17   0.173144
18   0.181466
19   0.191135
20   0.135758
21   0.138047

$$$$

