PCCDB-ID:  14846
public computational chemistry database (PCCDB) project, http://pccdb.org

 16 15  0  0  1  0  0  0  0  0999 V2000
    0.8751    0.8823   -0.0078 C   0  0  0  0  0  0  0  0  0  0  0  0
    1.5583   -2.1617    0.0104 C   0  0  0  0  0  0  0  0  0  0  0  0
    2.6500    0.7998    1.8131 C   0  0  0  0  0  0  0  0  0  0  0  0
    2.0597    0.1169    0.5794 C   0  0  1  0  0  0  0  0  0  0  0  0
    3.7233    0.0518    2.3516 O   0  0  0  0  0  0  0  0  0  0  0  0
    1.6878   -1.1916    1.0317 O   0  0  0  0  0  0  0  0  0  0  0  0
    1.1895    1.8785   -0.3401 H   0  0  0  0  0  0  0  0  0  0  0  0
    0.0848    0.9993    0.7419 H   0  0  0  0  0  0  0  0  0  0  0  0
    0.4495    0.3653   -0.8739 H   0  0  0  0  0  0  0  0  0  0  0  0
    1.3552   -3.1164    0.5031 H   0  0  0  0  0  0  0  0  0  0  0  0
    2.4833   -2.2525   -0.5801 H   0  0  0  0  0  0  0  0  0  0  0  0
    0.7279   -1.9384   -0.6746 H   0  0  0  0  0  0  0  0  0  0  0  0
    1.8474    0.9471    2.5559 H   0  0  0  0  0  0  0  0  0  0  0  0
    3.0435    1.7854    1.5431 H   0  0  0  0  0  0  0  0  0  0  0  0
    2.8581    0.0154   -0.1740 H   0  0  0  0  0  0  0  0  0  0  0  0
    3.3852   -0.8589    2.4024 H   0  0  0  0  0  0  0  0  0  0  0  0
  1  4  1  0  0  0  0
  1  8  1  0  0  0  0
  2 10  1  0  0  0  0
  2  6  1  0  0  0  0
  3  5  1  0  0  0  0
  3 13  1  0  0  0  0
  4 15  1  6  0  0  0
  4  6  1  0  0  0  0
  4  3  1  0  0  0  0
  5 16  1  0  0  0  0
  7  1  1  0  0  0  0
  9  1  1  0  0  0  0
 11  2  1  0  0  0  0
 12  2  1  0  0  0  0
 14  3  1  0  0  0  0
M  END
>  <HBA>
2

>  <HBD>
1

>  <TPSA>
29.46

>  <cid>
14846

>  <dipole>
2.47

>  <excitation_energy_1>
6.681

>  <excitation_energy_2>
6.82

>  <excitation_energy_3>
6.951

>  <excitation_energy_4>
7.112

>  <homo_energy>
-6.944

>  <homo_lumo_gap>
9.146

>  <logP>
0.014

>  <lumo_energy>
2.201

>  <melting_point>
-15.57

>  <molecular_refractivity>
23.59

>  <oscillator_strength_1>
0.0034

>  <oscillator_strength_2>
0.0116

>  <oscillator_strength_3>
0.0011

>  <oscillator_strength_4>
0.009

>  <open_babel_can_smiles>
C[C@H](OC)CO

>  <mulliken_charges>
16
1   -0.463947
2   -0.197664
3   -0.020637
4   0.124668
5   -0.627586
6   -0.488049
7   0.148504
8   0.156957
9   0.150729
10   0.160228
11   0.136716
12   0.137332
13   0.12271
14   0.140104
15   0.121611
16   0.398324

>  <lowdin_charges>
16
1   -0.459287
2   -0.281802
3   -0.142696
4   -0.015006
5   -0.466946
6   -0.281287
7   0.156423
8   0.157366
9   0.155515
10   0.156223
11   0.13571
12   0.135667
13   0.130182
14   0.14758
15   0.130971
16   0.341385

$$$$

