PCCDB-ID:  61661
public computational chemistry database (PCCDB) project, http://pccdb.org

 16 16  0  0  0  0  0  0  0  0999 V2000
    2.3268   -0.0852    0.9972 C   0  0  0  0  0  0  0  0  0  0  0  0
    7.1638   -0.8494   -1.8571 C   0  0  0  0  0  0  0  0  0  0  0  0
    6.1849   -0.6769   -0.8195 C   0  0  0  0  0  0  0  0  0  0  0  0
    6.4835   -0.8109   -3.0329 C   0  0  0  0  0  0  0  0  0  0  0  0
    3.5854   -0.3424   -0.9668 C   0  0  0  0  0  0  0  0  0  0  0  0
    4.9851   -0.5469   -1.4481 C   0  0  0  0  0  0  0  0  0  0  0  0
    3.6093   -0.2863    0.4425 O   0  0  0  0  0  0  0  0  0  0  0  0
    5.1468   -0.6262   -2.8031 O   0  0  0  0  0  0  0  0  0  0  0  0
    2.4484   -0.0594    2.0828 H   0  0  0  0  0  0  0  0  0  0  0  0
    1.6359   -0.9018    0.7327 H   0  0  0  0  0  0  0  0  0  0  0  0
    1.8832    0.8665    0.6629 H   0  0  0  0  0  0  0  0  0  0  0  0
    8.2297   -0.9838   -1.7351 H   0  0  0  0  0  0  0  0  0  0  0  0
    6.3450   -0.6515    0.2480 H   0  0  0  0  0  0  0  0  0  0  0  0
    6.7706   -0.8931   -4.0699 H   0  0  0  0  0  0  0  0  0  0  0  0
    2.9360   -1.1653   -1.3176 H   0  0  0  0  0  0  0  0  0  0  0  0
    3.1673    0.5888   -1.3911 H   0  0  0  0  0  0  0  0  0  0  0  0
  1  9  1  0  0  0  0
  2 12  1  0  0  0  0
  2  3  1  0  0  0  0
  3 13  1  0  0  0  0
  4  8  1  0  0  0  0
  4  2  2  0  0  0  0
  5  7  1  0  0  0  0
  6  5  1  0  0  0  0
  6  3  2  0  0  0  0
  7  1  1  0  0  0  0
  8  6  1  0  0  0  0
 10  1  1  0  0  0  0
 11  1  1  0  0  0  0
 14  4  1  0  0  0  0
 15  5  1  0  0  0  0
 16  5  1  0  0  0  0
M  END
>  <HBA>
2

>  <HBD>
0

>  <TPSA>
22.37

>  <cid>
61661

>  <dipole>
0.92

>  <excitation_energy_1>
5.582

>  <excitation_energy_2>
5.794

>  <excitation_energy_3>
5.926

>  <excitation_energy_4>
6.167

>  <homo_energy>
-5.807

>  <homo_lumo_gap>
6.408

>  <logP>
1.426

>  <lumo_energy>
0.601

>  <melting_point>
-3.23

>  <molecular_refractivity>
29.57

>  <oscillator_strength_1>
0.0055

>  <oscillator_strength_2>
0.0026

>  <oscillator_strength_3>
0.2292

>  <oscillator_strength_4>
0.0083

>  <open_babel_can_smiles>
COCc1ccco1

>  <mulliken_charges>
16
1   -0.189093
2   -0.186239
3   -0.189599
4   0.080664
5   -0.072424
6   0.316324
7   -0.462737
8   -0.445929
9   0.162938
10   0.133661
11   0.133779
12   0.138358
13   0.148612
14   0.150339
15   0.140736
16   0.140609

>  <lowdin_charges>
16
1   -0.276527
2   -0.201357
3   -0.208915
4   -0.084987
5   -0.124676
6   0.056965
7   -0.262145
8   -0.110873
9   0.155792
10   0.134701
11   0.133887
12   0.166143
13   0.173681
14   0.16776
15   0.140556
16   0.139994

$$$$

