PCCDB-ID:  53083
public computational chemistry database (PCCDB) project, http://pccdb.org

 29 28  0  0  0  0  0  0  0  0999 V2000
    0.6638    0.0288    0.1181 C   0  0  0  0  0  0  0  0  0  0  0  0
   11.8985    4.8506    1.3288 C   0  0  0  0  0  0  0  0  0  0  0  0
    2.1956    0.0158    0.1354 C   0  0  0  0  0  0  0  0  0  0  0  0
   11.3294    3.4213    1.2447 C   0  0  0  0  0  0  0  0  0  0  0  0
    2.8097    1.4189    0.2220 C   0  0  0  0  0  0  0  0  0  0  0  0
    9.8664    3.3819    1.2535 C   0  0  0  0  0  0  0  0  0  0  0  0
    4.3432    1.4164    0.2396 C   0  0  0  0  0  0  0  0  0  0  0  0
    8.6523    3.3659    1.2435 C   0  0  0  0  0  0  0  0  0  0  0  0
    4.9479    2.8318    0.3311 C   0  0  0  0  0  0  0  0  0  0  0  0
    7.2293    3.3553    1.2708 C   0  0  0  0  0  0  0  0  0  0  0  0
    6.4484    2.8376    0.3053 C   0  0  0  0  0  0  0  0  0  0  0  0
    0.2545   -0.9862    0.0596 H   0  0  0  0  0  0  0  0  0  0  0  0
    0.2816    0.5924   -0.7421 H   0  0  0  0  0  0  0  0  0  0  0  0
    0.2608    0.4975    1.0245 H   0  0  0  0  0  0  0  0  0  0  0  0
   12.9939    4.8259    1.3168 H   0  0  0  0  0  0  0  0  0  0  0  0
   11.5755    5.3466    2.2497 H   0  0  0  0  0  0  0  0  0  0  0  0
   11.5577    5.4554    0.4826 H   0  0  0  0  0  0  0  0  0  0  0  0
    2.5668   -0.4877   -0.7686 H   0  0  0  0  0  0  0  0  0  0  0  0
    2.5472   -0.5862    0.9852 H   0  0  0  0  0  0  0  0  0  0  0  0
   11.7170    2.8249    2.0829 H   0  0  0  0  0  0  0  0  0  0  0  0
   11.7002    2.9339    0.3322 H   0  0  0  0  0  0  0  0  0  0  0  0
    2.4368    1.9226    1.1266 H   0  0  0  0  0  0  0  0  0  0  0  0
    2.4580    2.0221   -0.6284 H   0  0  0  0  0  0  0  0  0  0  0  0
    4.7178    0.9222   -0.6687 H   0  0  0  0  0  0  0  0  0  0  0  0
    4.7040    0.8162    1.0860 H   0  0  0  0  0  0  0  0  0  0  0  0
    4.5907    3.3309    1.2420 H   0  0  0  0  0  0  0  0  0  0  0  0
    4.5695    3.4240   -0.5175 H   0  0  0  0  0  0  0  0  0  0  0  0
    6.7552    3.8122    2.1413 H   0  0  0  0  0  0  0  0  0  0  0  0
    6.9247    2.3804   -0.5624 H   0  0  0  0  0  0  0  0  0  0  0  0
  1  3  1  0  0  0  0
  1 14  1  0  0  0  0
  2 16  1  0  0  0  0
  3  5  1  0  0  0  0
  3 19  1  0  0  0  0
  4  6  1  0  0  0  0
  4  2  1  0  0  0  0
  4 20  1  0  0  0  0
  5  7  1  0  0  0  0
  5 22  1  0  0  0  0
  7  9  1  0  0  0  0
  7 25  1  0  0  0  0
  8  6  3  0  0  0  0
  8 10  1  0  0  0  0
  9 26  1  0  0  0  0
 10 28  1  0  0  0  0
 11  9  1  0  0  0  0
 11 10  2  0  0  0  0
 12  1  1  0  0  0  0
 13  1  1  0  0  0  0
 15  2  1  0  0  0  0
 17  2  1  0  0  0  0
 18  3  1  0  0  0  0
 21  4  1  0  0  0  0
 23  5  1  0  0  0  0
 24  7  1  0  0  0  0
 27  9  1  0  0  0  0
 29 11  1  0  0  0  0
M  END
>  <HBA>
0

>  <HBD>
0

>  <TPSA>
0.0

>  <cid>
53083

>  <dipole>
0.25

>  <excitation_energy_1>
5.082

>  <excitation_energy_2>
5.185

>  <excitation_energy_3>
5.494

>  <excitation_energy_4>
5.865

>  <homo_energy>
-5.826

>  <homo_lumo_gap>
5.589

>  <logP>
3.536

>  <lumo_energy>
-0.237

>  <melting_point>
-2.74

>  <molecular_refractivity>
52.68

>  <oscillator_strength_1>
0.0319

>  <oscillator_strength_2>
0.5121

>  <oscillator_strength_3>
0.0199

>  <oscillator_strength_4>
0.0009

>  <open_babel_can_smiles>
CCCCC/C=C/C#CCC

>  <mulliken_charges>
29
1   -0.44166
2   -0.43508
3   -0.247329
4   -0.391256
5   -0.246229
6   0.011476
7   -0.254859
8   0.070671
9   -0.302739
10   -0.258455
11   -0.070818
12   0.142346
13   0.141413
14   0.141558
15   0.145309
16   0.157251
17   0.158143
18   0.130835
19   0.131948
20   0.166929
21   0.167412
22   0.128228
23   0.127355
24   0.131251
25   0.138616
26   0.138671
27   0.143593
28   0.144022
29   0.131397

>  <lowdin_charges>
29
1   -0.44508
2   -0.434779
3   -0.273042
4   -0.257076
5   -0.276014
6   -0.074113
7   -0.274506
8   -0.082478
9   -0.272041
10   -0.164917
11   -0.135966
12   0.148883
13   0.147007
14   0.146774
15   0.148497
16   0.155824
17   0.156691
18   0.13965
19   0.14054
20   0.164542
21   0.164434
22   0.138539
23   0.138408
24   0.140222
25   0.144279
26   0.146329
27   0.150412
28   0.162995
29   0.155986

$$$$

