PCCDB-ID:  70484
public computational chemistry database (PCCDB) project, http://pccdb.org

 22 22  0  0  0  0  0  0  0  0999 V2000
    0.9243   -0.0089    0.0102 C   0  0  0  0  0  0  0  0  0  0  0  0
    2.8017   -2.6734   -0.0024 C   0  0  0  0  0  0  0  0  0  0  0  0
    2.9687    2.5021   -0.0006 C   0  0  0  0  0  0  0  0  0  0  0  0
    5.8540   -1.5930   -0.0154 C   0  0  0  0  0  0  0  0  0  0  0  0
    2.4288   -0.0628    0.0014 C   0  0  0  0  0  0  0  0  0  0  0  0
    3.2572   -1.2384   -0.0035 C   0  0  0  0  0  0  0  0  0  0  0  0
    3.2694    1.0369   -0.0026 C   0  0  0  0  0  0  0  0  0  0  0  0
    4.5756   -0.8169   -0.0103 C   0  0  0  0  0  0  0  0  0  0  0  0
    4.5637    0.5618   -0.0101 N   0  0  0  0  0  0  0  0  0  0  0  0
    0.4891   -1.0128    0.0258 H   0  0  0  0  0  0  0  0  0  0  0  0
    0.5206    0.4982   -0.8764 H   0  0  0  0  0  0  0  0  0  0  0  0
    0.5324    0.5206    0.8886 H   0  0  0  0  0  0  0  0  0  0  0  0
    1.7099   -2.7458    0.0117 H   0  0  0  0  0  0  0  0  0  0  0  0
    3.1677   -3.2254    0.8735 H   0  0  0  0  0  0  0  0  0  0  0  0
    3.1444   -3.2195   -0.8915 H   0  0  0  0  0  0  0  0  0  0  0  0
    1.8878    2.6643   -0.0376 H   0  0  0  0  0  0  0  0  0  0  0  0
    3.4054    3.0199   -0.8665 H   0  0  0  0  0  0  0  0  0  0  0  0
    3.3431    3.0077    0.9013 H   0  0  0  0  0  0  0  0  0  0  0  0
    5.6429   -2.6658   -0.0372 H   0  0  0  0  0  0  0  0  0  0  0  0
    6.4666   -1.3998    0.8771 H   0  0  0  0  0  0  0  0  0  0  0  0
    6.4785   -1.3663   -0.8915 H   0  0  0  0  0  0  0  0  0  0  0  0
    5.3885    1.1429   -0.0117 H   0  0  0  0  0  0  0  0  0  0  0  0
  1 10  1  0  0  0  0
  1 12  1  0  0  0  0
  2 13  1  0  0  0  0
  2 14  1  0  0  0  0
  3 18  1  0  0  0  0
  4  8  1  0  0  0  0
  4 20  1  0  0  0  0
  5  1  1  0  0  0  0
  6  2  1  0  0  0  0
  6  5  1  0  0  0  0
  7  3  1  0  0  0  0
  7  5  2  0  0  0  0
  8  9  1  0  0  0  0
  8  6  2  0  0  0  0
  9  7  1  0  0  0  0
 11  1  1  0  0  0  0
 15  2  1  0  0  0  0
 16  3  1  0  0  0  0
 17  3  1  0  0  0  0
 19  4  1  0  0  0  0
 21  4  1  0  0  0  0
 22  9  1  0  0  0  0
M  END
>  <HBA>
0

>  <HBD>
1

>  <TPSA>
15.79

>  <cid>
70484

>  <dipole>
1.66

>  <excitation_energy_1>
4.2

>  <excitation_energy_2>
4.747

>  <excitation_energy_3>
4.756

>  <excitation_energy_4>
5.174

>  <homo_energy>
-4.751

>  <homo_lumo_gap>
6.033

>  <logP>
2.248

>  <lumo_energy>
1.282

>  <melting_point>
68.94

>  <molecular_refractivity>
40.66

>  <oscillator_strength_1>
0.0

>  <oscillator_strength_2>
0.0001

>  <oscillator_strength_3>
0.0043

>  <oscillator_strength_4>
0.0014

>  <open_babel_can_smiles>
Cc1[nH]c(c(c1C)C)C

>  <mulliken_charges>
22
1   -0.539508
2   -0.539495
3   -0.533939
4   -0.533832
5   0.046933
6   0.046921
7   0.287145
8   0.287355
9   -0.667589
10   0.150359
11   0.148984
12   0.148978
13   0.150347
14   0.148909
15   0.149013
16   0.165522
17   0.151066
18   0.152166
19   0.16548
20   0.151891
21   0.151266
22   0.312027

>  <lowdin_charges>
22
1   -0.443347
2   -0.441834
3   -0.445492
4   -0.44488
5   -0.073267
6   -0.073374
7   -0.012739
8   -0.013229
9   -0.193531
10   0.154132
11   0.152152
12   0.152329
13   0.15271
14   0.152251
15   0.152133
16   0.165211
17   0.15356
18   0.153369
19   0.165274
20   0.153247
21   0.153304
22   0.28202

$$$$

