PCCDB-ID:  22084
public computational chemistry database (PCCDB) project, http://pccdb.org

 27 26  0  0  0  0  0  0  0  0999 V2000
    2.6379   -0.4591   -0.8843 C   0  0  0  0  0  0  0  0  0  0  0  0
    8.9153    3.0130    3.6942 C   0  0  0  0  0  0  0  0  0  0  0  0
    6.6974    2.1195    4.2635 C   0  0  0  0  0  0  0  0  0  0  0  0
    4.0335   -0.2185   -0.2995 C   0  0  0  0  0  0  0  0  0  0  0  0
    4.1876    1.1657    0.3440 C   0  0  0  0  0  0  0  0  0  0  0  0
    5.5869    1.4165    0.9197 C   0  0  0  0  0  0  0  0  0  0  0  0
    5.7343    2.8149    1.5512 C   0  0  0  0  0  0  0  0  0  0  0  0
    7.1706    3.0963    1.9909 C   0  0  0  0  0  0  0  0  0  0  0  0
    7.5615    2.7069    3.2540 N   0  0  0  0  0  0  0  0  0  0  0  0
    7.9560    3.6200    1.2047 O   0  0  0  0  0  0  0  0  0  0  0  0
    2.5593   -1.4552   -1.3345 H   0  0  0  0  0  0  0  0  0  0  0  0
    2.4023    0.2775   -1.6621 H   0  0  0  0  0  0  0  0  0  0  0  0
    1.8641   -0.3812   -0.1106 H   0  0  0  0  0  0  0  0  0  0  0  0
    9.4302    2.0980    4.0146 H   0  0  0  0  0  0  0  0  0  0  0  0
    8.9004    3.7144    4.5401 H   0  0  0  0  0  0  0  0  0  0  0  0
    9.4520    3.4626    2.8602 H   0  0  0  0  0  0  0  0  0  0  0  0
    7.2396    1.3220    4.7864 H   0  0  0  0  0  0  0  0  0  0  0  0
    5.8076    1.6756    3.8191 H   0  0  0  0  0  0  0  0  0  0  0  0
    6.3836    2.8596    5.0151 H   0  0  0  0  0  0  0  0  0  0  0  0
    4.7872   -0.3348   -1.0909 H   0  0  0  0  0  0  0  0  0  0  0  0
    4.2560   -0.9927    0.4486 H   0  0  0  0  0  0  0  0  0  0  0  0
    3.4373    1.2796    1.1410 H   0  0  0  0  0  0  0  0  0  0  0  0
    3.9595    1.9414   -0.4014 H   0  0  0  0  0  0  0  0  0  0  0  0
    6.3380    1.3169    0.1254 H   0  0  0  0  0  0  0  0  0  0  0  0
    5.8211    0.6413    1.6634 H   0  0  0  0  0  0  0  0  0  0  0  0
    5.0103    2.9453    2.3634 H   0  0  0  0  0  0  0  0  0  0  0  0
    5.5135    3.5744    0.7955 H   0  0  0  0  0  0  0  0  0  0  0  0
  1  4  1  0  0  0  0
  1 13  1  0  0  0  0
  2 14  1  0  0  0  0
  2 15  1  0  0  0  0
  3 17  1  0  0  0  0
  3 19  1  0  0  0  0
  4  5  1  0  0  0  0
  4 21  1  0  0  0  0
  5  6  1  0  0  0  0
  5 22  1  0  0  0  0
  6  7  1  0  0  0  0
  6 25  1  0  0  0  0
  7  8  1  0  0  0  0
  7 26  1  0  0  0  0
  8  9  1  0  0  0  0
  9  2  1  0  0  0  0
  9  3  1  0  0  0  0
 10  8  2  0  0  0  0
 11  1  1  0  0  0  0
 12  1  1  0  0  0  0
 16  2  1  0  0  0  0
 18  3  1  0  0  0  0
 20  4  1  0  0  0  0
 23  5  1  0  0  0  0
 24  6  1  0  0  0  0
 27  7  1  0  0  0  0
M  END
>  <HBA>
2

>  <HBD>
0

>  <TPSA>
20.31

>  <cid>
22084

>  <dipole>
3.54

>  <excitation_energy_1>
5.484

>  <excitation_energy_2>
5.764

>  <excitation_energy_3>
6.045

>  <excitation_energy_4>
6.309

>  <homo_energy>
-6.316

>  <homo_lumo_gap>
7.2

>  <logP>
1.655

>  <lumo_energy>
0.884

>  <melting_point>
-3.86

>  <molecular_refractivity>
43.67

>  <oscillator_strength_1>
0.0018

>  <oscillator_strength_2>
0.0208

>  <oscillator_strength_3>
0.006

>  <oscillator_strength_4>
0.0502

>  <open_babel_can_smiles>
CCCCCC(=O)N(C)C

>  <mulliken_charges>
27
1   -0.441848
2   -0.321742
3   -0.314361
4   -0.248262
5   -0.245404
6   -0.264183
7   -0.350908
8   0.576236
9   -0.402772
10   -0.519675
11   0.143306
12   0.143624
13   0.140609
14   0.148037
15   0.148181
16   0.206989
17   0.158325
18   0.170769
19   0.155146
20   0.135394
21   0.12937
22   0.124666
23   0.134528
24   0.156658
25   0.13142
26   0.136651
27   0.169248

>  <lowdin_charges>
27
1   -0.44504
2   -0.358799
3   -0.355194
4   -0.273415
5   -0.275855
6   -0.272329
7   -0.305705
8   0.162431
9   -0.112948
10   -0.322816
11   0.14965
12   0.148187
13   0.146474
14   0.147504
15   0.146035
16   0.186733
17   0.155065
18   0.165134
19   0.147299
20   0.142113
21   0.139119
22   0.136581
23   0.142059
24   0.153727
25   0.138506
26   0.146629
27   0.168857

$$$$

