PCCDB-ID:  7795
public computational chemistry database (PCCDB) project, http://pccdb.org

 29 28  0  0  0  0  0  0  0  0999 V2000
    8.4550    4.4613   -7.5508 C   0  0  0  0  0  0  0  0  0  0  0  0
   11.0215    1.1474   -0.4522 C   0  0  0  0  0  0  0  0  0  0  0  0
    8.7435    1.7465    0.4608 C   0  0  0  0  0  0  0  0  0  0  0  0
    8.5400    4.0606   -6.0756 C   0  0  0  0  0  0  0  0  0  0  0  0
    7.1535    3.7628   -5.4679 C   0  0  0  0  0  0  0  0  0  0  0  0
    9.1789    1.7649   -2.0630 C   0  0  0  0  0  0  0  0  0  0  0  0
    7.7215    1.6115   -2.4906 C   0  0  0  0  0  0  0  0  0  0  0  0
    9.5077    1.1052   -0.7086 C   0  0  0  0  0  0  0  0  0  0  0  0
    7.2616    3.4000   -4.0016 C   0  0  0  0  0  0  0  0  0  0  0  0
    7.1656    4.1849   -3.0817 O   0  0  0  0  0  0  0  0  0  0  0  0
    7.5259    2.0797   -3.8464 O   0  0  0  0  0  0  0  0  0  0  0  0
    9.4492    4.6751   -7.9585 H   0  0  0  0  0  0  0  0  0  0  0  0
    7.8393    5.3592   -7.6827 H   0  0  0  0  0  0  0  0  0  0  0  0
    8.0106    3.6610   -8.1549 H   0  0  0  0  0  0  0  0  0  0  0  0
   11.2765    0.6494    0.4906 H   0  0  0  0  0  0  0  0  0  0  0  0
   11.3785    2.1834   -0.3878 H   0  0  0  0  0  0  0  0  0  0  0  0
   11.5783    0.6519   -1.2563 H   0  0  0  0  0  0  0  0  0  0  0  0
    9.0098    1.2654    1.4093 H   0  0  0  0  0  0  0  0  0  0  0  0
    7.6575    1.6631    0.3439 H   0  0  0  0  0  0  0  0  0  0  0  0
    8.9870    2.8132    0.5476 H   0  0  0  0  0  0  0  0  0  0  0  0
    9.0147    4.8638   -5.4979 H   0  0  0  0  0  0  0  0  0  0  0  0
    9.1754    3.1732   -5.9649 H   0  0  0  0  0  0  0  0  0  0  0  0
    6.6790    2.9407   -6.0149 H   0  0  0  0  0  0  0  0  0  0  0  0
    6.5148    4.6485   -5.5416 H   0  0  0  0  0  0  0  0  0  0  0  0
    9.4241    2.8342   -2.0223 H   0  0  0  0  0  0  0  0  0  0  0  0
    9.8096    1.3196   -2.8440 H   0  0  0  0  0  0  0  0  0  0  0  0
    7.0446    2.1608   -1.8331 H   0  0  0  0  0  0  0  0  0  0  0  0
    7.4275    0.5581   -2.5196 H   0  0  0  0  0  0  0  0  0  0  0  0
    9.2086    0.0468   -0.7697 H   0  0  0  0  0  0  0  0  0  0  0  0
  1  4  1  0  0  0  0
  2 16  1  0  0  0  0
  2 15  1  0  0  0  0
  3 20  1  0  0  0  0
  3 18  1  0  0  0  0
  4 22  1  0  0  0  0
  4 21  1  0  0  0  0
  4  5  1  0  0  0  0
  5  9  1  0  0  0  0
  6 25  1  0  0  0  0
  6  8  1  0  0  0  0
  7  6  1  0  0  0  0
  7 27  1  0  0  0  0
  8  2  1  0  0  0  0
  8  3  1  0  0  0  0
  9 11  1  0  0  0  0
  9 10  2  0  0  0  0
 11  7  1  0  0  0  0
 12  1  1  0  0  0  0
 13  1  1  0  0  0  0
 14  1  1  0  0  0  0
 17  2  1  0  0  0  0
 19  3  1  0  0  0  0
 23  5  1  0  0  0  0
 24  5  1  0  0  0  0
 26  6  1  0  0  0  0
 28  7  1  0  0  0  0
 29  8  1  0  0  0  0
M  END
>  <HBA>
2

>  <HBD>
0

>  <TPSA>
26.3

>  <cid>
7795

>  <dipole>
1.77

>  <excitation_energy_1>
5.73

>  <excitation_energy_2>
7.002

>  <excitation_energy_3>
7.277

>  <excitation_energy_4>
7.306

>  <homo_energy>
-7.148

>  <homo_lumo_gap>
7.592

>  <logP>
2.376

>  <lumo_energy>
0.444

>  <melting_point>
-16.11

>  <molecular_refractivity>
46.66

>  <oscillator_strength_1>
0.0019

>  <oscillator_strength_2>
0.0157

>  <oscillator_strength_3>
0.0242

>  <oscillator_strength_4>
0.0127

>  <open_babel_can_smiles>
CCCC(=O)OCCC(C)C

>  <mulliken_charges>
29
1   -0.442195
2   -0.441364
3   -0.446007
4   -0.263191
5   -0.323262
6   -0.272648
7   -0.050506
8   -0.076294
9   0.599663
10   -0.478308
11   -0.463246
12   0.148692
13   0.147723
14   0.145948
15   0.141712
16   0.142983
17   0.140767
18   0.141865
19   0.144949
20   0.148804
21   0.152998
22   0.150115
23   0.157203
24   0.163398
25   0.15414
26   0.138266
27   0.171117
28   0.145938
29   0.120739

>  <lowdin_charges>
29
1   -0.444331
2   -0.443358
3   -0.443573
4   -0.26777
5   -0.29717
6   -0.288095
7   -0.134554
8   -0.11749
9   0.201302
10   -0.273849
11   -0.199671
12   0.153061
13   0.149871
14   0.14979
15   0.149025
16   0.146777
17   0.149044
18   0.149503
19   0.146711
20   0.1493
21   0.151125
22   0.148569
23   0.161628
24   0.16442
25   0.151415
26   0.147582
27   0.16041
28   0.147762
29   0.132567

$$$$

