PCCDB-ID:  31522
public computational chemistry database (PCCDB) project, http://pccdb.org

 32 33  0  0  0  0  0  0  0  0999 V2000
    0.9648    0.1772   -0.1158 C   0  0  0  0  0  0  0  0  0  0  0  0
    3.1686   -0.0857   -1.3905 C   0  0  0  0  0  0  0  0  0  0  0  0
    3.4717   -4.9843    3.2053 C   0  0  0  0  0  0  0  0  0  0  0  0
    5.8783   -5.5303    3.3971 C   0  0  0  0  0  0  0  0  0  0  0  0
    5.1120    1.1553    3.5634 C   0  0  0  0  0  0  0  0  0  0  0  0
    5.0514   -0.2243    3.7484 C   0  0  0  0  0  0  0  0  0  0  0  0
    4.4417    1.7916    2.5028 C   0  0  0  0  0  0  0  0  0  0  0  0
    4.3130   -1.0257    2.8622 C   0  0  0  0  0  0  0  0  0  0  0  0
    3.7206    0.9784    1.6496 C   0  0  0  0  0  0  0  0  0  0  0  0
    3.6552   -0.4023    1.8161 C   0  0  0  0  0  0  0  0  0  0  0  0
    5.2311   -3.2109    3.1260 C   0  0  0  0  0  0  0  0  0  0  0  0
    2.4817    0.1164   -0.0471 C   0  0  0  0  0  0  0  0  0  0  0  0
    4.8502   -4.5182    3.2158 N   0  0  0  0  0  0  0  0  0  0  0  0
    6.3766   -2.8042    3.1349 O   0  0  0  0  0  0  0  0  0  0  0  0
    4.1246   -2.3904    3.0253 O   0  0  0  0  0  0  0  0  0  0  0  0
    2.9748    1.3420    0.5568 O   0  0  0  0  0  0  0  0  0  0  0  0
    2.8692   -0.9651    0.8469 O   0  0  0  0  0  0  0  0  0  0  0  0
    0.6503    1.0122   -0.7490 H   0  0  0  0  0  0  0  0  0  0  0  0
    0.5551    0.3191    0.8879 H   0  0  0  0  0  0  0  0  0  0  0  0
    0.5688   -0.7535   -0.5331 H   0  0  0  0  0  0  0  0  0  0  0  0
    2.9212    0.7372   -2.0681 H   0  0  0  0  0  0  0  0  0  0  0  0
    2.8448   -1.0288   -1.8412 H   0  0  0  0  0  0  0  0  0  0  0  0
    4.2530   -0.1147   -1.2509 H   0  0  0  0  0  0  0  0  0  0  0  0
    3.1894   -5.3891    4.1873 H   0  0  0  0  0  0  0  0  0  0  0  0
    3.3592   -5.7841    2.4621 H   0  0  0  0  0  0  0  0  0  0  0  0
    2.8005   -4.1679    2.9507 H   0  0  0  0  0  0  0  0  0  0  0  0
    5.7483   -6.0450    4.3589 H   0  0  0  0  0  0  0  0  0  0  0  0
    6.8546   -5.0487    3.3739 H   0  0  0  0  0  0  0  0  0  0  0  0
    5.8206   -6.2786    2.5961 H   0  0  0  0  0  0  0  0  0  0  0  0
    5.6950    1.7551    4.2556 H   0  0  0  0  0  0  0  0  0  0  0  0
    5.5834   -0.6986    4.5634 H   0  0  0  0  0  0  0  0  0  0  0  0
    4.4849    2.8652    2.3568 H   0  0  0  0  0  0  0  0  0  0  0  0
  1 12  1  0  0  0  0
  1 19  1  0  0  0  0
  2 23  1  0  0  0  0
  2 12  1  0  0  0  0
  3 13  1  0  0  0  0
  3 24  1  0  0  0  0
  4 27  1  0  0  0  0
  5  6  1  0  0  0  0
  5 30  1  0  0  0  0
  6 31  1  0  0  0  0
  7  5  2  0  0  0  0
  8 15  1  0  0  0  0
  8  6  2  0  0  0  0
  9 10  2  0  0  0  0
  9  7  1  0  0  0  0
 10  8  1  0  0  0  0
 11 14  2  0  0  0  0
 11 13  1  0  0  0  0
 12 16  1  0  0  0  0
 12 17  1  0  0  0  0
 13  4  1  0  0  0  0
 15 11  1  0  0  0  0
 16  9  1  0  0  0  0
 17 10  1  0  0  0  0
 18  1  1  0  0  0  0
 20  1  1  0  0  0  0
 21  2  1  0  0  0  0
 22  2  1  0  0  0  0
 25  3  1  0  0  0  0
 26  3  1  0  0  0  0
 28  4  1  0  0  0  0
 29  4  1  0  0  0  0
 32  7  1  0  0  0  0
M  END
>  <HBA>
5

>  <HBD>
0

>  <TPSA>
48.0

>  <cid>
31522

>  <dipole>
3.01

>  <excitation_energy_1>
4.839

>  <excitation_energy_2>
5.073

>  <excitation_energy_3>
5.369

>  <excitation_energy_4>
5.454

>  <homo_energy>
-5.44

>  <homo_lumo_gap>
5.701

>  <logP>
2.254

>  <lumo_energy>
0.261

>  <melting_point>
86.61

>  <molecular_refractivity>
61.75

>  <oscillator_strength_1>
0.069

>  <oscillator_strength_2>
0.0033

>  <oscillator_strength_3>
0.0124

>  <oscillator_strength_4>
0.0013

>  <open_babel_can_smiles>
O=C(N(C)C)Oc1cccc2c1OC(O2)(C)C

>  <mulliken_charges>
32
1   -0.44534
2   -0.440624
3   -0.316032
4   -0.317542
5   -0.158796
6   -0.147323
7   -0.185667
8   0.302603
9   0.338533
10   0.298258
11   0.786022
12   0.481902
13   -0.437802
14   -0.509613
15   -0.561768
16   -0.551978
17   -0.553049
18   0.160521
19   0.167553
20   0.159078
21   0.158787
22   0.158348
23   0.169529
24   0.154512
25   0.154437
26   0.203893
27   0.152946
28   0.205019
29   0.153708
30   0.132749
31   0.147527
32   0.139609

>  <lowdin_charges>
32
1   -0.450988
2   -0.452305
3   -0.353025
4   -0.350926
5   -0.160972
6   -0.177112
7   -0.191701
8   0.079532
9   0.074232
10   0.052347
11   0.212617
12   0.246193
13   -0.104472
14   -0.303711
15   -0.173706
16   -0.205106
17   -0.201047
18   0.16531
19   0.166811
20   0.164031
21   0.16416
22   0.163393
23   0.166638
24   0.147983
25   0.151108
26   0.182722
27   0.147978
28   0.184785
29   0.150178
30   0.162914
31   0.175199
32   0.16694

$$$$

