PCCDB-ID:  62069
public computational chemistry database (PCCDB) project, http://pccdb.org

 20 20  0  0  0  0  0  0  0  0999 V2000
    3.2413    0.2885    1.2380 C   0  0  0  0  0  0  0  0  0  0  0  0
    3.1078   -5.3461   -0.4560 C   0  0  0  0  0  0  0  0  0  0  0  0
    5.8303   -3.5900   -1.4323 C   0  0  0  0  0  0  0  0  0  0  0  0
    2.4507   -0.4451    0.1405 C   0  0  0  0  0  0  0  0  0  0  0  0
    3.3908   -3.8785   -0.4746 C   0  0  0  0  0  0  0  0  0  0  0  0
    4.5049   -3.2084   -0.8770 C   0  0  0  0  0  0  0  0  0  0  0  0
    3.0000   -1.7953   -0.1814 C   0  0  0  0  0  0  0  0  0  0  0  0
    2.4396   -2.9548   -0.0309 N   0  0  0  0  0  0  0  0  0  0  0  0
    4.2639   -1.8601   -0.6921 O   0  0  0  0  0  0  0  0  0  0  0  0
    2.7947    1.2679    1.4400 H   0  0  0  0  0  0  0  0  0  0  0  0
    4.2816    0.4443    0.9349 H   0  0  0  0  0  0  0  0  0  0  0  0
    3.2405   -0.2855    2.1706 H   0  0  0  0  0  0  0  0  0  0  0  0
    3.9570   -5.9245   -0.8327 H   0  0  0  0  0  0  0  0  0  0  0  0
    2.2330   -5.5833   -1.0731 H   0  0  0  0  0  0  0  0  0  0  0  0
    2.8860   -5.6883    0.5619 H   0  0  0  0  0  0  0  0  0  0  0  0
    5.8960   -4.6769   -1.5325 H   0  0  0  0  0  0  0  0  0  0  0  0
    6.6507   -3.2592   -0.7830 H   0  0  0  0  0  0  0  0  0  0  0  0
    5.9963   -3.1473   -2.4225 H   0  0  0  0  0  0  0  0  0  0  0  0
    2.4386    0.1674   -0.7711 H   0  0  0  0  0  0  0  0  0  0  0  0
    1.4111   -0.5914    0.4471 H   0  0  0  0  0  0  0  0  0  0  0  0
  1 10  1  0  0  0  0
  1 12  1  0  0  0  0
  2 15  1  0  0  0  0
  3  6  1  0  0  0  0
  3 17  1  0  0  0  0
  4 20  1  0  0  0  0
  4  1  1  0  0  0  0
  5  2  1  0  0  0  0
  5  8  1  0  0  0  0
  6  9  1  0  0  0  0
  6  5  2  0  0  0  0
  7  8  2  0  0  0  0
  7  4  1  0  0  0  0
  9  7  1  0  0  0  0
 11  1  1  0  0  0  0
 13  2  1  0  0  0  0
 14  2  1  0  0  0  0
 16  3  1  0  0  0  0
 18  3  1  0  0  0  0
 19  4  1  0  0  0  0
M  END
>  <HBA>
2

>  <HBD>
0

>  <TPSA>
26.03

>  <cid>
62069

>  <dipole>
1.49

>  <excitation_energy_1>
5.391

>  <excitation_energy_2>
5.65

>  <excitation_energy_3>
6.096

>  <excitation_energy_4>
6.172

>  <homo_energy>
-5.894

>  <homo_lumo_gap>
6.313

>  <logP>
1.854

>  <lumo_energy>
0.419

>  <melting_point>
30.9

>  <molecular_refractivity>
36.21

>  <oscillator_strength_1>
0.0179

>  <oscillator_strength_2>
0.1656

>  <oscillator_strength_3>
0.0441

>  <oscillator_strength_4>
0.0006

>  <open_babel_can_smiles>
CCc1oc(c(n1)C)C

>  <mulliken_charges>
20
1   -0.44883
2   -0.521584
3   -0.53483
4   -0.33654
5   0.19902
6   0.301836
7   0.505627
8   -0.490645
9   -0.469726
10   0.14947
11   0.160965
12   0.158261
13   0.148276
14   0.16815
15   0.168075
16   0.167397
17   0.170576
18   0.170833
19   0.159776
20   0.173893

>  <lowdin_charges>
20
1   -0.439522
2   -0.438047
3   -0.438462
4   -0.274549
5   -0.014302
6   0.037841
7   0.108066
8   -0.194063
9   -0.124832
10   0.153009
11   0.155045
12   0.155249
13   0.155955
14   0.165631
15   0.164452
16   0.166277
17   0.166687
18   0.165533
19   0.160585
20   0.169446

$$$$

