PCCDB-ID:  44606
public computational chemistry database (PCCDB) project, http://pccdb.org

 18 18  0  0  0  0  0  0  0  0999 V2000
   -0.6485    1.3618   -0.2410 C   0  0  0  0  0  0  0  0  0  0  0  0
    1.6460    0.7465    0.2466 C   0  0  0  0  0  0  0  0  0  0  0  0
   -1.0202    0.0208   -0.1685 C   0  0  0  0  0  0  0  0  0  0  0  0
    1.2660   -0.5886    0.3197 C   0  0  0  0  0  0  0  0  0  0  0  0
    0.6868    1.7268   -0.0356 C   0  0  0  0  0  0  0  0  0  0  0  0
   -0.0675   -0.9663    0.1051 C   0  0  0  0  0  0  0  0  0  0  0  0
   -0.3307   -3.3746   -1.3512 C   0  0  0  0  0  0  0  0  0  0  0  0
   -0.5806   -4.6091   -1.4981 N   0  0  0  0  0  0  0  0  0  0  0  0
    1.1138    3.0217   -0.0927 O   0  0  0  0  0  0  0  0  0  0  0  0
    0.0995   -2.4647   -2.2677 O   0  0  0  0  0  0  0  0  0  0  0  0
   -0.5677   -2.6781    0.2830 S   0  0  0  0  0  0  0  0  0  0  0  0
   -1.3955    2.1241   -0.4552 H   0  0  0  0  0  0  0  0  0  0  0  0
    2.6753    1.0498    0.4091 H   0  0  0  0  0  0  0  0  0  0  0  0
   -2.0566   -0.2608   -0.3260 H   0  0  0  0  0  0  0  0  0  0  0  0
    2.0075   -1.3487    0.5447 H   0  0  0  0  0  0  0  0  0  0  0  0
   -0.4345   -4.9366   -2.4569 H   0  0  0  0  0  0  0  0  0  0  0  0
    0.3582    3.5973   -0.2890 H   0  0  0  0  0  0  0  0  0  0  0  0
    0.2151   -2.9232   -3.1186 H   0  0  0  0  0  0  0  0  0  0  0  0
  1  3  2  0  0  0  0
  1  5  1  0  0  0  0
  2  4  1  0  0  0  0
  2 13  1  0  0  0  0
  3  6  1  0  0  0  0
  4 15  1  0  0  0  0
  5  2  2  0  0  0  0
  6 11  1  0  0  0  0
  6  4  2  0  0  0  0
  7 11  1  0  0  0  0
  8  7  2  0  0  0  0
  9  5  1  0  0  0  0
 10  7  1  0  0  0  0
 12  1  1  0  0  0  0
 14  3  1  0  0  0  0
 16  8  1  0  0  0  0
 17  9  1  0  0  0  0
 18 10  1  0  0  0  0
M  END
>  <HBA>
4

>  <HBD>
2

>  <TPSA>
88.62

>  <cid>
44606

>  <dipole>
4.11

>  <excitation_energy_1>
4.917

>  <excitation_energy_2>
5.002

>  <excitation_energy_3>
5.177

>  <excitation_energy_4>
5.256

>  <homo_energy>
-6.242

>  <homo_lumo_gap>
5.913

>  <logP>
2.263

>  <lumo_energy>
-0.329

>  <melting_point>
143.08

>  <molecular_refractivity>
43.48

>  <oscillator_strength_1>
0.0026

>  <oscillator_strength_2>
0.0125

>  <oscillator_strength_3>
0.0021

>  <oscillator_strength_4>
0.0811

>  <open_babel_can_smiles>
OC(=N)Sc1ccc(cc1)O

>  <mulliken_charges>
18
1   -0.185544
2   -0.149356
3   -0.137312
4   -0.136794
5   0.351917
6   -0.106119
7   0.301482
8   -0.579923
9   -0.635725
10   -0.548104
11   0.161515
12   0.12506
13   0.146823
14   0.153282
15   0.153296
16   0.274648
17   0.41041
18   0.400443

>  <lowdin_charges>
18
1   -0.215075
2   -0.183183
3   -0.131531
4   -0.133343
5   0.113023
6   -0.152808
7   0.017322
8   -0.419278
9   -0.372745
10   -0.365173
11   0.204841
12   0.157778
13   0.170218
14   0.169518
15   0.172049
16   0.251444
17   0.36039
18   0.356553

$$$$

