PCCDB-ID:  38027
public computational chemistry database (PCCDB) project, http://pccdb.org

 36 35  0  0  0  0  0  0  0  0999 V2000
    7.3433   -1.6548   -3.5739 C   0  0  0  0  0  0  0  0  0  0  0  0
   11.7243   -7.5510    6.0557 C   0  0  0  0  0  0  0  0  0  0  0  0
    6.5333   -2.0316   -2.3290 C   0  0  0  0  0  0  0  0  0  0  0  0
    6.5358   -0.9307   -1.2598 C   0  0  0  0  0  0  0  0  0  0  0  0
    5.6777   -1.2383   -0.0128 C   0  0  0  0  0  0  0  0  0  0  0  0
    6.1586   -2.4106    0.8007 C   0  0  0  0  0  0  0  0  0  0  0  0
    6.6014   -2.3392    2.0596 C   0  0  0  0  0  0  0  0  0  0  0  0
    7.0936   -3.5022    2.8777 C   0  0  0  0  0  0  0  0  0  0  0  0
    8.5647   -3.3553    3.3122 C   0  0  0  0  0  0  0  0  0  0  0  0
    9.0399   -4.5144    4.1984 C   0  0  0  0  0  0  0  0  0  0  0  0
   10.5014   -4.3629    4.6076 C   0  0  0  0  0  0  0  0  0  0  0  0
   11.3299   -6.5677    4.9776 C   0  0  0  0  0  0  0  0  0  0  0  0
   11.3829   -6.7766    3.7850 O   0  0  0  0  0  0  0  0  0  0  0  0
   10.9092   -5.4033    5.5265 O   0  0  0  0  0  0  0  0  0  0  0  0
    7.3209   -2.4544   -4.3232 H   0  0  0  0  0  0  0  0  0  0  0  0
    8.3936   -1.4650   -3.3206 H   0  0  0  0  0  0  0  0  0  0  0  0
    6.9479   -0.7458   -4.0440 H   0  0  0  0  0  0  0  0  0  0  0  0
   12.0500   -8.4843    5.5954 H   0  0  0  0  0  0  0  0  0  0  0  0
   10.8763   -7.7390    6.7224 H   0  0  0  0  0  0  0  0  0  0  0  0
   12.5320   -7.1348    6.6668 H   0  0  0  0  0  0  0  0  0  0  0  0
    6.9341   -2.9622   -1.9061 H   0  0  0  0  0  0  0  0  0  0  0  0
    5.4953   -2.2498   -2.6200 H   0  0  0  0  0  0  0  0  0  0  0  0
    6.1669    0.0017   -1.7110 H   0  0  0  0  0  0  0  0  0  0  0  0
    7.5692   -0.7325   -0.9420 H   0  0  0  0  0  0  0  0  0  0  0  0
    4.6426   -1.4215   -0.3417 H   0  0  0  0  0  0  0  0  0  0  0  0
    5.6469   -0.3465    0.6264 H   0  0  0  0  0  0  0  0  0  0  0  0
    6.1359   -3.3865    0.3122 H   0  0  0  0  0  0  0  0  0  0  0  0
    6.6239   -1.3648    2.5543 H   0  0  0  0  0  0  0  0  0  0  0  0
    6.9716   -4.4339    2.3095 H   0  0  0  0  0  0  0  0  0  0  0  0
    6.4733   -3.6049    3.7820 H   0  0  0  0  0  0  0  0  0  0  0  0
    8.6895   -2.4040    3.8504 H   0  0  0  0  0  0  0  0  0  0  0  0
    9.1962   -3.2867    2.4161 H   0  0  0  0  0  0  0  0  0  0  0  0
    8.9220   -5.4650    3.6645 H   0  0  0  0  0  0  0  0  0  0  0  0
    8.4210   -4.5713    5.1038 H   0  0  0  0  0  0  0  0  0  0  0  0
   10.6636   -3.4323    5.1590 H   0  0  0  0  0  0  0  0  0  0  0  0
   11.1576   -4.3842    3.7333 H   0  0  0  0  0  0  0  0  0  0  0  0
  1 16  1  0  0  0  0
  1  3  1  0  0  0  0
  2 20  1  0  0  0  0
  2 19  1  0  0  0  0
  3 21  1  0  0  0  0
  3  4  1  0  0  0  0
  4 24  1  0  0  0  0
  4  5  1  0  0  0  0
  5 26  1  0  0  0  0
  5  6  1  0  0  0  0
  6  7  2  0  0  0  0
  7 28  1  0  0  0  0
  7  8  1  0  0  0  0
  8  9  1  0  0  0  0
  8 30  1  0  0  0  0
  9 31  1  0  0  0  0
  9 10  1  0  0  0  0
 10 11  1  0  0  0  0
 10 34  1  0  0  0  0
 11 35  1  0  0  0  0
 11 14  1  0  0  0  0
 12 14  1  0  0  0  0
 12  2  1  0  0  0  0
 13 12  2  0  0  0  0
 15  1  1  0  0  0  0
 17  1  1  0  0  0  0
 18  2  1  0  0  0  0
 22  3  1  0  0  0  0
 23  4  1  0  0  0  0
 25  5  1  0  0  0  0
 27  6  1  0  0  0  0
 29  8  1  0  0  0  0
 32  9  1  0  0  0  0
 33 10  1  0  0  0  0
 36 11  1  0  0  0  0
M  END
>  <HBA>
2

>  <HBD>
0

>  <TPSA>
26.3

>  <cid>
38027

>  <dipole>
1.65

>  <excitation_energy_1>
5.812

>  <excitation_energy_2>
6.115

>  <excitation_energy_3>
6.269

>  <excitation_energy_4>
6.323

>  <homo_energy>
-6.463

>  <homo_lumo_gap>
6.895

>  <logP>
3.466

>  <lumo_energy>
0.433

>  <melting_point>
-8.32

>  <molecular_refractivity>
60.61

>  <oscillator_strength_1>
0.0011

>  <oscillator_strength_2>
0.0206

>  <oscillator_strength_3>
0.0164

>  <oscillator_strength_4>
0.0048

>  <open_babel_can_smiles>
CCCC/C=C/CCCCOC(=O)C

>  <mulliken_charges>
36
1   -0.441161
2   -0.522527
3   -0.249903
4   -0.24316
5   -0.30769
6   -0.092079
7   -0.096656
8   -0.301215
9   -0.263871
10   -0.278361
11   -0.043411
12   0.599941
13   -0.469857
14   -0.455869
15   0.141977
16   0.142729
17   0.140825
18   0.181472
19   0.18048
20   0.181203
21   0.136533
22   0.128736
23   0.127335
24   0.132937
25   0.136756
26   0.134206
27   0.119214
28   0.113229
29   0.139956
30   0.138468
31   0.130231
32   0.144501
33   0.160618
34   0.140534
35   0.147188
36   0.166692

>  <lowdin_charges>
36
1   -0.443423
2   -0.465323
3   -0.27441
4   -0.272629
5   -0.270915
6   -0.169208
7   -0.170005
8   -0.268862
9   -0.273328
10   -0.287359
11   -0.133734
12   0.198076
13   -0.267508
14   -0.198663
15   0.149944
16   0.145713
17   0.146195
18   0.175195
19   0.177526
20   0.178386
21   0.141182
22   0.136758
23   0.139911
24   0.13972
25   0.144285
26   0.146652
27   0.145855
28   0.143311
29   0.146653
30   0.14634
31   0.138716
32   0.146357
33   0.155479
34   0.145642
35   0.150067
36   0.157403

$$$$

