PCCDB-ID:  2209
public computational chemistry database (PCCDB) project, http://pccdb.org

 19 19  0  0  0  0  0  0  0  0999 V2000
   -0.6244   -0.9772    0.7326 C   0  0  0  0  0  0  0  0  0  0  0  0
    0.7609   -1.2672    0.1350 C   0  0  0  0  0  0  0  0  0  0  0  0
   -1.1305    0.2140   -0.0921 C   0  0  0  0  0  0  0  0  0  0  0  0
    1.3124    0.1325   -0.1691 C   0  0  0  0  0  0  0  0  0  0  0  0
    0.0828    2.1385   -1.0564 C   0  0  0  0  0  0  0  0  0  0  0  0
    1.4661    4.2698   -2.0764 N   0  0  0  0  0  0  0  0  0  0  0  0
    0.1042    0.9210   -0.4838 N   0  0  0  0  0  0  0  0  0  0  0  0
   -1.2901    2.9858   -1.4420 S   0  0  0  0  0  0  0  0  0  0  0  0
    1.7810    2.7712   -1.3523 S   0  0  0  0  0  0  0  0  0  0  0  0
   -0.5288   -0.6922    1.7872 H   0  0  0  0  0  0  0  0  0  0  0  0
   -1.3037   -1.8327    0.6785 H   0  0  0  0  0  0  0  0  0  0  0  0
    0.6612   -1.8381   -0.7956 H   0  0  0  0  0  0  0  0  0  0  0  0
    1.4166   -1.8296    0.8061 H   0  0  0  0  0  0  0  0  0  0  0  0
   -1.7853    0.8915    0.4614 H   0  0  0  0  0  0  0  0  0  0  0  0
   -1.6724   -0.0985   -0.9936 H   0  0  0  0  0  0  0  0  0  0  0  0
    2.0090    0.1376   -1.0135 H   0  0  0  0  0  0  0  0  0  0  0  0
    1.8290    0.5613    0.7008 H   0  0  0  0  0  0  0  0  0  0  0  0
    1.8058    4.3264   -3.0293 H   0  0  0  0  0  0  0  0  0  0  0  0
    1.7700    5.0539   -1.5111 H   0  0  0  0  0  0  0  0  0  0  0  0
  1 10  1  0  0  0  0
  2  1  1  0  0  0  0
  2 13  1  0  0  0  0
  3 14  1  0  0  0  0
  3  1  1  0  0  0  0
  4  2  1  0  0  0  0
  4 17  1  0  0  0  0
  5  7  1  0  0  0  0
  6 19  1  0  0  0  0
  6  9  1  0  0  0  0
  7  4  1  0  0  0  0
  7  3  1  0  0  0  0
  8  5  2  0  0  0  0
  9  5  1  0  0  0  0
 11  1  1  0  0  0  0
 12  2  1  0  0  0  0
 15  3  1  0  0  0  0
 16  4  1  0  0  0  0
 18  6  1  0  0  0  0
M  END
>  <HBA>
4

>  <HBD>
1

>  <TPSA>
86.65

>  <cid>
2209

>  <dipole>
4.23

>  <excitation_energy_1>
3.607

>  <excitation_energy_2>
4.326

>  <excitation_energy_3>
4.718

>  <excitation_energy_4>
4.837

>  <homo_energy>
-5.268

>  <homo_lumo_gap>
4.963

>  <logP>
1.612

>  <lumo_energy>
-0.305

>  <melting_point>
92.9

>  <molecular_refractivity>
48.94

>  <oscillator_strength_1>
0.0002

>  <oscillator_strength_2>
0.0346

>  <oscillator_strength_3>
0.0028

>  <oscillator_strength_4>
0.0014

>  <open_babel_can_smiles>
NSC(=S)N1CCCC1

>  <mulliken_charges>
19
1   -0.304765
2   -0.298075
3   -0.107387
4   -0.13866
5   -0.006612
6   -0.779451
7   -0.3727
8   -0.23401
9   0.220761
10   0.154401
11   0.155966
12   0.157799
13   0.154454
14   0.187222
15   0.172042
16   0.184018
17   0.171078
18   0.341671
19   0.34225

>  <lowdin_charges>
19
1   -0.284438
2   -0.282479
3   -0.192557
4   -0.204079
5   -0.171272
6   -0.649899
7   -0.079347
8   -0.207353
9   0.228633
10   0.149814
11   0.158475
12   0.153025
13   0.158276
14   0.172716
15   0.158998
16   0.167593
17   0.155188
18   0.2833
19   0.285406

$$$$

