PCCDB-ID:  33507
public computational chemistry database (PCCDB) project, http://pccdb.org

 28 28  0  0  1  0  0  0  0  0999 V2000
    2.0041   -0.2306    1.6346 C   0  0  0  0  0  0  0  0  0  0  0  0
    5.1599   -0.6941   -2.5454 C   0  0  0  0  0  0  0  0  0  0  0  0
    4.3537   -1.2682   -6.8858 C   0  0  0  0  0  0  0  0  0  0  0  0
    2.3338    1.2129   -0.4467 C   0  0  0  0  0  0  0  0  0  0  0  0
    2.7259   -0.9592   -3.2253 C   0  0  0  0  0  0  0  0  0  0  0  0
    2.9230    0.1415    0.4688 C   0  0  2  0  0  0  0  0  0  0  0  0
    2.4509   -2.5665   -6.2393 C   0  0  0  0  0  0  0  0  0  0  0  0
    3.6899   -0.4700   -2.1771 C   0  0  2  0  0  0  0  0  0  0  0  0
    3.4108   -2.3618   -7.0292 N   0  0  0  0  0  0  0  0  0  0  0  0
    3.1583   -1.5627   -4.2631 N   0  0  0  0  0  0  0  0  0  0  0  0
    1.5191   -3.5164   -6.4796 O   0  0  0  0  0  0  0  0  0  0  0  0
    2.0602   -1.9346   -5.0808 O   0  0  0  0  0  0  0  0  0  0  0  0
    3.3983    1.3605   -1.9259 S   0  0  0  0  0  0  0  0  0  0  0  0
    3.2332   -1.3457   -0.5866 S   0  0  0  0  0  0  0  0  0  0  0  0
    1.8400    0.6456    2.2730 H   0  0  0  0  0  0  0  0  0  0  0  0
    2.4484   -1.0154    2.2551 H   0  0  0  0  0  0  0  0  0  0  0  0
    1.0333   -0.5871    1.2752 H   0  0  0  0  0  0  0  0  0  0  0  0
    5.4159   -0.1419   -3.4559 H   0  0  0  0  0  0  0  0  0  0  0  0
    5.3472   -1.7543   -2.7346 H   0  0  0  0  0  0  0  0  0  0  0  0
    5.8022   -0.3550   -1.7304 H   0  0  0  0  0  0  0  0  0  0  0  0
    4.6909   -0.9774   -7.8868 H   0  0  0  0  0  0  0  0  0  0  0  0
    5.2352   -1.5869   -6.3173 H   0  0  0  0  0  0  0  0  0  0  0  0
    3.9376   -0.3833   -6.3886 H   0  0  0  0  0  0  0  0  0  0  0  0
    2.3314    2.1937    0.0430 H   0  0  0  0  0  0  0  0  0  0  0  0
    1.3056    0.9623   -0.7279 H   0  0  0  0  0  0  0  0  0  0  0  0
    1.6611   -0.7893   -3.0650 H   0  0  0  0  0  0  0  0  0  0  0  0
    3.8871    0.4900    0.8528 H   0  0  0  0  0  0  0  0  0  0  0  0
    1.7423   -3.8654   -7.3604 H   0  0  0  0  0  0  0  0  0  0  0  0
  1 16  1  0  0  0  0
  1 15  1  0  0  0  0
  2  8  1  0  0  0  0
  2 20  1  0  0  0  0
  3 23  1  0  0  0  0
  3 22  1  0  0  0  0
  4 24  1  0  0  0  0
  4  6  1  0  0  0  0
  5 26  1  0  0  0  0
  6 27  1  1  0  0  0
  6  1  1  0  0  0  0
  7 12  1  0  0  0  0
  8  5  1  6  0  0  0
  8 13  1  0  0  0  0
  8 14  1  0  0  0  0
  9  3  1  0  0  0  0
  9  7  2  0  0  0  0
 10  5  1  0  0  0  0
 11  7  1  0  0  0  0
 12 10  1  0  0  0  0
 13  4  1  0  0  0  0
 14  6  1  0  0  0  0
 17  1  1  0  0  0  0
 18  2  1  0  0  0  0
 19  2  1  0  0  0  0
 21  3  1  0  0  0  0
 25  4  1  0  0  0  0
 28 11  1  0  0  0  0
M  RAD  2   5   2  10   2
M  END
>  <HBA>
6

>  <HBD>
1

>  <TPSA>
101.29

>  <cid>
33507

>  <dipole>
3.63

>  <excitation_energy_1>
4.635

>  <excitation_energy_2>
4.68

>  <excitation_energy_3>
4.795

>  <excitation_energy_4>
4.972

>  <homo_energy>
-6.436

>  <homo_lumo_gap>
5.679

>  <logP>
2.304

>  <lumo_energy>
-0.756

>  <melting_point>
93.81

>  <molecular_refractivity>
61.84

>  <oscillator_strength_1>
0.0069

>  <oscillator_strength_2>
0.0173

>  <oscillator_strength_3>
0.0289

>  <oscillator_strength_4>
0.0761

>  <open_babel_can_smiles>
C/N=C(\O[N][CH][C@@]1(C)SC[C@H](S1)C)/O

>  <mulliken_charges>
28
1   -0.455509
2   -0.43187
3   -0.306411
4   -0.420775
5   0.141583
6   -0.23765
7   0.682178
8   -0.31152
9   -0.442496
10   -0.142947
11   -0.573629
12   -0.392676
13   0.134882
14   0.128737
15   0.158357
16   0.1716
17   0.168919
18   0.170912
19   0.180977
20   0.169616
21   0.149755
22   0.159898
23   0.14507
24   0.186901
25   0.187727
26   0.174297
27   0.185652
28   0.41842

>  <lowdin_charges>
28
1   -0.445263
2   -0.4406
3   -0.351603
4   -0.376471
5   -0.101389
6   -0.217295
7   0.183777
8   -0.174572
9   -0.251211
10   -0.033177
11   -0.353785
12   -0.139975
13   0.124413
14   0.107273
15   0.159294
16   0.166508
17   0.161902
18   0.165168
19   0.169061
20   0.167565
21   0.148578
22   0.154999
23   0.142247
24   0.175198
25   0.162912
26   0.166237
27   0.162705
28   0.367506

$$$$

