PCCDB-ID:  32895
public computational chemistry database (PCCDB) project, http://pccdb.org

 24 24  0  0  0  0  0  0  0  0999 V2000
    3.1432    1.0269    1.4427 C   0  0  0  0  0  0  0  0  0  0  0  0
    1.4830   -0.3623    0.3993 C   0  0  0  0  0  0  0  0  0  0  0  0
    5.7079   -0.6390   -0.3612 C   0  0  0  0  0  0  0  0  0  0  0  0
    5.6006    1.4479   -1.5439 C   0  0  0  0  0  0  0  0  0  0  0  0
    7.0987   -0.6170   -0.4412 C   0  0  0  0  0  0  0  0  0  0  0  0
    6.9905    1.4825   -1.6378 C   0  0  0  0  0  0  0  0  0  0  0  0
    3.4206    0.3310   -0.8636 C   0  0  0  0  0  0  0  0  0  0  0  0
    4.9351    0.3905   -0.9126 C   0  0  0  0  0  0  0  0  0  0  0  0
    7.7452    0.4447   -1.0849 C   0  0  0  0  0  0  0  0  0  0  0  0
    2.8968   -0.0194    0.4578 N   0  0  0  0  0  0  0  0  0  0  0  0
    9.1079    0.5215   -1.1976 O   0  0  0  0  0  0  0  0  0  0  0  0
    2.8143    0.6855    2.4303 H   0  0  0  0  0  0  0  0  0  0  0  0
    2.6101    1.9707    1.2106 H   0  0  0  0  0  0  0  0  0  0  0  0
    4.2135    1.2443    1.4936 H   0  0  0  0  0  0  0  0  0  0  0  0
    1.1431   -0.6872    1.3889 H   0  0  0  0  0  0  0  0  0  0  0  0
    1.3295   -1.1898   -0.3022 H   0  0  0  0  0  0  0  0  0  0  0  0
    0.8393    0.4817    0.0798 H   0  0  0  0  0  0  0  0  0  0  0  0
    5.2068   -1.4576    0.1474 H   0  0  0  0  0  0  0  0  0  0  0  0
    5.0215    2.2626   -1.9735 H   0  0  0  0  0  0  0  0  0  0  0  0
    7.6841   -1.4257   -0.0056 H   0  0  0  0  0  0  0  0  0  0  0  0
    7.5036    2.3050   -2.1263 H   0  0  0  0  0  0  0  0  0  0  0  0
    3.0657   -0.4404   -1.5612 H   0  0  0  0  0  0  0  0  0  0  0  0
    3.0049    1.2918   -1.2309 H   0  0  0  0  0  0  0  0  0  0  0  0
    9.5008   -0.2559   -0.7713 H   0  0  0  0  0  0  0  0  0  0  0  0
  1 14  1  0  0  0  0
  1 12  1  0  0  0  0
  2 10  1  0  0  0  0
  2 15  1  0  0  0  0
  3 18  1  0  0  0  0
  4  8  1  0  0  0  0
  5  3  1  0  0  0  0
  5 20  1  0  0  0  0
  6  4  2  0  0  0  0
  6  9  1  0  0  0  0
  7 10  1  0  0  0  0
  8  7  1  0  0  0  0
  8  3  2  0  0  0  0
  9  5  2  0  0  0  0
 10  1  1  0  0  0  0
 11  9  1  0  0  0  0
 11 24  1  0  0  0  0
 13  1  1  0  0  0  0
 16  2  1  0  0  0  0
 17  2  1  0  0  0  0
 19  4  1  0  0  0  0
 21  6  1  0  0  0  0
 22  7  1  0  0  0  0
 23  7  1  0  0  0  0
M  END
>  <HBA>
2

>  <HBD>
1

>  <TPSA>
23.47

>  <cid>
32895

>  <dipole>
1.08

>  <excitation_energy_1>
4.807

>  <excitation_energy_2>
4.969

>  <excitation_energy_3>
5.111

>  <excitation_energy_4>
5.134

>  <homo_energy>
-5.698

>  <homo_lumo_gap>
5.758

>  <logP>
1.454

>  <lumo_energy>
0.06

>  <melting_point>
49.43

>  <molecular_refractivity>
45.94

>  <oscillator_strength_1>
0.0077

>  <oscillator_strength_2>
0.0195

>  <oscillator_strength_3>
0.0004

>  <oscillator_strength_4>
0.0036

>  <open_babel_can_smiles>
CN(Cc1ccc(cc1)O)C

>  <mulliken_charges>
24
1   -0.301781
2   -0.292333
3   -0.17011
4   -0.192843
5   -0.195736
6   -0.159338
7   -0.193995
8   0.141739
9   0.349663
10   -0.364667
11   -0.64447
12   0.14595
13   0.114663
14   0.164022
15   0.148306
16   0.147364
17   0.117059
18   0.141409
19   0.124683
20   0.116478
21   0.137203
22   0.147546
23   0.113102
24   0.406088

>  <lowdin_charges>
24
1   -0.358075
2   -0.357352
3   -0.146465
4   -0.156342
5   -0.21511
6   -0.189103
7   -0.196349
8   -0.034625
9   0.102511
10   -0.18191
11   -0.383568
12   0.148249
13   0.119163
14   0.156791
15   0.149473
16   0.149257
17   0.120926
18   0.166124
19   0.156714
20   0.152896
21   0.1672
22   0.151892
23   0.120356
24   0.357347

$$$$

