PCCDB-ID:  23222
public computational chemistry database (PCCDB) project, http://pccdb.org

 34 34  0  0  0  0  0  0  0  0999 V2000
   -1.6555    0.0456    0.3527 C   0  0  0  0  0  0  0  0  0  0  0  0
   -1.1303    0.1293   -0.9379 C   0  0  0  0  0  0  0  0  0  0  0  0
   -0.7885    0.0137    1.4467 C   0  0  0  0  0  0  0  0  0  0  0  0
    3.2385   -1.2559   -0.3417 C   0  0  0  0  0  0  0  0  0  0  0  0
    4.7542   -1.2456   -0.5670 C   0  0  0  0  0  0  0  0  0  0  0  0
    0.2511    0.1793   -1.1301 C   0  0  0  0  0  0  0  0  0  0  0  0
    0.5916    0.0641    1.2481 C   0  0  0  0  0  0  0  0  0  0  0  0
    2.6327    0.1589   -0.2547 C   0  0  0  0  0  0  0  0  0  0  0  0
    5.3736   -2.6472   -0.5789 C   0  0  0  0  0  0  0  0  0  0  0  0
    1.1336    0.1465   -0.0420 C   0  0  0  0  0  0  0  0  0  0  0  0
    6.6768   -6.6242    0.0808 C   0  0  0  0  0  0  0  0  0  0  0  0
    5.6213   -4.4825    0.8933 C   0  0  0  0  0  0  0  0  0  0  0  0
    6.6786   -7.4342    1.0553 N   0  0  0  0  0  0  0  0  0  0  0  0
    5.2203   -3.2881    0.7193 N   0  0  0  0  0  0  0  0  0  0  0  0
    6.2231   -5.3049   -0.0425 N   0  0  0  0  0  0  0  0  0  0  0  0
    7.1846   -6.9872   -1.1290 O   0  0  0  0  0  0  0  0  0  0  0  0
    5.4766   -5.0752    2.1059 O   0  0  0  0  0  0  0  0  0  0  0  0
   -2.7309    0.0101    0.5050 H   0  0  0  0  0  0  0  0  0  0  0  0
   -1.7966    0.1601   -1.7964 H   0  0  0  0  0  0  0  0  0  0  0  0
   -1.1873   -0.0460    2.4563 H   0  0  0  0  0  0  0  0  0  0  0  0
    3.0181   -1.8062    0.5807 H   0  0  0  0  0  0  0  0  0  0  0  0
    2.7480   -1.8075   -1.1566 H   0  0  0  0  0  0  0  0  0  0  0  0
    5.2423   -0.6590    0.2228 H   0  0  0  0  0  0  0  0  0  0  0  0
    4.9879   -0.7513   -1.5205 H   0  0  0  0  0  0  0  0  0  0  0  0
    0.6523    0.2492   -2.1393 H   0  0  0  0  0  0  0  0  0  0  0  0
    1.2606    0.0435    2.1062 H   0  0  0  0  0  0  0  0  0  0  0  0
    2.8692    0.7104   -1.1748 H   0  0  0  0  0  0  0  0  0  0  0  0
    3.1178    0.7024    0.5673 H   0  0  0  0  0  0  0  0  0  0  0  0
    6.4405   -2.5614   -0.8485 H   0  0  0  0  0  0  0  0  0  0  0  0
    4.8914   -3.2416   -1.3762 H   0  0  0  0  0  0  0  0  0  0  0  0
    6.2700   -7.0262    1.8920 H   0  0  0  0  0  0  0  0  0  0  0  0
    6.3588   -4.9008   -0.9587 H   0  0  0  0  0  0  0  0  0  0  0  0
    7.4915   -7.9026   -1.0059 H   0  0  0  0  0  0  0  0  0  0  0  0
    5.0449   -4.3974    2.6571 H   0  0  0  0  0  0  0  0  0  0  0  0
  1 18  1  0  0  0  0
  1  3  2  0  0  0  0
  2  1  1  0  0  0  0
  3 20  1  0  0  0  0
  4  8  1  0  0  0  0
  4 21  1  0  0  0  0
  5  4  1  0  0  0  0
  5 23  1  0  0  0  0
  6  2  2  0  0  0  0
  6 10  1  0  0  0  0
  7  3  1  0  0  0  0
  7 26  1  0  0  0  0
  8 10  1  0  0  0  0
  8 28  1  0  0  0  0
  9  5  1  0  0  0  0
  9 14  1  0  0  0  0
 10  7  2  0  0  0  0
 11 13  2  0  0  0  0
 12 17  1  0  0  0  0
 13 31  1  0  0  0  0
 14 12  2  0  0  0  0
 15 11  1  0  0  0  0
 15 12  1  0  0  0  0
 16 33  1  0  0  0  0
 16 11  1  0  0  0  0
 17 34  1  0  0  0  0
 19  2  1  0  0  0  0
 22  4  1  0  0  0  0
 24  5  1  0  0  0  0
 25  6  1  0  0  0  0
 27  8  1  0  0  0  0
 29  9  1  0  0  0  0
 30  9  1  0  0  0  0
 32 15  1  0  0  0  0
M  END
>  <HBA>
5

>  <HBD>
3

>  <TPSA>
84.22

>  <cid>
23222

>  <dipole>
1.34

>  <excitation_energy_1>
5.297

>  <excitation_energy_2>
5.712

>  <excitation_energy_3>
5.85

>  <excitation_energy_4>
5.948

>  <homo_energy>
-6.392

>  <homo_lumo_gap>
6.534

>  <logP>
2.869

>  <lumo_energy>
0.142

>  <melting_point>
175.89

>  <molecular_refractivity>
64.93

>  <oscillator_strength_1>
0.001

>  <oscillator_strength_2>
0.0006

>  <oscillator_strength_3>
0.0571

>  <oscillator_strength_4>
0.0057

>  <open_babel_can_smiles>
OC(=N)N/C(=N\CCCCc1ccccc1)/O

>  <mulliken_charges>
34
1   -0.131894
2   -0.127837
3   -0.128337
4   -0.247557
5   -0.253151
6   -0.18135
7   -0.179397
8   -0.349714
9   -0.166267
10   0.173874
11   0.659325
12   0.734487
13   -0.642988
14   -0.491485
15   -0.695324
16   -0.609932
17   -0.61279
18   0.126051
19   0.126289
20   0.126341
21   0.155833
22   0.129442
23   0.140798
24   0.125933
25   0.119548
26   0.120983
27   0.136283
28   0.14013
29   0.134113
30   0.129186
31   0.326099
32   0.3634
33   0.426248
34   0.423659

>  <lowdin_charges>
34
1   -0.160354
2   -0.157158
3   -0.155169
4   -0.274931
5   -0.277187
6   -0.168068
7   -0.168856
8   -0.273941
9   -0.203225
10   0.001835
11   0.171399
12   0.169227
13   -0.45553
14   -0.276679
15   -0.260774
16   -0.381074
17   -0.367256
18   0.154213
19   0.156709
20   0.155266
21   0.152307
22   0.140755
23   0.147545
24   0.140288
25   0.152008
26   0.154155
27   0.145584
28   0.148744
29   0.133788
30   0.130978
31   0.277028
32   0.305658
33   0.3704
34   0.372315

$$$$

