PCCDB-ID:  61814
public computational chemistry database (PCCDB) project, http://pccdb.org

 20 20  0  0  0  0  0  0  0  0999 V2000
    0.8934   -0.0447    0.0942 C   0  0  0  0  0  0  0  0  0  0  0  0
    5.1329   -2.6938   -0.5157 C   0  0  0  0  0  0  0  0  0  0  0  0
    3.1331    1.1289   -0.0734 C   0  0  0  0  0  0  0  0  0  0  0  0
    4.5158    1.0848   -0.2062 C   0  0  0  0  0  0  0  0  0  0  0  0
    3.0804   -1.2734   -0.2258 C   0  0  0  0  0  0  0  0  0  0  0  0
    6.6662   -0.0588   -0.4860 C   0  0  0  0  0  0  0  0  0  0  0  0
    2.3932   -0.0592   -0.0782 C   0  0  0  0  0  0  0  0  0  0  0  0
    4.4682   -1.3484   -0.3608 C   0  0  0  0  0  0  0  0  0  0  0  0
    5.1985   -0.1323   -0.3493 C   0  0  0  0  0  0  0  0  0  0  0  0
    7.4336   -0.9966   -0.6152 O   0  0  0  0  0  0  0  0  0  0  0  0
    0.4723    0.9384   -0.1381 H   0  0  0  0  0  0  0  0  0  0  0  0
    0.6150   -0.2862    1.1286 H   0  0  0  0  0  0  0  0  0  0  0  0
    0.4086   -0.7856   -0.5510 H   0  0  0  0  0  0  0  0  0  0  0  0
    4.3838   -3.4920   -0.5052 H   0  0  0  0  0  0  0  0  0  0  0  0
    5.8560   -2.8782    0.2852 H   0  0  0  0  0  0  0  0  0  0  0  0
    5.7019   -2.7555   -1.4486 H   0  0  0  0  0  0  0  0  0  0  0  0
    2.6246    2.0838    0.0333 H   0  0  0  0  0  0  0  0  0  0  0  0
    5.0889    2.0099   -0.2041 H   0  0  0  0  0  0  0  0  0  0  0  0
    2.5081   -2.1991   -0.2375 H   0  0  0  0  0  0  0  0  0  0  0  0
    7.0611    0.9829   -0.4617 H   0  0  0  0  0  0  0  0  0  0  0  0
  1 12  1  0  0  0  0
  2 14  1  0  0  0  0
  2  8  1  0  0  0  0
  2 15  1  0  0  0  0
  3 17  1  0  0  0  0
  4 18  1  0  0  0  0
  4  3  2  0  0  0  0
  5  7  2  0  0  0  0
  6 20  1  0  0  0  0
  6  9  1  0  0  0  0
  7  3  1  0  0  0  0
  7  1  1  0  0  0  0
  8  9  2  0  0  0  0
  8  5  1  0  0  0  0
  9  4  1  0  0  0  0
 10  6  2  0  0  0  0
 11  1  1  0  0  0  0
 13  1  1  0  0  0  0
 16  2  1  0  0  0  0
 19  5  1  0  0  0  0
M  END
>  <HBA>
1

>  <HBD>
0

>  <TPSA>
17.07

>  <cid>
61814

>  <dipole>
3.49

>  <excitation_energy_1>
3.683

>  <excitation_energy_2>
4.533

>  <excitation_energy_3>
5.002

>  <excitation_energy_4>
5.526

>  <homo_energy>
-6.702

>  <homo_lumo_gap>
5.176

>  <logP>
2.116

>  <lumo_energy>
-1.527

>  <melting_point>
46.76

>  <molecular_refractivity>
41.76

>  <oscillator_strength_1>
0.0001

>  <oscillator_strength_2>
0.0373

>  <oscillator_strength_3>
0.2914

>  <oscillator_strength_4>
0.0001

>  <open_babel_can_smiles>
O=Cc1ccc(cc1C)C

>  <mulliken_charges>
20
1   -0.532666
2   -0.507229
3   -0.187169
4   -0.186677
5   -0.242124
6   0.178562
7   0.195708
8   0.139325
9   0.07015
10   -0.421068
11   0.160613
12   0.172862
13   0.165075
14   0.141135
15   0.179258
16   0.179358
17   0.12907
18   0.139498
19   0.123758
20   0.102562

>  <lowdin_charges>
20
1   -0.442567
2   -0.440855
3   -0.175759
4   -0.137739
5   -0.178156
6   0.044175
7   0.024386
8   0.034523
9   -0.068067
10   -0.236383
11   0.159881
12   0.166129
13   0.164151
14   0.15012
15   0.173584
16   0.172986
17   0.15816
18   0.161078
19   0.155859
20   0.114491

$$$$

