PCCDB-ID:  69208
public computational chemistry database (PCCDB) project, http://pccdb.org

 21 20  0  0  0  0  0  0  0  0999 V2000
    2.4583   -3.5173   -1.0846 C   0  0  0  0  0  0  0  0  0  0  0  0
    8.8149   -0.1120    0.0021 C   0  0  0  0  0  0  0  0  0  0  0  0
    2.2780   -2.0181   -0.9068 C   0  0  0  0  0  0  0  0  0  0  0  0
    6.5047   -0.4263    1.1498 C   0  0  0  0  0  0  0  0  0  0  0  0
    7.9031   -0.9933    0.8260 C   0  0  0  0  0  0  0  0  0  0  0  0
    5.5857   -0.4840   -0.0619 C   0  0  0  0  0  0  0  0  0  0  0  0
    4.2569   -1.2539    0.1546 C   0  0  0  0  0  0  0  0  0  0  0  0
    8.2227   -2.0923    1.2264 O   0  0  0  0  0  0  0  0  0  0  0  0
    5.8388    0.0244   -1.1323 O   0  0  0  0  0  0  0  0  0  0  0  0
    3.9273   -1.7032    1.2325 O   0  0  0  0  0  0  0  0  0  0  0  0
    3.5539   -1.3247   -0.9753 O   0  0  0  0  0  0  0  0  0  0  0  0
    1.4766   -4.0037   -1.1131 H   0  0  0  0  0  0  0  0  0  0  0  0
    3.0269   -3.9426   -0.2529 H   0  0  0  0  0  0  0  0  0  0  0  0
    2.9793   -3.7379   -2.0215 H   0  0  0  0  0  0  0  0  0  0  0  0
    8.2928    0.2304   -0.8980 H   0  0  0  0  0  0  0  0  0  0  0  0
    9.7239   -0.6569   -0.2597 H   0  0  0  0  0  0  0  0  0  0  0  0
    9.0800    0.7843    0.5786 H   0  0  0  0  0  0  0  0  0  0  0  0
    1.8038   -1.7812    0.0487 H   0  0  0  0  0  0  0  0  0  0  0  0
    1.6982   -1.5809   -1.7223 H   0  0  0  0  0  0  0  0  0  0  0  0
    6.6002    0.6312    1.4286 H   0  0  0  0  0  0  0  0  0  0  0  0
    6.0744   -0.9878    1.9784 H   0  0  0  0  0  0  0  0  0  0  0  0
  1  3  1  0  0  0  0
  1 13  1  0  0  0  0
  2 17  1  0  0  0  0
  2  5  1  0  0  0  0
  3 18  1  0  0  0  0
  4 20  1  0  0  0  0
  4 21  1  0  0  0  0
  5  4  1  0  0  0  0
  5  8  2  0  0  0  0
  6  7  1  0  0  0  0
  6  4  1  0  0  0  0
  7 10  2  0  0  0  0
  9  6  2  0  0  0  0
 11  3  1  0  0  0  0
 11  7  1  0  0  0  0
 12  1  1  0  0  0  0
 14  1  1  0  0  0  0
 15  2  1  0  0  0  0
 16  2  1  0  0  0  0
 19  3  1  0  0  0  0
M  END
>  <HBA>
4

>  <HBD>
0

>  <TPSA>
60.44

>  <cid>
69208

>  <dipole>
2.28

>  <excitation_energy_1>
3.206

>  <excitation_energy_2>
3.851

>  <excitation_energy_3>
4.467

>  <excitation_energy_4>
4.966

>  <homo_energy>
-6.912

>  <homo_lumo_gap>
4.563

>  <logP>
0.098

>  <lumo_energy>
-2.348

>  <melting_point>
28.0

>  <molecular_refractivity>
37.45

>  <oscillator_strength_1>
0.0016

>  <oscillator_strength_2>
0.0283

>  <oscillator_strength_3>
0.0017

>  <oscillator_strength_4>
0.0005

>  <open_babel_can_smiles>
CCOC(=O)C(=O)CC(=O)C

>  <mulliken_charges>
21
1   -0.465979
2   -0.537509
3   -0.05286
4   -0.440688
5   0.453103
6   0.389132
7   0.577886
8   -0.41464
9   -0.410474
10   -0.462644
11   -0.432438
12   0.157389
13   0.180162
14   0.167098
15   0.202695
16   0.179881
17   0.170262
18   0.174512
19   0.165479
20   0.18782
21   0.211812

>  <lowdin_charges>
21
1   -0.454583
2   -0.478914
3   -0.124819
4   -0.339735
5   0.172768
6   0.142738
7   0.159725
8   -0.216815
9   -0.1864
10   -0.243247
11   -0.154139
12   0.162688
13   0.168305
14   0.161468
15   0.185903
16   0.173622
17   0.173069
18   0.160667
19   0.160514
20   0.183572
21   0.193612

$$$$

