PCCDB-ID:  44338
public computational chemistry database (PCCDB) project, http://pccdb.org

 26 27  0  0  0  0  0  0  0  0999 V2000
    1.8701    2.1595   -0.7023 C   0  0  0  0  0  0  0  0  0  0  0  0
    0.6421    2.7713   -0.7360 C   0  0  0  0  0  0  0  0  0  0  0  0
    1.9835    0.7780   -0.4038 C   0  0  0  0  0  0  0  0  0  0  0  0
   -1.8261    2.6205   -0.5007 C   0  0  0  0  0  0  0  0  0  0  0  0
   -2.9619    1.8871   -0.2477 C   0  0  0  0  0  0  0  0  0  0  0  0
   -1.6275   -0.1130    0.0824 C   0  0  0  0  0  0  0  0  0  0  0  0
    2.1285   -1.9835    0.2149 C   0  0  0  0  0  0  0  0  0  0  0  0
   -0.5388    2.0248   -0.4725 C   0  0  0  0  0  0  0  0  0  0  0  0
   -2.8619    0.5044    0.0439 C   0  0  0  0  0  0  0  0  0  0  0  0
   -0.4491    0.6273   -0.1706 C   0  0  0  0  0  0  0  0  0  0  0  0
    0.8537    0.0335   -0.1419 C   0  0  0  0  0  0  0  0  0  0  0  0
    1.8983   -3.4392    0.6259 C   0  0  0  0  0  0  0  0  0  0  0  0
   -3.9681   -0.2585    0.2941 O   0  0  0  0  0  0  0  0  0  0  0  0
    2.8089   -4.2272    0.6683 O   0  0  0  0  0  0  0  0  0  0  0  0
    0.6338   -3.7620    0.9453 O   0  0  0  0  0  0  0  0  0  0  0  0
    0.8786   -1.3100    0.1618 O   0  0  0  0  0  0  0  0  0  0  0  0
    2.7738    2.7269   -0.9044 H   0  0  0  0  0  0  0  0  0  0  0  0
    0.5550    3.8305   -0.9626 H   0  0  0  0  0  0  0  0  0  0  0  0
    2.9674    0.3241   -0.3840 H   0  0  0  0  0  0  0  0  0  0  0  0
   -1.9061    3.6807   -0.7269 H   0  0  0  0  0  0  0  0  0  0  0  0
   -3.9407    2.3631   -0.2727 H   0  0  0  0  0  0  0  0  0  0  0  0
   -1.5830   -1.1730    0.2996 H   0  0  0  0  0  0  0  0  0  0  0  0
    2.6298   -1.9725   -0.7604 H   0  0  0  0  0  0  0  0  0  0  0  0
    2.7972   -1.5213    0.9525 H   0  0  0  0  0  0  0  0  0  0  0  0
   -4.7601    0.2966    0.2267 H   0  0  0  0  0  0  0  0  0  0  0  0
    0.0825   -2.9633    0.8333 H   0  0  0  0  0  0  0  0  0  0  0  0
  1  3  1  0  0  0  0
  2  1  2  0  0  0  0
  2  8  1  0  0  0  0
  3 19  1  0  0  0  0
  3 11  2  0  0  0  0
  4  8  2  0  0  0  0
  4  5  1  0  0  0  0
  5  9  2  0  0  0  0
  6 22  1  0  0  0  0
  7 12  1  0  0  0  0
  7 24  1  0  0  0  0
  8 10  1  0  0  0  0
  9  6  1  0  0  0  0
  9 13  1  0  0  0  0
 10 11  1  0  0  0  0
 10  6  2  0  0  0  0
 11 16  1  0  0  0  0
 12 14  2  0  0  0  0
 12 15  1  0  0  0  0
 16  7  1  0  0  0  0
 17  1  1  0  0  0  0
 18  2  1  0  0  0  0
 20  4  1  0  0  0  0
 21  5  1  0  0  0  0
 23  7  1  0  0  0  0
 25 13  1  0  0  0  0
 26 15  1  0  0  0  0
M  END
>  <HBA>
4

>  <HBD>
2

>  <TPSA>
66.76

>  <cid>
44338

>  <dipole>
6.01

>  <excitation_energy_1>
3.966

>  <excitation_energy_2>
4.408

>  <excitation_energy_3>
4.911

>  <excitation_energy_4>
5.089

>  <homo_energy>
-5.674

>  <homo_lumo_gap>
4.495

>  <logP>
2.009

>  <lumo_energy>
-1.178

>  <melting_point>
171.23

>  <molecular_refractivity>
59.04

>  <oscillator_strength_1>
0.0762

>  <oscillator_strength_2>
0.0261

>  <oscillator_strength_3>
0.0002

>  <oscillator_strength_4>
0.0708

>  <open_babel_can_smiles>
OC(=O)COc1cccc2c1cc(O)cc2

>  <mulliken_charges>
26
1   -0.148477
2   -0.184984
3   -0.205076
4   -0.206001
5   -0.187075
6   -0.221423
7   -0.132375
8   0.136474
9   0.356903
10   0.069457
11   0.323444
12   0.574438
13   -0.64258
14   -0.443948
15   -0.568613
16   -0.566881
17   0.13535
18   0.130268
19   0.142233
20   0.138997
21   0.12622
22   0.138709
23   0.190379
24   0.188583
25   0.410151
26   0.445828

>  <lowdin_charges>
26
1   -0.156752
2   -0.165181
3   -0.21259
4   -0.140096
5   -0.200533
6   -0.191921
7   -0.169623
8   -0.00685
9   0.103323
10   -0.01014
11   0.099856
12   0.187592
13   -0.374701
14   -0.241337
15   -0.34124
16   -0.218364
17   0.162391
18   0.157712
19   0.166017
20   0.160933
21   0.156955
22   0.165204
23   0.171907
24   0.172174
25   0.359985
26   0.365278

$$$$

