PCCDB-ID:  10819
public computational chemistry database (PCCDB) project, http://pccdb.org

 27 27  0  0  1  0  0  0  0  0999 V2000
    0.7189   -0.5529    0.6814 C   0  0  0  0  0  0  0  0  0  0  0  0
    2.2798   -0.7324   -1.2377 C   0  0  0  0  0  0  0  0  0  0  0  0
    2.5674    3.7542   -0.2771 C   0  0  0  0  0  0  0  0  0  0  0  0
    2.9522    3.0460    2.0817 C   0  0  0  0  0  0  0  0  0  0  0  0
    2.0848    2.3898   -0.7015 C   0  0  0  0  0  0  0  0  0  0  0  0
    2.0847    1.8256    1.7479 C   0  0  0  0  0  0  0  0  0  0  0  0
    3.4755    5.4443    1.3042 C   0  0  0  0  0  0  0  0  0  0  0  0
    1.7317   -0.0282   -0.0173 C   0  0  0  0  0  0  0  0  0  0  0  0
    2.9821    4.0606    0.9597 C   0  0  0  0  0  0  0  0  0  0  0  0
    2.4027    1.2893    0.3429 C   0  0  1  0  0  0  0  0  0  0  0  0
    2.6821    6.0785    2.3124 O   0  0  0  0  0  0  0  0  0  0  0  0
    0.2600   -1.4936    0.3870 H   0  0  0  0  0  0  0  0  0  0  0  0
    0.3091   -0.0770    1.5665 H   0  0  0  0  0  0  0  0  0  0  0  0
    1.7620   -1.6786   -1.4222 H   0  0  0  0  0  0  0  0  0  0  0  0
    3.3509   -0.9476   -1.1194 H   0  0  0  0  0  0  0  0  0  0  0  0
    2.1843   -0.1170   -2.1418 H   0  0  0  0  0  0  0  0  0  0  0  0
    2.5833    4.5250   -1.0492 H   0  0  0  0  0  0  0  0  0  0  0  0
    3.9826    2.7268    2.3075 H   0  0  0  0  0  0  0  0  0  0  0  0
    2.5889    3.5368    2.9930 H   0  0  0  0  0  0  0  0  0  0  0  0
    2.5324    2.1364   -1.6717 H   0  0  0  0  0  0  0  0  0  0  0  0
    0.9976    2.4187   -0.8772 H   0  0  0  0  0  0  0  0  0  0  0  0
    1.0255    2.1136    1.7955 H   0  0  0  0  0  0  0  0  0  0  0  0
    2.2345    1.0409    2.4983 H   0  0  0  0  0  0  0  0  0  0  0  0
    3.5318    6.0638    0.3954 H   0  0  0  0  0  0  0  0  0  0  0  0
    4.4834    5.3989    1.7350 H   0  0  0  0  0  0  0  0  0  0  0  0
    3.4914    1.1187    0.2992 H   0  0  0  0  0  0  0  0  0  0  0  0
    1.7736    6.1100    1.9720 H   0  0  0  0  0  0  0  0  0  0  0  0
  1 13  1  0  0  0  0
  2 15  1  0  0  0  0
  2  8  1  0  0  0  0
  3  9  2  0  0  0  0
  4 18  1  0  0  0  0
  4 19  1  0  0  0  0
  5  3  1  0  0  0  0
  5 10  1  0  0  0  0
  6 22  1  0  0  0  0
  6  4  1  0  0  0  0
  6 23  1  0  0  0  0
  7 25  1  0  0  0  0
  7 11  1  0  0  0  0
  8 10  1  0  0  0  0
  8  1  2  0  0  0  0
  9  7  1  0  0  0  0
  9  4  1  0  0  0  0
 10 26  1  6  0  0  0
 10  6  1  0  0  0  0
 12  1  1  0  0  0  0
 14  2  1  0  0  0  0
 16  2  1  0  0  0  0
 17  3  1  0  0  0  0
 20  5  1  0  0  0  0
 21  5  1  0  0  0  0
 24  7  1  0  0  0  0
 27 11  1  0  0  0  0
M  END
>  <HBA>
1

>  <HBD>
1

>  <TPSA>
20.23

>  <cid>
10819

>  <dipole>
1.7

>  <excitation_energy_1>
5.889

>  <excitation_energy_2>
5.968

>  <excitation_energy_3>
6.153

>  <excitation_energy_4>
6.25

>  <homo_energy>
-6.514

>  <homo_lumo_gap>
7.01

>  <logP>
2.281

>  <lumo_energy>
0.495

>  <melting_point>
8.01

>  <molecular_refractivity>
48.28

>  <oscillator_strength_1>
0.0405

>  <oscillator_strength_2>
0.0097

>  <oscillator_strength_3>
0.0045

>  <oscillator_strength_4>
0.0054

>  <open_babel_can_smiles>
OCC1=CC[C@@H](CC1)C(=C)C

>  <mulliken_charges>
27
1   -0.406077
2   -0.515969
3   -0.175398
4   -0.329417
5   -0.299971
6   -0.279563
7   -0.097392
8   0.223364
9   0.139665
10   -0.147186
11   -0.609992
12   0.128911
13   0.137414
14   0.152721
15   0.152076
16   0.155675
17   0.115939
18   0.142068
19   0.158667
20   0.143243
21   0.150123
22   0.136856
23   0.139509
24   0.124981
25   0.147302
26   0.12776
27   0.384691

>  <lowdin_charges>
27
1   -0.368975
2   -0.44079
3   -0.187022
4   -0.277996
5   -0.272169
6   -0.274276
7   -0.131883
8   0.007229
9   -0.044546
10   -0.122813
11   -0.467312
12   0.153571
13   0.157117
14   0.156639
15   0.153016
16   0.155077
17   0.149074
18   0.146889
19   0.159265
20   0.150078
21   0.150429
22   0.14089
23   0.149398
24   0.131457
25   0.148447
26   0.140255
27   0.338951

$$$$

