PCCDB-ID:  7371
public computational chemistry database (PCCDB) project, http://pccdb.org

 16 16  0  0  0  0  0  0  0  0999 V2000
   -1.4007   -0.0723    0.0488 C   0  0  0  0  0  0  0  0  0  0  0  0
   -0.7608    1.1679   -0.0120 C   0  0  0  0  0  0  0  0  0  0  0  0
   -0.6560   -1.2540    0.0211 C   0  0  0  0  0  0  0  0  0  0  0  0
    0.6295    1.2351   -0.0969 C   0  0  0  0  0  0  0  0  0  0  0  0
    0.7351   -1.2030   -0.0607 C   0  0  0  0  0  0  0  0  0  0  0  0
    1.3587    0.0448   -0.1139 C   0  0  0  0  0  0  0  0  0  0  0  0
    3.5409    0.2147    1.3855 O   0  0  0  0  0  0  0  0  0  0  0  0
    3.6625   -1.1613   -0.6896 O   0  0  0  0  0  0  0  0  0  0  0  0
    3.5200    1.3813   -0.8352 O   0  0  0  0  0  0  0  0  0  0  0  0
    3.1397    0.1208   -0.2136 S   0  0  0  0  0  0  0  0  0  0  0  0
   -2.4843   -0.1185    0.1104 H   0  0  0  0  0  0  0  0  0  0  0  0
   -1.3436    2.0842    0.0002 H   0  0  0  0  0  0  0  0  0  0  0  0
   -1.1579   -2.2164    0.0578 H   0  0  0  0  0  0  0  0  0  0  0  0
    1.1445    2.1875   -0.1611 H   0  0  0  0  0  0  0  0  0  0  0  0
    1.3304   -2.1089   -0.0997 H   0  0  0  0  0  0  0  0  0  0  0  0
    4.1625   -0.5194    1.5516 H   0  0  0  0  0  0  0  0  0  0  0  0
  1 11  1  0  0  0  0
  2 12  1  0  0  0  0
  2  1  2  0  0  0  0
  3  1  1  0  0  0  0
  3 13  1  0  0  0  0
  4  2  1  0  0  0  0
  5  3  2  0  0  0  0
  6  4  2  0  0  0  0
  6  5  1  0  0  0  0
  7 16  1  0  0  0  0
  8 10  1  0  0  0  0
  9 10  1  0  0  0  0
 10  6  1  0  0  0  0
 10  7  1  0  0  0  0
 14  4  1  0  0  0  0
 15  5  1  0  0  0  0
M  RAD  2   8   2   9   2
M  END
>  <HBA>
3

>  <HBD>
1

>  <TPSA>
62.75

>  <cid>
7371

>  <dipole>
4.27

>  <excitation_energy_1>
5.231

>  <excitation_energy_2>
5.787

>  <excitation_energy_3>
6.233

>  <excitation_energy_4>
6.499

>  <homo_energy>
-7.538

>  <homo_lumo_gap>
6.256

>  <logP>
2.014

>  <lumo_energy>
-1.282

>  <melting_point>
88.81

>  <molecular_refractivity>
36.3

>  <oscillator_strength_1>
0.0119

>  <oscillator_strength_2>
0.1053

>  <oscillator_strength_3>
0.0035

>  <oscillator_strength_4>
0.0512

>  <open_babel_can_smiles>
OS(c1ccccc1)([O])[O]

>  <mulliken_charges>
16
1   -0.117046
2   -0.127206
3   -0.126639
4   -0.131449
5   -0.136965
6   -0.150746
7   -0.637126
8   -0.531704
9   -0.488449
10   1.195517
11   0.147908
12   0.150494
13   0.149305
14   0.185185
15   0.179823
16   0.439099

>  <lowdin_charges>
16
1   -0.131546
2   -0.147368
3   -0.147746
4   -0.130843
5   -0.135486
6   -0.181219
7   -0.586382
8   -0.586155
9   -0.55551
10   1.349498
11   0.16456
12   0.168726
13   0.167657
14   0.186576
15   0.183852
16   0.381384

$$$$

