PCCDB-ID:  27787
public computational chemistry database (PCCDB) project, http://pccdb.org

 20 20  0  0  0  0  0  0  0  0999 V2000
   -1.6638    0.2280   -0.0217 C   0  0  0  0  0  0  0  0  0  0  0  0
   -0.8403    1.2656   -0.4574 C   0  0  0  0  0  0  0  0  0  0  0  0
   -1.0908   -0.9580    0.4460 C   0  0  0  0  0  0  0  0  0  0  0  0
    0.5490    1.1183   -0.4240 C   0  0  0  0  0  0  0  0  0  0  0  0
    0.2951   -1.1018    0.4778 C   0  0  0  0  0  0  0  0  0  0  0  0
    2.6437   -0.2329    0.0811 C   0  0  0  0  0  0  0  0  0  0  0  0
    1.1346   -0.0639    0.0451 C   0  0  0  0  0  0  0  0  0  0  0  0
    3.1592   -1.3335   -0.8474 C   0  0  0  0  0  0  0  0  0  0  0  0
    3.9093   -2.3177   -0.5140 N   0  0  0  0  0  0  0  0  0  0  0  0
    2.8067   -1.1582   -2.1749 N   0  0  0  0  0  0  0  0  0  0  0  0
   -2.7443    0.3408   -0.0444 H   0  0  0  0  0  0  0  0  0  0  0  0
   -1.2756    2.1928   -0.8208 H   0  0  0  0  0  0  0  0  0  0  0  0
   -1.7254   -1.7719    0.7870 H   0  0  0  0  0  0  0  0  0  0  0  0
    1.1862    1.9337   -0.7596 H   0  0  0  0  0  0  0  0  0  0  0  0
    0.7356   -2.0289    0.8379 H   0  0  0  0  0  0  0  0  0  0  0  0
    2.9726   -0.4663    1.1000 H   0  0  0  0  0  0  0  0  0  0  0  0
    3.1229    0.7116   -0.2051 H   0  0  0  0  0  0  0  0  0  0  0  0
    4.1487   -2.2602    0.4772 H   0  0  0  0  0  0  0  0  0  0  0  0
    1.9032   -0.7352   -2.3467 H   0  0  0  0  0  0  0  0  0  0  0  0
    2.9994   -1.9678   -2.7530 H   0  0  0  0  0  0  0  0  0  0  0  0
  1  3  2  0  0  0  0
  2  4  2  0  0  0  0
  2  1  1  0  0  0  0
  3  5  1  0  0  0  0
  3 13  1  0  0  0  0
  4  7  1  0  0  0  0
  5 15  1  0  0  0  0
  6 16  1  0  0  0  0
  7  6  1  0  0  0  0
  7  5  2  0  0  0  0
  8  9  1  0  0  0  0
  8  6  1  0  0  0  0
  9 18  1  0  0  0  0
 10  8  2  0  0  0  0
 11  1  1  0  0  0  0
 12  2  1  0  0  0  0
 14  4  1  0  0  0  0
 17  6  1  0  0  0  0
 19 10  1  0  0  0  0
 20 10  1  0  0  0  0
M  RAD  1   9   2
M  END
>  <HBA>
2

>  <HBD>
2

>  <TPSA>
49.87

>  <cid>
27787

>  <dipole>
2.85

>  <excitation_energy_1>
5.229

>  <excitation_energy_2>
5.256

>  <excitation_energy_3>
5.431

>  <excitation_energy_4>
5.602

>  <homo_energy>
-6.294

>  <homo_lumo_gap>
5.989

>  <logP>
1.965

>  <lumo_energy>
-0.305

>  <melting_point>
92.03

>  <molecular_refractivity>
42.51

>  <oscillator_strength_1>
0.0023

>  <oscillator_strength_2>
0.0005

>  <oscillator_strength_3>
0.0021

>  <oscillator_strength_4>
0.0549

>  <open_babel_can_smiles>
[NH]C(=[NH2])Cc1ccccc1

>  <mulliken_charges>
20
1   -0.130635
2   -0.125622
3   -0.127666
4   -0.198135
5   -0.173876
6   -0.409002
7   0.147697
8   0.447592
9   -0.631818
10   -0.72809
11   0.133014
12   0.133486
13   0.134635
14   0.130961
15   0.138645
16   0.156612
17   0.170302
18   0.273869
19   0.32735
20   0.33068

>  <lowdin_charges>
20
1   -0.155375
2   -0.154386
3   -0.152963
4   -0.174888
5   -0.162301
6   -0.294048
7   -0.011906
8   0.091789
9   -0.43988
10   -0.481109
11   0.15745
12   0.159747
13   0.161049
14   0.158412
15   0.161702
16   0.160789
17   0.167319
18   0.246021
19   0.279024
20   0.283554

$$$$

