PCCDB-ID:  1007
public computational chemistry database (PCCDB) project, http://pccdb.org

 23 22  0  0  1  0  0  0  0  0999 V2000
   -0.0857   -0.6329   -0.7119 C   0  0  0  0  0  0  0  0  0  0  0  0
    0.7437   -1.2344   -1.8577 C   0  0  1  0  0  0  0  0  0  0  0  0
    1.2697   -2.6482   -1.5800 C   0  0  1  0  0  0  0  0  0  0  0  0
    2.1682   -2.6980   -0.3299 C   0  0  0  0  0  0  0  0  0  0  0  0
    0.2796   -3.7307   -1.4816 N   0  0  0  0  0  0  0  0  0  0  0  0
   -0.0159   -1.3245   -3.0583 O   0  0  0  0  0  0  0  0  0  0  0  0
    2.7956   -1.7477    0.1043 O   0  0  0  0  0  0  0  0  0  0  0  0
    2.2270   -3.9008    0.2322 O   0  0  0  0  0  0  0  0  0  0  0  0
    0.8073    1.2254    1.5427 O   0  0  0  0  0  0  0  0  0  0  0  0
    2.4526    0.9973   -0.3462 O   0  0  0  0  0  0  0  0  0  0  0  0
    0.9230    3.0989   -0.2940 O   0  0  0  0  0  0  0  0  0  0  0  0
   -0.0829    0.8007   -0.8141 O   0  0  0  0  0  0  0  0  0  0  0  0
    1.0434    1.6620   -0.0063 P   0  0  0  0  0  0  0  0  0  0  0  0
    0.2742   -0.9424    0.2755 H   0  0  0  0  0  0  0  0  0  0  0  0
   -1.1300   -0.9442   -0.8117 H   0  0  0  0  0  0  0  0  0  0  0  0
    1.6163   -0.5887   -2.0062 H   0  0  0  0  0  0  0  0  0  0  0  0
    1.9234   -2.9076   -2.4234 H   0  0  0  0  0  0  0  0  0  0  0  0
   -0.0863   -3.9476   -2.4058 H   0  0  0  0  0  0  0  0  0  0  0  0
   -0.5196   -3.4437   -0.9170 H   0  0  0  0  0  0  0  0  0  0  0  0
   -0.2613   -0.4195   -3.3112 H   0  0  0  0  0  0  0  0  0  0  0  0
    1.5690   -4.4502   -0.2693 H   0  0  0  0  0  0  0  0  0  0  0  0
    0.3102    1.9184    2.0080 H   0  0  0  0  0  0  0  0  0  0  0  0
    2.6011    0.0638   -0.0594 H   0  0  0  0  0  0  0  0  0  0  0  0
  1 14  1  0  0  0  0
  2 16  1  6  0  0  0
  2  3  1  0  0  0  0
  2  1  1  0  0  0  0
  3 17  1  6  0  0  0
  3  5  1  0  0  0  0
  3  4  1  0  0  0  0
  4  7  2  0  0  0  0
  4  8  1  0  0  0  0
  5 19  1  0  0  0  0
  6  2  1  0  0  0  0
  9 22  1  0  0  0  0
 10 23  1  0  0  0  0
 10 13  1  0  0  0  0
 11 13  2  0  0  0  0
 12  1  1  0  0  0  0
 12 13  1  0  0  0  0
 13  9  1  0  0  0  0
 15  1  1  0  0  0  0
 18  5  1  0  0  0  0
 20  6  1  0  0  0  0
 21  8  1  0  0  0  0
M  END
>  <HBA>
8

>  <HBD>
5

>  <TPSA>
160.12

>  <cid>
1007

>  <dipole>
6.78

>  <excitation_energy_1>
5.572

>  <excitation_energy_2>
6.14

>  <excitation_energy_3>
6.44

>  <excitation_energy_4>
6.562

>  <homo_energy>
-7.774

>  <homo_lumo_gap>
7.056

>  <logP>
-1.431

>  <lumo_energy>
-0.718

>  <melting_point>
204.52

>  <molecular_refractivity>
39.06

>  <oscillator_strength_1>
0.0024

>  <oscillator_strength_2>
0.004

>  <oscillator_strength_3>
0.0146

>  <oscillator_strength_4>
0.0019

>  <open_babel_can_smiles>
O[C@H]([C@@H](C(=O)O)N)COP(=O)(O)O

>  <mulliken_charges>
23
1   -0.106535
2   0.125663
3   -0.127231
4   0.63772
5   -0.765983
6   -0.644499
7   -0.493901
8   -0.558364
9   -0.673555
10   -0.682136
11   -0.525594
12   -0.53129
13   1.186528
14   0.170508
15   0.163354
16   0.169294
17   0.205024
18   0.347242
19   0.328828
20   0.415187
21   0.441484
22   0.442651
23   0.475604

>  <lowdin_charges>
23
1   -0.156098
2   -0.032634
3   -0.119901
4   0.194935
5   -0.537456
6   -0.465018
7   -0.271322
8   -0.324849
9   -0.587201
10   -0.571128
11   -0.567493
12   -0.398812
13   1.123011
14   0.15757
15   0.157009
16   0.161962
17   0.185357
18   0.285005
19   0.271085
20   0.358888
21   0.368558
22   0.388973
23   0.379558

$$$$

