PCCDB-ID:  68094
public computational chemistry database (PCCDB) project, http://pccdb.org

 25 27  0  0  0  0  0  0  0  0999 V2000
    0.9593    0.1397   -0.0140 C   0  0  0  0  0  0  0  0  0  0  0  0
    6.4505   -4.4140   -0.0413 C   0  0  0  0  0  0  0  0  0  0  0  0
    6.3687   -3.0569   -0.0588 C   0  0  0  0  0  0  0  0  0  0  0  0
    5.2986    0.1603   -0.0775 C   0  0  0  0  0  0  0  0  0  0  0  0
    4.5360    1.2940   -0.0767 C   0  0  0  0  0  0  0  0  0  0  0  0
    3.9627   -4.6427   -0.0014 C   0  0  0  0  0  0  0  0  0  0  0  0
    2.4551    0.0372   -0.0378 C   0  0  0  0  0  0  0  0  0  0  0  0
    5.2637   -5.3017   -0.0105 C   0  0  0  0  0  0  0  0  0  0  0  0
    5.0818   -2.4309   -0.0478 C   0  0  0  0  0  0  0  0  0  0  0  0
    4.6508   -1.1073   -0.0558 C   0  0  0  0  0  0  0  0  0  0  0  0
    3.9110   -3.2794   -0.0204 C   0  0  0  0  0  0  0  0  0  0  0  0
    3.1952   -1.1141   -0.0342 C   0  0  0  0  0  0  0  0  0  0  0  0
    3.1680    1.2302   -0.0564 N   0  0  0  0  0  0  0  0  0  0  0  0
    2.7952   -2.4333   -0.0157 N   0  0  0  0  0  0  0  0  0  0  0  0
    5.3932   -6.5362    0.0076 O   0  0  0  0  0  0  0  0  0  0  0  0
    0.4940   -0.8457   -0.0925 H   0  0  0  0  0  0  0  0  0  0  0  0
    0.5853    0.7420   -0.8528 H   0  0  0  0  0  0  0  0  0  0  0  0
    0.5975    0.6018    0.9146 H   0  0  0  0  0  0  0  0  0  0  0  0
    7.4104   -4.9222   -0.0493 H   0  0  0  0  0  0  0  0  0  0  0  0
    7.2671   -2.4430   -0.0815 H   0  0  0  0  0  0  0  0  0  0  0  0
    6.3793    0.2418   -0.0928 H   0  0  0  0  0  0  0  0  0  0  0  0
    4.9582    2.2917   -0.0923 H   0  0  0  0  0  0  0  0  0  0  0  0
    3.0759   -5.2691    0.0203 H   0  0  0  0  0  0  0  0  0  0  0  0
    2.6424    2.0925   -0.0623 H   0  0  0  0  0  0  0  0  0  0  0  0
    1.8427   -2.7594    0.0237 H   0  0  0  0  0  0  0  0  0  0  0  0
  1 18  1  0  0  0  0
  2  8  1  0  0  0  0
  3  9  1  0  0  0  0
  3  2  2  0  0  0  0
  4  5  2  0  0  0  0
  4 10  1  0  0  0  0
  5 13  1  0  0  0  0
  6 23  1  0  0  0  0
  7 12  2  0  0  0  0
  7  1  1  0  0  0  0
  8  6  1  0  0  0  0
  8 15  2  0  0  0  0
  9 11  1  0  0  0  0
 10  9  2  0  0  0  0
 10 12  1  0  0  0  0
 11 14  1  0  0  0  0
 11  6  2  0  0  0  0
 12 14  1  0  0  0  0
 13  7  1  0  0  0  0
 14 25  1  0  0  0  0
 16  1  1  0  0  0  0
 17  1  1  0  0  0  0
 19  2  1  0  0  0  0
 20  3  1  0  0  0  0
 21  4  1  0  0  0  0
 22  5  1  0  0  0  0
 24 13  1  0  0  0  0
M  END
>  <HBA>
1

>  <HBD>
2

>  <TPSA>
48.65

>  <cid>
68094

>  <dipole>
12.85

>  <excitation_energy_1>
2.84

>  <excitation_energy_2>
2.98

>  <excitation_energy_3>
3.283

>  <excitation_energy_4>
3.372

>  <homo_energy>
-4.446

>  <homo_lumo_gap>
2.928

>  <logP>
2.318

>  <lumo_energy>
-1.518

>  <melting_point>
227.82

>  <molecular_refractivity>
61.39

>  <oscillator_strength_1>
0.0

>  <oscillator_strength_2>
0.4246

>  <oscillator_strength_3>
0.0001

>  <oscillator_strength_4>
0.0138

>  <open_babel_can_smiles>
O=c1ccc2c(c1)[nH]c1c2cc[nH]c1C

>  <mulliken_charges>
25
1   -0.53136
2   -0.208394
3   -0.1614
4   -0.228955
5   0.081888
6   -0.320603
7   0.344873
8   0.441961
9   0.03026
10   0.090704
11   0.391378
12   0.271195
13   -0.66137
14   -0.842067
15   -0.568539
16   0.1723
17   0.174449
18   0.179486
19   0.127102
20   0.120112
21   0.153059
22   0.167787
23   0.110703
24   0.340549
25   0.324882

>  <lowdin_charges>
25
1   -0.443927
2   -0.187049
3   -0.156403
4   -0.188433
5   -0.096804
6   -0.271356
7   0.006387
8   0.120122
9   -0.064987
10   0.00038
11   0.063481
12   0.032653
13   -0.175386
14   -0.221625
15   -0.328186
16   0.169296
17   0.167372
18   0.168463
19   0.162435
20   0.153386
21   0.172924
22   0.171721
23   0.158191
24   0.29752
25   0.289824

$$$$

