PCCDB-ID:  24218
public computational chemistry database (PCCDB) project, http://pccdb.org

 22 22  0  0  0  0  0  0  0  0999 V2000
    1.7129   -1.3206   -0.0328 C   0  0  0  0  0  0  0  0  0  0  0  0
    2.8901    3.3423    0.9693 C   0  0  0  0  0  0  0  0  0  0  0  0
    2.1608   -0.0588   -0.0060 C   0  0  0  0  0  0  0  0  0  0  0  0
    2.0181    2.9246   -0.2297 C   0  0  0  0  0  0  0  0  0  0  0  0
    4.1871    0.5611   -3.1452 C   0  0  0  0  0  0  0  0  0  0  0  0
    4.1118    1.9497   -3.2633 C   0  0  0  0  0  0  0  0  0  0  0  0
    3.5542   -0.0732   -2.0810 C   0  0  0  0  0  0  0  0  0  0  0  0
    3.4030    2.6802   -2.3115 C   0  0  0  0  0  0  0  0  0  0  0  0
    2.8280    0.6500   -1.1174 C   0  0  0  0  0  0  0  0  0  0  0  0
    2.7581    2.0597   -1.2339 C   0  0  0  0  0  0  0  0  0  0  0  0
    1.2509   -1.7701    0.8413 H   0  0  0  0  0  0  0  0  0  0  0  0
    1.7758   -1.9435   -0.9214 H   0  0  0  0  0  0  0  0  0  0  0  0
    2.3266    3.9832    1.6574 H   0  0  0  0  0  0  0  0  0  0  0  0
    3.7729    3.8974    0.6332 H   0  0  0  0  0  0  0  0  0  0  0  0
    3.2445    2.4711    1.5317 H   0  0  0  0  0  0  0  0  0  0  0  0
    2.0222    0.5065    0.9132 H   0  0  0  0  0  0  0  0  0  0  0  0
    1.6641    3.8292   -0.7391 H   0  0  0  0  0  0  0  0  0  0  0  0
    1.1204    2.4102    0.1309 H   0  0  0  0  0  0  0  0  0  0  0  0
    4.7445   -0.0240   -3.8718 H   0  0  0  0  0  0  0  0  0  0  0  0
    4.6027    2.4603   -4.0875 H   0  0  0  0  0  0  0  0  0  0  0  0
    3.6391   -1.1508   -1.9740 H   0  0  0  0  0  0  0  0  0  0  0  0
    3.3389    3.7624   -2.4059 H   0  0  0  0  0  0  0  0  0  0  0  0
  1  3  2  0  0  0  0
  1 11  1  0  0  0  0
  2 15  1  0  0  0  0
  2 13  1  0  0  0  0
  3 16  1  0  0  0  0
  4 18  1  0  0  0  0
  4  2  1  0  0  0  0
  5  7  1  0  0  0  0
  6  5  2  0  0  0  0
  6  8  1  0  0  0  0
  7 21  1  0  0  0  0
  7  9  2  0  0  0  0
  8 10  2  0  0  0  0
  9  3  1  0  0  0  0
 10  9  1  0  0  0  0
 10  4  1  0  0  0  0
 12  1  1  0  0  0  0
 14  2  1  0  0  0  0
 17  4  1  0  0  0  0
 19  5  1  0  0  0  0
 20  6  1  0  0  0  0
 22  8  1  0  0  0  0
M  END
>  <HBA>
0

>  <HBD>
0

>  <TPSA>
0.0

>  <cid>
24218

>  <dipole>
0.35

>  <excitation_energy_1>
4.725

>  <excitation_energy_2>
4.91

>  <excitation_energy_3>
5.57

>  <excitation_energy_4>
5.737

>  <homo_energy>
-6.0

>  <homo_lumo_gap>
5.298

>  <logP>
2.892

>  <lumo_energy>
-0.702

>  <melting_point>
0.62

>  <molecular_refractivity>
46.31

>  <oscillator_strength_1>
0.062

>  <oscillator_strength_2>
0.2714

>  <oscillator_strength_3>
0.1406

>  <oscillator_strength_4>
0.0519

>  <open_babel_can_smiles>
C=Cc1ccccc1CC

>  <mulliken_charges>
22
1   -0.340707
2   -0.439727
3   -0.130094
4   -0.343823
5   -0.132013
6   -0.124322
7   -0.183759
8   -0.187938
9   0.102078
10   0.117313
11   0.141814
12   0.143401
13   0.144377
14   0.151128
15   0.151739
16   0.134035
17   0.14424
18   0.148134
19   0.127271
20   0.127345
21   0.12796
22   0.121547

>  <lowdin_charges>
22
1   -0.332674
2   -0.444733
3   -0.150877
4   -0.276631
5   -0.16213
6   -0.157154
7   -0.152722
8   -0.16487
9   -0.013811
10   -0.003311
11   0.161835
12   0.158246
13   0.151158
14   0.152488
15   0.150294
16   0.157916
17   0.151322
18   0.151856
19   0.158266
20   0.157928
21   0.156123
22   0.151482

$$$$

