PCCDB-ID:  18865
public computational chemistry database (PCCDB) project, http://pccdb.org

 27 29  0  0  0  0  0  0  0  0999 V2000
   -2.4827   -1.4157   -0.0179 C   0  0  0  0  0  0  0  0  0  0  0  0
   -3.6382   -0.6880   -0.0539 C   0  0  0  0  0  0  0  0  0  0  0  0
    3.5794    0.7531    0.0540 C   0  0  0  0  0  0  0  0  0  0  0  0
    2.3756    1.3989    0.0183 C   0  0  0  0  0  0  0  0  0  0  0  0
    0.0028   -1.4677    0.0266 C   0  0  0  0  0  0  0  0  0  0  0  0
    2.4895   -1.4128    0.0645 C   0  0  0  0  0  0  0  0  0  0  0  0
   -2.3904    1.3971   -0.0652 C   0  0  0  0  0  0  0  0  0  0  0  0
   -1.2064   -0.7734   -0.0087 C   0  0  0  0  0  0  0  0  0  0  0  0
    1.2186   -0.7717    0.0363 C   0  0  0  0  0  0  0  0  0  0  0  0
    3.6572   -0.6792    0.0762 C   0  0  0  0  0  0  0  0  0  0  0  0
   -3.6070    0.7472   -0.0772 C   0  0  0  0  0  0  0  0  0  0  0  0
    1.1443    0.6702    0.0087 C   0  0  0  0  0  0  0  0  0  0  0  0
   -1.1655    0.6721   -0.0359 C   0  0  0  0  0  0  0  0  0  0  0  0
    4.9176   -1.2785    0.1691 N   0  0  0  0  0  0  0  0  0  0  0  0
   -4.8178    1.4356   -0.1710 N   0  0  0  0  0  0  0  0  0  0  0  0
   -0.0081    1.3585   -0.0262 N   0  0  0  0  0  0  0  0  0  0  0  0
   -2.5217   -2.5025    0.0021 H   0  0  0  0  0  0  0  0  0  0  0  0
   -4.6027   -1.1907   -0.0742 H   0  0  0  0  0  0  0  0  0  0  0  0
    4.5053    1.3243    0.0730 H   0  0  0  0  0  0  0  0  0  0  0  0
    2.3147    2.4826   -0.0019 H   0  0  0  0  0  0  0  0  0  0  0  0
    0.0009   -2.5565    0.0472 H   0  0  0  0  0  0  0  0  0  0  0  0
    2.5270   -2.5007    0.0812 H   0  0  0  0  0  0  0  0  0  0  0  0
   -2.3288    2.4817   -0.0803 H   0  0  0  0  0  0  0  0  0  0  0  0
    5.6705   -0.7494   -0.2542 H   0  0  0  0  0  0  0  0  0  0  0  0
    4.9467   -2.2494   -0.1181 H   0  0  0  0  0  0  0  0  0  0  0  0
   -5.6102    0.9735    0.2579 H   0  0  0  0  0  0  0  0  0  0  0  0
   -4.7723    2.4137    0.0875 H   0  0  0  0  0  0  0  0  0  0  0  0
  1  8  1  0  0  0  0
  1 17  1  0  0  0  0
  2  1  2  0  0  0  0
  3 19  1  0  0  0  0
  3 10  2  0  0  0  0
  4  3  1  0  0  0  0
  5  9  1  0  0  0  0
  5 21  1  0  0  0  0
  6 10  1  0  0  0  0
  6 22  1  0  0  0  0
  7 13  1  0  0  0  0
  8  5  2  0  0  0  0
  9  6  2  0  0  0  0
 10 14  1  0  0  0  0
 11  7  2  0  0  0  0
 11  2  1  0  0  0  0
 12  4  2  0  0  0  0
 12  9  1  0  0  0  0
 13 16  2  0  0  0  0
 13  8  1  0  0  0  0
 15 11  1  0  0  0  0
 15 27  1  0  0  0  0
 15 26  1  0  0  0  0
 16 12  1  0  0  0  0
 18  2  1  0  0  0  0
 20  4  1  0  0  0  0
 23  7  1  0  0  0  0
 24 14  1  0  0  0  0
 25 14  1  0  0  0  0
M  END
>  <HBA>
3

>  <HBD>
2

>  <TPSA>
64.93

>  <cid>
18865

>  <dipole>
1.67

>  <excitation_energy_1>
2.856

>  <excitation_energy_2>
3.775

>  <excitation_energy_3>
3.878

>  <excitation_energy_4>
3.905

>  <homo_energy>
-4.792

>  <homo_lumo_gap>
3.265

>  <logP>
3.715

>  <lumo_energy>
-1.527

>  <melting_point>
208.81

>  <molecular_refractivity>
68.06

>  <oscillator_strength_1>
0.0887

>  <oscillator_strength_2>
0.03

>  <oscillator_strength_3>
0.0005

>  <oscillator_strength_4>
0.0002

>  <open_babel_can_smiles>
Nc1ccc2c(c1)nc1c(c2)cc(cc1)N

>  <mulliken_charges>
27
1   -0.196263
2   -0.169584
3   -0.165887
4   -0.155038
5   -0.243366
6   -0.259197
7   -0.22468
8   0.155225
9   0.159437
10   0.307963
11   0.319498
12   0.251808
13   0.257946
14   -0.789015
15   -0.791174
16   -0.622539
17   0.130051
18   0.12328
19   0.123933
20   0.140592
21   0.12675
22   0.111906
23   0.123761
24   0.319849
25   0.320289
26   0.319968
27   0.324486

>  <lowdin_charges>
27
1   -0.145884
2   -0.181281
3   -0.176243
4   -0.14373
5   -0.139004
6   -0.216539
7   -0.214576
8   -0.027369
9   -0.015236
10   0.054182
11   0.058625
12   0.036605
13   0.048421
14   -0.486435
15   -0.482036
16   -0.170188
17   0.156021
18   0.155671
19   0.156541
20   0.166607
21   0.153715
22   0.148551
23   0.159976
24   0.276602
25   0.27402
26   0.276657
27   0.276326

$$$$

