PCCDB-ID:  61024
public computational chemistry database (PCCDB) project, http://pccdb.org

 38 37  0  0  0  0  0  0  0  0999 V2000
    0.8763   -0.1000   -0.3078 C   0  0  0  0  0  0  0  0  0  0  0  0
    8.7462   -4.9668    7.5986 C   0  0  0  0  0  0  0  0  0  0  0  0
   11.0591   -4.0336    7.1041 C   0  0  0  0  0  0  0  0  0  0  0  0
    2.3875    0.0410   -0.0985 C   0  0  0  0  0  0  0  0  0  0  0  0
    2.8765   -0.5754    1.2184 C   0  0  0  0  0  0  0  0  0  0  0  0
    4.3889   -0.4393    1.4360 C   0  0  0  0  0  0  0  0  0  0  0  0
    4.8770   -1.0660    2.7482 C   0  0  0  0  0  0  0  0  0  0  0  0
    6.3897   -0.9288    2.9663 C   0  0  0  0  0  0  0  0  0  0  0  0
    6.8699   -1.5761    4.2722 C   0  0  0  0  0  0  0  0  0  0  0  0
    8.3741   -1.4231    4.4722 C   0  0  0  0  0  0  0  0  0  0  0  0
    9.5487   -3.7340    7.1548 C   0  0  0  0  0  0  0  0  0  0  0  0
    9.0879   -3.2892    5.7735 C   0  0  0  0  0  0  0  0  0  0  0  0
    9.0107   -4.0209    4.8078 O   0  0  0  0  0  0  0  0  0  0  0  0
    8.7979   -1.9678    5.7451 O   0  0  0  0  0  0  0  0  0  0  0  0
    0.5595    0.3483   -1.2564 H   0  0  0  0  0  0  0  0  0  0  0  0
    0.3171    0.3931    0.4969 H   0  0  0  0  0  0  0  0  0  0  0  0
    0.5748   -1.1547   -0.3206 H   0  0  0  0  0  0  0  0  0  0  0  0
    9.0976   -5.3184    8.5749 H   0  0  0  0  0  0  0  0  0  0  0  0
    8.8635   -5.7773    6.8726 H   0  0  0  0  0  0  0  0  0  0  0  0
    7.6775   -4.7402    7.6843 H   0  0  0  0  0  0  0  0  0  0  0  0
   11.4115   -4.3678    8.0862 H   0  0  0  0  0  0  0  0  0  0  0  0
   11.6343   -3.1450    6.8214 H   0  0  0  0  0  0  0  0  0  0  0  0
   11.2672   -4.8233    6.3745 H   0  0  0  0  0  0  0  0  0  0  0  0
    2.6632    1.1050   -0.1243 H   0  0  0  0  0  0  0  0  0  0  0  0
    2.9192   -0.4301   -0.9376 H   0  0  0  0  0  0  0  0  0  0  0  0
    2.5998   -1.6401    1.2448 H   0  0  0  0  0  0  0  0  0  0  0  0
    2.3443   -0.1042    2.0583 H   0  0  0  0  0  0  0  0  0  0  0  0
    4.6639    0.6259    1.4169 H   0  0  0  0  0  0  0  0  0  0  0  0
    4.9203   -0.9043    0.5923 H   0  0  0  0  0  0  0  0  0  0  0  0
    4.6047   -2.1313    2.7665 H   0  0  0  0  0  0  0  0  0  0  0  0
    4.3459   -0.6025    3.5928 H   0  0  0  0  0  0  0  0  0  0  0  0
    6.6610    0.1375    2.9616 H   0  0  0  0  0  0  0  0  0  0  0  0
    6.9206   -1.3829    2.1170 H   0  0  0  0  0  0  0  0  0  0  0  0
    6.6239   -2.6447    4.2702 H   0  0  0  0  0  0  0  0  0  0  0  0
    6.3506   -1.1250    5.1282 H   0  0  0  0  0  0  0  0  0  0  0  0
    8.6637   -0.3692    4.5152 H   0  0  0  0  0  0  0  0  0  0  0  0
    8.9297   -1.9194    3.6720 H   0  0  0  0  0  0  0  0  0  0  0  0
    9.3717   -2.9068    7.8501 H   0  0  0  0  0  0  0  0  0  0  0  0
  1  4  1  0  0  0  0
  1 16  1  0  0  0  0
  2 20  1  0  0  0  0
  2 18  1  0  0  0  0
  3 11  1  0  0  0  0
  3 21  1  0  0  0  0
  4  5  1  0  0  0  0
  5 26  1  0  0  0  0
  5  6  1  0  0  0  0
  5 27  1  0  0  0  0
  6  7  1  0  0  0  0
  7 30  1  0  0  0  0
  7  8  1  0  0  0  0
  7 31  1  0  0  0  0
  8  9  1  0  0  0  0
  9 10  1  0  0  0  0
  9 35  1  0  0  0  0
 10 36  1  0  0  0  0
 10 14  1  0  0  0  0
 11  2  1  0  0  0  0
 11 38  1  0  0  0  0
 12 11  1  0  0  0  0
 13 12  2  0  0  0  0
 14 12  1  0  0  0  0
 15  1  1  0  0  0  0
 17  1  1  0  0  0  0
 19  2  1  0  0  0  0
 22  3  1  0  0  0  0
 23  3  1  0  0  0  0
 24  4  1  0  0  0  0
 25  4  1  0  0  0  0
 28  6  1  0  0  0  0
 29  6  1  0  0  0  0
 32  8  1  0  0  0  0
 33  8  1  0  0  0  0
 34  9  1  0  0  0  0
 37 10  1  0  0  0  0
M  END
>  <HBA>
2

>  <HBD>
0

>  <TPSA>
26.3

>  <cid>
61024

>  <dipole>
1.53

>  <excitation_energy_1>
5.775

>  <excitation_energy_2>
6.911

>  <excitation_energy_3>
7.325

>  <excitation_energy_4>
7.431

>  <homo_energy>
-7.168

>  <homo_lumo_gap>
7.641

>  <logP>
3.546

>  <lumo_energy>
0.473

>  <melting_point>
-18.11

>  <molecular_refractivity>
61.08

>  <oscillator_strength_1>
0.0013

>  <oscillator_strength_2>
0.0052

>  <oscillator_strength_3>
0.0063

>  <oscillator_strength_4>
0.0266

>  <open_babel_can_smiles>
CCCCCCCCOC(=O)C(C)C

>  <mulliken_charges>
38
1   -0.44133
2   -0.448102
3   -0.451286
4   -0.246825
5   -0.246042
6   -0.253563
7   -0.252541
8   -0.264438
9   -0.278256
10   -0.046258
11   -0.153821
12   0.624009
13   -0.490383
14   -0.465898
15   0.141579
16   0.140961
17   0.141548
18   0.144385
19   0.169553
20   0.149093
21   0.148983
22   0.152337
23   0.166735
24   0.129599
25   0.130456
26   0.127576
27   0.126298
28   0.126623
29   0.128677
30   0.132545
31   0.12864
32   0.128552
33   0.137003
34   0.159536
35   0.140523
36   0.14718
37   0.166599
38   0.149755

>  <lowdin_charges>
38
1   -0.444383
2   -0.438075
3   -0.438798
4   -0.27133
5   -0.273805
6   -0.273751
7   -0.271821
8   -0.27327
9   -0.285353
10   -0.133644
11   -0.14426
12   0.202037
13   -0.277453
14   -0.194497
15   0.149245
16   0.147121
17   0.145068
18   0.150944
19   0.162525
20   0.150977
21   0.152845
22   0.154295
23   0.160617
24   0.136901
25   0.139791
26   0.136217
27   0.138051
28   0.135766
29   0.139247
30   0.138799
31   0.139278
32   0.136398
33   0.143018
34   0.153571
35   0.146219
36   0.148306
37   0.158259
38   0.154943

$$$$

