PCCDB-ID:  3704
public computational chemistry database (PCCDB) project, http://pccdb.org

 34 36  0  0  1  0  0  0  0  0999 V2000
   -2.4662   -0.9499    1.8988 C   0  0  0  0  0  0  0  0  0  0  0  0
    0.9807    0.1397   -1.0328 C   0  0  0  0  0  0  0  0  0  0  0  0
   -2.0991    0.1575    1.2250 C   0  0  0  0  0  0  0  0  0  0  0  0
   -0.1375    0.6971   -0.4135 C   0  0  0  0  0  0  0  0  0  0  0  0
   -1.5138   -2.0890    1.6151 C   0  0  0  0  0  0  0  0  0  0  0  0
    1.3511   -1.1942   -0.8185 C   0  0  0  0  0  0  0  0  0  0  0  0
    3.5845   -7.4739    1.3457 C   0  0  0  0  0  0  0  0  0  0  0  0
    3.3463   -7.3202   -0.1541 C   0  0  0  0  0  0  0  0  0  0  0  0
    2.2769   -5.4825    1.7133 C   0  0  0  0  0  0  0  0  0  0  0  0
    1.9989   -3.9221   -0.2875 C   0  0  0  0  0  0  0  0  0  0  0  0
   -0.8908   -0.1177    0.4377 C   0  0  0  0  0  0  0  0  0  0  0  0
    2.0654   -5.3634    0.2021 C   0  0  1  0  0  0  0  0  0  0  0  0
   -0.5299   -1.4579    0.6627 C   0  0  0  0  0  0  0  0  0  0  0  0
    0.5901   -2.0046    0.0387 C   0  0  0  0  0  0  0  0  0  0  0  0
    2.4376   -6.8983    2.0492 N   0  0  0  0  0  0  0  0  0  0  0  0
    3.1572   -5.9516   -0.5039 O   0  0  0  0  0  0  0  0  0  0  0  0
    0.8623   -3.3176    0.3179 O   0  0  0  0  0  0  0  0  0  0  0  0
   -3.3212   -1.0414    2.5598 H   0  0  0  0  0  0  0  0  0  0  0  0
    1.5858    0.7475   -1.7007 H   0  0  0  0  0  0  0  0  0  0  0  0
   -2.6053    1.1173    1.2458 H   0  0  0  0  0  0  0  0  0  0  0  0
   -0.4125    1.7331   -0.5907 H   0  0  0  0  0  0  0  0  0  0  0  0
   -2.0241   -2.9572    1.1725 H   0  0  0  0  0  0  0  0  0  0  0  0
   -1.0290   -2.4621    2.5294 H   0  0  0  0  0  0  0  0  0  0  0  0
    2.2277   -1.5889   -1.3193 H   0  0  0  0  0  0  0  0  0  0  0  0
    4.5421   -6.9824    1.6035 H   0  0  0  0  0  0  0  0  0  0  0  0
    3.6685   -8.5372    1.6001 H   0  0  0  0  0  0  0  0  0  0  0  0
    2.4620   -7.9081   -0.4465 H   0  0  0  0  0  0  0  0  0  0  0  0
    4.2097   -7.6654   -0.7305 H   0  0  0  0  0  0  0  0  0  0  0  0
    1.4055   -5.0793    2.2380 H   0  0  0  0  0  0  0  0  0  0  0  0
    3.1586   -4.8703    1.9875 H   0  0  0  0  0  0  0  0  0  0  0  0
    1.9126   -3.9137   -1.3818 H   0  0  0  0  0  0  0  0  0  0  0  0
    2.9184   -3.3886   -0.0096 H   0  0  0  0  0  0  0  0  0  0  0  0
    1.1295   -5.8822   -0.0611 H   0  0  0  0  0  0  0  0  0  0  0  0
    2.5480   -7.0074    3.0544 H   0  0  0  0  0  0  0  0  0  0  0  0
  1 18  1  0  0  0  0
  2  6  2  0  0  0  0
  2  4  1  0  0  0  0
  3 20  1  0  0  0  0
  3  1  2  0  0  0  0
  4 11  2  0  0  0  0
  5  1  1  0  0  0  0
  5 23  1  0  0  0  0
  6 14  1  0  0  0  0
  7 26  1  0  0  0  0
  7 25  1  0  0  0  0
  7 15  1  0  0  0  0
  8  7  1  0  0  0  0
  9 30  1  0  0  0  0
  9 15  1  0  0  0  0
  9 29  1  0  0  0  0
 10 32  1  0  0  0  0
 10 12  1  0  0  0  0
 10 17  1  0  0  0  0
 11 13  1  0  0  0  0
 11  3  1  0  0  0  0
 12 33  1  6  0  0  0
 12  9  1  0  0  0  0
 13  5  1  0  0  0  0
 14 17  1  0  0  0  0
 14 13  2  0  0  0  0
 15 34  1  0  0  0  0
 16  8  1  0  0  0  0
 16 12  1  0  0  0  0
 19  2  1  0  0  0  0
 21  4  1  0  0  0  0
 22  5  1  0  0  0  0
 24  6  1  0  0  0  0
 27  8  1  0  0  0  0
 28  8  1  0  0  0  0
 31 10  1  0  0  0  0
M  END
>  <HBA>
3

>  <HBD>
1

>  <TPSA>
30.49

>  <cid>
3704

>  <dipole>
1.83

>  <excitation_energy_1>
4.529

>  <excitation_energy_2>
4.864

>  <excitation_energy_3>
5.258

>  <excitation_energy_4>
5.43

>  <homo_energy>
-5.674

>  <homo_lumo_gap>
5.246

>  <logP>
1.952

>  <lumo_energy>
-0.427

>  <melting_point>
98.52

>  <molecular_refractivity>
70.79

>  <oscillator_strength_1>
0.0338

>  <oscillator_strength_2>
0.1422

>  <oscillator_strength_3>
0.0002

>  <oscillator_strength_4>
0.0021

>  <open_babel_can_smiles>
C1CO[C@@H](CN1)COc1cccc2c1CC=C2

>  <mulliken_charges>
34
1   -0.139467
2   -0.138724
3   -0.147269
4   -0.203847
5   -0.370747
6   -0.205712
7   -0.144081
8   -0.019456
9   -0.139242
10   -0.04815
11   0.125372
12   0.132298
13   0.033455
14   0.332108
15   -0.561198
16   -0.500258
17   -0.539488
18   0.130561
19   0.125842
20   0.128944
21   0.122024
22   0.173156
23   0.169742
24   0.135373
25   0.121581
26   0.139476
27   0.133146
28   0.144273
29   0.157062
30   0.114576
31   0.155216
32   0.146797
33   0.135152
34   0.301484

>  <lowdin_charges>
34
1   -0.163355
2   -0.149712
3   -0.166846
4   -0.187293
5   -0.268742
6   -0.219445
7   -0.21794
8   -0.134726
9   -0.221725
10   -0.129745
11   -0.001577
12   -0.008067
13   -0.036867
14   0.097595
15   -0.364874
16   -0.276926
17   -0.205429
18   0.158418
19   0.157827
20   0.158013
21   0.154675
22   0.172084
23   0.169881
24   0.163432
25   0.122322
26   0.148326
27   0.135357
28   0.151561
29   0.158787
30   0.121694
31   0.146904
32   0.143383
33   0.137495
34   0.255513

$$$$

