PCCDB-ID:  20831
public computational chemistry database (PCCDB) project, http://pccdb.org

 45 44  0  0  1  0  0  0  0  0999 V2000
   11.4441    4.1612   -6.4327 C   0  0  0  0  0  0  0  0  0  0  0  0
    7.9471   11.6093    0.6829 C   0  0  0  0  0  0  0  0  0  0  0  0
   11.6750    5.2716   -5.4004 C   0  0  0  0  0  0  0  0  0  0  0  0
   10.4606    5.5725   -4.5060 C   0  0  0  0  0  0  0  0  0  0  0  0
   10.0674    4.4371   -3.5504 C   0  0  0  0  0  0  0  0  0  0  0  0
    8.8866    4.7963   -2.6383 C   0  0  0  0  0  0  0  0  0  0  0  0
    8.4859    3.6564   -1.6888 C   0  0  0  0  0  0  0  0  0  0  0  0
    7.2792    3.9476   -0.7696 C   0  0  0  0  0  0  0  0  0  0  0  0
    7.5925    4.5971    0.5909 C   0  0  0  0  0  0  0  0  0  0  0  0
    8.1633    6.0221    0.5563 C   0  0  0  0  0  0  0  0  0  0  0  0
    8.2779    6.6468    1.9553 C   0  0  0  0  0  0  0  0  0  0  0  0
    8.9277    8.0392    1.9912 C   0  0  0  0  0  0  0  0  0  0  0  0
    8.1229    9.1380    1.2848 C   0  0  0  0  0  0  0  0  0  0  0  0
    8.7237   10.5416    1.4563 C   0  0  2  0  0  0  0  0  0  0  0  0
    8.8438   10.9002    2.8377 O   0  0  0  0  0  0  0  0  0  0  0  0
   12.3253    4.0272   -7.0706 H   0  0  0  0  0  0  0  0  0  0  0  0
   10.5948    4.4013   -7.0849 H   0  0  0  0  0  0  0  0  0  0  0  0
   11.2340    3.1965   -5.9574 H   0  0  0  0  0  0  0  0  0  0  0  0
    7.9397   11.3982   -0.3928 H   0  0  0  0  0  0  0  0  0  0  0  0
    8.3955   12.5953    0.8413 H   0  0  0  0  0  0  0  0  0  0  0  0
    6.9021   11.6507    1.0202 H   0  0  0  0  0  0  0  0  0  0  0  0
   11.9581    6.1922   -5.9285 H   0  0  0  0  0  0  0  0  0  0  0  0
   12.5343    5.0093   -4.7665 H   0  0  0  0  0  0  0  0  0  0  0  0
    9.5992    5.8265   -5.1423 H   0  0  0  0  0  0  0  0  0  0  0  0
   10.6741    6.4733   -3.9127 H   0  0  0  0  0  0  0  0  0  0  0  0
   10.9370    4.1703   -2.9307 H   0  0  0  0  0  0  0  0  0  0  0  0
    9.8145    3.5343   -4.1237 H   0  0  0  0  0  0  0  0  0  0  0  0
    8.0185    5.0629   -3.2599 H   0  0  0  0  0  0  0  0  0  0  0  0
    9.1359    5.6994   -2.0669 H   0  0  0  0  0  0  0  0  0  0  0  0
    9.3512    3.3684   -1.0728 H   0  0  0  0  0  0  0  0  0  0  0  0
    8.2539    2.7753   -2.3035 H   0  0  0  0  0  0  0  0  0  0  0  0
    6.7645    2.9995   -0.5639 H   0  0  0  0  0  0  0  0  0  0  0  0
    6.5511    4.5687   -1.3126 H   0  0  0  0  0  0  0  0  0  0  0  0
    8.2859    3.9464    1.1447 H   0  0  0  0  0  0  0  0  0  0  0  0
    6.6630    4.6119    1.1793 H   0  0  0  0  0  0  0  0  0  0  0  0
    7.5260    6.6490   -0.0832 H   0  0  0  0  0  0  0  0  0  0  0  0
    9.1579    6.0182    0.0898 H   0  0  0  0  0  0  0  0  0  0  0  0
    8.8626    5.9707    2.5955 H   0  0  0  0  0  0  0  0  0  0  0  0
    7.2768    6.7009    2.4096 H   0  0  0  0  0  0  0  0  0  0  0  0
    9.9309    7.9834    1.5423 H   0  0  0  0  0  0  0  0  0  0  0  0
    9.0788    8.3436    3.0335 H   0  0  0  0  0  0  0  0  0  0  0  0
    7.0913    9.1491    1.6750 H   0  0  0  0  0  0  0  0  0  0  0  0
    8.0378    8.9250    0.2108 H   0  0  0  0  0  0  0  0  0  0  0  0
    9.7611   10.5255    1.0984 H   0  0  0  0  0  0  0  0  0  0  0  0
    7.9430   10.9522    3.1978 H   0  0  0  0  0  0  0  0  0  0  0  0
  1 18  1  0  0  0  0
  1  3  1  0  0  0  0
  2 20  1  0  0  0  0
  2 21  1  0  0  0  0
  2 14  1  0  0  0  0
  3 23  1  0  0  0  0
  3  4  1  0  0  0  0
  4 25  1  0  0  0  0
  4  5  1  0  0  0  0
  5 26  1  0  0  0  0
  5  6  1  0  0  0  0
  6 29  1  0  0  0  0
  6  7  1  0  0  0  0
  7 30  1  0  0  0  0
  7  8  1  0  0  0  0
  8 32  1  0  0  0  0
  8  9  1  0  0  0  0
  9 34  1  0  0  0  0
  9 35  1  0  0  0  0
 10  9  1  0  0  0  0
 10 11  1  0  0  0  0
 11 12  1  0  0  0  0
 11 39  1  0  0  0  0
 11 38  1  0  0  0  0
 12 41  1  0  0  0  0
 13 14  1  0  0  0  0
 13 42  1  0  0  0  0
 13 12  1  0  0  0  0
 14 44  1  6  0  0  0
 14 15  1  0  0  0  0
 15 45  1  0  0  0  0
 16  1  1  0  0  0  0
 17  1  1  0  0  0  0
 19  2  1  0  0  0  0
 22  3  1  0  0  0  0
 24  4  1  0  0  0  0
 27  5  1  0  0  0  0
 28  6  1  0  0  0  0
 31  7  1  0  0  0  0
 33  8  1  0  0  0  0
 36 10  1  0  0  0  0
 37 10  1  0  0  0  0
 40 12  1  0  0  0  0
 43 13  1  0  0  0  0
M  END
>  <HBA>
1

>  <HBD>
1

>  <TPSA>
20.23

>  <cid>
20831

>  <dipole>
1.51

>  <excitation_energy_1>
6.596

>  <excitation_energy_2>
7.022

>  <excitation_energy_3>
7.23

>  <excitation_energy_4>
7.26

>  <homo_energy>
-7.089

>  <homo_lumo_gap>
9.067

>  <logP>
4.678

>  <lumo_energy>
1.978

>  <melting_point>
-13.26

>  <molecular_refractivity>
70.57

>  <oscillator_strength_1>
0.0239

>  <oscillator_strength_2>
0.0028

>  <oscillator_strength_3>
0.0003

>  <oscillator_strength_4>
0.0004

>  <open_babel_can_smiles>
CCCCCCCCCCCC[C@H](O)C

>  <mulliken_charges>
45
1   -0.443017
2   -0.457258
3   -0.247713
4   -0.249191
5   -0.253079
6   -0.258523
7   -0.253509
8   -0.260176
9   -0.253932
10   -0.253826
11   -0.257981
12   -0.254672
13   -0.268744
14   0.137873
15   -0.618021
16   0.141308
17   0.139826
18   0.146128
19   0.142939
20   0.157834
21   0.130458
22   0.129464
23   0.128934
24   0.124852
25   0.125555
26   0.125329
27   0.13069
28   0.12567
29   0.135025
30   0.12671
31   0.127269
32   0.127841
33   0.126084
34   0.126896
35   0.125596
36   0.129296
37   0.134105
38   0.128553
39   0.12319
40   0.125123
41   0.146686
42   0.112751
43   0.133254
44   0.134667
45   0.379737

>  <lowdin_charges>
45
1   -0.448034
2   -0.456468
3   -0.273901
4   -0.276516
5   -0.27773
6   -0.278989
7   -0.278639
8   -0.278941
9   -0.275682
10   -0.282013
11   -0.276183
12   -0.275981
13   -0.290588
14   0.003401
15   -0.465017
16   0.149705
17   0.145983
18   0.146832
19   0.151163
20   0.15743
21   0.141472
22   0.141427
23   0.138878
24   0.13713
25   0.139222
26   0.137247
27   0.138744
28   0.137001
29   0.140443
30   0.138437
31   0.140663
32   0.142973
33   0.138998
34   0.138325
35   0.139078
36   0.138701
37   0.138543
38   0.142394
39   0.13482
40   0.137053
41   0.149296
42   0.130847
43   0.142889
44   0.140458
45   0.335131

$$$$

