PCCDB-ID:  33492
public computational chemistry database (PCCDB) project, http://pccdb.org

 20 20  0  0  1  0  0  0  0  0999 V2000
    0.8589    0.3706    0.5141 C   0  0  0  0  0  0  0  0  0  0  0  0
    2.9999    1.3963    0.2133 C   0  0  0  0  0  0  0  0  0  0  0  0
    4.3090   -1.2245    0.3102 C   0  0  0  0  0  0  0  0  0  0  0  0
    2.0858   -2.2620    0.6097 C   0  0  0  0  0  0  0  0  0  0  0  0
    2.8789   -0.9620    0.8142 C   0  0  2  0  0  0  0  0  0  0  0  0
    2.2425    0.1503    0.0925 N   0  0  0  0  0  0  0  0  0  0  0  0
    2.9108   -4.7039   -0.1655 O   0  0  0  0  0  0  0  0  0  0  0  0
    4.9321   -2.7315    1.1433 S   0  0  0  0  0  0  0  0  0  0  0  0
    3.0213   -3.8226    1.0440 S   0  0  1  0  0  0  0  0  0  0  0  0
    0.4504    1.2200   -0.0416 H   0  0  0  0  0  0  0  0  0  0  0  0
    0.7619    0.5919    1.5951 H   0  0  0  0  0  0  0  0  0  0  0  0
    0.2384   -0.4987    0.2831 H   0  0  0  0  0  0  0  0  0  0  0  0
    2.4610    2.1889   -0.3144 H   0  0  0  0  0  0  0  0  0  0  0  0
    3.9821    1.3033   -0.2562 H   0  0  0  0  0  0  0  0  0  0  0  0
    3.1424    1.7207    1.2624 H   0  0  0  0  0  0  0  0  0  0  0  0
    4.9990   -0.4211    0.5776 H   0  0  0  0  0  0  0  0  0  0  0  0
    4.3129   -1.3512   -0.7767 H   0  0  0  0  0  0  0  0  0  0  0  0
    1.8468   -2.4054   -0.4495 H   0  0  0  0  0  0  0  0  0  0  0  0
    1.1664   -2.3032    1.1996 H   0  0  0  0  0  0  0  0  0  0  0  0
    2.9392   -0.7499    1.9000 H   0  0  0  0  0  0  0  0  0  0  0  0
  1 11  1  0  0  0  0
  2 15  1  0  0  0  0
  3 16  1  0  0  0  0
  3  5  1  0  0  0  0
  3  8  1  0  0  0  0
  4  5  1  0  0  0  0
  4  9  1  0  0  0  0
  4 19  1  0  0  0  0
  5 20  1  1  0  0  0
  6  2  1  0  0  0  0
  6  1  1  0  0  0  0
  6  5  1  0  0  0  0
  9  7  2  6  0  0  0
  9  8  1  0  0  0  0
 10  1  1  0  0  0  0
 12  1  1  0  0  0  0
 13  2  1  0  0  0  0
 14  2  1  0  0  0  0
 17  3  1  0  0  0  0
 18  4  1  0  0  0  0
M  END
>  <HBA>
3

>  <HBD>
0

>  <TPSA>
64.82

>  <cid>
33492

>  <dipole>
5.01

>  <excitation_energy_1>
4.041

>  <excitation_energy_2>
4.248

>  <excitation_energy_3>
4.523

>  <excitation_energy_4>
5.363

>  <homo_energy>
-6.354

>  <homo_lumo_gap>
5.105

>  <logP>
1.193

>  <lumo_energy>
-1.249

>  <melting_point>
27.59

>  <molecular_refractivity>
42.8

>  <oscillator_strength_1>
0.0062

>  <oscillator_strength_2>
0.0069

>  <oscillator_strength_3>
0.0071

>  <oscillator_strength_4>
0.006

>  <open_babel_can_smiles>
O=[S@]1SC[C@H](C1)N(C)C

>  <mulliken_charges>
20
1   -0.306973
2   -0.307188
3   -0.446232
4   -0.514271
5   0.067002
6   -0.378868
7   -0.559903
8   -0.033287
9   0.652876
10   0.15875
11   0.125159
12   0.159717
13   0.158179
14   0.159539
15   0.126486
16   0.193508
17   0.19952
18   0.220149
19   0.1941
20   0.131737

>  <lowdin_charges>
20
1   -0.358023
2   -0.358812
3   -0.380996
4   -0.431203
5   -0.067032
6   -0.18507
7   -0.613931
8   -0.038002
9   0.722668
10   0.157546
11   0.122964
12   0.154779
13   0.157962
14   0.153621
15   0.124688
16   0.177456
17   0.169197
18   0.187908
19   0.177625
20   0.126653

$$$$

