PCCDB-ID:  7120
public computational chemistry database (PCCDB) project, http://pccdb.org

 28 28  0  0  0  0  0  0  0  0999 V2000
    2.7642   -0.7295    0.6403 C   0  0  0  0  0  0  0  0  0  0  0  0
    1.9850    3.2557   -1.4418 C   0  0  0  0  0  0  0  0  0  0  0  0
    2.8290    0.0818   -0.6627 C   0  0  0  0  0  0  0  0  0  0  0  0
    2.5004    2.4983   -0.2089 C   0  0  0  0  0  0  0  0  0  0  0  0
    6.7287    3.1094   -0.6997 C   0  0  0  0  0  0  0  0  0  0  0  0
    7.0758    0.7471   -0.8026 C   0  0  0  0  0  0  0  0  0  0  0  0
    5.3537    2.9074   -0.6104 C   0  0  0  0  0  0  0  0  0  0  0  0
    5.7028    0.5365   -0.7044 C   0  0  0  0  0  0  0  0  0  0  0  0
    7.6224    2.0363   -0.7998 C   0  0  0  0  0  0  0  0  0  0  0  0
    4.7934    1.6118   -0.6063 C   0  0  0  0  0  0  0  0  0  0  0  0
    9.0195    2.2418   -0.8279 N   0  0  0  0  0  0  0  0  0  0  0  0
    3.4132    1.4068   -0.5171 N   0  0  0  0  0  0  0  0  0  0  0  0
    2.3096   -1.7119    0.4629 H   0  0  0  0  0  0  0  0  0  0  0  0
    2.1616   -0.2092    1.3937 H   0  0  0  0  0  0  0  0  0  0  0  0
    3.7629   -0.8830    1.0612 H   0  0  0  0  0  0  0  0  0  0  0  0
    1.2968    4.0567   -1.1447 H   0  0  0  0  0  0  0  0  0  0  0  0
    1.4473    2.5803   -2.1172 H   0  0  0  0  0  0  0  0  0  0  0  0
    2.8102    3.7023   -2.0056 H   0  0  0  0  0  0  0  0  0  0  0  0
    1.8149    0.2062   -1.0625 H   0  0  0  0  0  0  0  0  0  0  0  0
    3.3818   -0.4749   -1.4283 H   0  0  0  0  0  0  0  0  0  0  0  0
    1.6479    2.0784    0.3396 H   0  0  0  0  0  0  0  0  0  0  0  0
    2.9863    3.1931    0.4861 H   0  0  0  0  0  0  0  0  0  0  0  0
    7.1117    4.1283   -0.6974 H   0  0  0  0  0  0  0  0  0  0  0  0
    7.7372   -0.1151   -0.8665 H   0  0  0  0  0  0  0  0  0  0  0  0
    4.7146    3.7816   -0.5626 H   0  0  0  0  0  0  0  0  0  0  0  0
    5.3460   -0.4869   -0.6953 H   0  0  0  0  0  0  0  0  0  0  0  0
    9.2812    3.1401   -1.2200 H   0  0  0  0  0  0  0  0  0  0  0  0
    9.5202    1.5037   -1.3111 H   0  0  0  0  0  0  0  0  0  0  0  0
  1 15  1  0  0  0  0
  1 14  1  0  0  0  0
  2 16  1  0  0  0  0
  2  4  1  0  0  0  0
  3 12  1  0  0  0  0
  3  1  1  0  0  0  0
  4 21  1  0  0  0  0
  4 22  1  0  0  0  0
  5 23  1  0  0  0  0
  5  7  2  0  0  0  0
  6  9  2  0  0  0  0
  6  8  1  0  0  0  0
  7 10  1  0  0  0  0
  7 25  1  0  0  0  0
  8 26  1  0  0  0  0
  8 10  2  0  0  0  0
  9  5  1  0  0  0  0
 10 12  1  0  0  0  0
 11  9  1  0  0  0  0
 12  4  1  0  0  0  0
 13  1  1  0  0  0  0
 17  2  1  0  0  0  0
 18  2  1  0  0  0  0
 19  3  1  0  0  0  0
 20  3  1  0  0  0  0
 24  6  1  0  0  0  0
 27 11  1  0  0  0  0
 28 11  1  0  0  0  0
M  END
>  <HBA>
2

>  <HBD>
1

>  <TPSA>
29.26

>  <cid>
7120

>  <dipole>
1.4

>  <excitation_energy_1>
3.847

>  <excitation_energy_2>
3.885

>  <excitation_energy_3>
4.051

>  <excitation_energy_4>
4.318

>  <homo_energy>
-4.275

>  <homo_lumo_gap>
4.645

>  <logP>
2.696

>  <lumo_energy>
0.37

>  <melting_point>
61.49

>  <molecular_refractivity>
54.67

>  <oscillator_strength_1>
0.003

>  <oscillator_strength_2>
0.0465

>  <oscillator_strength_3>
0.0155

>  <oscillator_strength_4>
0.0695

>  <open_babel_can_smiles>
CCN(c1ccc(cc1)N)CC

>  <mulliken_charges>
28
1   -0.442369
2   -0.440664
3   -0.147239
4   -0.146481
5   -0.181496
6   -0.1818
7   -0.199548
8   -0.199952
9   0.293186
10   0.361859
11   -0.787398
12   -0.480227
13   0.13856
14   0.146943
15   0.161015
16   0.13833
17   0.146607
18   0.158893
19   0.141218
20   0.149425
21   0.141173
22   0.150167
23   0.109879
24   0.110352
25   0.120183
26   0.119907
27   0.309647
28   0.309831

>  <lowdin_charges>
28
1   -0.45847
2   -0.46012
3   -0.19558
4   -0.197513
5   -0.187846
6   -0.189516
7   -0.203487
8   -0.201855
9   0.031086
10   0.045117
11   -0.505323
12   -0.126704
13   0.148811
14   0.151098
15   0.15567
16   0.149709
17   0.151165
18   0.155948
19   0.144085
20   0.149102
21   0.14588
22   0.149536
23   0.148767
24   0.150489
25   0.156671
26   0.155092
27   0.268358
28   0.269829

$$$$

