PCCDB-ID:  47396
public computational chemistry database (PCCDB) project, http://pccdb.org

 35 34  0  0  0  0  0  0  0  0999 V2000
    1.8554   -0.3182    2.7761 C   0  0  0  0  0  0  0  0  0  0  0  0
    5.0405    1.7913   -2.8544 C   0  0  0  0  0  0  0  0  0  0  0  0
    7.5017    1.1331    2.4350 C   0  0  0  0  0  0  0  0  0  0  0  0
    4.4996   -2.9986   -0.4462 C   0  0  0  0  0  0  0  0  0  0  0  0
    2.6241   -0.9931    1.9199 C   0  0  0  0  0  0  0  0  0  0  0  0
    4.7011    1.4225   -1.4053 C   0  0  0  0  0  0  0  0  0  0  0  0
    6.8865    0.3256    1.2854 C   0  0  0  0  0  0  0  0  0  0  0  0
    3.0784   -0.4762    0.5809 C   0  0  0  0  0  0  0  0  0  0  0  0
    4.9283   -0.0709   -1.1157 C   0  0  0  0  0  0  0  0  0  0  0  0
    5.3570    0.2277    1.4055 C   0  0  0  0  0  0  0  0  0  0  0  0
    4.6089   -0.5871    0.3183 C   0  0  0  0  0  0  0  0  0  0  0  0
    5.0107   -2.0044    0.4949 N   0  0  0  0  0  0  0  0  0  0  0  0
    1.5415   -0.7470    3.7245 H   0  0  0  0  0  0  0  0  0  0  0  0
    1.5045    0.6901    2.5616 H   0  0  0  0  0  0  0  0  0  0  0  0
    4.8700    2.8570   -3.0461 H   0  0  0  0  0  0  0  0  0  0  0  0
    4.4254    1.2227   -3.5627 H   0  0  0  0  0  0  0  0  0  0  0  0
    6.0914    1.5758   -3.0836 H   0  0  0  0  0  0  0  0  0  0  0  0
    8.5919    1.1959    2.3412 H   0  0  0  0  0  0  0  0  0  0  0  0
    7.2746    0.6754    3.4053 H   0  0  0  0  0  0  0  0  0  0  0  0
    7.1084    2.1570    2.4532 H   0  0  0  0  0  0  0  0  0  0  0  0
    4.9302   -3.9707   -0.1821 H   0  0  0  0  0  0  0  0  0  0  0  0
    4.7242   -2.8121   -1.5104 H   0  0  0  0  0  0  0  0  0  0  0  0
    3.4130   -3.0929   -0.3478 H   0  0  0  0  0  0  0  0  0  0  0  0
    2.9637   -1.9952    2.1772 H   0  0  0  0  0  0  0  0  0  0  0  0
    3.6557    1.6901   -1.2053 H   0  0  0  0  0  0  0  0  0  0  0  0
    5.3081    2.0370   -0.7281 H   0  0  0  0  0  0  0  0  0  0  0  0
    7.3386   -0.6761    1.2838 H   0  0  0  0  0  0  0  0  0  0  0  0
    7.1673    0.7892    0.3309 H   0  0  0  0  0  0  0  0  0  0  0  0
    2.7717    0.5702    0.4717 H   0  0  0  0  0  0  0  0  0  0  0  0
    2.5546   -1.0297   -0.2132 H   0  0  0  0  0  0  0  0  0  0  0  0
    5.9762   -0.3159   -1.3420 H   0  0  0  0  0  0  0  0  0  0  0  0
    4.3289   -0.6488   -1.8323 H   0  0  0  0  0  0  0  0  0  0  0  0
    4.9446    1.2453    1.4219 H   0  0  0  0  0  0  0  0  0  0  0  0
    5.1068   -0.2148    2.3768 H   0  0  0  0  0  0  0  0  0  0  0  0
    6.0261   -2.0544    0.4950 H   0  0  0  0  0  0  0  0  0  0  0  0
  1 13  1  0  0  0  0
  2  6  1  0  0  0  0
  3 20  1  0  0  0  0
  3 19  1  0  0  0  0
  4 23  1  0  0  0  0
  4 21  1  0  0  0  0
  4 12  1  0  0  0  0
  5 24  1  0  0  0  0
  5  1  2  0  0  0  0
  6 25  1  0  0  0  0
  6  9  1  0  0  0  0
  6 26  1  0  0  0  0
  7 10  1  0  0  0  0
  7  3  1  0  0  0  0
  8  5  1  0  0  0  0
  9 11  1  0  0  0  0
 10 33  1  0  0  0  0
 10 34  1  0  0  0  0
 11 12  1  0  0  0  0
 11  8  1  0  0  0  0
 11 10  1  0  0  0  0
 12 35  1  0  0  0  0
 14  1  1  0  0  0  0
 15  2  1  0  0  0  0
 16  2  1  0  0  0  0
 17  2  1  0  0  0  0
 18  3  1  0  0  0  0
 22  4  1  0  0  0  0
 27  7  1  0  0  0  0
 28  7  1  0  0  0  0
 29  8  1  0  0  0  0
 30  8  1  0  0  0  0
 31  9  1  0  0  0  0
 32  9  1  0  0  0  0
M  END
>  <HBA>
1

>  <HBD>
1

>  <TPSA>
12.03

>  <cid>
47396

>  <dipole>
1.25

>  <excitation_energy_1>
5.247

>  <excitation_energy_2>
5.385

>  <excitation_energy_3>
5.627

>  <excitation_energy_4>
5.646

>  <homo_energy>
-5.723

>  <homo_lumo_gap>
6.569

>  <logP>
3.512

>  <lumo_energy>
0.846

>  <melting_point>
-12.28

>  <molecular_refractivity>
57.36

>  <oscillator_strength_1>
0.0012

>  <oscillator_strength_2>
0.0016

>  <oscillator_strength_3>
0.0041

>  <oscillator_strength_4>
0.0064

>  <open_babel_can_smiles>
CCCC(CC=C)(CCC)NC

>  <mulliken_charges>
35
1   -0.350131
2   -0.442551
3   -0.441857
4   -0.307971
5   -0.031596
6   -0.261925
7   -0.269769
8   -0.332493
9   -0.267585
10   -0.261854
11   0.206313
12   -0.569206
13   0.134343
14   0.128241
15   0.141933
16   0.141889
17   0.141043
18   0.140724
19   0.146595
20   0.142536
21   0.146602
22   0.12597
23   0.151611
24   0.144942
25   0.137179
26   0.137689
27   0.127186
28   0.137136
29   0.138925
30   0.139784
31   0.121756
32   0.128105
33   0.128932
34   0.150789
35   0.29671

>  <lowdin_charges>
35
1   -0.348773
2   -0.442231
3   -0.439128
4   -0.360789
5   -0.140527
6   -0.277809
7   -0.277701
8   -0.279874
9   -0.291527
10   -0.281377
11   0.062235
12   -0.364488
13   0.155284
14   0.148633
15   0.147783
16   0.14755
17   0.144594
18   0.146659
19   0.148549
20   0.145883
21   0.150633
22   0.121911
23   0.145039
24   0.158735
25   0.14004
26   0.142847
27   0.135228
28   0.14028
29   0.147624
30   0.150081
31   0.136311
32   0.142396
33   0.142266
34   0.154964
35   0.248695

$$$$

