PCCDB-ID:  7749
public computational chemistry database (PCCDB) project, http://pccdb.org

 17 16  0  0  0  0  0  0  0  0999 V2000
    1.2773   -1.5792    0.4721 C   0  0  0  0  0  0  0  0  0  0  0  0
    3.9866    2.8545   -1.5095 C   0  0  0  0  0  0  0  0  0  0  0  0
    2.5650   -1.1661   -0.2379 C   0  0  0  0  0  0  0  0  0  0  0  0
    4.5839    1.9467   -0.4445 C   0  0  0  0  0  0  0  0  0  0  0  0
    2.9358    0.2841    0.0108 C   0  0  0  0  0  0  0  0  0  0  0  0
    2.2798    1.0755    0.6539 O   0  0  0  0  0  0  0  0  0  0  0  0
    4.1131    0.5854   -0.5869 O   0  0  0  0  0  0  0  0  0  0  0  0
    1.0454   -2.6286    0.2630 H   0  0  0  0  0  0  0  0  0  0  0  0
    0.4338   -0.9656    0.1427 H   0  0  0  0  0  0  0  0  0  0  0  0
    1.3689   -1.4549    1.5552 H   0  0  0  0  0  0  0  0  0  0  0  0
    4.4213    3.8577   -1.4310 H   0  0  0  0  0  0  0  0  0  0  0  0
    2.9040    2.9392   -1.3795 H   0  0  0  0  0  0  0  0  0  0  0  0
    4.1946    2.4671   -2.5124 H   0  0  0  0  0  0  0  0  0  0  0  0
    2.4839   -1.3043   -1.3242 H   0  0  0  0  0  0  0  0  0  0  0  0
    3.4142   -1.7882    0.0719 H   0  0  0  0  0  0  0  0  0  0  0  0
    4.3391    2.3012    0.5597 H   0  0  0  0  0  0  0  0  0  0  0  0
    5.6694    1.8699   -0.5474 H   0  0  0  0  0  0  0  0  0  0  0  0
  1 10  1  0  0  0  0
  2 11  1  0  0  0  0
  2 12  1  0  0  0  0
  2  4  1  0  0  0  0
  3  5  1  0  0  0  0
  3 15  1  0  0  0  0
  3  1  1  0  0  0  0
  4 16  1  0  0  0  0
  5  6  2  0  0  0  0
  7  4  1  0  0  0  0
  7  5  1  0  0  0  0
  8  1  1  0  0  0  0
  9  1  1  0  0  0  0
 13  2  1  0  0  0  0
 14  3  1  0  0  0  0
 17  4  1  0  0  0  0
M  END
>  <HBA>
2

>  <HBD>
0

>  <TPSA>
26.3

>  <cid>
7749

>  <dipole>
1.64

>  <excitation_energy_1>
5.842

>  <excitation_energy_2>
6.976

>  <excitation_energy_3>
7.445

>  <excitation_energy_4>
7.61

>  <homo_energy>
-7.282

>  <homo_lumo_gap>
7.75

>  <logP>
0.96

>  <lumo_energy>
0.468

>  <melting_point>
-13.46

>  <molecular_refractivity>
27.43

>  <oscillator_strength_1>
0.0008

>  <oscillator_strength_2>
0.0193

>  <oscillator_strength_3>
0.0275

>  <oscillator_strength_4>
0.0373

>  <open_babel_can_smiles>
CCOC(=O)CC

>  <mulliken_charges>
17
1   -0.435048
2   -0.46156
3   -0.351717
4   -0.043235
5   0.621581
6   -0.478689
7   -0.462676
8   0.142162
9   0.162585
10   0.161223
11   0.149729
12   0.175398
13   0.156135
14   0.171963
15   0.171542
16   0.169596
17   0.151011

>  <lowdin_charges>
17
1   -0.437071
2   -0.452238
3   -0.29906
4   -0.124625
5   0.199887
6   -0.270093
7   -0.202008
8   0.150223
9   0.1603
10   0.156976
11   0.157815
12   0.163086
13   0.154845
14   0.166627
15   0.168798
16   0.157438
17   0.149101

$$$$

