PCCDB-ID:  31862
public computational chemistry database (PCCDB) project, http://pccdb.org

 30 31  0  0  0  0  0  0  0  0999 V2000
   -1.5972   -0.4124    0.0271 C   0  0  0  0  0  0  0  0  0  0  0  0
    4.1745   -1.2497    2.1809 C   0  0  0  0  0  0  0  0  0  0  0  0
   -0.9674    0.2448    1.0809 C   0  0  0  0  0  0  0  0  0  0  0  0
   -0.8292   -0.8676   -1.0477 C   0  0  0  0  0  0  0  0  0  0  0  0
    3.5161   -2.0174    1.0268 C   0  0  0  0  0  0  0  0  0  0  0  0
    3.4544    0.0828    2.4296 C   0  0  0  0  0  0  0  0  0  0  0  0
    0.4182    0.4354    1.0679 C   0  0  0  0  0  0  0  0  0  0  0  0
    0.5501   -0.6743   -1.0564 C   0  0  0  0  0  0  0  0  0  0  0  0
    3.4778   -1.1709   -0.2520 C   0  0  0  0  0  0  0  0  0  0  0  0
    3.3411    0.9165    1.1387 C   0  0  0  0  0  0  0  0  0  0  0  0
    1.2063   -0.0322    0.0084 C   0  0  0  0  0  0  0  0  0  0  0  0
    2.7297    0.1797   -0.0858 C   0  0  0  0  0  0  0  0  0  0  0  0
    2.9486    0.9351   -1.3432 N   0  0  0  0  0  0  0  0  0  0  0  0
   -2.6738   -0.5610    0.0360 H   0  0  0  0  0  0  0  0  0  0  0  0
    5.2288   -1.0566    1.9314 H   0  0  0  0  0  0  0  0  0  0  0  0
    4.1751   -1.8552    3.0961 H   0  0  0  0  0  0  0  0  0  0  0  0
   -1.5503    0.6185    1.9190 H   0  0  0  0  0  0  0  0  0  0  0  0
   -1.3071   -1.3692   -1.8855 H   0  0  0  0  0  0  0  0  0  0  0  0
    2.4930   -2.3011    1.3100 H   0  0  0  0  0  0  0  0  0  0  0  0
    4.0569   -2.9522    0.8316 H   0  0  0  0  0  0  0  0  0  0  0  0
    3.9856    0.6670    3.1925 H   0  0  0  0  0  0  0  0  0  0  0  0
    2.4588   -0.1273    2.8385 H   0  0  0  0  0  0  0  0  0  0  0  0
    0.8719    0.9641    1.8984 H   0  0  0  0  0  0  0  0  0  0  0  0
    1.1312   -0.9995   -1.9129 H   0  0  0  0  0  0  0  0  0  0  0  0
    3.0352   -1.7340   -1.0793 H   0  0  0  0  0  0  0  0  0  0  0  0
    4.5110   -0.9402   -0.5549 H   0  0  0  0  0  0  0  0  0  0  0  0
    4.3571    1.2168    0.8419 H   0  0  0  0  0  0  0  0  0  0  0  0
    2.7960    1.8515    1.3250 H   0  0  0  0  0  0  0  0  0  0  0  0
    3.9400    1.1659   -1.4246 H   0  0  0  0  0  0  0  0  0  0  0  0
    2.4506    1.8245   -1.2936 H   0  0  0  0  0  0  0  0  0  0  0  0
  1 14  1  0  0  0  0
  1  3  2  0  0  0  0
  2  6  1  0  0  0  0
  2 16  1  0  0  0  0
  3 17  1  0  0  0  0
  4  1  1  0  0  0  0
  5 19  1  0  0  0  0
  5  2  1  0  0  0  0
  6 22  1  0  0  0  0
  6 21  1  0  0  0  0
  7  3  1  0  0  0  0
  7 23  1  0  0  0  0
  8  4  2  0  0  0  0
  8 11  1  0  0  0  0
  9 12  1  0  0  0  0
  9  5  1  0  0  0  0
 10 28  1  0  0  0  0
 10  6  1  0  0  0  0
 11  7  2  0  0  0  0
 12 11  1  0  0  0  0
 12 10  1  0  0  0  0
 13 30  1  0  0  0  0
 13 12  1  0  0  0  0
 15  2  1  0  0  0  0
 18  4  1  0  0  0  0
 20  5  1  0  0  0  0
 24  8  1  0  0  0  0
 25  9  1  0  0  0  0
 26  9  1  0  0  0  0
 27 10  1  0  0  0  0
 29 13  1  0  0  0  0
M  END
>  <HBA>
1

>  <HBD>
1

>  <TPSA>
26.02

>  <cid>
31862

>  <dipole>
1.23

>  <excitation_energy_1>
5.261

>  <excitation_energy_2>
5.392

>  <excitation_energy_3>
5.637

>  <excitation_energy_4>
5.679

>  <homo_energy>
-6.158

>  <homo_lumo_gap>
6.248

>  <logP>
3.505

>  <lumo_energy>
0.09

>  <melting_point>
87.6

>  <molecular_refractivity>
55.92

>  <oscillator_strength_1>
0.0041

>  <oscillator_strength_2>
0.0095

>  <oscillator_strength_3>
0.0095

>  <oscillator_strength_4>
0.0181

>  <open_babel_can_smiles>
NC1(CCCCC1)c1ccccc1

>  <mulliken_charges>
30
1   -0.128229
2   -0.255869
3   -0.133981
4   -0.133218
5   -0.263776
6   -0.26509
7   -0.197815
8   -0.164146
9   -0.251828
10   -0.284362
11   0.149773
12   0.108313
13   -0.715174
14   0.125819
15   0.124619
16   0.130559
17   0.12505
18   0.12672
19   0.141628
20   0.130409
21   0.129802
22   0.139065
23   0.127708
24   0.146596
25   0.144023
26   0.116562
27   0.117783
28   0.12761
29   0.28781
30   0.293638

>  <lowdin_charges>
30
1   -0.157355
2   -0.276214
3   -0.161895
4   -0.159596
5   -0.279653
6   -0.284712
7   -0.175943
8   -0.153527
9   -0.276253
10   -0.294782
11   -0.009577
12   0.058305
13   -0.539451
14   0.153942
15   0.133778
16   0.144085
17   0.156183
18   0.156964
19   0.144236
20   0.144682
21   0.144921
22   0.142319
23   0.158903
24   0.166616
25   0.152296
26   0.134332
27   0.137205
28   0.140884
29   0.24619
30   0.253117

$$$$

