PCCDB-ID:  49986
public computational chemistry database (PCCDB) project, http://pccdb.org

 25 24  0  0  0  0  0  0  0  0999 V2000
    4.0961    2.0406   -0.2131 C   0  0  0  0  0  0  0  0  0  0  0  0
    1.5312   -2.8301    4.8216 C   0  0  0  0  0  0  0  0  0  0  0  0
    5.2299   -1.3570    0.5665 C   0  0  0  0  0  0  0  0  0  0  0  0
    4.0003   -2.9806    2.1214 C   0  0  0  0  0  0  0  0  0  0  0  0
    4.5654   -0.0076    0.8476 C   0  0  0  0  0  0  0  0  0  0  0  0
    3.3535   -2.4182    3.3898 C   0  0  0  0  0  0  0  0  0  0  0  0
    6.3930   -2.5062    2.2842 N   0  0  0  0  0  0  0  0  0  0  0  0
    5.2023   -2.2563    1.7108 N   0  0  0  0  0  0  0  0  0  0  0  0
    6.3582   -3.3024    3.2176 O   0  0  0  0  0  0  0  0  0  0  0  0
    4.6575    0.7498   -0.3386 O   0  0  0  0  0  0  0  0  0  0  0  0
    2.1924   -3.1875    3.6254 O   0  0  0  0  0  0  0  0  0  0  0  0
    4.2179    2.5385   -1.1782 H   0  0  0  0  0  0  0  0  0  0  0  0
    4.6070    2.6320    0.5631 H   0  0  0  0  0  0  0  0  0  0  0  0
    3.0235    1.9947    0.0342 H   0  0  0  0  0  0  0  0  0  0  0  0
    0.6578   -3.4808    4.9125 H   0  0  0  0  0  0  0  0  0  0  0  0
    1.1951   -1.7806    4.8035 H   0  0  0  0  0  0  0  0  0  0  0  0
    2.1782   -2.9721    5.7014 H   0  0  0  0  0  0  0  0  0  0  0  0
    6.2811   -1.1980    0.3156 H   0  0  0  0  0  0  0  0  0  0  0  0
    4.7394   -1.8331   -0.2908 H   0  0  0  0  0  0  0  0  0  0  0  0
    3.2843   -2.9452    1.2957 H   0  0  0  0  0  0  0  0  0  0  0  0
    4.2819   -4.0218    2.3054 H   0  0  0  0  0  0  0  0  0  0  0  0
    5.0812    0.4924    1.6846 H   0  0  0  0  0  0  0  0  0  0  0  0
    3.5103   -0.1429    1.1431 H   0  0  0  0  0  0  0  0  0  0  0  0
    3.0960   -1.3533    3.2555 H   0  0  0  0  0  0  0  0  0  0  0  0
    4.0594   -2.4929    4.2292 H   0  0  0  0  0  0  0  0  0  0  0  0
  1 14  1  0  0  0  0
  1 13  1  0  0  0  0
  2 15  1  0  0  0  0
  2 17  1  0  0  0  0
  3  5  1  0  0  0  0
  3  8  1  0  0  0  0
  4 21  1  0  0  0  0
  4  6  1  0  0  0  0
  5 23  1  0  0  0  0
  5 22  1  0  0  0  0
  6 11  1  0  0  0  0
  6 25  1  0  0  0  0
  7  9  1  0  0  0  0
  8  4  1  0  0  0  0
  8  7  1  0  0  0  0
 10  1  1  0  0  0  0
 10  5  1  0  0  0  0
 11  2  1  0  0  0  0
 12  1  1  0  0  0  0
 16  2  1  0  0  0  0
 18  3  1  0  0  0  0
 19  3  1  0  0  0  0
 20  4  1  0  0  0  0
 24  6  1  0  0  0  0
M  RAD  2   7   2   9   2
M  END
>  <HBA>
5

>  <HBD>
0

>  <TPSA>
51.13

>  <cid>
49986

>  <dipole>
4.1

>  <excitation_energy_1>
3.364

>  <excitation_energy_2>
5.384

>  <excitation_energy_3>
5.639

>  <excitation_energy_4>
5.793

>  <homo_energy>
-6.161

>  <homo_lumo_gap>
5.219

>  <logP>
0.263

>  <lumo_energy>
-0.942

>  <melting_point>
-22.77

>  <molecular_refractivity>
40.76

>  <oscillator_strength_1>
0.0011

>  <oscillator_strength_2>
0.0024

>  <oscillator_strength_3>
0.0017

>  <oscillator_strength_4>
0.1559

>  <open_babel_can_smiles>
[O][N]N(CCOC)CCOC

>  <mulliken_charges>
25
1   -0.195355
2   -0.19388
3   -0.15736
4   -0.166509
5   -0.00976
6   -0.011326
7   0.153131
8   -0.232801
9   -0.377975
10   -0.462106
11   -0.464065
12   0.164692
13   0.136611
14   0.1336
15   0.161845
16   0.129897
17   0.138562
18   0.191671
19   0.167599
20   0.165839
21   0.193038
22   0.134457
23   0.1256
24   0.118909
25   0.155688

>  <lowdin_charges>
25
1   -0.276434
2   -0.277281
3   -0.20519
4   -0.218731
5   -0.140155
6   -0.135521
7   0.052963
8   -0.040771
9   -0.267995
10   -0.268699
11   -0.270804
12   0.158767
13   0.136679
14   0.131792
15   0.157603
16   0.130184
17   0.136743
18   0.173591
19   0.158324
20   0.162955
21   0.173967
22   0.134808
23   0.126174
24   0.121604
25   0.145427

$$$$

