PCCDB-ID:  11216
public computational chemistry database (PCCDB) project, http://pccdb.org

 24 23  0  0  0  0  0  0  0  0999 V2000
    2.7982   -0.6917   -1.3482 C   0  0  0  0  0  0  0  0  0  0  0  0
    5.3850   -1.8636    1.1653 C   0  0  0  0  0  0  0  0  0  0  0  0
    5.4267    0.5786    0.8402 C   0  0  0  0  0  0  0  0  0  0  0  0
    2.8152    0.2286    2.4731 C   0  0  0  0  0  0  0  0  0  0  0  0
    2.5351   -2.0401    1.4828 C   0  0  0  0  0  0  0  0  0  0  0  0
    2.5130    0.0013   -0.0112 C   0  0  0  0  0  0  0  0  0  0  0  0
    4.6897   -0.7223    1.0885 C   0  0  0  0  0  0  0  0  0  0  0  0
    3.1618   -0.6523    1.2466 C   0  0  0  0  0  0  0  0  0  0  0  0
    2.3223   -0.1472   -2.1719 H   0  0  0  0  0  0  0  0  0  0  0  0
    2.4119   -1.7165   -1.3665 H   0  0  0  0  0  0  0  0  0  0  0  0
    3.8730   -0.7422   -1.5547 H   0  0  0  0  0  0  0  0  0  0  0  0
    6.4671   -1.8671    1.0567 H   0  0  0  0  0  0  0  0  0  0  0  0
    4.9237   -2.8294    1.3388 H   0  0  0  0  0  0  0  0  0  0  0  0
    6.5028    0.4034    0.7486 H   0  0  0  0  0  0  0  0  0  0  0  0
    5.2754    1.2997    1.6528 H   0  0  0  0  0  0  0  0  0  0  0  0
    5.0900    1.0694   -0.0815 H   0  0  0  0  0  0  0  0  0  0  0  0
    1.7293    0.2579    2.6237 H   0  0  0  0  0  0  0  0  0  0  0  0
    3.1569    1.2615    2.3488 H   0  0  0  0  0  0  0  0  0  0  0  0
    3.2723   -0.1724    3.3852 H   0  0  0  0  0  0  0  0  0  0  0  0
    1.4465   -1.9459    1.5727 H   0  0  0  0  0  0  0  0  0  0  0  0
    2.9060   -2.4909    2.4099 H   0  0  0  0  0  0  0  0  0  0  0  0
    2.7434   -2.7375    0.6655 H   0  0  0  0  0  0  0  0  0  0  0  0
    1.4273    0.0334    0.1561 H   0  0  0  0  0  0  0  0  0  0  0  0
    2.8339    1.0490   -0.0739 H   0  0  0  0  0  0  0  0  0  0  0  0
  1  6  1  0  0  0  0
  2 13  1  0  0  0  0
  3  7  1  0  0  0  0
  3 15  1  0  0  0  0
  4 17  1  0  0  0  0
  4 19  1  0  0  0  0
  5 20  1  0  0  0  0
  5 21  1  0  0  0  0
  6 23  1  0  0  0  0
  6  8  1  0  0  0  0
  7  2  2  0  0  0  0
  7  8  1  0  0  0  0
  8  5  1  0  0  0  0
  8  4  1  0  0  0  0
  9  1  1  0  0  0  0
 10  1  1  0  0  0  0
 11  1  1  0  0  0  0
 12  2  1  0  0  0  0
 14  3  1  0  0  0  0
 16  3  1  0  0  0  0
 18  4  1  0  0  0  0
 22  5  1  0  0  0  0
 24  6  1  0  0  0  0
M  END
>  <HBA>
0

>  <HBD>
0

>  <TPSA>
0.0

>  <cid>
11216

>  <dipole>
0.46

>  <excitation_energy_1>
6.129

>  <excitation_energy_2>
6.502

>  <excitation_energy_3>
6.56

>  <excitation_energy_4>
6.59

>  <homo_energy>
-6.517

>  <homo_lumo_gap>
7.347

>  <logP>
2.999

>  <lumo_energy>
0.83

>  <melting_point>
-26.38

>  <molecular_refractivity>
39.84

>  <oscillator_strength_1>
0.0109

>  <oscillator_strength_2>
0.1103

>  <oscillator_strength_3>
0.0263

>  <oscillator_strength_4>
0.0286

>  <open_babel_can_smiles>
CCC(C(=C)C)(C)C

>  <mulliken_charges>
24
1   -0.450665
2   -0.411228
3   -0.524565
4   -0.451311
5   -0.464674
6   -0.25652
7   0.236689
8   0.043444
9   0.139963
10   0.146003
11   0.152334
12   0.127082
13   0.13516
14   0.150801
15   0.155253
16   0.15576
17   0.139556
18   0.141327
19   0.146194
20   0.136315
21   0.145233
22   0.149233
23   0.128409
24   0.130206

>  <lowdin_charges>
24
1   -0.447609
2   -0.367611
3   -0.44416
4   -0.438434
5   -0.443655
6   -0.270025
7   0.008678
8   0.012046
9   0.150525
10   0.147629
11   0.150659
12   0.149949
13   0.156477
14   0.154575
15   0.156096
16   0.155661
17   0.146257
18   0.145966
19   0.151375
20   0.145787
21   0.150789
22   0.151358
23   0.13909
24   0.138577

$$$$

