PCCDB-ID:  69914
public computational chemistry database (PCCDB) project, http://pccdb.org

 27 29  0  0  0  0  0  0  0  0999 V2000
   -1.6511    0.1165    0.2254 C   0  0  0  0  0  0  0  0  0  0  0  0
   -0.8756   -0.8863    0.8092 C   0  0  0  0  0  0  0  0  0  0  0  0
   -1.0325    1.1247   -0.5171 C   0  0  0  0  0  0  0  0  0  0  0  0
    7.8412   -0.6689   -0.8317 C   0  0  0  0  0  0  0  0  0  0  0  0
    7.2996   -1.9606   -0.9066 C   0  0  0  0  0  0  0  0  0  0  0  0
    0.5097   -0.8824    0.6549 C   0  0  0  0  0  0  0  0  0  0  0  0
    0.3517    1.1319   -0.6738 C   0  0  0  0  0  0  0  0  0  0  0  0
    7.0002    0.4179   -0.6544 C   0  0  0  0  0  0  0  0  0  0  0  0
    5.9290   -2.1519   -0.8020 C   0  0  0  0  0  0  0  0  0  0  0  0
    3.3310    1.3198   -0.1939 C   0  0  0  0  0  0  0  0  0  0  0  0
    1.1432    0.1312   -0.0841 C   0  0  0  0  0  0  0  0  0  0  0  0
    5.6069    0.2522   -0.5474 C   0  0  0  0  0  0  0  0  0  0  0  0
    4.7760    1.4729   -0.3520 C   0  0  0  0  0  0  0  0  0  0  0  0
    5.0767   -1.0485   -0.6214 C   0  0  0  0  0  0  0  0  0  0  0  0
    2.6184    0.1664   -0.2426 C   0  0  0  0  0  0  0  0  0  0  0  0
    5.2933    2.5912   -0.3069 O   0  0  0  0  0  0  0  0  0  0  0  0
    3.3482   -1.4092   -0.5264 S   0  0  0  0  0  0  0  0  0  0  0  0
   -2.7310    0.1111    0.3451 H   0  0  0  0  0  0  0  0  0  0  0  0
   -1.3479   -1.6709    1.3937 H   0  0  0  0  0  0  0  0  0  0  0  0
   -1.6294    1.9035   -0.9835 H   0  0  0  0  0  0  0  0  0  0  0  0
    8.9143   -0.5226   -0.9131 H   0  0  0  0  0  0  0  0  0  0  0  0
    7.9507   -2.8194   -1.0448 H   0  0  0  0  0  0  0  0  0  0  0  0
    1.1063   -1.6543    1.1319 H   0  0  0  0  0  0  0  0  0  0  0  0
    0.8262    1.9018   -1.2743 H   0  0  0  0  0  0  0  0  0  0  0  0
    7.3815    1.4317   -0.5918 H   0  0  0  0  0  0  0  0  0  0  0  0
    5.5103   -3.1533   -0.8601 H   0  0  0  0  0  0  0  0  0  0  0  0
    2.8044    2.2484    0.0074 H   0  0  0  0  0  0  0  0  0  0  0  0
  1 18  1  0  0  0  0
  1  2  2  0  0  0  0
  2 19  1  0  0  0  0
  3  1  1  0  0  0  0
  4  8  1  0  0  0  0
  5  4  2  0  0  0  0
  5  9  1  0  0  0  0
  6  2  1  0  0  0  0
  6 23  1  0  0  0  0
  7  3  2  0  0  0  0
  7 11  1  0  0  0  0
  8 25  1  0  0  0  0
  8 12  2  0  0  0  0
  9 14  2  0  0  0  0
 10 27  1  0  0  0  0
 11  6  2  0  0  0  0
 12 13  1  0  0  0  0
 13 16  2  0  0  0  0
 13 10  1  0  0  0  0
 14 12  1  0  0  0  0
 14 17  1  0  0  0  0
 15 10  2  0  0  0  0
 15 11  1  0  0  0  0
 17 15  1  0  0  0  0
 20  3  1  0  0  0  0
 21  4  1  0  0  0  0
 22  5  1  0  0  0  0
 24  7  1  0  0  0  0
 26  9  1  0  0  0  0
M  END
>  <HBA>
2

>  <HBD>
0

>  <TPSA>
45.31

>  <cid>
69914

>  <dipole>
3.58

>  <excitation_energy_1>
3.472

>  <excitation_energy_2>
3.827

>  <excitation_energy_3>
4.356

>  <excitation_energy_4>
4.521

>  <homo_energy>
-6.109

>  <homo_lumo_gap>
4.272

>  <logP>
3.929

>  <lumo_energy>
-1.837

>  <melting_point>
120.6

>  <molecular_refractivity>
73.53

>  <oscillator_strength_1>
0.0018

>  <oscillator_strength_2>
0.089

>  <oscillator_strength_3>
0.1932

>  <oscillator_strength_4>
0.2621

>  <open_babel_can_smiles>
O=c1cc(sc2c1cccc2)c1ccccc1

>  <mulliken_charges>
27
1   -0.120875
2   -0.132995
3   -0.134082
4   -0.137854
5   -0.11004
6   -0.178116
7   -0.15839
8   -0.141459
9   -0.172266
10   -0.191011
11   0.114784
12   0.058154
13   0.38993
14   -0.140088
15   -0.16773
16   -0.515226
17   0.251144
18   0.138913
19   0.139878
20   0.140832
21   0.141339
22   0.141811
23   0.155446
24   0.148974
25   0.171308
26   0.147946
27   0.159673

>  <lowdin_charges>
27
1   -0.144444
2   -0.151342
3   -0.151417
4   -0.153308
5   -0.138113
6   -0.156439
7   -0.149532
8   -0.122941
9   -0.165637
10   -0.209701
11   -0.008871
12   -0.04797
13   0.13561
14   -0.119648
15   -0.103991
16   -0.28071
17   0.282691
18   0.160521
19   0.163951
20   0.164639
21   0.161919
22   0.165243
23   0.171206
24   0.169016
25   0.18148
26   0.167445
27   0.180345

$$$$

