PCCDB-ID:  25888
public computational chemistry database (PCCDB) project, http://pccdb.org

 31 33  0  0  1  0  0  0  0  0999 V2000
   -2.5167    0.8348   -0.2584 C   0  0  0  0  0  0  0  0  0  0  0  0
   -2.5584   -0.4769    0.5273 C   0  0  0  0  0  0  0  0  0  0  0  0
    2.4475    0.5569   -0.2261 C   0  0  0  0  0  0  0  0  0  0  0  0
   -1.2079    1.5664    0.0466 C   0  0  0  0  0  0  0  0  0  0  0  0
    1.2755    1.2998   -0.1544 C   0  0  0  0  0  0  0  0  0  0  0  0
   -1.4231   -1.4092    0.0870 C   0  0  0  0  0  0  0  0  0  0  0  0
    2.3726   -0.8321   -0.1933 C   0  0  0  0  0  0  0  0  0  0  0  0
    0.7174   -5.1158   -0.3987 C   0  0  0  0  0  0  0  0  0  0  0  0
    1.9371   -5.0335    0.5551 C   0  0  0  0  0  0  0  0  0  0  0  0
    0.0239    0.6781   -0.0488 C   0  0  0  0  0  0  0  0  0  0  0  0
   -0.0664   -0.7283   -0.0166 C   0  0  0  0  0  0  0  0  0  0  0  0
    1.1335   -1.4830   -0.0947 C   0  0  0  0  0  0  0  0  0  0  0  0
    1.1533   -2.9660   -0.0816 C   0  0  3  0  0  0  0  0  0  0  0  0
    0.2353   -3.7351   -0.5548 N   0  0  0  0  0  0  0  0  0  0  0  0
    2.2991   -3.6162    0.4149 N   0  0  0  0  0  0  0  0  0  0  0  0
   -3.3709    1.4761   -0.0090 H   0  0  0  0  0  0  0  0  0  0  0  0
   -2.5823    0.6185   -1.3341 H   0  0  0  0  0  0  0  0  0  0  0  0
   -3.5193   -0.9873    0.3907 H   0  0  0  0  0  0  0  0  0  0  0  0
   -2.4689   -0.2558    1.6010 H   0  0  0  0  0  0  0  0  0  0  0  0
    3.4106    1.0515   -0.3181 H   0  0  0  0  0  0  0  0  0  0  0  0
   -1.2638    1.9827    1.0645 H   0  0  0  0  0  0  0  0  0  0  0  0
   -1.0825    2.4287   -0.6211 H   0  0  0  0  0  0  0  0  0  0  0  0
    1.3201    2.3869   -0.1842 H   0  0  0  0  0  0  0  0  0  0  0  0
   -1.6639   -1.8499   -0.8888 H   0  0  0  0  0  0  0  0  0  0  0  0
   -1.3540   -2.2697    0.7594 H   0  0  0  0  0  0  0  0  0  0  0  0
    3.2758   -1.4279   -0.2807 H   0  0  0  0  0  0  0  0  0  0  0  0
   -0.0785   -5.7669   -0.0216 H   0  0  0  0  0  0  0  0  0  0  0  0
    1.0125   -5.5009   -1.3849 H   0  0  0  0  0  0  0  0  0  0  0  0
    2.7617   -5.6899    0.2607 H   0  0  0  0  0  0  0  0  0  0  0  0
    1.6564   -5.2748    1.5915 H   0  0  0  0  0  0  0  0  0  0  0  0
    2.7450   -3.1770    1.2123 H   0  0  0  0  0  0  0  0  0  0  0  0
  1 16  1  0  0  0  0
  1  4  1  0  0  0  0
  1  2  1  0  0  0  0
  2 19  1  0  0  0  0
  3  7  2  0  0  0  0
  3  5  1  0  0  0  0
  4 21  1  0  0  0  0
  5 10  2  0  0  0  0
  6  2  1  0  0  0  0
  6 25  1  0  0  0  0
  7 12  1  0  0  0  0
  8 27  1  0  0  0  0
  8  9  1  0  0  0  0
  9 30  1  0  0  0  0
 10 11  1  0  0  0  0
 10  4  1  0  0  0  0
 11  6  1  0  0  0  0
 12 13  1  0  0  0  0
 12 11  2  0  0  0  0
 13 15  1  0  0  0  0
 14  8  1  0  0  0  0
 14 13  1  0  0  0  0
 15  9  1  0  0  0  0
 15 31  1  0  0  0  0
 17  1  1  0  0  0  0
 18  2  1  0  0  0  0
 20  3  1  0  0  0  0
 22  4  1  0  0  0  0
 23  5  1  0  0  0  0
 24  6  1  0  0  0  0
 26  7  1  0  0  0  0
 28  8  1  0  0  0  0
 29  9  1  0  0  0  0
M  RAD  2  13   2  14   2
M  END
>  <HBA>
2

>  <HBD>
1

>  <TPSA>
24.39

>  <cid>
25888

>  <dipole>
2.07

>  <excitation_energy_1>
4.597

>  <excitation_energy_2>
4.757

>  <excitation_energy_3>
5.123

>  <excitation_energy_4>
5.171

>  <homo_energy>
-5.799

>  <homo_lumo_gap>
5.184

>  <logP>
1.68

>  <lumo_energy>
-0.615

>  <melting_point>
104.37

>  <molecular_refractivity>
70.07

>  <oscillator_strength_1>
0.063

>  <oscillator_strength_2>
0.0248

>  <oscillator_strength_3>
0.0325

>  <oscillator_strength_4>
0.0085

>  <open_babel_can_smiles>
C1CN[C]([N]1)c1cccc2c1CCCC2

>  <mulliken_charges>
31
1   -0.26315
2   -0.269688
3   -0.131984
4   -0.341017
5   -0.177062
6   -0.315609
7   -0.19517
8   -0.155788
9   -0.145833
10   0.104362
11   0.071858
12   0.058124
13   0.416384
14   -0.481426
15   -0.61414
16   0.130089
17   0.138407
18   0.133089
19   0.129377
20   0.127021
21   0.148774
22   0.143664
23   0.120695
24   0.172698
25   0.151474
26   0.142364
27   0.14698
28   0.152183
29   0.150841
30   0.138208
31   0.314273

>  <lowdin_charges>
31
1   -0.27549
2   -0.276218
3   -0.162623
4   -0.275502
5   -0.154901
6   -0.27848
7   -0.166527
8   -0.209711
9   -0.211558
10   -0.014505
11   0.002692
12   -0.027151
13   0.085994
14   -0.233754
15   -0.323199
16   0.144516
17   0.140591
18   0.145561
19   0.135705
20   0.157058
21   0.149378
22   0.151315
23   0.151876
24   0.165299
25   0.160299
26   0.163731
27   0.149971
28   0.147683
29   0.150803
30   0.133725
31   0.273422

$$$$

