PCCDB-ID:  17429
public computational chemistry database (PCCDB) project, http://pccdb.org

 19 19  0  0  0  0  0  0  0  0999 V2000
    0.7154    1.2756   -0.1082 C   0  0  0  0  0  0  0  0  0  0  0  0
    1.4412    0.0001    0.3488 C   0  0  0  0  0  0  0  0  0  0  0  0
   -0.7733    1.2258    0.2714 C   0  0  0  0  0  0  0  0  0  0  0  0
    0.7350   -1.2505   -0.1948 C   0  0  0  0  0  0  0  0  0  0  0  0
   -1.4381   -0.0495   -0.2643 C   0  0  0  0  0  0  0  0  0  0  0  0
   -1.2910   -2.2521    0.8151 C   0  0  0  0  0  0  0  0  0  0  0  0
   -0.6834   -1.2341    0.1402 N   0  0  0  0  0  0  0  0  0  0  0  0
   -2.4697   -2.2961    1.1300 O   0  0  0  0  0  0  0  0  0  0  0  0
    0.8089    1.3727   -1.2002 H   0  0  0  0  0  0  0  0  0  0  0  0
    1.1928    2.1615    0.3273 H   0  0  0  0  0  0  0  0  0  0  0  0
    1.4513   -0.0470    1.4460 H   0  0  0  0  0  0  0  0  0  0  0  0
    2.4857    0.0049    0.0132 H   0  0  0  0  0  0  0  0  0  0  0  0
   -1.3018    2.1035   -0.1204 H   0  0  0  0  0  0  0  0  0  0  0  0
   -0.8767    1.2471    1.3644 H   0  0  0  0  0  0  0  0  0  0  0  0
    1.1778   -2.1655    0.2131 H   0  0  0  0  0  0  0  0  0  0  0  0
    0.8496   -1.2903   -1.2898 H   0  0  0  0  0  0  0  0  0  0  0  0
   -1.4839   -0.0135   -1.3640 H   0  0  0  0  0  0  0  0  0  0  0  0
   -2.4543   -0.1741    0.1137 H   0  0  0  0  0  0  0  0  0  0  0  0
   -0.5794   -3.0660    1.0605 H   0  0  0  0  0  0  0  0  0  0  0  0
  1  3  1  0  0  0  0
  1 10  1  0  0  0  0
  1  2  1  0  0  0  0
  2 11  1  0  0  0  0
  3 14  1  0  0  0  0
  4  7  1  0  0  0  0
  4 15  1  0  0  0  0
  4  2  1  0  0  0  0
  5 18  1  0  0  0  0
  5  7  1  0  0  0  0
  5  3  1  0  0  0  0
  6 19  1  0  0  0  0
  6  8  2  0  0  0  0
  7  6  1  0  0  0  0
  9  1  1  0  0  0  0
 12  2  1  0  0  0  0
 13  3  1  0  0  0  0
 16  4  1  0  0  0  0
 17  5  1  0  0  0  0
M  END
>  <HBA>
2

>  <HBD>
0

>  <TPSA>
20.31

>  <cid>
17429

>  <dipole>
4.05

>  <excitation_energy_1>
5.582

>  <excitation_energy_2>
5.887

>  <excitation_energy_3>
6.225

>  <excitation_energy_4>
6.385

>  <homo_energy>
-6.438

>  <homo_lumo_gap>
7.331

>  <logP>
1.202

>  <lumo_energy>
0.893

>  <melting_point>
20.04

>  <molecular_refractivity>
36.24

>  <oscillator_strength_1>
0.001

>  <oscillator_strength_2>
0.0615

>  <oscillator_strength_3>
0.0587

>  <oscillator_strength_4>
0.0088

>  <open_babel_can_smiles>
O=CN1CCCCC1

>  <mulliken_charges>
19
1   -0.268548
2   -0.257689
3   -0.263584
4   -0.145584
5   -0.148501
6   0.344803
7   -0.361503
8   -0.472389
9   0.13243
10   0.142533
11   0.143263
12   0.13972
13   0.140949
14   0.147214
15   0.153292
16   0.144508
17   0.140925
18   0.190448
19   0.097713

>  <lowdin_charges>
19
1   -0.279083
2   -0.281205
3   -0.28165
4   -0.19295
5   -0.196969
6   0.034922
7   -0.102747
8   -0.303569
9   0.137578
10   0.150023
11   0.144202
12   0.148578
13   0.151395
14   0.146026
15   0.154871
16   0.138173
17   0.138464
18   0.175544
19   0.118392

$$$$

