PCCDB-ID:  61196
public computational chemistry database (PCCDB) project, http://pccdb.org

 37 36  0  0  0  0  0  0  0  0999 V2000
    2.2042    1.4977   -4.1295 C   0  0  0  0  0  0  0  0  0  0  0  0
   11.7779    4.6833   -1.2344 C   0  0  0  0  0  0  0  0  0  0  0  0
    7.1221    2.7947    1.8968 C   0  0  0  0  0  0  0  0  0  0  0  0
    3.0986    2.2050   -3.4410 C   0  0  0  0  0  0  0  0  0  0  0  0
   10.9372    3.7503   -1.6785 C   0  0  0  0  0  0  0  0  0  0  0  0
    7.2386    1.5280    1.0402 C   0  0  0  0  0  0  0  0  0  0  0  0
    3.4348    1.9703   -1.9983 C   0  0  0  0  0  0  0  0  0  0  0  0
    9.4488    3.9188   -1.7429 C   0  0  0  0  0  0  0  0  0  0  0  0
    7.2382    0.3523   -1.1970 C   0  0  0  0  0  0  0  0  0  0  0  0
    5.2675    1.7517   -0.5147 C   0  0  0  0  0  0  0  0  0  0  0  0
    7.3986    2.8766   -1.1373 C   0  0  0  0  0  0  0  0  0  0  0  0
    6.8002    1.6389   -0.4446 C   0  0  0  0  0  0  0  0  0  0  0  0
    8.6192    0.0524   -1.0708 O   0  0  0  0  0  0  0  0  0  0  0  0
    4.8452    1.8671   -1.8651 O   0  0  0  0  0  0  0  0  0  0  0  0
    8.8252    2.8325   -1.0626 O   0  0  0  0  0  0  0  0  0  0  0  0
    1.9695    1.7259   -5.1655 H   0  0  0  0  0  0  0  0  0  0  0  0
    1.6676    0.6629   -3.6830 H   0  0  0  0  0  0  0  0  0  0  0  0
   12.8536    4.5307   -1.2352 H   0  0  0  0  0  0  0  0  0  0  0  0
   11.4233    5.6398   -0.8557 H   0  0  0  0  0  0  0  0  0  0  0  0
    7.3995    2.5717    2.9333 H   0  0  0  0  0  0  0  0  0  0  0  0
    6.1055    3.2052    1.9150 H   0  0  0  0  0  0  0  0  0  0  0  0
    7.7978    3.5800    1.5414 H   0  0  0  0  0  0  0  0  0  0  0  0
    3.6303    3.0306   -3.9130 H   0  0  0  0  0  0  0  0  0  0  0  0
   11.3185    2.7983   -2.0472 H   0  0  0  0  0  0  0  0  0  0  0  0
    6.6487    0.7218    1.4999 H   0  0  0  0  0  0  0  0  0  0  0  0
    8.2752    1.1813    1.0515 H   0  0  0  0  0  0  0  0  0  0  0  0
    2.9395    1.0581   -1.6264 H   0  0  0  0  0  0  0  0  0  0  0  0
    3.0695    2.8126   -1.3817 H   0  0  0  0  0  0  0  0  0  0  0  0
    9.1095    3.9319   -2.7939 H   0  0  0  0  0  0  0  0  0  0  0  0
    9.1458    4.8751   -1.2880 H   0  0  0  0  0  0  0  0  0  0  0  0
    6.9433    0.4413   -2.2534 H   0  0  0  0  0  0  0  0  0  0  0  0
    6.7000   -0.5084   -0.7805 H   0  0  0  0  0  0  0  0  0  0  0  0
    4.9161    2.6268    0.0582 H   0  0  0  0  0  0  0  0  0  0  0  0
    4.8169    0.8572   -0.0514 H   0  0  0  0  0  0  0  0  0  0  0  0
    7.0359    3.8013   -0.6607 H   0  0  0  0  0  0  0  0  0  0  0  0
    7.0808    2.9015   -2.1890 H   0  0  0  0  0  0  0  0  0  0  0  0
    9.0904    0.8870   -1.2439 H   0  0  0  0  0  0  0  0  0  0  0  0
  1 17  1  0  0  0  0
  1  4  2  0  0  0  0
  2 19  1  0  0  0  0
  3 21  1  0  0  0  0
  3 20  1  0  0  0  0
  4  7  1  0  0  0  0
  5  2  2  0  0  0  0
  6 26  1  0  0  0  0
  6 25  1  0  0  0  0
  6  3  1  0  0  0  0
  7 14  1  0  0  0  0
  7 27  1  0  0  0  0
  7 28  1  0  0  0  0
  8  5  1  0  0  0  0
  8 30  1  0  0  0  0
  8 15  1  0  0  0  0
  9 13  1  0  0  0  0
  9 32  1  0  0  0  0
  9 12  1  0  0  0  0
 10 12  1  0  0  0  0
 10 34  1  0  0  0  0
 10 33  1  0  0  0  0
 11 15  1  0  0  0  0
 11 35  1  0  0  0  0
 11 12  1  0  0  0  0
 12  6  1  0  0  0  0
 14 10  1  0  0  0  0
 16  1  1  0  0  0  0
 18  2  1  0  0  0  0
 22  3  1  0  0  0  0
 23  4  1  0  0  0  0
 24  5  1  0  0  0  0
 29  8  1  0  0  0  0
 31  9  1  0  0  0  0
 36 11  1  0  0  0  0
 37 13  1  0  0  0  0
M  END
>  <HBA>
3

>  <HBD>
1

>  <TPSA>
38.69

>  <cid>
61196

>  <dipole>
3.25

>  <excitation_energy_1>
5.971

>  <excitation_energy_2>
6.01

>  <excitation_energy_3>
6.171

>  <excitation_energy_4>
6.299

>  <homo_energy>
-6.542

>  <homo_lumo_gap>
6.686

>  <logP>
1.78

>  <lumo_energy>
0.144

>  <melting_point>
-52.34

>  <molecular_refractivity>
61.92

>  <oscillator_strength_1>
0.0016

>  <oscillator_strength_2>
0.0096

>  <oscillator_strength_3>
0.0135

>  <oscillator_strength_4>
0.0084

>  <open_babel_can_smiles>
C=CCOCC(COCC=C)(CO)CC

>  <mulliken_charges>
37
1   -0.33495
2   -0.332538
3   -0.461379
4   -0.052195
5   -0.057325
6   -0.254565
7   -0.05212
8   -0.055119
9   -0.018709
10   -0.015845
11   -0.021724
12   -0.016783
13   -0.644286
14   -0.487395
15   -0.502752
16   0.146471
17   0.141671
18   0.149604
19   0.142499
20   0.1465
21   0.136749
22   0.153954
23   0.138562
24   0.143528
25   0.125557
26   0.168953
27   0.128903
28   0.127563
29   0.135958
30   0.132041
31   0.134373
32   0.128194
33   0.121694
34   0.124124
35   0.123605
36   0.148983
37   0.408202

>  <lowdin_charges>
37
1   -0.325945
2   -0.320351
3   -0.449497
4   -0.15025
5   -0.151665
6   -0.276976
7   -0.124545
8   -0.122933
9   -0.134722
10   -0.131401
11   -0.134962
12   -0.029827
13   -0.48141
14   -0.276631
15   -0.277834
16   0.160997
17   0.157791
18   0.161919
19   0.157164
20   0.152486
21   0.139936
22   0.152347
23   0.158679
24   0.159104
25   0.141616
26   0.161737
27   0.134103
28   0.133482
29   0.135599
30   0.135848
31   0.132901
32   0.141007
33   0.129272
34   0.131737
35   0.131901
36   0.141233
37   0.338089

$$$$

