PCCDB-ID:  72666
public computational chemistry database (PCCDB) project, http://pccdb.org

 30 31  0  0  0  0  0  0  0  0999 V2000
    1.1833    0.0997   -0.3875 C   0  0  0  0  0  0  0  0  0  0  0  0
    3.0909    2.4603   -0.2989 C   0  0  0  0  0  0  0  0  0  0  0  0
    8.0782    2.5916   -2.1889 C   0  0  0  0  0  0  0  0  0  0  0  0
    6.8292    2.5785   -2.8107 C   0  0  0  0  0  0  0  0  0  0  0  0
    8.2294    1.9846   -0.9402 C   0  0  0  0  0  0  0  0  0  0  0  0
    5.7390    1.9630   -2.1960 C   0  0  0  0  0  0  0  0  0  0  0  0
    7.1454    1.3841   -0.3028 C   0  0  0  0  0  0  0  0  0  0  0  0
    3.6600   -3.0915    1.1854 C   0  0  0  0  0  0  0  0  0  0  0  0
    2.6676    0.0398   -0.2491 C   0  0  0  0  0  0  0  0  0  0  0  0
    5.8945    1.3716   -0.9352 C   0  0  0  0  0  0  0  0  0  0  0  0
    3.4179   -0.9743    0.2730 C   0  0  0  0  0  0  0  0  0  0  0  0
    4.8216   -0.5525    0.2536 C   0  0  0  0  0  0  0  0  0  0  0  0
    2.8976   -2.1915    0.6957 N   0  0  0  0  0  0  0  0  0  0  0  0
    3.4805    1.0928   -0.6734 N   0  0  0  0  0  0  0  0  0  0  0  0
    4.7973    0.7549   -0.2782 N   0  0  0  0  0  0  0  0  0  0  0  0
    3.1541   -4.2704    1.5930 O   0  0  0  0  0  0  0  0  0  0  0  0
    5.8377   -1.1591    0.5823 O   0  0  0  0  0  0  0  0  0  0  0  0
    0.7760   -0.8871   -0.1575 H   0  0  0  0  0  0  0  0  0  0  0  0
    0.8863    0.3803   -1.4047 H   0  0  0  0  0  0  0  0  0  0  0  0
    0.7318    0.8229    0.3041 H   0  0  0  0  0  0  0  0  0  0  0  0
    2.0933    2.6532   -0.6982 H   0  0  0  0  0  0  0  0  0  0  0  0
    3.7883    3.1661   -0.7528 H   0  0  0  0  0  0  0  0  0  0  0  0
    3.0887    2.5999    0.7906 H   0  0  0  0  0  0  0  0  0  0  0  0
    8.9262    3.0672   -2.6733 H   0  0  0  0  0  0  0  0  0  0  0  0
    6.6998    3.0370   -3.7876 H   0  0  0  0  0  0  0  0  0  0  0  0
    9.1985    1.9849   -0.4487 H   0  0  0  0  0  0  0  0  0  0  0  0
    4.7755    1.9191   -2.6926 H   0  0  0  0  0  0  0  0  0  0  0  0
    7.2588    0.9109    0.6640 H   0  0  0  0  0  0  0  0  0  0  0  0
    4.7373   -3.0278    1.3247 H   0  0  0  0  0  0  0  0  0  0  0  0
    2.1935   -4.2289    1.4211 H   0  0  0  0  0  0  0  0  0  0  0  0
  1  9  1  0  0  0  0
  1 18  1  0  0  0  0
  1 20  1  0  0  0  0
  2 23  1  0  0  0  0
  3  5  2  0  0  0  0
  4  6  2  0  0  0  0
  4  3  1  0  0  0  0
  5 26  1  0  0  0  0
  5  7  1  0  0  0  0
  6 10  1  0  0  0  0
  7 28  1  0  0  0  0
  8 29  1  0  0  0  0
  8 16  1  0  0  0  0
  9 11  2  0  0  0  0
 10  7  2  0  0  0  0
 10 15  1  0  0  0  0
 11 13  1  0  0  0  0
 12 11  1  0  0  0  0
 12 17  2  0  0  0  0
 13  8  2  0  0  0  0
 14  2  1  0  0  0  0
 14 15  1  0  0  0  0
 14  9  1  0  0  0  0
 15 12  1  0  0  0  0
 19  1  1  0  0  0  0
 21  2  1  0  0  0  0
 22  2  1  0  0  0  0
 24  3  1  0  0  0  0
 25  4  1  0  0  0  0
 27  6  1  0  0  0  0
 30 16  1  0  0  0  0
M  END
>  <HBA>
5

>  <HBD>
1

>  <TPSA>
56.03

>  <cid>
72666

>  <dipole>
4.66

>  <excitation_energy_1>
4.346

>  <excitation_energy_2>
4.592

>  <excitation_energy_3>
4.709

>  <excitation_energy_4>
4.75

>  <homo_energy>
-5.508

>  <homo_lumo_gap>
4.822

>  <logP>
1.762

>  <lumo_energy>
-0.686

>  <melting_point>
138.12

>  <molecular_refractivity>
66.15

>  <oscillator_strength_1>
0.1629

>  <oscillator_strength_2>
0.0907

>  <oscillator_strength_3>
0.0054

>  <oscillator_strength_4>
0.0341

>  <open_babel_can_smiles>
O/C=N/c1c(C)n(n(c1=O)c1ccccc1)C

>  <mulliken_charges>
30
1   -0.534432
2   -0.316675
3   -0.122802
4   -0.14302
5   -0.1458
6   -0.160125
7   -0.140491
8   0.278098
9   0.342823
10   0.283779
11   0.115773
12   0.614469
13   -0.564488
14   -0.335397
15   -0.442195
16   -0.556342
17   -0.549933
18   0.197065
19   0.170935
20   0.16884
21   0.172575
22   0.183252
23   0.16593
24   0.129532
25   0.13155
26   0.13543
27   0.146283
28   0.165762
29   0.20728
30   0.402325

>  <lowdin_charges>
30
1   -0.445115
2   -0.353201
3   -0.165753
4   -0.151204
5   -0.148688
6   -0.1845
7   -0.158526
8   0.026273
9   0.041423
10   0.046404
11   -0.051833
12   0.139075
13   -0.214218
14   -0.041549
15   -0.029844
16   -0.346367
17   -0.31663
18   0.184218
19   0.166507
20   0.166582
21   0.165433
22   0.171535
23   0.149675
24   0.159543
25   0.158236
26   0.160752
27   0.166448
28   0.179283
29   0.17386
30   0.352181

$$$$

