PCCDB-ID:  16553
public computational chemistry database (PCCDB) project, http://pccdb.org

 29 29  0  0  0  0  0  0  0  0999 V2000
    1.5541    0.8390   -0.8379 C   0  0  0  0  0  0  0  0  0  0  0  0
    4.7009   -4.3083    3.7973 C   0  0  0  0  0  0  0  0  0  0  0  0
    5.6238   -3.0348    5.7866 C   0  0  0  0  0  0  0  0  0  0  0  0
    3.0561    0.7075   -0.5939 C   0  0  0  0  0  0  0  0  0  0  0  0
    5.1240   -2.9337    4.3414 C   0  0  0  0  0  0  0  0  0  0  0  0
    4.5083   -0.4222    0.8671 C   0  0  0  0  0  0  0  0  0  0  0  0
    5.9242   -1.6549    2.5066 C   0  0  0  0  0  0  0  0  0  0  0  0
    6.7951   -0.3482    0.6723 C   0  0  0  0  0  0  0  0  0  0  0  0
    3.3021   -0.1537    0.5581 N   0  0  0  0  0  0  0  0  0  0  0  0
    6.1967   -2.3749    3.5221 N   0  0  0  0  0  0  0  0  0  0  0  0
    4.7077   -1.2672    1.9865 N   0  0  0  0  0  0  0  0  0  0  0  0
    5.6505    0.0276    0.2073 N   0  0  0  0  0  0  0  0  0  0  0  0
    6.9977   -1.1466    1.7514 N   0  0  0  0  0  0  0  0  0  0  0  0
    7.9382    0.0452    0.0897 O   0  0  0  0  0  0  0  0  0  0  0  0
    1.3531    1.4890   -1.6977 H   0  0  0  0  0  0  0  0  0  0  0  0
    1.0552    1.2631    0.0403 H   0  0  0  0  0  0  0  0  0  0  0  0
    1.1068   -0.1416   -1.0345 H   0  0  0  0  0  0  0  0  0  0  0  0
    3.9189   -4.7527    4.4239 H   0  0  0  0  0  0  0  0  0  0  0  0
    5.5611   -4.9867    3.7834 H   0  0  0  0  0  0  0  0  0  0  0  0
    4.3165   -4.2321    2.7738 H   0  0  0  0  0  0  0  0  0  0  0  0
    4.8473   -3.4460    6.4419 H   0  0  0  0  0  0  0  0  0  0  0  0
    5.9115   -2.0488    6.1658 H   0  0  0  0  0  0  0  0  0  0  0  0
    6.5041   -3.6853    5.8361 H   0  0  0  0  0  0  0  0  0  0  0  0
    3.4958    1.7029   -0.4293 H   0  0  0  0  0  0  0  0  0  0  0  0
    3.5488    0.3073   -1.4927 H   0  0  0  0  0  0  0  0  0  0  0  0
    4.2350   -2.2761    4.3484 H   0  0  0  0  0  0  0  0  0  0  0  0
    3.8574   -1.5739    2.4375 H   0  0  0  0  0  0  0  0  0  0  0  0
    7.9286   -1.3790    2.0703 H   0  0  0  0  0  0  0  0  0  0  0  0
    7.6715    0.6037   -0.6631 H   0  0  0  0  0  0  0  0  0  0  0  0
  1  4  1  0  0  0  0
  1 16  1  0  0  0  0
  2  5  1  0  0  0  0
  2 18  1  0  0  0  0
  3 23  1  0  0  0  0
  3 22  1  0  0  0  0
  3 21  1  0  0  0  0
  4 24  1  0  0  0  0
  4  9  1  0  0  0  0
  5 26  1  0  0  0  0
  5  3  1  0  0  0  0
  6 11  1  0  0  0  0
  7 10  2  0  0  0  0
  8 13  1  0  0  0  0
  9  6  1  0  0  0  0
 10  5  1  0  0  0  0
 11 27  1  0  0  0  0
 11  7  1  0  0  0  0
 12  8  2  0  0  0  0
 12  6  2  0  0  0  0
 13 28  1  0  0  0  0
 13  7  1  0  0  0  0
 14  8  1  0  0  0  0
 15  1  1  0  0  0  0
 17  1  1  0  0  0  0
 19  2  1  0  0  0  0
 20  2  1  0  0  0  0
 25  4  1  0  0  0  0
 29 14  1  0  0  0  0
M  RAD  1   9   2
M  END
>  <HBA>
5

>  <HBD>
3

>  <TPSA>
82.7

>  <cid>
16553

>  <dipole>
1.86

>  <excitation_energy_1>
5.019

>  <excitation_energy_2>
5.219

>  <excitation_energy_3>
5.264

>  <excitation_energy_4>
5.284

>  <homo_energy>
-6.016

>  <homo_lumo_gap>
5.731

>  <logP>
0.563

>  <lumo_energy>
-0.286

>  <melting_point>
185.16

>  <molecular_refractivity>
55.69

>  <oscillator_strength_1>
0.0414

>  <oscillator_strength_2>
0.0631

>  <oscillator_strength_3>
0.0168

>  <oscillator_strength_4>
0.0065

>  <open_babel_can_smiles>
CC[N]C1=[N]=C(N/C(=N/C(C)C)/N1)O

>  <mulliken_charges>
29
1   -0.435716
2   -0.434838
3   -0.428614
4   -0.116573
5   0.012522
6   0.678965
7   0.758275
8   0.725067
9   -0.516039
10   -0.50085
11   -0.720789
12   -0.55842
13   -0.677594
14   -0.599852
15   0.129264
16   0.146046
17   0.14536
18   0.142357
19   0.155234
20   0.142201
21   0.134957
22   0.14726
23   0.150128
24   0.134329
25   0.134736
26   0.104821
27   0.352666
28   0.362228
29   0.432869

>  <lowdin_charges>
29
1   -0.447525
2   -0.450293
3   -0.444285
4   -0.193292
5   -0.053865
6   0.123517
7   0.135027
8   0.187658
9   -0.246722
10   -0.26238
11   -0.257044
12   -0.269046
13   -0.223156
14   -0.341835
15   0.144181
16   0.150762
17   0.149392
18   0.151728
19   0.155898
20   0.147455
21   0.147647
22   0.152771
23   0.153705
24   0.137008
25   0.137741
26   0.117526
27   0.30415
28   0.314495
29   0.378783

$$$$

