PCCDB-ID:  16298
public computational chemistry database (PCCDB) project, http://pccdb.org

 28 28  0  0  0  0  0  0  0  0999 V2000
    5.8347    3.8116    0.9598 C   0  0  0  0  0  0  0  0  0  0  0  0
    4.9937    2.8315    0.1348 C   0  0  0  0  0  0  0  0  0  0  0  0
    5.5351    1.3961    0.1867 C   0  0  0  0  0  0  0  0  0  0  0  0
    6.8498    0.8498   -6.6398 C   0  0  0  0  0  0  0  0  0  0  0  0
    5.5243    0.9481   -6.2236 C   0  0  0  0  0  0  0  0  0  0  0  0
    7.8481    0.6175   -5.6871 C   0  0  0  0  0  0  0  0  0  0  0  0
    4.6903    0.3599   -0.5723 C   0  0  0  0  0  0  0  0  0  0  0  0
    5.1821    0.8190   -4.8735 C   0  0  0  0  0  0  0  0  0  0  0  0
    7.5244    0.4862   -4.3415 C   0  0  0  0  0  0  0  0  0  0  0  0
    4.6415    0.5513   -2.0845 C   0  0  0  0  0  0  0  0  0  0  0  0
    6.1877    0.5876   -3.9268 C   0  0  0  0  0  0  0  0  0  0  0  0
    5.9727    0.4433   -2.5856 O   0  0  0  0  0  0  0  0  0  0  0  0
    5.4292    4.8285    0.9092 H   0  0  0  0  0  0  0  0  0  0  0  0
    6.8691    3.8465    0.5968 H   0  0  0  0  0  0  0  0  0  0  0  0
    5.8647    3.5165    2.0160 H   0  0  0  0  0  0  0  0  0  0  0  0
    4.9566    3.1809   -0.9057 H   0  0  0  0  0  0  0  0  0  0  0  0
    3.9559    2.8426    0.4993 H   0  0  0  0  0  0  0  0  0  0  0  0
    5.6003    1.0814    1.2377 H   0  0  0  0  0  0  0  0  0  0  0  0
    6.5595    1.3767   -0.2056 H   0  0  0  0  0  0  0  0  0  0  0  0
    7.1051    0.9499   -7.6907 H   0  0  0  0  0  0  0  0  0  0  0  0
    4.7371    1.1271   -6.9517 H   0  0  0  0  0  0  0  0  0  0  0  0
    8.8875    0.5386   -5.9952 H   0  0  0  0  0  0  0  0  0  0  0  0
    3.6551    0.3775   -0.2030 H   0  0  0  0  0  0  0  0  0  0  0  0
    5.0797   -0.6456   -0.3694 H   0  0  0  0  0  0  0  0  0  0  0  0
    4.1434    0.8993   -4.5742 H   0  0  0  0  0  0  0  0  0  0  0  0
    8.2867    0.3061   -3.5897 H   0  0  0  0  0  0  0  0  0  0  0  0
    4.2219    1.5318   -2.3502 H   0  0  0  0  0  0  0  0  0  0  0  0
    4.0058   -0.2193   -2.5444 H   0  0  0  0  0  0  0  0  0  0  0  0
  1 15  1  0  0  0  0
  2  3  1  0  0  0  0
  2 17  1  0  0  0  0
  2  1  1  0  0  0  0
  3 18  1  0  0  0  0
  4  5  2  0  0  0  0
  4  6  1  0  0  0  0
  5  8  1  0  0  0  0
  6  9  2  0  0  0  0
  7 24  1  0  0  0  0
  7 23  1  0  0  0  0
  7  3  1  0  0  0  0
  8 25  1  0  0  0  0
  8 11  2  0  0  0  0
  9 11  1  0  0  0  0
  9 26  1  0  0  0  0
 10  7  1  0  0  0  0
 11 12  1  0  0  0  0
 12 10  1  0  0  0  0
 13  1  1  0  0  0  0
 14  1  1  0  0  0  0
 16  2  1  0  0  0  0
 19  3  1  0  0  0  0
 20  4  1  0  0  0  0
 21  5  1  0  0  0  0
 22  6  1  0  0  0  0
 27 10  1  0  0  0  0
 28 10  1  0  0  0  0
M  END
>  <HBA>
1

>  <HBD>
0

>  <TPSA>
9.23

>  <cid>
16298

>  <dipole>
1.21

>  <excitation_energy_1>
5.037

>  <excitation_energy_2>
5.451

>  <excitation_energy_3>
5.735

>  <excitation_energy_4>
5.766

>  <homo_energy>
-5.821

>  <homo_lumo_gap>
5.951

>  <logP>
3.256

>  <lumo_energy>
0.131

>  <melting_point>
5.76

>  <molecular_refractivity>
52.16

>  <oscillator_strength_1>
0.0324

>  <oscillator_strength_2>
0.0028

>  <oscillator_strength_3>
0.111

>  <oscillator_strength_4>
0.0099

>  <open_babel_can_smiles>
CCCCCOc1ccccc1

>  <mulliken_charges>
28
1   -0.441721
2   -0.253511
3   -0.248375
4   -0.133821
5   -0.137889
6   -0.132735
7   -0.282232
8   -0.19543
9   -0.176229
10   -0.035471
11   0.380204
12   -0.521937
13   0.141851
14   0.145339
15   0.141046
16   0.138071
17   0.126721
18   0.12879
19   0.152017
20   0.123909
21   0.127761
22   0.128458
23   0.133272
24   0.147503
25   0.131389
26   0.134236
27   0.140439
28   0.138347

>  <lowdin_charges>
28
1   -0.439934
2   -0.272984
3   -0.275895
4   -0.178589
5   -0.148562
6   -0.146197
7   -0.279494
8   -0.214558
9   -0.18595
10   -0.130044
11   0.104369
12   -0.205122
13   0.14848
14   0.147315
15   0.144516
16   0.139854
17   0.135279
18   0.140354
19   0.148914
20   0.154617
21   0.157675
22   0.156366
23   0.145386
24   0.151457
25   0.160238
26   0.165584
27   0.136527
28   0.140399

$$$$

