PCCDB-ID:  58733
public computational chemistry database (PCCDB) project, http://pccdb.org

 27 28  0  0  1  0  0  0  0  0999 V2000
    0.8335   -0.0882    0.6352 C   0  0  0  0  0  0  0  0  0  0  0  0
    5.2237   -2.4354   -0.4812 C   0  0  0  0  0  0  0  0  0  0  0  0
    4.4191    1.1794    0.4112 C   0  0  0  0  0  0  0  0  0  0  0  0
    3.0393    1.1317    0.5949 C   0  0  0  0  0  0  0  0  0  0  0  0
    5.1116    0.0253    0.0529 C   0  0  0  0  0  0  0  0  0  0  0  0
    1.1310   -4.3547    0.1077 C   0  0  0  0  0  0  0  0  0  0  0  0
    1.1995   -4.0866   -1.4200 C   0  0  0  0  0  0  0  0  0  0  0  0
    2.3301   -0.0615    0.4169 C   0  0  0  0  0  0  0  0  0  0  0  0
    4.4401   -1.1875   -0.1375 C   0  0  0  0  0  0  0  0  0  0  0  0
    3.0404   -1.2200    0.0387 C   0  0  0  0  0  0  0  0  0  0  0  0
    2.2950   -2.4949   -0.1750 C   0  0  3  0  0  0  0  0  0  0  0  0
    1.7157   -3.1656    0.7547 N   0  0  0  0  0  0  0  0  0  0  0  0
    2.2347   -3.0435   -1.4647 N   0  0  0  0  0  0  0  0  0  0  0  0
    0.4606    0.9103    0.8832 H   0  0  0  0  0  0  0  0  0  0  0  0
    0.5665   -0.7743    1.4446 H   0  0  0  0  0  0  0  0  0  0  0  0
    0.2982   -0.4329   -0.2586 H   0  0  0  0  0  0  0  0  0  0  0  0
    6.2946   -2.2174   -0.5347 H   0  0  0  0  0  0  0  0  0  0  0  0
    4.9100   -2.8672   -1.4367 H   0  0  0  0  0  0  0  0  0  0  0  0
    5.0744   -3.2128    0.2781 H   0  0  0  0  0  0  0  0  0  0  0  0
    4.9554    2.1140    0.5540 H   0  0  0  0  0  0  0  0  0  0  0  0
    2.4987    2.0303    0.8819 H   0  0  0  0  0  0  0  0  0  0  0  0
    6.1909    0.0576   -0.0752 H   0  0  0  0  0  0  0  0  0  0  0  0
    1.7267   -5.2362    0.3820 H   0  0  0  0  0  0  0  0  0  0  0  0
    0.1107   -4.5275    0.4654 H   0  0  0  0  0  0  0  0  0  0  0  0
    0.2398   -3.7158   -1.8105 H   0  0  0  0  0  0  0  0  0  0  0  0
    1.4902   -4.9670   -2.0012 H   0  0  0  0  0  0  0  0  0  0  0  0
    2.2149   -2.3860   -2.2360 H   0  0  0  0  0  0  0  0  0  0  0  0
  1 14  1  0  0  0  0
  1 15  1  0  0  0  0
  2  9  1  0  0  0  0
  2 19  1  0  0  0  0
  3 20  1  0  0  0  0
  3  4  1  0  0  0  0
  4 21  1  0  0  0  0
  5  3  2  0  0  0  0
  6 23  1  0  0  0  0
  6 24  1  0  0  0  0
  6 12  1  0  0  0  0
  7  6  1  0  0  0  0
  8  4  2  0  0  0  0
  8  1  1  0  0  0  0
  9 10  2  0  0  0  0
  9  5  1  0  0  0  0
 10  8  1  0  0  0  0
 11 10  1  0  0  0  0
 11 12  1  0  0  0  0
 13  7  1  0  0  0  0
 13 11  1  0  0  0  0
 16  1  1  0  0  0  0
 17  2  1  0  0  0  0
 18  2  1  0  0  0  0
 22  5  1  0  0  0  0
 25  7  1  0  0  0  0
 26  7  1  0  0  0  0
 27 13  1  0  0  0  0
M  RAD  2  11   2  12   2
M  END
>  <HBA>
2

>  <HBD>
1

>  <TPSA>
24.39

>  <cid>
58733

>  <dipole>
2.55

>  <excitation_energy_1>
4.833

>  <excitation_energy_2>
5.05

>  <excitation_energy_3>
5.233

>  <excitation_energy_4>
5.319

>  <homo_energy>
-5.88

>  <homo_lumo_gap>
5.595

>  <logP>
1.418

>  <lumo_energy>
-0.286

>  <melting_point>
83.12

>  <molecular_refractivity>
62.57

>  <oscillator_strength_1>
0.0184

>  <oscillator_strength_2>
0.0125

>  <oscillator_strength_3>
0.0057

>  <oscillator_strength_4>
0.0059

>  <open_babel_can_smiles>
Cc1cccc(c1[C]1[N]CCN1)C

>  <mulliken_charges>
27
1   -0.527268
2   -0.530364
3   -0.108418
4   -0.20144
5   -0.201639
6   -0.161027
7   -0.14749
8   0.16132
9   0.158463
10   -0.010963
11   0.361502
12   -0.452789
13   -0.594892
14   0.147256
15   0.193108
16   0.146432
17   0.148619
18   0.170079
19   0.172089
20   0.12733
21   0.122032
22   0.121869
23   0.15158
24   0.148469
25   0.139198
26   0.151199
27   0.315747

>  <lowdin_charges>
27
1   -0.445792
2   -0.445469
3   -0.150668
4   -0.174721
5   -0.171709
6   -0.209042
7   -0.213151
8   0.012359
9   0.009063
10   -0.03968
11   0.088741
12   -0.233476
13   -0.318729
14   0.152718
15   0.177442
16   0.154557
17   0.152523
18   0.164504
19   0.167213
20   0.157517
21   0.155238
22   0.152514
23   0.148
24   0.14896
25   0.135139
26   0.150695
27   0.27525

$$$$

