PCCDB-ID:  9740
public computational chemistry database (PCCDB) project, http://pccdb.org

  9  8  0  0  0  0  0  0  0  0999 V2000
    1.1152   -0.2696    0.1816 C   0  0  0  0  0  0  0  0  0  0  0  0
    0.4713    0.7470    1.0090 C   0  0  0  0  0  0  0  0  0  0  0  0
    2.5394    0.0989   -0.3065 C   0  0  0  0  0  0  0  0  0  0  0  0
    0.0393    1.6090    1.6569 N   0  0  0  0  0  0  0  0  0  0  0  0
    3.1593   -0.6682   -0.9928 O   0  0  0  0  0  0  0  0  0  0  0  0
    3.0376    1.2907    0.0658 O   0  0  0  0  0  0  0  0  0  0  0  0
    0.5083   -0.4736   -0.7073 H   0  0  0  0  0  0  0  0  0  0  0  0
    1.1936   -1.2120    0.7346 H   0  0  0  0  0  0  0  0  0  0  0  0
    2.4063    1.7865    0.6189 H   0  0  0  0  0  0  0  0  0  0  0  0
  1  8  1  0  0  0  0
  1  2  1  0  0  0  0
  2  4  3  0  0  0  0
  3  6  1  0  0  0  0
  3  1  1  0  0  0  0
  5  3  2  0  0  0  0
  6  9  1  0  0  0  0
  7  1  1  0  0  0  0
M  END
>  <HBA>
3

>  <HBD>
1

>  <TPSA>
61.09

>  <cid>
9740

>  <dipole>
1.8

>  <excitation_energy_1>
5.776

>  <excitation_energy_2>
6.939

>  <excitation_energy_3>
7.091

>  <excitation_energy_4>
7.257

>  <homo_energy>
-8.128

>  <homo_lumo_gap>
7.627

>  <logP>
-0.015

>  <lumo_energy>
-0.501

>  <melting_point>
86.49

>  <molecular_refractivity>
18.06

>  <oscillator_strength_1>
0.0004

>  <oscillator_strength_2>
0.0151

>  <oscillator_strength_3>
0.0711

>  <oscillator_strength_4>
0.0004

>  <open_babel_can_smiles>
OC(=O)CC#N

>  <mulliken_charges>
9
1   -0.447819
2   0.340231
3   0.6117
4   -0.453386
5   -0.420425
6   -0.553001
7   0.244509
8   0.244533
9   0.433657

>  <lowdin_charges>
9
1   -0.316691
2   -0.029788
3   0.204161
4   -0.105757
5   -0.222496
6   -0.333268
7   0.215111
8   0.214678
9   0.374049

$$$$

