PCCDB-ID:  14265
public computational chemistry database (PCCDB) project, http://pccdb.org

 17 17  0  0  1  0  0  0  0  0999 V2000
    1.0454   -0.0546   -0.3379 C   0  0  0  0  0  0  0  0  0  0  0  0
    3.7956    0.9730   -1.8756 C   0  0  0  0  0  0  0  0  0  0  0  0
    3.2389    1.3112   -0.4714 C   0  0  0  0  0  0  0  0  0  0  0  0
    4.2593   -0.4867   -1.7488 C   0  0  0  0  0  0  0  0  0  0  0  0
    2.5448    0.0173    0.0059 C   0  0  2  0  0  0  0  0  0  0  0  0
    3.2996   -1.1077   -0.7285 C   0  0  0  0  0  0  0  0  0  0  0  0
    3.1373   -2.2934   -0.5368 O   0  0  0  0  0  0  0  0  0  0  0  0
    0.4855    0.6997    0.2257 H   0  0  0  0  0  0  0  0  0  0  0  0
    0.6475   -1.0435   -0.0902 H   0  0  0  0  0  0  0  0  0  0  0  0
    0.8679    0.1239   -1.4053 H   0  0  0  0  0  0  0  0  0  0  0  0
    4.5930    1.6547   -2.1868 H   0  0  0  0  0  0  0  0  0  0  0  0
    2.9971    1.0467   -2.6245 H   0  0  0  0  0  0  0  0  0  0  0  0
    2.5649    2.1744   -0.4829 H   0  0  0  0  0  0  0  0  0  0  0  0
    4.0705    1.5594    0.2006 H   0  0  0  0  0  0  0  0  0  0  0  0
    5.2727   -0.5421   -1.3242 H   0  0  0  0  0  0  0  0  0  0  0  0
    4.2689   -1.0621   -2.6791 H   0  0  0  0  0  0  0  0  0  0  0  0
    2.6569   -0.1423    1.0851 H   0  0  0  0  0  0  0  0  0  0  0  0
  1  9  1  0  0  0  0
  1  5  1  0  0  0  0
  1  8  1  0  0  0  0
  2  4  1  0  0  0  0
  2  3  1  0  0  0  0
  3  5  1  0  0  0  0
  3 14  1  0  0  0  0
  4 15  1  0  0  0  0
  4  6  1  0  0  0  0
  5 17  1  1  0  0  0
  6  7  2  0  0  0  0
  6  5  1  0  0  0  0
 10  1  1  0  0  0  0
 11  2  1  0  0  0  0
 12  2  1  0  0  0  0
 13  3  1  0  0  0  0
 16  4  1  0  0  0  0
M  END
>  <HBA>
1

>  <HBD>
0

>  <TPSA>
17.07

>  <cid>
14265

>  <dipole>
2.78

>  <excitation_energy_1>
4.137

>  <excitation_energy_2>
6.022

>  <excitation_energy_3>
6.511

>  <excitation_energy_4>
6.555

>  <homo_energy>
-6.37

>  <homo_lumo_gap>
5.938

>  <logP>
1.375

>  <lumo_energy>
-0.433

>  <melting_point>
17.41

>  <molecular_refractivity>
29.04

>  <oscillator_strength_1>
0.0001

>  <oscillator_strength_2>
0.0096

>  <oscillator_strength_3>
0.0055

>  <oscillator_strength_4>
0.0064

>  <open_babel_can_smiles>
O=C1CCC[C@H]1C

>  <mulliken_charges>
17
1   -0.452484
2   -0.284321
3   -0.285911
4   -0.352041
5   -0.154934
6   0.445818
7   -0.453348
8   0.15017
9   0.170923
10   0.145849
11   0.144847
12   0.146849
13   0.142224
14   0.140768
15   0.169837
16   0.170268
17   0.155486

>  <lowdin_charges>
17
1   -0.436505
2   -0.283957
3   -0.285785
4   -0.315684
5   -0.160664
6   0.157591
7   -0.229857
8   0.154453
9   0.163436
10   0.146959
11   0.151816
12   0.146156
13   0.149671
14   0.146442
15   0.168552
16   0.168506
17   0.158869

$$$$

