PCCDB-ID:  11071
public computational chemistry database (PCCDB) project, http://pccdb.org

 27 27  0  0  0  0  0  0  0  0999 V2000
    2.1216    1.6312   -0.8460 C   0  0  0  0  0  0  0  0  0  0  0  0
    2.8211   -0.1789    0.7366 C   0  0  0  0  0  0  0  0  0  0  0  0
    7.4931   -2.9567   -0.3172 C   0  0  0  0  0  0  0  0  0  0  0  0
    7.4107    0.7987   -0.5224 C   0  0  0  0  0  0  0  0  0  0  0  0
    3.8949    0.0655   -1.5895 C   0  0  0  0  0  0  0  0  0  0  0  0
    2.9041    0.5826   -0.5614 C   0  0  0  0  0  0  0  0  0  0  0  0
    6.1076    0.9816   -0.8878 C   0  0  0  0  0  0  0  0  0  0  0  0
    7.9655   -0.5121   -0.3318 C   0  0  0  0  0  0  0  0  0  0  0  0
    5.7108   -1.4264   -0.8713 C   0  0  0  0  0  0  0  0  0  0  0  0
    5.5632    2.2224   -1.1536 N   0  0  0  0  0  0  0  0  0  0  0  0
    7.0329   -1.5803   -0.5155 N   0  0  0  0  0  0  0  0  0  0  0  0
    5.2653   -0.1045   -1.0749 N   0  0  0  0  0  0  0  0  0  0  0  0
    9.1252   -0.7527   -0.0176 O   0  0  0  0  0  0  0  0  0  0  0  0
    4.9518   -2.3783   -1.0121 O   0  0  0  0  0  0  0  0  0  0  0  0
    1.3642    1.9845   -0.1511 H   0  0  0  0  0  0  0  0  0  0  0  0
    2.1892    2.1546   -1.7978 H   0  0  0  0  0  0  0  0  0  0  0  0
    2.0196    0.2048    1.3741 H   0  0  0  0  0  0  0  0  0  0  0  0
    3.7629   -0.1147    1.2957 H   0  0  0  0  0  0  0  0  0  0  0  0
    2.6465   -1.2451    0.5486 H   0  0  0  0  0  0  0  0  0  0  0  0
    8.5459   -2.9020   -0.0477 H   0  0  0  0  0  0  0  0  0  0  0  0
    7.3596   -3.5337   -1.2358 H   0  0  0  0  0  0  0  0  0  0  0  0
    6.9158   -3.4353    0.4780 H   0  0  0  0  0  0  0  0  0  0  0  0
    8.0646    1.6445   -0.3535 H   0  0  0  0  0  0  0  0  0  0  0  0
    3.9329    0.7264   -2.4604 H   0  0  0  0  0  0  0  0  0  0  0  0
    3.5913   -0.9309   -1.9181 H   0  0  0  0  0  0  0  0  0  0  0  0
    6.1610    2.9941   -0.8867 H   0  0  0  0  0  0  0  0  0  0  0  0
    4.5967    2.3595   -0.8755 H   0  0  0  0  0  0  0  0  0  0  0  0
  1  6  2  0  0  0  0
  1 15  1  0  0  0  0
  2 18  1  0  0  0  0
  2 17  1  0  0  0  0
  3 20  1  0  0  0  0
  3 22  1  0  0  0  0
  4 23  1  0  0  0  0
  4  8  1  0  0  0  0
  5 12  1  0  0  0  0
  5  6  1  0  0  0  0
  6  2  1  0  0  0  0
  7  4  2  0  0  0  0
  8 13  2  0  0  0  0
  9 11  1  0  0  0  0
 10  7  1  0  0  0  0
 10 26  1  0  0  0  0
 10 27  1  0  0  0  0
 11  8  1  0  0  0  0
 11  3  1  0  0  0  0
 12  7  1  0  0  0  0
 12  9  1  0  0  0  0
 14  9  2  0  0  0  0
 16  1  1  0  0  0  0
 19  2  1  0  0  0  0
 21  3  1  0  0  0  0
 24  5  1  0  0  0  0
 25  5  1  0  0  0  0
M  END
>  <HBA>
5

>  <HBD>
1

>  <TPSA>
70.02

>  <cid>
11071

>  <dipole>
5.45

>  <excitation_energy_1>
4.852

>  <excitation_energy_2>
5.087

>  <excitation_energy_3>
5.118

>  <excitation_energy_4>
5.183

>  <homo_energy>
-5.968

>  <homo_lumo_gap>
5.679

>  <logP>
0.286

>  <lumo_energy>
-0.288

>  <melting_point>
110.52

>  <molecular_refractivity>
55.84

>  <oscillator_strength_1>
0.0028

>  <oscillator_strength_2>
0.0315

>  <oscillator_strength_3>
0.0146

>  <oscillator_strength_4>
0.1765

>  <open_babel_can_smiles>
Cn1c(=O)n(CC(=C)C)c(cc1=O)N

>  <mulliken_charges>
27
1   -0.411203
2   -0.51412
3   -0.317893
4   -0.316569
5   -0.243431
6   0.212295
7   0.576307
8   0.626554
9   0.805057
10   -0.79264
11   -0.55321
12   -0.570225
13   -0.535706
14   -0.537675
15   0.149506
16   0.146058
17   0.157401
18   0.166315
19   0.185415
20   0.20275
21   0.173039
22   0.171194
23   0.139029
24   0.175474
25   0.219203
26   0.34265
27   0.344423

>  <lowdin_charges>
27
1   -0.364739
2   -0.443493
3   -0.349876
4   -0.309722
5   -0.202631
6   -0.001496
7   0.130595
8   0.16341
9   0.19206
10   -0.470714
11   -0.086731
12   -0.077399
13   -0.306883
14   -0.320435
15   0.163938
16   0.158775
17   0.161089
18   0.163983
19   0.172759
20   0.18308
21   0.164051
22   0.163958
23   0.176411
24   0.164381
25   0.194933
26   0.291986
27   0.288711

$$$$

