PCCDB-ID:  16724
public computational chemistry database (PCCDB) project, http://pccdb.org

 25 25  0  0  1  0  0  0  0  0999 V2000
    1.0061   -0.1493   -0.7171 C   0  0  0  0  0  0  0  0  0  0  0  0
    2.4547   -1.4553    0.8146 C   0  0  0  0  0  0  0  0  0  0  0  0
    5.8946    4.3235    0.1370 C   0  0  0  0  0  0  0  0  0  0  0  0
    3.5576    3.4195   -0.1014 C   0  0  0  0  0  0  0  0  0  0  0  0
    2.5304    2.3291   -0.2505 C   0  0  0  0  0  0  0  0  0  0  0  0
    4.4307    0.7154   -0.4285 C   0  0  0  0  0  0  0  0  0  0  0  0
    2.1020   -0.2007    0.0479 C   0  0  0  0  0  0  0  0  0  0  0  0
    4.8880    3.2181   -0.0360 C   0  0  0  0  0  0  0  0  0  0  0  0
    3.0569    0.9695    0.2328 C   0  0  2  0  0  0  0  0  0  0  0  0
    5.4282    1.8366   -0.1553 C   0  0  0  0  0  0  0  0  0  0  0  0
    6.6281    1.6131   -0.0737 O   0  0  0  0  0  0  0  0  0  0  0  0
    0.7112    0.7377   -1.2686 H   0  0  0  0  0  0  0  0  0  0  0  0
    0.3519   -1.0116   -0.8175 H   0  0  0  0  0  0  0  0  0  0  0  0
    1.7108   -2.2416    0.6564 H   0  0  0  0  0  0  0  0  0  0  0  0
    2.5124   -1.2528    1.8929 H   0  0  0  0  0  0  0  0  0  0  0  0
    3.4327   -1.8561    0.5193 H   0  0  0  0  0  0  0  0  0  0  0  0
    5.4053    5.3000    0.2036 H   0  0  0  0  0  0  0  0  0  0  0  0
    6.6046    4.3394   -0.6978 H   0  0  0  0  0  0  0  0  0  0  0  0
    6.4917    4.1665    1.0425 H   0  0  0  0  0  0  0  0  0  0  0  0
    3.1788    4.4407   -0.0522 H   0  0  0  0  0  0  0  0  0  0  0  0
    2.2393    2.2656   -1.3114 H   0  0  0  0  0  0  0  0  0  0  0  0
    1.6165    2.6000    0.2926 H   0  0  0  0  0  0  0  0  0  0  0  0
    4.2927    0.6448   -1.5186 H   0  0  0  0  0  0  0  0  0  0  0  0
    4.8913   -0.2213   -0.1036 H   0  0  0  0  0  0  0  0  0  0  0  0
    3.2402    1.0656    1.3154 H   0  0  0  0  0  0  0  0  0  0  0  0
  1  7  2  0  0  0  0
  2 15  1  0  0  0  0
  3 17  1  0  0  0  0
  3 19  1  0  0  0  0
  4 20  1  0  0  0  0
  4  8  2  0  0  0  0
  5  4  1  0  0  0  0
  5  9  1  0  0  0  0
  5 22  1  0  0  0  0
  6 10  1  0  0  0  0
  6 24  1  0  0  0  0
  6  9  1  0  0  0  0
  7  9  1  0  0  0  0
  7  2  1  0  0  0  0
  8  3  1  0  0  0  0
  9 25  1  1  0  0  0
 10 11  2  0  0  0  0
 10  8  1  0  0  0  0
 12  1  1  0  0  0  0
 13  1  1  0  0  0  0
 14  2  1  0  0  0  0
 16  2  1  0  0  0  0
 18  3  1  0  0  0  0
 21  5  1  0  0  0  0
 23  6  1  0  0  0  0
M  END
>  <HBA>
1

>  <HBD>
0

>  <TPSA>
17.07

>  <cid>
16724

>  <dipole>
2.95

>  <excitation_energy_1>
3.657

>  <excitation_energy_2>
4.834

>  <excitation_energy_3>
5.386

>  <excitation_energy_4>
5.972

>  <homo_energy>
-6.414

>  <homo_lumo_gap>
5.173

>  <logP>
2.488

>  <lumo_energy>
-1.241

>  <melting_point>
10.78

>  <molecular_refractivity>
47.32

>  <oscillator_strength_1>
0.0003

>  <oscillator_strength_2>
0.0124

>  <oscillator_strength_3>
0.1564

>  <oscillator_strength_4>
0.0552

>  <open_babel_can_smiles>
CC(=C)[C@@H]1CC=C(C(=O)C1)C

>  <mulliken_charges>
25
1   -0.407111
2   -0.516962
3   -0.505444
4   -0.174091
5   -0.313305
6   -0.359895
7   0.228613
8   0.126758
9   -0.165555
10   0.404286
11   -0.469156
12   0.135728
13   0.134398
14   0.155674
15   0.155523
16   0.1618
17   0.143432
18   0.169794
19   0.171577
20   0.135568
21   0.159742
22   0.156548
23   0.166388
24   0.166334
25   0.139354

>  <lowdin_charges>
25
1   -0.367258
2   -0.440259
3   -0.43536
4   -0.136836
5   -0.275928
6   -0.298786
7   0.006356
8   -0.049591
9   -0.120803
10   0.145967
11   -0.247132
12   0.155776
13   0.157266
14   0.159258
15   0.154941
16   0.157778
17   0.15199
18   0.167323
19   0.168239
20   0.156674
21   0.157034
22   0.15866
23   0.163734
24   0.165296
25   0.14566

$$$$

