PCCDB-ID:  14505
public computational chemistry database (PCCDB) project, http://pccdb.org

 14 14  0  0  0  0  0  0  0  0999 V2000
    2.9218    1.6622   -0.0288 C   0  0  0  0  0  0  0  0  0  0  0  0
    4.4392   -1.6854   -2.5821 C   0  0  0  0  0  0  0  0  0  0  0  0
    4.1746   -0.4365   -1.9504 C   0  0  0  0  0  0  0  0  0  0  0  0
    3.6141   -2.5890   -1.9728 C   0  0  0  0  0  0  0  0  0  0  0  0
    2.5195    0.1950   -0.0297 C   0  0  0  0  0  0  0  0  0  0  0  0
    3.2076   -0.6689   -1.0014 C   0  0  0  0  0  0  0  0  0  0  0  0
    1.6739   -0.2465    0.7322 O   0  0  0  0  0  0  0  0  0  0  0  0
    2.8648   -1.9959   -1.0182 O   0  0  0  0  0  0  0  0  0  0  0  0
    3.9899    1.7765    0.1914 H   0  0  0  0  0  0  0  0  0  0  0  0
    2.3379    2.1831    0.7320 H   0  0  0  0  0  0  0  0  0  0  0  0
    2.7361    2.1215   -1.0071 H   0  0  0  0  0  0  0  0  0  0  0  0
    5.1419   -1.8866   -3.3784 H   0  0  0  0  0  0  0  0  0  0  0  0
    4.6404    0.5145   -2.1680 H   0  0  0  0  0  0  0  0  0  0  0  0
    3.4552   -3.6493   -2.1026 H   0  0  0  0  0  0  0  0  0  0  0  0
  1  9  1  0  0  0  0
  1 10  1  0  0  0  0
  2  4  2  0  0  0  0
  2  3  1  0  0  0  0
  3  6  2  0  0  0  0
  4  8  1  0  0  0  0
  5  1  1  0  0  0  0
  5  7  2  0  0  0  0
  6  5  1  0  0  0  0
  8  6  1  0  0  0  0
 11  1  1  0  0  0  0
 12  2  1  0  0  0  0
 13  3  1  0  0  0  0
 14  4  1  0  0  0  0
M  END
>  <HBA>
2

>  <HBD>
0

>  <TPSA>
30.21

>  <cid>
14505

>  <dipole>
3.89

>  <excitation_energy_1>
3.79

>  <excitation_energy_2>
4.92

>  <excitation_energy_3>
5.846

>  <excitation_energy_4>
6.054

>  <homo_energy>
-6.607

>  <homo_lumo_gap>
5.206

>  <logP>
1.482

>  <lumo_energy>
-1.401

>  <melting_point>
37.44

>  <molecular_refractivity>
28.9

>  <oscillator_strength_1>
0.0001

>  <oscillator_strength_2>
0.3312

>  <oscillator_strength_3>
0.0328

>  <oscillator_strength_4>
0.0015

>  <open_babel_can_smiles>
CC(=O)c1ccco1

>  <mulliken_charges>
14
1   -0.542366
2   -0.186976
3   -0.191717
4   0.107092
5   0.394506
6   0.28303
7   -0.449942
8   -0.411343
9   0.17038
10   0.184516
11   0.170207
12   0.151939
13   0.152569
14   0.168105

>  <lowdin_charges>
14
1   -0.472952
2   -0.205938
3   -0.180961
4   -0.050524
5   0.14632
6   0.023548
7   -0.234166
8   -0.065037
9   0.168221
10   0.177907
11   0.169276
12   0.174425
13   0.174516
14   0.175364

$$$$

