PCCDB-ID:  70752
public computational chemistry database (PCCDB) project, http://pccdb.org

 23 23  0  0  0  0  0  0  0  0999 V2000
    1.0802    0.4829    0.2553 C   0  0  0  0  0  0  0  0  0  0  0  0
    4.0792   -4.4396    3.2543 C   0  0  0  0  0  0  0  0  0  0  0  0
    1.9821   -2.8912   -1.0909 C   0  0  0  0  0  0  0  0  0  0  0  0
    2.4658   -0.0479   -0.1554 C   0  0  0  0  0  0  0  0  0  0  0  0
    3.0337   -3.6108    1.0878 C   0  0  0  0  0  0  0  0  0  0  0  0
    3.8284   -1.9920    2.6292 C   0  0  0  0  0  0  0  0  0  0  0  0
    3.6439   -3.3405    2.3170 C   0  0  0  0  0  0  0  0  0  0  0  0
    2.6378   -2.5796    0.2349 C   0  0  0  0  0  0  0  0  0  0  0  0
    2.8811   -1.2547    0.6604 C   0  0  0  0  0  0  0  0  0  0  0  0
    3.4647   -0.9799    1.8360 N   0  0  0  0  0  0  0  0  0  0  0  0
    0.8147    1.3741   -0.3248 H   0  0  0  0  0  0  0  0  0  0  0  0
    1.0784    0.7507    1.3170 H   0  0  0  0  0  0  0  0  0  0  0  0
    0.2974   -0.2684    0.0969 H   0  0  0  0  0  0  0  0  0  0  0  0
    3.2322   -5.0659    3.5609 H   0  0  0  0  0  0  0  0  0  0  0  0
    4.5341   -4.0284    4.1612 H   0  0  0  0  0  0  0  0  0  0  0  0
    4.8159   -5.1022    2.7832 H   0  0  0  0  0  0  0  0  0  0  0  0
    1.8467   -3.9706   -1.2134 H   0  0  0  0  0  0  0  0  0  0  0  0
    2.5846   -2.5358   -1.9363 H   0  0  0  0  0  0  0  0  0  0  0  0
    0.9959   -2.4207   -1.1817 H   0  0  0  0  0  0  0  0  0  0  0  0
    3.2112    0.7370    0.0097 H   0  0  0  0  0  0  0  0  0  0  0  0
    2.4691   -0.2831   -1.2258 H   0  0  0  0  0  0  0  0  0  0  0  0
    2.8628   -4.6439    0.7872 H   0  0  0  0  0  0  0  0  0  0  0  0
    4.3001   -1.7124    3.5718 H   0  0  0  0  0  0  0  0  0  0  0  0
  1 12  1  0  0  0  0
  2 14  1  0  0  0  0
  2 15  1  0  0  0  0
  3  8  1  0  0  0  0
  4 20  1  0  0  0  0
  4  1  1  0  0  0  0
  4  9  1  0  0  0  0
  5  7  2  0  0  0  0
  6 23  1  0  0  0  0
  7  6  1  0  0  0  0
  7  2  1  0  0  0  0
  8  9  2  0  0  0  0
  8  5  1  0  0  0  0
  9 10  1  0  0  0  0
 10  6  2  0  0  0  0
 11  1  1  0  0  0  0
 13  1  1  0  0  0  0
 16  2  1  0  0  0  0
 17  3  1  0  0  0  0
 18  3  1  0  0  0  0
 19  3  1  0  0  0  0
 21  4  1  0  0  0  0
 22  5  1  0  0  0  0
M  END
>  <HBA>
1

>  <HBD>
0

>  <TPSA>
12.89

>  <cid>
70752

>  <dipole>
2.11

>  <excitation_energy_1>
4.816

>  <excitation_energy_2>
5.12

>  <excitation_energy_3>
5.226

>  <excitation_energy_4>
5.825

>  <homo_energy>
-6.357

>  <homo_lumo_gap>
5.997

>  <logP>
2.261

>  <lumo_energy>
-0.359

>  <melting_point>
31.67

>  <molecular_refractivity>
43.94

>  <oscillator_strength_1>
0.0052

>  <oscillator_strength_2>
0.0881

>  <oscillator_strength_3>
0.0001

>  <oscillator_strength_4>
0.0882

>  <open_babel_can_smiles>
CCc1ncc(cc1C)C

>  <mulliken_charges>
23
1   -0.444033
2   -0.53592
3   -0.541234
4   -0.307614
5   -0.201386
6   -0.02233
7   0.169252
8   0.143778
9   0.241271
10   -0.467223
11   0.143419
12   0.164219
13   0.141574
14   0.163218
15   0.159932
16   0.16329
17   0.154537
18   0.16664
19   0.166206
20   0.158917
21   0.132879
22   0.122845
23   0.127764

>  <lowdin_charges>
23
1   -0.439329
2   -0.443168
3   -0.441884
4   -0.276783
5   -0.149981
6   -0.108533
7   -0.023331
8   -0.022341
9   0.039604
10   -0.156541
11   0.149963
12   0.15634
13   0.145714
14   0.161853
15   0.159887
16   0.162236
17   0.1552
18   0.162344
19   0.160882
20   0.161736
21   0.143593
22   0.152683
23   0.149855

$$$$

