PCCDB-ID:  7379
public computational chemistry database (PCCDB) project, http://pccdb.org

 28 28  0  0  0  0  0  0  0  0999 V2000
    0.9837   -0.0651   -0.2496 C   0  0  0  0  0  0  0  0  0  0  0  0
    5.0543    3.1171   -1.7821 C   0  0  0  0  0  0  0  0  0  0  0  0
    4.8670    3.5370    0.6985 C   0  0  0  0  0  0  0  0  0  0  0  0
    6.8815    2.3937   -0.2385 C   0  0  0  0  0  0  0  0  0  0  0  0
    5.2898   -0.0111    0.0358 C   0  0  0  0  0  0  0  0  0  0  0  0
    4.5875   -1.2102    0.1832 C   0  0  0  0  0  0  0  0  0  0  0  0
    3.2211    1.1386   -0.2947 C   0  0  0  0  0  0  0  0  0  0  0  0
    2.4881   -0.0386   -0.1519 C   0  0  0  0  0  0  0  0  0  0  0  0
    4.6243    1.1942   -0.2074 C   0  0  0  0  0  0  0  0  0  0  0  0
    3.1983   -1.2275    0.0910 C   0  0  0  0  0  0  0  0  0  0  0  0
    5.3543    2.5388   -0.3786 C   0  0  0  0  0  0  0  0  0  0  0  0
    2.4602   -2.3768    0.2284 O   0  0  0  0  0  0  0  0  0  0  0  0
    0.5870    0.9342   -0.4539 H   0  0  0  0  0  0  0  0  0  0  0  0
    0.5297   -0.4317    0.6791 H   0  0  0  0  0  0  0  0  0  0  0  0
    0.6471   -0.7387   -1.0468 H   0  0  0  0  0  0  0  0  0  0  0  0
    5.5632    4.0796   -1.9183 H   0  0  0  0  0  0  0  0  0  0  0  0
    3.9824    3.2837   -1.9331 H   0  0  0  0  0  0  0  0  0  0  0  0
    5.3992    2.4352   -2.5677 H   0  0  0  0  0  0  0  0  0  0  0  0
    5.3757    4.5025    0.5851 H   0  0  0  0  0  0  0  0  0  0  0  0
    5.0750    3.1585    1.7058 H   0  0  0  0  0  0  0  0  0  0  0  0
    3.7894    3.7193    0.6274 H   0  0  0  0  0  0  0  0  0  0  0  0
    7.3601    3.3716   -0.3637 H   0  0  0  0  0  0  0  0  0  0  0  0
    7.2989    1.7227   -0.9981 H   0  0  0  0  0  0  0  0  0  0  0  0
    7.1653    2.0114    0.7488 H   0  0  0  0  0  0  0  0  0  0  0  0
    6.3708   -0.0389    0.1151 H   0  0  0  0  0  0  0  0  0  0  0  0
    5.1291   -2.1363    0.3719 H   0  0  0  0  0  0  0  0  0  0  0  0
    2.6628    2.0526   -0.4833 H   0  0  0  0  0  0  0  0  0  0  0  0
    3.0656   -3.1168    0.3905 H   0  0  0  0  0  0  0  0  0  0  0  0
  1  8  1  0  0  0  0
  1 14  1  0  0  0  0
  2 11  1  0  0  0  0
  3 20  1  0  0  0  0
  4 24  1  0  0  0  0
  5 25  1  0  0  0  0
  5  6  2  0  0  0  0
  6 26  1  0  0  0  0
  7  9  2  0  0  0  0
  7  8  1  0  0  0  0
  8 10  2  0  0  0  0
  9  5  1  0  0  0  0
 10  6  1  0  0  0  0
 10 12  1  0  0  0  0
 11  4  1  0  0  0  0
 11  9  1  0  0  0  0
 11  3  1  0  0  0  0
 12 28  1  0  0  0  0
 13  1  1  0  0  0  0
 15  1  1  0  0  0  0
 16  2  1  0  0  0  0
 17  2  1  0  0  0  0
 18  2  1  0  0  0  0
 19  3  1  0  0  0  0
 21  3  1  0  0  0  0
 22  4  1  0  0  0  0
 23  4  1  0  0  0  0
 27  7  1  0  0  0  0
M  END
>  <HBA>
1

>  <HBD>
1

>  <TPSA>
20.23

>  <cid>
7379

>  <dipole>
1.1

>  <excitation_energy_1>
4.957

>  <excitation_energy_2>
4.966

>  <excitation_energy_3>
5.452

>  <excitation_energy_4>
5.666

>  <homo_energy>
-5.649

>  <homo_lumo_gap>
5.864

>  <logP>
2.998

>  <lumo_energy>
0.215

>  <melting_point>
57.92

>  <molecular_refractivity>
52.7

>  <oscillator_strength_1>
0.0388

>  <oscillator_strength_2>
0.0004

>  <oscillator_strength_3>
0.005

>  <oscillator_strength_4>
0.0516

>  <open_babel_can_smiles>
Oc1ccc(cc1C)C(C)(C)C

>  <mulliken_charges>
28
1   -0.51463
2   -0.437091
3   -0.437559
4   -0.45645
5   -0.210138
6   -0.192089
7   -0.262276
8   0.148867
9   0.190043
10   0.292352
11   0.018432
12   -0.646711
13   0.145738
14   0.165453
15   0.165731
16   0.135396
17   0.141756
18   0.145385
19   0.135462
20   0.145521
21   0.141785
22   0.139549
23   0.143523
24   0.143633
25   0.123566
26   0.111837
27   0.116819
28   0.406094

>  <lowdin_charges>
28
1   -0.437436
2   -0.438748
3   -0.43676
4   -0.444651
5   -0.165823
6   -0.215247
7   -0.166904
8   -0.025657
9   -0.01889
10   0.089516
11   0.018693
12   -0.385114
13   0.152734
14   0.163149
15   0.16391
16   0.144818
17   0.146269
18   0.151582
19   0.144805
20   0.149986
21   0.146082
22   0.149255
23   0.149547
24   0.14818
25   0.156685
26   0.150302
27   0.152018
28   0.357697

$$$$

