PCCDB-ID:  4138
public computational chemistry database (PCCDB) project, http://pccdb.org

 28 28  0  0  1  0  0  0  0  0999 V2000
    0.7349   -0.0679    0.3088 C   0  0  0  0  0  0  0  0  0  0  0  0
    3.3287   -2.5958   -1.9167 C   0  0  0  0  0  0  0  0  0  0  0  0
    2.9820   -3.7356   -2.6507 C   0  0  0  0  0  0  0  0  0  0  0  0
    1.3447   -1.4996   -2.7119 C   0  0  0  0  0  0  0  0  0  0  0  0
    2.8704   -0.2315   -1.1241 C   0  0  0  0  0  0  0  0  0  0  0  0
    2.5110   -1.4614   -1.9282 C   0  0  0  0  0  0  0  0  0  0  0  0
    1.8199   -3.7682   -3.4160 C   0  0  0  0  0  0  0  0  0  0  0  0
    0.9921   -2.6264   -3.4500 C   0  0  0  0  0  0  0  0  0  0  0  0
    2.8593    1.1248    0.9445 C   0  0  0  0  0  0  0  0  0  0  0  0
    2.2655   -0.1671    0.3179 C   0  0  1  0  0  0  0  0  0  0  0  0
    2.7700   -1.3154    1.1032 N   0  0  0  0  0  0  0  0  0  0  0  0
    1.4267   -4.8442   -4.1579 O   0  0  0  0  0  0  0  0  0  0  0  0
   -0.1277   -2.6970   -4.2261 O   0  0  0  0  0  0  0  0  0  0  0  0
    2.4459    2.2319    0.6849 O   0  0  0  0  0  0  0  0  0  0  0  0
    3.9053    0.9016    1.7544 O   0  0  0  0  0  0  0  0  0  0  0  0
    0.4120    0.8481   -0.1928 H   0  0  0  0  0  0  0  0  0  0  0  0
    0.3492   -0.0323    1.3352 H   0  0  0  0  0  0  0  0  0  0  0  0
    0.2930   -0.9330   -0.1950 H   0  0  0  0  0  0  0  0  0  0  0  0
    4.2593   -2.5887   -1.3545 H   0  0  0  0  0  0  0  0  0  0  0  0
    3.6319   -4.6089   -2.6366 H   0  0  0  0  0  0  0  0  0  0  0  0
    0.7013   -0.6223   -2.7606 H   0  0  0  0  0  0  0  0  0  0  0  0
    2.5488    0.6779   -1.6414 H   0  0  0  0  0  0  0  0  0  0  0  0
    3.9609   -0.1713   -1.0253 H   0  0  0  0  0  0  0  0  0  0  0  0
    2.8090   -2.1512    0.5211 H   0  0  0  0  0  0  0  0  0  0  0  0
    2.1312   -1.5229    1.8702 H   0  0  0  0  0  0  0  0  0  0  0  0
    2.0912   -5.5443   -4.0632 H   0  0  0  0  0  0  0  0  0  0  0  0
   -0.5934   -1.8477   -4.1755 H   0  0  0  0  0  0  0  0  0  0  0  0
    3.9827   -0.0880    1.7856 H   0  0  0  0  0  0  0  0  0  0  0  0
  1 10  1  0  0  0  0
  1 17  1  0  0  0  0
  2 19  1  0  0  0  0
  3 20  1  0  0  0  0
  3  2  2  0  0  0  0
  4  6  2  0  0  0  0
  5 23  1  0  0  0  0
  5 10  1  0  0  0  0
  6  2  1  0  0  0  0
  6  5  1  0  0  0  0
  7  3  1  0  0  0  0
  8  7  2  0  0  0  0
  8  4  1  0  0  0  0
  9 15  1  0  0  0  0
 10  9  1  1  0  0  0
 10 11  1  0  0  0  0
 11 25  1  0  0  0  0
 12 26  1  0  0  0  0
 12  7  1  0  0  0  0
 13 27  1  0  0  0  0
 13  8  1  0  0  0  0
 14  9  2  0  0  0  0
 15 28  1  0  0  0  0
 16  1  1  0  0  0  0
 18  1  1  0  0  0  0
 21  4  1  0  0  0  0
 22  5  1  0  0  0  0
 24 11  1  0  0  0  0
M  END
>  <HBA>
5

>  <HBD>
4

>  <TPSA>
103.78

>  <cid>
4138

>  <dipole>
4.89

>  <excitation_energy_1>
4.783

>  <excitation_energy_2>
4.908

>  <excitation_energy_3>
5.186

>  <excitation_energy_4>
5.323

>  <homo_energy>
-5.91

>  <homo_lumo_gap>
5.616

>  <logP>
1.143

>  <lumo_energy>
-0.294

>  <melting_point>
229.54

>  <molecular_refractivity>
54.39

>  <oscillator_strength_1>
0.0737

>  <oscillator_strength_2>
0.0006

>  <oscillator_strength_3>
0.0024

>  <oscillator_strength_4>
0.0632

>  <open_babel_can_smiles>
OC(=O)[C@@](Cc1ccc(c(c1)O)O)(N)C

>  <mulliken_charges>
28
1   -0.466275
2   -0.218325
3   -0.196144
4   -0.26006
5   -0.374655
6   0.166084
7   0.319742
8   0.330831
9   0.620327
10   0.100418
11   -0.791898
12   -0.628149
13   -0.629635
14   -0.477879
15   -0.588379
16   0.177088
17   0.146216
18   0.152206
19   0.134332
20   0.124849
21   0.125411
22   0.176663
23   0.160598
24   0.326828
25   0.318721
26   0.409432
27   0.410556
28   0.431098

>  <lowdin_charges>
28
1   -0.455286
2   -0.190511
3   -0.205965
4   -0.21588
5   -0.272925
6   -0.01875
7   0.078484
8   0.08336
9   0.174513
10   0.024989
11   -0.550076
12   -0.365716
13   -0.364197
14   -0.262525
15   -0.355887
16   0.170133
17   0.151837
18   0.15567
19   0.1591
20   0.157413
21   0.157335
22   0.170482
23   0.158358
24   0.271319
25   0.267417
26   0.360841
27   0.360087
28   0.356379

$$$$

