PCCDB-ID:  36827
public computational chemistry database (PCCDB) project, http://pccdb.org

 17 18  0  0  0  0  0  0  0  0999 V2000
   -2.3824   -0.6638    0.2439 C   0  0  0  0  0  0  0  0  0  0  0  0
   -2.3013    0.7469   -0.3461 C   0  0  0  0  0  0  0  0  0  0  0  0
    0.3279   -0.7240   -0.0927 C   0  0  0  0  0  0  0  0  0  0  0  0
    0.3731    0.6097    0.1480 C   0  0  0  0  0  0  0  0  0  0  0  0
    1.7260   -1.2477   -0.2017 C   0  0  0  0  0  0  0  0  0  0  0  0
    1.8036    1.0427    0.2261 C   0  0  0  0  0  0  0  0  0  0  0  0
    2.5472   -0.0988   -0.1519 N   0  0  0  0  0  0  0  0  0  0  0  0
    2.0993   -2.3893   -0.3299 O   0  0  0  0  0  0  0  0  0  0  0  0
    2.2535    2.1259    0.5140 O   0  0  0  0  0  0  0  0  0  0  0  0
    3.8656   -0.2226    0.2590 O   0  0  0  0  0  0  0  0  0  0  0  0
   -1.0324   -1.7998   -0.2826 S   0  0  0  0  0  0  0  0  0  0  0  0
   -0.9191    1.7724    0.3062 S   0  0  0  0  0  0  0  0  0  0  0  0
   -3.2978   -1.1549   -0.1022 H   0  0  0  0  0  0  0  0  0  0  0  0
   -2.4108   -0.6270    1.3357 H   0  0  0  0  0  0  0  0  0  0  0  0
   -3.2036    1.3064   -0.0800 H   0  0  0  0  0  0  0  0  0  0  0  0
   -2.2337    0.7096   -1.4362 H   0  0  0  0  0  0  0  0  0  0  0  0
    4.3878   -0.0888   -0.5513 H   0  0  0  0  0  0  0  0  0  0  0  0
  1 14  1  0  0  0  0
  2 15  1  0  0  0  0
  2  1  1  0  0  0  0
  2 12  1  0  0  0  0
  3  4  2  0  0  0  0
  4  6  1  0  0  0  0
  4 12  1  0  0  0  0
  5  7  1  0  0  0  0
  5  3  1  0  0  0  0
  6  9  2  0  0  0  0
  7  6  1  0  0  0  0
  7 10  1  0  0  0  0
  8  5  2  0  0  0  0
 11  3  1  0  0  0  0
 11  1  1  0  0  0  0
 13  1  1  0  0  0  0
 16  2  1  0  0  0  0
 17 10  1  0  0  0  0
M  END
>  <HBA>
6

>  <HBD>
1

>  <TPSA>
108.21

>  <cid>
36827

>  <dipole>
4.4

>  <excitation_energy_1>
2.947

>  <excitation_energy_2>
3.641

>  <excitation_energy_3>
4.356

>  <excitation_energy_4>
4.606

>  <homo_energy>
-6.155

>  <homo_lumo_gap>
3.625

>  <logP>
0.374

>  <lumo_energy>
-2.531

>  <melting_point>
152.49

>  <molecular_refractivity>
49.38

>  <oscillator_strength_1>
0.0532

>  <oscillator_strength_2>
0.0001

>  <oscillator_strength_3>
0.0232

>  <oscillator_strength_4>
0.0831

>  <open_babel_can_smiles>
ON1C(=O)C2=C(C1=O)SCCS2

>  <mulliken_charges>
17
1   -0.43997
2   -0.440549
3   -0.180606
4   -0.184532
5   0.610674
6   0.611638
7   -0.322714
8   -0.445257
9   -0.444958
10   -0.463039
11   0.224353
12   0.22244
13   0.197226
14   0.212978
15   0.197649
16   0.210764
17   0.433903

>  <lowdin_charges>
17
1   -0.376186
2   -0.375735
3   -0.187514
4   -0.19106
5   0.16835
6   0.170707
7   -0.017227
8   -0.211463
9   -0.211452
10   -0.336222
11   0.24166
12   0.23986
13   0.182158
14   0.176415
15   0.182519
16   0.175344
17   0.369847

$$$$

