PCCDB-ID:  7733
public computational chemistry database (PCCDB) project, http://pccdb.org

 30 30  0  0  0  0  0  0  0  0999 V2000
    6.1043    1.6139   -1.7054 C   0  0  0  0  0  0  0  0  0  0  0  0
    4.5185    3.2341   -0.5633 C   0  0  0  0  0  0  0  0  0  0  0  0
    2.3863    1.4781    7.9987 C   0  0  0  0  0  0  0  0  0  0  0  0
    3.5521    1.6626    7.1817 C   0  0  0  0  0  0  0  0  0  0  0  0
    4.2485    0.5663    4.8984 C   0  0  0  0  0  0  0  0  0  0  0  0
    3.5568    0.9551    3.5821 C   0  0  0  0  0  0  0  0  0  0  0  0
    1.6172    0.5614    7.3540 C   0  0  0  0  0  0  0  0  0  0  0  0
    4.4745    0.7568   -0.0115 C   0  0  0  0  0  0  0  0  0  0  0  0
    5.3457    1.9505   -0.4131 C   0  0  0  0  0  0  0  0  0  0  0  0
    3.4093    0.8438    6.1003 C   0  0  0  0  0  0  0  0  0  0  0  0
    4.4185    0.6633    2.3690 C   0  0  0  0  0  0  0  0  0  0  0  0
    5.5392    0.2006    2.4021 O   0  0  0  0  0  0  0  0  0  0  0  0
    2.2217    0.1630    6.1955 O   0  0  0  0  0  0  0  0  0  0  0  0
    3.7652    0.9874    1.2293 O   0  0  0  0  0  0  0  0  0  0  0  0
    6.7539    2.4453   -2.0007 H   0  0  0  0  0  0  0  0  0  0  0  0
    5.4105    1.4267   -2.5355 H   0  0  0  0  0  0  0  0  0  0  0  0
    6.7337    0.7244   -1.5848 H   0  0  0  0  0  0  0  0  0  0  0  0
    5.1639    4.0890   -0.7954 H   0  0  0  0  0  0  0  0  0  0  0  0
    3.9673    3.4633    0.3541 H   0  0  0  0  0  0  0  0  0  0  0  0
    3.7888    3.1360   -1.3776 H   0  0  0  0  0  0  0  0  0  0  0  0
    2.1595    1.9641    8.9376 H   0  0  0  0  0  0  0  0  0  0  0  0
    4.3894    2.3189    7.3760 H   0  0  0  0  0  0  0  0  0  0  0  0
    5.1903    1.1146    4.9971 H   0  0  0  0  0  0  0  0  0  0  0  0
    4.5164   -0.4968    4.8570 H   0  0  0  0  0  0  0  0  0  0  0  0
    3.3012    2.0222    3.5743 H   0  0  0  0  0  0  0  0  0  0  0  0
    2.6057    0.4219    3.4686 H   0  0  0  0  0  0  0  0  0  0  0  0
    0.6621    0.1047    7.5647 H   0  0  0  0  0  0  0  0  0  0  0  0
    5.0792   -0.1476    0.0934 H   0  0  0  0  0  0  0  0  0  0  0  0
    3.6850    0.5844   -0.7501 H   0  0  0  0  0  0  0  0  0  0  0  0
    6.0817    2.0946    0.3889 H   0  0  0  0  0  0  0  0  0  0  0  0
  1 17  1  0  0  0  0
  1  9  1  0  0  0  0
  2  9  1  0  0  0  0
  2 19  1  0  0  0  0
  3 21  1  0  0  0  0
  4 22  1  0  0  0  0
  4  3  1  0  0  0  0
  5 23  1  0  0  0  0
  5 10  1  0  0  0  0
  6  5  1  0  0  0  0
  7 27  1  0  0  0  0
  7  3  2  0  0  0  0
  8 28  1  0  0  0  0
  8 14  1  0  0  0  0
  9  8  1  0  0  0  0
  9 30  1  0  0  0  0
 10 13  1  0  0  0  0
 10  4  2  0  0  0  0
 11 12  2  0  0  0  0
 11  6  1  0  0  0  0
 13  7  1  0  0  0  0
 14 11  1  0  0  0  0
 15  1  1  0  0  0  0
 16  1  1  0  0  0  0
 18  2  1  0  0  0  0
 20  2  1  0  0  0  0
 24  5  1  0  0  0  0
 25  6  1  0  0  0  0
 26  6  1  0  0  0  0
 29  8  1  0  0  0  0
M  END
>  <HBA>
3

>  <HBD>
0

>  <TPSA>
39.44

>  <cid>
7733

>  <dipole>
1.51

>  <excitation_energy_1>
5.43

>  <excitation_energy_2>
5.514

>  <excitation_energy_3>
5.832

>  <excitation_energy_4>
5.894

>  <homo_energy>
-5.886

>  <homo_lumo_gap>
6.204

>  <logP>
2.411

>  <lumo_energy>
0.318

>  <melting_point>
14.84

>  <molecular_refractivity>
53.8

>  <oscillator_strength_1>
0.028

>  <oscillator_strength_2>
0.0019

>  <oscillator_strength_3>
0.1232

>  <oscillator_strength_4>
0.0103

>  <open_babel_can_smiles>
CC(COC(=O)CCc1ccco1)C

>  <mulliken_charges>
30
1   -0.452172
2   -0.443175
3   -0.181685
4   -0.210922
5   -0.34288
6   -0.36942
7   0.080187
8   -0.040321
9   -0.096749
10   0.346998
11   0.632455
12   -0.481834
13   -0.443407
14   -0.47197
15   0.149841
16   0.140694
17   0.15071
18   0.143832
19   0.154001
20   0.138026
21   0.13876
22   0.135372
23   0.168579
24   0.174342
25   0.178377
26   0.189735
27   0.150968
28   0.166449
29   0.144701
30   0.150508

>  <lowdin_charges>
30
1   -0.445609
2   -0.448372
3   -0.205295
4   -0.222676
5   -0.267836
6   -0.298166
7   -0.085138
8   -0.135494
9   -0.133634
10   0.065095
11   0.195889
12   -0.268367
13   -0.109206
14   -0.194393
15   0.155255
16   0.147018
17   0.153046
18   0.151079
19   0.154401
20   0.14605
21   0.167861
22   0.1671
23   0.168357
24   0.166234
25   0.170601
26   0.176785
27   0.168805
28   0.158917
29   0.150508
30   0.151187

$$$$

