PCCDB-ID:  22880
public computational chemistry database (PCCDB) project, http://pccdb.org

 19 18  0  0  1  0  0  0  0  0999 V2000
    1.8991    0.8706    0.4626 C   0  0  0  0  0  0  0  0  0  0  0  0
    4.2605   -1.4222    0.5044 C   0  0  0  0  0  0  0  0  0  0  0  0
    2.7193   -1.4630    0.6585 C   0  0  2  0  0  0  0  0  0  0  0  0
    5.0618   -1.9227    1.7173 C   0  0  0  0  0  0  0  0  0  0  0  0
    2.1310   -2.8511    0.3249 C   0  0  0  0  0  0  0  0  0  0  0  0
    1.9936   -0.4635   -0.1437 N   0  0  0  0  0  0  0  0  0  0  0  0
    5.8748   -1.2197    2.2721 O   0  0  0  0  0  0  0  0  0  0  0  0
    4.8120   -3.1737    2.1238 O   0  0  0  0  0  0  0  0  0  0  0  0
    2.6983   -3.8980    0.5880 O   0  0  0  0  0  0  0  0  0  0  0  0
    0.9431   -2.8098   -0.2612 O   0  0  0  0  0  0  0  0  0  0  0  0
    1.3121    0.8051    1.3838 H   0  0  0  0  0  0  0  0  0  0  0  0
    2.8758    1.3149    0.7050 H   0  0  0  0  0  0  0  0  0  0  0  0
    1.3746    1.5367   -0.2279 H   0  0  0  0  0  0  0  0  0  0  0  0
    4.5553   -1.9974   -0.3833 H   0  0  0  0  0  0  0  0  0  0  0  0
    4.5738   -0.3864    0.3551 H   0  0  0  0  0  0  0  0  0  0  0  0
    2.4560   -1.2723    1.7081 H   0  0  0  0  0  0  0  0  0  0  0  0
    2.4353   -0.3880   -1.0603 H   0  0  0  0  0  0  0  0  0  0  0  0
    4.1145   -3.5929    1.5590 H   0  0  0  0  0  0  0  0  0  0  0  0
    0.7700   -1.8356   -0.3895 H   0  0  0  0  0  0  0  0  0  0  0  0
  1 12  1  0  0  0  0
  1 11  1  0  0  0  0
  2  3  1  0  0  0  0
  2  4  1  0  0  0  0
  3 16  1  1  0  0  0
  4  8  1  0  0  0  0
  4  7  2  0  0  0  0
  5  9  2  0  0  0  0
  5  3  1  0  0  0  0
  6  1  1  0  0  0  0
  6  3  1  0  0  0  0
 10  5  1  0  0  0  0
 13  1  1  0  0  0  0
 14  2  1  0  0  0  0
 15  2  1  0  0  0  0
 17  6  1  0  0  0  0
 18  8  1  0  0  0  0
 19 10  1  0  0  0  0
M  END
>  <HBA>
5

>  <HBD>
3

>  <TPSA>
86.63

>  <cid>
22880

>  <dipole>
6.53

>  <excitation_energy_1>
5.393

>  <excitation_energy_2>
5.524

>  <excitation_energy_3>
5.991

>  <excitation_energy_4>
6.179

>  <homo_energy>
-6.991

>  <homo_lumo_gap>
6.433

>  <logP>
-0.475

>  <lumo_energy>
-0.558

>  <melting_point>
155.6

>  <molecular_refractivity>
32.49

>  <oscillator_strength_1>
0.0052

>  <oscillator_strength_2>
0.0016

>  <oscillator_strength_3>
0.0083

>  <oscillator_strength_4>
0.0004

>  <open_babel_can_smiles>
CN[C@@H](C(=O)O)CC(=O)O

>  <mulliken_charges>
19
1   -0.315969
2   -0.400381
3   -0.08402
4   0.582767
5   0.631811
6   -0.612089
7   -0.450726
8   -0.586194
9   -0.487024
10   -0.556451
11   0.17513
12   0.162101
13   0.17115
14   0.179765
15   0.181952
16   0.200454
17   0.325332
18   0.448302
19   0.434089

>  <lowdin_charges>
19
1   -0.361288
2   -0.328898
3   -0.108399
4   0.185983
5   0.190795
6   -0.351543
7   -0.256584
8   -0.363804
9   -0.267315
10   -0.323045
11   0.161202
12   0.145558
13   0.16515
14   0.171242
15   0.173576
16   0.177171
17   0.267443
18   0.363291
19   0.359467

$$$$

