PCCDB-ID:  31492
public computational chemistry database (PCCDB) project, http://pccdb.org

 19 19  0  0  1  0  0  0  0  0999 V2000
    1.0119   -0.0184    0.0100 C   0  0  0  0  0  0  0  0  0  0  0  0
    3.2207   -1.9474    1.4659 C   0  0  0  0  0  0  0  0  0  0  0  0
    5.3059    1.3244   -1.2768 C   0  0  0  0  0  0  0  0  0  0  0  0
    2.5078    0.0537    0.0263 C   0  0  0  0  0  0  0  0  0  0  0  0
    3.3998   -1.1732    0.1565 C   0  0  1  0  0  0  0  0  0  0  0  0
    4.5803    0.8207   -0.0354 C   0  0  1  0  0  0  0  0  0  0  0  0
    3.1630    1.1443   -0.0660 N   0  0  0  0  0  0  0  0  0  0  0  0
    4.7049   -0.6133    0.0642 O   0  0  0  0  0  0  0  0  0  0  0  0
    0.6634   -0.6755   -0.7973 H   0  0  0  0  0  0  0  0  0  0  0  0
    0.5886    0.9782   -0.1322 H   0  0  0  0  0  0  0  0  0  0  0  0
    0.6284   -0.4370    0.9490 H   0  0  0  0  0  0  0  0  0  0  0  0
    2.2349   -2.4252    1.5098 H   0  0  0  0  0  0  0  0  0  0  0  0
    3.3278   -1.2804    2.3282 H   0  0  0  0  0  0  0  0  0  0  0  0
    3.9827   -2.7292    1.5402 H   0  0  0  0  0  0  0  0  0  0  0  0
    5.2510    2.4162   -1.3319 H   0  0  0  0  0  0  0  0  0  0  0  0
    4.8479    0.9020   -2.1772 H   0  0  0  0  0  0  0  0  0  0  0  0
    6.3573    1.0225   -1.2429 H   0  0  0  0  0  0  0  0  0  0  0  0
    3.2347   -1.8611   -0.6899 H   0  0  0  0  0  0  0  0  0  0  0  0
    5.0226    1.2758    0.8642 H   0  0  0  0  0  0  0  0  0  0  0  0
  1  4  1  0  0  0  0
  1 11  1  0  0  0  0
  2 12  1  0  0  0  0
  2 14  1  0  0  0  0
  2 13  1  0  0  0  0
  3 17  1  0  0  0  0
  3  6  1  0  0  0  0
  4  5  1  0  0  0  0
  5 18  1  6  0  0  0
  5  2  1  0  0  0  0
  6  8  1  0  0  0  0
  6 19  1  1  0  0  0
  7  6  1  0  0  0  0
  7  4  2  0  0  0  0
  8  5  1  0  0  0  0
  9  1  1  0  0  0  0
 10  1  1  0  0  0  0
 15  3  1  0  0  0  0
 16  3  1  0  0  0  0
M  END
>  <HBA>
2

>  <HBD>
0

>  <TPSA>
21.59

>  <cid>
31492

>  <dipole>
1.72

>  <excitation_energy_1>
5.584

>  <excitation_energy_2>
5.732

>  <excitation_energy_3>
6.28

>  <excitation_energy_4>
6.774

>  <homo_energy>
-6.623

>  <homo_lumo_gap>
6.667

>  <logP>
0.648

>  <lumo_energy>
0.044

>  <melting_point>
4.93

>  <molecular_refractivity>
36.94

>  <oscillator_strength_1>
0.0701

>  <oscillator_strength_2>
0.0075

>  <oscillator_strength_3>
0.0062

>  <oscillator_strength_4>
0.0024

>  <open_babel_can_smiles>
C[C@@H]1O[C@H](C(=N1)C)C

>  <mulliken_charges>
19
1   -0.521777
2   -0.454981
3   -0.436655
4   0.30019
5   0.10438
6   0.238641
7   -0.422008
8   -0.515075
9   0.164435
10   0.18395
11   0.168998
12   0.140835
13   0.154942
14   0.166439
15   0.153265
16   0.148198
17   0.155342
18   0.134138
19   0.136742

>  <lowdin_charges>
19
1   -0.449115
2   -0.453288
3   -0.448167
4   0.046185
5   -0.016546
6   0.052326
7   -0.176133
8   -0.285079
9   0.166159
10   0.175388
11   0.167367
12   0.151152
13   0.156144
14   0.164469
15   0.157661
16   0.155204
17   0.157999
18   0.139929
19   0.138346

$$$$

