PCCDB-ID:  38375
public computational chemistry database (PCCDB) project, http://pccdb.org

 37 39  0  0  1  0  0  0  0  0999 V2000
    2.6507    0.9111   -0.7686 C   0  0  0  0  0  0  0  0  0  0  0  0
    3.1003   -4.5042    3.3964 C   0  0  0  0  0  0  0  0  0  0  0  0
    0.9513   -4.8089    2.1159 C   0  0  0  0  0  0  0  0  0  0  0  0
    1.1046   -3.0627    3.9215 C   0  0  0  0  0  0  0  0  0  0  0  0
    2.9839   -1.3783    0.2867 C   0  0  0  0  0  0  0  0  0  0  0  0
    2.9613   -3.7987    0.9856 C   0  0  0  0  0  0  0  0  0  0  0  0
    3.1117   -2.0574    2.7847 C   0  0  0  0  0  0  0  0  0  0  0  0
    0.9726   -2.3649    1.5060 C   0  0  0  0  0  0  0  0  0  0  0  0
    2.8225    0.1446    0.5482 C   0  0  1  0  0  0  0  0  0  0  0  0
    2.4908   -4.8419    2.0198 C   0  0  1  0  0  0  0  0  0  0  0  0
    2.6436   -3.0972    3.8257 C   0  0  2  0  0  0  0  0  0  0  0  0
    0.4953   -3.4007    2.5453 C   0  0  1  0  0  0  0  0  0  0  0  0
    2.5193   -2.3665    1.3852 C   0  0  1  0  0  0  0  0  0  0  0  0
    3.9255    0.7794    1.2933 N   0  0  0  0  0  0  0  0  0  0  0  0
    1.7564    0.5802   -1.3084 H   0  0  0  0  0  0  0  0  0  0  0  0
    3.5137    0.7535   -1.4306 H   0  0  0  0  0  0  0  0  0  0  0  0
    2.5693    1.9844   -0.5721 H   0  0  0  0  0  0  0  0  0  0  0  0
    4.1974   -4.5459    3.3444 H   0  0  0  0  0  0  0  0  0  0  0  0
    2.7872   -5.2471    4.1428 H   0  0  0  0  0  0  0  0  0  0  0  0
    0.5998   -5.5573    2.8399 H   0  0  0  0  0  0  0  0  0  0  0  0
    0.5084   -5.0725    1.1450 H   0  0  0  0  0  0  0  0  0  0  0  0
    0.7668   -2.0693    4.2477 H   0  0  0  0  0  0  0  0  0  0  0  0
    0.7565   -3.7816    4.6762 H   0  0  0  0  0  0  0  0  0  0  0  0
    4.0453   -1.5636    0.0566 H   0  0  0  0  0  0  0  0  0  0  0  0
    2.4325   -1.6457   -0.6270 H   0  0  0  0  0  0  0  0  0  0  0  0
    2.5573   -4.0478   -0.0068 H   0  0  0  0  0  0  0  0  0  0  0  0
    4.0568   -3.8299    0.8950 H   0  0  0  0  0  0  0  0  0  0  0  0
    4.2106   -2.0457    2.7340 H   0  0  0  0  0  0  0  0  0  0  0  0
    2.7897   -1.0605    3.1147 H   0  0  0  0  0  0  0  0  0  0  0  0
    0.6138   -1.3667    1.7900 H   0  0  0  0  0  0  0  0  0  0  0  0
    0.5309   -2.5914    0.5243 H   0  0  0  0  0  0  0  0  0  0  0  0
    1.9151    0.3105    1.1448 H   0  0  0  0  0  0  0  0  0  0  0  0
    2.8212   -5.8411    1.7065 H   0  0  0  0  0  0  0  0  0  0  0  0
    3.0779   -2.8472    4.8033 H   0  0  0  0  0  0  0  0  0  0  0  0
   -0.6007   -3.3696    2.6098 H   0  0  0  0  0  0  0  0  0  0  0  0
    4.7930    0.6469    0.7712 H   0  0  0  0  0  0  0  0  0  0  0  0
    4.0656    0.3107    2.1851 H   0  0  0  0  0  0  0  0  0  0  0  0
  1 17  1  0  0  0  0
  1  9  1  0  0  0  0
  2 11  1  0  0  0  0
  2 19  1  0  0  0  0
  3 12  1  0  0  0  0
  3 20  1  0  0  0  0
  4 22  1  0  0  0  0
  4 23  1  0  0  0  0
  5  9  1  0  0  0  0
  6 13  1  0  0  0  0
  6 10  1  0  0  0  0
  7 29  1  0  0  0  0
  7 11  1  0  0  0  0
  8 30  1  0  0  0  0
  8 12  1  0  0  0  0
  9 32  1  1  0  0  0
  9 14  1  0  0  0  0
 10 33  1  6  0  0  0
 10  3  1  0  0  0  0
 10  2  1  0  0  0  0
 11  4  1  0  0  0  0
 11 34  1  1  0  0  0
 12 35  1  1  0  0  0
 12  4  1  0  0  0  0
 13  5  1  6  0  0  0
 13  8  1  0  0  0  0
 13  7  1  0  0  0  0
 14 37  1  0  0  0  0
 15  1  1  0  0  0  0
 16  1  1  0  0  0  0
 18  2  1  0  0  0  0
 21  3  1  0  0  0  0
 24  5  1  0  0  0  0
 25  5  1  0  0  0  0
 26  6  1  0  0  0  0
 27  6  1  0  0  0  0
 28  7  1  0  0  0  0
 31  8  1  0  0  0  0
 36 14  1  0  0  0  0
M  END
>  <HBA>
1

>  <HBD>
1

>  <TPSA>
26.02

>  <cid>
38375

>  <dipole>
1.55

>  <excitation_energy_1>
5.504

>  <excitation_energy_2>
5.955

>  <excitation_energy_3>
6.151

>  <excitation_energy_4>
6.169

>  <homo_energy>
-6.071

>  <homo_lumo_gap>
7.821

>  <logP>
3.64

>  <lumo_energy>
1.75

>  <melting_point>
109.46

>  <molecular_refractivity>
60.71

>  <oscillator_strength_1>
0.0221

>  <oscillator_strength_2>
0.0077

>  <oscillator_strength_3>
0.005

>  <oscillator_strength_4>
0.0003

>  <open_babel_can_smiles>
C[C@@H](C[C@]12C[C@H]3C[C@@H](C2)C[C@@H](C1)C3)N

>  <mulliken_charges>
37
1   -0.441639
2   -0.263511
3   -0.264202
4   -0.266077
5   -0.269522
6   -0.27382
7   -0.290252
8   -0.277423
9   0.020684
10   -0.090053
11   -0.090866
12   -0.089817
13   0.092247
14   -0.718815
15   0.138627
16   0.131734
17   0.158499
18   0.123887
19   0.125251
20   0.124589
21   0.124627
22   0.125601
23   0.125465
24   0.1121
25   0.123414
26   0.123207
27   0.121677
28   0.119995
29   0.130127
30   0.128871
31   0.122424
32   0.134511
33   0.114527
34   0.115008
35   0.115062
36   0.283397
37   0.300467

>  <lowdin_charges>
37
1   -0.445658
2   -0.279657
3   -0.282
4   -0.281965
5   -0.291077
6   -0.276287
7   -0.28212
8   -0.280923
9   -0.06617
10   -0.130927
11   -0.13055
12   -0.128507
13   0.000886
14   -0.557053
15   0.148272
16   0.142771
17   0.156255
18   0.136569
19   0.140704
20   0.140378
21   0.138972
22   0.139
23   0.140923
24   0.133367
25   0.141716
26   0.13823
27   0.135448
28   0.133998
29   0.139021
30   0.139124
31   0.13795
32   0.13824
33   0.13814
34   0.138286
35   0.136476
36   0.246885
37   0.251283

$$$$

