PCCDB-ID:  12172
public computational chemistry database (PCCDB) project, http://pccdb.org

 14 14  0  0  0  0  0  0  0  0999 V2000
   -0.7654    1.1698   -0.0493 C   0  0  0  0  0  0  0  0  0  0  0  0
   -1.3959   -0.0679   -0.0495 C   0  0  0  0  0  0  0  0  0  0  0  0
    1.4051    0.0640   -0.0458 C   0  0  0  0  0  0  0  0  0  0  0  0
    0.7746   -1.1737   -0.0461 C   0  0  0  0  0  0  0  0  0  0  0  0
    1.2890    2.5197   -0.0465 C   0  0  0  0  0  0  0  0  0  0  0  0
   -1.2797   -2.5236   -0.0506 C   0  0  0  0  0  0  0  0  0  0  0  0
    0.6382    1.2417   -0.0475 C   0  0  0  0  0  0  0  0  0  0  0  0
   -0.6289   -1.2456   -0.0484 C   0  0  0  0  0  0  0  0  0  0  0  0
    1.8165    3.5561   -0.0453 N   0  0  0  0  0  0  0  0  0  0  0  0
   -1.8071   -3.5601   -0.0528 N   0  0  0  0  0  0  0  0  0  0  0  0
   -1.3507    2.0830   -0.0510 H   0  0  0  0  0  0  0  0  0  0  0  0
   -2.4787   -0.1314   -0.0501 H   0  0  0  0  0  0  0  0  0  0  0  0
    2.4880    0.1275   -0.0446 H   0  0  0  0  0  0  0  0  0  0  0  0
    1.3599   -2.0869   -0.0443 H   0  0  0  0  0  0  0  0  0  0  0  0
  1  7  1  0  0  0  0
  2  1  2  0  0  0  0
  2  8  1  0  0  0  0
  3 13  1  0  0  0  0
  4  3  1  0  0  0  0
  4 14  1  0  0  0  0
  5  9  3  0  0  0  0
  6  8  1  0  0  0  0
  7  5  1  0  0  0  0
  7  3  2  0  0  0  0
  8  4  2  0  0  0  0
 10  6  3  0  0  0  0
 11  1  1  0  0  0  0
 12  2  1  0  0  0  0
M  END
>  <HBA>
2

>  <HBD>
0

>  <TPSA>
47.58

>  <cid>
12172

>  <dipole>
0.0

>  <excitation_energy_1>
4.825

>  <excitation_energy_2>
5.008

>  <excitation_energy_3>
5.817

>  <excitation_energy_4>
5.833

>  <homo_energy>
-7.739

>  <homo_lumo_gap>
5.203

>  <logP>
1.43

>  <lumo_energy>
-2.536

>  <melting_point>
79.79

>  <molecular_refractivity>
35.87

>  <oscillator_strength_1>
0.0174

>  <oscillator_strength_2>
0.4939

>  <oscillator_strength_3>
0.0

>  <oscillator_strength_4>
0.0

>  <open_babel_can_smiles>
N#Cc1ccc(cc1)C#N

>  <mulliken_charges>
14
1   -0.139314
2   -0.13949
3   -0.139373
4   -0.139504
5   0.245159
6   0.245172
7   0.144566
8   0.14472
9   -0.463183
10   -0.463209
11   0.176133
12   0.176089
13   0.17609
14   0.176143

>  <lowdin_charges>
14
1   -0.126113
2   -0.123316
3   -0.123314
4   -0.126118
5   -0.013149
6   -0.013131
7   -0.003913
8   -0.003908
9   -0.098094
10   -0.098117
11   0.183501
12   0.181082
13   0.181084
14   0.183506

$$$$

