PCCDB-ID:  36737
public computational chemistry database (PCCDB) project, http://pccdb.org

 34 36  0  0  1  0  0  0  0  0999 V2000
    2.4926    1.4887    0.0519 C   0  0  0  0  0  0  0  0  0  0  0  0
    2.4572    0.1212    0.3387 C   0  0  0  0  0  0  0  0  0  0  0  0
    1.3088    2.2237    0.0114 C   0  0  0  0  0  0  0  0  0  0  0  0
    1.2400   -0.5045    0.6039 C   0  0  0  0  0  0  0  0  0  0  0  0
   -4.8445    0.3852    2.9196 C   0  0  0  0  0  0  0  0  0  0  0  0
   -5.9098   -0.2718    0.8735 C   0  0  0  0  0  0  0  0  0  0  0  0
   -6.0753    1.2246    3.2565 C   0  0  0  0  0  0  0  0  0  0  0  0
   -7.1119    0.5872    1.2601 C   0  0  0  0  0  0  0  0  0  0  0  0
   -3.4865   -0.4370    1.0644 C   0  0  0  0  0  0  0  0  0  0  0  0
   -2.2547    1.5813    0.1156 C   0  0  0  0  0  0  0  0  0  0  0  0
   -2.2354    0.4409    1.1250 C   0  0  2  0  0  0  0  0  0  0  0  0
    0.0866    1.5998    0.2654 C   0  0  0  0  0  0  0  0  0  0  0  0
    0.0537    0.2295    0.5750 C   0  0  0  0  0  0  0  0  0  0  0  0
   -4.6903    0.2888    1.4638 N   0  0  0  0  0  0  0  0  0  0  0  0
   -7.2489    0.6794    2.6712 O   0  0  0  0  0  0  0  0  0  0  0  0
   -1.0597    2.3558    0.2122 O   0  0  0  0  0  0  0  0  0  0  0  0
   -1.1253   -0.4233    0.8520 O   0  0  0  0  0  0  0  0  0  0  0  0
    3.4388    1.9826   -0.1488 H   0  0  0  0  0  0  0  0  0  0  0  0
    3.3757   -0.4578    0.3650 H   0  0  0  0  0  0  0  0  0  0  0  0
    1.3046    3.2842   -0.2218 H   0  0  0  0  0  0  0  0  0  0  0  0
    1.1839   -1.5622    0.8432 H   0  0  0  0  0  0  0  0  0  0  0  0
   -4.9502   -0.6170    3.3789 H   0  0  0  0  0  0  0  0  0  0  0  0
   -3.9562    0.8571    3.3541 H   0  0  0  0  0  0  0  0  0  0  0  0
   -5.8036   -0.2838   -0.2179 H   0  0  0  0  0  0  0  0  0  0  0  0
   -6.0878   -1.3121    1.2080 H   0  0  0  0  0  0  0  0  0  0  0  0
   -5.9206    2.2586    2.9068 H   0  0  0  0  0  0  0  0  0  0  0  0
   -6.2456    1.2401    4.3371 H   0  0  0  0  0  0  0  0  0  0  0  0
   -8.0391    0.1426    0.8864 H   0  0  0  0  0  0  0  0  0  0  0  0
   -6.9986    1.5929    0.8225 H   0  0  0  0  0  0  0  0  0  0  0  0
   -3.3094   -1.3405    1.6756 H   0  0  0  0  0  0  0  0  0  0  0  0
   -3.6108   -0.7776    0.0297 H   0  0  0  0  0  0  0  0  0  0  0  0
   -3.0875    2.2572    0.3143 H   0  0  0  0  0  0  0  0  0  0  0  0
   -2.3537    1.1727   -0.9011 H   0  0  0  0  0  0  0  0  0  0  0  0
   -2.1039    0.8703    2.1286 H   0  0  0  0  0  0  0  0  0  0  0  0
  1  2  1  0  0  0  0
  2 19  1  0  0  0  0
  2  4  2  0  0  0  0
  3  1  2  0  0  0  0
  3 12  1  0  0  0  0
  4 21  1  0  0  0  0
  5  7  1  0  0  0  0
  5 23  1  0  0  0  0
  5 22  1  0  0  0  0
  6 25  1  0  0  0  0
  6  8  1  0  0  0  0
  6 14  1  0  0  0  0
  7 27  1  0  0  0  0
  8 15  1  0  0  0  0
  9 11  1  0  0  0  0
  9 14  1  0  0  0  0
  9 30  1  0  0  0  0
 10 16  1  0  0  0  0
 10 32  1  0  0  0  0
 10 11  1  0  0  0  0
 11 34  1  1  0  0  0
 12 13  2  0  0  0  0
 13  4  1  0  0  0  0
 13 17  1  0  0  0  0
 14  5  1  0  0  0  0
 15  7  1  0  0  0  0
 16 12  1  0  0  0  0
 17 11  1  0  0  0  0
 18  1  1  0  0  0  0
 20  3  1  0  0  0  0
 24  6  1  0  0  0  0
 26  7  1  0  0  0  0
 28  8  1  0  0  0  0
 29  8  1  0  0  0  0
 31  9  1  0  0  0  0
 33 10  1  0  0  0  0
M  END
>  <HBA>
4

>  <HBD>
0

>  <TPSA>
30.93

>  <cid>
36737

>  <dipole>
0.96

>  <excitation_energy_1>
4.888

>  <excitation_energy_2>
5.321

>  <excitation_energy_3>
5.573

>  <excitation_energy_4>
5.597

>  <homo_energy>
-5.63

>  <homo_lumo_gap>
5.829

>  <logP>
1.097

>  <lumo_energy>
0.199

>  <melting_point>
50.05

>  <molecular_refractivity>
67.13

>  <oscillator_strength_1>
0.0505

>  <oscillator_strength_2>
0.0096

>  <oscillator_strength_3>
0.0054

>  <oscillator_strength_4>
0.0032

>  <open_babel_can_smiles>
O1CCN(CC1)C[C@@H]1COc2c(O1)cccc2

>  <mulliken_charges>
34
1   -0.138054
2   -0.137864
3   -0.191871
4   -0.19333
5   -0.143956
6   -0.135135
7   -0.032527
8   -0.033771
9   -0.144285
10   -0.045492
11   0.111126
12   0.330929
13   0.332193
14   -0.413058
15   -0.465286
16   -0.527873
17   -0.548256
18   0.12675
19   0.126587
20   0.137995
21   0.136468
22   0.127209
23   0.145374
24   0.141865
25   0.126649
26   0.129454
27   0.148873
28   0.1481
29   0.128955
30   0.141634
31   0.148178
32   0.170154
33   0.144607
34   0.147656

>  <lowdin_charges>
34
1   -0.166975
2   -0.167791
3   -0.174591
4   -0.175397
5   -0.218329
6   -0.211715
7   -0.133476
8   -0.136197
9   -0.203476
10   -0.142111
11   -0.012402
12   0.059896
13   0.060689
14   -0.19471
15   -0.271902
16   -0.207142
17   -0.209344
18   0.158038
19   0.158186
20   0.165047
21   0.164363
22   0.125922
23   0.151061
24   0.147957
25   0.124927
26   0.130838
27   0.151622
28   0.153814
29   0.131468
30   0.138677
31   0.151561
32   0.167587
33   0.142429
34   0.141474

$$$$

