PCCDB-ID:  20953
public computational chemistry database (PCCDB) project, http://pccdb.org

 29 28  0  0  0  0  0  0  0  0999 V2000
    0.9409   -0.1620   -0.1230 C   0  0  0  0  0  0  0  0  0  0  0  0
    8.4299    4.1087    2.6817 C   0  0  0  0  0  0  0  0  0  0  0  0
    2.4707   -0.0811   -0.1178 C   0  0  0  0  0  0  0  0  0  0  0  0
    2.9993    1.3415    0.1076 C   0  0  0  0  0  0  0  0  0  0  0  0
    4.5305    1.4324    0.1076 C   0  0  0  0  0  0  0  0  0  0  0  0
    5.0522    2.8552    0.3449 C   0  0  0  0  0  0  0  0  0  0  0  0
    6.5938    2.9386    0.3315 C   0  0  0  0  0  0  0  0  0  0  0  0
    7.0818    4.3438    0.5090 C   0  0  0  0  0  0  0  0  0  0  0  0
    7.8424    4.8204    1.5027 C   0  0  0  0  0  0  0  0  0  0  0  0
    8.1680    6.2685    1.4522 N   0  0  0  0  0  0  0  0  0  0  0  0
    8.8728    6.7023    2.3661 O   0  0  0  0  0  0  0  0  0  0  0  0
    7.7336    6.9562    0.5278 O   0  0  0  0  0  0  0  0  0  0  0  0
    0.5957   -1.1892   -0.2862 H   0  0  0  0  0  0  0  0  0  0  0  0
    0.5137    0.4631   -0.9167 H   0  0  0  0  0  0  0  0  0  0  0  0
    0.5219    0.1828    0.8303 H   0  0  0  0  0  0  0  0  0  0  0  0
    8.1507    3.0532    2.6676 H   0  0  0  0  0  0  0  0  0  0  0  0
    8.0827    4.5507    3.6209 H   0  0  0  0  0  0  0  0  0  0  0  0
    9.5221    4.1818    2.6821 H   0  0  0  0  0  0  0  0  0  0  0  0
    2.8609   -0.4657   -1.0709 H   0  0  0  0  0  0  0  0  0  0  0  0
    2.8700   -0.7436    0.6634 H   0  0  0  0  0  0  0  0  0  0  0  0
    2.6124    1.7244    1.0636 H   0  0  0  0  0  0  0  0  0  0  0  0
    2.5958    2.0058   -0.6709 H   0  0  0  0  0  0  0  0  0  0  0  0
    4.9181    1.0588   -0.8518 H   0  0  0  0  0  0  0  0  0  0  0  0
    4.9347    0.7626    0.8810 H   0  0  0  0  0  0  0  0  0  0  0  0
    4.6820    3.2294    1.3089 H   0  0  0  0  0  0  0  0  0  0  0  0
    4.6462    3.5290   -0.4224 H   0  0  0  0  0  0  0  0  0  0  0  0
    6.9550    2.5692   -0.6401 H   0  0  0  0  0  0  0  0  0  0  0  0
    7.0060    2.2679    1.0928 H   0  0  0  0  0  0  0  0  0  0  0  0
    6.7680    5.0637   -0.2431 H   0  0  0  0  0  0  0  0  0  0  0  0
  1  3  1  0  0  0  0
  1 15  1  0  0  0  0
  2 18  1  0  0  0  0
  2 17  1  0  0  0  0
  3  4  1  0  0  0  0
  3 20  1  0  0  0  0
  4 21  1  0  0  0  0
  5  4  1  0  0  0  0
  5  6  1  0  0  0  0
  5 24  1  0  0  0  0
  6 25  1  0  0  0  0
  7  6  1  0  0  0  0
  7  8  1  0  0  0  0
  7 28  1  0  0  0  0
  8  9  2  0  0  0  0
  9  2  1  0  0  0  0
 10  9  1  0  0  0  0
 10 11  2  0  0  0  0
 12 10  2  0  0  0  0
 13  1  1  0  0  0  0
 14  1  1  0  0  0  0
 16  2  1  0  0  0  0
 19  3  1  0  0  0  0
 22  4  1  0  0  0  0
 23  5  1  0  0  0  0
 26  6  1  0  0  0  0
 27  7  1  0  0  0  0
 29  8  1  0  0  0  0
M  END
>  <HBA>
0

>  <HBD>
0

>  <TPSA>
45.82

>  <cid>
20953

>  <dipole>
4.85

>  <excitation_energy_1>
3.723

>  <excitation_energy_2>
4.261

>  <excitation_energy_3>
4.72

>  <excitation_energy_4>
5.928

>  <homo_energy>
-7.497

>  <homo_lumo_gap>
5.372

>  <logP>
3.66

>  <lumo_energy>
-2.125

>  <melting_point>
15.41

>  <molecular_refractivity>
53.01

>  <oscillator_strength_1>
0.0

>  <oscillator_strength_2>
0.0013

>  <oscillator_strength_3>
0.2576

>  <oscillator_strength_4>
0.0482

>  <open_babel_can_smiles>
CCCCCC/C=C(/N(=O)=O)\C

>  <mulliken_charges>
29
1   -0.44192
2   -0.510388
3   -0.248277
4   -0.247799
5   -0.254781
6   -0.260322
7   -0.315863
8   -0.139385
9   0.272014
10   0.415795
11   -0.392165
12   -0.406507
13   0.144071
14   0.143032
15   0.142808
16   0.158555
17   0.185192
18   0.185522
19   0.131701
20   0.131368
21   0.130316
22   0.130613
23   0.131726
24   0.131061
25   0.144216
26   0.142312
27   0.160138
28   0.15041
29   0.186556

>  <lowdin_charges>
29
1   -0.444582
2   -0.440407
3   -0.27304
4   -0.275323
5   -0.275503
6   -0.271196
7   -0.273169
8   -0.121688
9   -0.005357
10   0.304291
11   -0.251729
12   -0.25919
13   0.149783
14   0.14823
15   0.147123
16   0.161406
17   0.175983
18   0.174169
19   0.139539
20   0.1404
21   0.13928
22   0.140456
23   0.13981
24   0.140538
25   0.145887
26   0.146204
27   0.160309
28   0.151547
29   0.18623

$$$$

