PCCDB-ID:  58108
public computational chemistry database (PCCDB) project, http://pccdb.org

 35 36  0  0  1  0  0  0  0  0999 V2000
   -0.2523   -4.6010   -1.3677 C   0  0  0  0  0  0  0  0  0  0  0  0
    2.9765    3.8723   -0.2776 C   0  0  0  0  0  0  0  0  0  0  0  0
   -0.0663   -3.5631   -0.4485 C   0  0  0  0  0  0  0  0  0  0  0  0
    0.7826   -4.9438   -2.2382 C   0  0  0  0  0  0  0  0  0  0  0  0
    3.6064    3.3251    1.0105 C   0  0  0  0  0  0  0  0  0  0  0  0
    2.6125    2.7183   -1.2208 C   0  0  0  0  0  0  0  0  0  0  0  0
    1.1403   -2.8719   -0.4013 C   0  0  0  0  0  0  0  0  0  0  0  0
    1.9910   -4.2521   -2.1902 C   0  0  0  0  0  0  0  0  0  0  0  0
    3.4813   -2.5037   -1.2832 C   0  0  0  0  0  0  0  0  0  0  0  0
    3.8122   -1.3780   -0.6164 C   0  0  0  0  0  0  0  0  0  0  0  0
    4.7743    2.3893    0.6902 C   0  0  0  0  0  0  0  0  0  0  0  0
    3.8134    1.7977   -1.4550 C   0  0  0  0  0  0  0  0  0  0  0  0
    2.1922   -3.2001   -1.2781 C   0  0  0  0  0  0  0  0  0  0  0  0
    5.1519   -0.7829   -0.6495 C   0  0  1  0  0  0  0  0  0  0  0  0
    5.4585    0.4357   -0.3837 N   0  0  0  0  0  0  0  0  0  0  0  0
    4.3230    1.2826   -0.1680 N   0  0  0  0  0  0  0  0  0  0  0  0
    6.2031   -1.5879   -0.9929 O   0  0  0  0  0  0  0  0  0  0  0  0
   -1.1954   -5.1395   -1.3997 H   0  0  0  0  0  0  0  0  0  0  0  0
    3.6961    4.5358   -0.7787 H   0  0  0  0  0  0  0  0  0  0  0  0
    2.0917    4.4796   -0.0497 H   0  0  0  0  0  0  0  0  0  0  0  0
   -0.8656   -3.2962    0.2377 H   0  0  0  0  0  0  0  0  0  0  0  0
    0.6507   -5.7500   -2.9548 H   0  0  0  0  0  0  0  0  0  0  0  0
    2.8520    2.7713    1.5852 H   0  0  0  0  0  0  0  0  0  0  0  0
    3.9623    4.1441    1.6480 H   0  0  0  0  0  0  0  0  0  0  0  0
    2.2592    3.1006   -2.1868 H   0  0  0  0  0  0  0  0  0  0  0  0
    1.7939    2.1290   -0.7861 H   0  0  0  0  0  0  0  0  0  0  0  0
    1.2725   -2.0777    0.3274 H   0  0  0  0  0  0  0  0  0  0  0  0
    2.7943   -4.5214   -2.8723 H   0  0  0  0  0  0  0  0  0  0  0  0
    4.2290   -2.9488   -1.9412 H   0  0  0  0  0  0  0  0  0  0  0  0
    3.0946   -0.8203   -0.0224 H   0  0  0  0  0  0  0  0  0  0  0  0
    5.1842    1.9510    1.6049 H   0  0  0  0  0  0  0  0  0  0  0  0
    5.5924    2.9470    0.1992 H   0  0  0  0  0  0  0  0  0  0  0  0
    4.6117    2.3417   -1.9936 H   0  0  0  0  0  0  0  0  0  0  0  0
    3.5229    0.9438   -2.0741 H   0  0  0  0  0  0  0  0  0  0  0  0
    5.9510   -2.5052   -0.8014 H   0  0  0  0  0  0  0  0  0  0  0  0
  1  3  2  0  0  0  0
  2 20  1  0  0  0  0
  2  5  1  0  0  0  0
  3  7  1  0  0  0  0
  3 21  1  0  0  0  0
  4  8  2  0  0  0  0
  4  1  1  0  0  0  0
  5 23  1  0  0  0  0
  5 24  1  0  0  0  0
  6 26  1  0  0  0  0
  6  2  1  0  0  0  0
  7 27  1  0  0  0  0
  8 13  1  0  0  0  0
  9 13  1  0  0  0  0
  9 10  2  0  0  0  0
 10 30  1  0  0  0  0
 11  5  1  0  0  0  0
 11 31  1  0  0  0  0
 12  6  1  0  0  0  0
 12 16  1  0  0  0  0
 13  7  2  0  0  0  0
 14 17  1  1  0  0  0
 14 10  1  0  0  0  0
 14 15  1  0  0  0  0
 15 16  1  0  0  0  0
 16 11  1  0  0  0  0
 17 35  1  0  0  0  0
 18  1  1  0  0  0  0
 19  2  1  0  0  0  0
 22  4  1  0  0  0  0
 25  6  1  0  0  0  0
 28  8  1  0  0  0  0
 29  9  1  0  0  0  0
 32 11  1  0  0  0  0
 33 12  1  0  0  0  0
 34 12  1  0  0  0  0
M  RAD  2  14   2  15   2
M  END
>  <HBA>
3

>  <HBD>
1

>  <TPSA>
32.34

>  <cid>
58108

>  <dipole>
3.6

>  <excitation_energy_1>
2.847

>  <excitation_energy_2>
4.254

>  <excitation_energy_3>
4.355

>  <excitation_energy_4>
4.639

>  <homo_energy>
-5.244

>  <homo_lumo_gap>
3.586

>  <logP>
2.546

>  <lumo_energy>
-1.657

>  <melting_point>
96.64

>  <molecular_refractivity>
73.07

>  <oscillator_strength_1>
0.0875

>  <oscillator_strength_2>
0.5947

>  <oscillator_strength_3>
0.0647

>  <oscillator_strength_4>
0.0113

>  <open_babel_can_smiles>
O[C]([N]N1CCCCC1)/C=C/c1ccccc1

>  <mulliken_charges>
35
1   -0.12593
2   -0.262726
3   -0.130837
4   -0.130514
5   -0.269669
6   -0.264926
7   -0.177459
8   -0.191783
9   -0.204693
10   -0.165719
11   -0.09202
12   -0.111063
13   0.17347
14   0.476062
15   -0.313913
16   -0.338703
17   -0.594833
18   0.135667
19   0.13184
20   0.132856
21   0.136271
22   0.135909
23   0.136118
24   0.134285
25   0.134598
26   0.136159
27   0.137352
28   0.132415
29   0.133155
30   0.169005
31   0.144753
32   0.122896
33   0.125898
34   0.143435
35   0.402644

>  <lowdin_charges>
35
1   -0.150606
2   -0.281315
3   -0.152591
4   -0.153392
5   -0.285583
6   -0.282163
7   -0.150582
8   -0.15701
9   -0.153296
10   -0.198962
11   -0.204956
12   -0.208055
13   -0.00608
14   0.110775
15   -0.145228
16   -0.13138
17   -0.366975
18   0.160792
19   0.14093
20   0.144913
21   0.161708
22   0.161225
23   0.144181
24   0.148409
25   0.147265
26   0.143482
27   0.161978
28   0.158876
29   0.155809
30   0.178823
31   0.151071
32   0.127744
33   0.127242
34   0.149595
35   0.353356

$$$$

