PCCDB-ID:  16454
public computational chemistry database (PCCDB) project, http://pccdb.org

 14 13  0  0  0  0  0  0  0  0999 V2000
    0.2703   -0.0060   -1.0943 C   0  0  0  0  0  0  0  0  0  0  0  0
    1.0536   -0.9097   -0.5085 C   0  0  0  0  0  0  0  0  0  0  0  0
    2.5293   -0.7841   -0.2794 C   0  0  0  0  0  0  0  0  0  0  0  0
    4.2910    0.7301   -0.6503 C   0  0  0  0  0  0  0  0  0  0  0  0
    5.1051   -0.0777   -0.0964 N   0  0  0  0  0  0  0  0  0  0  0  0
    4.5156    1.9585   -1.1892 O   0  0  0  0  0  0  0  0  0  0  0  0
    2.9878    0.4715   -0.7968 O   0  0  0  0  0  0  0  0  0  0  0  0
   -0.7941   -0.1831   -1.2182 H   0  0  0  0  0  0  0  0  0  0  0  0
    0.6660    0.9333   -1.4662 H   0  0  0  0  0  0  0  0  0  0  0  0
    0.6331   -1.8467   -0.1432 H   0  0  0  0  0  0  0  0  0  0  0  0
    3.0796   -1.5981   -0.7690 H   0  0  0  0  0  0  0  0  0  0  0  0
    2.7743   -0.8446    0.7890 H   0  0  0  0  0  0  0  0  0  0  0  0
    6.0574    0.2854   -0.0707 H   0  0  0  0  0  0  0  0  0  0  0  0
    5.4595    2.1610   -1.1021 H   0  0  0  0  0  0  0  0  0  0  0  0
  1  2  2  0  0  0  0
  2  3  1  0  0  0  0
  2 10  1  0  0  0  0
  3 12  1  0  0  0  0
  4  5  2  0  0  0  0
  5 13  1  0  0  0  0
  6 14  1  0  0  0  0
  6  4  1  0  0  0  0
  7  4  1  0  0  0  0
  7  3  1  0  0  0  0
  8  1  1  0  0  0  0
  9  1  1  0  0  0  0
 11  3  1  0  0  0  0
M  END
>  <HBA>
3

>  <HBD>
1

>  <TPSA>
52.32

>  <cid>
16454

>  <dipole>
1.44

>  <excitation_energy_1>
5.968

>  <excitation_energy_2>
6.074

>  <excitation_energy_3>
6.468

>  <excitation_energy_4>
6.678

>  <homo_energy>
-6.928

>  <homo_lumo_gap>
7.565

>  <logP>
0.968

>  <lumo_energy>
0.637

>  <melting_point>
31.19

>  <molecular_refractivity>
25.25

>  <oscillator_strength_1>
0.0058

>  <oscillator_strength_2>
0.0007

>  <oscillator_strength_3>
0.0439

>  <oscillator_strength_4>
0.0192

>  <open_babel_can_smiles>
OC(=N)OCC=C

>  <mulliken_charges>
14
1   -0.319464
2   -0.10621
3   -0.040844
4   0.649379
5   -0.629832
6   -0.570375
7   -0.445063
8   0.139202
9   0.163503
10   0.134458
11   0.169519
12   0.169988
13   0.277017
14   0.408721

>  <lowdin_charges>
14
1   -0.329772
2   -0.165129
3   -0.114739
4   0.191151
5   -0.470352
6   -0.362584
7   -0.171207
8   0.158384
9   0.169326
10   0.157636
11   0.161871
12   0.159212
13   0.256358
14   0.359843

$$$$

