PCCDB-ID:  72810
public computational chemistry database (PCCDB) project, http://pccdb.org

 22 24  0  0  0  0  0  0  0  0999 V2000
    3.4994   -0.3361    0.1083 C   0  0  0  0  0  0  0  0  0  0  0  0
   -3.4904   -0.4680   -0.1084 C   0  0  0  0  0  0  0  0  0  0  0  0
    2.8390    0.8835    0.0893 C   0  0  0  0  0  0  0  0  0  0  0  0
   -2.8764    0.7757   -0.0914 C   0  0  0  0  0  0  0  0  0  0  0  0
    2.7229   -1.5009    0.0817 C   0  0  0  0  0  0  0  0  0  0  0  0
   -2.6707   -1.6028   -0.0788 C   0  0  0  0  0  0  0  0  0  0  0  0
    1.4394    0.8972    0.0457 C   0  0  0  0  0  0  0  0  0  0  0  0
   -1.4783    0.8421   -0.0471 C   0  0  0  0  0  0  0  0  0  0  0  0
    0.7487   -0.3344    0.0232 C   0  0  0  0  0  0  0  0  0  0  0  0
   -0.7419   -0.3626   -0.0218 C   0  0  0  0  0  0  0  0  0  0  0  0
    0.7290    2.1993    0.0237 C   0  0  0  0  0  0  0  0  0  0  0  0
   -0.8175    2.1701   -0.0267 C   0  0  0  0  0  0  0  0  0  0  0  0
    1.3898   -1.5120    0.0401 N   0  0  0  0  0  0  0  0  0  0  0  0
   -1.3381   -1.5636   -0.0364 N   0  0  0  0  0  0  0  0  0  0  0  0
    1.3084    3.2695    0.0423 O   0  0  0  0  0  0  0  0  0  0  0  0
   -1.4369    3.2176   -0.0467 O   0  0  0  0  0  0  0  0  0  0  0  0
    4.5827   -0.3951    0.1429 H   0  0  0  0  0  0  0  0  0  0  0  0
   -4.5707   -0.5678   -0.1436 H   0  0  0  0  0  0  0  0  0  0  0  0
    3.3688    1.8308    0.1066 H   0  0  0  0  0  0  0  0  0  0  0  0
   -3.4415    1.7023   -0.1107 H   0  0  0  0  0  0  0  0  0  0  0  0
    3.2026   -2.4786    0.0931 H   0  0  0  0  0  0  0  0  0  0  0  0
   -3.1131   -2.5978   -0.0882 H   0  0  0  0  0  0  0  0  0  0  0  0
  1 17  1  0  0  0  0
  2  4  2  0  0  0  0
  2  6  1  0  0  0  0
  3 19  1  0  0  0  0
  3  1  1  0  0  0  0
  4  8  1  0  0  0  0
  5 21  1  0  0  0  0
  5  1  2  0  0  0  0
  6 14  2  0  0  0  0
  7  3  2  0  0  0  0
  8 12  1  0  0  0  0
  8 10  2  0  0  0  0
  9 13  2  0  0  0  0
  9  7  1  0  0  0  0
 10  9  1  0  0  0  0
 11 15  2  0  0  0  0
 11  7  1  0  0  0  0
 12 11  1  0  0  0  0
 13  5  1  0  0  0  0
 14 10  1  0  0  0  0
 16 12  2  0  0  0  0
 18  2  1  0  0  0  0
 20  4  1  0  0  0  0
 22  6  1  0  0  0  0
M  END
>  <HBA>
4

>  <HBD>
0

>  <TPSA>
59.92

>  <cid>
72810

>  <dipole>
2.63

>  <excitation_energy_1>
2.258

>  <excitation_energy_2>
2.84

>  <excitation_energy_3>
3.052

>  <excitation_energy_4>
3.405

>  <homo_energy>
-6.931

>  <homo_lumo_gap>
3.614

>  <logP>
1.523

>  <lumo_energy>
-3.317

>  <melting_point>
167.3

>  <molecular_refractivity>
56.13

>  <oscillator_strength_1>
0.0

>  <oscillator_strength_2>
0.0

>  <oscillator_strength_3>
0.0137

>  <oscillator_strength_4>
0.0

>  <open_babel_can_smiles>
O=C1C(=O)c2cccnc2c2c1cccn2

>  <mulliken_charges>
22
1   -0.144034
2   -0.144103
3   -0.125695
4   -0.125651
5   0.052509
6   0.052617
7   0.060937
8   0.060729
9   0.226312
10   0.226357
11   0.340388
12   0.340348
13   -0.472193
14   -0.472122
15   -0.430099
16   -0.430024
17   0.153833
18   0.153809
19   0.180707
20   0.180739
21   0.157316
22   0.15732

>  <lowdin_charges>
22
1   -0.164994
2   -0.165064
3   -0.095779
4   -0.096019
5   -0.063549
6   -0.063326
7   -0.069634
8   -0.069669
9   0.050678
10   0.050484
11   0.127234
12   0.127706
13   -0.118693
14   -0.118582
15   -0.184776
16   -0.1849
17   0.170178
18   0.170239
19   0.184527
20   0.184731
21   0.164735
22   0.164474

$$$$

