PCCDB-ID:  57556
public computational chemistry database (PCCDB) project, http://pccdb.org

 30 30  0  0  0  0  0  0  0  0999 V2000
    1.8445   -0.3188   -1.4345 C   0  0  0  0  0  0  0  0  0  0  0  0
    1.4253    1.3464    2.7271 C   0  0  0  0  0  0  0  0  0  0  0  0
    2.2299   -0.5266    0.0354 C   0  0  0  0  0  0  0  0  0  0  0  0
    1.7187    1.6063    1.2471 C   0  0  0  0  0  0  0  0  0  0  0  0
    5.0847    0.0660    0.2469 C   0  0  0  0  0  0  0  0  0  0  0  0
    6.4919    0.6600    0.3104 C   0  0  0  0  0  0  0  0  0  0  0  0
    8.0659   -1.2376    0.5982 C   0  0  0  0  0  0  0  0  0  0  0  0
    8.8449   -0.0790    0.0775 C   0  0  0  0  0  0  0  0  0  0  0  0
    4.0428    1.0218    0.8293 C   0  0  0  0  0  0  0  0  0  0  0  0
    7.4474   -0.2639   -0.3021 N   0  0  0  0  0  0  0  0  0  0  0  0
    2.7184    0.6858    0.6920 N   0  0  0  0  0  0  0  0  0  0  0  0
    4.3838    2.0551    1.4044 O   0  0  0  0  0  0  0  0  0  0  0  0
    1.4483   -1.2477   -1.8608 H   0  0  0  0  0  0  0  0  0  0  0  0
    2.7115   -0.0116   -2.0289 H   0  0  0  0  0  0  0  0  0  0  0  0
    1.0759    0.4551   -1.5367 H   0  0  0  0  0  0  0  0  0  0  0  0
    0.6515    2.0333    3.0897 H   0  0  0  0  0  0  0  0  0  0  0  0
    2.3303    1.5035    3.3207 H   0  0  0  0  0  0  0  0  0  0  0  0
    1.0719    0.3217    2.8931 H   0  0  0  0  0  0  0  0  0  0  0  0
    2.9838   -1.3132    0.1174 H   0  0  0  0  0  0  0  0  0  0  0  0
    1.3589   -0.8812    0.6002 H   0  0  0  0  0  0  0  0  0  0  0  0
    2.0949    2.6233    1.1167 H   0  0  0  0  0  0  0  0  0  0  0  0
    0.8053    1.5054    0.6501 H   0  0  0  0  0  0  0  0  0  0  0  0
    5.0629   -0.8820    0.8035 H   0  0  0  0  0  0  0  0  0  0  0  0
    4.8497   -0.1876   -0.7932 H   0  0  0  0  0  0  0  0  0  0  0  0
    6.7464    0.9038    1.3551 H   0  0  0  0  0  0  0  0  0  0  0  0
    6.5204    1.6015   -0.2479 H   0  0  0  0  0  0  0  0  0  0  0  0
    7.7852   -1.2121    1.6526 H   0  0  0  0  0  0  0  0  0  0  0  0
    8.2147   -2.2353    0.1902 H   0  0  0  0  0  0  0  0  0  0  0  0
    9.5732   -0.2128   -0.7197 H   0  0  0  0  0  0  0  0  0  0  0  0
    9.0824    0.7170    0.7846 H   0  0  0  0  0  0  0  0  0  0  0  0
  1  3  1  0  0  0  0
  2 18  1  0  0  0  0
  2 16  1  0  0  0  0
  2 17  1  0  0  0  0
  3 19  1  0  0  0  0
  3 20  1  0  0  0  0
  3 11  1  0  0  0  0
  4  2  1  0  0  0  0
  5  6  1  0  0  0  0
  5 23  1  0  0  0  0
  5  9  1  0  0  0  0
  6 25  1  0  0  0  0
  7 27  1  0  0  0  0
  8  7  1  0  0  0  0
  8 30  1  0  0  0  0
  9 12  2  0  0  0  0
 10  8  1  0  0  0  0
 10  6  1  0  0  0  0
 10  7  1  0  0  0  0
 11  9  1  0  0  0  0
 11  4  1  0  0  0  0
 13  1  1  0  0  0  0
 14  1  1  0  0  0  0
 15  1  1  0  0  0  0
 21  4  1  0  0  0  0
 22  4  1  0  0  0  0
 24  5  1  0  0  0  0
 26  6  1  0  0  0  0
 28  7  1  0  0  0  0
 29  8  1  0  0  0  0
M  END
>  <HBA>
3

>  <HBD>
0

>  <TPSA>
23.32

>  <cid>
57556

>  <dipole>
2.87

>  <excitation_energy_1>
5.56

>  <excitation_energy_2>
5.714

>  <excitation_energy_3>
5.76

>  <excitation_energy_4>
6.049

>  <homo_energy>
-6.177

>  <homo_lumo_gap>
7.105

>  <logP>
0.498

>  <lumo_energy>
0.928

>  <melting_point>
6.76

>  <molecular_refractivity>
53.17

>  <oscillator_strength_1>
0.0018

>  <oscillator_strength_2>
0.0161

>  <oscillator_strength_3>
0.0039

>  <oscillator_strength_4>
0.0054

>  <open_babel_can_smiles>
CCN(C(=O)CCN1CC1)CC

>  <mulliken_charges>
30
1   -0.442488
2   -0.444241
3   -0.153122
4   -0.14252
5   -0.383918
6   -0.119322
7   -0.197701
8   -0.190916
9   0.606871
10   -0.361188
11   -0.412799
12   -0.533873
13   0.148321
14   0.159696
15   0.155468
16   0.144118
17   0.17583
18   0.138998
19   0.160638
20   0.152254
21   0.180109
22   0.136341
23   0.161635
24   0.170331
25   0.134554
26   0.158262
27   0.143124
28   0.15342
29   0.154857
30   0.147259

>  <lowdin_charges>
30
1   -0.455504
2   -0.4519
3   -0.198499
4   -0.19467
5   -0.310619
6   -0.192531
7   -0.246698
8   -0.242253
9   0.157741
10   -0.196885
11   -0.107135
12   -0.324058
13   0.155045
14   0.155696
15   0.154269
16   0.15369
17   0.164909
18   0.144072
19   0.156893
20   0.150465
21   0.167124
22   0.142888
23   0.159336
24   0.162571
25   0.132754
26   0.15467
27   0.144672
28   0.155837
29   0.158294
30   0.149827

$$$$

