PCCDB-ID:  70826
public computational chemistry database (PCCDB) project, http://pccdb.org

 27 27  0  0  0  0  0  0  0  0999 V2000
    3.5643    0.6658   -4.2096 C   0  0  0  0  0  0  0  0  0  0  0  0
    1.8299   -0.7743   -3.0182 C   0  0  0  0  0  0  0  0  0  0  0  0
    6.2729    1.0548    0.5028 C   0  0  0  0  0  0  0  0  0  0  0  0
    5.6598   -1.2030   -0.1423 C   0  0  0  0  0  0  0  0  0  0  0  0
    2.8680    0.3324   -2.8938 C   0  0  0  0  0  0  0  0  0  0  0  0
    5.5034    0.1828   -0.2779 C   0  0  0  0  0  0  0  0  0  0  0  0
    7.1839    0.5293    1.4078 C   0  0  0  0  0  0  0  0  0  0  0  0
    6.5778   -1.7244    0.7685 C   0  0  0  0  0  0  0  0  0  0  0  0
    7.3515   -0.8562    1.5552 C   0  0  0  0  0  0  0  0  0  0  0  0
    4.5395    0.7864   -1.2332 C   0  0  0  0  0  0  0  0  0  0  0  0
    7.9939    1.2851    2.2264 O   0  0  0  0  0  0  0  0  0  0  0  0
    6.7800   -3.0626    0.9512 O   0  0  0  0  0  0  0  0  0  0  0  0
    8.2440   -1.3649    2.4427 O   0  0  0  0  0  0  0  0  0  0  0  0
    4.3800    1.9864   -1.3741 O   0  0  0  0  0  0  0  0  0  0  0  0
    3.8506   -0.1473   -1.9313 O   0  0  0  0  0  0  0  0  0  0  0  0
    2.8295    1.0019   -4.9500 H   0  0  0  0  0  0  0  0  0  0  0  0
    4.0768   -0.2167   -4.6091 H   0  0  0  0  0  0  0  0  0  0  0  0
    4.2950    1.4660   -4.0646 H   0  0  0  0  0  0  0  0  0  0  0  0
    1.0389   -0.4709   -3.7127 H   0  0  0  0  0  0  0  0  0  0  0  0
    1.3726   -0.9905   -2.0475 H   0  0  0  0  0  0  0  0  0  0  0  0
    2.2857   -1.6952   -3.3990 H   0  0  0  0  0  0  0  0  0  0  0  0
    6.1405    2.1263    0.3856 H   0  0  0  0  0  0  0  0  0  0  0  0
    5.0611   -1.8731   -0.7512 H   0  0  0  0  0  0  0  0  0  0  0  0
    2.4196    1.2381   -2.4758 H   0  0  0  0  0  0  0  0  0  0  0  0
    7.8161    2.2257    2.0771 H   0  0  0  0  0  0  0  0  0  0  0  0
    6.1884   -3.5454    0.3536 H   0  0  0  0  0  0  0  0  0  0  0  0
    8.6734   -0.6088    2.8798 H   0  0  0  0  0  0  0  0  0  0  0  0
  1 18  1  0  0  0  0
  1  5  1  0  0  0  0
  2  5  1  0  0  0  0
  2 20  1  0  0  0  0
  3  7  2  0  0  0  0
  4  8  1  0  0  0  0
  5 24  1  0  0  0  0
  5 15  1  0  0  0  0
  6  4  2  0  0  0  0
  6  3  1  0  0  0  0
  7  9  1  0  0  0  0
  7 11  1  0  0  0  0
  8 12  1  0  0  0  0
  8  9  2  0  0  0  0
  9 13  1  0  0  0  0
 10  6  1  0  0  0  0
 13 27  1  0  0  0  0
 14 10  2  0  0  0  0
 15 10  1  0  0  0  0
 16  1  1  0  0  0  0
 17  1  1  0  0  0  0
 19  2  1  0  0  0  0
 21  2  1  0  0  0  0
 22  3  1  0  0  0  0
 23  4  1  0  0  0  0
 25 11  1  0  0  0  0
 26 12  1  0  0  0  0
M  END
>  <HBA>
5

>  <HBD>
3

>  <TPSA>
86.99

>  <cid>
70826

>  <dipole>
1.26

>  <excitation_energy_1>
4.43

>  <excitation_energy_2>
4.563

>  <excitation_energy_3>
4.821

>  <excitation_energy_4>
4.972

>  <homo_energy>
-5.758

>  <homo_lumo_gap>
4.83

>  <logP>
1.369

>  <lumo_energy>
-0.928

>  <melting_point>
150.86

>  <molecular_refractivity>
53.4

>  <oscillator_strength_1>
0.0695

>  <oscillator_strength_2>
0.2207

>  <oscillator_strength_3>
0.0009

>  <oscillator_strength_4>
0.0002

>  <open_babel_can_smiles>
CC(OC(=O)c1cc(O)c(c(c1)O)O)C

>  <mulliken_charges>
27
1   -0.458435
2   -0.453308
3   -0.236068
4   -0.247118
5   0.13504
6   0.037023
7   0.309579
8   0.318677
9   0.295036
10   0.603065
11   -0.683281
12   -0.634399
13   -0.63468
14   -0.505847
15   -0.49638
16   0.146724
17   0.149278
18   0.17523
19   0.149882
20   0.157829
21   0.151657
22   0.152064
23   0.142134
24   0.162199
25   0.422464
26   0.410737
27   0.430896

>  <lowdin_charges>
27
1   -0.456526
2   -0.448955
3   -0.19747
4   -0.208678
5   0.012534
6   -0.04721
7   0.060974
8   0.080484
9   0.067484
10   0.195624
11   -0.396893
12   -0.369698
13   -0.357608
14   -0.284155
15   -0.196189
16   0.15732
17   0.153662
18   0.167572
19   0.158074
20   0.158481
21   0.15434
22   0.172938
23   0.169884
24   0.155714
25   0.367462
26   0.362061
27   0.368775

$$$$

