PCCDB-ID:  25060
public computational chemistry database (PCCDB) project, http://pccdb.org

 40 41  0  0  0  0  0  0  0  0999 V2000
    8.2271   -2.7380    3.2575 C   0  0  0  0  0  0  0  0  0  0  0  0
    4.8757  -11.4515    1.3730 C   0  0  0  0  0  0  0  0  0  0  0  0
    4.3316   -5.1051   -2.6632 C   0  0  0  0  0  0  0  0  0  0  0  0
    7.0411   -1.9894    2.6220 C   0  0  0  0  0  0  0  0  0  0  0  0
    4.8750  -11.1252   -0.1316 C   0  0  0  0  0  0  0  0  0  0  0  0
    5.2058   -3.6489    2.0437 C   0  0  0  0  0  0  0  0  0  0  0  0
    6.6205   -2.8648    0.2768 C   0  0  0  0  0  0  0  0  0  0  0  0
    3.3938   -9.1162   -0.5973 C   0  0  0  0  0  0  0  0  0  0  0  0
    5.7629   -8.7697   -0.4666 C   0  0  0  0  0  0  0  0  0  0  0  0
    4.5232   -4.4550    1.1382 C   0  0  0  0  0  0  0  0  0  0  0  0
    5.9341   -3.6727   -0.6341 C   0  0  0  0  0  0  0  0  0  0  0  0
    3.2091   -7.7510   -0.8192 C   0  0  0  0  0  0  0  0  0  0  0  0
    5.5798   -7.4059   -0.6857 C   0  0  0  0  0  0  0  0  0  0  0  0
    4.0830   -5.3880   -1.1691 C   0  0  0  0  0  0  0  0  0  0  0  0
    6.2725   -2.8369    1.6303 C   0  0  0  0  0  0  0  0  0  0  0  0
    4.6743   -9.6515   -0.4159 C   0  0  0  0  0  0  0  0  0  0  0  0
    4.8728   -4.4849   -0.2210 C   0  0  0  0  0  0  0  0  0  0  0  0
    4.2970   -6.8719   -0.8685 C   0  0  0  0  0  0  0  0  0  0  0  0
    8.7599   -2.0967    3.9693 H   0  0  0  0  0  0  0  0  0  0  0  0
    8.9404   -3.0632    2.4918 H   0  0  0  0  0  0  0  0  0  0  0  0
    7.8859   -3.6311    3.7929 H   0  0  0  0  0  0  0  0  0  0  0  0
    5.0233  -12.5246    1.5420 H   0  0  0  0  0  0  0  0  0  0  0  0
    3.9267  -11.1608    1.8376 H   0  0  0  0  0  0  0  0  0  0  0  0
    5.6767  -10.9118    1.8908 H   0  0  0  0  0  0  0  0  0  0  0  0
    4.1259   -4.0570   -2.9092 H   0  0  0  0  0  0  0  0  0  0  0  0
    3.6786   -5.7359   -3.2748 H   0  0  0  0  0  0  0  0  0  0  0  0
    5.3648   -5.3298   -2.9507 H   0  0  0  0  0  0  0  0  0  0  0  0
    7.4133   -1.0857    2.1228 H   0  0  0  0  0  0  0  0  0  0  0  0
    6.3648   -1.6491    3.4166 H   0  0  0  0  0  0  0  0  0  0  0  0
    4.0845  -11.7054   -0.6246 H   0  0  0  0  0  0  0  0  0  0  0  0
    5.8243  -11.4579   -0.5708 H   0  0  0  0  0  0  0  0  0  0  0  0
    4.9031   -3.6426    3.0892 H   0  0  0  0  0  0  0  0  0  0  0  0
    7.4377   -2.2396   -0.0781 H   0  0  0  0  0  0  0  0  0  0  0  0
    2.5283   -9.7753   -0.5644 H   0  0  0  0  0  0  0  0  0  0  0  0
    6.7706   -9.1583   -0.3314 H   0  0  0  0  0  0  0  0  0  0  0  0
    3.7009   -5.0757    1.4880 H   0  0  0  0  0  0  0  0  0  0  0  0
    6.2314   -3.6519   -1.6781 H   0  0  0  0  0  0  0  0  0  0  0  0
    2.2019   -7.3635   -0.9616 H   0  0  0  0  0  0  0  0  0  0  0  0
    6.4429   -6.7455   -0.7087 H   0  0  0  0  0  0  0  0  0  0  0  0
    3.0199   -5.1808   -0.9822 H   0  0  0  0  0  0  0  0  0  0  0  0
  1 21  1  0  0  0  0
  1 19  1  0  0  0  0
  2 22  1  0  0  0  0
  2 23  1  0  0  0  0
  2 24  1  0  0  0  0
  3 14  1  0  0  0  0
  4  1  1  0  0  0  0
  4 29  1  0  0  0  0
  5  2  1  0  0  0  0
  6 32  1  0  0  0  0
  7 15  2  0  0  0  0
  8 34  1  0  0  0  0
  8 16  2  0  0  0  0
  9 16  1  0  0  0  0
  9 35  1  0  0  0  0
 10 36  1  0  0  0  0
 10  6  2  0  0  0  0
 11 17  2  0  0  0  0
 11  7  1  0  0  0  0
 12  8  1  0  0  0  0
 13  9  2  0  0  0  0
 14 40  1  0  0  0  0
 14 18  1  0  0  0  0
 14 17  1  0  0  0  0
 15  6  1  0  0  0  0
 15  4  1  0  0  0  0
 16  5  1  0  0  0  0
 17 10  1  0  0  0  0
 18 12  2  0  0  0  0
 18 13  1  0  0  0  0
 20  1  1  0  0  0  0
 25  3  1  0  0  0  0
 26  3  1  0  0  0  0
 27  3  1  0  0  0  0
 28  4  1  0  0  0  0
 30  5  1  0  0  0  0
 31  5  1  0  0  0  0
 33  7  1  0  0  0  0
 37 11  1  0  0  0  0
 38 12  1  0  0  0  0
 39 13  1  0  0  0  0
M  END
>  <HBA>
0

>  <HBD>
0

>  <TPSA>
0.0

>  <cid>
25060

>  <dipole>
0.17

>  <excitation_energy_1>
5.058

>  <excitation_energy_2>
5.179

>  <excitation_energy_3>
5.31

>  <excitation_energy_4>
5.45

>  <homo_energy>
-5.992

>  <homo_lumo_gap>
6.0

>  <logP>
4.963

>  <lumo_energy>
0.008

>  <melting_point>
45.23

>  <molecular_refractivity>
80.25

>  <oscillator_strength_1>
0.0316

>  <oscillator_strength_2>
0.0036

>  <oscillator_strength_3>
0.1266

>  <oscillator_strength_4>
0.0488

>  <open_babel_can_smiles>
CCc1ccc(cc1)C(c1ccc(cc1)CC)C

>  <mulliken_charges>
40
1   -0.432942
2   -0.432573
3   -0.448977
4   -0.339698
5   -0.339796
6   -0.183285
7   -0.1873
8   -0.181783
9   -0.184366
10   -0.17241
11   -0.193156
12   -0.194256
13   -0.178532
14   -0.246395
15   0.178716
16   0.17703
17   0.167241
18   0.180633
19   0.14204
20   0.148342
21   0.149351
22   0.14181
23   0.148351
24   0.149307
25   0.148561
26   0.150592
27   0.150443
28   0.141466
29   0.141585
30   0.141021
31   0.141759
32   0.120045
33   0.118714
34   0.118924
35   0.119912
36   0.12622
37   0.123777
38   0.119193
39   0.13156
40   0.138878

>  <lowdin_charges>
40
1   -0.443292
2   -0.44012
3   -0.441324
4   -0.272251
5   -0.272324
6   -0.164711
7   -0.168376
8   -0.168996
9   -0.164914
10   -0.158685
11   -0.172887
12   -0.170247
13   -0.162458
14   -0.118381
15   -0.003949
16   -0.0032
17   -0.007093
18   -0.003886
19   0.149816
20   0.15108
21   0.151029
22   0.146769
23   0.150194
24   0.151628
25   0.150025
26   0.157043
27   0.149666
28   0.148412
29   0.14909
30   0.148937
31   0.148215
32   0.15181
33   0.153055
34   0.153433
35   0.152327
36   0.157147
37   0.155817
38   0.151442
39   0.160383
40   0.149775

$$$$

