PCCDB-ID:  45916
public computational chemistry database (PCCDB) project, http://pccdb.org

 27 28  0  0  0  0  0  0  0  0999 V2000
    2.6737    0.6674    0.4124 C   0  0  0  0  0  0  0  0  0  0  0  0
    2.5549   -0.7382    0.3042 C   0  0  0  0  0  0  0  0  0  0  0  0
    1.5676    1.4668    0.2339 C   0  0  0  0  0  0  0  0  0  0  0  0
    1.3340   -1.3152    0.0340 C   0  0  0  0  0  0  0  0  0  0  0  0
   -0.8544    1.7204   -0.2518 C   0  0  0  0  0  0  0  0  0  0  0  0
   -2.0725    1.1489   -0.5348 C   0  0  0  0  0  0  0  0  0  0  0  0
   -4.9231   -2.2134    0.3480 C   0  0  0  0  0  0  0  0  0  0  0  0
   -4.4630   -0.7849    0.0915 C   0  0  0  0  0  0  0  0  0  0  0  0
    0.2920    0.9089   -0.0469 C   0  0  0  0  0  0  0  0  0  0  0  0
    0.1684   -0.5184   -0.1345 C   0  0  0  0  0  0  0  0  0  0  0  0
   -2.2173   -0.2572   -0.5969 C   0  0  0  0  0  0  0  0  0  0  0  0
   -1.1205   -1.0764   -0.3812 C   0  0  0  0  0  0  0  0  0  0  0  0
   -3.8952   -3.0098    0.8977 O   0  0  0  0  0  0  0  0  0  0  0  0
   -1.3215   -2.4381   -0.4383 O   0  0  0  0  0  0  0  0  0  0  0  0
   -3.4236   -0.8303   -0.9099 O   0  0  0  0  0  0  0  0  0  0  0  0
    3.6416    1.1121    0.6256 H   0  0  0  0  0  0  0  0  0  0  0  0
    3.4340   -1.3651    0.4246 H   0  0  0  0  0  0  0  0  0  0  0  0
    1.6544    2.5486    0.3023 H   0  0  0  0  0  0  0  0  0  0  0  0
    1.2822   -2.3953   -0.0844 H   0  0  0  0  0  0  0  0  0  0  0  0
   -0.7528    2.8009   -0.1967 H   0  0  0  0  0  0  0  0  0  0  0  0
   -2.9508    1.7612   -0.7170 H   0  0  0  0  0  0  0  0  0  0  0  0
   -5.3091   -2.6353   -0.5950 H   0  0  0  0  0  0  0  0  0  0  0  0
   -5.7488   -2.2034    1.0696 H   0  0  0  0  0  0  0  0  0  0  0  0
   -4.0735   -0.3400    1.0140 H   0  0  0  0  0  0  0  0  0  0  0  0
   -5.2885   -0.1669   -0.2856 H   0  0  0  0  0  0  0  0  0  0  0  0
   -3.1345   -2.9429    0.2902 H   0  0  0  0  0  0  0  0  0  0  0  0
   -0.6200   -2.8810    0.0636 H   0  0  0  0  0  0  0  0  0  0  0  0
  1 16  1  0  0  0  0
  2  1  1  0  0  0  0
  2 17  1  0  0  0  0
  3 18  1  0  0  0  0
  3  1  2  0  0  0  0
  4  2  2  0  0  0  0
  5 20  1  0  0  0  0
  5  9  2  0  0  0  0
  6  5  1  0  0  0  0
  7 13  1  0  0  0  0
  7 23  1  0  0  0  0
  8  7  1  0  0  0  0
  8 24  1  0  0  0  0
  9  3  1  0  0  0  0
 10  9  1  0  0  0  0
 10  4  1  0  0  0  0
 11  6  2  0  0  0  0
 11 12  1  0  0  0  0
 12 10  2  0  0  0  0
 14 12  1  0  0  0  0
 14 27  1  0  0  0  0
 15 11  1  0  0  0  0
 15  8  1  0  0  0  0
 19  4  1  0  0  0  0
 21  6  1  0  0  0  0
 22  7  1  0  0  0  0
 25  8  1  0  0  0  0
 26 13  1  0  0  0  0
M  END
>  <HBA>
3

>  <HBD>
2

>  <TPSA>
49.69

>  <cid>
45916

>  <dipole>
2.43

>  <excitation_energy_1>
3.98

>  <excitation_energy_2>
4.309

>  <excitation_energy_3>
4.867

>  <excitation_energy_4>
5.118

>  <homo_energy>
-5.641

>  <homo_lumo_gap>
4.498

>  <logP>
1.917

>  <lumo_energy>
-1.143

>  <melting_point>
112.69

>  <molecular_refractivity>
58.43

>  <oscillator_strength_1>
0.0531

>  <oscillator_strength_2>
0.0153

>  <oscillator_strength_3>
0.0045

>  <oscillator_strength_4>
0.1219

>  <open_babel_can_smiles>
OCCOc1ccc2c(c1O)cccc2

>  <mulliken_charges>
27
1   -0.133194
2   -0.134901
3   -0.197354
4   -0.212222
5   -0.203294
6   -0.175323
7   -0.026875
8   -0.058405
9   0.140459
10   0.123655
11   0.329991
12   0.204446
13   -0.650393
14   -0.657078
15   -0.539581
16   0.133948
17   0.134436
18   0.134562
19   0.119137
20   0.132927
21   0.139285
22   0.129469
23   0.13757
24   0.14835
25   0.135153
26   0.42364
27   0.421592

>  <lowdin_charges>
27
1   -0.160016
2   -0.153076
3   -0.147017
4   -0.170946
5   -0.165503
6   -0.170339
7   -0.140684
8   -0.144707
9   0.002024
10   -0.029311
11   0.064656
12   0.073183
13   -0.483417
14   -0.376993
15   -0.230204
16   0.160812
17   0.161677
18   0.15813
19   0.148526
20   0.158611
21   0.168029
22   0.1321
23   0.146801
24   0.148292
25   0.143413
26   0.342465
27   0.363498

$$$$

