PCCDB-ID:  3086
public computational chemistry database (PCCDB) project, http://pccdb.org

 15 14  0  0  0  0  0  0  0  0999 V2000
    1.0673    0.5241   -0.0033 C   0  0  0  0  0  0  0  0  0  0  0  0
    7.2404    2.2831   -2.6648 C   0  0  0  0  0  0  0  0  0  0  0  0
    3.1070    1.3876   -0.7332 C   0  0  0  0  0  0  0  0  0  0  0  0
    5.0438    1.8792   -1.9936 C   0  0  0  0  0  0  0  0  0  0  0  0
    2.8399    2.5029   -0.3790 O   0  0  0  0  0  0  0  0  0  0  0  0
    4.6060    2.7908   -2.6402 O   0  0  0  0  0  0  0  0  0  0  0  0
    2.3440    0.2991   -0.6305 O   0  0  0  0  0  0  0  0  0  0  0  0
    6.3173    1.5001   -1.8846 O   0  0  0  0  0  0  0  0  0  0  0  0
    4.3053    0.9722   -1.2681 O   0  0  0  0  0  0  0  0  0  0  0  0
    0.5731   -0.4470   -0.0061 H   0  0  0  0  0  0  0  0  0  0  0  0
    0.4884    1.2554   -0.5723 H   0  0  0  0  0  0  0  0  0  0  0  0
    1.2039    0.8853    1.0191 H   0  0  0  0  0  0  0  0  0  0  0  0
    8.2160    1.8295   -2.4924 H   0  0  0  0  0  0  0  0  0  0  0  0
    7.2327    3.3231   -2.3298 H   0  0  0  0  0  0  0  0  0  0  0  0
    6.9754    2.2410   -3.7241 H   0  0  0  0  0  0  0  0  0  0  0  0
  1 12  1  0  0  0  0
  2 13  1  0  0  0  0
  2 14  1  0  0  0  0
  2  8  1  0  0  0  0
  3  7  1  0  0  0  0
  3  5  2  0  0  0  0
  4  8  1  0  0  0  0
  4  9  1  0  0  0  0
  6  4  2  0  0  0  0
  7  1  1  0  0  0  0
  9  3  1  0  0  0  0
 10  1  1  0  0  0  0
 11  1  1  0  0  0  0
 15  2  1  0  0  0  0
M  END
>  <HBA>
5

>  <HBD>
0

>  <TPSA>
61.83

>  <cid>
3086

>  <dipole>
1.51

>  <excitation_energy_1>
6.408

>  <excitation_energy_2>
6.541

>  <excitation_energy_3>
7.67

>  <excitation_energy_4>
7.779

>  <homo_energy>
-8.09

>  <homo_lumo_gap>
8.087

>  <logP>
0.536

>  <lumo_energy>
-0.003

>  <melting_point>
11.37

>  <molecular_refractivity>
25.77

>  <oscillator_strength_1>
0.0066

>  <oscillator_strength_2>
0.0001

>  <oscillator_strength_3>
0.0177

>  <oscillator_strength_4>
0.0036

>  <open_babel_can_smiles>
COC(=O)OC(=O)OC

>  <mulliken_charges>
15
1   -0.222574
2   -0.222706
3   0.789029
4   0.788982
5   -0.438102
6   -0.43817
7   -0.429249
8   -0.429186
9   -0.472875
10   0.176691
11   0.182237
12   0.178467
13   0.176704
14   0.181631
15   0.179122

>  <lowdin_charges>
15
1   -0.270165
2   -0.26821
3   0.245619
4   0.247242
5   -0.236535
6   -0.237693
7   -0.163191
8   -0.163681
9   -0.143919
10   0.167227
11   0.167211
12   0.162639
13   0.166931
14   0.164023
15   0.1625

$$$$

