PCCDB-ID:  19996
public computational chemistry database (PCCDB) project, http://pccdb.org

 29 28  0  0  0  0  0  0  0  0999 V2000
    7.4782    0.7341   -6.4412 C   0  0  0  0  0  0  0  0  0  0  0  0
   11.7218   -1.5624    3.6920 C   0  0  0  0  0  0  0  0  0  0  0  0
    6.3481    0.9556   -5.7651 C   0  0  0  0  0  0  0  0  0  0  0  0
   11.5161   -0.9344    2.5324 C   0  0  0  0  0  0  0  0  0  0  0  0
    6.6225   -1.4637   -2.0511 C   0  0  0  0  0  0  0  0  0  0  0  0
    8.5623   -1.1286   -0.7465 C   0  0  0  0  0  0  0  0  0  0  0  0
    6.1631   -1.9037   -3.4287 C   0  0  0  0  0  0  0  0  0  0  0  0
   10.0729   -1.3203   -0.8272 C   0  0  0  0  0  0  0  0  0  0  0  0
    5.8262    0.0836   -4.6848 C   0  0  0  0  0  0  0  0  0  0  0  0
   10.8049   -1.6122    1.4193 C   0  0  0  0  0  0  0  0  0  0  0  0
    4.8058    0.3247   -4.0678 O   0  0  0  0  0  0  0  0  0  0  0  0
   10.3620   -2.7428    1.4450 O   0  0  0  0  0  0  0  0  0  0  0  0
    8.0338   -1.5442   -1.9909 O   0  0  0  0  0  0  0  0  0  0  0  0
    6.6025   -1.0043   -4.4642 O   0  0  0  0  0  0  0  0  0  0  0  0
   10.7160   -0.7860    0.3451 O   0  0  0  0  0  0  0  0  0  0  0  0
    7.8098    1.4143   -7.2206 H   0  0  0  0  0  0  0  0  0  0  0  0
    8.1023   -0.1292   -6.2339 H   0  0  0  0  0  0  0  0  0  0  0  0
   12.2418   -1.0839    4.5163 H   0  0  0  0  0  0  0  0  0  0  0  0
   11.3693   -2.5797    3.8370 H   0  0  0  0  0  0  0  0  0  0  0  0
    5.7196    1.8190   -5.9633 H   0  0  0  0  0  0  0  0  0  0  0  0
   11.8541    0.0816    2.3522 H   0  0  0  0  0  0  0  0  0  0  0  0
    6.1616   -2.1283   -1.2998 H   0  0  0  0  0  0  0  0  0  0  0  0
    6.2751   -0.4399   -1.8477 H   0  0  0  0  0  0  0  0  0  0  0  0
    8.3293   -0.0692   -0.5509 H   0  0  0  0  0  0  0  0  0  0  0  0
    8.1515   -1.7285    0.0796 H   0  0  0  0  0  0  0  0  0  0  0  0
    5.0729   -1.9780   -3.4486 H   0  0  0  0  0  0  0  0  0  0  0  0
    6.6118   -2.8660   -3.6843 H   0  0  0  0  0  0  0  0  0  0  0  0
   10.4797   -0.7550   -1.6681 H   0  0  0  0  0  0  0  0  0  0  0  0
   10.3176   -2.3788   -0.9369 H   0  0  0  0  0  0  0  0  0  0  0  0
  1 17  1  0  0  0  0
  1  3  2  0  0  0  0
  2 19  1  0  0  0  0
  2 18  1  0  0  0  0
  3  9  1  0  0  0  0
  4  2  2  0  0  0  0
  5 13  1  0  0  0  0
  5 23  1  0  0  0  0
  5 22  1  0  0  0  0
  6 24  1  0  0  0  0
  6 25  1  0  0  0  0
  7  5  1  0  0  0  0
  8  6  1  0  0  0  0
  8 15  1  0  0  0  0
  9 14  1  0  0  0  0
  9 11  2  0  0  0  0
 10 12  2  0  0  0  0
 10  4  1  0  0  0  0
 13  6  1  0  0  0  0
 14  7  1  0  0  0  0
 15 10  1  0  0  0  0
 16  1  1  0  0  0  0
 20  3  1  0  0  0  0
 21  4  1  0  0  0  0
 26  7  1  0  0  0  0
 27  7  1  0  0  0  0
 28  8  1  0  0  0  0
 29  8  1  0  0  0  0
M  END
>  <HBA>
5

>  <HBD>
0

>  <TPSA>
61.83

>  <cid>
19996

>  <dipole>
1.91

>  <excitation_energy_1>
4.718

>  <excitation_energy_2>
4.762

>  <excitation_energy_3>
5.204

>  <excitation_energy_4>
5.216

>  <homo_energy>
-7.154

>  <homo_lumo_gap>
5.837

>  <logP>
0.461

>  <lumo_energy>
-1.317

>  <melting_point>
-54.48

>  <molecular_refractivity>
52.89

>  <oscillator_strength_1>
0.0002

>  <oscillator_strength_2>
0.0003

>  <oscillator_strength_3>
0.0002

>  <oscillator_strength_4>
0.0004

>  <open_babel_can_smiles>
C=CC(=O)OCCOCCOC(=O)C=C

>  <mulliken_charges>
29
1   -0.310118
2   -0.301312
3   -0.131041
4   -0.133745
5   -0.028698
6   -0.026474
7   -0.063985
8   -0.063723
9   0.612054
10   0.60643
11   -0.491324
12   -0.488494
13   -0.47994
14   -0.465874
15   -0.477175
16   0.158415
17   0.180483
18   0.15926
19   0.181794
20   0.158532
21   0.15584
22   0.130141
23   0.153275
24   0.132835
25   0.14842
26   0.171429
27   0.166399
28   0.166212
29   0.180386

>  <lowdin_charges>
29
1   -0.274026
2   -0.262837
3   -0.179637
4   -0.184697
5   -0.138625
6   -0.139093
7   -0.133892
8   -0.135701
9   0.193755
10   0.193276
11   -0.27061
12   -0.269597
13   -0.271893
14   -0.186973
15   -0.189462
16   0.169877
17   0.178472
18   0.170765
19   0.179141
20   0.1745
21   0.170239
22   0.138639
23   0.144632
24   0.131636
25   0.142798
26   0.162019
27   0.162417
28   0.161598
29   0.16328

$$$$

