PCCDB-ID:  14119
public computational chemistry database (PCCDB) project, http://pccdb.org

 23 24  0  0  0  0  0  0  0  0999 V2000
    6.9515   -1.6354    2.0064 C   0  0  0  0  0  0  0  0  0  0  0  0
    6.8576   -2.0652   -3.5406 C   0  0  0  0  0  0  0  0  0  0  0  0
    6.3013   -1.9012   -2.2594 C   0  0  0  0  0  0  0  0  0  0  0  0
    6.4707   -3.1044   -4.3783 C   0  0  0  0  0  0  0  0  0  0  0  0
    3.9434   -4.8871   -2.3551 C   0  0  0  0  0  0  0  0  0  0  0  0
    3.7966   -5.7548   -3.3887 C   0  0  0  0  0  0  0  0  0  0  0  0
    4.9194   -3.8645   -2.6271 C   0  0  0  0  0  0  0  0  0  0  0  0
    5.3453   -2.7994   -1.8103 C   0  0  0  0  0  0  0  0  0  0  0  0
    5.4998   -3.9956   -3.9111 C   0  0  0  0  0  0  0  0  0  0  0  0
    5.2511   -2.3162    0.5543 C   0  0  0  0  0  0  0  0  0  0  0  0
    6.4670   -1.9878    0.6816 N   0  0  0  0  0  0  0  0  0  0  0  0
    4.2795   -2.3769    1.5007 O   0  0  0  0  0  0  0  0  0  0  0  0
    4.6640   -2.6951   -0.6021 O   0  0  0  0  0  0  0  0  0  0  0  0
    4.8292   -5.3849   -4.7549 S   0  0  0  0  0  0  0  0  0  0  0  0
    8.0229   -1.4267    1.9500 H   0  0  0  0  0  0  0  0  0  0  0  0
    6.8194   -2.4470    2.7415 H   0  0  0  0  0  0  0  0  0  0  0  0
    6.4677   -0.7294    2.4084 H   0  0  0  0  0  0  0  0  0  0  0  0
    7.6090   -1.3573   -3.8786 H   0  0  0  0  0  0  0  0  0  0  0  0
    6.6275   -1.0956   -1.6172 H   0  0  0  0  0  0  0  0  0  0  0  0
    6.9094   -3.2184   -5.3648 H   0  0  0  0  0  0  0  0  0  0  0  0
    3.3878   -4.9484   -1.4274 H   0  0  0  0  0  0  0  0  0  0  0  0
    3.1337   -6.6083   -3.4452 H   0  0  0  0  0  0  0  0  0  0  0  0
    4.6582   -2.0829    2.3441 H   0  0  0  0  0  0  0  0  0  0  0  0
  1 17  1  0  0  0  0
  1 16  1  0  0  0  0
  2  3  2  0  0  0  0
  3  8  1  0  0  0  0
  3 19  1  0  0  0  0
  4  9  2  0  0  0  0
  4  2  1  0  0  0  0
  5 21  1  0  0  0  0
  6  5  2  0  0  0  0
  7  5  1  0  0  0  0
  7  8  2  0  0  0  0
  8 13  1  0  0  0  0
  9  7  1  0  0  0  0
 10 11  2  0  0  0  0
 10 12  1  0  0  0  0
 11  1  1  0  0  0  0
 12 23  1  0  0  0  0
 13 10  1  0  0  0  0
 14  9  1  0  0  0  0
 14  6  1  0  0  0  0
 15  1  1  0  0  0  0
 18  2  1  0  0  0  0
 20  4  1  0  0  0  0
 22  6  1  0  0  0  0
M  END
>  <HBA>
4

>  <HBD>
1

>  <TPSA>
66.57

>  <cid>
14119

>  <dipole>
2.57

>  <excitation_energy_1>
4.481

>  <excitation_energy_2>
4.766

>  <excitation_energy_3>
4.983

>  <excitation_energy_4>
5.045

>  <homo_energy>
-5.679

>  <homo_lumo_gap>
5.075

>  <logP>
3.01

>  <lumo_energy>
-0.604

>  <melting_point>
111.23

>  <molecular_refractivity>
56.51

>  <oscillator_strength_1>
0.1292

>  <oscillator_strength_2>
0.0509

>  <oscillator_strength_3>
0.0002

>  <oscillator_strength_4>
0.0011

>  <open_babel_can_smiles>
C/N=C(/Oc1cccc2c1ccs2)\O

>  <mulliken_charges>
23
1   -0.361
2   -0.140583
3   -0.141675
4   -0.159315
5   -0.10572
6   -0.354019
7   0.101094
8   0.291445
9   -0.158631
10   0.673344
11   -0.430188
12   -0.588814
13   -0.515298
14   0.227768
15   0.177404
16   0.14415
17   0.144735
18   0.134464
19   0.161114
20   0.139743
21   0.158661
22   0.174931
23   0.426391

>  <lowdin_charges>
23
1   -0.365841
2   -0.153237
3   -0.179677
4   -0.16889
5   -0.177755
6   -0.29897
7   -0.032986
8   0.107204
9   -0.132031
10   0.192121
11   -0.258552
12   -0.3566
13   -0.136081
14   0.283092
15   0.163775
16   0.139289
17   0.139557
18   0.162438
19   0.180609
20   0.164335
21   0.176526
22   0.18302
23   0.368655

$$$$

