PCCDB-ID:  67516
public computational chemistry database (PCCDB) project, http://pccdb.org

  8  8  0  0  0  0  0  0  0  0999 V2000
   -1.1364   -0.0027   -0.0004 C   0  0  0  0  0  0  0  0  0  0  0  0
   -0.3607   -1.1393    0.0012 C   0  0  0  0  0  0  0  0  0  0  0  0
   -0.3179    1.0904   -0.0027 N   0  0  0  0  0  0  0  0  0  0  0  0
    0.9066   -0.6558    0.0005 N   0  0  0  0  0  0  0  0  0  0  0  0
    0.9252    0.6957   -0.0024 N   0  0  0  0  0  0  0  0  0  0  0  0
   -2.2118    0.0955   -0.0009 H   0  0  0  0  0  0  0  0  0  0  0  0
   -0.5894   -2.1938    0.0044 H   0  0  0  0  0  0  0  0  0  0  0  0
    1.7821   -1.1605   -0.0017 H   0  0  0  0  0  0  0  0  0  0  0  0
  1  2  2  0  0  0  0
  2  7  1  0  0  0  0
  3  5  2  0  0  0  0
  3  1  1  0  0  0  0
  4  2  1  0  0  0  0
  5  4  1  0  0  0  0
  6  1  1  0  0  0  0
  8  4  1  0  0  0  0
M  END
>  <HBA>
2

>  <HBD>
1

>  <TPSA>
41.57

>  <cid>
67516

>  <dipole>
4.4

>  <excitation_energy_1>
5.755

>  <excitation_energy_2>
6.343

>  <excitation_energy_3>
6.489

>  <excitation_energy_4>
6.726

>  <homo_energy>
-7.2

>  <homo_lumo_gap>
7.11

>  <logP>
-0.195

>  <lumo_energy>
-0.09

>  <melting_point>
80.6

>  <molecular_refractivity>
16.38

>  <oscillator_strength_1>
0.0075

>  <oscillator_strength_2>
0.0068

>  <oscillator_strength_3>
0.0607

>  <oscillator_strength_4>
0.0762

>  <open_babel_can_smiles>
c1cnn[nH]1

>  <mulliken_charges>
8
1   -0.011554
2   0.035894
3   -0.263736
4   -0.380377
5   -0.069046
6   0.157797
7   0.175754
8   0.355268

>  <lowdin_charges>
8
1   -0.166266
2   -0.151698
3   -0.125567
4   -0.121875
5   -0.09041
6   0.172432
7   0.181102
8   0.302282

$$$$

