PCCDB-ID:  14589
public computational chemistry database (PCCDB) project, http://pccdb.org

 28 30  0  0  0  0  0  0  0  0999 V2000
   -4.0051    0.1834    0.1306 C   0  0  0  0  0  0  0  0  0  0  0  0
    3.9970    0.3735    0.1243 C   0  0  0  0  0  0  0  0  0  0  0  0
   -3.6784   -1.1732    0.1486 C   0  0  0  0  0  0  0  0  0  0  0  0
    3.7742   -0.8833   -0.4396 C   0  0  0  0  0  0  0  0  0  0  0  0
   -3.0025    1.1292   -0.0696 C   0  0  0  0  0  0  0  0  0  0  0  0
    2.9097    1.1721    0.4657 C   0  0  0  0  0  0  0  0  0  0  0  0
   -2.3586   -1.5592   -0.0488 C   0  0  0  0  0  0  0  0  0  0  0  0
    2.4710   -1.3177   -0.6358 C   0  0  0  0  0  0  0  0  0  0  0  0
   -0.6255    1.8417   -0.4088 C   0  0  0  0  0  0  0  0  0  0  0  0
    0.4900    1.7287    0.6438 C   0  0  0  0  0  0  0  0  0  0  0  0
   -1.6630    0.7581   -0.2487 C   0  0  0  0  0  0  0  0  0  0  0  0
    1.5847    0.7545    0.2687 C   0  0  0  0  0  0  0  0  0  0  0  0
   -1.3336   -0.6136   -0.2427 C   0  0  0  0  0  0  0  0  0  0  0  0
    1.3573   -0.5260   -0.2880 C   0  0  0  0  0  0  0  0  0  0  0  0
    0.0260   -1.2105   -0.5166 C   0  0  0  0  0  0  0  0  0  0  0  0
    0.0462   -2.3698   -0.9252 O   0  0  0  0  0  0  0  0  0  0  0  0
   -5.0331    0.5052    0.2756 H   0  0  0  0  0  0  0  0  0  0  0  0
    5.0086    0.7351    0.2891 H   0  0  0  0  0  0  0  0  0  0  0  0
   -4.4470   -1.9241    0.3087 H   0  0  0  0  0  0  0  0  0  0  0  0
    4.6088   -1.5190   -0.7216 H   0  0  0  0  0  0  0  0  0  0  0  0
   -3.2578    2.1861   -0.0840 H   0  0  0  0  0  0  0  0  0  0  0  0
    3.0855    2.1567    0.8922 H   0  0  0  0  0  0  0  0  0  0  0  0
   -2.0873   -2.6084   -0.0672 H   0  0  0  0  0  0  0  0  0  0  0  0
    2.2726   -2.2951   -1.0594 H   0  0  0  0  0  0  0  0  0  0  0  0
   -0.1792    1.8171   -1.4123 H   0  0  0  0  0  0  0  0  0  0  0  0
   -1.1180    2.8152   -0.3118 H   0  0  0  0  0  0  0  0  0  0  0  0
    0.0413    1.4517    1.6084 H   0  0  0  0  0  0  0  0  0  0  0  0
    0.9481    2.7127    0.7927 H   0  0  0  0  0  0  0  0  0  0  0  0
  1  3  1  0  0  0  0
  1 17  1  0  0  0  0
  2 18  1  0  0  0  0
  2  6  2  0  0  0  0
  3 19  1  0  0  0  0
  4  2  1  0  0  0  0
  5  1  2  0  0  0  0
  6 22  1  0  0  0  0
  7  3  2  0  0  0  0
  8  4  2  0  0  0  0
  8 14  1  0  0  0  0
  9 26  1  0  0  0  0
  9 11  1  0  0  0  0
  9 10  1  0  0  0  0
 10 28  1  0  0  0  0
 10 27  1  0  0  0  0
 11 13  2  0  0  0  0
 11  5  1  0  0  0  0
 12  6  1  0  0  0  0
 12 10  1  0  0  0  0
 13  7  1  0  0  0  0
 14 12  2  0  0  0  0
 15 14  1  0  0  0  0
 15 13  1  0  0  0  0
 16 15  2  0  0  0  0
 20  4  1  0  0  0  0
 21  5  1  0  0  0  0
 23  7  1  0  0  0  0
 24  8  1  0  0  0  0
 25  9  1  0  0  0  0
M  END
>  <HBA>
1

>  <HBD>
0

>  <TPSA>
17.07

>  <cid>
14589

>  <dipole>
3.09

>  <excitation_energy_1>
3.446

>  <excitation_energy_2>
4.084

>  <excitation_energy_3>
4.218

>  <excitation_energy_4>
4.412

>  <homo_energy>
-6.607

>  <homo_lumo_gap>
4.792

>  <logP>
3.016

>  <lumo_energy>
-1.815

>  <melting_point>
96.01

>  <molecular_refractivity>
64.13

>  <oscillator_strength_1>
0.0027

>  <oscillator_strength_2>
0.0187

>  <oscillator_strength_3>
0.0258

>  <oscillator_strength_4>
0.2825

>  <open_babel_can_smiles>
O=C1c2ccccc2CCc2c1cccc2

>  <mulliken_charges>
28
1   -0.112706
2   -0.111472
3   -0.137299
4   -0.135051
5   -0.205624
6   -0.205347
7   -0.149282
8   -0.152451
9   -0.35635
10   -0.352633
11   0.143955
12   0.140281
13   0.016175
14   0.001817
15   0.339917
16   -0.47611
17   0.134543
18   0.135068
19   0.135064
20   0.135417
21   0.127034
22   0.127064
23   0.163771
24   0.169943
25   0.16323
26   0.146914
27   0.165746
28   0.148385

>  <lowdin_charges>
28
1   -0.138463
2   -0.137297
3   -0.163675
4   -0.163304
5   -0.170588
6   -0.17065
7   -0.123777
8   -0.124381
9   -0.273041
10   -0.272174
11   0.005719
12   0.008299
13   -0.053537
14   -0.059505
15   0.155805
16   -0.25332
17   0.15932
18   0.159803
19   0.161763
20   0.161702
21   0.154489
22   0.155268
23   0.175766
24   0.179593
25   0.158775
26   0.153229
27   0.16056
28   0.153618

$$$$

