PCCDB-ID:  70709
public computational chemistry database (PCCDB) project, http://pccdb.org

 30 29  0  0  0  0  0  0  0  0999 V2000
    5.3091   -1.1157   -2.6355 C   0  0  0  0  0  0  0  0  0  0  0  0
    5.8601   -1.5260   -1.2651 C   0  0  0  0  0  0  0  0  0  0  0  0
    5.4944   -0.5276   -0.1579 C   0  0  0  0  0  0  0  0  0  0  0  0
    6.1309   -0.7658    1.2237 C   0  0  0  0  0  0  0  0  0  0  0  0
    5.7168   -2.0608    1.9567 C   0  0  0  0  0  0  0  0  0  0  0  0
    6.5909   -3.2914    1.6661 C   0  0  0  0  0  0  0  0  0  0  0  0
    6.1454   -4.5303    2.4563 C   0  0  0  0  0  0  0  0  0  0  0  0
    6.9429   -5.8206    2.1579 C   0  0  0  0  0  0  0  0  0  0  0  0
    8.4078   -5.7440    2.5613 C   0  0  0  0  0  0  0  0  0  0  0  0
    8.9399   -6.1657    3.6343 N   0  0  0  0  0  0  0  0  0  0  0  0
    9.2309   -5.1083    1.6733 O   0  0  0  0  0  0  0  0  0  0  0  0
    5.5711   -1.8467   -3.4089 H   0  0  0  0  0  0  0  0  0  0  0  0
    5.7083   -0.1426   -2.9468 H   0  0  0  0  0  0  0  0  0  0  0  0
    4.2155   -1.0315   -2.6138 H   0  0  0  0  0  0  0  0  0  0  0  0
    6.9541   -1.6201   -1.3249 H   0  0  0  0  0  0  0  0  0  0  0  0
    5.4774   -2.5235   -1.0119 H   0  0  0  0  0  0  0  0  0  0  0  0
    4.3998   -0.5036   -0.0465 H   0  0  0  0  0  0  0  0  0  0  0  0
    5.7823    0.4794   -0.4930 H   0  0  0  0  0  0  0  0  0  0  0  0
    5.8591    0.0893    1.8562 H   0  0  0  0  0  0  0  0  0  0  0  0
    7.2268   -0.7318    1.1348 H   0  0  0  0  0  0  0  0  0  0  0  0
    4.6662   -2.2923    1.7261 H   0  0  0  0  0  0  0  0  0  0  0  0
    5.7515   -1.8789    3.0397 H   0  0  0  0  0  0  0  0  0  0  0  0
    7.6323   -3.0493    1.9156 H   0  0  0  0  0  0  0  0  0  0  0  0
    6.5700   -3.5217    0.5912 H   0  0  0  0  0  0  0  0  0  0  0  0
    5.0875   -4.7339    2.2414 H   0  0  0  0  0  0  0  0  0  0  0  0
    6.2084   -4.3189    3.5321 H   0  0  0  0  0  0  0  0  0  0  0  0
    6.8674   -6.0603    1.0865 H   0  0  0  0  0  0  0  0  0  0  0  0
    6.4837   -6.6580    2.6941 H   0  0  0  0  0  0  0  0  0  0  0  0
    8.2328   -6.6161    4.2174 H   0  0  0  0  0  0  0  0  0  0  0  0
    8.7196   -4.8521    0.8919 H   0  0  0  0  0  0  0  0  0  0  0  0
  1 14  1  0  0  0  0
  1  2  1  0  0  0  0
  2 16  1  0  0  0  0
  2  3  1  0  0  0  0
  3 17  1  0  0  0  0
  3  4  1  0  0  0  0
  4 19  1  0  0  0  0
  4  5  1  0  0  0  0
  5 22  1  0  0  0  0
  6 23  1  0  0  0  0
  6  5  1  0  0  0  0
  6  7  1  0  0  0  0
  7 26  1  0  0  0  0
  8  7  1  0  0  0  0
  8  9  1  0  0  0  0
  8 28  1  0  0  0  0
  9 10  2  0  0  0  0
 10 29  1  0  0  0  0
 11  9  1  0  0  0  0
 12  1  1  0  0  0  0
 13  1  1  0  0  0  0
 15  2  1  0  0  0  0
 18  3  1  0  0  0  0
 20  4  1  0  0  0  0
 21  5  1  0  0  0  0
 24  6  1  0  0  0  0
 25  7  1  0  0  0  0
 27  8  1  0  0  0  0
 30 11  1  0  0  0  0
M  END
>  <HBA>
2

>  <HBD>
1

>  <TPSA>
43.09

>  <cid>
70709

>  <dipole>
4.38

>  <excitation_energy_1>
5.986

>  <excitation_energy_2>
6.276

>  <excitation_energy_3>
6.471

>  <excitation_energy_4>
6.765

>  <homo_energy>
-6.991

>  <homo_lumo_gap>
7.66

>  <logP>
2.923

>  <lumo_energy>
0.669

>  <melting_point>
47.08

>  <molecular_refractivity>
48.28

>  <oscillator_strength_1>
0.002

>  <oscillator_strength_2>
0.0094

>  <oscillator_strength_3>
0.0174

>  <oscillator_strength_4>
0.0058

>  <open_babel_can_smiles>
CCCCCCCCC(=N)O

>  <mulliken_charges>
30
1   -0.442553
2   -0.248412
3   -0.247853
4   -0.263553
5   -0.255065
6   -0.289217
7   -0.247286
8   -0.366351
9   0.476707
10   -0.579712
11   -0.571357
12   0.141682
13   0.14416
14   0.142668
15   0.1282
16   0.133184
17   0.127694
18   0.129874
19   0.133579
20   0.131777
21   0.129372
22   0.135891
23   0.15475
24   0.126766
25   0.141143
26   0.148275
27   0.141291
28   0.155756
29   0.280727
30   0.407861

>  <lowdin_charges>
30
1   -0.443209
2   -0.273637
3   -0.272237
4   -0.276224
5   -0.272843
6   -0.288882
7   -0.267317
8   -0.310349
9   0.124265
10   -0.400124
11   -0.366807
12   0.150031
13   0.14736
14   0.145051
15   0.135358
16   0.137121
17   0.135283
18   0.140557
19   0.146861
20   0.138426
21   0.137417
22   0.142814
23   0.147334
24   0.133535
25   0.144962
26   0.146833
27   0.146395
28   0.161632
29   0.256381
30   0.354013

$$$$

