PCCDB-ID:  5465
public computational chemistry database (PCCDB) project, http://pccdb.org

 31 31  0  0  0  0  0  0  0  0999 V2000
    0.6714    0.4187   -0.0949 C   0  0  0  0  0  0  0  0  0  0  0  0
    3.0547    1.1913   -0.4673 C   0  0  0  0  0  0  0  0  0  0  0  0
    3.7905   -4.6982    2.6194 C   0  0  0  0  0  0  0  0  0  0  0  0
    6.6458   -1.9749    4.4815 C   0  0  0  0  0  0  0  0  0  0  0  0
    2.4975   -3.6059    0.7314 C   0  0  0  0  0  0  0  0  0  0  0  0
    3.4307   -1.0930    1.3902 C   0  0  0  0  0  0  0  0  0  0  0  0
    2.0940   -0.0056   -0.5168 C   0  0  0  0  0  0  0  0  0  0  0  0
    3.3659   -3.4916    1.8221 C   0  0  0  0  0  0  0  0  0  0  0  0
    5.9604   -2.3100    3.1782 C   0  0  0  0  0  0  0  0  0  0  0  0
    2.5649   -1.2020    0.3000 C   0  0  0  0  0  0  0  0  0  0  0  0
    2.1040   -2.4939   -0.0150 C   0  0  0  0  0  0  0  0  0  0  0  0
    3.8214   -2.2075    2.1263 C   0  0  0  0  0  0  0  0  0  0  0  0
    6.4833   -2.8043    2.2097 O   0  0  0  0  0  0  0  0  0  0  0  0
    1.2467   -2.6137   -1.0818 O   0  0  0  0  0  0  0  0  0  0  0  0
    4.6328   -1.9856    3.2537 O   0  0  0  0  0  0  0  0  0  0  0  0
    0.3084    1.2354   -0.7308 H   0  0  0  0  0  0  0  0  0  0  0  0
    0.6634    0.7690    0.9445 H   0  0  0  0  0  0  0  0  0  0  0  0
   -0.0302   -0.4162   -0.1808 H   0  0  0  0  0  0  0  0  0  0  0  0
    2.7223    1.9658   -1.1676 H   0  0  0  0  0  0  0  0  0  0  0  0
    4.0760    0.9030   -0.7397 H   0  0  0  0  0  0  0  0  0  0  0  0
    3.0854    1.6494    0.5288 H   0  0  0  0  0  0  0  0  0  0  0  0
    3.1903   -5.5741    2.3554 H   0  0  0  0  0  0  0  0  0  0  0  0
    3.6804   -4.5227    3.6958 H   0  0  0  0  0  0  0  0  0  0  0  0
    4.8440   -4.9368    2.4329 H   0  0  0  0  0  0  0  0  0  0  0  0
    7.7200   -2.1300    4.3764 H   0  0  0  0  0  0  0  0  0  0  0  0
    6.2592   -2.6189    5.2791 H   0  0  0  0  0  0  0  0  0  0  0  0
    6.4378   -0.9399    4.7689 H   0  0  0  0  0  0  0  0  0  0  0  0
    2.1199   -4.5910    0.4593 H   0  0  0  0  0  0  0  0  0  0  0  0
    3.8225   -0.1258    1.6855 H   0  0  0  0  0  0  0  0  0  0  0  0
    2.0353   -0.3410   -1.5599 H   0  0  0  0  0  0  0  0  0  0  0  0
    1.0387   -3.5519   -1.2104 H   0  0  0  0  0  0  0  0  0  0  0  0
  1 17  1  0  0  0  0
  2 21  1  0  0  0  0
  3 23  1  0  0  0  0
  4 27  1  0  0  0  0
  4 26  1  0  0  0  0
  5  8  2  0  0  0  0
  6 29  1  0  0  0  0
  6 12  2  0  0  0  0
  7  2  1  0  0  0  0
  7  1  1  0  0  0  0
  7 10  1  0  0  0  0
  8 12  1  0  0  0  0
  8  3  1  0  0  0  0
  9 15  1  0  0  0  0
  9  4  1  0  0  0  0
 10  6  1  0  0  0  0
 11 10  2  0  0  0  0
 11  5  1  0  0  0  0
 12 15  1  0  0  0  0
 13  9  2  0  0  0  0
 14 11  1  0  0  0  0
 16  1  1  0  0  0  0
 18  1  1  0  0  0  0
 19  2  1  0  0  0  0
 20  2  1  0  0  0  0
 22  3  1  0  0  0  0
 24  3  1  0  0  0  0
 25  4  1  0  0  0  0
 28  5  1  0  0  0  0
 30  7  1  0  0  0  0
 31 14  1  0  0  0  0
M  END
>  <HBA>
3

>  <HBD>
1

>  <TPSA>
46.53

>  <cid>
5465

>  <dipole>
1.73

>  <excitation_energy_1>
4.87

>  <excitation_energy_2>
5.003

>  <excitation_energy_3>
5.13

>  <excitation_energy_4>
5.531

>  <homo_energy>
-5.761

>  <homo_lumo_gap>
5.777

>  <logP>
2.749

>  <lumo_energy>
0.016

>  <melting_point>
78.47

>  <molecular_refractivity>
59.51

>  <oscillator_strength_1>
0.066

>  <oscillator_strength_2>
0.0006

>  <oscillator_strength_3>
0.0126

>  <oscillator_strength_4>
0.0021

>  <open_babel_can_smiles>
CC(=O)Oc1cc(C(C)C)c(cc1C)O

>  <mulliken_charges>
31
1   -0.439231
2   -0.454112
3   -0.546948
4   -0.526399
5   -0.274677
6   -0.236565
7   -0.139783
8   0.183081
9   0.595413
10   0.127352
11   0.317102
12   0.295215
13   -0.449683
14   -0.652756
15   -0.528855
16   0.138024
17   0.139472
18   0.159928
19   0.143618
20   0.151926
21   0.141414
22   0.151638
23   0.162275
24   0.187029
25   0.183759
26   0.183731
27   0.182437
28   0.112995
29   0.132859
30   0.151077
31   0.408666

>  <lowdin_charges>
31
1   -0.441427
2   -0.44429
3   -0.441426
4   -0.463118
5   -0.217286
6   -0.168504
7   -0.115918
8   -0.000531
9   0.210471
10   -0.028082
11   0.09506
12   0.074218
13   -0.248142
14   -0.382087
15   -0.175883
16   0.147406
17   0.144715
18   0.157525
19   0.152557
20   0.152434
21   0.144361
22   0.157129
23   0.159641
24   0.171418
25   0.174707
26   0.18018
27   0.176824
28   0.151025
29   0.166983
30   0.153792
31   0.356248

$$$$

