PCCDB-ID:  24129
public computational chemistry database (PCCDB) project, http://pccdb.org

 27 26  0  0  0  0  0  0  0  0999 V2000
    0.9498   -0.2260    0.1584 C   0  0  0  0  0  0  0  0  0  0  0  0
    8.9118    0.7746   -0.8085 C   0  0  0  0  0  0  0  0  0  0  0  0
    2.4774   -0.1617    0.0592 C   0  0  0  0  0  0  0  0  0  0  0  0
    2.9746    0.8363   -0.9946 C   0  0  0  0  0  0  0  0  0  0  0  0
    4.5031    0.9080   -1.0988 C   0  0  0  0  0  0  0  0  0  0  0  0
    4.9942    1.9094   -2.1499 C   0  0  0  0  0  0  0  0  0  0  0  0
    6.5244    1.9862   -2.2601 C   0  0  0  0  0  0  0  0  0  0  0  0
    8.0903    1.9993   -0.4551 C   0  0  0  0  0  0  0  0  0  0  0  0
    7.1001    2.5200   -1.0428 N   0  0  0  0  0  0  0  0  0  0  0  0
    8.5157    2.6346    0.6865 O   0  0  0  0  0  0  0  0  0  0  0  0
    0.6267   -0.9474    0.9179 H   0  0  0  0  0  0  0  0  0  0  0  0
    0.5027   -0.5262   -0.7975 H   0  0  0  0  0  0  0  0  0  0  0  0
    0.5288    0.7509    0.4267 H   0  0  0  0  0  0  0  0  0  0  0  0
    8.5378    0.2621   -1.6949 H   0  0  0  0  0  0  0  0  0  0  0  0
    8.9085    0.0610    0.0253 H   0  0  0  0  0  0  0  0  0  0  0  0
    9.9542    1.0615   -0.9973 H   0  0  0  0  0  0  0  0  0  0  0  0
    2.8710   -1.1614   -0.1747 H   0  0  0  0  0  0  0  0  0  0  0  0
    2.8969    0.1087    1.0386 H   0  0  0  0  0  0  0  0  0  0  0  0
    2.5806    1.8362   -0.7594 H   0  0  0  0  0  0  0  0  0  0  0  0
    2.5529    0.5670   -1.9749 H   0  0  0  0  0  0  0  0  0  0  0  0
    4.8983   -0.0923   -1.3367 H   0  0  0  0  0  0  0  0  0  0  0  0
    4.9240    1.1839   -0.1228 H   0  0  0  0  0  0  0  0  0  0  0  0
    4.6146    2.9108   -1.9093 H   0  0  0  0  0  0  0  0  0  0  0  0
    4.5893    1.6412   -3.1363 H   0  0  0  0  0  0  0  0  0  0  0  0
    6.7803    2.6727   -3.0797 H   0  0  0  0  0  0  0  0  0  0  0  0
    6.9119    0.9936   -2.5481 H   0  0  0  0  0  0  0  0  0  0  0  0
    9.2747    2.1551    1.0516 H   0  0  0  0  0  0  0  0  0  0  0  0
  1 13  1  0  0  0  0
  1 11  1  0  0  0  0
  2  8  1  0  0  0  0
  2 15  1  0  0  0  0
  3  1  1  0  0  0  0
  3 18  1  0  0  0  0
  4 19  1  0  0  0  0
  4  3  1  0  0  0  0
  5  4  1  0  0  0  0
  5 22  1  0  0  0  0
  6 23  1  0  0  0  0
  6  5  1  0  0  0  0
  7  6  1  0  0  0  0
  7  9  1  0  0  0  0
  8 10  1  0  0  0  0
  9  8  2  0  0  0  0
 10 27  1  0  0  0  0
 12  1  1  0  0  0  0
 14  2  1  0  0  0  0
 16  2  1  0  0  0  0
 17  3  1  0  0  0  0
 20  4  1  0  0  0  0
 21  5  1  0  0  0  0
 24  6  1  0  0  0  0
 25  7  1  0  0  0  0
 26  7  1  0  0  0  0
M  END
>  <HBA>
2

>  <HBD>
1

>  <TPSA>
29.1

>  <cid>
24129

>  <dipole>
3.43

>  <excitation_energy_1>
5.694

>  <excitation_energy_2>
5.777

>  <excitation_energy_3>
5.838

>  <excitation_energy_4>
6.454

>  <homo_energy>
-6.536

>  <homo_lumo_gap>
7.331

>  <logP>
2.094

>  <lumo_energy>
0.795

>  <melting_point>
20.68

>  <molecular_refractivity>
43.57

>  <oscillator_strength_1>
0.0021

>  <oscillator_strength_2>
0.0026

>  <oscillator_strength_3>
0.0063

>  <oscillator_strength_4>
0.0138

>  <open_babel_can_smiles>
CCCCCC/N=C(/O)\C

>  <mulliken_charges>
27
1   -0.441193
2   -0.557211
3   -0.246432
4   -0.24489
5   -0.254461
6   -0.249259
7   -0.151102
8   0.490077
9   -0.401343
10   -0.579913
11   0.13952
12   0.139689
13   0.141814
14   0.182392
15   0.169923
16   0.173587
17   0.126331
18   0.131148
19   0.129703
20   0.122804
21   0.11429
22   0.14662
23   0.144943
24   0.121239
25   0.142957
26   0.107784
27   0.400981

>  <lowdin_charges>
27
1   -0.445504
2   -0.484699
3   -0.271054
4   -0.272822
5   -0.277109
6   -0.276497
7   -0.198008
8   0.128095
9   -0.200976
10   -0.377487
11   0.148973
12   0.145351
13   0.146217
14   0.173257
15   0.166702
16   0.16717
17   0.136192
18   0.138941
19   0.138433
20   0.134743
21   0.130778
22   0.146684
23   0.147872
24   0.137585
25   0.147963
26   0.117245
27   0.351957

$$$$

