PCCDB-ID:  40564
public computational chemistry database (PCCDB) project, http://pccdb.org

 40 39  0  0  1  0  0  0  0  0999 V2000
    1.4602   -2.2763   -2.1042 C   0  0  0  0  0  0  0  0  0  0  0  0
    2.0441   -4.5859   -1.7622 C   0  0  0  0  0  0  0  0  0  0  0  0
    4.6618    3.2396   -2.2544 C   0  0  0  0  0  0  0  0  0  0  0  0
    5.3139    4.0091   -0.0681 C   0  0  0  0  0  0  0  0  0  0  0  0
    3.4837   -2.8363   -0.8660 C   0  0  0  0  0  0  0  0  0  0  0  0
    5.5125    1.6440   -0.6155 C   0  0  0  0  0  0  0  0  0  0  0  0
    4.4588   -1.7660   -1.3854 C   0  0  1  0  0  0  0  0  0  0  0  0
    6.3296    0.7267   -1.5459 C   0  0  2  0  0  0  0  0  0  0  0  0
    5.6219   -1.5486   -0.4161 C   0  0  1  0  0  0  0  0  0  0  0  0
    6.7341   -0.6353   -0.9529 C   0  0  2  0  0  0  0  0  0  0  0  0
    2.5560   -3.2296   -1.9379 N   0  0  0  0  0  0  0  0  0  0  0  0
    5.5598    3.0266   -1.1201 N   0  0  0  0  0  0  0  0  0  0  0  0
    4.9890   -2.1815   -2.6337 O   0  0  0  0  0  0  0  0  0  0  0  0
    7.5716    1.3821   -1.8264 O   0  0  0  0  0  0  0  0  0  0  0  0
    5.0837   -1.0327    0.7966 O   0  0  0  0  0  0  0  0  0  0  0  0
    7.6140   -0.4231    0.1551 O   0  0  0  0  0  0  0  0  0  0  0  0
    0.8511   -2.5647   -2.9674 H   0  0  0  0  0  0  0  0  0  0  0  0
    1.8543   -1.2733   -2.2908 H   0  0  0  0  0  0  0  0  0  0  0  0
    0.8025   -2.2275   -1.2164 H   0  0  0  0  0  0  0  0  0  0  0  0
    1.4284   -4.7012   -0.8508 H   0  0  0  0  0  0  0  0  0  0  0  0
    2.8783   -5.2920   -1.7045 H   0  0  0  0  0  0  0  0  0  0  0  0
    1.4254   -4.8574   -2.6246 H   0  0  0  0  0  0  0  0  0  0  0  0
    4.7962    4.2547   -2.6426 H   0  0  0  0  0  0  0  0  0  0  0  0
    3.5977    3.1118   -1.9814 H   0  0  0  0  0  0  0  0  0  0  0  0
    4.8946    2.5378   -3.0601 H   0  0  0  0  0  0  0  0  0  0  0  0
    5.4413    5.0190   -0.4730 H   0  0  0  0  0  0  0  0  0  0  0  0
    6.0361    3.8717    0.7428 H   0  0  0  0  0  0  0  0  0  0  0  0
    4.2966    3.9378    0.3592 H   0  0  0  0  0  0  0  0  0  0  0  0
    2.9665   -2.4843    0.0407 H   0  0  0  0  0  0  0  0  0  0  0  0
    4.0698   -3.7214   -0.5932 H   0  0  0  0  0  0  0  0  0  0  0  0
    5.9870    1.6363    0.3698 H   0  0  0  0  0  0  0  0  0  0  0  0
    4.4827    1.2768   -0.4873 H   0  0  0  0  0  0  0  0  0  0  0  0
    3.9206   -0.8094   -1.4949 H   0  0  0  0  0  0  0  0  0  0  0  0
    5.7848    0.5405   -2.4828 H   0  0  0  0  0  0  0  0  0  0  0  0
    6.0953   -2.5274   -0.2300 H   0  0  0  0  0  0  0  0  0  0  0  0
    7.2587   -1.1759   -1.7518 H   0  0  0  0  0  0  0  0  0  0  0  0
    4.2587   -2.6957   -3.0359 H   0  0  0  0  0  0  0  0  0  0  0  0
    7.3468    2.3357   -1.7653 H   0  0  0  0  0  0  0  0  0  0  0  0
    5.8626   -0.7329    1.2987 H   0  0  0  0  0  0  0  0  0  0  0  0
    8.1937    0.3035   -0.1418 H   0  0  0  0  0  0  0  0  0  0  0  0
  1 11  1  0  0  0  0
  1 19  1  0  0  0  0
  2 21  1  0  0  0  0
  2 20  1  0  0  0  0
  3 24  1  0  0  0  0
  3 12  1  0  0  0  0
  4 28  1  0  0  0  0
  4 27  1  0  0  0  0
  5 30  1  0  0  0  0
  5 29  1  0  0  0  0
  6 32  1  0  0  0  0
  6 31  1  0  0  0  0
  7 33  1  6  0  0  0
  7  5  1  0  0  0  0
  7  9  1  0  0  0  0
  8 34  1  6  0  0  0
  8 10  1  0  0  0  0
  8  6  1  0  0  0  0
  9 35  1  1  0  0  0
  9 15  1  0  0  0  0
 10 36  1  6  0  0  0
 10  9  1  0  0  0  0
 10 16  1  0  0  0  0
 11  2  1  0  0  0  0
 11  5  1  0  0  0  0
 12  6  1  0  0  0  0
 12  4  1  0  0  0  0
 13  7  1  0  0  0  0
 14 38  1  0  0  0  0
 14  8  1  0  0  0  0
 15 39  1  0  0  0  0
 17  1  1  0  0  0  0
 18  1  1  0  0  0  0
 22  2  1  0  0  0  0
 23  3  1  0  0  0  0
 25  3  1  0  0  0  0
 26  4  1  0  0  0  0
 37 13  1  0  0  0  0
 40 16  1  0  0  0  0
M  END
>  <HBA>
6

>  <HBD>
4

>  <TPSA>
87.4

>  <cid>
40564

>  <dipole>
3.39

>  <excitation_energy_1>
5.641

>  <excitation_energy_2>
5.674

>  <excitation_energy_3>
5.974

>  <excitation_energy_4>
5.989

>  <homo_energy>
-6.185

>  <homo_lumo_gap>
8.109

>  <logP>
-2.447

>  <lumo_energy>
1.924

>  <melting_point>
50.52

>  <molecular_refractivity>
60.62

>  <oscillator_strength_1>
0.0054

>  <oscillator_strength_2>
0.0249

>  <oscillator_strength_3>
0.0039

>  <oscillator_strength_4>
0.0176

>  <open_babel_can_smiles>
O[C@H]([C@@H]([C@@H](CN(C)C)O)O)[C@H](CN(C)C)O

>  <mulliken_charges>
40
1   -0.303621
2   -0.295369
3   -0.305601
4   -0.293414
5   -0.150124
6   -0.156256
7   0.140141
8   0.105972
9   0.118632
10   0.115636
11   -0.409174
12   -0.413999
13   -0.658948
14   -0.672043
15   -0.658722
16   -0.671907
17   0.152757
18   0.159647
19   0.130044
20   0.128465
21   0.157342
22   0.150973
23   0.153923
24   0.128108
25   0.165895
26   0.151362
27   0.155487
28   0.129615
29   0.148398
30   0.142667
31   0.14103
32   0.146413
33   0.115096
34   0.139397
35   0.124502
36   0.151209
37   0.403429
38   0.40729
39   0.41483
40   0.410919

>  <lowdin_charges>
40
1   -0.360393
2   -0.357084
3   -0.358456
4   -0.355084
5   -0.219705
6   -0.227519
7   -0.015944
8   -0.028695
9   -0.013171
10   -0.027596
11   -0.18711
12   -0.188091
13   -0.478086
14   -0.481611
15   -0.471632
16   -0.479469
17   0.152874
18   0.153288
19   0.128943
20   0.127689
21   0.154582
22   0.151673
23   0.152093
24   0.126107
25   0.157517
26   0.150232
27   0.153868
28   0.127582
29   0.1441
30   0.150834
31   0.149258
32   0.138861
33   0.122017
34   0.139925
35   0.134409
36   0.154158
37   0.34058
38   0.338373
39   0.350504
40   0.350174

$$$$

