PCCDB-ID:  21390
public computational chemistry database (PCCDB) project, http://pccdb.org

 13 13  0  0  0  0  0  0  0  0999 V2000
    1.1598   -0.0345    0.0025 C   0  0  0  0  0  0  0  0  0  0  0  0
    4.5441   -0.4893    3.7983 C   0  0  0  0  0  0  0  0  0  0  0  0
    3.2915    0.1349    1.7221 C   0  0  0  0  0  0  0  0  0  0  0  0
    5.3894   -0.6742    4.7301 N   0  0  0  0  0  0  0  0  0  0  0  0
    3.2653   -0.9965    3.5939 N   0  0  0  0  0  0  0  0  0  0  0  0
    2.6084   -0.7085    2.4172 N   0  0  0  0  0  0  0  0  0  0  0  0
    2.7775    0.7989    0.1738 S   0  0  0  0  0  0  0  0  0  0  0  0
    4.8506    0.6281    2.4198 S   0  0  0  0  0  0  0  0  0  0  0  0
    0.7347    0.3329   -0.9344 H   0  0  0  0  0  0  0  0  0  0  0  0
    0.5079    0.2246    0.8385 H   0  0  0  0  0  0  0  0  0  0  0  0
    1.2896   -1.1171   -0.0435 H   0  0  0  0  0  0  0  0  0  0  0  0
    5.0426   -1.3239    5.4395 H   0  0  0  0  0  0  0  0  0  0  0  0
    2.9268   -1.8034    4.0994 H   0  0  0  0  0  0  0  0  0  0  0  0
  1  7  1  0  0  0  0
  1 10  1  0  0  0  0
  2  4  2  0  0  0  0
  3  6  2  0  0  0  0
  3  8  1  0  0  0  0
  4 12  1  0  0  0  0
  5  2  1  0  0  0  0
  5 13  1  0  0  0  0
  6  5  1  0  0  0  0
  7  3  1  0  0  0  0
  8  2  1  0  0  0  0
  9  1  1  0  0  0  0
 11  1  1  0  0  0  0
M  END
>  <HBA>
5

>  <HBD>
1

>  <TPSA>
105.34

>  <cid>
21390

>  <dipole>
3.82

>  <excitation_energy_1>
4.385

>  <excitation_energy_2>
4.805

>  <excitation_energy_3>
4.895

>  <excitation_energy_4>
4.972

>  <homo_energy>
-5.793

>  <homo_lumo_gap>
5.497

>  <logP>
1.423

>  <lumo_energy>
-0.297

>  <melting_point>
96.53

>  <molecular_refractivity>
36.03

>  <oscillator_strength_1>
0.0014

>  <oscillator_strength_2>
0.1113

>  <oscillator_strength_3>
0.0592

>  <oscillator_strength_4>
0.0022

>  <open_babel_can_smiles>
CSc1n[nH]c(=N)s1

>  <mulliken_charges>
13
1   -0.588819
2   0.304198
3   -0.081515
4   -0.627058
5   -0.439434
6   -0.245421
7   0.191689
8   0.255661
9   0.189782
10   0.20602
11   0.204115
12   0.283755
13   0.347027

>  <lowdin_charges>
13
1   -0.531736
2   -0.01724
3   -0.223602
4   -0.433923
5   -0.211135
6   -0.143192
7   0.208724
8   0.25557
9   0.180701
10   0.180539
11   0.176802
12   0.261414
13   0.297078

$$$$

