PCCDB-ID:  30215
public computational chemistry database (PCCDB) project, http://pccdb.org

 17 17  0  0  0  0  0  0  0  0999 V2000
    1.2917    0.2111    0.0561 C   0  0  0  0  0  0  0  0  0  0  0  0
    3.0305   -2.6913    0.0778 C   0  0  0  0  0  0  0  0  0  0  0  0
    6.2036    1.0055    0.0521 C   0  0  0  0  0  0  0  0  0  0  0  0
    2.7601   -0.0687    0.0592 C   0  0  0  0  0  0  0  0  0  0  0  0
    3.4228   -1.2572    0.0683 C   0  0  0  0  0  0  0  0  0  0  0  0
    4.8496    0.3869    0.0579 C   0  0  0  0  0  0  0  0  0  0  0  0
    3.6934    0.9727    0.0527 N   0  0  0  0  0  0  0  0  0  0  0  0
    4.7761   -0.9744    0.0675 O   0  0  0  0  0  0  0  0  0  0  0  0
    0.7068   -0.7139    0.0637 H   0  0  0  0  0  0  0  0  0  0  0  0
    1.0050    0.7879   -0.8312 H   0  0  0  0  0  0  0  0  0  0  0  0
    1.0044    0.8031    0.9331 H   0  0  0  0  0  0  0  0  0  0  0  0
    1.9410   -2.7816    0.0976 H   0  0  0  0  0  0  0  0  0  0  0  0
    3.4305   -3.2130    0.9562 H   0  0  0  0  0  0  0  0  0  0  0  0
    3.3983   -3.2175   -0.8122 H   0  0  0  0  0  0  0  0  0  0  0  0
    6.0958    2.0914    0.0697 H   0  0  0  0  0  0  0  0  0  0  0  0
    6.7677    0.7189   -0.8433 H   0  0  0  0  0  0  0  0  0  0  0  0
    6.7876    0.6906    0.9247 H   0  0  0  0  0  0  0  0  0  0  0  0
  1  4  1  0  0  0  0
  1  9  1  0  0  0  0
  1 11  1  0  0  0  0
  2 12  1  0  0  0  0
  2 13  1  0  0  0  0
  3  6  1  0  0  0  0
  3 15  1  0  0  0  0
  3 17  1  0  0  0  0
  4  5  2  0  0  0  0
  5  2  1  0  0  0  0
  6  8  1  0  0  0  0
  7  6  2  0  0  0  0
  7  4  1  0  0  0  0
  8  5  1  0  0  0  0
 10  1  1  0  0  0  0
 14  2  1  0  0  0  0
 16  3  1  0  0  0  0
M  END
>  <HBA>
2

>  <HBD>
0

>  <TPSA>
26.03

>  <cid>
30215

>  <dipole>
1.46

>  <excitation_energy_1>
5.41

>  <excitation_energy_2>
5.85

>  <excitation_energy_3>
5.944

>  <excitation_energy_4>
6.21

>  <homo_energy>
-5.905

>  <homo_lumo_gap>
6.335

>  <logP>
1.6

>  <lumo_energy>
0.43

>  <melting_point>
31.56

>  <molecular_refractivity>
31.4

>  <oscillator_strength_1>
0.0

>  <oscillator_strength_2>
0.2111

>  <oscillator_strength_3>
0.0038

>  <oscillator_strength_4>
0.0001

>  <open_babel_can_smiles>
Cc1oc(c(n1)C)C

>  <mulliken_charges>
17
1   -0.521435
2   -0.534828
3   -0.527526
4   0.199344
5   0.301704
6   0.501098
7   -0.484938
8   -0.462799
9   0.148298
10   0.168122
11   0.168114
12   0.167416
13   0.170935
14   0.170842
15   0.187523
16   0.174227
17   0.173902

>  <lowdin_charges>
17
1   -0.438497
2   -0.439135
3   -0.443266
4   -0.014103
5   0.037712
6   0.110523
7   -0.194167
8   -0.125863
9   0.155314
10   0.165644
11   0.16569
12   0.166259
13   0.166865
14   0.166497
15   0.178688
16   0.170865
17   0.170973

$$$$

