PCCDB-ID:  35160
public computational chemistry database (PCCDB) project, http://pccdb.org

 27 27  0  0  0  0  0  0  0  0999 V2000
    1.2965    1.0993    0.7205 C   0  0  0  0  0  0  0  0  0  0  0  0
    4.6527   -5.7163    2.6166 C   0  0  0  0  0  0  0  0  0  0  0  0
    6.5847   -2.2222    5.4170 C   0  0  0  0  0  0  0  0  0  0  0  0
    2.6920    0.5386    0.4279 C   0  0  0  0  0  0  0  0  0  0  0  0
    3.1365   -0.5183    1.4460 C   0  0  0  0  0  0  0  0  0  0  0  0
    4.5441   -1.0777    1.1500 C   0  0  0  0  0  0  0  0  0  0  0  0
    4.9855   -4.2704    2.8567 C   0  0  0  0  0  0  0  0  0  0  0  0
    5.8832   -2.6471    4.1574 C   0  0  0  0  0  0  0  0  0  0  0  0
    4.9505   -2.1139    2.1627 C   0  0  0  0  0  0  0  0  0  0  0  0
    5.6151   -3.9519    3.9977 N   0  0  0  0  0  0  0  0  0  0  0  0
    4.6309   -3.3915    1.9083 N   0  0  0  0  0  0  0  0  0  0  0  0
    5.5730   -1.6890    3.2723 N   0  0  0  0  0  0  0  0  0  0  0  0
    1.0050    1.8502   -0.0226 H   0  0  0  0  0  0  0  0  0  0  0  0
    1.2597    1.5752    1.7081 H   0  0  0  0  0  0  0  0  0  0  0  0
    0.5395    0.3056    0.7071 H   0  0  0  0  0  0  0  0  0  0  0  0
    4.9947   -6.3307    3.4510 H   0  0  0  0  0  0  0  0  0  0  0  0
    5.1215   -6.0602    1.6879 H   0  0  0  0  0  0  0  0  0  0  0  0
    3.5710   -5.8362    2.4892 H   0  0  0  0  0  0  0  0  0  0  0  0
    6.7904   -3.0869    6.0498 H   0  0  0  0  0  0  0  0  0  0  0  0
    5.9670   -1.5023    5.9658 H   0  0  0  0  0  0  0  0  0  0  0  0
    7.5228   -1.7124    5.1708 H   0  0  0  0  0  0  0  0  0  0  0  0
    3.4227    1.3596    0.4156 H   0  0  0  0  0  0  0  0  0  0  0  0
    2.7079    0.0999   -0.5797 H   0  0  0  0  0  0  0  0  0  0  0  0
    2.4179   -1.3492    1.4541 H   0  0  0  0  0  0  0  0  0  0  0  0
    3.1302   -0.0860    2.4558 H   0  0  0  0  0  0  0  0  0  0  0  0
    5.2739   -0.2612    1.1708 H   0  0  0  0  0  0  0  0  0  0  0  0
    4.5537   -1.5364    0.1555 H   0  0  0  0  0  0  0  0  0  0  0  0
  1 14  1  0  0  0  0
  2  7  1  0  0  0  0
  2 16  1  0  0  0  0
  3 20  1  0  0  0  0
  3 19  1  0  0  0  0
  4  1  1  0  0  0  0
  4  5  1  0  0  0  0
  5 24  1  0  0  0  0
  5 25  1  0  0  0  0
  6 26  1  0  0  0  0
  6  5  1  0  0  0  0
  6  9  1  0  0  0  0
  7 10  2  0  0  0  0
  8  3  1  0  0  0  0
  9 12  1  0  0  0  0
 10  8  2  0  0  0  0
 11  9  2  0  0  0  0
 11  7  1  0  0  0  0
 12  8  1  0  0  0  0
 13  1  1  0  0  0  0
 15  1  1  0  0  0  0
 17  2  1  0  0  0  0
 18  2  1  0  0  0  0
 21  3  1  0  0  0  0
 22  4  1  0  0  0  0
 23  4  1  0  0  0  0
 27  6  1  0  0  0  0
M  RAD  1  12   2
M  END
>  <HBA>
3

>  <HBD>
0

>  <TPSA>
38.67

>  <cid>
35160

>  <dipole>
0.33

>  <excitation_energy_1>
4.56

>  <excitation_energy_2>
4.654

>  <excitation_energy_3>
4.728

>  <excitation_energy_4>
4.763

>  <homo_energy>
-6.963

>  <homo_lumo_gap>
5.951

>  <logP>
1.831

>  <lumo_energy>
-1.012

>  <melting_point>
61.35

>  <molecular_refractivity>
49.15

>  <oscillator_strength_1>
0.0

>  <oscillator_strength_2>
0.0051

>  <oscillator_strength_3>
0.0

>  <oscillator_strength_4>
0.0085

>  <open_babel_can_smiles>
CCCCC1=NC(=[N]=C([N]1)C)C

>  <mulliken_charges>
27
1   -0.442832
2   -0.505049
3   -0.505195
4   -0.246923
5   -0.259453
6   -0.307887
7   0.428075
8   0.428033
9   0.412188
10   -0.455669
11   -0.453094
12   -0.453074
13   0.143914
14   0.143758
15   0.143734
16   0.175262
17   0.177198
18   0.176601
19   0.175303
20   0.176632
21   0.177206
22   0.134432
23   0.134475
24   0.144893
25   0.145297
26   0.156075
27   0.1561

>  <lowdin_charges>
27
1   -0.444966
2   -0.447225
3   -0.449762
4   -0.271122
5   -0.268249
6   -0.279938
7   0.118715
8   0.119026
9   0.117167
10   -0.191791
11   -0.190659
12   -0.190954
13   0.151541
14   0.147113
15   0.148129
16   0.170782
17   0.174842
18   0.172708
19   0.170556
20   0.175636
21   0.174714
22   0.141376
23   0.140064
24   0.146694
25   0.145522
26   0.160614
27   0.159466

$$$$

