PCCDB-ID:  23203
public computational chemistry database (PCCDB) project, http://pccdb.org

 24 23  0  0  0  0  0  0  0  0999 V2000
    0.7808   -0.1205    0.6936 C   0  0  0  0  0  0  0  0  0  0  0  0
    2.2649   -0.0409    0.3224 C   0  0  0  0  0  0  0  0  0  0  0  0
    2.6534   -1.0022   -0.8080 C   0  0  0  0  0  0  0  0  0  0  0  0
    4.1490   -0.9232   -1.1794 C   0  0  0  0  0  0  0  0  0  0  0  0
    4.5401   -1.9057   -2.2414 C   0  0  0  0  0  0  0  0  0  0  0  0
    5.0548   -1.5913   -3.4456 C   0  0  0  0  0  0  0  0  0  0  0  0
    5.4093   -2.5757   -4.4446 C   0  0  0  0  0  0  0  0  0  0  0  0
    5.9313   -2.3028   -5.6616 C   0  0  0  0  0  0  0  0  0  0  0  0
    6.2577   -3.3718   -6.6057 C   0  0  0  0  0  0  0  0  0  0  0  0
    6.7306   -3.1971   -7.7157 O   0  0  0  0  0  0  0  0  0  0  0  0
    0.5351    0.5752    1.5036 H   0  0  0  0  0  0  0  0  0  0  0  0
    0.5086   -1.1295    1.0268 H   0  0  0  0  0  0  0  0  0  0  0  0
    0.1435    0.1279   -0.1638 H   0  0  0  0  0  0  0  0  0  0  0  0
    2.8779   -0.2581    1.2087 H   0  0  0  0  0  0  0  0  0  0  0  0
    2.5134    0.9874    0.0243 H   0  0  0  0  0  0  0  0  0  0  0  0
    2.0506   -0.7866   -1.7007 H   0  0  0  0  0  0  0  0  0  0  0  0
    2.4070   -2.0325   -0.5127 H   0  0  0  0  0  0  0  0  0  0  0  0
    4.7425   -1.1191   -0.2724 H   0  0  0  0  0  0  0  0  0  0  0  0
    4.3979    0.0956   -1.5032 H   0  0  0  0  0  0  0  0  0  0  0  0
    4.3775   -2.9594   -2.0046 H   0  0  0  0  0  0  0  0  0  0  0  0
    5.2227   -0.5446   -3.7001 H   0  0  0  0  0  0  0  0  0  0  0  0
    5.2357   -3.6211   -4.1810 H   0  0  0  0  0  0  0  0  0  0  0  0
    6.1293   -1.2831   -5.9856 H   0  0  0  0  0  0  0  0  0  0  0  0
    6.0392   -4.4003   -6.2347 H   0  0  0  0  0  0  0  0  0  0  0  0
  1 12  1  0  0  0  0
  1 11  1  0  0  0  0
  2  1  1  0  0  0  0
  2 14  1  0  0  0  0
  3 17  1  0  0  0  0
  3  2  1  0  0  0  0
  4  3  1  0  0  0  0
  4 18  1  0  0  0  0
  5 20  1  0  0  0  0
  5  4  1  0  0  0  0
  6  5  2  0  0  0  0
  7 22  1  0  0  0  0
  7  6  1  0  0  0  0
  8  7  2  0  0  0  0
  9 24  1  0  0  0  0
  9  8  1  0  0  0  0
 10  9  2  0  0  0  0
 13  1  1  0  0  0  0
 15  2  1  0  0  0  0
 16  3  1  0  0  0  0
 19  4  1  0  0  0  0
 21  6  1  0  0  0  0
 23  8  1  0  0  0  0
M  END
>  <HBA>
1

>  <HBD>
0

>  <TPSA>
17.07

>  <cid>
23203

>  <dipole>
5.16

>  <excitation_energy_1>
3.431

>  <excitation_energy_2>
4.685

>  <excitation_energy_3>
6.062

>  <excitation_energy_4>
6.087

>  <homo_energy>
-6.52

>  <homo_lumo_gap>
4.604

>  <logP>
2.488

>  <lumo_energy>
-1.916

>  <melting_point>
22.75

>  <molecular_refractivity>
44.63

>  <oscillator_strength_1>
0.0001

>  <oscillator_strength_2>
1.0345

>  <oscillator_strength_3>
0.0008

>  <oscillator_strength_4>
0.0009

>  <open_babel_can_smiles>
CCCC/C=C/C=C/C=O

>  <mulliken_charges>
24
1   -0.442737
2   -0.248471
3   -0.250988
4   -0.311827
5   -0.093007
6   -0.109932
7   -0.097919
8   -0.170498
9   0.22744
10   -0.422542
11   0.146331
12   0.143666
13   0.145066
14   0.133495
15   0.134863
16   0.141641
17   0.13339
18   0.151021
19   0.145455
20   0.134122
21   0.133469
22   0.138481
23   0.146481
24   0.092999

>  <lowdin_charges>
24
1   -0.444713
2   -0.271563
3   -0.271697
4   -0.271817
5   -0.122301
6   -0.168463
7   -0.106958
8   -0.20079
9   0.035154
10   -0.236693
11   0.152647
12   0.146977
13   0.14896
14   0.140788
15   0.140166
16   0.145128
17   0.139629
18   0.154871
19   0.148736
20   0.152306
21   0.156473
22   0.157226
23   0.166143
24   0.109792

$$$$

