PCCDB-ID:  31212
public computational chemistry database (PCCDB) project, http://pccdb.org

 24 24  0  0  0  0  0  0  0  0999 V2000
   -1.9038    0.7711   -1.3411 C   0  0  0  0  0  0  0  0  0  0  0  0
   -2.6246   -0.1973   -0.6438 C   0  0  0  0  0  0  0  0  0  0  0  0
   -0.5132    0.8202   -1.2581 C   0  0  0  0  0  0  0  0  0  0  0  0
   -0.5474   -1.0799    0.2346 C   0  0  0  0  0  0  0  0  0  0  0  0
   -1.9422   -1.1307    0.1539 C   0  0  0  0  0  0  0  0  0  0  0  0
    0.1886   -0.1044   -0.4574 C   0  0  0  0  0  0  0  0  0  0  0  0
   -2.6958   -2.1717    0.9215 C   0  0  0  0  0  0  0  0  0  0  0  0
    2.3094    0.8683   -0.1260 C   0  0  0  0  0  0  0  0  0  0  0  0
   -2.4324   -2.6146    2.0843 N   0  0  0  0  0  0  0  0  0  0  0  0
    2.7719    3.1116    0.7513 N   0  0  0  0  0  0  0  0  0  0  0  0
    1.5871   -0.1587   -0.3936 N   0  0  0  0  0  0  0  0  0  0  0  0
    1.9144    2.1422    0.1892 N   0  0  0  0  0  0  0  0  0  0  0  0
   -3.8030   -2.6705    0.2968 O   0  0  0  0  0  0  0  0  0  0  0  0
    3.6581    0.7483   -0.1355 O   0  0  0  0  0  0  0  0  0  0  0  0
   -2.4296    1.4960   -1.9571 H   0  0  0  0  0  0  0  0  0  0  0  0
   -3.7101   -0.2077   -0.6894 H   0  0  0  0  0  0  0  0  0  0  0  0
    0.0414    1.5583   -1.8305 H   0  0  0  0  0  0  0  0  0  0  0  0
   -0.0059   -1.8185    0.8179 H   0  0  0  0  0  0  0  0  0  0  0  0
   -1.6309   -2.1124    2.4688 H   0  0  0  0  0  0  0  0  0  0  0  0
    3.3589    2.6714    1.4603 H   0  0  0  0  0  0  0  0  0  0  0  0
    3.3972    3.4391    0.0170 H   0  0  0  0  0  0  0  0  0  0  0  0
    0.9398    2.2689    0.4244 H   0  0  0  0  0  0  0  0  0  0  0  0
   -3.7590   -2.4359   -0.6432 H   0  0  0  0  0  0  0  0  0  0  0  0
    3.8223   -0.1799   -0.3825 H   0  0  0  0  0  0  0  0  0  0  0  0
  1  3  2  0  0  0  0
  1  2  1  0  0  0  0
  2  5  2  0  0  0  0
  3  6  1  0  0  0  0
  4 18  1  0  0  0  0
  5  4  1  0  0  0  0
  5  7  1  0  0  0  0
  6 11  1  0  0  0  0
  6  4  2  0  0  0  0
  7  9  2  0  0  0  0
  8 12  1  0  0  0  0
  9 19  1  0  0  0  0
 10 20  1  0  0  0  0
 11  8  2  0  0  0  0
 12 22  1  0  0  0  0
 12 10  1  0  0  0  0
 13  7  1  0  0  0  0
 14  8  1  0  0  0  0
 15  1  1  0  0  0  0
 16  2  1  0  0  0  0
 17  3  1  0  0  0  0
 21 10  1  0  0  0  0
 23 13  1  0  0  0  0
 24 14  1  0  0  0  0
M  END
>  <HBA>
6

>  <HBD>
4

>  <TPSA>
110.24

>  <cid>
31212

>  <dipole>
5.89

>  <excitation_energy_1>
4.38

>  <excitation_energy_2>
4.865

>  <excitation_energy_3>
5.043

>  <excitation_energy_4>
5.227

>  <homo_energy>
-6.074

>  <homo_lumo_gap>
5.162

>  <logP>
1.645

>  <lumo_energy>
-0.912

>  <melting_point>
241.83

>  <molecular_refractivity>
49.94

>  <oscillator_strength_1>
0.0275

>  <oscillator_strength_2>
0.1952

>  <oscillator_strength_3>
0.0508

>  <oscillator_strength_4>
0.0036

>  <open_babel_can_smiles>
NN/C(=N\c1cccc(c1)C(=N)O)/O

>  <mulliken_charges>
24
1   -0.136673
2   -0.200181
3   -0.171384
4   -0.205415
5   0.067864
6   0.244749
7   0.42086
8   0.685653
9   -0.581844
10   -0.558741
11   -0.566646
12   -0.51232
13   -0.578065
14   -0.604561
15   0.138643
16   0.14153
17   0.143281
18   0.144125
19   0.286392
20   0.325961
21   0.331682
22   0.353261
23   0.405859
24   0.42597

>  <lowdin_charges>
24
1   -0.148367
2   -0.184842
3   -0.190289
4   -0.172009
5   -0.044376
6   0.051172
7   0.124574
8   0.169503
9   -0.389527
10   -0.45335
11   -0.266329
12   -0.238987
13   -0.361986
14   -0.367091
15   0.163294
16   0.160121
17   0.165303
18   0.170093
19   0.258676
20   0.265818
21   0.271105
22   0.293288
23   0.3537
24   0.370507

$$$$

