PCCDB-ID:  19942
public computational chemistry database (PCCDB) project, http://pccdb.org

 17 17  0  0  1  0  0  0  0  0999 V2000
    0.9366    0.0696   -0.0397 C   0  0  0  0  0  0  0  0  0  0  0  0
    2.4374    0.0000    0.0012 C   0  0  2  0  0  0  0  0  0  0  0  0
    4.4306   -1.1514    0.0626 C   0  0  0  0  0  0  0  0  0  0  0  0
    4.5116    1.3247    0.0473 C   0  0  0  0  0  0  0  0  0  0  0  0
    5.1869   -2.1885    0.0908 N   0  0  0  0  0  0  0  0  0  0  0  0
    5.1899    2.4036    0.0566 N   0  0  0  0  0  0  0  0  0  0  0  0
    3.0390   -1.1445    0.0254 N   0  0  0  0  0  0  0  0  0  0  0  0
    3.1016    1.2012    0.0108 N   0  0  0  0  0  0  0  0  0  0  0  0
    5.0929    0.0768    0.0709 N   0  0  0  0  0  0  0  0  0  0  0  0
    6.4794    0.0292    0.1080 O   0  0  0  0  0  0  0  0  0  0  0  0
    0.5344   -0.9435   -0.0492 H   0  0  0  0  0  0  0  0  0  0  0  0
    0.5939    0.5995   -0.9366 H   0  0  0  0  0  0  0  0  0  0  0  0
    0.5457    0.6024    0.8356 H   0  0  0  0  0  0  0  0  0  0  0  0
    4.6274   -3.0385    0.0812 H   0  0  0  0  0  0  0  0  0  0  0  0
    4.5817    3.2229    0.0339 H   0  0  0  0  0  0  0  0  0  0  0  0
    2.5755    2.0641   -0.0093 H   0  0  0  0  0  0  0  0  0  0  0  0
    6.6132   -0.9540    0.1195 H   0  0  0  0  0  0  0  0  0  0  0  0
  1 13  1  0  0  0  0
  2  1  1  1  0  0  0
  2  8  1  0  0  0  0
  2  7  1  0  0  0  0
  3  9  1  0  0  0  0
  3  5  1  0  0  0  0
  4  6  2  0  0  0  0
  4  9  1  0  0  0  0
  7  3  2  0  0  0  0
  8  4  1  0  0  0  0
  9 10  1  0  0  0  0
 10 17  1  0  0  0  0
 11  1  1  0  0  0  0
 12  1  1  0  0  0  0
 14  5  1  0  0  0  0
 15  6  1  0  0  0  0
 16  8  1  0  0  0  0
M  RAD  2   2   2   5   2
M  END
>  <HBA>
6

>  <HBD>
3

>  <TPSA>
100.81

>  <cid>
19942

>  <dipole>
6.27

>  <excitation_energy_1>
4.29

>  <excitation_energy_2>
4.899

>  <excitation_energy_3>
5.135

>  <excitation_energy_4>
5.455

>  <homo_energy>
-5.897

>  <homo_lumo_gap>
4.874

>  <logP>
-0.434

>  <lumo_energy>
-1.023

>  <melting_point>
188.84

>  <molecular_refractivity>
33.46

>  <oscillator_strength_1>
0.0085

>  <oscillator_strength_2>
0.0042

>  <oscillator_strength_3>
0.0237

>  <oscillator_strength_4>
0.0006

>  <open_babel_can_smiles>
C[C]1NC(=N)N(C(=N1)[NH])O

>  <mulliken_charges>
17
1   -0.539726
2   0.528503
3   0.664868
4   0.700439
5   -0.73027
6   -0.611194
7   -0.505895
8   -0.686551
9   -0.260015
10   -0.498122
11   0.20774
12   0.179966
13   0.180393
14   0.310274
15   0.274735
16   0.341703
17   0.443152

>  <lowdin_charges>
17
1   -0.451144
2   0.128325
3   0.111626
4   0.129956
5   -0.457351
6   -0.427573
7   -0.217112
8   -0.247528
9   0.046129
10   -0.344498
11   0.18932
12   0.17354
13   0.17396
14   0.274971
15   0.256246
16   0.298721
17   0.362414

$$$$

