PCCDB-ID:  18502
public computational chemistry database (PCCDB) project, http://pccdb.org

 20 20  0  0  0  0  0  0  0  0999 V2000
    0.7448    1.3292   -0.5129 C   0  0  0  0  0  0  0  0  0  0  0  0
    1.4739    0.1367    0.1260 C   0  0  0  0  0  0  0  0  0  0  0  0
   -0.7225    1.3977   -0.0606 C   0  0  0  0  0  0  0  0  0  0  0  0
    0.7411   -1.1844   -0.1518 C   0  0  0  0  0  0  0  0  0  0  0  0
   -1.4588    0.0791   -0.3411 C   0  0  0  0  0  0  0  0  0  0  0  0
   -0.6045   -0.5275    2.6996 C   0  0  0  0  0  0  0  0  0  0  0  0
   -0.7426   -1.1430    0.2708 C   0  0  0  0  0  0  0  0  0  0  0  0
   -0.8833   -1.1712    1.7198 N   0  0  0  0  0  0  0  0  0  0  0  0
   -0.3961    0.0007    3.7380 O   0  0  0  0  0  0  0  0  0  0  0  0
    0.7804    1.2290   -1.6081 H   0  0  0  0  0  0  0  0  0  0  0  0
    1.2616    2.2653   -0.2682 H   0  0  0  0  0  0  0  0  0  0  0  0
    1.5573    0.2957    1.2102 H   0  0  0  0  0  0  0  0  0  0  0  0
    2.5019    0.0700   -0.2508 H   0  0  0  0  0  0  0  0  0  0  0  0
   -1.2413    2.2205   -0.5675 H   0  0  0  0  0  0  0  0  0  0  0  0
   -0.7650    1.6271    1.0134 H   0  0  0  0  0  0  0  0  0  0  0  0
    1.2383   -2.0229    0.3490 H   0  0  0  0  0  0  0  0  0  0  0  0
    0.7674   -1.3948   -1.2304 H   0  0  0  0  0  0  0  0  0  0  0  0
   -1.5119   -0.0835   -1.4269 H   0  0  0  0  0  0  0  0  0  0  0  0
   -2.4904    0.1183    0.0269 H   0  0  0  0  0  0  0  0  0  0  0  0
   -1.2340   -2.0531   -0.0888 H   0  0  0  0  0  0  0  0  0  0  0  0
  1 11  1  0  0  0  0
  1  3  1  0  0  0  0
  1  2  1  0  0  0  0
  2 12  1  0  0  0  0
  3 15  1  0  0  0  0
  4  2  1  0  0  0  0
  4  7  1  0  0  0  0
  4 16  1  0  0  0  0
  5  3  1  0  0  0  0
  5 19  1  0  0  0  0
  5  7  1  0  0  0  0
  6  9  2  0  0  0  0
  7  8  1  0  0  0  0
  8  6  2  0  0  0  0
 10  1  1  0  0  0  0
 13  2  1  0  0  0  0
 14  3  1  0  0  0  0
 17  4  1  0  0  0  0
 18  5  1  0  0  0  0
 20  7  1  0  0  0  0
M  END
>  <HBA>
2

>  <HBD>
0

>  <TPSA>
29.43

>  <cid>
18502

>  <dipole>
3.16

>  <excitation_energy_1>
6.221

>  <excitation_energy_2>
6.707

>  <excitation_energy_3>
6.835

>  <excitation_energy_4>
7.102

>  <homo_energy>
-7.29

>  <homo_lumo_gap>
8.125

>  <logP>
1.655

>  <lumo_energy>
0.835

>  <melting_point>
46.13

>  <molecular_refractivity>
35.91

>  <oscillator_strength_1>
0.001

>  <oscillator_strength_2>
0.0034

>  <oscillator_strength_3>
0.0025

>  <oscillator_strength_4>
0.0021

>  <open_babel_can_smiles>
O=C=NC1CCCCC1

>  <mulliken_charges>
20
1   -0.258516
2   -0.272324
3   -0.272666
4   -0.265659
5   -0.265682
6   0.60304
7   0.018257
8   -0.42473
9   -0.428826
10   0.129364
11   0.139
12   0.145674
13   0.140358
14   0.140398
15   0.145818
16   0.149822
17   0.13706
18   0.137097
19   0.149782
20   0.152734

>  <lowdin_charges>
20
1   -0.276129
2   -0.278979
3   -0.28156
4   -0.281491
5   -0.279199
6   0.162025
7   -0.033574
8   -0.179228
9   -0.176152
10   0.135976
11   0.148128
12   0.144331
13   0.148599
14   0.150709
15   0.144602
16   0.154607
17   0.144801
18   0.144724
19   0.152515
20   0.155293

$$$$

