PCCDB-ID:  11968
public computational chemistry database (PCCDB) project, http://pccdb.org

 20 20  0  0  0  0  0  0  0  0999 V2000
   -1.3887   -0.1559    0.2703 C   0  0  0  0  0  0  0  0  0  0  0  0
   -0.6546   -1.3425    0.2293 C   0  0  0  0  0  0  0  0  0  0  0  0
   -0.7322    1.0545    0.0794 C   0  0  0  0  0  0  0  0  0  0  0  0
    0.7190   -1.3041   -0.0018 C   0  0  0  0  0  0  0  0  0  0  0  0
    1.2351    2.4590   -0.3449 C   0  0  0  0  0  0  0  0  0  0  0  0
    2.5087    2.8281   -0.5875 C   0  0  0  0  0  0  0  0  0  0  0  0
    0.6552    1.1348   -0.1574 C   0  0  0  0  0  0  0  0  0  0  0  0
    1.3738   -0.0851   -0.1940 C   0  0  0  0  0  0  0  0  0  0  0  0
    2.8232    4.2708   -0.7378 C   0  0  0  0  0  0  0  0  0  0  0  0
    2.7206   -0.0401   -0.4215 O   0  0  0  0  0  0  0  0  0  0  0  0
    2.0203    5.1737   -0.6547 O   0  0  0  0  0  0  0  0  0  0  0  0
    4.1348    4.5595   -0.9891 O   0  0  0  0  0  0  0  0  0  0  0  0
   -2.4589   -0.1753    0.4502 H   0  0  0  0  0  0  0  0  0  0  0  0
   -1.1458   -2.3002    0.3762 H   0  0  0  0  0  0  0  0  0  0  0  0
   -1.2960    1.9831    0.1106 H   0  0  0  0  0  0  0  0  0  0  0  0
    1.2943   -2.2280   -0.0349 H   0  0  0  0  0  0  0  0  0  0  0  0
    0.5217    3.2800   -0.2782 H   0  0  0  0  0  0  0  0  0  0  0  0
    3.3049    2.0980   -0.6744 H   0  0  0  0  0  0  0  0  0  0  0  0
    3.0690   -0.9458   -0.4155 H   0  0  0  0  0  0  0  0  0  0  0  0
    4.6502    3.7376   -1.0295 H   0  0  0  0  0  0  0  0  0  0  0  0
  1 13  1  0  0  0  0
  2  1  1  0  0  0  0
  2 14  1  0  0  0  0
  3 15  1  0  0  0  0
  3  1  2  0  0  0  0
  4  2  2  0  0  0  0
  5 17  1  0  0  0  0
  5  7  1  0  0  0  0
  6  5  2  0  0  0  0
  7  3  1  0  0  0  0
  8  7  2  0  0  0  0
  8  4  1  0  0  0  0
  9 11  2  0  0  0  0
  9  6  1  0  0  0  0
 10 19  1  0  0  0  0
 10  8  1  0  0  0  0
 12  9  1  0  0  0  0
 16  4  1  0  0  0  0
 18  6  1  0  0  0  0
 20 12  1  0  0  0  0
M  END
>  <HBA>
3

>  <HBD>
2

>  <TPSA>
57.53

>  <cid>
11968

>  <dipole>
6.92

>  <excitation_energy_1>
4.11

>  <excitation_energy_2>
4.279

>  <excitation_energy_3>
4.607

>  <excitation_energy_4>
5.212

>  <homo_energy>
-6.251

>  <homo_lumo_gap>
4.528

>  <logP>
1.49

>  <lumo_energy>
-1.722

>  <melting_point>
144.31

>  <molecular_refractivity>
45.13

>  <oscillator_strength_1>
0.2219

>  <oscillator_strength_2>
0.0

>  <oscillator_strength_3>
0.4308

>  <oscillator_strength_4>
0.0014

>  <open_babel_can_smiles>
OC(=O)/C=C/c1ccccc1O

>  <mulliken_charges>
20
1   -0.132659
2   -0.129292
3   -0.20607
4   -0.190997
5   -0.151486
6   -0.256551
7   0.158185
8   0.300284
9   0.608761
10   -0.643315
11   -0.466861
12   -0.587508
13   0.138129
14   0.14085
15   0.147794
16   0.124928
17   0.171014
18   0.155382
19   0.414315
20   0.405096

>  <lowdin_charges>
20
1   -0.172508
2   -0.133749
3   -0.135634
4   -0.21186
5   -0.097338
6   -0.24138
7   -0.036803
8   0.114368
9   0.196967
10   -0.367132
11   -0.260429
12   -0.365843
13   0.161762
14   0.164007
15   0.166496
16   0.156755
17   0.179713
18   0.167971
19   0.360416
20   0.354221

$$$$

