PCCDB-ID:  72923
public computational chemistry database (PCCDB) project, http://pccdb.org

 21 21  0  0  0  0  0  0  0  0999 V2000
    0.5019   -0.1890    0.8012 C   0  0  0  0  0  0  0  0  0  0  0  0
   -0.2190   -0.3859   -0.5523 C   0  0  0  0  0  0  0  0  0  0  0  0
   -2.1682   -2.0044   -0.3214 C   0  0  0  0  0  0  0  0  0  0  0  0
   -2.6527    0.3296   -0.3823 C   0  0  0  0  0  0  0  0  0  0  0  0
   -3.5376   -2.2315   -0.1861 C   0  0  0  0  0  0  0  0  0  0  0  0
   -4.0002   -0.0024   -0.2441 C   0  0  0  0  0  0  0  0  0  0  0  0
   -0.0296    0.9736    1.6316 C   0  0  0  0  0  0  0  0  0  0  0  0
   -1.6941   -0.6912   -0.4244 C   0  0  0  0  0  0  0  0  0  0  0  0
   -4.4564   -1.2580   -0.1462 N   0  0  0  0  0  0  0  0  0  0  0  0
    0.0504    2.1607    0.8424 O   0  0  0  0  0  0  0  0  0  0  0  0
    1.5672   -0.0206    0.6005 H   0  0  0  0  0  0  0  0  0  0  0  0
    0.4267   -1.1037    1.4039 H   0  0  0  0  0  0  0  0  0  0  0  0
    0.2761   -1.2048   -1.0883 H   0  0  0  0  0  0  0  0  0  0  0  0
   -0.0824    0.5212   -1.1491 H   0  0  0  0  0  0  0  0  0  0  0  0
   -1.4791   -2.8452   -0.3552 H   0  0  0  0  0  0  0  0  0  0  0  0
   -2.3438    1.3690   -0.4527 H   0  0  0  0  0  0  0  0  0  0  0  0
   -3.9175   -3.2496   -0.1095 H   0  0  0  0  0  0  0  0  0  0  0  0
   -4.7552    0.7823   -0.2135 H   0  0  0  0  0  0  0  0  0  0  0  0
    0.5730    1.0689    2.5487 H   0  0  0  0  0  0  0  0  0  0  0  0
   -1.0684    0.7758    1.9359 H   0  0  0  0  0  0  0  0  0  0  0  0
   -0.3006    2.8935    1.3703 H   0  0  0  0  0  0  0  0  0  0  0  0
  1 12  1  0  0  0  0
  1  7  1  0  0  0  0
  2  8  1  0  0  0  0
  2  1  1  0  0  0  0
  3  5  2  0  0  0  0
  4  6  1  0  0  0  0
  5  9  1  0  0  0  0
  5 17  1  0  0  0  0
  6 18  1  0  0  0  0
  6  9  2  0  0  0  0
  7 20  1  0  0  0  0
  7 19  1  0  0  0  0
  8  4  2  0  0  0  0
  8  3  1  0  0  0  0
 10 21  1  0  0  0  0
 10  7  1  0  0  0  0
 11  1  1  0  0  0  0
 13  2  1  0  0  0  0
 14  2  1  0  0  0  0
 15  3  1  0  0  0  0
 16  4  1  0  0  0  0
M  END
>  <HBA>
2

>  <HBD>
1

>  <TPSA>
33.12

>  <cid>
72923

>  <dipole>
2.68

>  <excitation_energy_1>
4.905

>  <excitation_energy_2>
5.157

>  <excitation_energy_3>
5.437

>  <excitation_energy_4>
6.096

>  <homo_energy>
-6.719

>  <homo_lumo_gap>
6.275

>  <logP>
1.006

>  <lumo_energy>
-0.444

>  <melting_point>
39.95

>  <molecular_refractivity>
39.98

>  <oscillator_strength_1>
0.0048

>  <oscillator_strength_2>
0.0

>  <oscillator_strength_3>
0.0272

>  <oscillator_strength_4>
0.0099

>  <open_babel_can_smiles>
OCCCc1ccncc1

>  <mulliken_charges>
21
1   -0.266199
2   -0.342499
3   -0.188615
4   -0.18627
5   0.037896
6   0.036038
7   -0.037882
8   0.174832
9   -0.411824
10   -0.619054
11   0.150284
12   0.13934
13   0.143421
14   0.173298
15   0.127232
16   0.142016
17   0.137258
18   0.136465
19   0.125107
20   0.133848
21   0.395307

>  <lowdin_charges>
21
1   -0.276011
2   -0.27829
3   -0.190528
4   -0.186949
5   -0.088734
6   -0.092899
7   -0.136753
8   0.023505
9   -0.157224
10   -0.478532
11   0.150935
12   0.149031
13   0.153814
14   0.16565
15   0.159642
16   0.164649
17   0.153524
18   0.155235
19   0.130837
20   0.131221
21   0.347876

$$$$

