PCCDB-ID:  23238
public computational chemistry database (PCCDB) project, http://pccdb.org

 18 17  0  0  1  0  0  0  0  0999 V2000
    3.2040   -0.7089   -0.0599 C   0  0  0  0  0  0  0  0  0  0  0  0
    1.5471    2.8372    0.1178 C   0  0  0  0  0  0  0  0  0  0  0  0
    4.6321    3.0905    0.1020 C   0  0  0  0  0  0  0  0  0  0  0  0
    2.1810    0.3814    0.2691 C   0  0  0  0  0  0  0  0  0  0  0  0
    2.6364    1.7885   -0.1283 C   0  0  2  0  0  0  0  0  0  0  0  0
    3.8134    2.0708    0.6318 O   0  0  0  0  0  0  0  0  0  0  0  0
    2.8531   -1.6926    0.2717 H   0  0  0  0  0  0  0  0  0  0  0  0
    4.1583   -0.5004    0.4322 H   0  0  0  0  0  0  0  0  0  0  0  0
    3.3868   -0.7673   -1.1403 H   0  0  0  0  0  0  0  0  0  0  0  0
    0.6584    2.6209   -0.4864 H   0  0  0  0  0  0  0  0  0  0  0  0
    1.8876    3.8448   -0.1434 H   0  0  0  0  0  0  0  0  0  0  0  0
    1.2559    2.8390    1.1743 H   0  0  0  0  0  0  0  0  0  0  0  0
    5.5288    3.1349    0.7267 H   0  0  0  0  0  0  0  0  0  0  0  0
    4.1477    4.0788    0.1191 H   0  0  0  0  0  0  0  0  0  0  0  0
    4.9331    2.8723   -0.9357 H   0  0  0  0  0  0  0  0  0  0  0  0
    1.9698    0.3851    1.3469 H   0  0  0  0  0  0  0  0  0  0  0  0
    1.2293    0.1720   -0.2373 H   0  0  0  0  0  0  0  0  0  0  0  0
    2.9011    1.7867   -1.2014 H   0  0  0  0  0  0  0  0  0  0  0  0
  1  4  1  0  0  0  0
  1  7  1  0  0  0  0
  1  8  1  0  0  0  0
  2 12  1  0  0  0  0
  3 14  1  0  0  0  0
  3  6  1  0  0  0  0
  3 13  1  0  0  0  0
  4 16  1  0  0  0  0
  5 18  1  6  0  0  0
  5  2  1  0  0  0  0
  5  4  1  0  0  0  0
  5  6  1  0  0  0  0
  9  1  1  0  0  0  0
 10  2  1  0  0  0  0
 11  2  1  0  0  0  0
 15  3  1  0  0  0  0
 17  4  1  0  0  0  0
M  END
>  <HBA>
1

>  <HBD>
0

>  <TPSA>
9.23

>  <cid>
23238

>  <dipole>
1.13

>  <excitation_energy_1>
6.422

>  <excitation_energy_2>
6.846

>  <excitation_energy_3>
6.901

>  <excitation_energy_4>
7.1

>  <homo_energy>
-6.729

>  <homo_lumo_gap>
9.102

>  <logP>
1.431

>  <lumo_energy>
2.373

>  <melting_point>
-34.85

>  <molecular_refractivity>
27.23

>  <oscillator_strength_1>
0.0095

>  <oscillator_strength_2>
0.0011

>  <oscillator_strength_3>
0.0317

>  <oscillator_strength_4>
0.0163

>  <open_babel_can_smiles>
CC[C@H](OC)C

>  <mulliken_charges>
18
1   -0.446181
2   -0.457745
3   -0.193785
4   -0.255426
5   0.162343
6   -0.469835
7   0.138921
8   0.164318
9   0.134434
10   0.140768
11   0.144285
12   0.152362
13   0.155724
14   0.129864
15   0.127584
16   0.140968
17   0.128229
18   0.103174

>  <lowdin_charges>
18
1   -0.444184
2   -0.457021
3   -0.278722
4   -0.276449
5   0.008235
6   -0.27391
7   0.148124
8   0.157716
9   0.141602
10   0.152566
11   0.149984
12   0.15311
13   0.154066
14   0.129228
15   0.128858
16   0.145542
17   0.143001
18   0.118257

$$$$

