PCCDB-ID:  69043
public computational chemistry database (PCCDB) project, http://pccdb.org

 20 20  0  0  0  0  0  0  0  0999 V2000
   -1.1405   -0.5788    0.2593 C   0  0  0  0  0  0  0  0  0  0  0  0
    0.0376   -1.2388    0.5871 C   0  0  0  0  0  0  0  0  0  0  0  0
   -1.0974    0.7547   -0.1383 C   0  0  0  0  0  0  0  0  0  0  0  0
    1.2865   -0.5980    0.5243 C   0  0  0  0  0  0  0  0  0  0  0  0
    0.1331    1.3975   -0.1892 C   0  0  0  0  0  0  0  0  0  0  0  0
    1.3393    0.7601    0.1478 C   0  0  0  0  0  0  0  0  0  0  0  0
    2.4545   -1.4875    0.9407 C   0  0  0  0  0  0  0  0  0  0  0  0
    2.6278    1.5387    0.1702 C   0  0  0  0  0  0  0  0  0  0  0  0
    0.1406    2.7809   -0.7016 N   0  0  0  0  0  0  0  0  0  0  0  0
    2.2650   -2.4064    1.7058 O   0  0  0  0  0  0  0  0  0  0  0  0
    3.6622   -1.2736    0.4094 O   0  0  0  0  0  0  0  0  0  0  0  0
    3.6197    1.2421   -0.4712 O   0  0  0  0  0  0  0  0  0  0  0  0
    2.5940    2.5462    1.0481 O   0  0  0  0  0  0  0  0  0  0  0  0
   -0.8966    3.4295   -0.6028 O   0  0  0  0  0  0  0  0  0  0  0  0
    1.1773    3.1822   -1.2305 O   0  0  0  0  0  0  0  0  0  0  0  0
   -2.0906   -1.1013    0.3056 H   0  0  0  0  0  0  0  0  0  0  0  0
    0.0239   -2.2723    0.9137 H   0  0  0  0  0  0  0  0  0  0  0  0
   -1.9894    1.3033   -0.4149 H   0  0  0  0  0  0  0  0  0  0  0  0
    3.6805   -0.4999   -0.1976 H   0  0  0  0  0  0  0  0  0  0  0  0
    3.4479    3.0169    0.9800 H   0  0  0  0  0  0  0  0  0  0  0  0
  1 16  1  0  0  0  0
  1  2  2  0  0  0  0
  2 17  1  0  0  0  0
  3  1  1  0  0  0  0
  4  2  1  0  0  0  0
  4  7  1  0  0  0  0
  5  3  2  0  0  0  0
  5  6  1  0  0  0  0
  6  8  1  0  0  0  0
  6  4  2  0  0  0  0
  7 10  2  0  0  0  0
  8 13  1  0  0  0  0
  9 14  2  0  0  0  0
  9  5  1  0  0  0  0
 11  7  1  0  0  0  0
 12  8  2  0  0  0  0
 15  9  2  0  0  0  0
 18  3  1  0  0  0  0
 19 11  1  0  0  0  0
 20 13  1  0  0  0  0
M  END
>  <HBA>
4

>  <HBD>
2

>  <TPSA>
120.42

>  <cid>
69043

>  <dipole>
2.59

>  <excitation_energy_1>
3.696

>  <excitation_energy_2>
3.981

>  <excitation_energy_3>
4.328

>  <excitation_energy_4>
4.356

>  <homo_energy>
-7.668

>  <homo_lumo_gap>
4.591

>  <logP>
1.514

>  <lumo_energy>
-3.078

>  <melting_point>
226.77

>  <molecular_refractivity>
49.18

>  <oscillator_strength_1>
0.0161

>  <oscillator_strength_2>
0.0025

>  <oscillator_strength_3>
0.0029

>  <oscillator_strength_4>
0.0022

>  <open_babel_can_smiles>
OC(=O)c1cccc(c1C(=O)O)N(=O)=O

>  <mulliken_charges>
20
1   -0.133534
2   -0.136336
3   -0.13604
4   -0.007932
5   0.252127
6   0.051006
7   0.559706
8   0.530865
9   0.370459
10   -0.445231
11   -0.583276
12   -0.4747
13   -0.529515
14   -0.370048
15   -0.387461
16   0.168773
17   0.19446
18   0.196783
19   0.447919
20   0.431974

>  <lowdin_charges>
20
1   -0.133959
2   -0.103767
3   -0.123512
4   -0.034078
5   0.017128
6   -0.020158
7   0.187126
8   0.208854
9   0.310508
10   -0.242039
11   -0.342054
12   -0.261341
13   -0.315301
14   -0.22638
15   -0.229592
16   0.17819
17   0.192218
18   0.194988
19   0.366446
20   0.376723

$$$$

