PCCDB-ID:  43869
public computational chemistry database (PCCDB) project, http://pccdb.org

 28 28  0  0  0  0  0  0  0  0999 V2000
   -2.6691    0.4268    2.7632 C   0  0  0  0  0  0  0  0  0  0  0  0
   -3.2666    0.9829    1.6303 C   0  0  0  0  0  0  0  0  0  0  0  0
   -1.2907    0.2139    2.7737 C   0  0  0  0  0  0  0  0  0  0  0  0
    1.0409    3.5093   -0.4779 C   0  0  0  0  0  0  0  0  0  0  0  0
    2.4476    4.1172   -0.5956 C   0  0  0  0  0  0  0  0  0  0  0  0
   -2.4985    1.3341    0.5229 C   0  0  0  0  0  0  0  0  0  0  0  0
   -0.5132    0.5443    1.6641 C   0  0  0  0  0  0  0  0  0  0  0  0
    1.0278    1.9752   -0.5539 C   0  0  0  0  0  0  0  0  0  0  0  0
    3.4348    3.6594    0.4747 C   0  0  0  0  0  0  0  0  0  0  0  0
   -1.1139    1.1077    0.5309 C   0  0  0  0  0  0  0  0  0  0  0  0
   -0.9733    1.3336   -1.8069 N   0  0  0  0  0  0  0  0  0  0  0  0
   -0.3395    1.4419   -0.6164 N   0  0  0  0  0  0  0  0  0  0  0  0
    2.8592    3.9147    1.7532 O   0  0  0  0  0  0  0  0  0  0  0  0
   -0.3230    1.7150   -2.7752 O   0  0  0  0  0  0  0  0  0  0  0  0
   -3.2708    0.1666    3.6292 H   0  0  0  0  0  0  0  0  0  0  0  0
   -4.3381    1.1624    1.6110 H   0  0  0  0  0  0  0  0  0  0  0  0
   -0.8118   -0.2223    3.6461 H   0  0  0  0  0  0  0  0  0  0  0  0
    0.4207    3.8986   -1.2920 H   0  0  0  0  0  0  0  0  0  0  0  0
    0.5853    3.8240    0.4669 H   0  0  0  0  0  0  0  0  0  0  0  0
    2.3583    5.2092   -0.5420 H   0  0  0  0  0  0  0  0  0  0  0  0
    2.8776    3.8817   -1.5790 H   0  0  0  0  0  0  0  0  0  0  0  0
   -2.9577    1.7814   -0.3504 H   0  0  0  0  0  0  0  0  0  0  0  0
    0.5526    0.3442    1.6814 H   0  0  0  0  0  0  0  0  0  0  0  0
    1.5248    1.5382    0.3123 H   0  0  0  0  0  0  0  0  0  0  0  0
    1.5320    1.6310   -1.4606 H   0  0  0  0  0  0  0  0  0  0  0  0
    4.3837    4.2044    0.3490 H   0  0  0  0  0  0  0  0  0  0  0  0
    3.6613    2.5869    0.3537 H   0  0  0  0  0  0  0  0  0  0  0  0
    3.5058    3.6636    2.4295 H   0  0  0  0  0  0  0  0  0  0  0  0
  1  3  1  0  0  0  0
  1 15  1  0  0  0  0
  2  1  2  0  0  0  0
  3 17  1  0  0  0  0
  4 19  1  0  0  0  0
  5 20  1  0  0  0  0
  5  4  1  0  0  0  0
  5  9  1  0  0  0  0
  6 10  2  0  0  0  0
  6  2  1  0  0  0  0
  7 23  1  0  0  0  0
  7  3  2  0  0  0  0
  8  4  1  0  0  0  0
  8 24  1  0  0  0  0
  9 13  1  0  0  0  0
 10  7  1  0  0  0  0
 11 12  1  0  0  0  0
 12  8  1  0  0  0  0
 12 10  1  0  0  0  0
 13 28  1  0  0  0  0
 14 11  1  0  0  0  0
 16  2  1  0  0  0  0
 18  4  1  0  0  0  0
 21  5  1  0  0  0  0
 22  6  1  0  0  0  0
 25  8  1  0  0  0  0
 26  9  1  0  0  0  0
 27  9  1  0  0  0  0
M  RAD  2  11   2  14   2
M  END
>  <HBA>
4

>  <HBD>
1

>  <TPSA>
52.9

>  <cid>
43869

>  <dipole>
4.32

>  <excitation_energy_1>
3.164

>  <excitation_energy_2>
4.528

>  <excitation_energy_3>
4.794

>  <excitation_energy_4>
5.119

>  <homo_energy>
-6.085

>  <homo_lumo_gap>
4.876

>  <logP>
1.947

>  <lumo_energy>
-1.208

>  <melting_point>
49.0

>  <molecular_refractivity>
56.16

>  <oscillator_strength_1>
0.0011

>  <oscillator_strength_2>
0.2126

>  <oscillator_strength_3>
0.0

>  <oscillator_strength_4>
0.0208

>  <open_babel_can_smiles>
OCCCCN(c1ccccc1)[N][O]

>  <mulliken_charges>
28
1   -0.122106
2   -0.142488
3   -0.139826
4   -0.256122
5   -0.276791
6   -0.143906
7   -0.161352
8   -0.162381
9   -0.03853
10   0.326421
11   0.158814
12   -0.355325
13   -0.616588
14   -0.376238
15   0.133335
16   0.138036
17   0.13467
18   0.159579
19   0.167642
20   0.151366
21   0.141413
22   0.159722
23   0.139607
24   0.164696
25   0.178722
26   0.12567
27   0.118252
28   0.393709

>  <lowdin_charges>
28
1   -0.161163
2   -0.145314
3   -0.149651
4   -0.283135
5   -0.279675
6   -0.164175
7   -0.173316
8   -0.217663
9   -0.134124
10   0.044584
11   0.057463
12   -0.017302
13   -0.477353
14   -0.262095
15   0.161129
16   0.160409
17   0.161292
18   0.158901
19   0.159059
20   0.152627
21   0.149365
22   0.175177
23   0.160669
24   0.159802
25   0.167605
26   0.130395
27   0.119613
28   0.346878

$$$$

