PCCDB-ID:  23711
public computational chemistry database (PCCDB) project, http://pccdb.org

 30 29  0  0  0  0  0  0  0  0999 V2000
    3.9451    3.9110   -1.5364 C   0  0  0  0  0  0  0  0  0  0  0  0
    2.9021    2.5075   -3.3940 C   0  0  0  0  0  0  0  0  0  0  0  0
    9.1468   -2.8633    2.3447 C   0  0  0  0  0  0  0  0  0  0  0  0
    7.2331   -4.2684    3.2783 C   0  0  0  0  0  0  0  0  0  0  0  0
    5.4074   -0.0947   -0.4718 C   0  0  0  0  0  0  0  0  0  0  0  0
    5.6814   -0.7580    0.6571 C   0  0  0  0  0  0  0  0  0  0  0  0
    3.3136    2.5794   -1.9303 C   0  0  0  0  0  0  0  0  0  0  0  0
    7.7587   -3.4497    2.1076 C   0  0  0  0  0  0  0  0  0  0  0  0
    4.3889    0.9882   -0.4932 C   0  0  0  0  0  0  0  0  0  0  0  0
    6.6994   -1.8413    0.6777 C   0  0  0  0  0  0  0  0  0  0  0  0
    3.7398    1.3539    0.4680 O   0  0  0  0  0  0  0  0  0  0  0  0
    7.3464   -2.2080   -0.2846 O   0  0  0  0  0  0  0  0  0  0  0  0
    4.2842    1.5073   -1.7344 O   0  0  0  0  0  0  0  0  0  0  0  0
    6.8017   -2.3642    1.9174 O   0  0  0  0  0  0  0  0  0  0  0  0
    3.2286    4.7257   -1.6905 H   0  0  0  0  0  0  0  0  0  0  0  0
    4.8330    4.1127   -2.1460 H   0  0  0  0  0  0  0  0  0  0  0  0
    4.2318    3.9041   -0.4813 H   0  0  0  0  0  0  0  0  0  0  0  0
    2.1506    3.2748   -3.6094 H   0  0  0  0  0  0  0  0  0  0  0  0
    2.4741    1.5285   -3.6311 H   0  0  0  0  0  0  0  0  0  0  0  0
    3.7640    2.6758   -4.0490 H   0  0  0  0  0  0  0  0  0  0  0  0
    9.8710   -3.6691    2.5090 H   0  0  0  0  0  0  0  0  0  0  0  0
    9.1458   -2.2153    3.2282 H   0  0  0  0  0  0  0  0  0  0  0  0
    9.4731   -2.2827    1.4776 H   0  0  0  0  0  0  0  0  0  0  0  0
    7.8906   -5.1253    3.4605 H   0  0  0  0  0  0  0  0  0  0  0  0
    6.2262   -4.6435    3.0707 H   0  0  0  0  0  0  0  0  0  0  0  0
    7.1951   -3.6630    4.1906 H   0  0  0  0  0  0  0  0  0  0  0  0
    5.9234   -0.3333   -1.3965 H   0  0  0  0  0  0  0  0  0  0  0  0
    5.1665   -0.5186    1.5822 H   0  0  0  0  0  0  0  0  0  0  0  0
    2.4621    2.3687   -1.2768 H   0  0  0  0  0  0  0  0  0  0  0  0
    7.7613   -4.0429    1.1886 H   0  0  0  0  0  0  0  0  0  0  0  0
  1 17  1  0  0  0  0
  2  7  1  0  0  0  0
  3 21  1  0  0  0  0
  3 22  1  0  0  0  0
  4 24  1  0  0  0  0
  4 26  1  0  0  0  0
  5  6  2  0  0  0  0
  6 10  1  0  0  0  0
  6 28  1  0  0  0  0
  7 13  1  0  0  0  0
  7  1  1  0  0  0  0
  7 29  1  0  0  0  0
  8  3  1  0  0  0  0
  8  4  1  0  0  0  0
  9  5  1  0  0  0  0
  9 11  2  0  0  0  0
 10 14  1  0  0  0  0
 12 10  2  0  0  0  0
 13  9  1  0  0  0  0
 14  8  1  0  0  0  0
 15  1  1  0  0  0  0
 16  1  1  0  0  0  0
 18  2  1  0  0  0  0
 19  2  1  0  0  0  0
 20  2  1  0  0  0  0
 23  3  1  0  0  0  0
 25  4  1  0  0  0  0
 27  5  1  0  0  0  0
 30  8  1  0  0  0  0
M  END
>  <HBA>
4

>  <HBD>
0

>  <TPSA>
52.6

>  <cid>
23711

>  <dipole>
0.1

>  <excitation_energy_1>
4.148

>  <excitation_energy_2>
4.286

>  <excitation_energy_3>
5.431

>  <excitation_energy_4>
5.467

>  <homo_energy>
-7.478

>  <homo_lumo_gap>
5.382

>  <logP>
1.446

>  <lumo_energy>
-2.095

>  <melting_point>
5.45

>  <molecular_refractivity>
52.28

>  <oscillator_strength_1>
0.0001

>  <oscillator_strength_2>
0.0008

>  <oscillator_strength_3>
0.0634

>  <oscillator_strength_4>
0.0009

>  <open_babel_can_smiles>
CC(OC(=O)/C=C/C(=O)OC(C)C)C

>  <mulliken_charges>
30
1   -0.459414
2   -0.452314
3   -0.45941
4   -0.452333
5   -0.164685
6   -0.16481
7   0.126939
8   0.126843
9   0.627605
10   0.627683
11   -0.490032
12   -0.490105
13   -0.482711
14   -0.48266
15   0.149823
16   0.153202
17   0.174755
18   0.150785
19   0.159709
20   0.157444
21   0.149771
22   0.153227
23   0.174859
24   0.150832
25   0.159802
26   0.157348
27   0.184752
28   0.1847
29   0.164176
30   0.164221

>  <lowdin_charges>
30
1   -0.453626
2   -0.448366
3   -0.45548
4   -0.447349
5   -0.145323
6   -0.145324
7   0.011613
8   0.012055
9   0.194257
10   0.194358
11   -0.270229
12   -0.270356
13   -0.187267
14   -0.187463
15   0.158741
16   0.155372
17   0.165426
18   0.158651
19   0.159611
20   0.1578
21   0.158771
22   0.155306
23   0.167461
24   0.158472
25   0.159307
26   0.157349
27   0.187048
28   0.187017
29   0.156272
30   0.155896

$$$$

