PCCDB-ID:  70687
public computational chemistry database (PCCDB) project, http://pccdb.org

 30 29  0  0  0  0  0  0  0  0999 V2000
    1.3520    0.1704   -1.7827 C   0  0  0  0  0  0  0  0  0  0  0  0
    7.2045    0.7476    1.4027 C   0  0  0  0  0  0  0  0  0  0  0  0
    5.8738   -5.0074   -0.3874 C   0  0  0  0  0  0  0  0  0  0  0  0
    2.7260   -0.5059   -1.7710 C   0  0  0  0  0  0  0  0  0  0  0  0
    6.0185   -0.2160    1.2974 C   0  0  0  0  0  0  0  0  0  0  0  0
    5.9729   -3.4820   -0.4034 C   0  0  0  0  0  0  0  0  0  0  0  0
    3.2038   -0.8247   -0.3479 C   0  0  0  0  0  0  0  0  0  0  0  0
    5.6886   -0.5774   -0.1600 C   0  0  0  0  0  0  0  0  0  0  0  0
    4.5901   -2.8215   -0.4380 C   0  0  0  0  0  0  0  0  0  0  0  0
    4.5286   -1.4538   -0.3090 N   0  0  0  0  0  0  0  0  0  0  0  0
    3.5715   -3.4946   -0.5815 O   0  0  0  0  0  0  0  0  0  0  0  0
    1.0237    0.3829   -2.8060 H   0  0  0  0  0  0  0  0  0  0  0  0
    1.3678    1.1213   -1.2349 H   0  0  0  0  0  0  0  0  0  0  0  0
    0.5927   -0.4689   -1.3164 H   0  0  0  0  0  0  0  0  0  0  0  0
    7.4254    0.9906    2.4475 H   0  0  0  0  0  0  0  0  0  0  0  0
    7.0009    1.6894    0.8784 H   0  0  0  0  0  0  0  0  0  0  0  0
    8.1117    0.3141    0.9639 H   0  0  0  0  0  0  0  0  0  0  0  0
    6.8740   -5.4543   -0.3769 H   0  0  0  0  0  0  0  0  0  0  0  0
    5.3346   -5.3714   -1.2655 H   0  0  0  0  0  0  0  0  0  0  0  0
    5.3282   -5.3550    0.4947 H   0  0  0  0  0  0  0  0  0  0  0  0
    3.4632    0.1392   -2.2693 H   0  0  0  0  0  0  0  0  0  0  0  0
    2.6897   -1.4449   -2.3345 H   0  0  0  0  0  0  0  0  0  0  0  0
    5.1326    0.2294    1.7685 H   0  0  0  0  0  0  0  0  0  0  0  0
    6.2308   -1.1374    1.8548 H   0  0  0  0  0  0  0  0  0  0  0  0
    6.5439   -3.1537   -1.2838 H   0  0  0  0  0  0  0  0  0  0  0  0
    6.5370   -3.1264    0.4682 H   0  0  0  0  0  0  0  0  0  0  0  0
    2.4966   -1.5060    0.1317 H   0  0  0  0  0  0  0  0  0  0  0  0
    3.2483    0.0926    0.2520 H   0  0  0  0  0  0  0  0  0  0  0  0
    6.5604   -1.0395   -0.6315 H   0  0  0  0  0  0  0  0  0  0  0  0
    5.4901    0.3410   -0.7282 H   0  0  0  0  0  0  0  0  0  0  0  0
  1  4  1  0  0  0  0
  1 14  1  0  0  0  0
  1 13  1  0  0  0  0
  2 15  1  0  0  0  0
  3 18  1  0  0  0  0
  3 20  1  0  0  0  0
  4  7  1  0  0  0  0
  5  2  1  0  0  0  0
  5 23  1  0  0  0  0
  5 24  1  0  0  0  0
  6  3  1  0  0  0  0
  6 26  1  0  0  0  0
  7 10  1  0  0  0  0
  7 27  1  0  0  0  0
  7 28  1  0  0  0  0
  8  5  1  0  0  0  0
  9  6  1  0  0  0  0
  9 10  1  0  0  0  0
 10  8  1  0  0  0  0
 11  9  2  0  0  0  0
 12  1  1  0  0  0  0
 16  2  1  0  0  0  0
 17  2  1  0  0  0  0
 19  3  1  0  0  0  0
 21  4  1  0  0  0  0
 22  4  1  0  0  0  0
 25  6  1  0  0  0  0
 29  8  1  0  0  0  0
 30  8  1  0  0  0  0
M  END
>  <HBA>
2

>  <HBD>
0

>  <TPSA>
20.31

>  <cid>
70687

>  <dipole>
3.56

>  <excitation_energy_1>
5.599

>  <excitation_energy_2>
5.669

>  <excitation_energy_3>
6.042

>  <excitation_energy_4>
6.054

>  <homo_energy>
-6.202

>  <homo_lumo_gap>
7.203

>  <logP>
2.045

>  <lumo_energy>
1.001

>  <melting_point>
-4.53

>  <molecular_refractivity>
48.47

>  <oscillator_strength_1>
0.0014

>  <oscillator_strength_2>
0.0038

>  <oscillator_strength_3>
0.0163

>  <oscillator_strength_4>
0.0026

>  <open_babel_can_smiles>
CCCN(C(=O)CC)CCC

>  <mulliken_charges>
30
1   -0.447984
2   -0.448548
3   -0.427563
4   -0.253373
5   -0.253812
6   -0.372706
7   -0.13878
8   -0.147024
9   0.600012
10   -0.422108
11   -0.526974
12   0.147069
13   0.137821
14   0.151665
15   0.152432
16   0.145909
17   0.145591
18   0.131786
19   0.165707
20   0.15844
21   0.126794
22   0.164092
23   0.144658
24   0.144472
25   0.15989
26   0.154582
27   0.175814
28   0.131346
29   0.15291
30   0.14788

>  <lowdin_charges>
30
1   -0.445048
2   -0.444893
3   -0.437418
4   -0.282282
5   -0.284462
6   -0.309593
7   -0.200226
8   -0.202716
9   0.159952
10   -0.10836
11   -0.321292
12   0.152181
13   0.14403
14   0.15267
15   0.15479
16   0.148651
17   0.148744
18   0.145136
19   0.162267
20   0.158405
21   0.137775
22   0.156882
23   0.146475
24   0.145147
25   0.158347
26   0.155057
27   0.167745
28   0.140304
29   0.153795
30   0.147935

$$$$

