PCCDB-ID:  27831
public computational chemistry database (PCCDB) project, http://pccdb.org

 20 21  0  0  0  0  0  0  0  0999 V2000
    2.3899    1.1279   -0.1202 C   0  0  0  0  0  0  0  0  0  0  0  0
    1.4797   -4.4230    0.4111 C   0  0  0  0  0  0  0  0  0  0  0  0
    2.1675   -5.2755   -0.4842 C   0  0  0  0  0  0  0  0  0  0  0  0
    1.6524   -3.0557    0.3423 C   0  0  0  0  0  0  0  0  0  0  0  0
    3.0202   -4.7598   -1.4383 C   0  0  0  0  0  0  0  0  0  0  0  0
    4.1988   -1.5575   -2.5134 C   0  0  0  0  0  0  0  0  0  0  0  0
    2.5228   -2.5101   -0.6282 C   0  0  0  0  0  0  0  0  0  0  0  0
    3.2180   -3.3608   -1.5328 C   0  0  0  0  0  0  0  0  0  0  0  0
    2.7804   -1.1104   -0.7946 C   0  0  0  0  0  0  0  0  0  0  0  0
    4.0686   -2.8611   -2.4868 N   0  0  0  0  0  0  0  0  0  0  0  0
    3.5946   -0.6372   -1.7101 N   0  0  0  0  0  0  0  0  0  0  0  0
    2.1417   -0.2764    0.0402 O   0  0  0  0  0  0  0  0  0  0  0  0
    1.7847    1.6132    0.6465 H   0  0  0  0  0  0  0  0  0  0  0  0
    2.0908    1.4619   -1.1173 H   0  0  0  0  0  0  0  0  0  0  0  0
    3.4499    1.3524    0.0247 H   0  0  0  0  0  0  0  0  0  0  0  0
    0.8124   -4.8502    1.1542 H   0  0  0  0  0  0  0  0  0  0  0  0
    2.0191   -6.3500   -0.4169 H   0  0  0  0  0  0  0  0  0  0  0  0
    1.1314   -2.3894    1.0215 H   0  0  0  0  0  0  0  0  0  0  0  0
    3.5564   -5.3967   -2.1344 H   0  0  0  0  0  0  0  0  0  0  0  0
    4.8689   -1.1420   -3.2640 H   0  0  0  0  0  0  0  0  0  0  0  0
  1 15  1  0  0  0  0
  1 12  1  0  0  0  0
  1 13  1  0  0  0  0
  2 16  1  0  0  0  0
  3 17  1  0  0  0  0
  3  2  2  0  0  0  0
  4  2  1  0  0  0  0
  4 18  1  0  0  0  0
  5  3  1  0  0  0  0
  6 10  2  0  0  0  0
  6 11  1  0  0  0  0
  7  4  2  0  0  0  0
  8  5  2  0  0  0  0
  8  7  1  0  0  0  0
  9  7  1  0  0  0  0
  9 12  1  0  0  0  0
 10  8  1  0  0  0  0
 11  9  2  0  0  0  0
 14  1  1  0  0  0  0
 19  5  1  0  0  0  0
 20  6  1  0  0  0  0
M  END
>  <HBA>
3

>  <HBD>
0

>  <TPSA>
35.01

>  <cid>
27831

>  <dipole>
2.31

>  <excitation_energy_1>
4.379

>  <excitation_energy_2>
4.451

>  <excitation_energy_3>
4.742

>  <excitation_energy_4>
4.958

>  <homo_energy>
-6.346

>  <homo_lumo_gap>
4.996

>  <logP>
1.638

>  <lumo_energy>
-1.35

>  <melting_point>
84.77

>  <molecular_refractivity>
46.03

>  <oscillator_strength_1>
0.0012

>  <oscillator_strength_2>
0.0868

>  <oscillator_strength_3>
0.0234

>  <oscillator_strength_4>
0.0001

>  <open_babel_can_smiles>
COc1ncnc2c1cccc2

>  <mulliken_charges>
20
1   -0.208679
2   -0.135213
3   -0.129564
4   -0.177521
5   -0.150032
6   0.162683
7   0.093684
8   0.241541
9   0.526337
10   -0.478681
11   -0.500643
12   -0.484848
13   0.164927
14   0.172759
15   0.173039
16   0.137634
17   0.13944
18   0.155497
19   0.1486
20   0.149039

>  <lowdin_charges>
20
1   -0.271351
2   -0.157669
3   -0.138712
4   -0.142438
5   -0.155308
6   -0.037722
7   -0.0525
8   0.052599
9   0.153072
10   -0.175502
11   -0.210363
12   -0.176733
13   0.161612
14   0.160453
15   0.159579
16   0.163123
17   0.161247
18   0.173329
19   0.173393
20   0.159892

$$$$

