PCCDB-ID:  22769
public computational chemistry database (PCCDB) project, http://pccdb.org

 30 30  0  0  0  0  0  0  0  0999 V2000
    1.1650   -1.0908    1.3803 C   0  0  0  0  0  0  0  0  0  0  0  0
    6.5821   -2.1218   -0.9035 C   0  0  0  0  0  0  0  0  0  0  0  0
    4.7854    2.2856    1.1811 C   0  0  0  0  0  0  0  0  0  0  0  0
    9.0975   -0.5182   -2.3537 C   0  0  0  0  0  0  0  0  0  0  0  0
    2.3424   -0.8761    2.3202 C   0  0  0  0  0  0  0  0  0  0  0  0
    6.3981   -0.6833   -0.5126 C   0  0  0  0  0  0  0  0  0  0  0  0
    5.5454    1.2265    0.4472 C   0  0  0  0  0  0  0  0  0  0  0  0
    8.3937    0.6386   -1.6727 C   0  0  0  0  0  0  0  0  0  0  0  0
    5.3604   -0.1658    0.3300 C   0  0  0  0  0  0  0  0  0  0  0  0
    7.1873    0.4077   -0.8773 C   0  0  0  0  0  0  0  0  0  0  0  0
    4.2969   -0.9609    0.9515 C   0  0  0  0  0  0  0  0  0  0  0  0
    6.6367    1.5320   -0.2802 N   0  0  0  0  0  0  0  0  0  0  0  0
    8.8263    1.7879   -1.7775 O   0  0  0  0  0  0  0  0  0  0  0  0
    4.1759   -2.1718    0.8681 O   0  0  0  0  0  0  0  0  0  0  0  0
    3.4286   -0.1860    1.6619 O   0  0  0  0  0  0  0  0  0  0  0  0
    0.3299   -1.5449    1.9264 H   0  0  0  0  0  0  0  0  0  0  0  0
    1.4450   -1.7600    0.5622 H   0  0  0  0  0  0  0  0  0  0  0  0
    0.8232   -0.1394    0.9591 H   0  0  0  0  0  0  0  0  0  0  0  0
    5.6248   -2.6431   -0.8943 H   0  0  0  0  0  0  0  0  0  0  0  0
    7.2303   -2.6460   -0.1881 H   0  0  0  0  0  0  0  0  0  0  0  0
    7.0352   -2.2200   -1.8928 H   0  0  0  0  0  0  0  0  0  0  0  0
    4.7369    2.0671    2.2520 H   0  0  0  0  0  0  0  0  0  0  0  0
    3.7520    2.3488    0.8266 H   0  0  0  0  0  0  0  0  0  0  0  0
    5.2615    3.2623    1.0449 H   0  0  0  0  0  0  0  0  0  0  0  0
    9.3038   -1.3351   -1.6544 H   0  0  0  0  0  0  0  0  0  0  0  0
   10.0335   -0.1503   -2.7789 H   0  0  0  0  0  0  0  0  0  0  0  0
    8.4769   -0.9265   -3.1609 H   0  0  0  0  0  0  0  0  0  0  0  0
    2.7131   -1.8269    2.7102 H   0  0  0  0  0  0  0  0  0  0  0  0
    2.0731   -0.2221    3.1540 H   0  0  0  0  0  0  0  0  0  0  0  0
    7.0577    2.4431   -0.4149 H   0  0  0  0  0  0  0  0  0  0  0  0
  1 16  1  0  0  0  0
  1  5  1  0  0  0  0
  2 19  1  0  0  0  0
  2  6  1  0  0  0  0
  2 20  1  0  0  0  0
  3 22  1  0  0  0  0
  4  8  1  0  0  0  0
  4 25  1  0  0  0  0
  5 28  1  0  0  0  0
  5 29  1  0  0  0  0
  6  9  1  0  0  0  0
  7  3  1  0  0  0  0
  8 10  1  0  0  0  0
  9  7  2  0  0  0  0
  9 11  1  0  0  0  0
 10  6  2  0  0  0  0
 10 12  1  0  0  0  0
 11 15  1  0  0  0  0
 12  7  1  0  0  0  0
 13  8  2  0  0  0  0
 14 11  2  0  0  0  0
 15  5  1  0  0  0  0
 17  1  1  0  0  0  0
 18  1  1  0  0  0  0
 21  2  1  0  0  0  0
 23  3  1  0  0  0  0
 24  3  1  0  0  0  0
 26  4  1  0  0  0  0
 27  4  1  0  0  0  0
 30 12  1  0  0  0  0
M  END
>  <HBA>
3

>  <HBD>
1

>  <TPSA>
59.16

>  <cid>
22769

>  <dipole>
2.11

>  <excitation_energy_1>
4.163

>  <excitation_energy_2>
4.622

>  <excitation_energy_3>
4.951

>  <excitation_energy_4>
5.219

>  <homo_energy>
-6.055

>  <homo_lumo_gap>
4.993

>  <logP>
2.011

>  <lumo_energy>
-1.061

>  <melting_point>
121.45

>  <molecular_refractivity>
57.01

>  <oscillator_strength_1>
0.0003

>  <oscillator_strength_2>
0.3422

>  <oscillator_strength_3>
0.0549

>  <oscillator_strength_4>
0.0178

>  <open_babel_can_smiles>
CCOC(=O)c1c(C)[nH]c(c1C)C(=O)C

>  <mulliken_charges>
30
1   -0.461068
2   -0.5346
3   -0.505818
4   -0.540212
5   -0.037759
6   0.076845
7   0.360215
8   0.411518
9   -0.077831
10   0.190064
11   0.590761
12   -0.66153
13   -0.504871
14   -0.514868
15   -0.49363
16   0.148311
17   0.177761
18   0.152433
19   0.198765
20   0.166265
21   0.149584
22   0.184655
23   0.184215
24   0.149041
25   0.173177
26   0.17904
27   0.175939
28   0.170314
29   0.146706
30   0.34658

>  <lowdin_charges>
30
1   -0.457218
2   -0.448698
3   -0.439001
4   -0.470422
5   -0.129825
6   0.006479
7   0.061897
8   0.152597
9   -0.115869
10   -0.061913
11   0.197776
12   -0.140184
13   -0.286918
14   -0.285731
15   -0.201904
16   0.158566
17   0.16687
18   0.153659
19   0.182988
20   0.16709
21   0.155397
22   0.174596
23   0.174784
24   0.15647
25   0.171122
26   0.174175
27   0.173062
28   0.15908
29   0.149897
30   0.301177

$$$$

