PCCDB-ID:  7409
public computational chemistry database (PCCDB) project, http://pccdb.org

 19 19  0  0  1  0  0  0  0  0999 V2000
    3.7570   -0.0292    0.7753 C   0  0  0  0  0  0  0  0  0  0  0  0
    3.7536    0.6333   -4.2456 C   0  0  0  0  0  0  0  0  0  0  0  0
    3.6388   -0.6757   -3.7744 C   0  0  0  0  0  0  0  0  0  0  0  0
    3.4514    1.6999   -3.3968 C   0  0  0  0  0  0  0  0  0  0  0  0
    3.2321   -0.9197   -2.4617 C   0  0  0  0  0  0  0  0  0  0  0  0
    3.0396    1.4542   -2.0868 C   0  0  0  0  0  0  0  0  0  0  0  0
    2.5394   -0.0995   -0.1586 C   0  0  1  0  0  0  0  0  0  0  0  0
    2.9317    0.1446   -1.6042 C   0  0  0  0  0  0  0  0  0  0  0  0
    1.9102   -1.3788   -0.0756 O   0  0  0  0  0  0  0  0  0  0  0  0
    4.2460    0.9488    0.7130 H   0  0  0  0  0  0  0  0  0  0  0  0
    4.4857   -0.7994    0.5012 H   0  0  0  0  0  0  0  0  0  0  0  0
    3.4561   -0.1878    1.8200 H   0  0  0  0  0  0  0  0  0  0  0  0
    4.0710    0.8213   -5.2679 H   0  0  0  0  0  0  0  0  0  0  0  0
    3.8652   -1.5116   -4.4316 H   0  0  0  0  0  0  0  0  0  0  0  0
    3.5276    2.7229   -3.7564 H   0  0  0  0  0  0  0  0  0  0  0  0
    3.1297   -1.9357   -2.0956 H   0  0  0  0  0  0  0  0  0  0  0  0
    2.7956    2.2897   -1.4332 H   0  0  0  0  0  0  0  0  0  0  0  0
    1.8255    0.6861    0.1411 H   0  0  0  0  0  0  0  0  0  0  0  0
    1.7773   -1.5750    0.8645 H   0  0  0  0  0  0  0  0  0  0  0  0
  1 12  1  0  0  0  0
  2  3  2  0  0  0  0
  2  4  1  0  0  0  0
  3  5  1  0  0  0  0
  4  6  2  0  0  0  0
  5 16  1  0  0  0  0
  5  8  2  0  0  0  0
  6  8  1  0  0  0  0
  6 17  1  0  0  0  0
  7  9  1  0  0  0  0
  7 18  1  1  0  0  0
  7  1  1  0  0  0  0
  8  7  1  0  0  0  0
  9 19  1  0  0  0  0
 10  1  1  0  0  0  0
 11  1  1  0  0  0  0
 13  2  1  0  0  0  0
 14  3  1  0  0  0  0
 15  4  1  0  0  0  0
M  END
>  <HBA>
1

>  <HBD>
1

>  <TPSA>
20.23

>  <cid>
7409

>  <dipole>
1.67

>  <excitation_energy_1>
5.307

>  <excitation_energy_2>
5.814

>  <excitation_energy_3>
5.912

>  <excitation_energy_4>
6.084

>  <homo_energy>
-6.4

>  <homo_lumo_gap>
6.523

>  <logP>
1.74

>  <lumo_energy>
0.122

>  <melting_point>
25.1

>  <molecular_refractivity>
37.38

>  <oscillator_strength_1>
0.0004

>  <oscillator_strength_2>
0.0349

>  <oscillator_strength_3>
0.0146

>  <oscillator_strength_4>
0.0013

>  <open_babel_can_smiles>
C[C@@H](c1ccccc1)O

>  <mulliken_charges>
19
1   -0.459613
2   -0.128218
3   -0.132255
4   -0.130918
5   -0.167836
6   -0.180732
7   0.081758
8   0.141556
9   -0.62864
10   0.152971
11   0.161708
12   0.1321
13   0.126073
14   0.127467
15   0.126409
16   0.148441
17   0.118831
18   0.120091
19   0.390806

>  <lowdin_charges>
19
1   -0.457619
2   -0.158992
3   -0.156403
4   -0.155893
5   -0.157002
6   -0.16984
7   0.00466
8   -0.009074
9   -0.459529
10   0.158066
11   0.159514
12   0.141699
13   0.154932
14   0.157268
15   0.155149
16   0.167265
17   0.15315
18   0.131114
19   0.341536

$$$$

