PCCDB-ID:  23242
public computational chemistry database (PCCDB) project, http://pccdb.org

 30 30  0  0  0  0  0  0  0  0999 V2000
    1.5130    2.5544   -2.1136 C   0  0  0  0  0  0  0  0  0  0  0  0
    5.0461   -7.2188   -2.2655 C   0  0  0  0  0  0  0  0  0  0  0  0
    1.4706    1.7623   -0.8156 C   0  0  0  0  0  0  0  0  0  0  0  0
    4.0955   -4.8931   -1.8967 C   0  0  0  0  0  0  0  0  0  0  0  0
    6.3714   -5.3072   -1.2595 C   0  0  0  0  0  0  0  0  0  0  0  0
    4.2021   -3.5664   -1.4881 C   0  0  0  0  0  0  0  0  0  0  0  0
    6.5013   -3.9856   -0.8441 C   0  0  0  0  0  0  0  0  0  0  0  0
    6.0866    0.7379    0.3379 C   0  0  0  0  0  0  0  0  0  0  0  0
    5.1693   -5.7886   -1.7961 C   0  0  0  0  0  0  0  0  0  0  0  0
    5.4138   -3.1118   -0.9585 C   0  0  0  0  0  0  0  0  0  0  0  0
    4.8138    0.3254   -0.1773 C   0  0  0  0  0  0  0  0  0  0  0  0
    3.7293    1.3351   -0.2358 C   0  0  0  0  0  0  0  0  0  0  0  0
    7.1741    0.8992    0.7244 N   0  0  0  0  0  0  0  0  0  0  0  0
    5.5820   -1.7817   -0.5270 N   0  0  0  0  0  0  0  0  0  0  0  0
    4.6141   -0.9040   -0.5843 N   0  0  0  0  0  0  0  0  0  0  0  0
    3.8968    2.4816    0.1338 O   0  0  0  0  0  0  0  0  0  0  0  0
    2.5821    0.8360   -0.7268 O   0  0  0  0  0  0  0  0  0  0  0  0
    0.6209    3.1867   -2.1902 H   0  0  0  0  0  0  0  0  0  0  0  0
    1.5356    1.8840   -2.9788 H   0  0  0  0  0  0  0  0  0  0  0  0
    2.3947    3.2008   -2.1421 H   0  0  0  0  0  0  0  0  0  0  0  0
    3.9988   -7.5039   -2.4068 H   0  0  0  0  0  0  0  0  0  0  0  0
    5.4910   -7.9173   -1.5475 H   0  0  0  0  0  0  0  0  0  0  0  0
    5.5601   -7.3712   -3.2238 H   0  0  0  0  0  0  0  0  0  0  0  0
    0.5870    1.1219   -0.7639 H   0  0  0  0  0  0  0  0  0  0  0  0
    1.4937    2.4240    0.0535 H   0  0  0  0  0  0  0  0  0  0  0  0
    3.1496   -5.2407   -2.3051 H   0  0  0  0  0  0  0  0  0  0  0  0
    7.2227   -5.9766   -1.1622 H   0  0  0  0  0  0  0  0  0  0  0  0
    3.3636   -2.8846   -1.5694 H   0  0  0  0  0  0  0  0  0  0  0  0
    7.4430   -3.6341   -0.4281 H   0  0  0  0  0  0  0  0  0  0  0  0
    6.4960   -1.5060   -0.1598 H   0  0  0  0  0  0  0  0  0  0  0  0
  1  3  1  0  0  0  0
  2  9  1  0  0  0  0
  2 22  1  0  0  0  0
  3 24  1  0  0  0  0
  3 17  1  0  0  0  0
  3 25  1  0  0  0  0
  4  9  2  0  0  0  0
  4  6  1  0  0  0  0
  5 27  1  0  0  0  0
  5  7  2  0  0  0  0
  6 10  2  0  0  0  0
  7 29  1  0  0  0  0
  8 13  3  0  0  0  0
  9  5  1  0  0  0  0
 10  7  1  0  0  0  0
 10 14  1  0  0  0  0
 11  8  1  0  0  0  0
 12 11  1  0  0  0  0
 12 16  2  0  0  0  0
 14 30  1  0  0  0  0
 15 14  1  0  0  0  0
 15 11  2  0  0  0  0
 17 12  1  0  0  0  0
 18  1  1  0  0  0  0
 19  1  1  0  0  0  0
 20  1  1  0  0  0  0
 21  2  1  0  0  0  0
 23  2  1  0  0  0  0
 26  4  1  0  0  0  0
 28  6  1  0  0  0  0
M  END
>  <HBA>
5

>  <HBD>
1

>  <TPSA>
74.48

>  <cid>
23242

>  <dipole>
5.63

>  <excitation_energy_1>
3.505

>  <excitation_energy_2>
4.264

>  <excitation_energy_3>
4.364

>  <excitation_energy_4>
4.918

>  <homo_energy>
-6.063

>  <homo_lumo_gap>
3.831

>  <logP>
1.923

>  <lumo_energy>
-2.231

>  <melting_point>
104.26

>  <molecular_refractivity>
64.66

>  <oscillator_strength_1>
0.5882

>  <oscillator_strength_2>
0.0086

>  <oscillator_strength_3>
0.0004

>  <oscillator_strength_4>
0.108

>  <open_babel_can_smiles>
CCOC(=O)/C(=N/Nc1ccc(cc1)C)/C#N

>  <mulliken_charges>
30
1   -0.463187
2   -0.532281
3   -0.044746
4   -0.194145
5   -0.186926
6   -0.154117
7   -0.183372
8   0.334003
9   0.185159
10   0.372619
11   0.168158
12   0.64458
13   -0.48434
14   -0.51747
15   -0.223959
16   -0.490149
17   -0.46426
18   0.151989
19   0.159056
20   0.179204
21   0.159491
22   0.163155
23   0.169068
24   0.155426
25   0.174473
26   0.133582
27   0.133751
28   0.169604
29   0.140447
30   0.345185

>  <lowdin_charges>
30
1   -0.455694
2   -0.441827
3   -0.125705
4   -0.152252
5   -0.154158
6   -0.170569
7   -0.179567
8   -0.018117
9   -0.002087
10   0.04475
11   -0.066058
12   0.190156
13   -0.113439
14   -0.12676
15   -0.018491
16   -0.263687
17   -0.178959
18   0.160176
19   0.15751
20   0.167142
21   0.158303
22   0.162685
23   0.163646
24   0.154448
25   0.161208
26   0.160381
27   0.161557
28   0.180224
29   0.162663
30   0.282518

$$$$

