PCCDB-ID:  20311
public computational chemistry database (PCCDB) project, http://pccdb.org

 31 31  0  0  0  0  0  0  0  0999 V2000
    2.9417    1.0558    3.6994 C   0  0  0  0  0  0  0  0  0  0  0  0
    2.9067    1.6344   -3.3341 C   0  0  0  0  0  0  0  0  0  0  0  0
    5.7612    0.2036   -4.5214 C   0  0  0  0  0  0  0  0  0  0  0  0
    5.4636   -2.1651   -2.0720 C   0  0  0  0  0  0  0  0  0  0  0  0
    5.2430    1.2022   -0.5213 C   0  0  0  0  0  0  0  0  0  0  0  0
    3.2428   -0.1248   -0.3510 C   0  0  0  0  0  0  0  0  0  0  0  0
    5.1153    1.5678    0.8139 C   0  0  0  0  0  0  0  0  0  0  0  0
    3.1018    0.2334    0.9903 C   0  0  0  0  0  0  0  0  0  0  0  0
    4.3079    0.3495   -1.1213 C   0  0  0  0  0  0  0  0  0  0  0  0
    4.0445    1.0864    1.5797 C   0  0  0  0  0  0  0  0  0  0  0  0
    4.3895   -0.0874   -2.5820 C   0  0  0  0  0  0  0  0  0  0  0  0
    4.0087    1.5034    2.8791 O   0  0  0  0  0  0  0  0  0  0  0  0
    3.2314    0.2493   -3.3080 O   0  0  0  0  0  0  0  0  0  0  0  0
    5.5433    0.4946   -3.1404 O   0  0  0  0  0  0  0  0  0  0  0  0
    4.3924   -1.4888   -2.7199 O   0  0  0  0  0  0  0  0  0  0  0  0
    3.1058    1.5095    4.6786 H   0  0  0  0  0  0  0  0  0  0  0  0
    2.9413   -0.0375    3.8023 H   0  0  0  0  0  0  0  0  0  0  0  0
    1.9679    1.3798    3.3085 H   0  0  0  0  0  0  0  0  0  0  0  0
    2.0665    1.7289   -4.0258 H   0  0  0  0  0  0  0  0  0  0  0  0
    3.7454    2.2423   -3.6947 H   0  0  0  0  0  0  0  0  0  0  0  0
    2.6050    1.9992   -2.3447 H   0  0  0  0  0  0  0  0  0  0  0  0
    6.7267    0.6498   -4.7701 H   0  0  0  0  0  0  0  0  0  0  0  0
    4.9795    0.6408   -5.1516 H   0  0  0  0  0  0  0  0  0  0  0  0
    5.7930   -0.8756   -4.7018 H   0  0  0  0  0  0  0  0  0  0  0  0
    5.4093   -2.0607   -0.9815 H   0  0  0  0  0  0  0  0  0  0  0  0
    6.4402   -1.8018   -2.4139 H   0  0  0  0  0  0  0  0  0  0  0  0
    5.3538   -3.2184   -2.3401 H   0  0  0  0  0  0  0  0  0  0  0  0
    6.0740    1.5773   -1.1076 H   0  0  0  0  0  0  0  0  0  0  0  0
    2.5141   -0.7869   -0.8099 H   0  0  0  0  0  0  0  0  0  0  0  0
    5.8357    2.2275    1.2876 H   0  0  0  0  0  0  0  0  0  0  0  0
    2.2644   -0.1542    1.5595 H   0  0  0  0  0  0  0  0  0  0  0  0
  1 17  1  0  0  0  0
  1 16  1  0  0  0  0
  2 13  1  0  0  0  0
  2 21  1  0  0  0  0
  3 14  1  0  0  0  0
  4 25  1  0  0  0  0
  5  7  1  0  0  0  0
  6  8  2  0  0  0  0
  7 30  1  0  0  0  0
  7 10  2  0  0  0  0
  8 31  1  0  0  0  0
  8 10  1  0  0  0  0
  9  5  2  0  0  0  0
  9  6  1  0  0  0  0
 10 12  1  0  0  0  0
 11  9  1  0  0  0  0
 12  1  1  0  0  0  0
 13 11  1  0  0  0  0
 14 11  1  0  0  0  0
 15 11  1  0  0  0  0
 15  4  1  0  0  0  0
 18  1  1  0  0  0  0
 19  2  1  0  0  0  0
 20  2  1  0  0  0  0
 22  3  1  0  0  0  0
 23  3  1  0  0  0  0
 24  3  1  0  0  0  0
 26  4  1  0  0  0  0
 27  4  1  0  0  0  0
 28  5  1  0  0  0  0
 29  6  1  0  0  0  0
M  END
>  <HBA>
4

>  <HBD>
0

>  <TPSA>
36.92

>  <cid>
20311

>  <dipole>
1.19

>  <excitation_energy_1>
5.005

>  <excitation_energy_2>
5.508

>  <excitation_energy_3>
5.537

>  <excitation_energy_4>
5.892

>  <homo_energy>
-5.894

>  <homo_lumo_gap>
5.894

>  <logP>
1.745

>  <lumo_energy>
0.0

>  <melting_point>
-8.64

>  <molecular_refractivity>
55.46

>  <oscillator_strength_1>
0.0218

>  <oscillator_strength_2>
0.0068

>  <oscillator_strength_3>
0.1606

>  <oscillator_strength_4>
0.001

>  <open_babel_can_smiles>
COc1ccc(cc1)C(OC)(OC)OC

>  <mulliken_charges>
31
1   -0.214652
2   -0.216102
3   -0.213771
4   -0.215842
5   -0.163868
6   -0.167915
7   -0.18147
8   -0.20487
9   0.027934
10   0.381418
11   0.761448
12   -0.506733
13   -0.495821
14   -0.518808
15   -0.495432
16   0.169892
17   0.152249
18   0.152289
19   0.157626
20   0.147456
21   0.15138
22   0.153322
23   0.152676
24   0.157514
25   0.151279
26   0.147214
27   0.157566
28   0.152034
29   0.152578
30   0.137161
31   0.132249

>  <lowdin_charges>
31
1   -0.274894
2   -0.286803
3   -0.282518
4   -0.282393
5   -0.148036
6   -0.141084
7   -0.186474
8   -0.216859
9   -0.059593
10   0.104994
11   0.275384
12   -0.198642
13   -0.2485
14   -0.261401
15   -0.248659
16   0.162343
17   0.142976
18   0.14489
19   0.15673
20   0.143154
21   0.144625
22   0.153579
23   0.147257
24   0.147196
25   0.142577
26   0.141331
27   0.154629
28   0.172206
29   0.171365
30   0.167326
31   0.163297

$$$$

