PCCDB-ID:  36574
public computational chemistry database (PCCDB) project, http://pccdb.org

 32 32  0  0  1  0  0  0  0  0999 V2000
    1.2512   -0.5354   -0.5496 C   0  0  0  0  0  0  0  0  0  0  0  0
    2.2619    1.7516   -0.3629 C   0  0  0  0  0  0  0  0  0  0  0  0
    6.2926   -1.6659    2.4579 C   0  0  0  0  0  0  0  0  0  0  0  0
    4.2839    0.6952    1.6507 C   0  0  0  0  0  0  0  0  0  0  0  0
    4.8014    0.3270    3.0509 C   0  0  0  0  0  0  0  0  0  0  0  0
    3.2572   -1.6002    1.4583 C   0  0  0  0  0  0  0  0  0  0  0  0
    2.5200    0.2469   -0.1666 C   0  0  0  0  0  0  0  0  0  0  0  0
    3.0107   -0.0885    1.2684 C   0  0  2  0  0  0  0  0  0  0  0  0
    3.7881   -1.9672    2.8467 C   0  0  1  0  0  0  0  0  0  0  0  0
    5.0608   -1.1777    3.2282 C   0  0  1  0  0  0  0  0  0  0  0  0
    2.7534   -1.7023    3.7881 O   0  0  0  0  0  0  0  0  0  0  0  0
    5.2480   -1.4826    4.6299 O   0  0  0  0  0  0  0  0  0  0  0  0
    0.9021   -0.2361   -1.5447 H   0  0  0  0  0  0  0  0  0  0  0  0
    0.4389   -0.3351    0.1613 H   0  0  0  0  0  0  0  0  0  0  0  0
    1.4148   -1.6169   -0.5731 H   0  0  0  0  0  0  0  0  0  0  0  0
    1.8696    1.9454   -1.3680 H   0  0  0  0  0  0  0  0  0  0  0  0
    3.1678    2.3544   -0.2458 H   0  0  0  0  0  0  0  0  0  0  0  0
    1.5188    2.1189    0.3575 H   0  0  0  0  0  0  0  0  0  0  0  0
    6.2072   -1.4962    1.3801 H   0  0  0  0  0  0  0  0  0  0  0  0
    6.4438   -2.7366    2.6298 H   0  0  0  0  0  0  0  0  0  0  0  0
    7.1896   -1.1378    2.8054 H   0  0  0  0  0  0  0  0  0  0  0  0
    5.0655    0.5098    0.8983 H   0  0  0  0  0  0  0  0  0  0  0  0
    4.0898    1.7727    1.6283 H   0  0  0  0  0  0  0  0  0  0  0  0
    4.0541    0.6206    3.7977 H   0  0  0  0  0  0  0  0  0  0  0  0
    5.7218    0.8880    3.2712 H   0  0  0  0  0  0  0  0  0  0  0  0
    3.9624   -1.9612    0.6959 H   0  0  0  0  0  0  0  0  0  0  0  0
    2.3286   -2.1614    1.3177 H   0  0  0  0  0  0  0  0  0  0  0  0
    3.3202   -0.0484   -0.8650 H   0  0  0  0  0  0  0  0  0  0  0  0
    2.2149    0.2023    1.9701 H   0  0  0  0  0  0  0  0  0  0  0  0
    4.0389   -3.0418    2.8651 H   0  0  0  0  0  0  0  0  0  0  0  0
    3.1970   -1.7125    4.6549 H   0  0  0  0  0  0  0  0  0  0  0  0
    5.8808   -0.8416    4.9902 H   0  0  0  0  0  0  0  0  0  0  0  0
  1  7  1  0  0  0  0
  1 14  1  0  0  0  0
  2 17  1  0  0  0  0
  2  7  1  0  0  0  0
  2 18  1  0  0  0  0
  3 20  1  0  0  0  0
  3 21  1  0  0  0  0
  3 10  1  0  0  0  0
  4  5  1  0  0  0  0
  5 10  1  0  0  0  0
  5 25  1  0  0  0  0
  5 24  1  0  0  0  0
  6  9  1  0  0  0  0
  7  8  1  0  0  0  0
  8  6  1  0  0  0  0
  8  4  1  0  0  0  0
  8 29  1  1  0  0  0
  9 30  1  1  0  0  0
  9 10  1  0  0  0  0
  9 11  1  0  0  0  0
 10 12  1  1  0  0  0
 11 31  1  0  0  0  0
 12 32  1  0  0  0  0
 13  1  1  0  0  0  0
 15  1  1  0  0  0  0
 16  2  1  0  0  0  0
 19  3  1  0  0  0  0
 22  4  1  0  0  0  0
 23  4  1  0  0  0  0
 26  6  1  0  0  0  0
 27  6  1  0  0  0  0
 28  7  1  0  0  0  0
M  END
>  <HBA>
2

>  <HBD>
2

>  <TPSA>
40.46

>  <cid>
36574

>  <dipole>
2.42

>  <excitation_energy_1>
6.242

>  <excitation_energy_2>
6.638

>  <excitation_energy_3>
6.734

>  <excitation_energy_4>
6.908

>  <homo_energy>
-6.787

>  <homo_lumo_gap>
8.498

>  <logP>
1.554

>  <lumo_energy>
1.712

>  <melting_point>
41.62

>  <molecular_refractivity>
50.43

>  <oscillator_strength_1>
0.007

>  <oscillator_strength_2>
0.0122

>  <oscillator_strength_3>
0.0094

>  <oscillator_strength_4>
0.0049

>  <open_babel_can_smiles>
CC([C@@H]1CC[C@@]([C@H](C1)O)(C)O)C

>  <mulliken_charges>
32
1   -0.451584
2   -0.451775
3   -0.462569
4   -0.283899
5   -0.293456
6   -0.292605
7   -0.066159
8   -0.0654
9   0.144807
10   0.290185
11   -0.652593
12   -0.670519
13   0.137318
14   0.14335
15   0.146103
16   0.138869
17   0.14343
18   0.139865
19   0.150031
20   0.157014
21   0.133261
22   0.125749
23   0.139247
24   0.14858
25   0.115189
26   0.124925
27   0.154618
28   0.111902
29   0.136725
30   0.109855
31   0.406862
32   0.392675

>  <lowdin_charges>
32
1   -0.445103
2   -0.448423
3   -0.453715
4   -0.278439
5   -0.296569
6   -0.288648
7   -0.120903
8   -0.130068
9   -0.006261
10   0.099254
11   -0.471002
12   -0.4706
13   0.146846
14   0.148689
15   0.147542
16   0.147467
17   0.148003
18   0.147224
19   0.151987
20   0.156697
21   0.147951
22   0.136736
23   0.146828
24   0.153189
25   0.136611
26   0.142034
27   0.158264
28   0.131559
29   0.146094
30   0.125703
31   0.345175
32   0.345879

$$$$

