PCCDB-ID:  8108
public computational chemistry database (PCCDB) project, http://pccdb.org

 19 18  0  0  0  0  0  0  0  0999 V2000
    1.0422    0.4729   -0.6406 C   0  0  0  0  0  0  0  0  0  0  0  0
    6.9203   -1.7045    1.8577 C   0  0  0  0  0  0  0  0  0  0  0  0
    2.5429    0.2743   -0.4041 C   0  0  0  0  0  0  0  0  0  0  0  0
    5.7746   -2.1722    2.3644 C   0  0  0  0  0  0  0  0  0  0  0  0
    2.8406   -0.7308    0.7162 C   0  0  0  0  0  0  0  0  0  0  0  0
    4.3327   -0.9140    0.9547 C   0  0  0  0  0  0  0  0  0  0  0  0
    4.5025   -1.8643    2.0058 O   0  0  0  0  0  0  0  0  0  0  0  0
    0.8583    1.1903   -1.4481 H   0  0  0  0  0  0  0  0  0  0  0  0
    0.5459    0.8506    0.2614 H   0  0  0  0  0  0  0  0  0  0  0  0
    0.5565   -0.4711   -0.9156 H   0  0  0  0  0  0  0  0  0  0  0  0
    7.8587   -2.0617    2.2660 H   0  0  0  0  0  0  0  0  0  0  0  0
    6.9710   -0.9798    1.0537 H   0  0  0  0  0  0  0  0  0  0  0  0
    3.0051    1.2414   -0.1604 H   0  0  0  0  0  0  0  0  0  0  0  0
    3.0173   -0.0650   -1.3358 H   0  0  0  0  0  0  0  0  0  0  0  0
    5.7588   -2.8989    3.1727 H   0  0  0  0  0  0  0  0  0  0  0  0
    2.4001   -1.7063    0.4720 H   0  0  0  0  0  0  0  0  0  0  0  0
    2.3713   -0.3996    1.6519 H   0  0  0  0  0  0  0  0  0  0  0  0
    4.8077    0.0365    1.2400 H   0  0  0  0  0  0  0  0  0  0  0  0
    4.8365   -1.2774    0.0466 H   0  0  0  0  0  0  0  0  0  0  0  0
  1  3  1  0  0  0  0
  1  9  1  0  0  0  0
  2 11  1  0  0  0  0
  2  4  2  0  0  0  0
  3 13  1  0  0  0  0
  3  5  1  0  0  0  0
  4 15  1  0  0  0  0
  5  6  1  0  0  0  0
  5 17  1  0  0  0  0
  6 18  1  0  0  0  0
  6  7  1  0  0  0  0
  7  4  1  0  0  0  0
  8  1  1  0  0  0  0
 10  1  1  0  0  0  0
 12  2  1  0  0  0  0
 14  3  1  0  0  0  0
 16  5  1  0  0  0  0
 19  6  1  0  0  0  0
M  END
>  <HBA>
1

>  <HBD>
0

>  <TPSA>
9.23

>  <cid>
8108

>  <dipole>
1.05

>  <excitation_energy_1>
5.845

>  <excitation_energy_2>
6.072

>  <excitation_energy_3>
6.311

>  <excitation_energy_4>
6.633

>  <homo_energy>
-6.049

>  <homo_lumo_gap>
7.328

>  <logP>
1.947

>  <lumo_energy>
1.279

>  <melting_point>
-56.11

>  <molecular_refractivity>
31.57

>  <oscillator_strength_1>
0.047

>  <oscillator_strength_2>
0.0002

>  <oscillator_strength_3>
0.0011

>  <oscillator_strength_4>
0.0628

>  <open_babel_can_smiles>
CCCCOC=C

>  <mulliken_charges>
19
1   -0.440424
2   -0.402097
3   -0.258282
4   0.158128
5   -0.268598
6   -0.028257
7   -0.452394
8   0.144783
9   0.145246
10   0.145231
11   0.139602
12   0.140023
13   0.134647
14   0.134813
15   0.139763
16   0.146697
17   0.146552
18   0.137338
19   0.137228

>  <lowdin_charges>
19
1   -0.443958
2   -0.431687
3   -0.272479
4   -0.035862
5   -0.27983
6   -0.127941
7   -0.198454
8   0.151609
9   0.14896
10   0.148584
11   0.167575
12   0.160894
13   0.1405
14   0.140981
15   0.157051
16   0.148949
17   0.149287
18   0.137693
19   0.138128

$$$$

