PCCDB-ID:  14510
public computational chemistry database (PCCDB) project, http://pccdb.org

 15 15  0  0  0  0  0  0  0  0999 V2000
   -0.7548    1.1727   -0.0184 C   0  0  0  0  0  0  0  0  0  0  0  0
    1.3875    0.0750    0.0001 C   0  0  0  0  0  0  0  0  0  0  0  0
   -1.3890   -0.0669   -0.0554 C   0  0  0  0  0  0  0  0  0  0  0  0
    0.7532   -1.1626   -0.0371 C   0  0  0  0  0  0  0  0  0  0  0  0
    0.6451    1.2670    0.0100 C   0  0  0  0  0  0  0  0  0  0  0  0
   -0.6439   -1.2508   -0.0655 C   0  0  0  0  0  0  0  0  0  0  0  0
    1.2819    2.5110    0.1084 N   0  0  0  0  0  0  0  0  0  0  0  0
   -1.3892   -2.8807   -0.1162 S   0  0  0  0  0  0  0  0  0  0  0  0
   -1.3551    2.0798   -0.0071 H   0  0  0  0  0  0  0  0  0  0  0  0
    2.4741    0.1193    0.0257 H   0  0  0  0  0  0  0  0  0  0  0  0
   -2.4751   -0.1016   -0.0786 H   0  0  0  0  0  0  0  0  0  0  0  0
    1.3559   -2.0671   -0.0460 H   0  0  0  0  0  0  0  0  0  0  0  0
    0.7468    3.2872   -0.2621 H   0  0  0  0  0  0  0  0  0  0  0  0
    2.2306    2.5257   -0.2465 H   0  0  0  0  0  0  0  0  0  0  0  0
   -2.6731   -2.4687   -0.1355 H   0  0  0  0  0  0  0  0  0  0  0  0
  1  9  1  0  0  0  0
  1  5  2  0  0  0  0
  2  5  1  0  0  0  0
  2 10  1  0  0  0  0
  3  1  1  0  0  0  0
  4  2  2  0  0  0  0
  5  7  1  0  0  0  0
  6  3  2  0  0  0  0
  6  4  1  0  0  0  0
  8  6  1  0  0  0  0
 11  3  1  0  0  0  0
 12  4  1  0  0  0  0
 13  7  1  0  0  0  0
 14  7  1  0  0  0  0
 15  8  1  0  0  0  0
M  END
>  <HBA>
2

>  <HBD>
2

>  <TPSA>
64.82

>  <cid>
14510

>  <dipole>
2.78

>  <excitation_energy_1>
4.238

>  <excitation_energy_2>
4.244

>  <excitation_energy_3>
4.53

>  <excitation_energy_4>
4.955

>  <homo_energy>
-5.138

>  <homo_lumo_gap>
5.116

>  <logP>
2.139

>  <lumo_energy>
-0.022

>  <melting_point>
78.24

>  <molecular_refractivity>
38.1

>  <oscillator_strength_1>
0.0232

>  <oscillator_strength_2>
0.0076

>  <oscillator_strength_3>
0.0127

>  <oscillator_strength_4>
0.2686

>  <open_babel_can_smiles>
Nc1ccc(cc1)S

>  <mulliken_charges>
15
1   -0.158452
2   -0.159024
3   -0.161403
4   -0.164926
5   0.299313
6   -0.064115
7   -0.785911
8   -0.041406
9   0.120468
10   0.121216
11   0.125042
12   0.139
13   0.318756
14   0.319119
15   0.092322

>  <lowdin_charges>
15
1   -0.192894
2   -0.187757
3   -0.160445
4   -0.157053
5   0.053301
6   -0.135546
7   -0.490524
8   -0.023137
9   0.155417
10   0.153309
11   0.154564
12   0.164368
13   0.275631
14   0.273926
15   0.116839

$$$$

