PCCDB-ID:  8916
public computational chemistry database (PCCDB) project, http://pccdb.org

 34 33  0  0  0  0  0  0  0  0999 V2000
   10.4378   -2.9708   -0.0937 C   0  0  0  0  0  0  0  0  0  0  0  0
    9.2326   -3.6611   -0.7459 C   0  0  0  0  0  0  0  0  0  0  0  0
    8.0306   -2.7393   -1.0506 C   0  0  0  0  0  0  0  0  0  0  0  0
    6.9796   -2.5964    0.0661 C   0  0  0  0  0  0  0  0  0  0  0  0
    7.4474   -1.8939    1.3505 C   0  0  0  0  0  0  0  0  0  0  0  0
    6.3176   -1.5827    2.3474 C   0  0  0  0  0  0  0  0  0  0  0  0
    5.6381   -2.8172    2.9568 C   0  0  0  0  0  0  0  0  0  0  0  0
    4.5782   -2.4647    4.0089 C   0  0  0  0  0  0  0  0  0  0  0  0
    3.9039   -3.6926    4.6324 C   0  0  0  0  0  0  0  0  0  0  0  0
    2.8403   -3.3372    5.6731 C   0  0  0  0  0  0  0  0  0  0  0  0
    2.2701   -4.5524    6.2684 N   0  0  0  0  0  0  0  0  0  0  0  0
   11.2557   -3.6822    0.0713 H   0  0  0  0  0  0  0  0  0  0  0  0
   10.1869   -2.5236    0.8731 H   0  0  0  0  0  0  0  0  0  0  0  0
   10.8210   -2.1687   -0.7368 H   0  0  0  0  0  0  0  0  0  0  0  0
    8.8977   -4.4973   -0.1154 H   0  0  0  0  0  0  0  0  0  0  0  0
    9.5717   -4.1154   -1.6864 H   0  0  0  0  0  0  0  0  0  0  0  0
    7.5102   -3.1294   -1.9357 H   0  0  0  0  0  0  0  0  0  0  0  0
    8.3995   -1.7428   -1.3367 H   0  0  0  0  0  0  0  0  0  0  0  0
    6.5950   -3.5963    0.3108 H   0  0  0  0  0  0  0  0  0  0  0  0
    6.1250   -2.0358   -0.3417 H   0  0  0  0  0  0  0  0  0  0  0  0
    7.9436   -0.9512    1.0783 H   0  0  0  0  0  0  0  0  0  0  0  0
    8.2077   -2.5041    1.8569 H   0  0  0  0  0  0  0  0  0  0  0  0
    5.5592   -0.9585    1.8512 H   0  0  0  0  0  0  0  0  0  0  0  0
    6.7276   -0.9694    3.1626 H   0  0  0  0  0  0  0  0  0  0  0  0
    6.4039   -3.4615    3.4145 H   0  0  0  0  0  0  0  0  0  0  0  0
    5.1700   -3.4175    2.1645 H   0  0  0  0  0  0  0  0  0  0  0  0
    3.8138   -1.8202    3.5494 H   0  0  0  0  0  0  0  0  0  0  0  0
    5.0432   -1.8630    4.8041 H   0  0  0  0  0  0  0  0  0  0  0  0
    4.6537   -4.3375    5.1085 H   0  0  0  0  0  0  0  0  0  0  0  0
    3.4400   -4.2960    3.8363 H   0  0  0  0  0  0  0  0  0  0  0  0
    2.0887   -2.6717    5.2068 H   0  0  0  0  0  0  0  0  0  0  0  0
    3.3053   -2.7592    6.4826 H   0  0  0  0  0  0  0  0  0  0  0  0
    1.7525   -5.0663    5.5557 H   0  0  0  0  0  0  0  0  0  0  0  0
    1.5861   -4.2990    6.9801 H   0  0  0  0  0  0  0  0  0  0  0  0
  1 12  1  0  0  0  0
  1 13  1  0  0  0  0
  2 15  1  0  0  0  0
  2  1  1  0  0  0  0
  3  2  1  0  0  0  0
  3  4  1  0  0  0  0
  4 19  1  0  0  0  0
  4  5  1  0  0  0  0
  5 22  1  0  0  0  0
  5  6  1  0  0  0  0
  6  7  1  0  0  0  0
  6 24  1  0  0  0  0
  7 25  1  0  0  0  0
  7  8  1  0  0  0  0
  8  9  1  0  0  0  0
  8 28  1  0  0  0  0
  9 29  1  0  0  0  0
  9 10  1  0  0  0  0
 10 11  1  0  0  0  0
 10 32  1  0  0  0  0
 11 34  1  0  0  0  0
 14  1  1  0  0  0  0
 16  2  1  0  0  0  0
 17  3  1  0  0  0  0
 18  3  1  0  0  0  0
 20  4  1  0  0  0  0
 21  5  1  0  0  0  0
 23  6  1  0  0  0  0
 26  7  1  0  0  0  0
 27  8  1  0  0  0  0
 30  9  1  0  0  0  0
 31 10  1  0  0  0  0
 33 11  1  0  0  0  0
M  END
>  <HBA>
1

>  <HBD>
1

>  <TPSA>
26.02

>  <cid>
8916

>  <dipole>
1.37

>  <excitation_energy_1>
5.563

>  <excitation_energy_2>
6.336

>  <excitation_energy_3>
6.473

>  <excitation_energy_4>
6.646

>  <homo_energy>
-6.207

>  <homo_lumo_gap>
8.523

>  <logP>
3.786

>  <lumo_energy>
2.316

>  <melting_point>
25.03

>  <molecular_refractivity>
52.89

>  <oscillator_strength_1>
0.0133

>  <oscillator_strength_2>
0.0082

>  <oscillator_strength_3>
0.0053

>  <oscillator_strength_4>
0.0196

>  <open_babel_can_smiles>
CCCCCCCCCCN

>  <mulliken_charges>
34
1   -0.446119
2   -0.247323
3   -0.254752
4   -0.255321
5   -0.254804
6   -0.256124
7   -0.253353
8   -0.256028
9   -0.247108
10   -0.133187
11   -0.715789
12   0.139362
13   0.149705
14   0.140269
15   0.130282
16   0.130795
17   0.127346
18   0.126544
19   0.13211
20   0.124241
21   0.125812
22   0.133876
23   0.125097
24   0.126132
25   0.127795
26   0.132361
27   0.125765
28   0.127806
29   0.146064
30   0.12023
31   0.108338
32   0.136624
33   0.289832
34   0.29352

>  <lowdin_charges>
34
1   -0.449432
2   -0.276246
3   -0.277838
4   -0.277244
5   -0.280059
6   -0.277586
7   -0.278424
8   -0.276504
9   -0.280951
10   -0.207468
11   -0.561361
12   0.148365
13   0.148236
14   0.146162
15   0.139754
16   0.141904
17   0.142865
18   0.137125
19   0.137891
20   0.139007
21   0.139652
22   0.140696
23   0.137635
24   0.140642
25   0.139127
26   0.140329
27   0.137862
28   0.138852
29   0.149295
30   0.135394
31   0.115557
32   0.141184
33   0.251397
34   0.254179

$$$$

