PCCDB-ID:  7470
public computational chemistry database (PCCDB) project, http://pccdb.org

 18 18  0  0  0  0  0  0  0  0999 V2000
    1.0384   -0.0528    0.1095 C   0  0  0  0  0  0  0  0  0  0  0  0
    3.2275   -1.2800   -0.2393 C   0  0  0  0  0  0  0  0  0  0  0  0
    3.2814    1.1179   -0.0212 C   0  0  0  0  0  0  0  0  0  0  0  0
    4.6090   -1.3026   -0.4112 C   0  0  0  0  0  0  0  0  0  0  0  0
    4.6611    1.1062   -0.1916 C   0  0  0  0  0  0  0  0  0  0  0  0
    2.5401   -0.0734   -0.0456 C   0  0  0  0  0  0  0  0  0  0  0  0
    5.3371   -0.1056   -0.3885 C   0  0  0  0  0  0  0  0  0  0  0  0
    6.8103   -0.0654   -0.5606 C   0  0  0  0  0  0  0  0  0  0  0  0
    7.3604   -1.2956   -0.7442 O   0  0  0  0  0  0  0  0  0  0  0  0
    7.4892    0.9429   -0.5459 O   0  0  0  0  0  0  0  0  0  0  0  0
    0.6633   -0.9983    0.5142 H   0  0  0  0  0  0  0  0  0  0  0  0
    0.5454    0.1059   -0.8591 H   0  0  0  0  0  0  0  0  0  0  0  0
    0.7147    0.7560    0.7731 H   0  0  0  0  0  0  0  0  0  0  0  0
    2.6713   -2.2143   -0.2548 H   0  0  0  0  0  0  0  0  0  0  0  0
    2.7677    2.0637    0.1342 H   0  0  0  0  0  0  0  0  0  0  0  0
    5.1267   -2.2441   -0.5584 H   0  0  0  0  0  0  0  0  0  0  0  0
    5.2365    2.0260   -0.1713 H   0  0  0  0  0  0  0  0  0  0  0  0
    8.3175   -1.1392   -0.8437 H   0  0  0  0  0  0  0  0  0  0  0  0
  1 11  1  0  0  0  0
  1 13  1  0  0  0  0
  2  6  2  0  0  0  0
  3 15  1  0  0  0  0
  4  7  2  0  0  0  0
  4  2  1  0  0  0  0
  5 17  1  0  0  0  0
  5  3  2  0  0  0  0
  6  3  1  0  0  0  0
  6  1  1  0  0  0  0
  7  5  1  0  0  0  0
  8 10  2  0  0  0  0
  8  7  1  0  0  0  0
  9  8  1  0  0  0  0
 12  1  1  0  0  0  0
 14  2  1  0  0  0  0
 16  4  1  0  0  0  0
 18  9  1  0  0  0  0
M  END
>  <HBA>
2

>  <HBD>
1

>  <TPSA>
37.3

>  <cid>
7470

>  <dipole>
2.33

>  <excitation_energy_1>
4.868

>  <excitation_energy_2>
4.91

>  <excitation_energy_3>
5.203

>  <excitation_energy_4>
6.188

>  <homo_energy>
-6.83

>  <homo_lumo_gap>
5.625

>  <logP>
1.693

>  <lumo_energy>
-1.205

>  <melting_point>
99.48

>  <molecular_refractivity>
38.37

>  <oscillator_strength_1>
0.0165

>  <oscillator_strength_2>
0.0001

>  <oscillator_strength_3>
0.318

>  <oscillator_strength_4>
0.1631

>  <open_babel_can_smiles>
OC(=O)c1ccc(cc1)C

>  <mulliken_charges>
18
1   -0.531362
2   -0.1858
3   -0.186101
4   -0.159178
5   -0.154186
6   0.185866
7   0.068958
8   0.534066
9   -0.584833
10   -0.477179
11   0.161168
12   0.172235
13   0.1628
14   0.129394
15   0.130663
16   0.159338
17   0.163564
18   0.410586

>  <lowdin_charges>
18
1   -0.443501
2   -0.168681
3   -0.167061
4   -0.135783
5   -0.126972
6   0.019934
7   -0.053399
8   0.196014
9   -0.362193
10   -0.276533
11   0.160707
12   0.166296
13   0.162429
14   0.158291
15   0.158879
16   0.173502
17   0.177342
18   0.360731

$$$$

