PCCDB-ID:  19469
public computational chemistry database (PCCDB) project, http://pccdb.org

 12 12  0  0  1  0  0  0  0  0999 V2000
   -0.1287    0.8045    0.0791 C   0  0  0  0  0  0  0  0  0  0  0  0
    0.6752   -0.4367    0.0471 C   0  0  0  0  0  0  0  0  0  0  0  0
   -1.7039   -1.0904   -0.1677 C   0  0  1  0  0  0  0  0  0  0  0  0
   -2.6880   -1.7355    0.3074 N   0  0  0  0  0  0  0  0  0  0  0  0
   -0.6974   -0.4590    0.6057 N   0  0  0  0  0  0  0  0  0  0  0  0
   -1.5568   -0.9661   -1.5160 O   0  0  0  0  0  0  0  0  0  0  0  0
   -0.5177    1.1734   -0.8656 H   0  0  0  0  0  0  0  0  0  0  0  0
    0.0476    1.5561    0.8442 H   0  0  0  0  0  0  0  0  0  0  0  0
    1.4510   -0.6101    0.7883 H   0  0  0  0  0  0  0  0  0  0  0  0
    0.8306   -0.9082   -0.9191 H   0  0  0  0  0  0  0  0  0  0  0  0
   -2.6377   -1.7250    1.3266 H   0  0  0  0  0  0  0  0  0  0  0  0
   -2.3110   -1.4440   -1.9048 H   0  0  0  0  0  0  0  0  0  0  0  0
  1  5  1  0  0  0  0
  1  8  1  0  0  0  0
  2  1  1  0  0  0  0
  2  5  1  0  0  0  0
  2  9  1  0  0  0  0
  3  6  1  6  0  0  0
  3  4  1  0  0  0  0
  3  5  1  0  0  0  0
  4 11  1  0  0  0  0
  7  1  1  0  0  0  0
 10  2  1  0  0  0  0
 12  6  1  0  0  0  0
M  RAD  2   3   2   4   2
M  END
>  <HBA>
3

>  <HBD>
1

>  <TPSA>
46.1

>  <cid>
19469

>  <dipole>
1.93

>  <excitation_energy_1>
6.161

>  <excitation_energy_2>
6.547

>  <excitation_energy_3>
6.679

>  <excitation_energy_4>
6.826

>  <homo_energy>
-7.002

>  <homo_lumo_gap>
7.709

>  <logP>
0.019

>  <lumo_energy>
0.708

>  <melting_point>
72.69

>  <molecular_refractivity>
24.53

>  <oscillator_strength_1>
0.0002

>  <oscillator_strength_2>
0.0074

>  <oscillator_strength_3>
0.0061

>  <oscillator_strength_4>
0.0026

>  <open_babel_can_smiles>
[NH][C](N1CC1)O

>  <mulliken_charges>
12
1   -0.196653
2   -0.196534
3   0.600602
4   -0.622782
5   -0.420032
6   -0.593655
7   0.182561
8   0.16937
9   0.169295
10   0.182772
11   0.302822
12   0.422234

>  <lowdin_charges>
12
1   -0.227901
2   -0.226006
3   0.152769
4   -0.423738
5   -0.197656
6   -0.383756
7   0.167812
8   0.166299
9   0.166214
10   0.167525
11   0.267705
12   0.370733

$$$$

