PCCDB-ID:  69949
public computational chemistry database (PCCDB) project, http://pccdb.org

 18 17  0  0  0  0  0  0  0  0999 V2000
    1.1081    0.0085   -0.0371 C   0  0  0  0  0  0  0  0  0  0  0  0
    1.7520   -0.3282    2.8847 C   0  0  0  0  0  0  0  0  0  0  0  0
    4.2288   -2.2664   -0.1433 C   0  0  0  0  0  0  0  0  0  0  0  0
    2.5295   -0.3787    0.3853 C   0  0  0  0  0  0  0  0  0  0  0  0
    2.8575   -0.1121    1.8717 C   0  0  0  0  0  0  0  0  0  0  0  0
    2.7974   -1.8845    0.1632 C   0  0  0  0  0  0  0  0  0  0  0  0
    3.9848    0.2072    2.1989 O   0  0  0  0  0  0  0  0  0  0  0  0
    1.9020   -2.7005    0.2675 O   0  0  0  0  0  0  0  0  0  0  0  0
    0.8916    1.0527    0.2123 H   0  0  0  0  0  0  0  0  0  0  0  0
    0.3660   -0.6346    0.4414 H   0  0  0  0  0  0  0  0  0  0  0  0
    0.9936   -0.1082   -1.1198 H   0  0  0  0  0  0  0  0  0  0  0  0
    0.9687    0.4305    2.7689 H   0  0  0  0  0  0  0  0  0  0  0  0
    2.1673   -0.2656    3.8922 H   0  0  0  0  0  0  0  0  0  0  0  0
    1.2783   -1.3046    2.7285 H   0  0  0  0  0  0  0  0  0  0  0  0
    4.9120   -1.7597    0.5478 H   0  0  0  0  0  0  0  0  0  0  0  0
    4.4897   -1.9270   -1.1545 H   0  0  0  0  0  0  0  0  0  0  0  0
    4.3522   -3.3497   -0.0843 H   0  0  0  0  0  0  0  0  0  0  0  0
    3.2778    0.1889   -0.1779 H   0  0  0  0  0  0  0  0  0  0  0  0
  1  9  1  0  0  0  0
  1  4  1  0  0  0  0
  1 10  1  0  0  0  0
  2 13  1  0  0  0  0
  3 17  1  0  0  0  0
  3  6  1  0  0  0  0
  3 15  1  0  0  0  0
  4  5  1  0  0  0  0
  5  7  2  0  0  0  0
  5  2  1  0  0  0  0
  6  8  2  0  0  0  0
  6  4  1  0  0  0  0
 11  1  1  0  0  0  0
 12  2  1  0  0  0  0
 14  2  1  0  0  0  0
 16  3  1  0  0  0  0
 18  4  1  0  0  0  0
M  END
>  <HBA>
2

>  <HBD>
0

>  <TPSA>
34.14

>  <cid>
69949

>  <dipole>
1.42

>  <excitation_energy_1>
4.022

>  <excitation_energy_2>
4.285

>  <excitation_energy_3>
5.552

>  <excitation_energy_4>
6.134

>  <homo_energy>
-6.721

>  <homo_lumo_gap>
5.467

>  <logP>
0.8

>  <lumo_energy>
-1.254

>  <melting_point>
16.22

>  <molecular_refractivity>
31.36

>  <oscillator_strength_1>
0.011

>  <oscillator_strength_2>
0.0003

>  <oscillator_strength_3>
0.0001

>  <oscillator_strength_4>
0.0563

>  <open_babel_can_smiles>
CC(C(=O)C)C(=O)C

>  <mulliken_charges>
18
1   -0.459158
2   -0.536633
3   -0.532716
4   -0.237367
5   0.44349
6   0.440744
7   -0.433349
8   -0.433265
9   0.149889
10   0.17729
11   0.15922
12   0.177733
13   0.18135
14   0.1911
15   0.194952
16   0.175198
17   0.179513
18   0.16201

>  <lowdin_charges>
18
1   -0.441117
2   -0.473344
3   -0.474061
4   -0.190333
5   0.167008
6   0.171253
7   -0.234169
8   -0.233114
9   0.152363
10   0.167785
11   0.159231
12   0.176558
13   0.174246
14   0.179975
15   0.183875
16   0.17461
17   0.171336
18   0.167898

$$$$

