PCCDB-ID:  58382
public computational chemistry database (PCCDB) project, http://pccdb.org

 22 23  0  0  0  0  0  0  0  0999 V2000
   -1.1918    0.3938   -0.2827 C   0  0  0  0  0  0  0  0  0  0  0  0
   -0.0342   -0.1670   -0.9165 C   0  0  0  0  0  0  0  0  0  0  0  0
    1.3342   -4.0462   -3.4439 C   0  0  0  0  0  0  0  0  0  0  0  0
   -1.1087    0.0467    1.0305 C   0  0  0  0  0  0  0  0  0  0  0  0
    0.7493   -5.2420   -2.6446 C   0  0  0  0  0  0  0  0  0  0  0  0
    1.9224   -1.6280    0.0591 C   0  0  0  0  0  0  0  0  0  0  0  0
    0.6710   -0.8106    0.0574 C   0  0  0  0  0  0  0  0  0  0  0  0
    1.4496   -3.5968   -1.3005 C   0  0  0  0  0  0  0  0  0  0  0  0
    1.6188   -3.0227   -2.4329 N   0  0  0  0  0  0  0  0  0  0  0  0
    1.7122   -3.0747   -0.0639 N   0  0  0  0  0  0  0  0  0  0  0  0
    0.0180   -0.6875    1.2601 O   0  0  0  0  0  0  0  0  0  0  0  0
    1.0109   -4.8932   -1.2648 O   0  0  0  0  0  0  0  0  0  0  0  0
   -1.9755    0.9774   -0.7456 H   0  0  0  0  0  0  0  0  0  0  0  0
    0.2393   -0.1192   -1.9608 H   0  0  0  0  0  0  0  0  0  0  0  0
    0.6278   -3.6692   -4.1924 H   0  0  0  0  0  0  0  0  0  0  0  0
    2.2549   -4.3224   -3.9763 H   0  0  0  0  0  0  0  0  0  0  0  0
   -1.7266    0.2385    1.8947 H   0  0  0  0  0  0  0  0  0  0  0  0
    1.2331   -6.2002   -2.8503 H   0  0  0  0  0  0  0  0  0  0  0  0
   -0.3337   -5.3527   -2.7693 H   0  0  0  0  0  0  0  0  0  0  0  0
    2.4803   -1.4515    0.9845 H   0  0  0  0  0  0  0  0  0  0  0  0
    2.5488   -1.3299   -0.7832 H   0  0  0  0  0  0  0  0  0  0  0  0
    1.2003   -3.5184    0.6886 H   0  0  0  0  0  0  0  0  0  0  0  0
  1  4  2  0  0  0  0
  2  1  1  0  0  0  0
  2  7  2  0  0  0  0
  3  5  1  0  0  0  0
  3  9  1  0  0  0  0
  4 11  1  0  0  0  0
  4 17  1  0  0  0  0
  5 12  1  0  0  0  0
  6 20  1  0  0  0  0
  7  6  1  0  0  0  0
  7 11  1  0  0  0  0
  8 12  1  0  0  0  0
  8 10  1  0  0  0  0
  9  8  2  0  0  0  0
 10  6  1  0  0  0  0
 10 22  1  0  0  0  0
 13  1  1  0  0  0  0
 14  2  1  0  0  0  0
 15  3  1  0  0  0  0
 16  3  1  0  0  0  0
 18  5  1  0  0  0  0
 19  5  1  0  0  0  0
 21  6  1  0  0  0  0
M  END
>  <HBA>
4

>  <HBD>
1

>  <TPSA>
46.76

>  <cid>
58382

>  <dipole>
1.32

>  <excitation_energy_1>
5.288

>  <excitation_energy_2>
5.551

>  <excitation_energy_3>
5.651

>  <excitation_energy_4>
5.814

>  <homo_energy>
-5.856

>  <homo_lumo_gap>
6.221

>  <logP>
0.582

>  <lumo_energy>
0.365

>  <melting_point>
63.06

>  <molecular_refractivity>
46.88

>  <oscillator_strength_1>
0.0547

>  <oscillator_strength_2>
0.0159

>  <oscillator_strength_3>
0.0611

>  <oscillator_strength_4>
0.139

>  <open_babel_can_smiles>
C1CN=C(O1)NCc1ccco1

>  <mulliken_charges>
22
1   -0.184094
2   -0.190828
3   -0.16584
4   0.081602
5   -0.056784
6   -0.232747
7   0.332014
8   0.726321
9   -0.501334
10   -0.614471
11   -0.442531
12   -0.503483
13   0.139705
14   0.156515
15   0.147271
16   0.147268
17   0.151891
18   0.155655
19   0.152445
20   0.166506
21   0.201287
22   0.333632

>  <lowdin_charges>
22
1   -0.206103
2   -0.202331
3   -0.210106
4   -0.0857
5   -0.135366
6   -0.195981
7   0.046103
8   0.156343
9   -0.29184
10   -0.280889
11   -0.109895
12   -0.228056
13   0.169399
14   0.176051
15   0.148706
16   0.143731
17   0.170075
18   0.152225
19   0.144401
20   0.164094
21   0.186175
22   0.288962

$$$$

