PCCDB-ID:  40814
public computational chemistry database (PCCDB) project, http://pccdb.org

 25 26  0  0  1  0  0  0  0  0999 V2000
    1.1386    0.2464   -0.5605 C   0  0  0  0  0  0  0  0  0  0  0  0
    4.3005   -3.4461    2.4513 C   0  0  0  0  0  0  0  0  0  0  0  0
    5.4527   -0.0550    3.8061 C   0  0  0  0  0  0  0  0  0  0  0  0
    5.3260   -1.4322    3.6074 C   0  0  0  0  0  0  0  0  0  0  0  0
    4.6892    0.8426    3.0558 C   0  0  0  0  0  0  0  0  0  0  0  0
    2.8602    1.0840    1.1879 C   0  0  0  0  0  0  0  0  0  0  0  0
    2.6545   -1.3308    0.8326 C   0  0  0  0  0  0  0  0  0  0  0  0
    2.4968    0.0323    0.1058 C   0  0  1  0  0  0  0  0  0  0  0  0
    4.4378   -1.9561    2.6570 C   0  0  0  0  0  0  0  0  0  0  0  0
    3.8063    0.3370    2.1036 C   0  0  0  0  0  0  0  0  0  0  0  0
    3.6848   -1.0451    1.9052 C   0  0  0  0  0  0  0  0  0  0  0  0
    1.0882    1.2219   -1.0589 H   0  0  0  0  0  0  0  0  0  0  0  0
    0.3280    0.2076    0.1785 H   0  0  0  0  0  0  0  0  0  0  0  0
    0.9380   -0.5231   -1.3156 H   0  0  0  0  0  0  0  0  0  0  0  0
    4.9824   -4.0020    3.1025 H   0  0  0  0  0  0  0  0  0  0  0  0
    4.5197   -3.7331    1.4147 H   0  0  0  0  0  0  0  0  0  0  0  0
    3.2801   -3.7903    2.6647 H   0  0  0  0  0  0  0  0  0  0  0  0
    6.1538    0.3185    4.5484 H   0  0  0  0  0  0  0  0  0  0  0  0
    5.9311   -2.1162    4.1987 H   0  0  0  0  0  0  0  0  0  0  0  0
    4.7888    1.9144    3.2110 H   0  0  0  0  0  0  0  0  0  0  0  0
    1.9581    1.3942    1.7389 H   0  0  0  0  0  0  0  0  0  0  0  0
    3.2948    1.9955    0.7601 H   0  0  0  0  0  0  0  0  0  0  0  0
    2.9445   -2.1368    0.1472 H   0  0  0  0  0  0  0  0  0  0  0  0
    1.6984   -1.6392    1.2865 H   0  0  0  0  0  0  0  0  0  0  0  0
    3.2783    0.0789   -0.6659 H   0  0  0  0  0  0  0  0  0  0  0  0
  1  8  1  0  0  0  0
  1 13  1  0  0  0  0
  2  9  1  0  0  0  0
  2 17  1  0  0  0  0
  2 15  1  0  0  0  0
  3 18  1  0  0  0  0
  4  3  1  0  0  0  0
  4 19  1  0  0  0  0
  5 20  1  0  0  0  0
  5  3  2  0  0  0  0
  6 21  1  0  0  0  0
  6 10  1  0  0  0  0
  7 24  1  0  0  0  0
  7 11  1  0  0  0  0
  8 25  1  6  0  0  0
  8  7  1  0  0  0  0
  8  6  1  0  0  0  0
  9  4  2  0  0  0  0
 10  5  1  0  0  0  0
 11 10  2  0  0  0  0
 11  9  1  0  0  0  0
 12  1  1  0  0  0  0
 14  1  1  0  0  0  0
 16  2  1  0  0  0  0
 22  6  1  0  0  0  0
 23  7  1  0  0  0  0
M  END
>  <HBA>
0

>  <HBD>
0

>  <TPSA>
0.0

>  <cid>
40814

>  <dipole>
0.62

>  <excitation_energy_1>
5.148

>  <excitation_energy_2>
5.732

>  <excitation_energy_3>
5.779

>  <excitation_energy_4>
5.911

>  <homo_energy>
-6.114

>  <homo_lumo_gap>
6.329

>  <logP>
2.73

>  <lumo_energy>
0.215

>  <melting_point>
38.08

>  <molecular_refractivity>
48.84

>  <oscillator_strength_1>
0.0074

>  <oscillator_strength_2>
0.0007

>  <oscillator_strength_3>
0.0044

>  <oscillator_strength_4>
0.0015

>  <open_babel_can_smiles>
C[C@@H]1Cc2c(C1)cccc2C

>  <mulliken_charges>
25
1   -0.45066
2   -0.529704
3   -0.127913
4   -0.191699
5   -0.203369
6   -0.34877
7   -0.348974
8   -0.08382
9   0.122084
10   0.135045
11   0.067403
12   0.142834
13   0.140335
14   0.142371
15   0.152471
16   0.158531
17   0.159094
18   0.12204
19   0.115353
20   0.119423
21   0.145374
22   0.14292
23   0.141132
24   0.143665
25   0.134834

>  <lowdin_charges>
25
1   -0.445629
2   -0.441193
3   -0.159389
4   -0.175142
5   -0.171126
6   -0.280892
7   -0.282157
8   -0.118268
9   -0.007484
10   -0.012186
11   -0.02346
12   0.14929
13   0.146286
14   0.15006
15   0.157263
16   0.156913
17   0.157758
18   0.155401
19   0.153084
20   0.151874
21   0.149279
22   0.150269
23   0.14952
24   0.147599
25   0.142329

$$$$

