PCCDB-ID:  1222
public computational chemistry database (PCCDB) project, http://pccdb.org

 26 26  0  0  1  0  0  0  0  0999 V2000
    1.3925   -0.6840   -0.7154 C   0  0  0  0  0  0  0  0  0  0  0  0
    4.1286   -1.0510    3.4202 C   0  0  0  0  0  0  0  0  0  0  0  0
    3.4261   -3.0506    2.2611 C   0  0  0  0  0  0  0  0  0  0  0  0
    3.6378   -0.2785    2.3711 C   0  0  0  0  0  0  0  0  0  0  0  0
    2.9358   -2.2752    1.2157 C   0  0  0  0  0  0  0  0  0  0  0  0
    4.0220   -2.4461    3.3740 C   0  0  0  0  0  0  0  0  0  0  0  0
    3.0210   -0.8755    1.2591 C   0  0  0  0  0  0  0  0  0  0  0  0
    4.5228   -3.3226    4.4650 C   0  0  0  0  0  0  0  0  0  0  0  0
    3.7347    0.2358   -0.8406 C   0  0  0  0  0  0  0  0  0  0  0  0
    2.5062   -0.0101    0.1002 C   0  0  1  0  0  0  0  0  0  0  0  0
    2.0987    1.3142    0.6320 N   0  0  0  0  0  0  0  0  0  0  0  0
    5.0877   -2.6284    5.4867 O   0  0  0  0  0  0  0  0  0  0  0  0
    4.4484   -4.5350    4.4727 O   0  0  0  0  0  0  0  0  0  0  0  0
    4.0985   -0.5678   -1.6644 O   0  0  0  0  0  0  0  0  0  0  0  0
    4.3555    1.4039   -0.6224 O   0  0  0  0  0  0  0  0  0  0  0  0
    1.7716   -1.5476   -1.2642 H   0  0  0  0  0  0  0  0  0  0  0  0
    1.0021    0.0208   -1.4589 H   0  0  0  0  0  0  0  0  0  0  0  0
    0.5685   -0.9968   -0.0655 H   0  0  0  0  0  0  0  0  0  0  0  0
    4.5982   -0.5739    4.2731 H   0  0  0  0  0  0  0  0  0  0  0  0
    3.3552   -4.1328    2.2306 H   0  0  0  0  0  0  0  0  0  0  0  0
    3.7403    0.8005    2.4178 H   0  0  0  0  0  0  0  0  0  0  0  0
    2.4870   -2.7698    0.3626 H   0  0  0  0  0  0  0  0  0  0  0  0
    1.5876    1.2079    1.5062 H   0  0  0  0  0  0  0  0  0  0  0  0
    1.4694    1.7693   -0.0283 H   0  0  0  0  0  0  0  0  0  0  0  0
    5.3778   -3.2998    6.1315 H   0  0  0  0  0  0  0  0  0  0  0  0
    3.8051    1.8628    0.0604 H   0  0  0  0  0  0  0  0  0  0  0  0
  1 18  1  0  0  0  0
  1 10  1  0  0  0  0
  2 19  1  0  0  0  0
  3  6  2  0  0  0  0
  4 21  1  0  0  0  0
  4  2  2  0  0  0  0
  5  7  2  0  0  0  0
  5  3  1  0  0  0  0
  6  2  1  0  0  0  0
  6  8  1  0  0  0  0
  7  4  1  0  0  0  0
  8 13  2  0  0  0  0
  8 12  1  0  0  0  0
  9 15  1  0  0  0  0
 10  9  1  6  0  0  0
 10 11  1  0  0  0  0
 10  7  1  0  0  0  0
 11 23  1  0  0  0  0
 12 25  1  0  0  0  0
 14  9  2  0  0  0  0
 15 26  1  0  0  0  0
 16  1  1  0  0  0  0
 17  1  1  0  0  0  0
 20  3  1  0  0  0  0
 22  5  1  0  0  0  0
 24 11  1  0  0  0  0
M  END
>  <HBA>
5

>  <HBD>
3

>  <TPSA>
100.62

>  <cid>
1222

>  <dipole>
5.41

>  <excitation_energy_1>
4.637

>  <excitation_energy_2>
4.795

>  <excitation_energy_3>
4.818

>  <excitation_energy_4>
5.308

>  <homo_energy>
-6.874

>  <homo_lumo_gap>
5.276

>  <logP>
1.344

>  <lumo_energy>
-1.597

>  <melting_point>
236.51

>  <molecular_refractivity>
52.34

>  <oscillator_strength_1>
0.112

>  <oscillator_strength_2>
0.0015

>  <oscillator_strength_3>
0.0193

>  <oscillator_strength_4>
0.2598

>  <open_babel_can_smiles>
OC(=O)c1ccc(cc1)[C@](C(=O)O)(N)C

>  <mulliken_charges>
26
1   -0.470986
2   -0.160547
3   -0.16193
4   -0.189637
5   -0.171667
6   0.075796
7   0.146351
8   0.539411
9   0.630176
10   0.017007
11   -0.783029
12   -0.582956
13   -0.470834
14   -0.460582
15   -0.580282
16   0.193291
17   0.148286
18   0.152315
19   0.164862
20   0.170462
21   0.147413
22   0.147502
23   0.325162
24   0.323987
25   0.413614
26   0.436815

>  <lowdin_charges>
26
1   -0.452345
2   -0.134141
3   -0.120755
4   -0.168295
5   -0.155586
6   -0.045607
7   0.002587
8   0.19224
9   0.180035
10   0.024881
11   -0.544181
12   -0.360093
13   -0.267532
14   -0.249288
15   -0.352017
16   0.176817
17   0.155856
18   0.155836
19   0.176849
20   0.178532
21   0.164317
22   0.171235
23   0.273296
24   0.270554
25   0.365608
26   0.361197

$$$$

