PCCDB-ID:  68204
public computational chemistry database (PCCDB) project, http://pccdb.org

 24 25  0  0  0  0  0  0  0  0999 V2000
    2.1812    1.6736   -0.5480 C   0  0  0  0  0  0  0  0  0  0  0  0
   -2.4790    0.5986    0.3326 C   0  0  0  0  0  0  0  0  0  0  0  0
    0.8618    2.0459   -0.4639 C   0  0  0  0  0  0  0  0  0  0  0  0
   -1.5049    1.4980   -0.0260 C   0  0  0  0  0  0  0  0  0  0  0  0
    2.5418    0.3262   -0.3264 C   0  0  0  0  0  0  0  0  0  0  0  0
   -2.1157   -0.7193    0.6874 C   0  0  0  0  0  0  0  0  0  0  0  0
   -0.1406    1.1058   -0.1006 C   0  0  0  0  0  0  0  0  0  0  0  0
    1.5963   -0.6274    0.0098 C   0  0  0  0  0  0  0  0  0  0  0  0
   -0.7972   -1.1393    0.6489 C   0  0  0  0  0  0  0  0  0  0  0  0
    0.2271   -0.2481    0.1921 C   0  0  0  0  0  0  0  0  0  0  0  0
    2.0150   -2.0713   -0.0628 C   0  0  0  0  0  0  0  0  0  0  0  0
   -0.4689   -2.4469    1.3180 C   0  0  0  0  0  0  0  0  0  0  0  0
    1.4182   -2.8936   -0.7171 O   0  0  0  0  0  0  0  0  0  0  0  0
    3.1789   -2.3877    0.5533 O   0  0  0  0  0  0  0  0  0  0  0  0
    0.3790   -2.5496    2.1731 O   0  0  0  0  0  0  0  0  0  0  0  0
   -1.2619   -3.4973    0.9986 O   0  0  0  0  0  0  0  0  0  0  0  0
    2.9437    2.3965   -0.8223 H   0  0  0  0  0  0  0  0  0  0  0  0
   -3.5204    0.9021    0.3842 H   0  0  0  0  0  0  0  0  0  0  0  0
    0.5615    3.0687   -0.6767 H   0  0  0  0  0  0  0  0  0  0  0  0
   -1.7620    2.5285   -0.2578 H   0  0  0  0  0  0  0  0  0  0  0  0
    3.5727    0.0205   -0.4844 H   0  0  0  0  0  0  0  0  0  0  0  0
   -2.8796   -1.3977    1.0581 H   0  0  0  0  0  0  0  0  0  0  0  0
    3.4066   -1.6845    1.1849 H   0  0  0  0  0  0  0  0  0  0  0  0
   -1.7335   -3.3007    0.1715 H   0  0  0  0  0  0  0  0  0  0  0  0
  1  3  2  0  0  0  0
  1  5  1  0  0  0  0
  2 18  1  0  0  0  0
  2  6  2  0  0  0  0
  3  7  1  0  0  0  0
  4  2  1  0  0  0  0
  5  8  2  0  0  0  0
  6 22  1  0  0  0  0
  7  4  2  0  0  0  0
  7 10  1  0  0  0  0
  8 10  1  0  0  0  0
  9  6  1  0  0  0  0
  9 12  1  0  0  0  0
 10  9  2  0  0  0  0
 11  8  1  0  0  0  0
 11 14  1  0  0  0  0
 12 15  2  0  0  0  0
 13 11  2  0  0  0  0
 14 23  1  0  0  0  0
 16 12  1  0  0  0  0
 17  1  1  0  0  0  0
 19  3  1  0  0  0  0
 20  4  1  0  0  0  0
 21  5  1  0  0  0  0
 24 16  1  0  0  0  0
M  END
>  <HBA>
4

>  <HBD>
2

>  <TPSA>
74.6

>  <cid>
68204

>  <dipole>
6.33

>  <excitation_energy_1>
4.105

>  <excitation_energy_2>
4.295

>  <excitation_energy_3>
4.512

>  <excitation_energy_4>
4.617

>  <homo_energy>
-6.558

>  <homo_lumo_gap>
4.563

>  <logP>
2.236

>  <lumo_energy>
-1.995

>  <melting_point>
232.31

>  <molecular_refractivity>
57.87

>  <oscillator_strength_1>
0.104

>  <oscillator_strength_2>
0.0027

>  <oscillator_strength_3>
0.0006

>  <oscillator_strength_4>
0.0044

>  <open_babel_can_smiles>
OC(=O)c1cccc2c1c(ccc2)C(=O)O

>  <mulliken_charges>
24
1   -0.127024
2   -0.126956
3   -0.183602
4   -0.183706
5   -0.185678
6   -0.185581
7   0.129302
8   -0.017813
9   -0.018178
10   0.082017
11   0.563815
12   0.563797
13   -0.451745
14   -0.561425
15   -0.45158
16   -0.561506
17   0.145825
18   0.145779
19   0.143852
20   0.143885
21   0.15151
22   0.151519
23   0.416752
24   0.416738

>  <lowdin_charges>
24
1   -0.153902
2   -0.150986
3   -0.139822
4   -0.139649
5   -0.152983
6   -0.155803
7   0.005078
8   -0.04682
9   -0.045447
10   0.016816
11   0.203468
12   0.198494
13   -0.24263
14   -0.341759
15   -0.240978
16   -0.339116
17   0.168053
18   0.165621
19   0.163738
20   0.163537
21   0.166252
22   0.168605
23   0.365436
24   0.364797

$$$$

