PCCDB-ID:  15374
public computational chemistry database (PCCDB) project, http://pccdb.org

 18 17  0  0  0  0  0  0  0  0999 V2000
    0.9335    0.1950    0.2317 C   0  0  0  0  0  0  0  0  0  0  0  0
    6.3444   -1.2593   -2.2684 C   0  0  0  0  0  0  0  0  0  0  0  0
    2.4585    0.1205    0.2150 C   0  0  0  0  0  0  0  0  0  0  0  0
    4.8184   -1.2199   -2.2332 C   0  0  0  0  0  0  0  0  0  0  0  0
    2.9311   -0.3422   -1.0878 N   0  0  0  0  0  0  0  0  0  0  0  0
    4.3554   -0.3933   -1.1209 N   0  0  0  0  0  0  0  0  0  0  0  0
    0.5730    0.5074    1.2176 H   0  0  0  0  0  0  0  0  0  0  0  0
    0.4973   -0.7805   -0.0067 H   0  0  0  0  0  0  0  0  0  0  0  0
    0.5594    0.9213   -0.5017 H   0  0  0  0  0  0  0  0  0  0  0  0
    6.6950   -1.9080   -3.0782 H   0  0  0  0  0  0  0  0  0  0  0  0
    6.7424   -1.6368   -1.3210 H   0  0  0  0  0  0  0  0  0  0  0  0
    6.7674   -0.2607   -2.4394 H   0  0  0  0  0  0  0  0  0  0  0  0
    2.8184   -0.5969    0.9598 H   0  0  0  0  0  0  0  0  0  0  0  0
    2.8828    1.1049    0.4943 H   0  0  0  0  0  0  0  0  0  0  0  0
    4.4093   -2.2235   -2.0779 H   0  0  0  0  0  0  0  0  0  0  0  0
    4.4324   -0.8696   -3.2108 H   0  0  0  0  0  0  0  0  0  0  0  0
    2.5750    0.2880   -1.8161 H   0  0  0  0  0  0  0  0  0  0  0  0
    4.7486    0.5503   -1.2183 H   0  0  0  0  0  0  0  0  0  0  0  0
  1  7  1  0  0  0  0
  2  4  1  0  0  0  0
  2 11  1  0  0  0  0
  3  1  1  0  0  0  0
  3 14  1  0  0  0  0
  3 13  1  0  0  0  0
  4 15  1  0  0  0  0
  4  6  1  0  0  0  0
  5  3  1  0  0  0  0
  6  5  1  0  0  0  0
  8  1  1  0  0  0  0
  9  1  1  0  0  0  0
 10  2  1  0  0  0  0
 12  2  1  0  0  0  0
 16  4  1  0  0  0  0
 17  5  1  0  0  0  0
 18  6  1  0  0  0  0
M  END
>  <HBA>
2

>  <HBD>
2

>  <TPSA>
24.06

>  <cid>
15374

>  <dipole>
1.64

>  <excitation_energy_1>
5.276

>  <excitation_energy_2>
5.89

>  <excitation_energy_3>
6.018

>  <excitation_energy_4>
6.033

>  <homo_energy>
-5.834

>  <homo_lumo_gap>
7.946

>  <logP>
0.902

>  <lumo_energy>
2.112

>  <melting_point>
29.12

>  <molecular_refractivity>
26.95

>  <oscillator_strength_1>
0.0111

>  <oscillator_strength_2>
0.0022

>  <oscillator_strength_3>
0.0035

>  <oscillator_strength_4>
0.0283

>  <open_babel_can_smiles>
CCNNCC

>  <mulliken_charges>
18
1   -0.458012
2   -0.457488
3   -0.089531
4   -0.089815
5   -0.431819
6   -0.431913
7   0.147083
8   0.161105
9   0.135909
10   0.146918
11   0.16106
12   0.135855
13   0.155642
14   0.10373
15   0.155752
16   0.103601
17   0.275933
18   0.27599

>  <lowdin_charges>
18
1   -0.450809
2   -0.450696
3   -0.200498
4   -0.198958
5   -0.301029
6   -0.298772
7   0.154328
8   0.156824
9   0.144718
10   0.155418
11   0.157123
12   0.143198
13   0.151829
14   0.112469
15   0.149911
16   0.112378
17   0.232242
18   0.230324

$$$$

