PCCDB-ID:  24138
public computational chemistry database (PCCDB) project, http://pccdb.org

 36 37  0  0  0  0  0  0  0  0999 V2000
    0.7906    0.1063    4.5985 C   0  0  0  0  0  0  0  0  0  0  0  0
    2.3180   -0.0059    4.5633 C   0  0  0  0  0  0  0  0  0  0  0  0
    2.9504    0.7262    3.3724 C   0  0  0  0  0  0  0  0  0  0  0  0
   11.5012    0.3239    1.7237 C   0  0  0  0  0  0  0  0  0  0  0  0
   10.8587   -0.8866    1.9968 C   0  0  0  0  0  0  0  0  0  0  0  0
    4.4815    0.6293    3.3399 C   0  0  0  0  0  0  0  0  0  0  0  0
   10.7452    1.4811    1.5547 C   0  0  0  0  0  0  0  0  0  0  0  0
    9.4701   -0.9217    2.0955 C   0  0  0  0  0  0  0  0  0  0  0  0
    8.5295    2.7172    1.4892 C   0  0  0  0  0  0  0  0  0  0  0  0
    5.0868    1.3568    2.1334 C   0  0  0  0  0  0  0  0  0  0  0  0
    7.0623    2.4074    1.1895 C   0  0  0  0  0  0  0  0  0  0  0  0
    7.1914    0.1527    2.0043 C   0  0  0  0  0  0  0  0  0  0  0  0
    9.3477    1.4548    1.6543 C   0  0  0  0  0  0  0  0  0  0  0  0
    8.7043    0.2393    1.9274 C   0  0  0  0  0  0  0  0  0  0  0  0
    6.5463    1.4538    2.1713 N   0  0  0  0  0  0  0  0  0  0  0  0
    0.3699   -0.4250    5.4599 H   0  0  0  0  0  0  0  0  0  0  0  0
    0.3403   -0.3186    3.6929 H   0  0  0  0  0  0  0  0  0  0  0  0
    0.4718    1.1539    4.6652 H   0  0  0  0  0  0  0  0  0  0  0  0
    2.6075   -1.0659    4.5311 H   0  0  0  0  0  0  0  0  0  0  0  0
    2.7370    0.3947    5.4972 H   0  0  0  0  0  0  0  0  0  0  0  0
    2.6527    1.7851    3.4005 H   0  0  0  0  0  0  0  0  0  0  0  0
    2.5359    0.3196    2.4378 H   0  0  0  0  0  0  0  0  0  0  0  0
   12.5842    0.3635    1.6407 H   0  0  0  0  0  0  0  0  0  0  0  0
   11.4371   -1.7965    2.1331 H   0  0  0  0  0  0  0  0  0  0  0  0
    4.7686   -0.4304    3.3336 H   0  0  0  0  0  0  0  0  0  0  0  0
    4.9053    1.0637    4.2550 H   0  0  0  0  0  0  0  0  0  0  0  0
   11.2418    2.4253    1.3392 H   0  0  0  0  0  0  0  0  0  0  0  0
    8.9676   -1.8638    2.3078 H   0  0  0  0  0  0  0  0  0  0  0  0
    8.5792    3.3101    2.4130 H   0  0  0  0  0  0  0  0  0  0  0  0
    8.9508    3.3408    0.6900 H   0  0  0  0  0  0  0  0  0  0  0  0
    4.6962    2.3822    2.1171 H   0  0  0  0  0  0  0  0  0  0  0  0
    4.7370    0.8721    1.1973 H   0  0  0  0  0  0  0  0  0  0  0  0
    6.9588    2.0278    0.1519 H   0  0  0  0  0  0  0  0  0  0  0  0
    6.4698    3.3266    1.2539 H   0  0  0  0  0  0  0  0  0  0  0  0
    6.9169   -0.4906    2.8473 H   0  0  0  0  0  0  0  0  0  0  0  0
    6.8168   -0.3584    1.0893 H   0  0  0  0  0  0  0  0  0  0  0  0
  1 18  1  0  0  0  0
  1 16  1  0  0  0  0
  2  1  1  0  0  0  0
  2 20  1  0  0  0  0
  3 21  1  0  0  0  0
  3  2  1  0  0  0  0
  4  5  2  0  0  0  0
  5  8  1  0  0  0  0
  5 24  1  0  0  0  0
  6  3  1  0  0  0  0
  6 26  1  0  0  0  0
  7 13  2  0  0  0  0
  7  4  1  0  0  0  0
  8 28  1  0  0  0  0
  9 13  1  0  0  0  0
  9 29  1  0  0  0  0
 10 15  1  0  0  0  0
 10  6  1  0  0  0  0
 11 34  1  0  0  0  0
 11  9  1  0  0  0  0
 11 15  1  0  0  0  0
 12 15  1  0  0  0  0
 12 35  1  0  0  0  0
 13 14  1  0  0  0  0
 14 12  1  0  0  0  0
 14  8  2  0  0  0  0
 17  1  1  0  0  0  0
 19  2  1  0  0  0  0
 22  3  1  0  0  0  0
 23  4  1  0  0  0  0
 25  6  1  0  0  0  0
 27  7  1  0  0  0  0
 30  9  1  0  0  0  0
 31 10  1  0  0  0  0
 32 10  1  0  0  0  0
 33 11  1  0  0  0  0
 36 12  1  0  0  0  0
M  END
>  <HBA>
1

>  <HBD>
0

>  <TPSA>
3.24

>  <cid>
24138

>  <dipole>
0.71

>  <excitation_energy_1>
4.903

>  <excitation_energy_2>
5.016

>  <excitation_energy_3>
5.237

>  <excitation_energy_4>
5.531

>  <homo_energy>
-5.706

>  <homo_lumo_gap>
5.807

>  <logP>
3.173

>  <lumo_energy>
0.101

>  <melting_point>
33.22

>  <molecular_refractivity>
69.91

>  <oscillator_strength_1>
0.0028

>  <oscillator_strength_2>
0.0096

>  <oscillator_strength_3>
0.0282

>  <oscillator_strength_4>
0.0141

>  <open_babel_can_smiles>
CCCCCN1CCc2c(C1)cccc2

>  <mulliken_charges>
36
1   -0.441801
2   -0.246291
3   -0.251424
4   -0.128304
5   -0.13295
6   -0.268463
7   -0.191687
8   -0.181083
9   -0.334322
10   -0.098906
11   -0.131814
12   -0.184508
13   0.128568
14   0.099173
15   -0.409591
16   0.1423
17   0.141219
18   0.141581
19   0.130267
20   0.132374
21   0.127768
22   0.128518
23   0.124651
24   0.124901
25   0.133874
26   0.143811
27   0.11933
28   0.118437
29   0.160338
30   0.13977
31   0.13196
32   0.10508
33   0.114276
34   0.135882
35   0.155202
36   0.121865

>  <lowdin_charges>
36
1   -0.444701
2   -0.26999
3   -0.272538
4   -0.157553
5   -0.16126
6   -0.280292
7   -0.164484
8   -0.164182
9   -0.279152
10   -0.197015
11   -0.196612
12   -0.200728
13   -0.0113
14   -0.015617
15   -0.186959
16   0.150372
17   0.146647
18   0.14519
19   0.137279
20   0.140095
21   0.136022
22   0.138032
23   0.153674
24   0.156236
25   0.138289
26   0.147455
27   0.153238
28   0.15297
29   0.158165
30   0.151805
31   0.141195
32   0.114287
33   0.115964
34   0.146015
35   0.155208
36   0.124243

$$$$

