PCCDB-ID:  70992
public computational chemistry database (PCCDB) project, http://pccdb.org

 22 23  0  0  0  0  0  0  0  0999 V2000
    5.2955    0.8024    0.6495 C   0  0  0  0  0  0  0  0  0  0  0  0
   -0.3600    5.7359    3.7457 C   0  0  0  0  0  0  0  0  0  0  0  0
   -1.2435    4.6379    3.8642 C   0  0  0  0  0  0  0  0  0  0  0  0
    0.9166    5.5750    3.2328 C   0  0  0  0  0  0  0  0  0  0  0  0
   -0.8693    3.3607    3.4737 C   0  0  0  0  0  0  0  0  0  0  0  0
    2.5385    3.7668    2.2682 C   0  0  0  0  0  0  0  0  0  0  0  0
    1.3322    4.2915    2.8251 C   0  0  0  0  0  0  0  0  0  0  0  0
    0.4228    3.1972    2.9547 C   0  0  0  0  0  0  0  0  0  0  0  0
    2.3402    2.4148    2.0803 C   0  0  0  0  0  0  0  0  0  0  0  0
    3.1937    1.3511    1.5498 C   0  0  0  0  0  0  0  0  0  0  0  0
    1.0641    2.0757    2.4952 N   0  0  0  0  0  0  0  0  0  0  0  0
    2.8363    0.1881    1.4551 O   0  0  0  0  0  0  0  0  0  0  0  0
    4.4112    1.8014    1.1811 O   0  0  0  0  0  0  0  0  0  0  0  0
    6.2234    1.3276    0.4220 H   0  0  0  0  0  0  0  0  0  0  0  0
    4.8738    0.3583   -0.2563 H   0  0  0  0  0  0  0  0  0  0  0  0
    5.4706    0.0127    1.3848 H   0  0  0  0  0  0  0  0  0  0  0  0
   -0.6934    6.7196    4.0641 H   0  0  0  0  0  0  0  0  0  0  0  0
   -2.2383    4.7993    4.2703 H   0  0  0  0  0  0  0  0  0  0  0  0
    1.5906    6.4230    3.1446 H   0  0  0  0  0  0  0  0  0  0  0  0
   -1.5508    2.5197    3.5668 H   0  0  0  0  0  0  0  0  0  0  0  0
    3.4444    4.3060    2.0316 H   0  0  0  0  0  0  0  0  0  0  0  0
    0.7079    1.1324    2.4415 H   0  0  0  0  0  0  0  0  0  0  0  0
  1 13  1  0  0  0  0
  1 16  1  0  0  0  0
  2  3  1  0  0  0  0
  2 17  1  0  0  0  0
  3 18  1  0  0  0  0
  4  2  2  0  0  0  0
  5 20  1  0  0  0  0
  5  3  2  0  0  0  0
  6  7  1  0  0  0  0
  7  8  2  0  0  0  0
  7  4  1  0  0  0  0
  8  5  1  0  0  0  0
  9  6  2  0  0  0  0
  9 11  1  0  0  0  0
 10  9  1  0  0  0  0
 11  8  1  0  0  0  0
 12 10  2  0  0  0  0
 13 10  1  0  0  0  0
 14  1  1  0  0  0  0
 15  1  1  0  0  0  0
 19  4  1  0  0  0  0
 21  6  1  0  0  0  0
 22 11  1  0  0  0  0
M  END
>  <HBA>
2

>  <HBD>
1

>  <TPSA>
42.09

>  <cid>
70992

>  <dipole>
0.53

>  <excitation_energy_1>
4.05

>  <excitation_energy_2>
4.421

>  <excitation_energy_3>
5.075

>  <excitation_energy_4>
5.336

>  <homo_energy>
-5.763

>  <homo_lumo_gap>
4.52

>  <logP>
1.954

>  <lumo_energy>
-1.244

>  <melting_point>
121.87

>  <molecular_refractivity>
49.58

>  <oscillator_strength_1>
0.0699

>  <oscillator_strength_2>
0.4113

>  <oscillator_strength_3>
0.0001

>  <oscillator_strength_4>
0.0795

>  <open_babel_can_smiles>
COC(=O)c1cc2c([nH]1)cccc2

>  <mulliken_charges>
22
1   -0.21732
2   -0.139495
3   -0.146468
4   -0.199729
5   -0.16799
6   -0.241761
7   0.092354
8   0.358963
9   0.286868
10   0.581708
11   -0.747487
12   -0.516698
13   -0.461612
14   0.16662
15   0.171721
16   0.172452
17   0.125726
18   0.128918
19   0.131178
20   0.130167
21   0.14982
22   0.342067

>  <lowdin_charges>
22
1   -0.277928
2   -0.173877
3   -0.153018
4   -0.154849
5   -0.186418
6   -0.189203
7   -0.028597
8   0.042588
9   -0.009791
10   0.186599
11   -0.179786
12   -0.287138
13   -0.184705
14   0.161809
15   0.160475
16   0.161386
17   0.156934
18   0.157817
19   0.160307
20   0.160549
21   0.175301
22   0.301545

$$$$

