PCCDB-ID:  48280
public computational chemistry database (PCCDB) project, http://pccdb.org

 20 20  0  0  0  0  0  0  0  0999 V2000
   -1.6200    1.3469   -0.2654 C   0  0  0  0  0  0  0  0  0  0  0  0
    2.2288   -1.4481   -2.4346 C   0  0  0  0  0  0  0  0  0  0  0  0
   -2.0863    0.0202   -0.1719 C   0  0  0  0  0  0  0  0  0  0  0  0
   -0.3293    1.5056   -0.7535 C   0  0  0  0  0  0  0  0  0  0  0  0
    3.4051   -0.9665   -1.5756 C   0  0  0  0  0  0  0  0  0  0  0  0
   -0.1198   -0.7395   -1.0223 C   0  0  0  0  0  0  0  0  0  0  0  0
   -3.3098   -0.2809    0.3398 N   0  0  0  0  0  0  0  0  0  0  0  0
   -1.3356   -1.0256   -0.5670 N   0  0  0  0  0  0  0  0  0  0  0  0
    0.4392    0.4733   -1.1302 N   0  0  0  0  0  0  0  0  0  0  0  0
    0.2720    2.7047   -0.8865 O   0  0  0  0  0  0  0  0  0  0  0  0
    4.4665   -1.5446   -1.5665 O   0  0  0  0  0  0  0  0  0  0  0  0
    3.1870    0.1453   -0.8616 O   0  0  0  0  0  0  0  0  0  0  0  0
    0.8118   -2.1701   -1.5063 S   0  0  0  0  0  0  0  0  0  0  0  0
   -2.2270    2.1909    0.0465 H   0  0  0  0  0  0  0  0  0  0  0  0
    2.5892   -2.2642   -3.0627 H   0  0  0  0  0  0  0  0  0  0  0  0
    1.8471   -0.6426   -3.0689 H   0  0  0  0  0  0  0  0  0  0  0  0
   -4.0102    0.4366    0.4458 H   0  0  0  0  0  0  0  0  0  0  0  0
   -3.6277   -1.2335    0.2301 H   0  0  0  0  0  0  0  0  0  0  0  0
   -0.3220    3.4027   -0.5667 H   0  0  0  0  0  0  0  0  0  0  0  0
    2.2546    0.4560   -0.9992 H   0  0  0  0  0  0  0  0  0  0  0  0
  1  3  2  0  0  0  0
  1 14  1  0  0  0  0
  2  5  1  0  0  0  0
  2 13  1  0  0  0  0
  3  7  1  0  0  0  0
  4  1  1  0  0  0  0
  5 11  2  0  0  0  0
  5 12  1  0  0  0  0
  6  8  2  0  0  0  0
  7 17  1  0  0  0  0
  8  3  1  0  0  0  0
  9  6  1  0  0  0  0
  9  4  2  0  0  0  0
 10  4  1  0  0  0  0
 10 19  1  0  0  0  0
 13  6  1  0  0  0  0
 15  2  1  0  0  0  0
 16  2  1  0  0  0  0
 18  7  1  0  0  0  0
 20 12  1  0  0  0  0
M  END
>  <HBA>
6

>  <HBD>
3

>  <TPSA>
134.37

>  <cid>
48280

>  <dipole>
10.26

>  <excitation_energy_1>
4.811

>  <excitation_energy_2>
4.85

>  <excitation_energy_3>
5.121

>  <excitation_energy_4>
5.249

>  <homo_energy>
-6.378

>  <homo_lumo_gap>
5.486

>  <logP>
0.11

>  <lumo_energy>
-0.893

>  <melting_point>
241.01

>  <molecular_refractivity>
47.56

>  <oscillator_strength_1>
0.0755

>  <oscillator_strength_2>
0.1301

>  <oscillator_strength_3>
0.0071

>  <oscillator_strength_4>
0.0026

>  <open_babel_can_smiles>
OC(=O)CSc1nc(N)cc(n1)O

>  <mulliken_charges>
20
1   -0.259384
2   -0.551605
3   0.523809
4   0.54605
5   0.597786
6   0.291056
7   -0.775972
8   -0.514111
9   -0.558326
10   -0.592327
11   -0.444713
12   -0.582733
13   0.201063
14   0.131564
15   0.213962
16   0.207802
17   0.341923
18   0.356044
19   0.420548
20   0.447564

>  <lowdin_charges>
20
1   -0.30586
2   -0.423269
3   0.144359
4   0.169791
5   0.183778
6   -0.002398
7   -0.444477
8   -0.21392
9   -0.232559
10   -0.336582
11   -0.253124
12   -0.363179
13   0.219483
14   0.165436
15   0.194861
16   0.184666
17   0.292516
18   0.300347
19   0.368688
20   0.351445

$$$$

