PCCDB-ID:  16486
public computational chemistry database (PCCDB) project, http://pccdb.org

 14 14  0  0  1  0  0  0  0  0999 V2000
    0.6012    1.1122   -0.1328 C   0  0  0  0  0  0  0  0  0  0  0  0
   -0.8916    0.7039   -0.1455 C   0  0  0  0  0  0  0  0  0  0  0  0
    0.8843   -0.3066    0.4481 C   0  0  1  0  0  0  0  0  0  0  0  0
    1.7631   -0.3664    1.6968 C   0  0  0  0  0  0  0  0  0  0  0  0
   -0.5672   -0.4443    0.7474 N   0  0  0  0  0  0  0  0  0  0  0  0
    2.9699   -0.4109    1.6560 O   0  0  0  0  0  0  0  0  0  0  0  0
    1.0568   -0.3181    2.8394 O   0  0  0  0  0  0  0  0  0  0  0  0
    0.8284    1.9132    0.5748 H   0  0  0  0  0  0  0  0  0  0  0  0
    1.0635    1.3383   -1.0947 H   0  0  0  0  0  0  0  0  0  0  0  0
   -1.2362    0.3987   -1.1418 H   0  0  0  0  0  0  0  0  0  0  0  0
   -1.6153    1.4065    0.2800 H   0  0  0  0  0  0  0  0  0  0  0  0
    1.2798   -0.9993   -0.3028 H   0  0  0  0  0  0  0  0  0  0  0  0
   -0.9870   -1.3364    0.4916 H   0  0  0  0  0  0  0  0  0  0  0  0
    0.1090   -0.3016    2.5528 H   0  0  0  0  0  0  0  0  0  0  0  0
  1  3  1  0  0  0  0
  1  8  1  0  0  0  0
  2  1  1  0  0  0  0
  2 11  1  0  0  0  0
  2  5  1  0  0  0  0
  3 12  1  6  0  0  0
  3  5  1  0  0  0  0
  3  4  1  0  0  0  0
  4  7  1  0  0  0  0
  6  4  2  0  0  0  0
  9  1  1  0  0  0  0
 10  2  1  0  0  0  0
 13  5  1  0  0  0  0
 14  7  1  0  0  0  0
M  END
>  <HBA>
3

>  <HBD>
2

>  <TPSA>
49.33

>  <cid>
16486

>  <dipole>
5.43

>  <excitation_energy_1>
5.391

>  <excitation_energy_2>
5.944

>  <excitation_energy_3>
6.421

>  <excitation_energy_4>
6.622

>  <homo_energy>
-6.792

>  <homo_lumo_gap>
7.143

>  <logP>
-0.238

>  <lumo_energy>
0.351

>  <melting_point>
101.68

>  <molecular_refractivity>
27.72

>  <oscillator_strength_1>
0.0009

>  <oscillator_strength_2>
0.0014

>  <oscillator_strength_3>
0.0124

>  <oscillator_strength_4>
0.0026

>  <open_babel_can_smiles>
OC(=O)[C@@H]1CCN1

>  <mulliken_charges>
14
1   -0.30499
2   -0.121357
3   -0.063746
4   0.59812
5   -0.615703
6   -0.461025
7   -0.580769
8   0.173223
9   0.168475
10   0.146255
11   0.15757
12   0.16275
13   0.314907
14   0.42629

>  <lowdin_charges>
14
1   -0.278498
2   -0.195518
3   -0.098984
4   0.167271
5   -0.381104
6   -0.253203
7   -0.355217
8   0.164686
9   0.162084
10   0.140919
11   0.150362
12   0.160764
13   0.262029
14   0.354409

$$$$

