PCCDB-ID:  61659
public computational chemistry database (PCCDB) project, http://pccdb.org

 23 24  0  0  0  0  0  0  0  0999 V2000
    4.6516    0.5634    2.4636 C   0  0  0  0  0  0  0  0  0  0  0  0
    4.8468   -3.6872   -3.3413 C   0  0  0  0  0  0  0  0  0  0  0  0
    3.3413    0.2583    1.9686 C   0  0  0  0  0  0  0  0  0  0  0  0
    4.9548   -3.2320   -1.9859 C   0  0  0  0  0  0  0  0  0  0  0  0
    5.5153   -0.2000    1.7428 C   0  0  0  0  0  0  0  0  0  0  0  0
    3.9202   -4.6836   -3.3291 C   0  0  0  0  0  0  0  0  0  0  0  0
    2.5544   -1.3890    0.0886 C   0  0  0  0  0  0  0  0  0  0  0  0
    3.7199   -3.9939    0.1877 C   0  0  0  0  0  0  0  0  0  0  0  0
    3.4987   -0.6679    0.9785 C   0  0  0  0  0  0  0  0  0  0  0  0
    4.0869   -3.9889   -1.2487 C   0  0  0  0  0  0  0  0  0  0  0  0
    4.8344   -0.9571    0.8313 O   0  0  0  0  0  0  0  0  0  0  0  0
    3.4461   -4.8814   -2.0661 O   0  0  0  0  0  0  0  0  0  0  0  0
    2.1289   -3.1210    0.5945 S   0  0  0  0  0  0  0  0  0  0  0  0
    4.9098    1.2598    3.2493 H   0  0  0  0  0  0  0  0  0  0  0  0
    5.3891   -3.3215   -4.2022 H   0  0  0  0  0  0  0  0  0  0  0  0
    2.4019    0.6732    2.3073 H   0  0  0  0  0  0  0  0  0  0  0  0
    5.5916   -2.4482   -1.5998 H   0  0  0  0  0  0  0  0  0  0  0  0
    6.5880   -0.3186    1.7414 H   0  0  0  0  0  0  0  0  0  0  0  0
    3.5070   -5.3287   -4.0894 H   0  0  0  0  0  0  0  0  0  0  0  0
    2.9347   -1.4262   -0.9375 H   0  0  0  0  0  0  0  0  0  0  0  0
    1.5955   -0.8646    0.0730 H   0  0  0  0  0  0  0  0  0  0  0  0
    4.5219   -3.5457    0.7771 H   0  0  0  0  0  0  0  0  0  0  0  0
    3.5580   -5.0153    0.5451 H   0  0  0  0  0  0  0  0  0  0  0  0
  1 14  1  0  0  0  0
  2  6  2  0  0  0  0
  2  4  1  0  0  0  0
  3 16  1  0  0  0  0
  3  1  1  0  0  0  0
  4 17  1  0  0  0  0
  4 10  2  0  0  0  0
  5  1  2  0  0  0  0
  6 12  1  0  0  0  0
  7 13  1  0  0  0  0
  7  9  1  0  0  0  0
  8 23  1  0  0  0  0
  8 13  1  0  0  0  0
  8 22  1  0  0  0  0
  9  3  2  0  0  0  0
 10  8  1  0  0  0  0
 11  9  1  0  0  0  0
 11  5  1  0  0  0  0
 12 10  1  0  0  0  0
 15  2  1  0  0  0  0
 18  5  1  0  0  0  0
 19  6  1  0  0  0  0
 20  7  1  0  0  0  0
 21  7  1  0  0  0  0
M  END
>  <HBA>
3

>  <HBD>
0

>  <TPSA>
51.58

>  <cid>
61659

>  <dipole>
2.1

>  <excitation_energy_1>
4.761

>  <excitation_energy_2>
4.924

>  <excitation_energy_3>
5.245

>  <excitation_energy_4>
5.352

>  <homo_energy>
-5.788

>  <homo_lumo_gap>
5.793

>  <logP>
3.306

>  <lumo_energy>
0.005

>  <melting_point>
44.31

>  <molecular_refractivity>
52.83

>  <oscillator_strength_1>
0.0081

>  <oscillator_strength_2>
0.0715

>  <oscillator_strength_3>
0.0127

>  <oscillator_strength_4>
0.0021

>  <open_babel_can_smiles>
S(Cc1ccco1)Cc1ccco1

>  <mulliken_charges>
23
1   -0.178681
2   -0.181042
3   -0.195961
4   -0.208146
5   0.080144
6   0.083889
7   -0.532282
8   -0.523308
9   0.372185
10   0.365401
11   -0.440801
12   -0.427832
13   0.109072
14   0.143228
15   0.140514
16   0.141385
17   0.149426
18   0.154509
19   0.154428
20   0.201631
21   0.192755
22   0.204497
23   0.194989

>  <lowdin_charges>
23
1   -0.201494
2   -0.208278
3   -0.211137
4   -0.219207
5   -0.082437
6   -0.079215
7   -0.378588
8   -0.376218
9   0.062849
10   0.056494
11   -0.111677
12   -0.096821
13   0.097021
14   0.170741
15   0.169665
16   0.16986
17   0.173074
18   0.168697
19   0.172341
20   0.177757
21   0.183721
22   0.180315
23   0.182536

$$$$

