PCCDB-ID:  18330
public computational chemistry database (PCCDB) project, http://pccdb.org

 18 17  0  0  0  0  0  0  0  0999 V2000
    0.9646    2.5111   -0.8797 C   0  0  0  0  0  0  0  0  0  0  0  0
   -2.1043    0.0345    2.6588 C   0  0  0  0  0  0  0  0  0  0  0  0
    0.5658    2.4670    0.6052 C   0  0  0  0  0  0  0  0  0  0  0  0
   -1.0619    1.1522    2.4832 C   0  0  0  0  0  0  0  0  0  0  0  0
   -0.1587    2.4801   -1.7261 O   0  0  0  0  0  0  0  0  0  0  0  0
   -3.1116    0.0970    1.6785 O   0  0  0  0  0  0  0  0  0  0  0  0
   -0.9574    0.3338   -0.1042 O   0  0  0  0  0  0  0  0  0  0  0  0
   -0.0001    0.7625    1.0263 S   0  0  0  0  0  0  0  0  0  0  0  0
    1.6805    1.7000   -1.0995 H   0  0  0  0  0  0  0  0  0  0  0  0
    1.4854    3.4562   -1.0690 H   0  0  0  0  0  0  0  0  0  0  0  0
   -2.5914    0.1668    3.6310 H   0  0  0  0  0  0  0  0  0  0  0  0
   -1.5998   -0.9472    2.6825 H   0  0  0  0  0  0  0  0  0  0  0  0
   -0.2517    3.1727    0.7816 H   0  0  0  0  0  0  0  0  0  0  0  0
    1.4076    2.6908    1.2716 H   0  0  0  0  0  0  0  0  0  0  0  0
   -0.3905    1.2371    3.3463 H   0  0  0  0  0  0  0  0  0  0  0  0
   -1.5760    2.1027    2.3113 H   0  0  0  0  0  0  0  0  0  0  0  0
   -0.6411    1.6569   -1.5084 H   0  0  0  0  0  0  0  0  0  0  0  0
   -2.6557    0.0321    0.8150 H   0  0  0  0  0  0  0  0  0  0  0  0
  1  3  1  0  0  0  0
  2 12  1  0  0  0  0
  2 11  1  0  0  0  0
  3 13  1  0  0  0  0
  3  8  1  0  0  0  0
  3 14  1  0  0  0  0
  4  2  1  0  0  0  0
  4 15  1  0  0  0  0
  5 17  1  0  0  0  0
  5  1  1  0  0  0  0
  6  2  1  0  0  0  0
  7  8  2  0  0  0  0
  8  4  1  0  0  0  0
  9  1  1  0  0  0  0
 10  1  1  0  0  0  0
 16  4  1  0  0  0  0
 18  6  1  0  0  0  0
M  END
>  <HBA>
3

>  <HBD>
2

>  <TPSA>
76.74

>  <cid>
18330

>  <dipole>
5.15

>  <excitation_energy_1>
5.511

>  <excitation_energy_2>
5.686

>  <excitation_energy_3>
6.131

>  <excitation_energy_4>
6.296

>  <homo_energy>
-6.768

>  <homo_lumo_gap>
6.985

>  <logP>
-0.415

>  <lumo_energy>
0.218

>  <melting_point>
31.3

>  <molecular_refractivity>
31.94

>  <oscillator_strength_1>
0.0067

>  <oscillator_strength_2>
0.0428

>  <oscillator_strength_3>
0.0086

>  <oscillator_strength_4>
0.0007

>  <open_babel_can_smiles>
OCCS(=O)CCO

>  <mulliken_charges>
18
1   -0.033083
2   -0.033112
3   -0.486245
4   -0.486398
5   -0.628848
6   -0.62881
7   -0.685147
8   0.781553
9   0.139022
10   0.159471
11   0.159475
12   0.138977
13   0.198395
14   0.17532
15   0.175406
16   0.198341
17   0.427821
18   0.427862

>  <lowdin_charges>
18
1   -0.131679
2   -0.132559
3   -0.440303
4   -0.437401
5   -0.472918
6   -0.471902
7   -0.69565
8   0.80243
9   0.135061
10   0.155541
11   0.155037
12   0.134151
13   0.175518
14   0.174568
15   0.174554
16   0.174747
17   0.350379
18   0.350425

$$$$

