PCCDB-ID:  20509
public computational chemistry database (PCCDB) project, http://pccdb.org

 26 26  0  0  0  0  0  0  0  0999 V2000
    0.4305    1.5971   -1.3783 C   0  0  0  0  0  0  0  0  0  0  0  0
    1.4109    0.4837   -0.9767 C   0  0  0  0  0  0  0  0  0  0  0  0
   -0.7701    1.6597   -0.4216 C   0  0  0  0  0  0  0  0  0  0  0  0
    0.7014   -0.8760   -0.8546 C   0  0  0  0  0  0  0  0  0  0  0  0
   -1.4677    0.2935   -0.3141 C   0  0  0  0  0  0  0  0  0  0  0  0
   -0.1186   -0.7409    1.6001 C   0  0  0  0  0  0  0  0  0  0  0  0
    0.5232   -2.0064    2.1761 C   0  0  0  0  0  0  0  0  0  0  0  0
   -0.5090   -0.8431    0.1093 C   0  0  0  0  0  0  0  0  0  0  0  0
    0.7509   -1.8490    3.6198 N   0  0  0  0  0  0  0  0  0  0  0  0
    0.0658    1.4029   -2.3983 H   0  0  0  0  0  0  0  0  0  0  0  0
    0.9457    2.5659   -1.4116 H   0  0  0  0  0  0  0  0  0  0  0  0
    1.8846    0.7452   -0.0200 H   0  0  0  0  0  0  0  0  0  0  0  0
    2.2242    0.4118   -1.7104 H   0  0  0  0  0  0  0  0  0  0  0  0
   -1.4874    2.4165   -0.7647 H   0  0  0  0  0  0  0  0  0  0  0  0
   -0.4311    1.9862    0.5715 H   0  0  0  0  0  0  0  0  0  0  0  0
    1.4177   -1.6484   -0.5479 H   0  0  0  0  0  0  0  0  0  0  0  0
    0.3409   -1.1731   -1.8503 H   0  0  0  0  0  0  0  0  0  0  0  0
   -1.8962    0.0428   -1.2958 H   0  0  0  0  0  0  0  0  0  0  0  0
   -2.3104    0.3513    0.3874 H   0  0  0  0  0  0  0  0  0  0  0  0
    0.5611    0.1076    1.7639 H   0  0  0  0  0  0  0  0  0  0  0  0
   -1.0157   -0.5283    2.1959 H   0  0  0  0  0  0  0  0  0  0  0  0
    1.4390   -2.2564    1.6108 H   0  0  0  0  0  0  0  0  0  0  0  0
   -0.1655   -2.8511    2.0418 H   0  0  0  0  0  0  0  0  0  0  0  0
   -1.0543   -1.7918   -0.0094 H   0  0  0  0  0  0  0  0  0  0  0  0
    1.4474   -1.1199    3.7740 H   0  0  0  0  0  0  0  0  0  0  0  0
    1.1563   -2.7040    3.9984 H   0  0  0  0  0  0  0  0  0  0  0  0
  1  2  1  0  0  0  0
  1  3  1  0  0  0  0
  2  4  1  0  0  0  0
  2 12  1  0  0  0  0
  3  5  1  0  0  0  0
  3 15  1  0  0  0  0
  4 16  1  0  0  0  0
  4  8  1  0  0  0  0
  5  8  1  0  0  0  0
  5 19  1  0  0  0  0
  6 20  1  0  0  0  0
  6  7  1  0  0  0  0
  6 21  1  0  0  0  0
  7  9  1  0  0  0  0
  8  6  1  0  0  0  0
  9 25  1  0  0  0  0
  9 26  1  0  0  0  0
 10  1  1  0  0  0  0
 11  1  1  0  0  0  0
 13  2  1  0  0  0  0
 14  3  1  0  0  0  0
 17  4  1  0  0  0  0
 18  5  1  0  0  0  0
 22  7  1  0  0  0  0
 23  7  1  0  0  0  0
 24  8  1  0  0  0  0
M  END
>  <HBA>
1

>  <HBD>
1

>  <TPSA>
26.02

>  <cid>
20509

>  <dipole>
1.34

>  <excitation_energy_1>
5.521

>  <excitation_energy_2>
6.2

>  <excitation_energy_3>
6.255

>  <excitation_energy_4>
6.529

>  <homo_energy>
-6.196

>  <homo_lumo_gap>
8.319

>  <logP>
2.616

>  <lumo_energy>
2.123

>  <melting_point>
48.94

>  <molecular_refractivity>
41.16

>  <oscillator_strength_1>
0.012

>  <oscillator_strength_2>
0.0132

>  <oscillator_strength_3>
0.0002

>  <oscillator_strength_4>
0.0253

>  <open_babel_can_smiles>
NCCC1CCCCC1

>  <mulliken_charges>
26
1   -0.254091
2   -0.25941
3   -0.260013
4   -0.26742
5   -0.264576
6   -0.255667
7   -0.141001
8   -0.076743
9   -0.716592
10   0.125603
11   0.127559
12   0.12835
13   0.128614
14   0.128868
15   0.132316
16   0.129144
17   0.125609
18   0.12369
19   0.128171
20   0.124033
21   0.145344
22   0.114518
23   0.136418
24   0.114096
25   0.289712
26   0.293468

>  <lowdin_charges>
26
1   -0.276667
2   -0.280452
3   -0.280782
4   -0.282798
5   -0.278399
6   -0.285206
7   -0.206504
8   -0.128912
9   -0.56092
10   0.135304
11   0.141469
12   0.136343
13   0.14334
14   0.143891
15   0.138269
16   0.141182
17   0.138384
18   0.137131
19   0.142141
20   0.135581
21   0.150363
22   0.116966
23   0.140015
24   0.13629
25   0.250362
26   0.25361

$$$$

