PCCDB-ID:  41012
public computational chemistry database (PCCDB) project, http://pccdb.org

 27 27  0  0  0  0  0  0  0  0999 V2000
    1.1504   -0.7561   -0.0642 C   0  0  0  0  0  0  0  0  0  0  0  0
    2.8806    4.3639   -2.2588 C   0  0  0  0  0  0  0  0  0  0  0  0
    4.5702    0.2041   -4.5581 C   0  0  0  0  0  0  0  0  0  0  0  0
    3.8342   -1.4204   -2.2573 C   0  0  0  0  0  0  0  0  0  0  0  0
    2.5104   -0.0570    0.1144 C   0  0  0  0  0  0  0  0  0  0  0  0
    3.6888    2.2234   -3.3493 C   0  0  0  0  0  0  0  0  0  0  0  0
    2.7444    2.0866   -1.1588 C   0  0  0  0  0  0  0  0  0  0  0  0
    3.0992    2.8685   -2.2592 C   0  0  0  0  0  0  0  0  0  0  0  0
    3.9288    0.8468   -3.3491 C   0  0  0  0  0  0  0  0  0  0  0  0
    3.5665    0.0697   -2.2270 C   0  0  0  0  0  0  0  0  0  0  0  0
    2.9653    0.7036   -1.1196 C   0  0  0  0  0  0  0  0  0  0  0  0
    0.8571   -1.2827    0.8517 H   0  0  0  0  0  0  0  0  0  0  0  0
    1.1785   -1.4871   -0.8798 H   0  0  0  0  0  0  0  0  0  0  0  0
    0.3685   -0.0265   -0.3028 H   0  0  0  0  0  0  0  0  0  0  0  0
    2.7838    4.7550   -3.2774 H   0  0  0  0  0  0  0  0  0  0  0  0
    3.7205    4.8918   -1.7869 H   0  0  0  0  0  0  0  0  0  0  0  0
    1.9757    4.6377   -1.7050 H   0  0  0  0  0  0  0  0  0  0  0  0
    4.7813    0.9482   -5.3322 H   0  0  0  0  0  0  0  0  0  0  0  0
    3.9258   -0.5658   -5.0025 H   0  0  0  0  0  0  0  0  0  0  0  0
    5.5179   -0.2894   -4.3052 H   0  0  0  0  0  0  0  0  0  0  0  0
    3.2639   -1.9143   -3.0556 H   0  0  0  0  0  0  0  0  0  0  0  0
    3.5735   -1.9151   -1.3205 H   0  0  0  0  0  0  0  0  0  0  0  0
    4.8926   -1.6322   -2.4563 H   0  0  0  0  0  0  0  0  0  0  0  0
    3.2628   -0.7958    0.4159 H   0  0  0  0  0  0  0  0  0  0  0  0
    2.4343    0.6491    0.9502 H   0  0  0  0  0  0  0  0  0  0  0  0
    3.9712    2.8063   -4.2244 H   0  0  0  0  0  0  0  0  0  0  0  0
    2.2808    2.5652   -0.2973 H   0  0  0  0  0  0  0  0  0  0  0  0
  1  5  1  0  0  0  0
  1 12  1  0  0  0  0
  2 16  1  0  0  0  0
  2 17  1  0  0  0  0
  3 20  1  0  0  0  0
  3  9  1  0  0  0  0
  4 10  1  0  0  0  0
  4 22  1  0  0  0  0
  5 24  1  0  0  0  0
  5 25  1  0  0  0  0
  6  9  2  0  0  0  0
  6  8  1  0  0  0  0
  7 11  1  0  0  0  0
  7 27  1  0  0  0  0
  8  2  1  0  0  0  0
  8  7  2  0  0  0  0
  9 10  1  0  0  0  0
 10 11  2  0  0  0  0
 11  5  1  0  0  0  0
 13  1  1  0  0  0  0
 14  1  1  0  0  0  0
 15  2  1  0  0  0  0
 18  3  1  0  0  0  0
 19  3  1  0  0  0  0
 21  4  1  0  0  0  0
 23  4  1  0  0  0  0
 26  6  1  0  0  0  0
M  END
>  <HBA>
0

>  <HBD>
0

>  <TPSA>
0.0

>  <cid>
41012

>  <dipole>
0.27

>  <excitation_energy_1>
5.059

>  <excitation_energy_2>
5.55

>  <excitation_energy_3>
5.646

>  <excitation_energy_4>
5.81

>  <homo_energy>
-5.948

>  <homo_lumo_gap>
6.234

>  <logP>
3.174

>  <lumo_energy>
0.286

>  <melting_point>
21.0

>  <molecular_refractivity>
51.11

>  <oscillator_strength_1>
0.0017

>  <oscillator_strength_2>
0.0126

>  <oscillator_strength_3>
0.004

>  <oscillator_strength_4>
0.0453

>  <open_babel_can_smiles>
CCc1cc(C)cc(c1C)C

>  <mulliken_charges>
27
1   -0.435918
2   -0.530989
3   -0.532857
4   -0.536477
5   -0.348806
6   -0.249566
7   -0.252279
8   0.199431
9   0.142733
10   0.064412
11   0.135419
12   0.140766
13   0.149068
14   0.14947
15   0.153171
16   0.162025
17   0.154235
18   0.152804
19   0.156515
20   0.156887
21   0.157291
22   0.155608
23   0.155593
24   0.143371
25   0.141099
26   0.108687
27   0.108307

>  <lowdin_charges>
27
1   -0.443985
2   -0.442425
3   -0.442801
4   -0.44669
5   -0.275115
6   -0.184231
7   -0.184397
8   -0.002336
9   -0.005616
10   -0.023401
11   -0.008993
12   0.14825
13   0.149974
14   0.15188
15   0.155104
16   0.160492
17   0.156822
18   0.15637
19   0.157705
20   0.156578
21   0.158207
22   0.15856
23   0.155504
24   0.147932
25   0.148631
26   0.149077
27   0.148905

$$$$

