PCCDB-ID:  33032
public computational chemistry database (PCCDB) project, http://pccdb.org

 19 18  0  0  1  0  0  0  0  0999 V2000
    0.9797    0.4314    0.1200 C   0  0  0  0  0  0  0  0  0  0  0  0
    0.3082    1.6148   -0.5970 C   0  0  0  0  0  0  0  0  0  0  0  0
    2.0821   -0.2301   -0.7218 C   0  0  2  0  0  0  0  0  0  0  0  0
   -0.6721    2.3928    0.2762 C   0  0  0  0  0  0  0  0  0  0  0  0
    2.4824   -1.5967   -0.1097 C   0  0  0  0  0  0  0  0  0  0  0  0
    3.2979    0.5722   -0.9402 N   0  0  0  0  0  0  0  0  0  0  0  0
   -0.6128    3.5817    0.4600 O   0  0  0  0  0  0  0  0  0  0  0  0
   -1.6582    1.6603    0.8615 O   0  0  0  0  0  0  0  0  0  0  0  0
    1.6807   -2.3438    0.4013 O   0  0  0  0  0  0  0  0  0  0  0  0
    3.7838   -1.8813   -0.2352 O   0  0  0  0  0  0  0  0  0  0  0  0
    0.2580   -0.3534    0.3730 H   0  0  0  0  0  0  0  0  0  0  0  0
    1.4145    0.7684    1.0714 H   0  0  0  0  0  0  0  0  0  0  0  0
   -0.2269    1.2521   -1.4872 H   0  0  0  0  0  0  0  0  0  0  0  0
    1.0519    2.3403   -0.9368 H   0  0  0  0  0  0  0  0  0  0  0  0
    1.6754   -0.4706   -1.7140 H   0  0  0  0  0  0  0  0  0  0  0  0
    3.4987    1.1584   -0.1308 H   0  0  0  0  0  0  0  0  0  0  0  0
    3.2134    1.1863   -1.7454 H   0  0  0  0  0  0  0  0  0  0  0  0
   -1.5733    0.7217    0.6253 H   0  0  0  0  0  0  0  0  0  0  0  0
    4.1802   -1.0800   -0.6618 H   0  0  0  0  0  0  0  0  0  0  0  0
  1 11  1  0  0  0  0
  1 12  1  0  0  0  0
  2  1  1  0  0  0  0
  2  4  1  0  0  0  0
  3 15  1  6  0  0  0
  3  5  1  0  0  0  0
  3  1  1  0  0  0  0
  4  7  2  0  0  0  0
  4  8  1  0  0  0  0
  5  9  2  0  0  0  0
  6  3  1  0  0  0  0
  6 16  1  0  0  0  0
 10  5  1  0  0  0  0
 13  2  1  0  0  0  0
 14  2  1  0  0  0  0
 17  6  1  0  0  0  0
 18  8  1  0  0  0  0
 19 10  1  0  0  0  0
M  END
>  <HBA>
5

>  <HBD>
3

>  <TPSA>
100.62

>  <cid>
33032

>  <dipole>
3.81

>  <excitation_energy_1>
5.414

>  <excitation_energy_2>
5.588

>  <excitation_energy_3>
6.195

>  <excitation_energy_4>
6.475

>  <homo_energy>
-7.222

>  <homo_lumo_gap>
7.018

>  <logP>
-0.037

>  <lumo_energy>
-0.204

>  <melting_point>
182.67

>  <molecular_refractivity>
32.4

>  <oscillator_strength_1>
0.0029

>  <oscillator_strength_2>
0.0012

>  <oscillator_strength_3>
0.007

>  <oscillator_strength_4>
0.0105

>  <open_babel_can_smiles>
OC(=O)CC[C@H](C(=O)O)N

>  <mulliken_charges>
19
1   -0.29258
2   -0.388398
3   -0.089163
4   0.595343
5   0.615907
6   -0.769079
7   -0.433199
8   -0.559995
9   -0.464207
10   -0.57582
11   0.174005
12   0.162674
13   0.16955
14   0.167002
15   0.178663
16   0.327989
17   0.33171
18   0.414064
19   0.435531

>  <lowdin_charges>
19
1   -0.289615
2   -0.32247
3   -0.108449
4   0.190162
5   0.177616
6   -0.545127
7   -0.232684
8   -0.352155
9   -0.257803
10   -0.348745
11   0.165295
12   0.156048
13   0.164904
14   0.166549
15   0.167307
16   0.272422
17   0.276874
18   0.357797
19   0.362073

$$$$

