PCCDB-ID:  30682
public computational chemistry database (PCCDB) project, http://pccdb.org

 22 23  0  0  0  0  0  0  0  0999 V2000
   -1.2619    1.3617   -0.0718 C   0  0  0  0  0  0  0  0  0  0  0  0
    2.4478   -0.6655   -0.0353 C   0  0  0  0  0  0  0  0  0  0  0  0
    1.2771   -1.3804    0.0197 C   0  0  0  0  0  0  0  0  0  0  0  0
   -2.4359    0.6422   -0.0164 C   0  0  0  0  0  0  0  0  0  0  0  0
    1.2151    1.4069   -0.1078 C   0  0  0  0  0  0  0  0  0  0  0  0
   -0.0117    0.6959   -0.0602 C   0  0  0  0  0  0  0  0  0  0  0  0
    2.4356    0.7571   -0.0988 C   0  0  0  0  0  0  0  0  0  0  0  0
    0.0067   -0.7392    0.0107 C   0  0  0  0  0  0  0  0  0  0  0  0
   -2.4320   -0.7662    0.0543 C   0  0  0  0  0  0  0  0  0  0  0  0
   -1.2246   -1.4533    0.0684 C   0  0  0  0  0  0  0  0  0  0  0  0
    3.6493    1.4475   -0.2144 N   0  0  0  0  0  0  0  0  0  0  0  0
   -3.5871   -1.5034    0.1124 O   0  0  0  0  0  0  0  0  0  0  0  0
   -1.2961   -2.8176    0.1386 O   0  0  0  0  0  0  0  0  0  0  0  0
   -1.2874    2.4464   -0.1258 H   0  0  0  0  0  0  0  0  0  0  0  0
    3.4020   -1.1874   -0.0414 H   0  0  0  0  0  0  0  0  0  0  0  0
    1.3536   -2.4654    0.0690 H   0  0  0  0  0  0  0  0  0  0  0  0
   -3.3939    1.1605   -0.0263 H   0  0  0  0  0  0  0  0  0  0  0  0
    1.1808    2.4937   -0.1588 H   0  0  0  0  0  0  0  0  0  0  0  0
    4.4350    0.9926    0.2353 H   0  0  0  0  0  0  0  0  0  0  0  0
    3.6002    2.4246    0.0489 H   0  0  0  0  0  0  0  0  0  0  0  0
   -4.3383   -0.8916    0.0884 H   0  0  0  0  0  0  0  0  0  0  0  0
   -0.4008   -3.1843    0.1491 H   0  0  0  0  0  0  0  0  0  0  0  0
  1  6  2  0  0  0  0
  1  4  1  0  0  0  0
  2  3  2  0  0  0  0
  3 16  1  0  0  0  0
  4  9  2  0  0  0  0
  5  7  2  0  0  0  0
  5  6  1  0  0  0  0
  6  8  1  0  0  0  0
  7  2  1  0  0  0  0
  8  3  1  0  0  0  0
  8 10  2  0  0  0  0
  9 10  1  0  0  0  0
  9 12  1  0  0  0  0
 10 13  1  0  0  0  0
 11  7  1  0  0  0  0
 11 20  1  0  0  0  0
 11 19  1  0  0  0  0
 13 22  1  0  0  0  0
 14  1  1  0  0  0  0
 15  2  1  0  0  0  0
 17  4  1  0  0  0  0
 18  5  1  0  0  0  0
 21 12  1  0  0  0  0
M  END
>  <HBA>
3

>  <HBD>
3

>  <TPSA>
66.48

>  <cid>
30682

>  <dipole>
2.9

>  <excitation_energy_1>
3.476

>  <excitation_energy_2>
4.204

>  <excitation_energy_3>
4.249

>  <excitation_energy_4>
4.365

>  <homo_energy>
-4.746

>  <homo_lumo_gap>
4.027

>  <logP>
2.414

>  <lumo_energy>
-0.718

>  <melting_point>
179.76

>  <molecular_refractivity>
52.4

>  <oscillator_strength_1>
0.0532

>  <oscillator_strength_2>
0.0072

>  <oscillator_strength_3>
0.0041

>  <oscillator_strength_4>
0.0018

>  <open_babel_can_smiles>
Nc1ccc2c(c1)ccc(c2O)O

>  <mulliken_charges>
22
1   -0.212301
2   -0.16873
3   -0.2231
4   -0.194573
5   -0.264206
6   0.145113
7   0.310584
8   0.120145
9   0.315532
10   0.198467
11   -0.790397
12   -0.639414
13   -0.638122
14   0.122536
15   0.121065
16   0.1101
17   0.11682
18   0.114107
19   0.317868
20   0.319107
21   0.404192
22   0.415207

>  <lowdin_charges>
22
1   -0.178215
2   -0.183877
3   -0.161049
4   -0.193319
5   -0.205661
6   0.007281
7   0.050945
8   -0.047089
9   0.060697
10   0.07315
11   -0.489376
12   -0.377765
13   -0.370756
14   0.154194
15   0.155402
16   0.144118
17   0.153309
18   0.149752
19   0.275176
20   0.273113
21   0.356575
22   0.353396

$$$$

