PCCDB-ID:  8146
public computational chemistry database (PCCDB) project, http://pccdb.org

 23 22  0  0  0  0  0  0  0  0999 V2000
    0.4806   -0.3036   -2.8019 C   0  0  0  0  0  0  0  0  0  0  0  0
    1.3568    0.1275   -1.6376 C   0  0  0  0  0  0  0  0  0  0  0  0
    8.1262    1.1868    0.1407 C   0  0  0  0  0  0  0  0  0  0  0  0
    7.2806    0.9057   -1.0918 C   0  0  0  0  0  0  0  0  0  0  0  0
    3.6152    0.5255   -1.0622 C   0  0  0  0  0  0  0  0  0  0  0  0
    5.0117    0.4908   -1.6659 C   0  0  0  0  0  0  0  0  0  0  0  0
    7.9466    0.1843    1.1259 O   0  0  0  0  0  0  0  0  0  0  0  0
    2.7077    0.1356   -2.0711 O   0  0  0  0  0  0  0  0  0  0  0  0
    5.9271    0.8840   -0.6591 O   0  0  0  0  0  0  0  0  0  0  0  0
   -0.5726   -0.3233   -2.5010 H   0  0  0  0  0  0  0  0  0  0  0  0
    0.7630   -1.3041   -3.1450 H   0  0  0  0  0  0  0  0  0  0  0  0
    0.5892    0.3902   -3.6418 H   0  0  0  0  0  0  0  0  0  0  0  0
    1.2379   -0.5627   -0.7849 H   0  0  0  0  0  0  0  0  0  0  0  0
    1.0675    1.1319   -1.2840 H   0  0  0  0  0  0  0  0  0  0  0  0
    7.8714    2.1856    0.5312 H   0  0  0  0  0  0  0  0  0  0  0  0
    9.1878    1.1893   -0.1280 H   0  0  0  0  0  0  0  0  0  0  0  0
    7.5569   -0.0698   -1.5225 H   0  0  0  0  0  0  0  0  0  0  0  0
    7.4327    1.6801   -1.8618 H   0  0  0  0  0  0  0  0  0  0  0  0
    3.3942    1.5415   -0.6956 H   0  0  0  0  0  0  0  0  0  0  0  0
    3.5671   -0.1562   -0.1966 H   0  0  0  0  0  0  0  0  0  0  0  0
    5.0600    1.1735   -2.5286 H   0  0  0  0  0  0  0  0  0  0  0  0
    5.2370   -0.5241   -2.0292 H   0  0  0  0  0  0  0  0  0  0  0  0
    6.9843    0.0918    1.2242 H   0  0  0  0  0  0  0  0  0  0  0  0
  1 10  1  0  0  0  0
  1  2  1  0  0  0  0
  2 14  1  0  0  0  0
  2 13  1  0  0  0  0
  3 15  1  0  0  0  0
  3  7  1  0  0  0  0
  4  9  1  0  0  0  0
  4  3  1  0  0  0  0
  5 19  1  0  0  0  0
  5 20  1  0  0  0  0
  6  5  1  0  0  0  0
  6  9  1  0  0  0  0
  7 23  1  0  0  0  0
  8  2  1  0  0  0  0
  8  5  1  0  0  0  0
 11  1  1  0  0  0  0
 12  1  1  0  0  0  0
 16  3  1  0  0  0  0
 17  4  1  0  0  0  0
 18  4  1  0  0  0  0
 21  6  1  0  0  0  0
 22  6  1  0  0  0  0
M  END
>  <HBA>
3

>  <HBD>
1

>  <TPSA>
38.69

>  <cid>
8146

>  <dipole>
2.04

>  <excitation_energy_1>
6.666

>  <excitation_energy_2>
6.834

>  <excitation_energy_3>
6.867

>  <excitation_energy_4>
6.99

>  <homo_energy>
-6.993

>  <homo_lumo_gap>
9.078

>  <logP>
0.032

>  <lumo_energy>
2.084

>  <melting_point>
-25.84

>  <molecular_refractivity>
34.29

>  <oscillator_strength_1>
0.0239

>  <oscillator_strength_2>
0.0078

>  <oscillator_strength_3>
0.0017

>  <oscillator_strength_4>
0.0004

>  <open_babel_can_smiles>
OCCOCCOCC

>  <mulliken_charges>
23
1   -0.453822
2   -0.002599
3   -0.034928
4   -0.031494
5   -0.021201
6   -0.0226
7   -0.621224
8   -0.479037
9   -0.49934
10   0.144498
11   0.159107
12   0.158744
13   0.121106
14   0.121046
15   0.130146
16   0.145268
17   0.13387
18   0.12298
19   0.130828
20   0.126827
21   0.135472
22   0.137519
23   0.398833

>  <lowdin_charges>
23
1   -0.447108
2   -0.12205
3   -0.136497
4   -0.147251
5   -0.134155
6   -0.132895
7   -0.466115
8   -0.274973
9   -0.282875
10   0.153679
11   0.156856
12   0.157731
13   0.12665
14   0.125789
15   0.131277
16   0.148944
17   0.134992
18   0.133364
19   0.131383
20   0.13066
21   0.136109
22   0.135378
23   0.341107

$$$$

