PCCDB-ID:  54031
public computational chemistry database (PCCDB) project, http://pccdb.org

 29 29  0  0  0  0  0  0  0  0999 V2000
    1.0621   -0.1817   -0.7161 C   0  0  0  0  0  0  0  0  0  0  0  0
    1.7333    5.4432   -0.7666 C   0  0  0  0  0  0  0  0  0  0  0  0
    6.8026   -0.7781    1.0007 C   0  0  0  0  0  0  0  0  0  0  0  0
    6.3249   -0.5010   -1.4126 C   0  0  0  0  0  0  0  0  0  0  0  0
    1.5702    0.7168    0.4139 C   0  0  0  0  0  0  0  0  0  0  0  0
    3.4921    3.5011   -0.9378 C   0  0  0  0  0  0  0  0  0  0  0  0
    2.2240    4.0363   -0.6052 C   0  0  0  0  0  0  0  0  0  0  0  0
    3.3989    2.1751   -0.5762 C   0  0  0  0  0  0  0  0  0  0  0  0
    5.0056    0.7010    0.3360 C   0  0  0  0  0  0  0  0  0  0  0  0
    1.4237    3.1016   -0.0858 N   0  0  0  0  0  0  0  0  0  0  0  0
    5.9956   -0.1538   -0.0375 N   0  0  0  0  0  0  0  0  0  0  0  0
    2.1575    1.9590   -0.0711 N   0  0  0  0  0  0  0  0  0  0  0  0
    4.7270    1.0254    1.4728 O   0  0  0  0  0  0  0  0  0  0  0  0
    4.3020    1.1589   -0.7740 O   0  0  0  0  0  0  0  0  0  0  0  0
    0.6094   -1.0888   -0.2997 H   0  0  0  0  0  0  0  0  0  0  0  0
    1.8798   -0.4814   -1.3799 H   0  0  0  0  0  0  0  0  0  0  0  0
    0.3064    0.3404   -1.3115 H   0  0  0  0  0  0  0  0  0  0  0  0
    2.3571    6.1536   -0.2107 H   0  0  0  0  0  0  0  0  0  0  0  0
    0.7084    5.5204   -0.3934 H   0  0  0  0  0  0  0  0  0  0  0  0
    1.7409    5.7553   -1.8183 H   0  0  0  0  0  0  0  0  0  0  0  0
    6.7283   -1.8713    0.9347 H   0  0  0  0  0  0  0  0  0  0  0  0
    6.4442   -0.4467    1.9740 H   0  0  0  0  0  0  0  0  0  0  0  0
    7.8572   -0.4964    0.8857 H   0  0  0  0  0  0  0  0  0  0  0  0
    6.1754   -1.5758   -1.5812 H   0  0  0  0  0  0  0  0  0  0  0  0
    7.3780   -0.2667   -1.6155 H   0  0  0  0  0  0  0  0  0  0  0  0
    5.6978    0.0569   -2.1035 H   0  0  0  0  0  0  0  0  0  0  0  0
    2.3171    0.2077    1.0288 H   0  0  0  0  0  0  0  0  0  0  0  0
    0.7497    1.0211    1.0672 H   0  0  0  0  0  0  0  0  0  0  0  0
    4.3487    3.9989   -1.3679 H   0  0  0  0  0  0  0  0  0  0  0  0
  1 15  1  0  0  0  0
  1  5  1  0  0  0  0
  2  7  1  0  0  0  0
  2 19  1  0  0  0  0
  2 18  1  0  0  0  0
  3 22  1  0  0  0  0
  4 11  1  0  0  0  0
  5 27  1  0  0  0  0
  5 28  1  0  0  0  0
  6  7  1  0  0  0  0
  6  8  2  0  0  0  0
  7 10  2  0  0  0  0
  8 12  1  0  0  0  0
  9 13  2  0  0  0  0
 10 12  1  0  0  0  0
 11  9  1  0  0  0  0
 11  3  1  0  0  0  0
 12  5  1  0  0  0  0
 14  8  1  0  0  0  0
 14  9  1  0  0  0  0
 16  1  1  0  0  0  0
 17  1  1  0  0  0  0
 20  2  1  0  0  0  0
 21  3  1  0  0  0  0
 23  3  1  0  0  0  0
 24  4  1  0  0  0  0
 25  4  1  0  0  0  0
 26  4  1  0  0  0  0
 29  6  1  0  0  0  0
M  END
>  <HBA>
5

>  <HBD>
0

>  <TPSA>
47.36

>  <cid>
54031

>  <dipole>
4.45

>  <excitation_energy_1>
5.66

>  <excitation_energy_2>
5.76

>  <excitation_energy_3>
6.092

>  <excitation_energy_4>
6.122

>  <homo_energy>
-6.125

>  <homo_lumo_gap>
7.045

>  <logP>
1.272

>  <lumo_energy>
0.92

>  <melting_point>
64.3

>  <molecular_refractivity>
52.85

>  <oscillator_strength_1>
0.0036

>  <oscillator_strength_2>
0.0197

>  <oscillator_strength_3>
0.0343

>  <oscillator_strength_4>
0.0074

>  <open_babel_can_smiles>
CCn1nc(cc1OC(=O)N(C)C)C

>  <mulliken_charges>
29
1   -0.448452
2   -0.525059
3   -0.32018
4   -0.31941
5   -0.148629
6   -0.292514
7   0.331395
8   0.587185
9   0.784751
10   -0.357077
11   -0.437239
12   -0.267633
13   -0.50257
14   -0.567926
15   0.1481
16   0.154601
17   0.167701
18   0.158428
19   0.170898
20   0.155445
21   0.15649
22   0.207399
23   0.158823
24   0.15894
25   0.159787
26   0.202812
27   0.176983
28   0.179318
29   0.127633

>  <lowdin_charges>
29
1   -0.45372
2   -0.442518
3   -0.346304
4   -0.35005
5   -0.19758
6   -0.260002
7   0.012278
8   0.10603
9   0.213233
10   -0.174201
11   -0.100745
12   0.03625
13   -0.298247
14   -0.175683
15   0.155503
16   0.154536
17   0.161953
18   0.160605
19   0.167627
20   0.156576
21   0.148723
22   0.186136
23   0.150456
24   0.149629
25   0.151171
26   0.182668
27   0.165457
28   0.171966
29   0.168253

$$$$

