PCCDB-ID:  22734
public computational chemistry database (PCCDB) project, http://pccdb.org

 26 25  0  0  0  0  0  0  0  0999 V2000
    0.6637   -0.0822    0.7287 C   0  0  0  0  0  0  0  0  0  0  0  0
    2.0558    3.5029    0.7791 C   0  0  0  0  0  0  0  0  0  0  0  0
    2.1388    0.3101    0.8709 C   0  0  0  0  0  0  0  0  0  0  0  0
    1.9454    2.5464   -0.4159 C   0  0  0  0  0  0  0  0  0  0  0  0
    4.2142    1.3557   -0.1017 C   0  0  0  0  0  0  0  0  0  0  0  0
    4.9236    2.1894   -1.1916 C   0  0  0  0  0  0  0  0  0  0  0  0
    2.6871    1.1964   -0.2686 C   0  0  0  0  0  0  0  0  0  0  0  0
    4.6480    1.6978   -2.6062 C   0  0  0  0  0  0  0  0  0  0  0  0
    4.0630    2.3281   -3.4509 O   0  0  0  0  0  0  0  0  0  0  0  0
    5.0967    0.4402   -2.8901 O   0  0  0  0  0  0  0  0  0  0  0  0
    0.3738   -0.7924    1.5114 H   0  0  0  0  0  0  0  0  0  0  0  0
    0.4718   -0.5592   -0.2404 H   0  0  0  0  0  0  0  0  0  0  0  0
   -0.0023    0.7836    0.8098 H   0  0  0  0  0  0  0  0  0  0  0  0
    1.5000    4.4263    0.5820 H   0  0  0  0  0  0  0  0  0  0  0  0
    3.0941    3.7889    0.9864 H   0  0  0  0  0  0  0  0  0  0  0  0
    1.6454    3.0644    1.6961 H   0  0  0  0  0  0  0  0  0  0  0  0
    2.7440   -0.6067    0.9137 H   0  0  0  0  0  0  0  0  0  0  0  0
    2.2927    0.8123    1.8363 H   0  0  0  0  0  0  0  0  0  0  0  0
    2.3077    3.0486   -1.3210 H   0  0  0  0  0  0  0  0  0  0  0  0
    0.8860    2.3376   -0.6083 H   0  0  0  0  0  0  0  0  0  0  0  0
    4.4390    1.8144    0.8694 H   0  0  0  0  0  0  0  0  0  0  0  0
    4.6625    0.3514   -0.0581 H   0  0  0  0  0  0  0  0  0  0  0  0
    6.0078    2.1698   -1.0123 H   0  0  0  0  0  0  0  0  0  0  0  0
    4.6093    3.2341   -1.1531 H   0  0  0  0  0  0  0  0  0  0  0  0
    2.5177    0.6482   -1.2089 H   0  0  0  0  0  0  0  0  0  0  0  0
    5.5481    0.0663   -2.1152 H   0  0  0  0  0  0  0  0  0  0  0  0
  1 13  1  0  0  0  0
  1  3  1  0  0  0  0
  1 11  1  0  0  0  0
  2 15  1  0  0  0  0
  2 16  1  0  0  0  0
  3 17  1  0  0  0  0
  3 18  1  0  0  0  0
  4  7  1  0  0  0  0
  4  2  1  0  0  0  0
  5 22  1  0  0  0  0
  5 21  1  0  0  0  0
  6 24  1  0  0  0  0
  6 23  1  0  0  0  0
  6  5  1  0  0  0  0
  7  5  1  0  0  0  0
  7  3  1  0  0  0  0
  8  6  1  0  0  0  0
  9  8  2  0  0  0  0
 10  8  1  0  0  0  0
 10 26  1  0  0  0  0
 12  1  1  0  0  0  0
 14  2  1  0  0  0  0
 19  4  1  0  0  0  0
 20  4  1  0  0  0  0
 25  7  1  0  0  0  0
M  END
>  <HBA>
2

>  <HBD>
1

>  <TPSA>
37.3

>  <cid>
22734

>  <dipole>
4.17

>  <excitation_energy_1>
5.584

>  <excitation_energy_2>
6.398

>  <excitation_energy_3>
7.258

>  <excitation_energy_4>
7.334

>  <homo_energy>
-7.246

>  <homo_lumo_gap>
7.516

>  <logP>
2.287

>  <lumo_energy>
0.269

>  <melting_point>
49.27

>  <molecular_refractivity>
42.34

>  <oscillator_strength_1>
0.0019

>  <oscillator_strength_2>
0.0133

>  <oscillator_strength_3>
0.0016

>  <oscillator_strength_4>
0.0133

>  <open_babel_can_smiles>
CCC(CCC(=O)O)CC

>  <mulliken_charges>
26
1   -0.451003
2   -0.454166
3   -0.254682
4   -0.275821
5   -0.281628
6   -0.391243
7   -0.07281
8   0.600779
9   -0.440924
10   -0.566602
11   0.143856
12   0.146607
13   0.150053
14   0.14907
15   0.139618
16   0.146272
17   0.126581
18   0.132997
19   0.158532
20   0.140379
21   0.150659
22   0.118417
23   0.157146
24   0.18416
25   0.134569
26   0.409185

>  <lowdin_charges>
26
1   -0.44795
2   -0.449677
3   -0.275023
4   -0.283099
5   -0.277486
6   -0.31858
7   -0.132161
8   0.197768
9   -0.23982
10   -0.365331
11   0.152287
12   0.14898
13   0.149876
14   0.15435
15   0.142737
16   0.147616
17   0.139483
18   0.139378
19   0.154663
20   0.146128
21   0.151027
22   0.133161
23   0.158979
24   0.172231
25   0.143003
26   0.35746

$$$$

