PCCDB-ID:  34338
public computational chemistry database (PCCDB) project, http://pccdb.org

 15 15  0  0  0  0  0  0  0  0999 V2000
    0.9053    0.1416    0.0692 C   0  0  0  0  0  0  0  0  0  0  0  0
    2.7878   -2.5051    0.0647 C   0  0  0  0  0  0  0  0  0  0  0  0
    3.2591    1.1628    0.0784 C   0  0  0  0  0  0  0  0  0  0  0  0
    4.5248   -0.6166    0.0782 C   0  0  0  0  0  0  0  0  0  0  0  0
    2.4042    0.1032    0.0717 C   0  0  0  0  0  0  0  0  0  0  0  0
    3.2434   -1.0766    0.0720 C   0  0  0  0  0  0  0  0  0  0  0  0
    4.5592    0.7476    0.0823 O   0  0  0  0  0  0  0  0  0  0  0  0
    0.5356    1.1721    0.0686 H   0  0  0  0  0  0  0  0  0  0  0  0
    0.4860   -0.3607    0.9506 H   0  0  0  0  0  0  0  0  0  0  0  0
    0.4884   -0.3609   -0.8132 H   0  0  0  0  0  0  0  0  0  0  0  0
    3.6399   -3.1926    0.0640 H   0  0  0  0  0  0  0  0  0  0  0  0
    2.1784   -2.7313   -0.8198 H   0  0  0  0  0  0  0  0  0  0  0  0
    2.1738   -2.7392    0.9440 H   0  0  0  0  0  0  0  0  0  0  0  0
    3.1078    2.2322    0.0807 H   0  0  0  0  0  0  0  0  0  0  0  0
    5.4854   -1.1106    0.0818 H   0  0  0  0  0  0  0  0  0  0  0  0
  1  5  1  0  0  0  0
  1  9  1  0  0  0  0
  2  6  1  0  0  0  0
  2 13  1  0  0  0  0
  3 14  1  0  0  0  0
  3  7  1  0  0  0  0
  4 15  1  0  0  0  0
  4  7  1  0  0  0  0
  5  6  1  0  0  0  0
  5  3  2  0  0  0  0
  6  4  2  0  0  0  0
  8  1  1  0  0  0  0
 10  1  1  0  0  0  0
 11  2  1  0  0  0  0
 12  2  1  0  0  0  0
M  END
>  <HBA>
1

>  <HBD>
0

>  <TPSA>
13.14

>  <cid>
34338

>  <dipole>
1.15

>  <excitation_energy_1>
5.522

>  <excitation_energy_2>
5.784

>  <excitation_energy_3>
5.912

>  <excitation_energy_4>
5.924

>  <homo_energy>
-5.81

>  <homo_lumo_gap>
6.615

>  <logP>
1.896

>  <lumo_energy>
0.805

>  <melting_point>
11.22

>  <molecular_refractivity>
28.64

>  <oscillator_strength_1>
0.0

>  <oscillator_strength_2>
0.1228

>  <oscillator_strength_3>
0.0082

>  <oscillator_strength_4>
0.0002

>  <open_babel_can_smiles>
Cc1cocc1C

>  <mulliken_charges>
15
1   -0.528575
2   -0.528465
3   0.019343
4   0.019403
5   0.093046
6   0.093042
7   -0.405448
8   0.155519
9   0.158771
10   0.158603
11   0.155431
12   0.158704
13   0.158642
14   0.145999
15   0.145986

>  <lowdin_charges>
15
1   -0.436069
2   -0.436905
3   -0.099914
4   -0.101869
5   -0.052726
6   -0.052768
7   -0.10319
8   0.158794
9   0.158639
10   0.158549
11   0.16014
12   0.158414
13   0.158405
14   0.164261
15   0.166238

$$$$

