PCCDB-ID:  8178
public computational chemistry database (PCCDB) project, http://pccdb.org

 27 26  0  0  0  0  0  0  0  0999 V2000
    5.6989    3.6361   -2.4014 C   0  0  0  0  0  0  0  0  0  0  0  0
    7.5535    0.8312    6.6236 C   0  0  0  0  0  0  0  0  0  0  0  0
    6.9716    1.5486    5.4076 C   0  0  0  0  0  0  0  0  0  0  0  0
    6.0958    2.4005   -0.4405 C   0  0  0  0  0  0  0  0  0  0  0  0
    5.3560    1.6847    0.6800 C   0  0  0  0  0  0  0  0  0  0  0  0
    6.8965    0.0065    3.5755 C   0  0  0  0  0  0  0  0  0  0  0  0
    5.7703    0.4607    2.6561 C   0  0  0  0  0  0  0  0  0  0  0  0
    6.8933    1.3513    7.7713 O   0  0  0  0  0  0  0  0  0  0  0  0
    5.1266    2.9251   -1.3257 O   0  0  0  0  0  0  0  0  0  0  0  0
    7.5721    1.0819    4.2087 O   0  0  0  0  0  0  0  0  0  0  0  0
    6.3273    1.1484    1.5560 O   0  0  0  0  0  0  0  0  0  0  0  0
    4.8761    4.0009   -3.0220 H   0  0  0  0  0  0  0  0  0  0  0  0
    6.3515    2.9936   -3.0147 H   0  0  0  0  0  0  0  0  0  0  0  0
    6.2924    4.4965   -2.0520 H   0  0  0  0  0  0  0  0  0  0  0  0
    8.6391    1.0082    6.6547 H   0  0  0  0  0  0  0  0  0  0  0  0
    7.3972   -0.2557    6.5241 H   0  0  0  0  0  0  0  0  0  0  0  0
    7.1819    2.6205    5.4825 H   0  0  0  0  0  0  0  0  0  0  0  0
    5.8791    1.4258    5.3985 H   0  0  0  0  0  0  0  0  0  0  0  0
    6.7642    1.6915   -0.9564 H   0  0  0  0  0  0  0  0  0  0  0  0
    6.7244    3.2009   -0.0175 H   0  0  0  0  0  0  0  0  0  0  0  0
    4.7180    0.8916    0.2563 H   0  0  0  0  0  0  0  0  0  0  0  0
    4.6975    2.3960    1.2043 H   0  0  0  0  0  0  0  0  0  0  0  0
    7.6484   -0.5191    2.9774 H   0  0  0  0  0  0  0  0  0  0  0  0
    6.4915   -0.7040    4.3130 H   0  0  0  0  0  0  0  0  0  0  0  0
    5.0647    1.1093    3.2028 H   0  0  0  0  0  0  0  0  0  0  0  0
    5.2032   -0.4249    2.3164 H   0  0  0  0  0  0  0  0  0  0  0  0
    7.2938    0.9494    8.5561 H   0  0  0  0  0  0  0  0  0  0  0  0
  1 14  1  0  0  0  0
  1  9  1  0  0  0  0
  2 15  1  0  0  0  0
  2  8  1  0  0  0  0
  3 17  1  0  0  0  0
  3  2  1  0  0  0  0
  4 20  1  0  0  0  0
  4  5  1  0  0  0  0
  5 22  1  0  0  0  0
  5 11  1  0  0  0  0
  6 10  1  0  0  0  0
  6 24  1  0  0  0  0
  7 25  1  0  0  0  0
  7  6  1  0  0  0  0
  8 27  1  0  0  0  0
  9  4  1  0  0  0  0
 10  3  1  0  0  0  0
 11  7  1  0  0  0  0
 12  1  1  0  0  0  0
 13  1  1  0  0  0  0
 16  2  1  0  0  0  0
 18  3  1  0  0  0  0
 19  4  1  0  0  0  0
 21  5  1  0  0  0  0
 23  6  1  0  0  0  0
 26  7  1  0  0  0  0
M  END
>  <HBA>
4

>  <HBD>
1

>  <TPSA>
47.92

>  <cid>
8178

>  <dipole>
1.54

>  <excitation_energy_1>
6.224

>  <excitation_energy_2>
6.445

>  <excitation_energy_3>
6.507

>  <excitation_energy_4>
6.575

>  <homo_energy>
-6.787

>  <homo_lumo_gap>
8.61

>  <logP>
-0.342

>  <lumo_energy>
1.823

>  <melting_point>
-35.46

>  <molecular_refractivity>
40.18

>  <oscillator_strength_1>
0.0022

>  <oscillator_strength_2>
0.0004

>  <oscillator_strength_3>
0.0047

>  <oscillator_strength_4>
0.0258

>  <open_babel_can_smiles>
COCCOCCOCCO

>  <mulliken_charges>
27
1   -0.189153
2   -0.046304
3   -0.038546
4   -0.02591
5   -0.020598
6   -0.046768
7   -0.012524
8   -0.619865
9   -0.467715
10   -0.463978
11   -0.474202
12   0.157653
13   0.130597
14   0.131576
15   0.133009
16   0.119835
17   0.157253
18   0.133444
19   0.12984
20   0.134043
21   0.129037
22   0.132233
23   0.15785
24   0.121557
25   0.125609
26   0.115858
27   0.396171

>  <lowdin_charges>
27
1   -0.281209
2   -0.144266
3   -0.134686
4   -0.137549
5   -0.13634
6   -0.142373
7   -0.145484
8   -0.4739
9   -0.271026
10   -0.264552
11   -0.265656
12   0.155955
13   0.133534
14   0.133023
15   0.130554
16   0.122392
17   0.151285
18   0.132489
19   0.1333
20   0.135407
21   0.132787
22   0.134756
23   0.158059
24   0.133565
25   0.132548
26   0.128846
27   0.34854

$$$$

