PCCDB-ID:  7493
public computational chemistry database (PCCDB) project, http://pccdb.org

 17 17  0  0  0  0  0  0  0  0999 V2000
   -1.4202    0.0961   -0.0604 C   0  0  0  0  0  0  0  0  0  0  0  0
   -0.7020    1.2859   -0.1188 C   0  0  0  0  0  0  0  0  0  0  0  0
    0.6819   -1.0637    0.0125 C   0  0  0  0  0  0  0  0  0  0  0  0
   -0.7224   -1.1147   -0.0009 C   0  0  0  0  0  0  0  0  0  0  0  0
    0.6945    1.2172   -0.1186 C   0  0  0  0  0  0  0  0  0  0  0  0
   -1.3807   -2.4597    0.0896 C   0  0  0  0  0  0  0  0  0  0  0  0
    1.4568    2.5105   -0.1887 C   0  0  0  0  0  0  0  0  0  0  0  0
    1.3814    0.0672   -0.0538 N   0  0  0  0  0  0  0  0  0  0  0  0
   -0.8325   -3.4278    0.5568 O   0  0  0  0  0  0  0  0  0  0  0  0
   -2.6526   -2.5516   -0.3815 O   0  0  0  0  0  0  0  0  0  0  0  0
    2.7908    2.3483   -0.1744 O   0  0  0  0  0  0  0  0  0  0  0  0
    0.9146    3.5961   -0.2529 O   0  0  0  0  0  0  0  0  0  0  0  0
   -2.5071    0.1258   -0.0267 H   0  0  0  0  0  0  0  0  0  0  0  0
   -1.1890    2.2533   -0.1570 H   0  0  0  0  0  0  0  0  0  0  0  0
    1.2446   -1.9912    0.0769 H   0  0  0  0  0  0  0  0  0  0  0  0
   -2.8974   -1.7465   -0.8659 H   0  0  0  0  0  0  0  0  0  0  0  0
    3.1672    3.2472   -0.2250 H   0  0  0  0  0  0  0  0  0  0  0  0
  1 13  1  0  0  0  0
  1  4  2  0  0  0  0
  2  5  2  0  0  0  0
  2  1  1  0  0  0  0
  3 15  1  0  0  0  0
  4  3  1  0  0  0  0
  4  6  1  0  0  0  0
  5  8  1  0  0  0  0
  6  9  2  0  0  0  0
  7 11  1  0  0  0  0
  7  5  1  0  0  0  0
  8  3  2  0  0  0  0
 10  6  1  0  0  0  0
 12  7  2  0  0  0  0
 14  2  1  0  0  0  0
 16 10  1  0  0  0  0
 17 11  1  0  0  0  0
M  END
>  <HBA>
5

>  <HBD>
2

>  <TPSA>
87.49

>  <cid>
7493

>  <dipole>
3.42

>  <excitation_energy_1>
3.777

>  <excitation_energy_2>
4.322

>  <excitation_energy_3>
4.602

>  <excitation_energy_4>
4.814

>  <homo_energy>
-7.51

>  <homo_lumo_gap>
4.974

>  <logP>
0.478

>  <lumo_energy>
-2.536

>  <melting_point>
202.48

>  <molecular_refractivity>
38.16

>  <oscillator_strength_1>
0.0013

>  <oscillator_strength_2>
0.0152

>  <oscillator_strength_3>
0.0135

>  <oscillator_strength_4>
0.0029

>  <open_babel_can_smiles>
OC(=O)c1ccc(cn1)C(=O)O

>  <mulliken_charges>
17
1   -0.167191
2   -0.143697
3   0.02826
4   0.031537
5   0.237389
6   0.558096
7   0.560707
8   -0.451726
9   -0.430347
10   -0.56817
11   -0.547178
12   -0.467148
13   0.154901
14   0.184912
15   0.189011
16   0.414126
17   0.416517

>  <lowdin_charges>
17
1   -0.133298
2   -0.141341
3   -0.05792
4   -0.063063
5   0.022867
6   0.19778
7   0.190204
8   -0.114204
9   -0.224714
10   -0.350485
11   -0.323522
12   -0.265974
13   0.16439
14   0.190042
15   0.182814
16   0.360232
17   0.366193

$$$$

