PCCDB-ID:  66690
public computational chemistry database (PCCDB) project, http://pccdb.org

 35 35  0  0  0  0  0  0  0  0999 V2000
   -1.1601   -0.1490   -2.5314 C   0  0  0  0  0  0  0  0  0  0  0  0
    1.6358    2.5888   -4.6445 C   0  0  0  0  0  0  0  0  0  0  0  0
    1.3673    1.3619   -4.0419 C   0  0  0  0  0  0  0  0  0  0  0  0
    1.9877    3.7103   -3.8989 C   0  0  0  0  0  0  0  0  0  0  0  0
    2.7013    4.6133   -0.2797 C   0  0  0  0  0  0  0  0  0  0  0  0
    2.8867    5.9803   -2.3507 C   0  0  0  0  0  0  0  0  0  0  0  0
    1.4294    4.7189    0.5706 C   0  0  0  0  0  0  0  0  0  0  0  0
    4.3307    5.9399   -2.8537 C   0  0  0  0  0  0  0  0  0  0  0  0
    1.8307    2.3838   -1.8886 C   0  0  0  0  0  0  0  0  0  0  0  0
    0.1749   -0.5755   -1.9596 C   0  0  0  0  0  0  0  0  0  0  0  0
    1.4601    1.2643   -2.6445 C   0  0  0  0  0  0  0  0  0  0  0  0
    2.0916    3.6326   -2.4889 C   0  0  0  0  0  0  0  0  0  0  0  0
    1.2809    0.0436   -1.9720 N   0  0  0  0  0  0  0  0  0  0  0  0
    2.4174    4.7524   -1.7137 N   0  0  0  0  0  0  0  0  0  0  0  0
    0.7316    5.9305    0.3128 O   0  0  0  0  0  0  0  0  0  0  0  0
    5.1919    5.8787   -1.7211 O   0  0  0  0  0  0  0  0  0  0  0  0
    0.1653   -1.7818   -1.3192 O   0  0  0  0  0  0  0  0  0  0  0  0
   -1.9162   -0.1222   -1.7359 H   0  0  0  0  0  0  0  0  0  0  0  0
   -1.5020   -0.8627   -3.2915 H   0  0  0  0  0  0  0  0  0  0  0  0
   -1.0951    0.8385   -2.9890 H   0  0  0  0  0  0  0  0  0  0  0  0
    1.5769    2.6778   -5.7268 H   0  0  0  0  0  0  0  0  0  0  0  0
    1.1212    0.4854   -4.6332 H   0  0  0  0  0  0  0  0  0  0  0  0
    2.1929    4.6347   -4.4239 H   0  0  0  0  0  0  0  0  0  0  0  0
    3.2322    3.6748   -0.0765 H   0  0  0  0  0  0  0  0  0  0  0  0
    3.3824    5.4185   -0.0011 H   0  0  0  0  0  0  0  0  0  0  0  0
    2.2258    6.2439   -3.1838 H   0  0  0  0  0  0  0  0  0  0  0  0
    2.7964    6.7871   -1.6175 H   0  0  0  0  0  0  0  0  0  0  0  0
    1.6992    4.7360    1.6321 H   0  0  0  0  0  0  0  0  0  0  0  0
    0.7755    3.8492    0.4052 H   0  0  0  0  0  0  0  0  0  0  0  0
    4.5226    6.8480   -3.4504 H   0  0  0  0  0  0  0  0  0  0  0  0
    4.4708    5.0686   -3.5087 H   0  0  0  0  0  0  0  0  0  0  0  0
    1.9028    2.2480   -0.8177 H   0  0  0  0  0  0  0  0  0  0  0  0
    0.5126    5.9069   -0.6334 H   0  0  0  0  0  0  0  0  0  0  0  0
    6.0793    5.6416   -2.0279 H   0  0  0  0  0  0  0  0  0  0  0  0
   -0.7329   -2.1462   -1.3406 H   0  0  0  0  0  0  0  0  0  0  0  0
  1 10  1  0  0  0  0
  1 18  1  0  0  0  0
  2  3  2  0  0  0  0
  2  4  1  0  0  0  0
  3 11  1  0  0  0  0
  4 12  2  0  0  0  0
  5 24  1  0  0  0  0
  5 25  1  0  0  0  0
  5  7  1  0  0  0  0
  6 14  1  0  0  0  0
  6 27  1  0  0  0  0
  7 28  1  0  0  0  0
  8  6  1  0  0  0  0
  8 16  1  0  0  0  0
  9 32  1  0  0  0  0
 10 17  1  0  0  0  0
 11 13  1  0  0  0  0
 11  9  2  0  0  0  0
 12  9  1  0  0  0  0
 12 14  1  0  0  0  0
 13 10  2  0  0  0  0
 14  5  1  0  0  0  0
 15  7  1  0  0  0  0
 19  1  1  0  0  0  0
 20  1  1  0  0  0  0
 21  2  1  0  0  0  0
 22  3  1  0  0  0  0
 23  4  1  0  0  0  0
 26  6  1  0  0  0  0
 29  7  1  0  0  0  0
 30  8  1  0  0  0  0
 31  8  1  0  0  0  0
 33 15  1  0  0  0  0
 34 16  1  0  0  0  0
 35 17  1  0  0  0  0
M  END
>  <HBA>
5

>  <HBD>
3

>  <TPSA>
72.8

>  <cid>
66690

>  <dipole>
3.11

>  <excitation_energy_1>
4.212

>  <excitation_energy_2>
4.46

>  <excitation_energy_3>
4.562

>  <excitation_energy_4>
4.734

>  <homo_energy>
-5.053

>  <homo_lumo_gap>
5.037

>  <logP>
0.509

>  <lumo_energy>
-0.016

>  <melting_point>
104.85

>  <molecular_refractivity>
66.9

>  <oscillator_strength_1>
0.0472

>  <oscillator_strength_2>
0.0035

>  <oscillator_strength_3>
0.0045

>  <oscillator_strength_4>
0.0222

>  <open_babel_can_smiles>
OCCN(c1cccc(c1)/N=C(/O)\C)CCO

>  <mulliken_charges>
35
1   -0.555078
2   -0.145054
3   -0.171187
4   -0.196531
5   -0.158278
6   -0.175925
7   -0.037813
8   -0.028792
9   -0.229277
10   0.482668
11   0.234959
12   0.355966
13   -0.464919
14   -0.512014
15   -0.619746
16   -0.615174
17   -0.571551
18   0.170179
19   0.173453
20   0.200193
21   0.121952
22   0.115784
23   0.114302
24   0.149362
25   0.180119
26   0.149772
27   0.171979
28   0.143851
29   0.128562
30   0.118717
31   0.14036
32   0.130053
33   0.394473
34   0.39761
35   0.407025

>  <lowdin_charges>
35
1   -0.484686
2   -0.142604
3   -0.222103
4   -0.230889
5   -0.218604
6   -0.213636
7   -0.145076
8   -0.148103
9   -0.228651
10   0.146307
11   0.056948
12   0.062316
13   -0.169511
14   -0.125151
15   -0.469702
16   -0.470724
17   -0.362364
18   0.167926
19   0.169832
20   0.184904
21   0.152424
22   0.154971
23   0.153686
24   0.151109
25   0.169161
26   0.15129
27   0.163539
28   0.146494
29   0.129923
30   0.128514
31   0.139496
32   0.16185
33   0.338589
34   0.348036
35   0.35449

$$$$

