PCCDB-ID:  25612
public computational chemistry database (PCCDB) project, http://pccdb.org

 31 30  0  0  0  0  0  0  0  0999 V2000
    5.0595    2.1777   -3.9084 C   0  0  0  0  0  0  0  0  0  0  0  0
    4.5458    1.4341   -2.9278 C   0  0  0  0  0  0  0  0  0  0  0  0
    5.1876    1.1920   -1.5886 C   0  0  0  0  0  0  0  0  0  0  0  0
    4.3319    1.7168   -0.4182 C   0  0  0  0  0  0  0  0  0  0  0  0
    4.8759    1.3578    0.9754 C   0  0  0  0  0  0  0  0  0  0  0  0
    6.2454    1.9570    1.3419 C   0  0  0  0  0  0  0  0  0  0  0  0
    6.2711    3.4894    1.4314 C   0  0  0  0  0  0  0  0  0  0  0  0
    7.6244    4.0423    1.8967 C   0  0  0  0  0  0  0  0  0  0  0  0
    7.6518    5.5730    1.9899 C   0  0  0  0  0  0  0  0  0  0  0  0
    9.0024    6.1353    2.4170 C   0  0  0  0  0  0  0  0  0  0  0  0
    9.9625    5.8026    1.4165 O   0  0  0  0  0  0  0  0  0  0  0  0
    4.5402    2.3215   -4.8523 H   0  0  0  0  0  0  0  0  0  0  0  0
    6.0247    2.6704   -3.8061 H   0  0  0  0  0  0  0  0  0  0  0  0
    3.5720    0.9627   -3.0775 H   0  0  0  0  0  0  0  0  0  0  0  0
    6.1819    1.6552   -1.5728 H   0  0  0  0  0  0  0  0  0  0  0  0
    5.3430    0.1104   -1.4484 H   0  0  0  0  0  0  0  0  0  0  0  0
    3.3179    1.3027   -0.5110 H   0  0  0  0  0  0  0  0  0  0  0  0
    4.2214    2.8043   -0.5172 H   0  0  0  0  0  0  0  0  0  0  0  0
    4.9378    0.2628    1.0563 H   0  0  0  0  0  0  0  0  0  0  0  0
    4.1408    1.6754    1.7288 H   0  0  0  0  0  0  0  0  0  0  0  0
    7.0068    1.6233    0.6231 H   0  0  0  0  0  0  0  0  0  0  0  0
    6.5525    1.5425    2.3128 H   0  0  0  0  0  0  0  0  0  0  0  0
    5.4814    3.8240    2.1217 H   0  0  0  0  0  0  0  0  0  0  0  0
    6.0254    3.9270    0.4538 H   0  0  0  0  0  0  0  0  0  0  0  0
    8.4147    3.7153    1.2101 H   0  0  0  0  0  0  0  0  0  0  0  0
    7.8732    3.6155    2.8803 H   0  0  0  0  0  0  0  0  0  0  0  0
    6.8931    5.9195    2.7060 H   0  0  0  0  0  0  0  0  0  0  0  0
    7.3903    6.0093    1.0162 H   0  0  0  0  0  0  0  0  0  0  0  0
    9.2895    5.7119    3.3947 H   0  0  0  0  0  0  0  0  0  0  0  0
    8.9273    7.2281    2.5411 H   0  0  0  0  0  0  0  0  0  0  0  0
   10.8241    6.1377    1.7063 H   0  0  0  0  0  0  0  0  0  0  0  0
  1 13  1  0  0  0  0
  1  2  2  0  0  0  0
  2  3  1  0  0  0  0
  3 15  1  0  0  0  0
  3 16  1  0  0  0  0
  3  4  1  0  0  0  0
  4  5  1  0  0  0  0
  5 19  1  0  0  0  0
  5  6  1  0  0  0  0
  5 20  1  0  0  0  0
  6  7  1  0  0  0  0
  6 22  1  0  0  0  0
  7  8  1  0  0  0  0
  7 23  1  0  0  0  0
  8  9  1  0  0  0  0
  8 26  1  0  0  0  0
  9 10  1  0  0  0  0
  9 27  1  0  0  0  0
 10 30  1  0  0  0  0
 10 29  1  0  0  0  0
 11 31  1  0  0  0  0
 11 10  1  0  0  0  0
 12  1  1  0  0  0  0
 14  2  1  0  0  0  0
 17  4  1  0  0  0  0
 18  4  1  0  0  0  0
 21  6  1  0  0  0  0
 24  7  1  0  0  0  0
 25  8  1  0  0  0  0
 28  9  1  0  0  0  0
M  END
>  <HBA>
1

>  <HBD>
1

>  <TPSA>
20.23

>  <cid>
25612

>  <dipole>
1.77

>  <excitation_energy_1>
6.338

>  <excitation_energy_2>
6.421

>  <excitation_energy_3>
6.631

>  <excitation_energy_4>
6.753

>  <homo_energy>
-6.705

>  <homo_lumo_gap>
7.486

>  <logP>
2.895

>  <lumo_energy>
0.781

>  <melting_point>
-31.2

>  <molecular_refractivity>
50.87

>  <oscillator_strength_1>
0.0001

>  <oscillator_strength_2>
0.0267

>  <oscillator_strength_3>
0.0002

>  <oscillator_strength_4>
0.0407

>  <open_babel_can_smiles>
OCCCCCCCCC=C

>  <mulliken_charges>
31
1   -0.342367
2   -0.041436
3   -0.302429
4   -0.25722
5   -0.25851
6   -0.257271
7   -0.254943
8   -0.25155
9   -0.263318
10   -0.032597
11   -0.616506
12   0.135617
13   0.13394
14   0.121134
15   0.142305
16   0.137684
17   0.128067
18   0.142021
19   0.125795
20   0.127108
21   0.13346
22   0.126569
23   0.122457
24   0.13428
25   0.154958
26   0.120082
27   0.126929
28   0.143156
29   0.114431
30   0.117083
31   0.391071

>  <lowdin_charges>
31
1   -0.345508
2   -0.142647
3   -0.271627
4   -0.273818
5   -0.275269
6   -0.278739
7   -0.277156
8   -0.27602
9   -0.282551
10   -0.130306
11   -0.475702
12   0.156433
13   0.152695
14   0.146415
15   0.14625
16   0.144508
17   0.140118
18   0.141793
19   0.137204
20   0.141272
21   0.140394
22   0.140174
23   0.135818
24   0.139621
25   0.152329
26   0.134361
27   0.143632
28   0.147205
29   0.121876
30   0.123311
31   0.343935

$$$$

