PCCDB-ID:  33831
public computational chemistry database (PCCDB) project, http://pccdb.org

 40 40  0  0  0  0  0  0  0  0999 V2000
    3.0718    1.8238   -3.3459 C   0  0  0  0  0  0  0  0  0  0  0  0
   11.4878   -0.4347   -1.8691 C   0  0  0  0  0  0  0  0  0  0  0  0
    8.5176   -0.8001    1.5783 C   0  0  0  0  0  0  0  0  0  0  0  0
    8.5675   -4.0701   -4.4043 C   0  0  0  0  0  0  0  0  0  0  0  0
    3.2336    0.3831   -2.8515 C   0  0  0  0  0  0  0  0  0  0  0  0
   10.7925   -1.3921   -0.8994 C   0  0  0  0  0  0  0  0  0  0  0  0
    8.9179   -0.1653    0.2401 C   0  0  0  0  0  0  0  0  0  0  0  0
    4.1769    0.2653   -1.6481 C   0  0  0  0  0  0  0  0  0  0  0  0
    4.3643   -1.1851   -1.1565 C   0  0  0  0  0  0  0  0  0  0  0  0
    8.0058   -3.1631   -3.3432 C   0  0  0  0  0  0  0  0  0  0  0  0
    6.1816   -2.2057   -2.2988 C   0  0  0  0  0  0  0  0  0  0  0  0
    8.4878   -1.7679   -1.6087 C   0  0  0  0  0  0  0  0  0  0  0  0
    4.9155   -2.0592   -2.1720 N   0  0  0  0  0  0  0  0  0  0  0  0
    6.7085   -3.0303   -3.2750 N   0  0  0  0  0  0  0  0  0  0  0  0
    8.9555   -2.5619   -2.5515 N   0  0  0  0  0  0  0  0  0  0  0  0
    7.1435   -1.5603   -1.4592 N   0  0  0  0  0  0  0  0  0  0  0  0
    9.3506   -1.1338   -0.7668 N   0  0  0  0  0  0  0  0  0  0  0  0
    2.3902    1.8765   -4.2026 H   0  0  0  0  0  0  0  0  0  0  0  0
    4.0340    2.2461   -3.6623 H   0  0  0  0  0  0  0  0  0  0  0  0
    2.6685    2.4745   -2.5593 H   0  0  0  0  0  0  0  0  0  0  0  0
   12.5614   -0.6523   -1.9085 H   0  0  0  0  0  0  0  0  0  0  0  0
   11.3676    0.6113   -1.5628 H   0  0  0  0  0  0  0  0  0  0  0  0
   11.0742   -0.5536   -2.8745 H   0  0  0  0  0  0  0  0  0  0  0  0
    8.2339   -0.0241    2.2979 H   0  0  0  0  0  0  0  0  0  0  0  0
    9.3518   -1.3695    2.0014 H   0  0  0  0  0  0  0  0  0  0  0  0
    7.6721   -1.4866    1.4633 H   0  0  0  0  0  0  0  0  0  0  0  0
    7.7621   -4.5064   -4.9968 H   0  0  0  0  0  0  0  0  0  0  0  0
    9.1592   -4.8672   -3.9391 H   0  0  0  0  0  0  0  0  0  0  0  0
    9.2468   -3.5094   -5.0570 H   0  0  0  0  0  0  0  0  0  0  0  0
    3.6096   -0.2540   -3.6597 H   0  0  0  0  0  0  0  0  0  0  0  0
    2.2508   -0.0236   -2.5740 H   0  0  0  0  0  0  0  0  0  0  0  0
   11.2283   -1.3123    0.1033 H   0  0  0  0  0  0  0  0  0  0  0  0
   10.9123   -2.4213   -1.2385 H   0  0  0  0  0  0  0  0  0  0  0  0
    9.7507    0.5280    0.3948 H   0  0  0  0  0  0  0  0  0  0  0  0
    8.1017    0.4487   -0.1615 H   0  0  0  0  0  0  0  0  0  0  0  0
    3.7907    0.8699   -0.8139 H   0  0  0  0  0  0  0  0  0  0  0  0
    5.1568    0.6902   -1.9141 H   0  0  0  0  0  0  0  0  0  0  0  0
    3.3799   -1.5850   -0.8789 H   0  0  0  0  0  0  0  0  0  0  0  0
    4.9432   -1.1722   -0.2095 H   0  0  0  0  0  0  0  0  0  0  0  0
    6.7940   -0.9876   -0.7061 H   0  0  0  0  0  0  0  0  0  0  0  0
  1  5  1  0  0  0  0
  1 20  1  0  0  0  0
  2 22  1  0  0  0  0
  2  6  1  0  0  0  0
  3 25  1  0  0  0  0
  3 24  1  0  0  0  0
  4 28  1  0  0  0  0
  4 10  1  0  0  0  0
  5 31  1  0  0  0  0
  5  8  1  0  0  0  0
  6 17  1  0  0  0  0
  6 32  1  0  0  0  0
  7 34  1  0  0  0  0
  7  3  1  0  0  0  0
  8  9  1  0  0  0  0
  8 36  1  0  0  0  0
  9 38  1  0  0  0  0
  9 39  1  0  0  0  0
 10 14  2  0  0  0  0
 10 15  1  0  0  0  0
 11 13  1  0  0  0  0
 11 16  1  0  0  0  0
 12 16  1  0  0  0  0
 12 17  1  0  0  0  0
 13  9  1  0  0  0  0
 14 11  2  0  0  0  0
 15 12  2  0  0  0  0
 16 40  1  0  0  0  0
 17  7  1  0  0  0  0
 18  1  1  0  0  0  0
 19  1  1  0  0  0  0
 21  2  1  0  0  0  0
 23  2  1  0  0  0  0
 26  3  1  0  0  0  0
 27  4  1  0  0  0  0
 29  4  1  0  0  0  0
 30  5  1  0  0  0  0
 33  6  1  0  0  0  0
 35  7  1  0  0  0  0
 37  8  1  0  0  0  0
M  RAD  1  13   2
M  END
>  <HBA>
5

>  <HBD>
1

>  <TPSA>
53.94

>  <cid>
33831

>  <dipole>
6.84

>  <excitation_energy_1>
4.37

>  <excitation_energy_2>
4.637

>  <excitation_energy_3>
4.732

>  <excitation_energy_4>
4.952

>  <homo_energy>
-5.521

>  <homo_lumo_gap>
5.157

>  <logP>
2.311

>  <lumo_energy>
-0.365

>  <melting_point>
96.25

>  <molecular_refractivity>
72.34

>  <oscillator_strength_1>
0.0956

>  <oscillator_strength_2>
0.0386

>  <oscillator_strength_3>
0.0008

>  <oscillator_strength_4>
0.002

>  <open_babel_can_smiles>
CCCC[N]C1=[N]=C(C)N=C(N1)N(CC)CC

>  <mulliken_charges>
40
1   -0.442956
2   -0.446352
3   -0.4461
4   -0.5002
5   -0.239735
6   -0.142229
7   -0.181588
8   -0.249398
9   -0.170846
10   0.426014
11   0.638418
12   0.795831
13   -0.455699
14   -0.48095
15   -0.565487
16   -0.729951
17   -0.459877
18   0.143055
19   0.137201
20   0.134495
21   0.150744
22   0.14221
23   0.178464
24   0.158039
25   0.165
26   0.160947
27   0.175811
28   0.163232
29   0.163077
30   0.166073
31   0.12889
32   0.143146
33   0.194416
34   0.169537
35   0.158925
36   0.120748
37   0.116756
38   0.14737
39   0.085792
40   0.347178

>  <lowdin_charges>
40
1   -0.446497
2   -0.448244
3   -0.458309
4   -0.447784
5   -0.27375
6   -0.189043
7   -0.202081
8   -0.282914
9   -0.20649
10   0.111389
11   0.117362
12   0.165731
13   -0.235136
14   -0.202723
15   -0.278525
16   -0.258224
17   -0.093747
18   0.150299
19   0.143862
20   0.143182
21   0.155108
22   0.145326
23   0.165559
24   0.160675
25   0.160937
26   0.155658
27   0.171095
28   0.167324
29   0.167447
30   0.158166
31   0.139341
32   0.144762
33   0.175063
34   0.162146
35   0.151086
36   0.137537
37   0.130403
38   0.147843
39   0.104852
40   0.291317

$$$$

