PCCDB-ID:  53268
public computational chemistry database (PCCDB) project, http://pccdb.org

 33 35  0  0  1  0  0  0  0  0999 V2000
    4.6123   -1.4227   -2.1192 C   0  0  0  0  0  0  0  0  0  0  0  0
    0.1025   -2.1157   -6.3611 C   0  0  0  0  0  0  0  0  0  0  0  0
   -0.0253   -3.5200   -5.7187 C   0  0  0  0  0  0  0  0  0  0  0  0
    0.0861   -1.1265   -5.1686 C   0  0  0  0  0  0  0  0  0  0  0  0
    2.0409   -4.6913   -1.0462 C   0  0  0  0  0  0  0  0  0  0  0  0
    2.8279   -3.6665   -0.1934 C   0  0  0  0  0  0  0  0  0  0  0  0
    1.0102   -4.2874   -3.4306 C   0  0  0  0  0  0  0  0  0  0  0  0
    1.1477   -1.5276   -2.7996 C   0  0  0  0  0  0  0  0  0  0  0  0
    3.9787   -0.7870   -0.8952 C   0  0  0  0  0  0  0  0  0  0  0  0
    0.5736   -3.3235   -4.3403 C   0  0  0  0  0  0  0  0  0  0  0  0
    0.6400   -1.9554   -4.0268 C   0  0  0  0  0  0  0  0  0  0  0  0
    1.5270   -3.8600   -2.2057 C   0  0  0  0  0  0  0  0  0  0  0  0
    1.5996   -2.4931   -1.8989 C   0  0  0  0  0  0  0  0  0  0  0  0
    2.1545   -2.2942   -0.4912 C   0  0  2  0  0  0  0  0  0  0  0  0
    2.9684   -1.1203   -0.2091 N   0  0  0  0  0  0  0  0  0  0  0  0
    4.6381    0.3400   -0.4687 O   0  0  0  0  0  0  0  0  0  0  0  0
    4.0583   -2.2923   -2.4672 H   0  0  0  0  0  0  0  0  0  0  0  0
    5.6424   -1.7272   -1.8916 H   0  0  0  0  0  0  0  0  0  0  0  0
    4.6522   -0.6977   -2.9427 H   0  0  0  0  0  0  0  0  0  0  0  0
   -0.6805   -1.9098   -7.0978 H   0  0  0  0  0  0  0  0  0  0  0  0
    1.0667   -2.0418   -6.8787 H   0  0  0  0  0  0  0  0  0  0  0  0
    0.4766   -4.3007   -6.3023 H   0  0  0  0  0  0  0  0  0  0  0  0
   -1.0817   -3.8177   -5.6383 H   0  0  0  0  0  0  0  0  0  0  0  0
   -0.9418   -0.8046   -4.9431 H   0  0  0  0  0  0  0  0  0  0  0  0
    0.6636   -0.2155   -5.3643 H   0  0  0  0  0  0  0  0  0  0  0  0
    1.1991   -5.1059   -0.4721 H   0  0  0  0  0  0  0  0  0  0  0  0
    2.6548   -5.5437   -1.3606 H   0  0  0  0  0  0  0  0  0  0  0  0
    3.8732   -3.6352   -0.5216 H   0  0  0  0  0  0  0  0  0  0  0  0
    2.8287   -3.9008    0.8751 H   0  0  0  0  0  0  0  0  0  0  0  0
    0.9624   -5.3471   -3.6758 H   0  0  0  0  0  0  0  0  0  0  0  0
    1.2061   -0.4701   -2.5507 H   0  0  0  0  0  0  0  0  0  0  0  0
    1.2881   -2.2051    0.1818 H   0  0  0  0  0  0  0  0  0  0  0  0
    5.3852    0.5121   -1.0620 H   0  0  0  0  0  0  0  0  0  0  0  0
  1 18  1  0  0  0  0
  1  9  1  0  0  0  0
  2  3  1  0  0  0  0
  2  4  1  0  0  0  0
  3 23  1  0  0  0  0
  3 10  1  0  0  0  0
  4 24  1  0  0  0  0
  4 11  1  0  0  0  0
  5 26  1  0  0  0  0
  5  6  1  0  0  0  0
  6 29  1  0  0  0  0
  7 12  2  0  0  0  0
  8 31  1  0  0  0  0
  8 13  2  0  0  0  0
  9 16  1  0  0  0  0
  9 15  2  0  0  0  0
 10 11  2  0  0  0  0
 10  7  1  0  0  0  0
 11  8  1  0  0  0  0
 12 13  1  0  0  0  0
 12  5  1  0  0  0  0
 13 14  1  0  0  0  0
 14 15  1  0  0  0  0
 14  6  1  0  0  0  0
 14 32  1  1  0  0  0
 17  1  1  0  0  0  0
 19  1  1  0  0  0  0
 20  2  1  0  0  0  0
 21  2  1  0  0  0  0
 22  3  1  0  0  0  0
 25  4  1  0  0  0  0
 27  5  1  0  0  0  0
 28  6  1  0  0  0  0
 30  7  1  0  0  0  0
 33 16  1  0  0  0  0
M  END
>  <HBA>
2

>  <HBD>
1

>  <TPSA>
29.1

>  <cid>
53268

>  <dipole>
3.59

>  <excitation_energy_1>
4.821

>  <excitation_energy_2>
5.298

>  <excitation_energy_3>
5.333

>  <excitation_energy_4>
5.43

>  <homo_energy>
-5.902

>  <homo_lumo_gap>
5.826

>  <logP>
2.69

>  <lumo_energy>
-0.076

>  <melting_point>
112.74

>  <molecular_refractivity>
64.31

>  <oscillator_strength_1>
0.0843

>  <oscillator_strength_2>
0.0009

>  <oscillator_strength_3>
0.0108

>  <oscillator_strength_4>
0.0013

>  <open_babel_can_smiles>
C/C(=N\[C@@H]1CCc2c1cc1CCCc1c2)/O

>  <mulliken_charges>
33
1   -0.55668
2   -0.280124
3   -0.3472
4   -0.346055
5   -0.350007
6   -0.291408
7   -0.273311
8   -0.271116
9   0.494081
10   0.134469
11   0.130252
12   0.131132
13   0.09227
14   -0.050288
15   -0.424415
16   -0.578183
17   0.195034
18   0.167245
19   0.168089
20   0.135927
21   0.143976
22   0.144512
23   0.150417
24   0.151567
25   0.143933
26   0.153482
27   0.1446
28   0.140622
29   0.146049
30   0.117502
31   0.131275
32   0.151576
33   0.400775

>  <lowdin_charges>
33
1   -0.489405
2   -0.274875
3   -0.27986
4   -0.27854
5   -0.280175
6   -0.277078
7   -0.173503
8   -0.172433
9   0.136777
10   -0.015343
11   -0.016179
12   -0.020105
13   -0.030683
14   -0.065833
15   -0.208209
16   -0.373851
17   0.182536
18   0.164465
19   0.167242
20   0.1462
21   0.145357
22   0.151306
23   0.14938
24   0.150465
25   0.150201
26   0.153516
27   0.151179
28   0.143655
29   0.149702
30   0.151665
31   0.158201
32   0.152957
33   0.351269

$$$$

