PCCDB-ID:  11903
public computational chemistry database (PCCDB) project, http://pccdb.org

 21 21  0  0  0  0  0  0  0  0999 V2000
    3.5557   -0.2172   -1.1072 C   0  0  0  0  0  0  0  0  0  0  0  0
    2.8725   -2.8595    1.2901 C   0  0  0  0  0  0  0  0  0  0  0  0
    2.4793   -0.1737   -0.0064 C   0  0  0  0  0  0  0  0  0  0  0  0
    4.1714   -0.4733    3.9688 C   0  0  0  0  0  0  0  0  0  0  0  0
    3.9642    0.7720    3.3784 C   0  0  0  0  0  0  0  0  0  0  0  0
    3.8163   -1.6299    3.2745 C   0  0  0  0  0  0  0  0  0  0  0  0
    3.4064    0.8403    2.1019 C   0  0  0  0  0  0  0  0  0  0  0  0
    3.2575   -1.5748    1.9913 C   0  0  0  0  0  0  0  0  0  0  0  0
    3.0490   -0.3132    1.3924 C   0  0  0  0  0  0  0  0  0  0  0  0
    3.1042   -0.1086   -2.1003 H   0  0  0  0  0  0  0  0  0  0  0  0
    4.1105   -1.1618   -1.0901 H   0  0  0  0  0  0  0  0  0  0  0  0
    4.2818    0.5924   -0.9730 H   0  0  0  0  0  0  0  0  0  0  0  0
    3.1596   -3.7299    1.8880 H   0  0  0  0  0  0  0  0  0  0  0  0
    3.3543   -2.9581    0.3101 H   0  0  0  0  0  0  0  0  0  0  0  0
    1.7897   -2.9210    1.1189 H   0  0  0  0  0  0  0  0  0  0  0  0
    1.7364   -0.9576   -0.1962 H   0  0  0  0  0  0  0  0  0  0  0  0
    1.9412    0.7798   -0.0782 H   0  0  0  0  0  0  0  0  0  0  0  0
    4.6031   -0.5473    4.9635 H   0  0  0  0  0  0  0  0  0  0  0  0
    4.2304    1.6841    3.9063 H   0  0  0  0  0  0  0  0  0  0  0  0
    3.9735   -2.6019    3.7373 H   0  0  0  0  0  0  0  0  0  0  0  0
    3.2389    1.8122    1.6415 H   0  0  0  0  0  0  0  0  0  0  0  0
  1 11  1  0  0  0  0
  1 12  1  0  0  0  0
  1  3  1  0  0  0  0
  2 13  1  0  0  0  0
  2  8  1  0  0  0  0
  3  9  1  0  0  0  0
  4 18  1  0  0  0  0
  5 19  1  0  0  0  0
  5  4  1  0  0  0  0
  6 20  1  0  0  0  0
  6  4  2  0  0  0  0
  7  5  2  0  0  0  0
  8  6  1  0  0  0  0
  9  8  2  0  0  0  0
  9  7  1  0  0  0  0
 10  1  1  0  0  0  0
 14  2  1  0  0  0  0
 15  2  1  0  0  0  0
 16  3  1  0  0  0  0
 17  3  1  0  0  0  0
 21  7  1  0  0  0  0
M  END
>  <HBA>
0

>  <HBD>
0

>  <TPSA>
0.0

>  <cid>
11903

>  <dipole>
0.5

>  <excitation_energy_1>
5.216

>  <excitation_energy_2>
5.734

>  <excitation_energy_3>
5.918

>  <excitation_energy_4>
6.08

>  <homo_energy>
-6.248

>  <homo_lumo_gap>
6.408

>  <logP>
2.557

>  <lumo_energy>
0.161

>  <melting_point>
11.33

>  <molecular_refractivity>
41.18

>  <oscillator_strength_1>
0.0012

>  <oscillator_strength_2>
0.0427

>  <oscillator_strength_3>
0.0062

>  <oscillator_strength_4>
0.015

>  <open_babel_can_smiles>
CCc1ccccc1C

>  <mulliken_charges>
21
1   -0.437467
2   -0.539046
3   -0.339244
4   -0.127583
5   -0.128777
6   -0.184398
7   -0.184846
8   0.130253
9   0.122953
10   0.142829
11   0.149927
12   0.15034
13   0.153831
14   0.160788
15   0.161646
16   0.141033
17   0.142009
18   0.124342
19   0.124257
20   0.118417
21   0.118737

>  <lowdin_charges>
21
1   -0.440748
2   -0.442482
3   -0.273832
4   -0.159702
5   -0.162567
6   -0.16811
7   -0.166706
8   -0.009173
9   -0.00949
10   0.148362
11   0.148894
12   0.151657
13   0.157097
14   0.157315
15   0.156812
16   0.14927
17   0.14889
18   0.154662
19   0.155864
20   0.152032
21   0.151957

$$$$

