PCCDB-ID:  11982
public computational chemistry database (PCCDB) project, http://pccdb.org

 21 21  0  0  0  0  0  0  0  0999 V2000
    5.7866    4.5393    1.0219 C   0  0  0  0  0  0  0  0  0  0  0  0
    5.0028    3.3073    0.5559 C   0  0  0  0  0  0  0  0  0  0  0  0
    3.0902   -2.2939   -2.3157 C   0  0  0  0  0  0  0  0  0  0  0  0
    4.2619   -1.7300   -1.7325 C   0  0  0  0  0  0  0  0  0  0  0  0
    5.2181    3.0307   -0.9285 C   0  0  0  0  0  0  0  0  0  0  0  0
    2.2730   -1.2387   -2.6087 C   0  0  0  0  0  0  0  0  0  0  0  0
    4.0704   -0.3738   -1.7144 C   0  0  0  0  0  0  0  0  0  0  0  0
    4.9538    0.6895   -1.2260 C   0  0  0  0  0  0  0  0  0  0  0  0
    6.0470    0.4625   -0.7405 O   0  0  0  0  0  0  0  0  0  0  0  0
    2.8489   -0.0655   -2.2520 O   0  0  0  0  0  0  0  0  0  0  0  0
    4.4159    1.9166   -1.3844 O   0  0  0  0  0  0  0  0  0  0  0  0
    5.6203    4.7270    2.0878 H   0  0  0  0  0  0  0  0  0  0  0  0
    5.4818    5.4400    0.4747 H   0  0  0  0  0  0  0  0  0  0  0  0
    6.8646    4.4060    0.8722 H   0  0  0  0  0  0  0  0  0  0  0  0
    3.9302    3.4486    0.7378 H   0  0  0  0  0  0  0  0  0  0  0  0
    5.3169    2.4255    1.1254 H   0  0  0  0  0  0  0  0  0  0  0  0
    2.8810   -3.3391   -2.4946 H   0  0  0  0  0  0  0  0  0  0  0  0
    5.1408   -2.2416   -1.3683 H   0  0  0  0  0  0  0  0  0  0  0  0
    6.2701    2.8222   -1.1415 H   0  0  0  0  0  0  0  0  0  0  0  0
    4.8836    3.8727   -1.5411 H   0  0  0  0  0  0  0  0  0  0  0  0
    1.2922   -1.1617   -3.0537 H   0  0  0  0  0  0  0  0  0  0  0  0
  1 12  1  0  0  0  0
  2 15  1  0  0  0  0
  2  1  1  0  0  0  0
  2 16  1  0  0  0  0
  3  4  1  0  0  0  0
  4  7  2  0  0  0  0
  4 18  1  0  0  0  0
  5  2  1  0  0  0  0
  6  3  2  0  0  0  0
  6 10  1  0  0  0  0
  7  8  1  0  0  0  0
  8  9  2  0  0  0  0
 10  7  1  0  0  0  0
 11  8  1  0  0  0  0
 11  5  1  0  0  0  0
 13  1  1  0  0  0  0
 14  1  1  0  0  0  0
 17  3  1  0  0  0  0
 19  5  1  0  0  0  0
 20  5  1  0  0  0  0
 21  6  1  0  0  0  0
M  END
>  <HBA>
3

>  <HBD>
0

>  <TPSA>
39.44

>  <cid>
11982

>  <dipole>
1.66

>  <excitation_energy_1>
5.0

>  <excitation_energy_2>
5.116

>  <excitation_energy_3>
6.013

>  <excitation_energy_4>
6.13

>  <homo_energy>
-6.517

>  <homo_lumo_gap>
5.475

>  <logP>
1.846

>  <lumo_energy>
-1.042

>  <melting_point>
27.16

>  <molecular_refractivity>
39.6

>  <oscillator_strength_1>
0.0031

>  <oscillator_strength_2>
0.4172

>  <oscillator_strength_3>
0.0147

>  <oscillator_strength_4>
0.005

>  <open_babel_can_smiles>
CCCOC(=O)c1ccco1

>  <mulliken_charges>
21
1   -0.453845
2   -0.273632
3   -0.189263
4   -0.161129
5   -0.036541
6   0.100742
7   0.278305
8   0.575968
9   -0.502483
10   -0.428449
11   -0.472439
12   0.15299
13   0.144236
14   0.15229
15   0.146881
16   0.163981
17   0.151347
18   0.168565
19   0.167468
20   0.150136
21   0.164872

>  <lowdin_charges>
21
1   -0.441273
2   -0.283377
3   -0.202068
4   -0.16244
5   -0.130432
6   -0.05763
7   0.026779
8   0.185807
9   -0.276704
10   -0.07484
11   -0.18273
12   0.154859
13   0.148047
14   0.149926
15   0.14663
16   0.157759
17   0.172834
18   0.185615
19   0.155955
20   0.152504
21   0.17478

$$$$

