PCCDB-ID:  7053
public computational chemistry database (PCCDB) project, http://pccdb.org

 22 23  0  0  0  0  0  0  0  0999 V2000
    0.9766   -0.1310    0.0807 C   0  0  0  0  0  0  0  0  0  0  0  0
    2.9544    2.4874    0.0386 C   0  0  0  0  0  0  0  0  0  0  0  0
    4.2150   -3.4826    0.0826 C   0  0  0  0  0  0  0  0  0  0  0  0
    5.5329   -2.9847    0.0641 C   0  0  0  0  0  0  0  0  0  0  0  0
    3.1235   -2.6210    0.0850 C   0  0  0  0  0  0  0  0  0  0  0  0
    5.7857   -1.6162    0.0475 C   0  0  0  0  0  0  0  0  0  0  0  0
    2.4753   -0.0834    0.0673 C   0  0  0  0  0  0  0  0  0  0  0  0
    3.2865    1.0295    0.0482 C   0  0  0  0  0  0  0  0  0  0  0  0
    3.3464   -1.2341    0.0677 C   0  0  0  0  0  0  0  0  0  0  0  0
    4.6844   -0.7558    0.0493 C   0  0  0  0  0  0  0  0  0  0  0  0
    4.6166    0.6215    0.0374 N   0  0  0  0  0  0  0  0  0  0  0  0
    0.5351    0.8705    0.1018 H   0  0  0  0  0  0  0  0  0  0  0  0
    0.5985   -0.6727    0.9579 H   0  0  0  0  0  0  0  0  0  0  0  0
    0.5802   -0.6440   -0.8059 H   0  0  0  0  0  0  0  0  0  0  0  0
    1.8726    2.6381    0.0643 H   0  0  0  0  0  0  0  0  0  0  0  0
    3.3358    2.9859   -0.8631 H   0  0  0  0  0  0  0  0  0  0  0  0
    3.3821    3.0079    0.9063 H   0  0  0  0  0  0  0  0  0  0  0  0
    4.0524   -4.5570    0.0953 H   0  0  0  0  0  0  0  0  0  0  0  0
    6.3678   -3.6803    0.0638 H   0  0  0  0  0  0  0  0  0  0  0  0
    2.1107   -3.0161    0.0988 H   0  0  0  0  0  0  0  0  0  0  0  0
    6.8032   -1.2333    0.0351 H   0  0  0  0  0  0  0  0  0  0  0  0
    5.4085    1.2453    0.0272 H   0  0  0  0  0  0  0  0  0  0  0  0
  1 12  1  0  0  0  0
  1 13  1  0  0  0  0
  2  8  1  0  0  0  0
  2 15  1  0  0  0  0
  2 17  1  0  0  0  0
  3  5  1  0  0  0  0
  3 18  1  0  0  0  0
  4  3  2  0  0  0  0
  5 20  1  0  0  0  0
  6 10  2  0  0  0  0
  6  4  1  0  0  0  0
  7  9  1  0  0  0  0
  7  1  1  0  0  0  0
  8  7  2  0  0  0  0
  9  5  2  0  0  0  0
 10  9  1  0  0  0  0
 11  8  1  0  0  0  0
 11 10  1  0  0  0  0
 14  1  1  0  0  0  0
 16  2  1  0  0  0  0
 19  4  1  0  0  0  0
 21  6  1  0  0  0  0
 22 11  1  0  0  0  0
M  END
>  <HBA>
0

>  <HBD>
1

>  <TPSA>
15.79

>  <cid>
7053

>  <dipole>
2.4

>  <excitation_energy_1>
4.563

>  <excitation_energy_2>
4.568

>  <excitation_energy_3>
4.786

>  <excitation_energy_4>
5.065

>  <homo_energy>
-5.132

>  <homo_lumo_gap>
5.178

>  <logP>
2.785

>  <lumo_energy>
0.046

>  <melting_point>
104.6

>  <molecular_refractivity>
48.23

>  <oscillator_strength_1>
0.0961

>  <oscillator_strength_2>
0.0019

>  <oscillator_strength_3>
0.019

>  <oscillator_strength_4>
0.0013

>  <open_babel_can_smiles>
Cc1[nH]c2c(c1C)cccc2

>  <mulliken_charges>
22
1   -0.534601
2   -0.539438
3   -0.140436
4   -0.151191
5   -0.210646
6   -0.170692
7   0.04583
8   0.298764
9   0.079451
10   0.323537
11   -0.743154
12   0.14707
13   0.156485
14   0.156732
15   0.172032
16   0.161608
17   0.160848
18   0.116307
19   0.118646
20   0.118897
21   0.116202
22   0.317748

>  <lowdin_charges>
22
1   -0.438656
2   -0.445952
3   -0.176316
4   -0.168087
5   -0.165062
6   -0.190622
7   -0.072215
8   0.021533
9   -0.034332
10   0.035303
11   -0.216825
12   0.152775
13   0.156662
14   0.156574
15   0.166823
16   0.159977
17   0.15994
18   0.150772
19   0.154509
20   0.153428
21   0.152199
22   0.287571

$$$$

