PCCDB-ID:  73026
public computational chemistry database (PCCDB) project, http://pccdb.org

 17 18  0  0  0  0  0  0  0  0999 V2000
   -2.4739    0.6134   -0.0014 C   0  0  0  0  0  0  0  0  0  0  0  0
   -2.3603   -0.7923    0.0507 C   0  0  0  0  0  0  0  0  0  0  0  0
   -1.3407    1.4071   -0.0424 C   0  0  0  0  0  0  0  0  0  0  0  0
   -1.1188   -1.4017    0.0612 C   0  0  0  0  0  0  0  0  0  0  0  0
   -0.0739    0.7980   -0.0319 C   0  0  0  0  0  0  0  0  0  0  0  0
    0.0480   -0.6103    0.0200 C   0  0  0  0  0  0  0  0  0  0  0  0
    1.1476    1.5710   -0.0720 C   0  0  0  0  0  0  0  0  0  0  0  0
    1.2712   -1.2649    0.0327 N   0  0  0  0  0  0  0  0  0  0  0  0
    2.3589   -0.5911   -0.0033 N   0  0  0  0  0  0  0  0  0  0  0  0
    2.2745    0.7415   -0.0522 N   0  0  0  0  0  0  0  0  0  0  0  0
    1.3116    2.7912   -0.1188 O   0  0  0  0  0  0  0  0  0  0  0  0
    3.4933    1.3797   -0.0875 O   0  0  0  0  0  0  0  0  0  0  0  0
   -3.4580    1.0725   -0.0101 H   0  0  0  0  0  0  0  0  0  0  0  0
   -3.2598   -1.4002    0.0834 H   0  0  0  0  0  0  0  0  0  0  0  0
   -1.4006    2.4897   -0.0823 H   0  0  0  0  0  0  0  0  0  0  0  0
   -1.0058   -2.4801    0.1012 H   0  0  0  0  0  0  0  0  0  0  0  0
    3.1993    2.3235   -0.1197 H   0  0  0  0  0  0  0  0  0  0  0  0
  1  2  2  0  0  0  0
  2  4  1  0  0  0  0
  2 14  1  0  0  0  0
  3  5  2  0  0  0  0
  3  1  1  0  0  0  0
  4 16  1  0  0  0  0
  5  6  1  0  0  0  0
  6  8  1  0  0  0  0
  6  4  2  0  0  0  0
  7 10  1  0  0  0  0
  7  5  1  0  0  0  0
  9  8  2  0  0  0  0
 10  9  1  0  0  0  0
 11  7  2  0  0  0  0
 12 10  1  0  0  0  0
 13  1  1  0  0  0  0
 15  3  1  0  0  0  0
 17 12  1  0  0  0  0
M  END
>  <HBA>
5

>  <HBD>
1

>  <TPSA>
68.01

>  <cid>
73026

>  <dipole>
4.05

>  <excitation_energy_1>
4.022

>  <excitation_energy_2>
4.101

>  <excitation_energy_3>
4.428

>  <excitation_energy_4>
4.605

>  <homo_energy>
-6.77

>  <homo_lumo_gap>
4.601

>  <logP>
0.029

>  <lumo_energy>
-2.169

>  <melting_point>
171.84

>  <molecular_refractivity>
41.34

>  <oscillator_strength_1>
0.0038

>  <oscillator_strength_2>
0.1277

>  <oscillator_strength_3>
0.0327

>  <oscillator_strength_4>
0.0

>  <open_babel_can_smiles>
On1nnc2c(c1=O)cccc2

>  <mulliken_charges>
17
1   -0.130427
2   -0.127797
3   -0.171966
4   -0.13585
5   0.059375
6   0.274838
7   0.624745
8   -0.378807
9   0.008266
10   -0.085589
11   -0.549475
12   -0.477134
13   0.153048
14   0.152937
15   0.175794
16   0.1662
17   0.441845

>  <lowdin_charges>
17
1   -0.13845
2   -0.13534
3   -0.126508
4   -0.135493
5   -0.045951
6   0.025099
7   0.134896
8   -0.113237
9   0.000654
10   0.103094
11   -0.308115
12   -0.329479
13   0.169294
14   0.170425
15   0.180915
16   0.178454
17   0.369742

$$$$

