PCCDB-ID:  21151
public computational chemistry database (PCCDB) project, http://pccdb.org

 28 28  0  0  0  0  0  0  0  0999 V2000
   -1.5385    0.8269    0.8702 C   0  0  0  0  0  0  0  0  0  0  0  0
   -0.3771    1.8041    0.6323 C   0  0  0  0  0  0  0  0  0  0  0  0
   -1.6482   -0.3468   -0.1192 C   0  0  0  0  0  0  0  0  0  0  0  0
    1.0203    1.1749    0.4962 C   0  0  0  0  0  0  0  0  0  0  0  0
   -0.5386   -1.4035    0.0419 C   0  0  0  0  0  0  0  0  0  0  0  0
    1.2003    0.3373   -0.7846 C   0  0  0  0  0  0  0  0  0  0  0  0
    0.6573   -1.7310   -2.1508 C   0  0  0  0  0  0  0  0  0  0  0  0
    0.7960   -1.1629   -0.7091 C   0  0  0  0  0  0  0  0  0  0  0  0
    1.8257   -1.6854   -3.0302 N   0  0  0  0  0  0  0  0  0  0  0  0
    1.8091   -1.9886   -0.0170 N   0  0  0  0  0  0  0  0  0  0  0  0
   -2.4758    1.3995    0.8519 H   0  0  0  0  0  0  0  0  0  0  0  0
   -1.4583    0.4111    1.8858 H   0  0  0  0  0  0  0  0  0  0  0  0
   -0.3637    2.5324    1.4546 H   0  0  0  0  0  0  0  0  0  0  0  0
   -0.5780    2.3834   -0.2813 H   0  0  0  0  0  0  0  0  0  0  0  0
   -1.6857    0.0291   -1.1513 H   0  0  0  0  0  0  0  0  0  0  0  0
   -2.6145   -0.8389    0.0510 H   0  0  0  0  0  0  0  0  0  0  0  0
    1.2558    0.5718    1.3858 H   0  0  0  0  0  0  0  0  0  0  0  0
    1.7561    1.9895    0.4899 H   0  0  0  0  0  0  0  0  0  0  0  0
   -0.9133   -2.3868   -0.2679 H   0  0  0  0  0  0  0  0  0  0  0  0
   -0.3236   -1.5054    1.1151 H   0  0  0  0  0  0  0  0  0  0  0  0
    2.2548    0.3704   -1.0916 H   0  0  0  0  0  0  0  0  0  0  0  0
    0.6434    0.8320   -1.5943 H   0  0  0  0  0  0  0  0  0  0  0  0
   -0.1610   -1.2031   -2.6582 H   0  0  0  0  0  0  0  0  0  0  0  0
    0.3594   -2.7820   -2.0661 H   0  0  0  0  0  0  0  0  0  0  0  0
    2.1778   -0.7357   -3.1295 H   0  0  0  0  0  0  0  0  0  0  0  0
    2.5811   -2.2532   -2.6516 H   0  0  0  0  0  0  0  0  0  0  0  0
    1.9059   -1.6761    0.9491 H   0  0  0  0  0  0  0  0  0  0  0  0
    2.7215   -1.8333   -0.4469 H   0  0  0  0  0  0  0  0  0  0  0  0
  1 12  1  0  0  0  0
  2  1  1  0  0  0  0
  2 13  1  0  0  0  0
  3  5  1  0  0  0  0
  3 16  1  0  0  0  0
  3  1  1  0  0  0  0
  4  2  1  0  0  0  0
  4 17  1  0  0  0  0
  5 20  1  0  0  0  0
  6  8  1  0  0  0  0
  6  4  1  0  0  0  0
  7 24  1  0  0  0  0
  7  8  1  0  0  0  0
  8 10  1  0  0  0  0
  8  5  1  0  0  0  0
  9 26  1  0  0  0  0
  9  7  1  0  0  0  0
 10 27  1  0  0  0  0
 11  1  1  0  0  0  0
 14  2  1  0  0  0  0
 15  3  1  0  0  0  0
 18  4  1  0  0  0  0
 19  5  1  0  0  0  0
 21  6  1  0  0  0  0
 22  6  1  0  0  0  0
 23  7  1  0  0  0  0
 25  9  1  0  0  0  0
 28 10  1  0  0  0  0
M  END
>  <HBA>
2

>  <HBD>
2

>  <TPSA>
52.04

>  <cid>
21151

>  <dipole>
2.32

>  <excitation_energy_1>
5.287

>  <excitation_energy_2>
5.712

>  <excitation_energy_3>
5.933

>  <excitation_energy_4>
6.012

>  <homo_energy>
-6.003

>  <homo_lumo_gap>
7.75

>  <logP>
2.397

>  <lumo_energy>
1.747

>  <melting_point>
114.21

>  <molecular_refractivity>
43.91

>  <oscillator_strength_1>
0.0078

>  <oscillator_strength_2>
0.0469

>  <oscillator_strength_3>
0.0035

>  <oscillator_strength_4>
0.004

>  <open_babel_can_smiles>
NCC1(N)CCCCCC1

>  <mulliken_charges>
28
1   -0.255743
2   -0.255511
3   -0.265175
4   -0.259972
5   -0.264246
6   -0.27738
7   -0.141287
8   0.187798
9   -0.723084
10   -0.728156
11   0.129332
12   0.127371
13   0.128999
14   0.128631
15   0.132216
16   0.133514
17   0.118556
18   0.131537
19   0.142279
20   0.122594
21   0.111514
22   0.126822
23   0.135678
24   0.148962
25   0.296894
26   0.297631
27   0.293267
28   0.27696

>  <lowdin_charges>
28
1   -0.276828
2   -0.277596
3   -0.280879
4   -0.28143
5   -0.276913
6   -0.299761
7   -0.212568
8   0.037629
9   -0.554187
10   -0.550114
11   0.14298
12   0.135659
13   0.1432
14   0.137425
15   0.138547
16   0.146699
17   0.133519
18   0.145539
19   0.15085
20   0.138262
21   0.133007
22   0.140047
23   0.141795
24   0.148871
25   0.251551
26   0.255425
27   0.249015
28   0.240255

$$$$

