PCCDB-ID:  42595
public computational chemistry database (PCCDB) project, http://pccdb.org

 29 30  0  0  1  0  0  0  0  0999 V2000
    4.0168   -0.5697    0.7505 C   0  0  0  0  0  0  0  0  0  0  0  0
    4.0271    2.6220   -3.5508 C   0  0  0  0  0  0  0  0  0  0  0  0
    4.8171    1.3330   -3.1482 C   0  0  0  0  0  0  0  0  0  0  0  0
    4.9363    2.9032   -1.3521 C   0  0  0  0  0  0  0  0  0  0  0  0
    2.6082    2.4007   -1.4858 C   0  0  0  0  0  0  0  0  0  0  0  0
    3.2441    0.7058    0.3785 C   0  0  1  0  0  0  0  0  0  0  0  0
    3.6858    3.2598   -2.1837 C   0  0  2  0  0  0  0  0  0  0  0  0
    4.8116    1.3832   -1.6004 C   0  0  1  0  0  0  0  0  0  0  0  0
    3.3643    1.0789   -1.1135 C   0  0  2  0  0  0  0  0  0  0  0  0
    1.6265    0.3643    2.1434 N   0  0  0  0  0  0  0  0  0  0  0  0
    1.8019    0.6298    0.6955 N   0  0  0  0  0  0  0  0  0  0  0  0
    5.1008   -0.4289    0.6854 H   0  0  0  0  0  0  0  0  0  0  0  0
    3.7449   -1.3936    0.0764 H   0  0  0  0  0  0  0  0  0  0  0  0
    3.7671   -0.8705    1.7715 H   0  0  0  0  0  0  0  0  0  0  0  0
    3.1268    2.4013   -4.1356 H   0  0  0  0  0  0  0  0  0  0  0  0
    4.6484    3.2943   -4.1537 H   0  0  0  0  0  0  0  0  0  0  0  0
    5.8443    1.3656   -3.5295 H   0  0  0  0  0  0  0  0  0  0  0  0
    4.3576    0.4151   -3.5318 H   0  0  0  0  0  0  0  0  0  0  0  0
    4.8506    3.1885   -0.2969 H   0  0  0  0  0  0  0  0  0  0  0  0
    5.8652    3.3270   -1.7528 H   0  0  0  0  0  0  0  0  0  0  0  0
    1.7373    2.2200   -2.1253 H   0  0  0  0  0  0  0  0  0  0  0  0
    2.2380    2.8902   -0.5792 H   0  0  0  0  0  0  0  0  0  0  0  0
    3.6361    1.5438    0.9763 H   0  0  0  0  0  0  0  0  0  0  0  0
    3.4312    4.3228   -2.2416 H   0  0  0  0  0  0  0  0  0  0  0  0
    5.5828    0.7555   -1.1464 H   0  0  0  0  0  0  0  0  0  0  0  0
    2.9628    0.2295   -1.6863 H   0  0  0  0  0  0  0  0  0  0  0  0
    0.6150    0.4497    2.2749 H   0  0  0  0  0  0  0  0  0  0  0  0
    1.9828    1.2174    2.5844 H   0  0  0  0  0  0  0  0  0  0  0  0
    1.4655   -0.2343    0.2610 H   0  0  0  0  0  0  0  0  0  0  0  0
  1 14  1  0  0  0  0
  2  3  1  0  0  0  0
  2  7  1  0  0  0  0
  3  8  1  0  0  0  0
  4 19  1  0  0  0  0
  5  9  1  0  0  0  0
  5 22  1  0  0  0  0
  6 11  1  0  0  0  0
  6  1  1  0  0  0  0
  6 23  1  1  0  0  0
  7 24  1  6  0  0  0
  7  5  1  0  0  0  0
  7  4  1  0  0  0  0
  8  4  1  0  0  0  0
  8 25  1  1  0  0  0
  8  9  1  0  0  0  0
  9 26  1  6  0  0  0
  9  6  1  0  0  0  0
 10 27  1  0  0  0  0
 10 28  1  0  0  0  0
 11 10  1  0  0  0  0
 12  1  1  0  0  0  0
 13  1  1  0  0  0  0
 15  2  1  0  0  0  0
 16  2  1  0  0  0  0
 17  3  1  0  0  0  0
 18  3  1  0  0  0  0
 20  4  1  0  0  0  0
 21  5  1  0  0  0  0
 29 11  1  0  0  0  0
M  END
>  <HBA>
2

>  <HBD>
2

>  <TPSA>
38.05

>  <cid>
42595

>  <dipole>
0.4

>  <excitation_energy_1>
4.661

>  <excitation_energy_2>
5.112

>  <excitation_energy_3>
5.207

>  <excitation_energy_4>
5.498

>  <homo_energy>
-5.211

>  <homo_lumo_gap>
7.361

>  <logP>
2.366

>  <lumo_energy>
2.15

>  <melting_point>
98.03

>  <molecular_refractivity>
46.66

>  <oscillator_strength_1>
0.0016

>  <oscillator_strength_2>
0.0045

>  <oscillator_strength_3>
0.0028

>  <oscillator_strength_4>
0.0041

>  <open_babel_can_smiles>
NN[C@H]([C@H]1C[C@H]2C[C@@H]1CC2)C

>  <mulliken_charges>
29
1   -0.457941
2   -0.267924
3   -0.273125
4   -0.273748
5   -0.262308
6   0.023425
7   -0.102424
8   -0.108552
9   -0.079591
10   -0.592531
11   -0.467128
12   0.140755
13   0.129224
14   0.175775
15   0.130504
16   0.131851
17   0.132227
18   0.130695
19   0.13008
20   0.128491
21   0.127131
22   0.144703
23   0.118015
24   0.112023
25   0.116189
26   0.108148
27   0.305112
28   0.302052
29   0.298873

>  <lowdin_charges>
29
1   -0.463924
2   -0.287882
3   -0.284506
4   -0.286259
5   -0.283262
6   -0.072482
7   -0.133327
8   -0.138014
9   -0.13487
10   -0.49388
11   -0.316974
12   0.146715
13   0.143072
14   0.164711
15   0.141986
16   0.143946
17   0.141965
18   0.141562
19   0.138963
20   0.141971
21   0.142826
22   0.151092
23   0.131537
24   0.13704
25   0.142079
26   0.133196
27   0.252816
28   0.251176
29   0.248727

$$$$

