PCCDB-ID:  25040
public computational chemistry database (PCCDB) project, http://pccdb.org

 28 27  0  0  0  0  0  0  0  0999 V2000
    0.3996    0.6442   -0.0750 C   0  0  0  0  0  0  0  0  0  0  0  0
   -0.1519    0.0284    1.2181 C   0  0  0  0  0  0  0  0  0  0  0  0
    1.7036    1.3960    0.1691 C   0  0  0  0  0  0  0  0  0  0  0  0
   -1.4446   -0.7473    1.0158 C   0  0  0  0  0  0  0  0  0  0  0  0
    2.4735    3.5473   -2.7638 C   0  0  0  0  0  0  0  0  0  0  0  0
   -4.6301    0.7139   -0.2143 C   0  0  0  0  0  0  0  0  0  0  0  0
    1.8130    3.1193   -1.4667 C   0  0  0  0  0  0  0  0  0  0  0  0
   -3.6599   -0.3432    0.2779 C   0  0  0  0  0  0  0  0  0  0  0  0
    0.9977    3.7894   -0.8698 O   0  0  0  0  0  0  0  0  0  0  0  0
   -3.9348   -1.5182    0.3914 O   0  0  0  0  0  0  0  0  0  0  0  0
    2.2527    1.9089   -1.0693 O   0  0  0  0  0  0  0  0  0  0  0  0
   -2.4563    0.1865    0.5675 O   0  0  0  0  0  0  0  0  0  0  0  0
    3.5407    5.0276   -2.5186 S   0  0  0  0  0  0  0  0  0  0  0  0
   -5.0487    0.4615   -1.9901 S   0  0  0  0  0  0  0  0  0  0  0  0
   -0.3370    1.3351   -0.4968 H   0  0  0  0  0  0  0  0  0  0  0  0
    0.5759   -0.1437   -0.8191 H   0  0  0  0  0  0  0  0  0  0  0  0
   -0.3207    0.8122    1.9679 H   0  0  0  0  0  0  0  0  0  0  0  0
    0.5826   -0.6667    1.6486 H   0  0  0  0  0  0  0  0  0  0  0  0
    2.4821    0.7330    0.5568 H   0  0  0  0  0  0  0  0  0  0  0  0
    1.5568    2.2295    0.8610 H   0  0  0  0  0  0  0  0  0  0  0  0
   -1.7868   -1.2144    1.9448 H   0  0  0  0  0  0  0  0  0  0  0  0
   -1.3381   -1.5358    0.2634 H   0  0  0  0  0  0  0  0  0  0  0  0
    1.6976    3.7703   -3.5008 H   0  0  0  0  0  0  0  0  0  0  0  0
    3.1220    2.7602   -3.1506 H   0  0  0  0  0  0  0  0  0  0  0  0
   -4.1949    1.7114   -0.1405 H   0  0  0  0  0  0  0  0  0  0  0  0
   -5.5406    0.6705    0.3888 H   0  0  0  0  0  0  0  0  0  0  0  0
    2.5671    5.8006   -1.9920 H   0  0  0  0  0  0  0  0  0  0  0  0
   -5.4920   -0.8048   -1.8384 H   0  0  0  0  0  0  0  0  0  0  0  0
  1  3  1  0  0  0  0
  1  2  1  0  0  0  0
  2 18  1  0  0  0  0
  2 17  1  0  0  0  0
  3 19  1  0  0  0  0
  3 20  1  0  0  0  0
  4  2  1  0  0  0  0
  4 21  1  0  0  0  0
  5 13  1  0  0  0  0
  5  7  1  0  0  0  0
  6 25  1  0  0  0  0
  6  8  1  0  0  0  0
  6 26  1  0  0  0  0
  7 11  1  0  0  0  0
  7  9  2  0  0  0  0
  8 10  2  0  0  0  0
  8 12  1  0  0  0  0
 11  3  1  0  0  0  0
 12  4  1  0  0  0  0
 13 27  1  0  0  0  0
 14 28  1  0  0  0  0
 14  6  1  0  0  0  0
 15  1  1  0  0  0  0
 16  1  1  0  0  0  0
 22  4  1  0  0  0  0
 23  5  1  0  0  0  0
 24  5  1  0  0  0  0
M  END
>  <HBA>
6

>  <HBD>
2

>  <TPSA>
130.2

>  <cid>
25040

>  <dipole>
1.95

>  <excitation_energy_1>
4.85

>  <excitation_energy_2>
4.855

>  <excitation_energy_3>
5.579

>  <excitation_energy_4>
5.585

>  <homo_energy>
-6.7

>  <homo_lumo_gap>
6.207

>  <logP>
0.713

>  <lumo_energy>
-0.493

>  <melting_point>
37.51

>  <molecular_refractivity>
59.0

>  <oscillator_strength_1>
0.0076

>  <oscillator_strength_2>
0.0085

>  <oscillator_strength_3>
0.0125

>  <oscillator_strength_4>
0.0164

>  <open_babel_can_smiles>
SCC(=O)OCCCCOC(=O)CS

>  <mulliken_charges>
28
1   -0.282425
2   -0.295159
3   -0.048299
4   -0.041457
5   -0.502369
6   -0.503469
7   0.631163
8   0.634081
9   -0.469972
10   -0.468997
11   -0.453133
12   -0.451571
13   -0.05684
14   -0.056362
15   0.181079
16   0.146697
17   0.157944
18   0.144939
19   0.1543
20   0.17343
21   0.163616
22   0.165024
23   0.209952
24   0.206532
25   0.208504
26   0.20959
27   0.121808
28   0.121393

>  <lowdin_charges>
28
1   -0.290504
2   -0.28348
3   -0.133175
4   -0.124396
5   -0.397426
6   -0.394953
7   0.195423
8   0.189942
9   -0.269812
10   -0.264718
11   -0.184959
12   -0.187128
13   -0.056405
14   -0.052441
15   0.166225
16   0.149795
17   0.155246
18   0.153346
19   0.154838
20   0.16142
21   0.156662
22   0.156147
23   0.184028
24   0.187332
25   0.186476
26   0.183231
27   0.131158
28   0.128126

$$$$

