PCCDB-ID:  41508
public computational chemistry database (PCCDB) project, http://pccdb.org

 30 30  0  0  0  0  0  0  0  0999 V2000
    2.3020   -3.4459    0.7201 C   0  0  0  0  0  0  0  0  0  0  0  0
    4.4168   -3.3136    2.1017 C   0  0  0  0  0  0  0  0  0  0  0  0
    6.9445    1.2741   -1.0197 C   0  0  0  0  0  0  0  0  0  0  0  0
    7.1995   -4.5257   -0.1751 C   0  0  0  0  0  0  0  0  0  0  0  0
    8.2292   -0.8854   -0.6643 C   0  0  0  0  0  0  0  0  0  0  0  0
    8.2637   -2.2626   -0.4559 C   0  0  0  0  0  0  0  0  0  0  0  0
    4.5230   -3.1032   -0.4502 C   0  0  0  0  0  0  0  0  0  0  0  0
    5.8403   -0.9889   -0.7397 C   0  0  0  0  0  0  0  0  0  0  0  0
    3.7014   -2.8252    0.8348 C   0  0  0  0  0  0  0  0  0  0  0  0
    7.0074   -0.2214   -0.8103 C   0  0  0  0  0  0  0  0  0  0  0  0
    7.0941   -3.0296   -0.3804 C   0  0  0  0  0  0  0  0  0  0  0  0
    5.8528   -2.3726   -0.5210 C   0  0  0  0  0  0  0  0  0  0  0  0
    1.6943   -3.2175    1.6038 H   0  0  0  0  0  0  0  0  0  0  0  0
    2.3629   -4.5388    0.6337 H   0  0  0  0  0  0  0  0  0  0  0  0
    1.7675   -3.0715   -0.1612 H   0  0  0  0  0  0  0  0  0  0  0  0
    3.8394   -3.0612    2.9990 H   0  0  0  0  0  0  0  0  0  0  0  0
    5.4092   -2.8612    2.2019 H   0  0  0  0  0  0  0  0  0  0  0  0
    4.5411   -4.4046    2.0858 H   0  0  0  0  0  0  0  0  0  0  0  0
    7.8729    1.6565   -1.4570 H   0  0  0  0  0  0  0  0  0  0  0  0
    6.7886    1.8057   -0.0710 H   0  0  0  0  0  0  0  0  0  0  0  0
    6.1188    1.5525   -1.6840 H   0  0  0  0  0  0  0  0  0  0  0  0
    8.2468   -4.8275   -0.0743 H   0  0  0  0  0  0  0  0  0  0  0  0
    6.7770   -5.0863   -1.0188 H   0  0  0  0  0  0  0  0  0  0  0  0
    6.6720   -4.8595    0.7260 H   0  0  0  0  0  0  0  0  0  0  0  0
    9.1600   -0.3251   -0.7203 H   0  0  0  0  0  0  0  0  0  0  0  0
    9.2258   -2.7605   -0.3549 H   0  0  0  0  0  0  0  0  0  0  0  0
    3.9117   -2.8029   -1.3126 H   0  0  0  0  0  0  0  0  0  0  0  0
    4.6690   -4.1855   -0.5443 H   0  0  0  0  0  0  0  0  0  0  0  0
    4.8788   -0.4915   -0.8635 H   0  0  0  0  0  0  0  0  0  0  0  0
    3.5830   -1.7347    0.9177 H   0  0  0  0  0  0  0  0  0  0  0  0
  1  9  1  0  0  0  0
  1 13  1  0  0  0  0
  2 17  1  0  0  0  0
  2 16  1  0  0  0  0
  3 10  1  0  0  0  0
  3 20  1  0  0  0  0
  4 22  1  0  0  0  0
  4 24  1  0  0  0  0
  5  6  2  0  0  0  0
  6 11  1  0  0  0  0
  6 26  1  0  0  0  0
  7  9  1  0  0  0  0
  8 12  1  0  0  0  0
  9 30  1  0  0  0  0
  9  2  1  0  0  0  0
 10  8  2  0  0  0  0
 10  5  1  0  0  0  0
 11  4  1  0  0  0  0
 12  7  1  0  0  0  0
 12 11  2  0  0  0  0
 14  1  1  0  0  0  0
 15  1  1  0  0  0  0
 18  2  1  0  0  0  0
 19  3  1  0  0  0  0
 21  3  1  0  0  0  0
 23  4  1  0  0  0  0
 25  5  1  0  0  0  0
 27  7  1  0  0  0  0
 28  7  1  0  0  0  0
 29  8  1  0  0  0  0
M  END
>  <HBA>
0

>  <HBD>
0

>  <TPSA>
0.0

>  <cid>
41508

>  <dipole>
0.26

>  <excitation_energy_1>
5.064

>  <excitation_energy_2>
5.646

>  <excitation_energy_3>
5.718

>  <excitation_energy_4>
5.941

>  <homo_energy>
-6.041

>  <homo_lumo_gap>
6.207

>  <logP>
3.502

>  <lumo_energy>
0.166

>  <melting_point>
14.84

>  <molecular_refractivity>
55.76

>  <oscillator_strength_1>
0.0091

>  <oscillator_strength_2>
0.0213

>  <oscillator_strength_3>
0.0046

>  <oscillator_strength_4>
0.0012

>  <open_babel_can_smiles>
CC(Cc1cc(C)ccc1C)C

>  <mulliken_charges>
30
1   -0.4409
2   -0.447381
3   -0.529872
4   -0.541116
5   -0.181055
6   -0.185114
7   -0.34321
8   -0.240582
9   -0.063948
10   0.184475
11   0.126477
12   0.122524
13   0.14112
14   0.138501
15   0.138637
16   0.138976
17   0.155983
18   0.135546
19   0.153829
20   0.162422
21   0.155218
22   0.152112
23   0.15954
24   0.162662
25   0.116219
26   0.116956
27   0.139661
28   0.133844
29   0.111668
30   0.126807

>  <lowdin_charges>
30
1   -0.444137
2   -0.446213
3   -0.443359
4   -0.446237
5   -0.173432
6   -0.166914
7   -0.276665
8   -0.176064
9   -0.11397
10   -0.002332
11   -0.014507
12   -0.009923
13   0.149204
14   0.143142
15   0.14729
16   0.148482
17   0.155286
18   0.140638
19   0.156559
20   0.159875
21   0.157685
22   0.154417
23   0.158274
24   0.158997
25   0.152425
26   0.15171
27   0.150541
28   0.145513
29   0.148749
30   0.134965

$$$$

