PCCDB-ID:  18774
public computational chemistry database (PCCDB) project, http://pccdb.org

 22 23  0  0  0  0  0  0  0  0999 V2000
    0.9987   -0.2986   -0.1441 C   0  0  0  0  0  0  0  0  0  0  0  0
    8.2116    2.9267   -0.1573 C   0  0  0  0  0  0  0  0  0  0  0  0
    8.2646    1.5409    0.0145 C   0  0  0  0  0  0  0  0  0  0  0  0
    6.9722    3.5529   -0.2965 C   0  0  0  0  0  0  0  0  0  0  0  0
    7.0931    0.7892    0.0469 C   0  0  0  0  0  0  0  0  0  0  0  0
    5.7981    2.8017   -0.2641 C   0  0  0  0  0  0  0  0  0  0  0  0
    3.2563    1.0460   -0.1977 C   0  0  0  0  0  0  0  0  0  0  0  0
    2.4792   -0.0905   -0.0889 C   0  0  0  0  0  0  0  0  0  0  0  0
    5.8396    1.4093   -0.0924 C   0  0  0  0  0  0  0  0  0  0  0  0
    4.6030    0.6097   -0.0561 C   0  0  0  0  0  0  0  0  0  0  0  0
    3.3635   -1.1103    0.1028 N   0  0  0  0  0  0  0  0  0  0  0  0
    4.6531   -0.7155    0.1281 N   0  0  0  0  0  0  0  0  0  0  0  0
    0.4966    0.6451   -0.3719 H   0  0  0  0  0  0  0  0  0  0  0  0
    0.6009   -0.6653    0.8108 H   0  0  0  0  0  0  0  0  0  0  0  0
    0.7166   -1.0216   -0.9198 H   0  0  0  0  0  0  0  0  0  0  0  0
    9.1270    3.5120   -0.1825 H   0  0  0  0  0  0  0  0  0  0  0  0
    9.2248    1.0428    0.1228 H   0  0  0  0  0  0  0  0  0  0  0  0
    6.9171    4.6302   -0.4307 H   0  0  0  0  0  0  0  0  0  0  0  0
    7.1313   -0.2869    0.1794 H   0  0  0  0  0  0  0  0  0  0  0  0
    4.8412    3.3043   -0.3734 H   0  0  0  0  0  0  0  0  0  0  0  0
    2.8919    2.0499   -0.3597 H   0  0  0  0  0  0  0  0  0  0  0  0
    3.1559   -2.0898    0.2294 H   0  0  0  0  0  0  0  0  0  0  0  0
  1  8  1  0  0  0  0
  1 14  1  0  0  0  0
  2  3  2  0  0  0  0
  3  5  1  0  0  0  0
  3 17  1  0  0  0  0
  4  6  2  0  0  0  0
  4  2  1  0  0  0  0
  5 19  1  0  0  0  0
  6  9  1  0  0  0  0
  7  8  2  0  0  0  0
  7 10  1  0  0  0  0
  8 11  1  0  0  0  0
  9 10  1  0  0  0  0
  9  5  2  0  0  0  0
 10 12  2  0  0  0  0
 11 12  1  0  0  0  0
 11 22  1  0  0  0  0
 13  1  1  0  0  0  0
 15  1  1  0  0  0  0
 16  2  1  0  0  0  0
 18  4  1  0  0  0  0
 20  6  1  0  0  0  0
 21  7  1  0  0  0  0
M  END
>  <HBA>
1

>  <HBD>
1

>  <TPSA>
28.68

>  <cid>
18774

>  <dipole>
2.98

>  <excitation_energy_1>
4.844

>  <excitation_energy_2>
4.914

>  <excitation_energy_3>
5.193

>  <excitation_energy_4>
5.359

>  <homo_energy>
-5.706

>  <homo_lumo_gap>
5.361

>  <logP>
2.385

>  <lumo_energy>
-0.346

>  <melting_point>
108.21

>  <molecular_refractivity>
48.99

>  <oscillator_strength_1>
0.0469

>  <oscillator_strength_2>
0.3494

>  <oscillator_strength_3>
0.0

>  <oscillator_strength_4>
0.0179

>  <open_babel_can_smiles>
Cc1[nH]nc(c1)c1ccccc1

>  <mulliken_charges>
22
1   -0.534874
2   -0.127085
3   -0.134289
4   -0.138431
5   -0.17483
6   -0.183658
7   -0.315156
8   0.405261
9   0.125727
10   0.260068
11   -0.455103
12   -0.359724
13   0.176733
14   0.169981
15   0.167499
16   0.124541
17   0.126325
18   0.124866
19   0.152587
20   0.122249
21   0.131445
22   0.335869

>  <lowdin_charges>
22
1   -0.444764
2   -0.162269
3   -0.156113
4   -0.155084
5   -0.148715
6   -0.162768
7   -0.247705
8   0.020225
9   -0.002958
10   0.004813
11   -0.123683
12   -0.16681
13   0.173143
14   0.164741
15   0.164609
16   0.156011
17   0.156024
18   0.153447
19   0.168526
20   0.154343
21   0.164058
22   0.290929

$$$$

