PCCDB-ID:  7614
public computational chemistry database (PCCDB) project, http://pccdb.org

 36 35  0  0  1  0  0  0  0  0999 V2000
    1.2622   -1.7329    2.2938 C   0  0  0  0  0  0  0  0  0  0  0  0
    0.3673    0.5184    1.5386 C   0  0  0  0  0  0  0  0  0  0  0  0
    3.1368    3.1250    5.0619 C   0  0  0  0  0  0  0  0  0  0  0  0
    3.5356    4.4914    2.9770 C   0  0  0  0  0  0  0  0  0  0  0  0
    2.8427   -0.0098    1.4675 C   0  0  0  0  0  0  0  0  0  0  0  0
    3.3515    1.2900    0.9025 C   0  0  0  0  0  0  0  0  0  0  0  0
    7.4272    2.1492    0.3698 C   0  0  0  0  0  0  0  0  0  0  0  0
    6.4353    0.9895    0.3563 C   0  0  0  0  0  0  0  0  0  0  0  0
    4.3815    2.0771    3.1421 C   0  0  0  0  0  0  0  0  0  0  0  0
    1.5771   -0.3608    1.7449 C   0  0  0  0  0  0  0  0  0  0  0  0
    3.2793    3.0813    3.5323 C   0  0  0  0  0  0  0  0  0  0  0  0
    4.5904    1.8386    1.6435 C   0  0  1  0  0  0  0  0  0  0  0  0
    7.9845    2.5674   -0.6191 O   0  0  0  0  0  0  0  0  0  0  0  0
    5.6871    0.9068    1.5476 O   0  0  0  0  0  0  0  0  0  0  0  0
    0.7508   -1.6636    3.2643 H   0  0  0  0  0  0  0  0  0  0  0  0
    2.1652   -2.3364    2.4288 H   0  0  0  0  0  0  0  0  0  0  0  0
    0.5834   -2.2812    1.6251 H   0  0  0  0  0  0  0  0  0  0  0  0
   -0.1900    0.6399    2.4779 H   0  0  0  0  0  0  0  0  0  0  0  0
   -0.3288    0.0554    0.8252 H   0  0  0  0  0  0  0  0  0  0  0  0
    0.6119    1.5144    1.1615 H   0  0  0  0  0  0  0  0  0  0  0  0
    2.3336    3.8068    5.3651 H   0  0  0  0  0  0  0  0  0  0  0  0
    4.0650    3.4746    5.5326 H   0  0  0  0  0  0  0  0  0  0  0  0
    2.9096    2.1332    5.4699 H   0  0  0  0  0  0  0  0  0  0  0  0
    2.7548    5.1873    3.3055 H   0  0  0  0  0  0  0  0  0  0  0  0
    3.5527    4.5131    1.8814 H   0  0  0  0  0  0  0  0  0  0  0  0
    4.4981    4.8826    3.3323 H   0  0  0  0  0  0  0  0  0  0  0  0
    3.6230   -0.7487    1.6485 H   0  0  0  0  0  0  0  0  0  0  0  0
    2.5783    2.0653    0.8973 H   0  0  0  0  0  0  0  0  0  0  0  0
    3.6313    1.1448   -0.1527 H   0  0  0  0  0  0  0  0  0  0  0  0
    7.6267    2.5668    1.3832 H   0  0  0  0  0  0  0  0  0  0  0  0
    7.0151    0.0593    0.2804 H   0  0  0  0  0  0  0  0  0  0  0  0
    5.8158    1.0581   -0.5495 H   0  0  0  0  0  0  0  0  0  0  0  0
    4.1635    1.1069    3.6059 H   0  0  0  0  0  0  0  0  0  0  0  0
    5.3406    2.4128    3.5600 H   0  0  0  0  0  0  0  0  0  0  0  0
    2.3243    2.7208    3.1247 H   0  0  0  0  0  0  0  0  0  0  0  0
    4.8884    2.7812    1.1576 H   0  0  0  0  0  0  0  0  0  0  0  0
  1 16  1  0  0  0  0
  1 15  1  0  0  0  0
  2 10  1  0  0  0  0
  2 18  1  0  0  0  0
  3 21  1  0  0  0  0
  3 23  1  0  0  0  0
  3 22  1  0  0  0  0
  4 24  1  0  0  0  0
  4 26  1  0  0  0  0
  4 11  1  0  0  0  0
  5 27  1  0  0  0  0
  5 10  2  0  0  0  0
  6  5  1  0  0  0  0
  6 12  1  0  0  0  0
  7 30  1  0  0  0  0
  8  7  1  0  0  0  0
  8 14  1  0  0  0  0
  9 11  1  0  0  0  0
  9 34  1  0  0  0  0
  9 33  1  0  0  0  0
 10  1  1  0  0  0  0
 11  3  1  0  0  0  0
 12 36  1  6  0  0  0
 12  9  1  0  0  0  0
 13  7  2  0  0  0  0
 14 12  1  0  0  0  0
 17  1  1  0  0  0  0
 19  2  1  0  0  0  0
 20  2  1  0  0  0  0
 25  4  1  0  0  0  0
 28  6  1  0  0  0  0
 29  6  1  0  0  0  0
 31  8  1  0  0  0  0
 32  8  1  0  0  0  0
 35 11  1  0  0  0  0
M  END
>  <HBA>
2

>  <HBD>
0

>  <TPSA>
26.3

>  <cid>
7614

>  <dipole>
2.62

>  <excitation_energy_1>
4.017

>  <excitation_energy_2>
4.687

>  <excitation_energy_3>
5.591

>  <excitation_energy_4>
5.673

>  <homo_energy>
-6.272

>  <homo_lumo_gap>
5.399

>  <logP>
2.973

>  <lumo_energy>
-0.873

>  <melting_point>
5.44

>  <molecular_refractivity>
60.61

>  <oscillator_strength_1>
0.0003

>  <oscillator_strength_2>
0.0008

>  <oscillator_strength_3>
0.0007

>  <oscillator_strength_4>
0.0072

>  <open_babel_can_smiles>
O=CCO[C@H](CC(C)C)CC=C(C)C

>  <mulliken_charges>
36
1   -0.505278
2   -0.512697
3   -0.442471
4   -0.449549
5   -0.15949
6   -0.32623
7   0.222846
8   -0.105135
9   -0.257565
10   0.18056
11   -0.080551
12   0.12044
13   -0.376084
14   -0.484627
15   0.148963
16   0.153376
17   0.149549
18   0.152427
19   0.154246
20   0.151728
21   0.140035
22   0.140296
23   0.143851
24   0.143506
25   0.142728
26   0.141556
27   0.129534
28   0.144961
29   0.145712
30   0.119533
31   0.181761
32   0.160499
33   0.148975
34   0.133027
35   0.13156
36   0.118009

>  <lowdin_charges>
36
1   -0.440598
2   -0.446266
3   -0.443357
4   -0.447556
5   -0.195381
6   -0.289821
7   0.040669
8   -0.174445
9   -0.282241
10   -0.009637
11   -0.12255
12   0.001112
13   -0.211911
14   -0.267475
15   0.152171
16   0.155874
17   0.15401
18   0.155312
19   0.157912
20   0.152981
21   0.148854
22   0.146455
23   0.149224
24   0.151274
25   0.143733
26   0.146909
27   0.15491
28   0.152612
29   0.149927
30   0.120839
31   0.174412
32   0.153862
33   0.15422
34   0.145173
35   0.139736
36   0.129057

$$$$

