PCCDB-ID:  17291
public computational chemistry database (PCCDB) project, http://pccdb.org

 19 18  0  0  1  0  0  0  0  0999 V2000
    0.9739   -0.7568    0.2302 C   0  0  0  0  0  0  0  0  0  0  0  0
    1.9138    2.0714    0.8658 C   0  0  0  0  0  0  0  0  0  0  0  0
    2.5023   -0.3826   -1.7971 C   0  0  0  0  0  0  0  0  0  0  0  0
    1.3918   -0.1541   -2.8280 C   0  0  0  0  0  0  0  0  0  0  0  0
    2.1521    0.0279   -0.3611 C   0  0  1  0  0  0  0  0  0  0  0  0
    1.7995   -0.5327   -4.1409 O   0  0  0  0  0  0  0  0  0  0  0  0
    1.9012    1.4345   -0.3939 O   0  0  0  0  0  0  0  0  0  0  0  0
    1.1590   -1.8348    0.1605 H   0  0  0  0  0  0  0  0  0  0  0  0
    0.0450   -0.5301   -0.3031 H   0  0  0  0  0  0  0  0  0  0  0  0
    0.8227   -0.5167    1.2877 H   0  0  0  0  0  0  0  0  0  0  0  0
    1.8654    3.1476    0.6780 H   0  0  0  0  0  0  0  0  0  0  0  0
    2.8392    1.8495    1.4223 H   0  0  0  0  0  0  0  0  0  0  0  0
    1.0564    1.7889    1.4946 H   0  0  0  0  0  0  0  0  0  0  0  0
    3.3868    0.1946   -2.1013 H   0  0  0  0  0  0  0  0  0  0  0  0
    2.7882   -1.4417   -1.8121 H   0  0  0  0  0  0  0  0  0  0  0  0
    1.0612    0.8934   -2.7961 H   0  0  0  0  0  0  0  0  0  0  0  0
    0.5218   -0.7809   -2.6095 H   0  0  0  0  0  0  0  0  0  0  0  0
    3.0409   -0.1533    0.2688 H   0  0  0  0  0  0  0  0  0  0  0  0
    2.5226    0.0598   -4.3993 H   0  0  0  0  0  0  0  0  0  0  0  0
  1 10  1  0  0  0  0
  2 12  1  0  0  0  0
  2 13  1  0  0  0  0
  3  5  1  0  0  0  0
  4 16  1  0  0  0  0
  4 17  1  0  0  0  0
  4  3  1  0  0  0  0
  5  1  1  0  0  0  0
  5 18  1  1  0  0  0
  6  4  1  0  0  0  0
  7  5  1  0  0  0  0
  7  2  1  0  0  0  0
  8  1  1  0  0  0  0
  9  1  1  0  0  0  0
 11  2  1  0  0  0  0
 14  3  1  0  0  0  0
 15  3  1  0  0  0  0
 19  6  1  0  0  0  0
M  END
>  <HBA>
2

>  <HBD>
1

>  <TPSA>
29.46

>  <cid>
17291

>  <dipole>
2.31

>  <excitation_energy_1>
6.379

>  <excitation_energy_2>
6.45

>  <excitation_energy_3>
6.788

>  <excitation_energy_4>
6.88

>  <homo_energy>
-6.841

>  <homo_lumo_gap>
8.993

>  <logP>
0.404

>  <lumo_energy>
2.152

>  <melting_point>
-16.23

>  <molecular_refractivity>
28.4

>  <oscillator_strength_1>
0.0035

>  <oscillator_strength_2>
0.0206

>  <oscillator_strength_3>
0.0095

>  <oscillator_strength_4>
0.0044

>  <open_babel_can_smiles>
C[C@H](OC)CCO

>  <mulliken_charges>
19
1   -0.467554
2   -0.194617
3   -0.288108
4   -0.035463
5   0.152577
6   -0.62027
7   -0.472857
8   0.147639
9   0.159202
10   0.146899
11   0.15732
12   0.127339
13   0.133791
14   0.12967
15   0.142187
16   0.143649
17   0.14375
18   0.109699
19   0.385148

>  <lowdin_charges>
19
1   -0.459859
2   -0.280155
3   -0.298588
4   -0.136823
5   0.00628
6   -0.471585
7   -0.278072
8   0.154645
9   0.156536
10   0.150874
11   0.152822
12   0.131089
13   0.133166
14   0.14397
15   0.149213
16   0.135518
17   0.145418
18   0.125507
19   0.340044

$$$$

