PCCDB-ID:  129
public computational chemistry database (PCCDB) project, http://pccdb.org

 19 18  0  0  0  0  0  0  0  0999 V2000
    0.7990   -0.1961    0.3267 C   0  0  0  0  0  0  0  0  0  0  0  0
    2.4989   -1.9059   -0.4221 C   0  0  0  0  0  0  0  0  0  0  0  0
    4.2892    0.5196   -1.2984 C   0  0  0  0  0  0  0  0  0  0  0  0
    2.7826    0.5641   -1.0355 C   0  0  0  0  0  0  0  0  0  0  0  0
    4.7843    1.5946   -2.2391 C   0  0  0  0  0  0  0  0  0  0  0  0
    2.2813   -0.4480    0.0125 C   0  0  0  0  0  0  0  0  0  0  0  0
    4.0859    2.4328   -2.7659 O   0  0  0  0  0  0  0  0  0  0  0  0
    0.4355   -0.8810    1.1018 H   0  0  0  0  0  0  0  0  0  0  0  0
    0.1786   -0.3454   -0.5665 H   0  0  0  0  0  0  0  0  0  0  0  0
    0.6335    0.8289    0.6788 H   0  0  0  0  0  0  0  0  0  0  0  0
    2.1175   -2.6006    0.3353 H   0  0  0  0  0  0  0  0  0  0  0  0
    3.5584   -2.1400   -0.5757 H   0  0  0  0  0  0  0  0  0  0  0  0
    1.9704   -2.1161   -1.3614 H   0  0  0  0  0  0  0  0  0  0  0  0
    4.6088   -0.4451   -1.7213 H   0  0  0  0  0  0  0  0  0  0  0  0
    4.8638    0.6186   -0.3624 H   0  0  0  0  0  0  0  0  0  0  0  0
    2.2492    0.4068   -1.9828 H   0  0  0  0  0  0  0  0  0  0  0  0
    2.5192    1.5792   -0.7139 H   0  0  0  0  0  0  0  0  0  0  0  0
    5.8821    1.5734   -2.4320 H   0  0  0  0  0  0  0  0  0  0  0  0
    2.8534   -0.2831    0.9393 H   0  0  0  0  0  0  0  0  0  0  0  0
  1 10  1  0  0  0  0
  1  8  1  0  0  0  0
  2  6  1  0  0  0  0
  2 11  1  0  0  0  0
  3  4  1  0  0  0  0
  3 15  1  0  0  0  0
  4 17  1  0  0  0  0
  4  6  1  0  0  0  0
  5  3  1  0  0  0  0
  6  1  1  0  0  0  0
  6 19  1  0  0  0  0
  7  5  2  0  0  0  0
  9  1  1  0  0  0  0
 12  2  1  0  0  0  0
 13  2  1  0  0  0  0
 14  3  1  0  0  0  0
 16  4  1  0  0  0  0
 18  5  1  0  0  0  0
M  END
>  <HBA>
1

>  <HBD>
0

>  <TPSA>
17.07

>  <cid>
129

>  <dipole>
2.55

>  <excitation_energy_1>
4.338

>  <excitation_energy_2>
6.458

>  <excitation_energy_3>
6.86

>  <excitation_energy_4>
7.132

>  <homo_energy>
-6.857

>  <homo_lumo_gap>
6.359

>  <logP>
1.621

>  <lumo_energy>
-0.498

>  <melting_point>
5.16

>  <molecular_refractivity>
31.16

>  <oscillator_strength_1>
0.0002

>  <oscillator_strength_2>
0.0235

>  <oscillator_strength_3>
0.0352

>  <oscillator_strength_4>
0.0022

>  <open_babel_can_smiles>
O=CCCC(C)C

>  <mulliken_charges>
19
1   -0.442328
2   -0.446448
3   -0.356701
4   -0.240906
5   0.252613
6   -0.070959
7   -0.382465
8   0.140258
9   0.141867
10   0.143003
11   0.143697
12   0.139718
13   0.141385
14   0.164051
15   0.159418
16   0.143391
17   0.148663
18   0.102715
19   0.119027

>  <lowdin_charges>
19
1   -0.444321
2   -0.447508
3   -0.3165
4   -0.27182
5   0.059811
6   -0.12034
7   -0.219912
8   0.149202
9   0.147686
10   0.148315
11   0.151404
12   0.144209
13   0.146829
14   0.164306
15   0.162786
16   0.148741
17   0.151778
18   0.111722
19   0.133611

$$$$

