PCCDB-ID:  20794
public computational chemistry database (PCCDB) project, http://pccdb.org

 29 29  0  0  0  0  0  0  0  0999 V2000
   -0.8182   -0.2577   -3.3070 C   0  0  0  0  0  0  0  0  0  0  0  0
    0.4569   -1.0160   -2.9063 C   0  0  0  0  0  0  0  0  0  0  0  0
   -1.3555    0.5635   -2.1243 C   0  0  0  0  0  0  0  0  0  0  0  0
    0.3297    0.4133    1.4818 C   0  0  0  0  0  0  0  0  0  0  0  0
   -0.4319   -0.5171    2.4545 C   0  0  0  0  0  0  0  0  0  0  0  0
    0.2169   -1.8381   -1.6298 C   0  0  0  0  0  0  0  0  0  0  0  0
   -1.5191   -0.3210   -0.8759 C   0  0  0  0  0  0  0  0  0  0  0  0
    0.7516   -0.2040    0.1362 C   0  0  0  0  0  0  0  0  0  0  0  0
    0.2293   -1.8752    2.6981 C   0  0  0  0  0  0  0  0  0  0  0  0
   -0.2910   -1.0456   -0.4875 N   0  0  0  0  0  0  0  0  0  0  0  0
    0.7607   -2.1821    3.7405 O   0  0  0  0  0  0  0  0  0  0  0  0
    0.1709   -2.7296    1.6558 O   0  0  0  0  0  0  0  0  0  0  0  0
   -1.5849   -0.9826   -3.6193 H   0  0  0  0  0  0  0  0  0  0  0  0
   -0.6286    0.3892   -4.1720 H   0  0  0  0  0  0  0  0  0  0  0  0
    1.2785   -0.3053   -2.7454 H   0  0  0  0  0  0  0  0  0  0  0  0
    0.7786   -1.6871   -3.7127 H   0  0  0  0  0  0  0  0  0  0  0  0
   -2.3235    1.0159   -2.3740 H   0  0  0  0  0  0  0  0  0  0  0  0
   -0.6707    1.3944   -1.9068 H   0  0  0  0  0  0  0  0  0  0  0  0
    1.2447    0.7705    1.9695 H   0  0  0  0  0  0  0  0  0  0  0  0
   -0.2887    1.3039    1.3138 H   0  0  0  0  0  0  0  0  0  0  0  0
   -1.4465   -0.6939    2.0760 H   0  0  0  0  0  0  0  0  0  0  0  0
   -0.5232   -0.0221    3.4243 H   0  0  0  0  0  0  0  0  0  0  0  0
    1.1309   -2.3497   -1.3090 H   0  0  0  0  0  0  0  0  0  0  0  0
   -0.5306   -2.6159   -1.8376 H   0  0  0  0  0  0  0  0  0  0  0  0
   -2.2899   -1.0795   -1.0705 H   0  0  0  0  0  0  0  0  0  0  0  0
   -1.8660    0.2708   -0.0237 H   0  0  0  0  0  0  0  0  0  0  0  0
    1.6115   -0.8621    0.3023 H   0  0  0  0  0  0  0  0  0  0  0  0
    1.0997    0.6051   -0.5246 H   0  0  0  0  0  0  0  0  0  0  0  0
   -0.2285   -2.2568    0.8709 H   0  0  0  0  0  0  0  0  0  0  0  0
  1  2  1  0  0  0  0
  1  3  1  0  0  0  0
  2 15  1  0  0  0  0
  2  6  1  0  0  0  0
  3 18  1  0  0  0  0
  3  7  1  0  0  0  0
  4 19  1  0  0  0  0
  4  5  1  0  0  0  0
  5  9  1  0  0  0  0
  5 22  1  0  0  0  0
  6 23  1  0  0  0  0
  6 10  1  0  0  0  0
  7 10  1  0  0  0  0
  7 26  1  0  0  0  0
  8 27  1  0  0  0  0
  8  4  1  0  0  0  0
  9 11  2  0  0  0  0
 10  8  1  0  0  0  0
 12  9  1  0  0  0  0
 13  1  1  0  0  0  0
 14  1  1  0  0  0  0
 16  2  1  0  0  0  0
 17  3  1  0  0  0  0
 20  4  1  0  0  0  0
 21  5  1  0  0  0  0
 24  6  1  0  0  0  0
 25  7  1  0  0  0  0
 28  8  1  0  0  0  0
 29 12  1  0  0  0  0
M  END
>  <HBA>
3

>  <HBD>
1

>  <TPSA>
40.54

>  <cid>
20794

>  <dipole>
6.62

>  <excitation_energy_1>
5.443

>  <excitation_energy_2>
5.595

>  <excitation_energy_3>
5.904

>  <excitation_energy_4>
5.974

>  <homo_energy>
-6.43

>  <homo_lumo_gap>
7.181

>  <logP>
1.275

>  <lumo_energy>
0.751

>  <melting_point>
73.82

>  <molecular_refractivity>
51.85

>  <oscillator_strength_1>
0.0032

>  <oscillator_strength_2>
0.0094

>  <oscillator_strength_3>
0.0037

>  <oscillator_strength_4>
0.0104

>  <open_babel_can_smiles>
OC(=O)CCCN1CCCCC1

>  <mulliken_charges>
29
1   -0.261334
2   -0.269907
3   -0.271945
4   -0.289236
5   -0.370833
6   -0.138009
7   -0.14285
8   -0.13938
9   0.580692
10   -0.454026
11   -0.45969
12   -0.605703
13   0.133831
14   0.141061
15   0.140902
16   0.142989
17   0.141578
18   0.13974
19   0.162748
20   0.147316
21   0.156978
22   0.171813
23   0.157355
24   0.146695
25   0.146573
26   0.149922
27   0.16425
28   0.138184
29   0.440287

>  <lowdin_charges>
29
1   -0.279706
2   -0.293191
3   -0.292947
4   -0.281773
5   -0.3188
6   -0.208116
7   -0.211052
8   -0.218422
9   0.184
10   -0.192389
11   -0.261047
12   -0.387003
13   0.141424
14   0.148914
15   0.144097
16   0.152921
17   0.151196
18   0.143426
19   0.161149
20   0.147921
21   0.155855
22   0.170609
23   0.155001
24   0.146718
25   0.147322
26   0.151696
27   0.155974
28   0.136246
29   0.349978

$$$$

