PCCDB-ID:  8106
public computational chemistry database (PCCDB) project, http://pccdb.org

 21 20  0  0  0  0  0  0  0  0999 V2000
    1.7289   -0.5252   -1.9227 C   0  0  0  0  0  0  0  0  0  0  0  0
    2.9643    0.3811   -1.9057 C   0  0  0  0  0  0  0  0  0  0  0  0
    2.9479    1.3890   -0.7478 C   0  0  0  0  0  0  0  0  0  0  0  0
    4.2056    2.2670   -0.6356 C   0  0  0  0  0  0  0  0  0  0  0  0
    4.4109    3.2373   -1.8102 C   0  0  0  0  0  0  0  0  0  0  0  0
    5.6288    4.1400   -1.6033 C   0  0  0  0  0  0  0  0  0  0  0  0
    5.9900    5.2785   -3.0087 S   0  0  0  0  0  0  0  0  0  0  0  0
    1.7626   -1.2321   -2.7595 H   0  0  0  0  0  0  0  0  0  0  0  0
    0.8077    0.0624   -2.0205 H   0  0  0  0  0  0  0  0  0  0  0  0
    1.6518   -1.1083   -0.9966 H   0  0  0  0  0  0  0  0  0  0  0  0
    3.0342    0.9123   -2.8640 H   0  0  0  0  0  0  0  0  0  0  0  0
    3.8711   -0.2367   -1.8331 H   0  0  0  0  0  0  0  0  0  0  0  0
    2.8208    0.8388    0.1954 H   0  0  0  0  0  0  0  0  0  0  0  0
    2.0618    2.0349   -0.8415 H   0  0  0  0  0  0  0  0  0  0  0  0
    5.0913    1.6215   -0.5398 H   0  0  0  0  0  0  0  0  0  0  0  0
    4.1491    2.8456    0.2974 H   0  0  0  0  0  0  0  0  0  0  0  0
    3.5126    3.8603   -1.9285 H   0  0  0  0  0  0  0  0  0  0  0  0
    4.5334    2.6879   -2.7503 H   0  0  0  0  0  0  0  0  0  0  0  0
    6.5400    3.5394   -1.5054 H   0  0  0  0  0  0  0  0  0  0  0  0
    5.5334    4.7280   -0.6845 H   0  0  0  0  0  0  0  0  0  0  0  0
    4.8263    5.9640   -2.9601 H   0  0  0  0  0  0  0  0  0  0  0  0
  1  2  1  0  0  0  0
  1 10  1  0  0  0  0
  2 12  1  0  0  0  0
  2  3  1  0  0  0  0
  3  4  1  0  0  0  0
  3 13  1  0  0  0  0
  4 15  1  0  0  0  0
  4 16  1  0  0  0  0
  5  6  1  0  0  0  0
  5  4  1  0  0  0  0
  6 19  1  0  0  0  0
  6 20  1  0  0  0  0
  7 21  1  0  0  0  0
  7  6  1  0  0  0  0
  8  1  1  0  0  0  0
  9  1  1  0  0  0  0
 11  2  1  0  0  0  0
 14  3  1  0  0  0  0
 17  5  1  0  0  0  0
 18  5  1  0  0  0  0
M  END
>  <HBA>
1

>  <HBD>
1

>  <TPSA>
38.8

>  <cid>
8106

>  <dipole>
1.95

>  <excitation_energy_1>
5.231

>  <excitation_energy_2>
5.86

>  <excitation_energy_3>
6.278

>  <excitation_energy_4>
6.426

>  <homo_energy>
-6.34

>  <homo_lumo_gap>
7.146

>  <logP>
2.497

>  <lumo_energy>
0.805

>  <melting_point>
-6.3

>  <molecular_refractivity>
38.88

>  <oscillator_strength_1>
0.0114

>  <oscillator_strength_2>
0.0325

>  <oscillator_strength_3>
0.0066

>  <oscillator_strength_4>
0.0095

>  <open_babel_can_smiles>
CCCCCCS

>  <mulliken_charges>
21
1   -0.441939
2   -0.250053
3   -0.248279
4   -0.259147
5   -0.246309
6   -0.41411
7   -0.085967
8   0.143403
9   0.142088
10   0.141736
11   0.13786
12   0.130609
13   0.130043
14   0.127891
15   0.130997
16   0.129706
17   0.132669
18   0.157962
19   0.176429
20   0.173788
21   0.090624

>  <lowdin_charges>
21
1   -0.444577
2   -0.275029
3   -0.274909
4   -0.277125
5   -0.282237
6   -0.369234
7   -0.090713
8   0.150623
9   0.146786
10   0.146375
11   0.141218
12   0.139156
13   0.141724
14   0.138399
15   0.139853
16   0.14141
17   0.141493
18   0.152617
19   0.166232
20   0.15738
21   0.110557

$$$$

