PCCDB-ID:  12146
public computational chemistry database (PCCDB) project, http://pccdb.org

 24 24  0  0  0  0  0  0  0  0999 V2000
    1.9607    2.9203   -0.3963 C   0  0  0  0  0  0  0  0  0  0  0  0
    7.4012    1.2324   -0.5367 C   0  0  0  0  0  0  0  0  0  0  0  0
    6.4774    1.3356    0.6872 C   0  0  0  0  0  0  0  0  0  0  0  0
    6.6015    1.3006   -1.8472 C   0  0  0  0  0  0  0  0  0  0  0  0
    5.3752    0.2648    0.6505 C   0  0  0  0  0  0  0  0  0  0  0  0
    5.4984    0.2308   -1.8880 C   0  0  0  0  0  0  0  0  0  0  0  0
    2.6085    1.5698   -0.1877 C   0  0  0  0  0  0  0  0  0  0  0  0
    4.5840    0.2870   -0.6628 C   0  0  0  0  0  0  0  0  0  0  0  0
    2.1084    0.6411    0.4100 O   0  0  0  0  0  0  0  0  0  0  0  0
    3.8307    1.5340   -0.7669 O   0  0  0  0  0  0  0  0  0  0  0  0
    0.9656    2.9196    0.0497 H   0  0  0  0  0  0  0  0  0  0  0  0
    1.8917    3.1453   -1.4655 H   0  0  0  0  0  0  0  0  0  0  0  0
    2.5717    3.7049    0.0628 H   0  0  0  0  0  0  0  0  0  0  0  0
    7.9521    0.2806   -0.4955 H   0  0  0  0  0  0  0  0  0  0  0  0
    8.1546    2.0301   -0.5118 H   0  0  0  0  0  0  0  0  0  0  0  0
    6.0139    2.3309    0.7096 H   0  0  0  0  0  0  0  0  0  0  0  0
    7.0571    1.2375    1.6135 H   0  0  0  0  0  0  0  0  0  0  0  0
    7.2681    1.1789   -2.7099 H   0  0  0  0  0  0  0  0  0  0  0  0
    6.1406    2.2926   -1.9411 H   0  0  0  0  0  0  0  0  0  0  0  0
    4.6813    0.3748    1.4908 H   0  0  0  0  0  0  0  0  0  0  0  0
    5.8278   -0.7329    0.7453 H   0  0  0  0  0  0  0  0  0  0  0  0
    5.9540   -0.7692   -1.9145 H   0  0  0  0  0  0  0  0  0  0  0  0
    4.8930    0.3293   -2.7969 H   0  0  0  0  0  0  0  0  0  0  0  0
    3.8590   -0.5311   -0.6753 H   0  0  0  0  0  0  0  0  0  0  0  0
  1  7  1  0  0  0  0
  1 11  1  0  0  0  0
  1 13  1  0  0  0  0
  2 15  1  0  0  0  0
  2 14  1  0  0  0  0
  2  3  1  0  0  0  0
  3 16  1  0  0  0  0
  3 17  1  0  0  0  0
  4  2  1  0  0  0  0
  5  3  1  0  0  0  0
  5 21  1  0  0  0  0
  5 20  1  0  0  0  0
  6  4  1  0  0  0  0
  6  8  1  0  0  0  0
  7  9  2  0  0  0  0
  8  5  1  0  0  0  0
 10  8  1  0  0  0  0
 10  7  1  0  0  0  0
 12  1  1  0  0  0  0
 18  4  1  0  0  0  0
 19  4  1  0  0  0  0
 22  6  1  0  0  0  0
 23  6  1  0  0  0  0
 24  8  1  0  0  0  0
M  END
>  <HBA>
2

>  <HBD>
0

>  <TPSA>
26.3

>  <cid>
12146

>  <dipole>
2.0

>  <excitation_energy_1>
5.793

>  <excitation_energy_2>
6.829

>  <excitation_energy_3>
7.203

>  <excitation_energy_4>
7.29

>  <homo_energy>
-7.222

>  <homo_lumo_gap>
7.687

>  <logP>
1.882

>  <lumo_energy>
0.465

>  <melting_point>
7.13

>  <molecular_refractivity>
39.74

>  <oscillator_strength_1>
0.0012

>  <oscillator_strength_2>
0.0289

>  <oscillator_strength_3>
0.0218

>  <oscillator_strength_4>
0.0071

>  <open_babel_can_smiles>
CC(=O)OC1CCCCC1

>  <mulliken_charges>
24
1   -0.523933
2   -0.259675
3   -0.259881
4   -0.261535
5   -0.281592
6   -0.275119
7   0.605868
8   0.119736
9   -0.471237
10   -0.469376
11   0.181159
12   0.179451
13   0.179374
14   0.126218
15   0.132374
16   0.138789
17   0.133209
18   0.13203
19   0.145453
20   0.157953
21   0.134408
22   0.135524
23   0.142667
24   0.158135

>  <lowdin_charges>
24
1   -0.464463
2   -0.27849
3   -0.279664
4   -0.280359
5   -0.288425
6   -0.283069
7   0.202036
8   0.001876
9   -0.269485
10   -0.205226
11   0.174198
12   0.174825
13   0.177346
14   0.136213
15   0.145058
16   0.142336
17   0.145552
18   0.145211
19   0.145578
20   0.158428
21   0.146288
22   0.145997
23   0.151282
24   0.156957

$$$$

