PCCDB-ID:  61896
public computational chemistry database (PCCDB) project, http://pccdb.org

 28 27  0  0  0  0  0  0  0  0999 V2000
    7.7947   -2.2976   -1.6292 C   0  0  0  0  0  0  0  0  0  0  0  0
    8.4241   -2.1257   -0.2413 C   0  0  0  0  0  0  0  0  0  0  0  0
    7.4745   -2.4191    0.9335 C   0  0  0  0  0  0  0  0  0  0  0  0
    6.3040   -1.4337    1.0660 C   0  0  0  0  0  0  0  0  0  0  0  0
    5.3546   -1.7252    2.2409 C   0  0  0  0  0  0  0  0  0  0  0  0
    5.9817   -1.5237    3.6356 C   0  0  0  0  0  0  0  0  0  0  0  0
    4.9944   -1.7320    4.7510 C   0  0  0  0  0  0  0  0  0  0  0  0
    5.1105   -2.6279    5.7361 C   0  0  0  0  0  0  0  0  0  0  0  0
    4.1001   -2.8255    6.8302 C   0  0  0  0  0  0  0  0  0  0  0  0
    3.6149   -4.1689    6.8833 O   0  0  0  0  0  0  0  0  0  0  0  0
    8.5362   -2.1336   -2.4196 H   0  0  0  0  0  0  0  0  0  0  0  0
    6.9742   -1.5916   -1.7990 H   0  0  0  0  0  0  0  0  0  0  0  0
    7.3925   -3.3106   -1.7563 H   0  0  0  0  0  0  0  0  0  0  0  0
    8.8168   -1.1036   -0.1412 H   0  0  0  0  0  0  0  0  0  0  0  0
    9.2932   -2.7925   -0.1620 H   0  0  0  0  0  0  0  0  0  0  0  0
    8.0625   -2.4158    1.8608 H   0  0  0  0  0  0  0  0  0  0  0  0
    7.0757   -3.4396    0.8288 H   0  0  0  0  0  0  0  0  0  0  0  0
    5.7148   -1.4421    0.1399 H   0  0  0  0  0  0  0  0  0  0  0  0
    6.6999   -0.4115    1.1652 H   0  0  0  0  0  0  0  0  0  0  0  0
    4.9778   -2.7549    2.1636 H   0  0  0  0  0  0  0  0  0  0  0  0
    4.4745   -1.0723    2.1562 H   0  0  0  0  0  0  0  0  0  0  0  0
    6.3817   -0.4986    3.6900 H   0  0  0  0  0  0  0  0  0  0  0  0
    6.8347   -2.1984    3.7742 H   0  0  0  0  0  0  0  0  0  0  0  0
    4.1118   -1.0871    4.7324 H   0  0  0  0  0  0  0  0  0  0  0  0
    5.9775   -3.2896    5.7716 H   0  0  0  0  0  0  0  0  0  0  0  0
    3.2749   -2.1032    6.7185 H   0  0  0  0  0  0  0  0  0  0  0  0
    4.5530   -2.6544    7.8141 H   0  0  0  0  0  0  0  0  0  0  0  0
    3.2729   -4.3764    5.9993 H   0  0  0  0  0  0  0  0  0  0  0  0
  1  2  1  0  0  0  0
  2 15  1  0  0  0  0
  2 14  1  0  0  0  0
  2  3  1  0  0  0  0
  3  4  1  0  0  0  0
  3 16  1  0  0  0  0
  4 19  1  0  0  0  0
  4  5  1  0  0  0  0
  5  6  1  0  0  0  0
  6 22  1  0  0  0  0
  6 23  1  0  0  0  0
  6  7  1  0  0  0  0
  7  8  2  0  0  0  0
  8 25  1  0  0  0  0
  8  9  1  0  0  0  0
  9 10  1  0  0  0  0
  9 27  1  0  0  0  0
 11  1  1  0  0  0  0
 12  1  1  0  0  0  0
 13  1  1  0  0  0  0
 17  3  1  0  0  0  0
 18  4  1  0  0  0  0
 20  5  1  0  0  0  0
 21  5  1  0  0  0  0
 24  7  1  0  0  0  0
 26  9  1  0  0  0  0
 28 10  1  0  0  0  0
M  END
>  <HBA>
1

>  <HBD>
1

>  <TPSA>
20.23

>  <cid>
61896

>  <dipole>
2.13

>  <excitation_energy_1>
6.244

>  <excitation_energy_2>
6.383

>  <excitation_energy_3>
6.59

>  <excitation_energy_4>
6.669

>  <homo_energy>
-6.694

>  <homo_lumo_gap>
7.072

>  <logP>
2.505

>  <lumo_energy>
0.378

>  <melting_point>
-0.15

>  <molecular_refractivity>
46.06

>  <oscillator_strength_1>
0.1325

>  <oscillator_strength_2>
0.0351

>  <oscillator_strength_3>
0.0025

>  <oscillator_strength_4>
0.0641

>  <open_babel_can_smiles>
CCCCCC/C=C/CO

>  <mulliken_charges>
28
1   -0.443509
2   -0.249035
3   -0.252038
4   -0.255679
5   -0.256263
6   -0.304272
7   -0.089304
8   -0.136592
9   -0.067323
10   -0.612824
11   0.142748
12   0.145955
13   0.140808
14   0.129901
15   0.131356
16   0.132645
17   0.126442
18   0.134547
19   0.126255
20   0.133802
21   0.129059
22   0.141306
23   0.144936
24   0.119645
25   0.128844
26   0.123287
27   0.151412
28   0.383894

>  <lowdin_charges>
28
1   -0.448112
2   -0.272216
3   -0.277182
4   -0.276767
5   -0.273019
6   -0.27322
7   -0.157402
8   -0.196555
9   -0.130733
10   -0.469611
11   0.150795
12   0.147458
13   0.145231
14   0.137901
15   0.142393
16   0.141069
17   0.13633
18   0.143508
19   0.136354
20   0.140099
21   0.141313
22   0.147395
23   0.148016
24   0.145852
25   0.152379
26   0.12949
27   0.151055
28   0.338177

$$$$

