PCCDB-ID:  66514
public computational chemistry database (PCCDB) project, http://pccdb.org

 33 33  0  0  0  0  0  0  0  0999 V2000
    2.2431   -2.9955   -1.4756 C   0  0  0  0  0  0  0  0  0  0  0  0
    3.8395    3.0176    2.1260 C   0  0  0  0  0  0  0  0  0  0  0  0
    2.8246   -2.6224   -0.1210 C   0  0  0  0  0  0  0  0  0  0  0  0
    5.2824    2.5503    2.0142 C   0  0  0  0  0  0  0  0  0  0  0  0
    6.3220   -0.0728   -4.9238 C   0  0  0  0  0  0  0  0  0  0  0  0
    5.2258    0.6629   -4.4674 C   0  0  0  0  0  0  0  0  0  0  0  0
    7.1128   -0.7728   -4.0122 C   0  0  0  0  0  0  0  0  0  0  0  0
    4.9206    0.7016   -3.1077 C   0  0  0  0  0  0  0  0  0  0  0  0
    6.8066   -0.7359   -2.6508 C   0  0  0  0  0  0  0  0  0  0  0  0
    5.7130    0.0026   -2.1873 C   0  0  0  0  0  0  0  0  0  0  0  0
    5.3851    0.0221   -0.7027 C   0  0  0  0  0  0  0  0  0  0  0  0
    3.9957   -0.5795   -0.4645 C   0  0  0  0  0  0  0  0  0  0  0  0
    5.4070    1.4250   -0.0823 C   0  0  0  0  0  0  0  0  0  0  0  0
    2.9625    0.0546   -0.4884 O   0  0  0  0  0  0  0  0  0  0  0  0
    5.4487    2.4708   -0.6855 O   0  0  0  0  0  0  0  0  0  0  0  0
    4.0794   -1.9078   -0.2684 O   0  0  0  0  0  0  0  0  0  0  0  0
    5.3723    1.3130    1.2626 O   0  0  0  0  0  0  0  0  0  0  0  0
    1.3368   -3.5961   -1.3369 H   0  0  0  0  0  0  0  0  0  0  0  0
    2.9601   -3.5816   -2.0593 H   0  0  0  0  0  0  0  0  0  0  0  0
    1.9769   -2.0982   -2.0413 H   0  0  0  0  0  0  0  0  0  0  0  0
    3.7888    3.9192    2.7474 H   0  0  0  0  0  0  0  0  0  0  0  0
    3.2147    2.2446    2.5843 H   0  0  0  0  0  0  0  0  0  0  0  0
    3.4340    3.2545    1.1387 H   0  0  0  0  0  0  0  0  0  0  0  0
    3.0891   -3.5072    0.4627 H   0  0  0  0  0  0  0  0  0  0  0  0
    2.1337   -2.0006    0.4532 H   0  0  0  0  0  0  0  0  0  0  0  0
    5.7037    2.3015    2.9912 H   0  0  0  0  0  0  0  0  0  0  0  0
    5.9104    3.3012    1.5288 H   0  0  0  0  0  0  0  0  0  0  0  0
    6.5582   -0.0994   -5.9843 H   0  0  0  0  0  0  0  0  0  0  0  0
    4.6068    1.2114   -5.1723 H   0  0  0  0  0  0  0  0  0  0  0  0
    7.9676   -1.3480   -4.3578 H   0  0  0  0  0  0  0  0  0  0  0  0
    4.0696    1.2736   -2.7539 H   0  0  0  0  0  0  0  0  0  0  0  0
    7.4239   -1.2844   -1.9430 H   0  0  0  0  0  0  0  0  0  0  0  0
    6.1063   -0.5946   -0.1593 H   0  0  0  0  0  0  0  0  0  0  0  0
  1 18  1  0  0  0  0
  1  3  1  0  0  0  0
  2 22  1  0  0  0  0
  2 21  1  0  0  0  0
  3 25  1  0  0  0  0
  3 24  1  0  0  0  0
  4  2  1  0  0  0  0
  4 26  1  0  0  0  0
  5  6  2  0  0  0  0
  5  7  1  0  0  0  0
  6  8  1  0  0  0  0
  7  9  2  0  0  0  0
  8 31  1  0  0  0  0
  8 10  2  0  0  0  0
  9 10  1  0  0  0  0
  9 32  1  0  0  0  0
 10 11  1  0  0  0  0
 11 12  1  0  0  0  0
 11 33  1  0  0  0  0
 11 13  1  0  0  0  0
 12 16  1  0  0  0  0
 13 17  1  0  0  0  0
 14 12  2  0  0  0  0
 15 13  2  0  0  0  0
 16  3  1  0  0  0  0
 17  4  1  0  0  0  0
 19  1  1  0  0  0  0
 20  1  1  0  0  0  0
 23  2  1  0  0  0  0
 27  4  1  0  0  0  0
 28  5  1  0  0  0  0
 29  6  1  0  0  0  0
 30  7  1  0  0  0  0
M  END
>  <HBA>
4

>  <HBD>
0

>  <TPSA>
52.6

>  <cid>
66514

>  <dipole>
2.51

>  <excitation_energy_1>
5.214

>  <excitation_energy_2>
5.423

>  <excitation_energy_3>
5.671

>  <excitation_energy_4>
5.816

>  <homo_energy>
-6.602

>  <homo_lumo_gap>
6.275

>  <logP>
1.896

>  <lumo_energy>
-0.327

>  <melting_point>
28.05

>  <molecular_refractivity>
62.82

>  <oscillator_strength_1>
0.0066

>  <oscillator_strength_2>
0.0619

>  <oscillator_strength_3>
0.0102

>  <oscillator_strength_4>
0.0087

>  <open_babel_can_smiles>
CCOC(=O)C(c1ccccc1)C(=O)OCC

>  <mulliken_charges>
33
1   -0.462226
2   -0.459768
3   -0.050052
4   -0.049117
5   -0.125116
6   -0.136587
7   -0.131125
8   -0.148924
9   -0.179601
10   0.170003
11   -0.370584
12   0.661031
13   0.652262
14   -0.483037
15   -0.46471
16   -0.463375
17   -0.463335
18   0.151588
19   0.162419
20   0.179061
21   0.14807
22   0.161302
23   0.183958
24   0.155788
25   0.173518
26   0.152781
27   0.172413
28   0.129872
29   0.13307
30   0.12986
31   0.158796
32   0.127654
33   0.184112

>  <lowdin_charges>
33
1   -0.456089
2   -0.454503
3   -0.129289
4   -0.128606
5   -0.152696
6   -0.155165
7   -0.157197
8   -0.14666
9   -0.163766
10   -0.000736
11   -0.170784
12   0.206915
13   0.206743
14   -0.267686
15   -0.246128
16   -0.185568
17   -0.194261
18   0.160042
19   0.160278
20   0.167506
21   0.158121
22   0.15977
23   0.169354
24   0.154765
25   0.161914
26   0.152223
27   0.160806
28   0.156401
29   0.160931
30   0.158615
31   0.173671
32   0.157538
33   0.183542

$$$$

