PCCDB-ID:  25284
public computational chemistry database (PCCDB) project, http://pccdb.org

 23 23  0  0  1  0  0  0  0  0999 V2000
    0.6651    0.4314    1.1264 C   0  0  0  0  0  0  0  0  0  0  0  0
    2.1600    0.4782    0.7960 C   0  0  0  0  0  0  0  0  0  0  0  0
    2.9870    1.2231    1.8512 C   0  0  0  0  0  0  0  0  0  0  0  0
    4.4897    1.2658    1.5099 C   0  0  0  0  0  0  0  0  0  0  0  0
    6.6117    3.5444    3.4669 C   0  0  0  0  0  0  0  0  0  0  0  0
    6.0556    2.6319    4.5928 C   0  0  0  0  0  0  0  0  0  0  0  0
    5.3124    2.0371    2.5038 C   0  0  3  0  0  0  0  0  0  0  0  0
    5.9023    3.1456    2.2374 N   0  0  0  0  0  0  0  0  0  0  0  0
    5.5077    1.5263    3.7936 N   0  0  0  0  0  0  0  0  0  0  0  0
    0.1020   -0.1014    0.3519 H   0  0  0  0  0  0  0  0  0  0  0  0
    0.2453    1.4415    1.2078 H   0  0  0  0  0  0  0  0  0  0  0  0
    0.4842   -0.0797    2.0801 H   0  0  0  0  0  0  0  0  0  0  0  0
    2.3061    0.9613   -0.1801 H   0  0  0  0  0  0  0  0  0  0  0  0
    2.5460   -0.5456    0.6896 H   0  0  0  0  0  0  0  0  0  0  0  0
    2.8337    0.7432    2.8296 H   0  0  0  0  0  0  0  0  0  0  0  0
    2.6147    2.2518    1.9513 H   0  0  0  0  0  0  0  0  0  0  0  0
    4.6355    1.7383    0.5340 H   0  0  0  0  0  0  0  0  0  0  0  0
    4.8779    0.2398    1.4429 H   0  0  0  0  0  0  0  0  0  0  0  0
    7.6895    3.3839    3.3234 H   0  0  0  0  0  0  0  0  0  0  0  0
    6.4654    4.6099    3.6720 H   0  0  0  0  0  0  0  0  0  0  0  0
    5.2694    3.1392    5.1729 H   0  0  0  0  0  0  0  0  0  0  0  0
    6.8247    2.2824    5.2884 H   0  0  0  0  0  0  0  0  0  0  0  0
    4.7539    0.9840    4.1992 H   0  0  0  0  0  0  0  0  0  0  0  0
  1 11  1  0  0  0  0
  1 12  1  0  0  0  0
  2  1  1  0  0  0  0
  2  3  1  0  0  0  0
  3 16  1  0  0  0  0
  3 15  1  0  0  0  0
  4  3  1  0  0  0  0
  4  7  1  0  0  0  0
  5 20  1  0  0  0  0
  5  6  1  0  0  0  0
  6 21  1  0  0  0  0
  6 22  1  0  0  0  0
  7  9  1  0  0  0  0
  8  7  1  0  0  0  0
  8  5  1  0  0  0  0
  9 23  1  0  0  0  0
  9  6  1  0  0  0  0
 10  1  1  0  0  0  0
 13  2  1  0  0  0  0
 14  2  1  0  0  0  0
 17  4  1  0  0  0  0
 18  4  1  0  0  0  0
 19  5  1  0  0  0  0
M  RAD  2   7   2   8   2
M  END
>  <HBA>
2

>  <HBD>
1

>  <TPSA>
24.39

>  <cid>
25284

>  <dipole>
2.68

>  <excitation_energy_1>
5.157

>  <excitation_energy_2>
5.817

>  <excitation_energy_3>
5.89

>  <excitation_energy_4>
5.991

>  <homo_energy>
-5.75

>  <homo_lumo_gap>
6.768

>  <logP>
0.943

>  <lumo_energy>
1.018

>  <melting_point>
40.39

>  <molecular_refractivity>
47.38

>  <oscillator_strength_1>
0.004

>  <oscillator_strength_2>
0.004

>  <oscillator_strength_3>
0.0473

>  <oscillator_strength_4>
0.019

>  <open_babel_can_smiles>
CCCC[C]1[N]CCN1

>  <mulliken_charges>
23
1   -0.442975
2   -0.246627
3   -0.259362
4   -0.33374
5   -0.158567
6   -0.147799
7   0.47743
8   -0.466518
9   -0.603556
10   0.145607
11   0.145021
12   0.140596
13   0.138992
14   0.132916
15   0.118855
16   0.147522
17   0.170116
18   0.150456
19   0.148869
20   0.145727
21   0.136431
22   0.148382
23   0.312225

>  <lowdin_charges>
23
1   -0.444803
2   -0.270223
3   -0.271231
4   -0.280846
5   -0.206643
6   -0.214556
7   0.084411
8   -0.244911
9   -0.325002
10   0.152703
11   0.147585
12   0.14573
13   0.142975
14   0.139211
15   0.131236
16   0.146354
17   0.167975
18   0.154045
19   0.143821
20   0.146844
21   0.134639
22   0.149849
23   0.270836

$$$$

