PCCDB-ID:  17109
public computational chemistry database (PCCDB) project, http://pccdb.org

 21 23  0  0  0  0  0  0  0  0999 V2000
    0.9907    0.1104   -0.0858 C   0  0  0  0  0  0  0  0  0  0  0  0
    3.2259    1.1693    0.4781 C   0  0  0  0  0  0  0  0  0  0  0  0
    4.5911    1.1332    0.6433 C   0  0  0  0  0  0  0  0  0  0  0  0
    3.1664   -1.1658   -0.1401 C   0  0  0  0  0  0  0  0  0  0  0  0
    2.4874    0.0166    0.0819 C   0  0  0  0  0  0  0  0  0  0  0  0
    5.2974   -0.0738    0.4199 C   0  0  0  0  0  0  0  0  0  0  0  0
    4.5708   -1.2384    0.0212 C   0  0  0  0  0  0  0  0  0  0  0  0
    7.2401   -1.2545    0.3605 C   0  0  0  0  0  0  0  0  0  0  0  0
    6.5109   -2.4261   -0.0423 C   0  0  0  0  0  0  0  0  0  0  0  0
    9.0625   -3.1757    0.0889 C   0  0  0  0  0  0  0  0  0  0  0  0
    6.6525   -0.1102    0.5851 N   0  0  0  0  0  0  0  0  0  0  0  0
    5.2157   -2.4218   -0.2073 N   0  0  0  0  0  0  0  0  0  0  0  0
   10.0854   -3.8007    0.0546 O   0  0  0  0  0  0  0  0  0  0  0  0
    8.9936   -1.4249    0.5441 S   0  0  0  0  0  0  0  0  0  0  0  0
    7.4524   -3.9021   -0.3100 S   0  0  0  0  0  0  0  0  0  0  0  0
    0.7238    0.8545   -0.8467 H   0  0  0  0  0  0  0  0  0  0  0  0
    0.5066    0.4202    0.8487 H   0  0  0  0  0  0  0  0  0  0  0  0
    0.5601   -0.8487   -0.3870 H   0  0  0  0  0  0  0  0  0  0  0  0
    2.6898    2.0994    0.6516 H   0  0  0  0  0  0  0  0  0  0  0  0
    5.1557    2.0097    0.9455 H   0  0  0  0  0  0  0  0  0  0  0  0
    2.6453   -2.0691   -0.4433 H   0  0  0  0  0  0  0  0  0  0  0  0
  1  5  1  0  0  0  0
  1 17  1  0  0  0  0
  2  3  1  0  0  0  0
  2 19  1  0  0  0  0
  3 20  1  0  0  0  0
  4  7  2  0  0  0  0
  4  5  1  0  0  0  0
  5  2  2  0  0  0  0
  6 11  1  0  0  0  0
  6  3  2  0  0  0  0
  7  6  1  0  0  0  0
  8 14  1  0  0  0  0
  8 11  2  0  0  0  0
  9  8  1  0  0  0  0
 10 14  1  0  0  0  0
 12  9  2  0  0  0  0
 12  7  1  0  0  0  0
 13 10  2  0  0  0  0
 15  9  1  0  0  0  0
 15 10  1  0  0  0  0
 16  1  1  0  0  0  0
 18  1  1  0  0  0  0
 21  4  1  0  0  0  0
M  END
>  <HBA>
5

>  <HBD>
0

>  <TPSA>
99.33

>  <cid>
17109

>  <dipole>
4.96

>  <excitation_energy_1>
3.798

>  <excitation_energy_2>
3.846

>  <excitation_energy_3>
3.908

>  <excitation_energy_4>
4.605

>  <homo_energy>
-6.7

>  <homo_lumo_gap>
4.357

>  <logP>
2.575

>  <lumo_energy>
-2.343

>  <melting_point>
162.74

>  <molecular_refractivity>
64.03

>  <oscillator_strength_1>
0.1218

>  <oscillator_strength_2>
0.0026

>  <oscillator_strength_3>
0.1329

>  <oscillator_strength_4>
0.0

>  <open_babel_can_smiles>
Cc1ccc2c(c1)nc1c(n2)sc(=O)s1

>  <mulliken_charges>
21
1   -0.533966
2   -0.176081
3   -0.148623
4   -0.219816
5   0.178356
6   0.264183
7   0.277528
8   0.083744
9   0.086653
10   0.113245
11   -0.503036
12   -0.506528
13   -0.401837
14   0.268449
15   0.268474
16   0.170279
17   0.17019
18   0.166211
19   0.139077
20   0.155532
21   0.147966

>  <lowdin_charges>
21
1   -0.442055
2   -0.151541
3   -0.149204
4   -0.166618
5   0.013425
6   0.028341
7   0.033103
8   -0.099526
9   -0.098929
10   -0.079174
11   -0.119438
12   -0.120038
13   -0.199631
14   0.27287
15   0.272334
16   0.166462
17   0.165881
18   0.162736
19   0.16398
20   0.175255
21   0.171767

$$$$

