PCCDB-ID:  2380
public computational chemistry database (PCCDB) project, http://pccdb.org

 28 29  0  0  1  0  0  0  0  0999 V2000
    3.3361   -0.2023   -0.7179 C   0  0  0  0  0  0  0  0  0  0  0  0
    6.0810    1.3606    1.9356 C   0  0  0  0  0  0  0  0  0  0  0  0
    3.0341    0.8344    0.3571 C   0  0  1  0  0  0  0  0  0  0  0  0
    5.1509    0.3251    1.7215 C   0  0  0  0  0  0  0  0  0  0  0  0
    6.9024   -1.1159    1.4714 C   0  0  0  0  0  0  0  0  0  0  0  0
    3.6483    0.5618    1.7486 C   0  0  1  0  0  0  0  0  0  0  0  0
    7.8157   -0.0686    1.6755 C   0  0  0  0  0  0  0  0  0  0  0  0
    7.4640   -2.4459    1.2332 C   0  0  0  0  0  0  0  0  0  0  0  0
    9.6554   -1.6761    1.3874 C   0  0  0  0  0  0  0  0  0  0  0  0
   10.9047   -1.9497    1.3419 N   0  0  0  0  0  0  0  0  0  0  0  0
    7.4039    1.1847    1.9110 N   0  0  0  0  0  0  0  0  0  0  0  0
    5.5835   -0.9230    1.4937 N   0  0  0  0  0  0  0  0  0  0  0  0
    9.1459   -0.3670    1.6315 N   0  0  0  0  0  0  0  0  0  0  0  0
    8.7250   -2.6953    1.1918 N   0  0  0  0  0  0  0  0  0  0  0  0
    3.5316    2.1352    0.0002 O   0  0  0  0  0  0  0  0  0  0  0  0
    3.3078    1.6375    2.6087 O   0  0  0  0  0  0  0  0  0  0  0  0
    6.5845   -3.4394    1.0462 O   0  0  0  0  0  0  0  0  0  0  0  0
    3.0131   -1.2006   -0.4029 H   0  0  0  0  0  0  0  0  0  0  0  0
    4.4054   -0.2376   -0.9419 H   0  0  0  0  0  0  0  0  0  0  0  0
    2.7998    0.0451   -1.6420 H   0  0  0  0  0  0  0  0  0  0  0  0
    5.7312    2.3661    2.1441 H   0  0  0  0  0  0  0  0  0  0  0  0
    1.9468    0.8935    0.5187 H   0  0  0  0  0  0  0  0  0  0  0  0
    3.1825   -0.3451    2.1507 H   0  0  0  0  0  0  0  0  0  0  0  0
   11.4721   -1.1132    1.5029 H   0  0  0  0  0  0  0  0  0  0  0  0
    9.7940    0.3965    1.7859 H   0  0  0  0  0  0  0  0  0  0  0  0
    3.0232    2.4625   -0.7570 H   0  0  0  0  0  0  0  0  0  0  0  0
    3.3041    2.4280    2.0387 H   0  0  0  0  0  0  0  0  0  0  0  0
    5.6944   -3.0385    1.1235 H   0  0  0  0  0  0  0  0  0  0  0  0
  1 18  1  0  0  0  0
  1  3  1  0  0  0  0
  2 21  1  0  0  0  0
  3 22  1  1  0  0  0
  3  6  1  0  0  0  0
  4  6  1  0  0  0  0
  4  2  2  0  0  0  0
  5 12  2  0  0  0  0
  5  7  1  0  0  0  0
  6 23  1  1  0  0  0
  6 16  1  0  0  0  0
  7 11  2  0  0  0  0
  8  5  1  0  0  0  0
  9 13  1  0  0  0  0
 10  9  1  0  0  0  0
 10 24  1  0  0  0  0
 11  2  1  0  0  0  0
 12  4  1  0  0  0  0
 13  7  1  0  0  0  0
 13 25  1  0  0  0  0
 14  8  2  0  0  0  0
 14  9  2  0  0  0  0
 15  3  1  0  0  0  0
 17 28  1  0  0  0  0
 17  8  1  0  0  0  0
 19  1  1  0  0  0  0
 20  1  1  0  0  0  0
 26 15  1  0  0  0  0
 27 16  1  0  0  0  0
M  RAD  1  10   2
M  END
>  <HBA>
7

>  <HBD>
4

>  <TPSA>
138.01

>  <cid>
2380

>  <dipole>
7.62

>  <excitation_energy_1>
3.283

>  <excitation_energy_2>
3.881

>  <excitation_energy_3>
4.118

>  <excitation_energy_4>
4.353

>  <homo_energy>
-6.104

>  <homo_lumo_gap>
3.758

>  <logP>
-0.709

>  <lumo_energy>
-2.346

>  <melting_point>
267.79

>  <molecular_refractivity>
59.26

>  <oscillator_strength_1>
0.1496

>  <oscillator_strength_2>
0.0016

>  <oscillator_strength_3>
0.0001

>  <oscillator_strength_4>
0.0032

>  <open_babel_can_smiles>
C[C@@H]([C@@H](c1cnc2c(n1)C(=[N]=C(N2)[NH])O)O)O

>  <mulliken_charges>
28
1   -0.456582
2   0.026367
3   0.097653
4   0.292591
5   0.237045
6   0.072354
7   0.566086
8   0.534515
9   0.60217
10   -0.597876
11   -0.480728
12   -0.597646
13   -0.724703
14   -0.484426
15   -0.644571
16   -0.637992
17   -0.588764
18   0.156731
19   0.169511
20   0.144013
21   0.164669
22   0.138745
23   0.157677
24   0.26654
25   0.338734
26   0.40604
27   0.412258
28   0.429591

>  <lowdin_charges>
28
1   -0.457239
2   -0.069912
3   -0.01154
4   0.006426
5   -0.039803
6   -0.012515
7   0.094808
8   0.138333
9   0.126003
10   -0.400867
11   -0.147937
12   -0.134461
13   -0.238627
14   -0.160177
15   -0.473598
16   -0.453456
17   -0.323707
18   0.160983
19   0.161704
20   0.152938
21   0.173898
22   0.13586
23   0.161068
24   0.24574
25   0.298701
26   0.354982
27   0.347999
28   0.364396

$$$$

