PCCDB-ID:  12250
public computational chemistry database (PCCDB) project, http://pccdb.org

 18 17  0  0  0  0  0  0  0  0999 V2000
    0.9264   -0.6572    0.3077 C   0  0  0  0  0  0  0  0  0  0  0  0
    3.2478   -1.5956   -0.1143 C   0  0  0  0  0  0  0  0  0  0  0  0
    2.1803    2.9579   -1.4553 C   0  0  0  0  0  0  0  0  0  0  0  0
    2.6801    0.7314   -0.8738 C   0  0  0  0  0  0  0  0  0  0  0  0
    2.4224   -0.3376    0.1894 C   0  0  0  0  0  0  0  0  0  0  0  0
    2.0078    1.9245   -0.5124 O   0  0  0  0  0  0  0  0  0  0  0  0
    0.7400   -1.3693    1.1201 H   0  0  0  0  0  0  0  0  0  0  0  0
    0.5497   -1.1055   -0.6216 H   0  0  0  0  0  0  0  0  0  0  0  0
    0.3485    0.2502    0.5039 H   0  0  0  0  0  0  0  0  0  0  0  0
    3.0875   -2.3614    0.6528 H   0  0  0  0  0  0  0  0  0  0  0  0
    4.3220   -1.3769   -0.1498 H   0  0  0  0  0  0  0  0  0  0  0  0
    2.9619   -2.0315   -1.0805 H   0  0  0  0  0  0  0  0  0  0  0  0
    1.6298    3.8283   -1.0878 H   0  0  0  0  0  0  0  0  0  0  0  0
    1.7858    2.6785   -2.4464 H   0  0  0  0  0  0  0  0  0  0  0  0
    3.2419    3.2314   -1.5737 H   0  0  0  0  0  0  0  0  0  0  0  0
    2.3251    0.3773   -1.8596 H   0  0  0  0  0  0  0  0  0  0  0  0
    3.7640    0.9224   -0.9684 H   0  0  0  0  0  0  0  0  0  0  0  0
    2.7634    0.0805    1.1472 H   0  0  0  0  0  0  0  0  0  0  0  0
  1  9  1  0  0  0  0
  1  7  1  0  0  0  0
  2  5  1  0  0  0  0
  2 10  1  0  0  0  0
  3 13  1  0  0  0  0
  3  6  1  0  0  0  0
  4  6  1  0  0  0  0
  4  5  1  0  0  0  0
  5  1  1  0  0  0  0
  5 18  1  0  0  0  0
  8  1  1  0  0  0  0
 11  2  1  0  0  0  0
 12  2  1  0  0  0  0
 14  3  1  0  0  0  0
 15  3  1  0  0  0  0
 16  4  1  0  0  0  0
 17  4  1  0  0  0  0
M  END
>  <HBA>
1

>  <HBD>
0

>  <TPSA>
9.23

>  <cid>
12250

>  <dipole>
1.05

>  <excitation_energy_1>
6.476

>  <excitation_energy_2>
6.886

>  <excitation_energy_3>
7.085

>  <excitation_energy_4>
7.196

>  <homo_energy>
-6.808

>  <homo_lumo_gap>
9.236

>  <logP>
1.289

>  <lumo_energy>
2.427

>  <melting_point>
-34.85

>  <molecular_refractivity>
27.23

>  <oscillator_strength_1>
0.0255

>  <oscillator_strength_2>
0.004

>  <oscillator_strength_3>
0.0097

>  <oscillator_strength_4>
0.0142

>  <open_babel_can_smiles>
COCC(C)C

>  <mulliken_charges>
18
1   -0.442547
2   -0.449621
3   -0.1897
4   0.002697
5   -0.08885
6   -0.463959
7   0.136867
8   0.132298
9   0.165395
10   0.146462
11   0.140856
12   0.139898
13   0.156378
14   0.128175
15   0.127476
16   0.109527
17   0.112826
18   0.135823

>  <lowdin_charges>
18
1   -0.447826
2   -0.443308
3   -0.27739
4   -0.127926
5   -0.127008
6   -0.271208
7   0.147455
8   0.14313
9   0.160517
10   0.15281
11   0.145974
12   0.14562
13   0.154621
14   0.129692
15   0.128585
16   0.120635
17   0.12191
18   0.143717

$$$$

