PCCDB-ID:  6235
public computational chemistry database (PCCDB) project, http://pccdb.org

 30 33  0  0  0  0  0  0  0  0999 V2000
   -0.1746   -0.3211    0.7097 C   0  0  0  0  0  0  0  0  0  0  0  0
   -1.3066    0.6595    0.8053 C   0  0  0  0  0  0  0  0  0  0  0  0
   -5.0427   -5.8880   -0.7624 C   0  0  0  0  0  0  0  0  0  0  0  0
   -6.1631   -5.0132   -1.2267 C   0  0  0  0  0  0  0  0  0  0  0  0
   -6.9498   -2.0359   -1.5317 C   0  0  0  0  0  0  0  0  0  0  0  0
   -6.5407   -0.6597   -1.1349 C   0  0  0  0  0  0  0  0  0  0  0  0
   -1.8690   -2.7922   -0.0349 C   0  0  0  0  0  0  0  0  0  0  0  0
   -2.2355   -1.4914   -0.0985 C   0  0  0  0  0  0  0  0  0  0  0  0
   -2.8521   -3.8698   -0.0989 C   0  0  0  0  0  0  0  0  0  0  0  0
   -4.2976   -3.5116   -0.3152 C   0  0  0  0  0  0  0  0  0  0  0  0
   -4.6864   -2.1927   -0.3981 C   0  0  0  0  0  0  0  0  0  0  0  0
   -3.6943   -1.1119   -0.2195 C   0  0  0  0  0  0  0  0  0  0  0  0
   -1.3452   -0.4396   -0.1409 N   0  0  0  0  0  0  0  0  0  0  0  0
   -5.2065   -4.5510   -0.2300 N   0  0  0  0  0  0  0  0  0  0  0  0
   -6.0376   -1.8171   -0.4091 N   0  0  0  0  0  0  0  0  0  0  0  0
   -2.5047   -5.0447    0.0226 O   0  0  0  0  0  0  0  0  0  0  0  0
   -4.0149    0.0714   -0.1442 O   0  0  0  0  0  0  0  0  0  0  0  0
   -0.0643   -1.0484    1.5139 H   0  0  0  0  0  0  0  0  0  0  0  0
    0.7487   -0.0446    0.2061 H   0  0  0  0  0  0  0  0  0  0  0  0
   -1.2146    1.6499    0.3675 H   0  0  0  0  0  0  0  0  0  0  0  0
   -1.9569    0.6000    1.6746 H   0  0  0  0  0  0  0  0  0  0  0  0
   -4.2239   -6.0714   -1.4516 H   0  0  0  0  0  0  0  0  0  0  0  0
   -5.2292   -6.6929   -0.0552 H   0  0  0  0  0  0  0  0  0  0  0  0
   -7.1794   -5.1644   -0.8699 H   0  0  0  0  0  0  0  0  0  0  0  0
   -6.0828   -4.6120   -2.2353 H   0  0  0  0  0  0  0  0  0  0  0  0
   -6.5316   -2.4168   -2.4626 H   0  0  0  0  0  0  0  0  0  0  0  0
   -7.9289   -2.4316   -1.2710 H   0  0  0  0  0  0  0  0  0  0  0  0
   -7.2156   -0.0222   -0.5686 H   0  0  0  0  0  0  0  0  0  0  0  0
   -5.8642   -0.1273   -1.7969 H   0  0  0  0  0  0  0  0  0  0  0  0
   -0.8329   -3.0974    0.0715 H   0  0  0  0  0  0  0  0  0  0  0  0
  1  2  1  0  0  0  0
  1 18  1  0  0  0  0
  2 21  1  0  0  0  0
  3 14  1  0  0  0  0
  3 23  1  0  0  0  0
  4 24  1  0  0  0  0
  4  3  1  0  0  0  0
  4 14  1  0  0  0  0
  5 27  1  0  0  0  0
  5  6  1  0  0  0  0
  5 15  1  0  0  0  0
  6 28  1  0  0  0  0
  6 15  1  0  0  0  0
  7 30  1  0  0  0  0
  8  7  2  0  0  0  0
  9  7  1  0  0  0  0
  9 16  2  0  0  0  0
 10 14  1  0  0  0  0
 10  9  1  0  0  0  0
 11 10  2  0  0  0  0
 11 12  1  0  0  0  0
 12 17  2  0  0  0  0
 12  8  1  0  0  0  0
 13  8  1  0  0  0  0
 13  1  1  0  0  0  0
 13  2  1  0  0  0  0
 15 11  1  0  0  0  0
 19  1  1  0  0  0  0
 20  2  1  0  0  0  0
 22  3  1  0  0  0  0
 25  4  1  0  0  0  0
 26  5  1  0  0  0  0
 29  6  1  0  0  0  0
M  END
>  <HBA>
5

>  <HBD>
0

>  <TPSA>
43.17

>  <cid>
6235

>  <dipole>
1.58

>  <excitation_energy_1>
1.959

>  <excitation_energy_2>
2.777

>  <excitation_energy_3>
3.043

>  <excitation_energy_4>
3.352

>  <homo_energy>
-5.257

>  <homo_lumo_gap>
2.623

>  <logP>
-1.006

>  <lumo_energy>
-2.634

>  <melting_point>
98.52

>  <molecular_refractivity>
71.23

>  <oscillator_strength_1>
0.016

>  <oscillator_strength_2>
0.0002

>  <oscillator_strength_3>
0.0018

>  <oscillator_strength_4>
0.1611

>  <open_babel_can_smiles>
O=C1C(=C(N2CC2)C(=O)C=C1N1CC1)N1CC1

>  <mulliken_charges>
30
1   -0.206106
2   -0.168283
3   -0.168372
4   -0.19456
5   -0.195066
6   -0.171908
7   -0.274699
8   0.274145
9   0.432763
10   0.172556
11   0.163423
12   0.390069
13   -0.396103
14   -0.398662
15   -0.4095
16   -0.503441
17   -0.489133
18   0.167449
19   0.170516
20   0.172911
21   0.175841
22   0.177047
23   0.167739
24   0.166346
25   0.155095
26   0.149253
27   0.160889
28   0.163172
29   0.171488
30   0.14513

>  <lowdin_charges>
30
1   -0.229443
2   -0.205493
3   -0.21081
4   -0.223171
5   -0.229363
6   -0.219274
7   -0.231812
8   0.037895
9   0.14108
10   -0.001935
11   -0.030453
12   0.136747
13   -0.112627
14   -0.113509
15   -0.137865
16   -0.250218
17   -0.237819
18   0.160519
19   0.166502
20   0.167386
21   0.165429
22   0.166343
23   0.166401
24   0.162678
25   0.152259
26   0.149323
27   0.16007
28   0.164717
29   0.164279
30   0.172166

$$$$

