PCCDB-ID:  13827
public computational chemistry database (PCCDB) project, http://pccdb.org

 17 16  0  0  1  0  0  0  0  0999 V2000
    1.0697    0.3610   -0.1527 C   0  0  0  0  0  0  0  0  0  0  0  0
    0.2088    1.5583    0.2731 C   0  0  0  0  0  0  0  0  0  0  0  0
    2.5917    0.5173    0.0361 C   0  0  1  0  0  0  0  0  0  0  0  0
    3.1254    1.7258   -0.7688 C   0  0  0  0  0  0  0  0  0  0  0  0
    0.2470    1.7934    1.7310 N   0  0  0  0  0  0  0  0  0  0  0  0
    2.6727    1.9971   -1.8579 O   0  0  0  0  0  0  0  0  0  0  0  0
    4.1317    2.4281   -0.2287 O   0  0  0  0  0  0  0  0  0  0  0  0
    3.1472    0.4800    1.8096 S   0  0  0  0  0  0  0  0  0  0  0  0
    0.8972    0.2002   -1.2220 H   0  0  0  0  0  0  0  0  0  0  0  0
    0.7430   -0.5466    0.3695 H   0  0  0  0  0  0  0  0  0  0  0  0
   -0.8146    1.3959   -0.1019 H   0  0  0  0  0  0  0  0  0  0  0  0
    0.5817    2.4604   -0.2220 H   0  0  0  0  0  0  0  0  0  0  0  0
    3.0758   -0.3604   -0.4089 H   0  0  0  0  0  0  0  0  0  0  0  0
   -0.3030    1.0827    2.2126 H   0  0  0  0  0  0  0  0  0  0  0  0
   -0.1842    2.6893    1.9522 H   0  0  0  0  0  0  0  0  0  0  0  0
    4.2973    2.0728    0.6736 H   0  0  0  0  0  0  0  0  0  0  0  0
    2.1047    1.2667    2.2230 H   0  0  0  0  0  0  0  0  0  0  0  0
  1  3  1  0  0  0  0
  1  2  1  0  0  0  0
  1 10  1  0  0  0  0
  2  5  1  0  0  0  0
  3 13  1  6  0  0  0
  3  8  1  0  0  0  0
  4  7  1  0  0  0  0
  4  3  1  0  0  0  0
  5 15  1  0  0  0  0
  5 14  1  0  0  0  0
  6  4  2  0  0  0  0
  7 16  1  0  0  0  0
  8 17  1  0  0  0  0
  9  1  1  0  0  0  0
 11  2  1  0  0  0  0
 12  2  1  0  0  0  0
M  END
>  <HBA>
4

>  <HBD>
3

>  <TPSA>
102.12

>  <cid>
13827

>  <dipole>
4.41

>  <excitation_energy_1>
5.269

>  <excitation_energy_2>
5.625

>  <excitation_energy_3>
5.841

>  <excitation_energy_4>
5.96

>  <homo_energy>
-6.629

>  <homo_lumo_gap>
6.846

>  <logP>
0.418

>  <lumo_energy>
0.218

>  <melting_point>
126.43

>  <molecular_refractivity>
33.75

>  <oscillator_strength_1>
0.0029

>  <oscillator_strength_2>
0.0021

>  <oscillator_strength_3>
0.0282

>  <oscillator_strength_4>
0.0141

>  <open_babel_can_smiles>
NCC[C@@H](C(=O)O)S

>  <mulliken_charges>
17
1   -0.259181
2   -0.154546
3   -0.353173
4   0.6067
5   -0.733496
6   -0.458799
7   -0.563664
8   -0.167713
9   0.179117
10   0.149632
11   0.135694
12   0.177457
13   0.207869
14   0.312281
15   0.317425
16   0.427797
17   0.1766

>  <lowdin_charges>
17
1   -0.277713
2   -0.20825
3   -0.264884
4   0.179317
5   -0.549889
6   -0.258354
7   -0.344291
8   -0.131106
9   0.170417
10   0.153438
11   0.133491
12   0.160386
13   0.188355
14   0.263524
15   0.267175
16   0.352929
17   0.165455

$$$$

