PCCDB-ID:  69885
public computational chemistry database (PCCDB) project, http://pccdb.org

 27 28  0  0  0  0  0  0  0  0999 V2000
    2.1030    0.9277   -1.1775 C   0  0  0  0  0  0  0  0  0  0  0  0
    5.4200    3.0267    4.9597 C   0  0  0  0  0  0  0  0  0  0  0  0
    4.2503    3.8825    4.4622 C   0  0  0  0  0  0  0  0  0  0  0  0
    5.0755    1.5363    4.8450 C   0  0  0  0  0  0  0  0  0  0  0  0
    3.9867    3.6070    2.9763 C   0  0  0  0  0  0  0  0  0  0  0  0
    4.4259   -0.1966    3.1250 C   0  0  0  0  0  0  0  0  0  0  0  0
    3.8554   -0.5933    1.9254 C   0  0  0  0  0  0  0  0  0  0  0  0
    3.3552    1.7124    1.4326 C   0  0  0  0  0  0  0  0  0  0  0  0
    2.6994   -0.1010   -0.2282 C   0  0  0  0  0  0  0  0  0  0  0  0
    4.4735    1.1556    3.5037 C   0  0  0  0  0  0  0  0  0  0  0  0
    3.3077    0.3653    1.0574 C   0  0  0  0  0  0  0  0  0  0  0  0
    3.9312    2.1251    2.6405 C   0  0  0  0  0  0  0  0  0  0  0  0
    2.6800   -1.2892   -0.5157 O   0  0  0  0  0  0  0  0  0  0  0  0
    2.8548    1.6633   -1.4873 H   0  0  0  0  0  0  0  0  0  0  0  0
    1.2848    1.4790   -0.6987 H   0  0  0  0  0  0  0  0  0  0  0  0
    1.7207    0.4085   -2.0580 H   0  0  0  0  0  0  0  0  0  0  0  0
    5.6706    3.2707    5.9989 H   0  0  0  0  0  0  0  0  0  0  0  0
    6.3130    3.2486    4.3585 H   0  0  0  0  0  0  0  0  0  0  0  0
    4.4550    4.9494    4.6116 H   0  0  0  0  0  0  0  0  0  0  0  0
    3.3517    3.6470    5.0497 H   0  0  0  0  0  0  0  0  0  0  0  0
    4.3545    1.2750    5.6352 H   0  0  0  0  0  0  0  0  0  0  0  0
    5.9623    0.9191    5.0371 H   0  0  0  0  0  0  0  0  0  0  0  0
    4.7879    4.0734    2.3826 H   0  0  0  0  0  0  0  0  0  0  0  0
    3.0561    4.0923    2.6554 H   0  0  0  0  0  0  0  0  0  0  0  0
    4.8475   -0.9447    3.7934 H   0  0  0  0  0  0  0  0  0  0  0  0
    3.8208   -1.6375    1.6327 H   0  0  0  0  0  0  0  0  0  0  0  0
    2.9348    2.4725    0.7785 H   0  0  0  0  0  0  0  0  0  0  0  0
  1 15  1  0  0  0  0
  1  9  1  0  0  0  0
  2 17  1  0  0  0  0
  3 19  1  0  0  0  0
  3  2  1  0  0  0  0
  3 20  1  0  0  0  0
  4  2  1  0  0  0  0
  4 22  1  0  0  0  0
  4 21  1  0  0  0  0
  5  3  1  0  0  0  0
  6 10  1  0  0  0  0
  6 25  1  0  0  0  0
  7  6  2  0  0  0  0
  8 12  1  0  0  0  0
  9 11  1  0  0  0  0
 10  4  1  0  0  0  0
 11  8  2  0  0  0  0
 11  7  1  0  0  0  0
 12  5  1  0  0  0  0
 12 10  2  0  0  0  0
 13  9  2  0  0  0  0
 14  1  1  0  0  0  0
 16  1  1  0  0  0  0
 18  2  1  0  0  0  0
 23  5  1  0  0  0  0
 24  5  1  0  0  0  0
 26  7  1  0  0  0  0
 27  8  1  0  0  0  0
M  END
>  <HBA>
1

>  <HBD>
0

>  <TPSA>
17.07

>  <cid>
69885

>  <dipole>
3.84

>  <excitation_energy_1>
3.772

>  <excitation_energy_2>
4.505

>  <excitation_energy_3>
4.899

>  <excitation_energy_4>
5.505

>  <homo_energy>
-6.52

>  <homo_lumo_gap>
5.219

>  <logP>
2.768

>  <lumo_energy>
-1.301

>  <melting_point>
69.14

>  <molecular_refractivity>
54.07

>  <oscillator_strength_1>
0.0001

>  <oscillator_strength_2>
0.0404

>  <oscillator_strength_3>
0.2688

>  <oscillator_strength_4>
0.0001

>  <open_babel_can_smiles>
CC(=O)c1ccc2c(c1)CCCC2

>  <mulliken_charges>
27
1   -0.541266
2   -0.267037
3   -0.267115
4   -0.343675
5   -0.340513
6   -0.188658
7   -0.16273
8   -0.255679
9   0.405575
10   0.126014
11   0.086063
12   0.123867
13   -0.457101
14   0.168504
15   0.168909
16   0.179352
17   0.136812
18   0.13921
19   0.136236
20   0.138882
21   0.156048
22   0.149852
23   0.15286
24   0.145909
25   0.126457
26   0.159631
27   0.123593

>  <lowdin_charges>
27
1   -0.477914
2   -0.275354
3   -0.274799
4   -0.279161
5   -0.278423
6   -0.165052
7   -0.130798
8   -0.158746
9   0.159741
10   0.001555
11   -0.054838
12   -0.017469
13   -0.246532
14   0.169222
15   0.169691
16   0.17446
17   0.146369
18   0.143026
19   0.14555
20   0.142876
21   0.155664
22   0.155199
23   0.153359
24   0.152546
25   0.157834
26   0.17387
27   0.158124

$$$$

