PCCDB-ID:  589
public computational chemistry database (PCCDB) project, http://pccdb.org

 23 22  0  0  0  0  0  0  0  0999 V2000
    0.5714    0.0751   -0.0187 C   0  0  0  0  0  0  0  0  0  0  0  0
    2.3268    1.7228   -0.5154 C   0  0  0  0  0  0  0  0  0  0  0  0
    2.2227    0.7085    1.6910 C   0  0  0  0  0  0  0  0  0  0  0  0
    4.3214   -0.5654    0.1999 C   0  0  0  0  0  0  0  0  0  0  0  0
    5.1472    0.3181   -0.4059 C   0  0  0  0  0  0  0  0  0  0  0  0
    2.9402   -0.7545   -0.2651 C   0  0  0  0  0  0  0  0  0  0  0  0
    6.1213    1.2013    0.3750 C   0  0  0  0  0  0  0  0  0  0  0  0
    1.9929    0.4561    0.2291 N   0  0  0  0  0  0  0  0  0  0  0  0
    7.2275    0.8475    0.7716 O   0  0  0  0  0  0  0  0  0  0  0  0
    5.4513    2.2752    0.5235 O   0  0  0  0  0  0  0  0  0  0  0  0
   -0.0853    0.9014    0.2623 H   0  0  0  0  0  0  0  0  0  0  0  0
    0.3270   -0.8087    0.5740 H   0  0  0  0  0  0  0  0  0  0  0  0
    0.4453   -0.1493   -1.0801 H   0  0  0  0  0  0  0  0  0  0  0  0
    1.6217    2.4949   -0.1963 H   0  0  0  0  0  0  0  0  0  0  0  0
    2.2118    1.5401   -1.5858 H   0  0  0  0  0  0  0  0  0  0  0  0
    3.3546    2.0230   -0.2748 H   0  0  0  0  0  0  0  0  0  0  0  0
    1.5012    1.4558    2.0296 H   0  0  0  0  0  0  0  0  0  0  0  0
    3.2402    1.0830    1.8152 H   0  0  0  0  0  0  0  0  0  0  0  0
    2.0833   -0.2236    2.2422 H   0  0  0  0  0  0  0  0  0  0  0  0
    4.5613   -0.9167    1.2022 H   0  0  0  0  0  0  0  0  0  0  0  0
    4.9171    0.6554   -1.4186 H   0  0  0  0  0  0  0  0  0  0  0  0
    2.4336   -1.6377    0.1371 H   0  0  0  0  0  0  0  0  0  0  0  0
    2.8246   -0.7253   -1.3527 H   0  0  0  0  0  0  0  0  0  0  0  0
  1  8  1  0  0  0  0
  1 11  1  0  0  0  0
  1 12  1  0  0  0  0
  2 16  1  0  0  0  0
  2 14  1  0  0  0  0
  2  8  1  0  0  0  0
  3 18  1  0  0  0  0
  3 17  1  0  0  0  0
  3 19  1  0  0  0  0
  4 20  1  0  0  0  0
  5  4  1  0  0  0  0
  5  7  1  0  0  0  0
  6 22  1  0  0  0  0
  6  4  1  0  0  0  0
  6  8  1  0  0  0  0
  7 10  2  0  0  0  0
  7  9  1  0  0  0  0
  8  3  1  0  0  0  0
 13  1  1  0  0  0  0
 15  2  1  0  0  0  0
 21  5  1  0  0  0  0
 23  6  1  0  0  0  0
M  RAD  3   4   2   5   2   9   2
M  END
>  <HBA>
2

>  <HBD>
0

>  <TPSA>
40.13

>  <cid>
589

>  <dipole>
14.69

>  <excitation_energy_1>
3.644

>  <excitation_energy_2>
3.858

>  <excitation_energy_3>
4.003

>  <excitation_energy_4>
4.169

>  <homo_energy>
-4.754

>  <homo_lumo_gap>
4.46

>  <logP>
-1.001

>  <lumo_energy>
-0.294

>  <melting_point>
89.35

>  <molecular_refractivity>
37.49

>  <oscillator_strength_1>
0.0066

>  <oscillator_strength_2>
0.0022

>  <oscillator_strength_3>
0.0017

>  <oscillator_strength_4>
0.0032

>  <open_babel_can_smiles>
[O]C(=O)[CH][CH]C[N](C)(C)C

>  <mulliken_charges>
23
1   -0.313263
2   -0.362572
3   -0.333544
4   -0.147483
5   -0.159576
6   -0.20231
7   0.532329
8   -0.346637
9   -0.535214
10   -0.569724
11   0.191119
12   0.192635
13   0.194178
14   0.174915
15   0.175906
16   0.282037
17   0.180033
18   0.261928
19   0.183659
20   0.136036
21   0.127319
22   0.162606
23   0.175622

>  <lowdin_charges>
23
1   -0.355709
2   -0.369264
3   -0.35615
4   -0.269647
5   -0.124443
6   -0.181091
7   0.11806
8   0.048155
9   -0.344403
10   -0.415485
11   0.174423
12   0.174635
13   0.174213
14   0.167808
15   0.165126
16   0.217324
17   0.170306
18   0.210868
19   0.171068
20   0.155154
21   0.149838
22   0.15768
23   0.161534

$$$$

