PCCDB-ID:  61135
public computational chemistry database (PCCDB) project, http://pccdb.org

 24 23  0  0  0  0  0  0  0  0999 V2000
    1.8252   -0.8204   -5.7229 C   0  0  0  0  0  0  0  0  0  0  0  0
    8.4596    1.7384   -5.6954 C   0  0  0  0  0  0  0  0  0  0  0  0
   10.0485   -0.1011   -4.9615 C   0  0  0  0  0  0  0  0  0  0  0  0
    3.2704   -1.1462   -5.5162 C   0  0  0  0  0  0  0  0  0  0  0  0
    4.1818   -0.3211   -4.9861 C   0  0  0  0  0  0  0  0  0  0  0  0
    7.7240   -0.0361   -4.0373 C   0  0  0  0  0  0  0  0  0  0  0  0
    8.5898    0.2723   -5.2628 C   0  0  0  0  0  0  0  0  0  0  0  0
    5.5891   -0.7498   -4.8237 C   0  0  0  0  0  0  0  0  0  0  0  0
    6.0415   -1.8361   -5.1336 O   0  0  0  0  0  0  0  0  0  0  0  0
    6.3260    0.2458   -4.2671 O   0  0  0  0  0  0  0  0  0  0  0  0
    1.1858   -1.5310   -5.1821 H   0  0  0  0  0  0  0  0  0  0  0  0
    1.5552   -0.9068   -6.7840 H   0  0  0  0  0  0  0  0  0  0  0  0
    1.5797    0.1913   -5.3851 H   0  0  0  0  0  0  0  0  0  0  0  0
    9.0393    1.9300   -6.6057 H   0  0  0  0  0  0  0  0  0  0  0  0
    8.8341    2.4127   -4.9137 H   0  0  0  0  0  0  0  0  0  0  0  0
    7.4164    2.0031   -5.8946 H   0  0  0  0  0  0  0  0  0  0  0  0
   10.6851    0.0882   -5.8329 H   0  0  0  0  0  0  0  0  0  0  0  0
   10.1476   -1.1608   -4.6986 H   0  0  0  0  0  0  0  0  0  0  0  0
   10.4458    0.4924   -4.1274 H   0  0  0  0  0  0  0  0  0  0  0  0
    3.6084   -2.1362   -5.8212 H   0  0  0  0  0  0  0  0  0  0  0  0
    3.9294    0.6829   -4.6558 H   0  0  0  0  0  0  0  0  0  0  0  0
    7.9988    0.6071   -3.1949 H   0  0  0  0  0  0  0  0  0  0  0  0
    7.8278   -1.0842   -3.7444 H   0  0  0  0  0  0  0  0  0  0  0  0
    8.2316   -0.3711   -6.0770 H   0  0  0  0  0  0  0  0  0  0  0  0
  1  4  1  0  0  0  0
  1 13  1  0  0  0  0
  1 11  1  0  0  0  0
  2  7  1  0  0  0  0
  2 15  1  0  0  0  0
  3 18  1  0  0  0  0
  3 19  1  0  0  0  0
  4  5  2  0  0  0  0
  5  8  1  0  0  0  0
  5 21  1  0  0  0  0
  6 23  1  0  0  0  0
  6 22  1  0  0  0  0
  7  3  1  0  0  0  0
  7  6  1  0  0  0  0
  8 10  1  0  0  0  0
  9  8  2  0  0  0  0
 10  6  1  0  0  0  0
 12  1  1  0  0  0  0
 14  2  1  0  0  0  0
 16  2  1  0  0  0  0
 17  3  1  0  0  0  0
 20  4  1  0  0  0  0
 24  7  1  0  0  0  0
M  END
>  <HBA>
2

>  <HBD>
0

>  <TPSA>
26.3

>  <cid>
61135

>  <dipole>
1.53

>  <excitation_energy_1>
4.859

>  <excitation_energy_2>
5.996

>  <excitation_energy_3>
6.166

>  <excitation_energy_4>
6.828

>  <homo_energy>
-7.219

>  <homo_lumo_gap>
6.272

>  <logP>
1.762

>  <lumo_energy>
-0.947

>  <melting_point>
-5.66

>  <molecular_refractivity>
41.38

>  <oscillator_strength_1>
0.0003

>  <oscillator_strength_2>
0.4961

>  <oscillator_strength_3>
0.1068

>  <oscillator_strength_4>
0.006

>  <open_babel_can_smiles>
C/C=C/C(=O)OCC(C)C

>  <mulliken_charges>
24
1   -0.498188
2   -0.443255
3   -0.451907
4   -0.054285
5   -0.187878
6   -0.037146
7   -0.096432
8   0.613961
9   -0.501052
10   -0.48421
11   0.169112
12   0.168848
13   0.161716
14   0.142404
15   0.135976
16   0.155363
17   0.148621
18   0.150057
19   0.139298
20   0.166275
21   0.142893
22   0.141981
23   0.165196
24   0.152656

>  <lowdin_charges>
24
1   -0.43858
2   -0.447466
3   -0.444044
4   -0.094298
5   -0.212553
6   -0.133122
7   -0.133865
8   0.194487
9   -0.282218
10   -0.195296
11   0.167911
12   0.165153
13   0.158782
14   0.149979
15   0.145398
16   0.153833
17   0.154272
18   0.151036
19   0.146469
20   0.171127
21   0.164503
22   0.148782
23   0.156972
24   0.152737

$$$$

