PCCDB-ID:  67476
public computational chemistry database (PCCDB) project, http://pccdb.org

 21 23  0  0  0  0  0  0  0  0999 V2000
    3.2559    0.1089    0.0010 C   0  0  0  0  0  0  0  0  0  0  0  0
    2.6870    1.3919    0.0002 C   0  0  0  0  0  0  0  0  0  0  0  0
   -3.0606    1.1465   -0.0010 C   0  0  0  0  0  0  0  0  0  0  0  0
   -3.0385   -0.2629   -0.0008 C   0  0  0  0  0  0  0  0  0  0  0  0
    2.4370   -1.0091    0.0010 C   0  0  0  0  0  0  0  0  0  0  0  0
    1.3073    1.5513    0.0002 C   0  0  0  0  0  0  0  0  0  0  0  0
   -1.7500    1.6013   -0.0005 C   0  0  0  0  0  0  0  0  0  0  0  0
   -1.0263   -1.9049    0.0006 C   0  0  0  0  0  0  0  0  0  0  0  0
   -1.7025   -0.6523   -0.0004 C   0  0  0  0  0  0  0  0  0  0  0  0
    1.0342   -0.8844    0.0008 C   0  0  0  0  0  0  0  0  0  0  0  0
    0.4775    0.4220    0.0004 C   0  0  0  0  0  0  0  0  0  0  0  0
    0.2695   -2.0440    0.0013 N   0  0  0  0  0  0  0  0  0  0  0  0
   -0.9191    0.5120   -0.0003 N   0  0  0  0  0  0  0  0  0  0  0  0
    4.3358   -0.0064    0.0025 H   0  0  0  0  0  0  0  0  0  0  0  0
    3.3251    2.2710   -0.0013 H   0  0  0  0  0  0  0  0  0  0  0  0
   -3.9373    1.7803   -0.0002 H   0  0  0  0  0  0  0  0  0  0  0  0
   -3.8876   -0.9324   -0.0009 H   0  0  0  0  0  0  0  0  0  0  0  0
    2.8444   -2.0152    0.0005 H   0  0  0  0  0  0  0  0  0  0  0  0
    0.8765    2.5473    0.0006 H   0  0  0  0  0  0  0  0  0  0  0  0
   -1.3633    2.6084   -0.0016 H   0  0  0  0  0  0  0  0  0  0  0  0
   -1.6297   -2.8126    0.0009 H   0  0  0  0  0  0  0  0  0  0  0  0
  1 14  1  0  0  0  0
  2  1  1  0  0  0  0
  3  4  1  0  0  0  0
  3  7  2  0  0  0  0
  3 16  1  0  0  0  0
  4  9  2  0  0  0  0
  5  1  2  0  0  0  0
  6  2  2  0  0  0  0
  6 11  1  0  0  0  0
  6 19  1  0  0  0  0
  7 13  1  0  0  0  0
  8 21  1  0  0  0  0
  8 12  2  0  0  0  0
  9 13  1  0  0  0  0
  9  8  1  0  0  0  0
 10  5  1  0  0  0  0
 10 12  1  0  0  0  0
 11 10  2  0  0  0  0
 13 11  1  0  0  0  0
 15  2  1  0  0  0  0
 17  4  1  0  0  0  0
 18  5  1  0  0  0  0
 20  7  1  0  0  0  0
M  END
>  <HBA>
2

>  <HBD>
0

>  <TPSA>
17.3

>  <cid>
67476

>  <dipole>
2.18

>  <excitation_energy_1>
3.784

>  <excitation_energy_2>
4.115

>  <excitation_energy_3>
4.51

>  <excitation_energy_4>
4.695

>  <homo_energy>
-5.608

>  <homo_lumo_gap>
4.321

>  <logP>
2.487

>  <lumo_energy>
-1.287

>  <melting_point>
101.71

>  <molecular_refractivity>
52.7

>  <oscillator_strength_1>
0.1669

>  <oscillator_strength_2>
0.0075

>  <oscillator_strength_3>
0.0012

>  <oscillator_strength_4>
0.0944

>  <open_babel_can_smiles>
c1ccc2c(c1)n1cccc1cn2

>  <mulliken_charges>
21
1   -0.13151
2   -0.141324
3   -0.19489
4   -0.222003
5   -0.161092
6   -0.172687
7   0.032772
8   0.011075
9   0.324304
10   0.24111
11   0.363304
12   -0.497122
13   -0.598499
14   0.134638
15   0.13598
16   0.139431
17   0.139714
18   0.148021
19   0.139008
20   0.160037
21   0.149732

>  <lowdin_charges>
21
1   -0.16051
2   -0.147962
3   -0.187295
4   -0.206086
5   -0.143264
6   -0.1793
7   -0.150896
8   -0.081847
9   -0.007315
10   0.0211
11   0.037
12   -0.163627
13   0.045322
14   0.159761
15   0.162419
16   0.166933
17   0.168766
18   0.171169
19   0.161981
20   0.169116
21   0.164538

$$$$

