PCCDB-ID:  69186
public computational chemistry database (PCCDB) project, http://pccdb.org

 18 18  0  0  0  0  0  0  0  0999 V2000
   -1.5716    0.0074   -0.1402 C   0  0  0  0  0  0  0  0  0  0  0  0
   -0.8322    1.1709   -0.3615 C   0  0  0  0  0  0  0  0  0  0  0  0
   -0.9149   -1.1844    0.1759 C   0  0  0  0  0  0  0  0  0  0  0  0
    0.5590    1.1467   -0.2677 C   0  0  0  0  0  0  0  0  0  0  0  0
    0.4749   -1.2124    0.2705 C   0  0  0  0  0  0  0  0  0  0  0  0
    1.2247   -0.0477    0.0487 C   0  0  0  0  0  0  0  0  0  0  0  0
    2.7078   -0.0936    0.1492 C   0  0  0  0  0  0  0  0  0  0  0  0
    3.4984   -1.0496   -0.1923 N   0  0  0  0  0  0  0  0  0  0  0  0
    3.2969    1.0701    0.6331 N   0  0  0  0  0  0  0  0  0  0  0  0
    4.6819    0.9515    0.8754 O   0  0  0  0  0  0  0  0  0  0  0  0
   -2.6554    0.0286   -0.2144 H   0  0  0  0  0  0  0  0  0  0  0  0
   -1.3385    2.0980   -0.6157 H   0  0  0  0  0  0  0  0  0  0  0  0
   -1.4858   -2.0911    0.3557 H   0  0  0  0  0  0  0  0  0  0  0  0
    1.1401    2.0429   -0.4611 H   0  0  0  0  0  0  0  0  0  0  0  0
    0.9849   -2.1342    0.5371 H   0  0  0  0  0  0  0  0  0  0  0  0
    3.0045   -1.8153   -0.6466 H   0  0  0  0  0  0  0  0  0  0  0  0
    2.8610    1.4438    1.4727 H   0  0  0  0  0  0  0  0  0  0  0  0
    4.8583    0.0317    0.5561 H   0  0  0  0  0  0  0  0  0  0  0  0
  1  3  2  0  0  0  0
  2  4  2  0  0  0  0
  2  1  1  0  0  0  0
  3  5  1  0  0  0  0
  3 13  1  0  0  0  0
  4  6  1  0  0  0  0
  5 15  1  0  0  0  0
  6  7  1  0  0  0  0
  6  5  2  0  0  0  0
  7  9  1  0  0  0  0
  8  7  2  0  0  0  0
  9 10  1  0  0  0  0
  9 17  1  0  0  0  0
 11  1  1  0  0  0  0
 12  2  1  0  0  0  0
 14  4  1  0  0  0  0
 16  8  1  0  0  0  0
 18 10  1  0  0  0  0
M  END
>  <HBA>
3

>  <HBD>
2

>  <TPSA>
58.61

>  <cid>
69186

>  <dipole>
3.99

>  <excitation_energy_1>
4.453

>  <excitation_energy_2>
4.857

>  <excitation_energy_3>
5.108

>  <excitation_energy_4>
5.376

>  <homo_energy>
-6.038

>  <homo_lumo_gap>
4.974

>  <logP>
1.481

>  <lumo_energy>
-1.064

>  <melting_point>
133.17

>  <molecular_refractivity>
38.53

>  <oscillator_strength_1>
0.0434

>  <oscillator_strength_2>
0.0001

>  <oscillator_strength_3>
0.0042

>  <oscillator_strength_4>
0.1217

>  <open_babel_can_smiles>
ONC(=N)c1ccccc1

>  <mulliken_charges>
18
1   -0.120709
2   -0.132423
3   -0.134442
4   -0.172112
5   -0.173317
6   0.090558
7   0.403217
8   -0.69203
9   -0.325547
10   -0.533504
11   0.13964
12   0.141147
13   0.140316
14   0.159659
15   0.141902
16   0.297128
17   0.338285
18   0.432232

>  <lowdin_charges>
18
1   -0.143395
2   -0.151076
3   -0.151805
4   -0.155734
5   -0.153783
6   -0.032836
7   0.079342
8   -0.451054
9   -0.160321
10   -0.405735
11   0.160624
12   0.163613
13   0.163461
14   0.17236
15   0.163919
16   0.266015
17   0.283942
18   0.352464

$$$$

