PCCDB-ID:  31585
public computational chemistry database (PCCDB) project, http://pccdb.org

 23 22  0  0  0  0  0  0  0  0999 V2000
    0.2888   -0.8659   -2.5953 C   0  0  0  0  0  0  0  0  0  0  0  0
   -5.4074    1.8557    0.0979 C   0  0  0  0  0  0  0  0  0  0  0  0
   -0.4708    0.4055   -2.2166 C   0  0  0  0  0  0  0  0  0  0  0  0
   -4.6271    1.4989   -1.1667 C   0  0  0  0  0  0  0  0  0  0  0  0
   -1.9478    1.8817   -0.3168 C   0  0  0  0  0  0  0  0  0  0  0  0
    1.4480   -1.0664   -1.7215 N   0  0  0  0  0  0  0  0  0  0  0  0
   -6.0369    3.1695   -0.0362 N   0  0  0  0  0  0  0  0  0  0  0  0
   -1.3625    0.1735   -0.6206 S   0  0  0  0  0  0  0  0  0  0  0  0
   -3.1727    2.5795   -1.4952 S   0  0  0  0  0  0  0  0  0  0  0  0
    0.6620   -0.7341   -3.6188 H   0  0  0  0  0  0  0  0  0  0  0  0
   -0.4192   -1.7141   -2.6247 H   0  0  0  0  0  0  0  0  0  0  0  0
   -4.7443    1.7522    0.9774 H   0  0  0  0  0  0  0  0  0  0  0  0
   -6.2030    1.1086    0.2208 H   0  0  0  0  0  0  0  0  0  0  0  0
   -1.2042    0.6630   -2.9859 H   0  0  0  0  0  0  0  0  0  0  0  0
    0.2404    1.2306   -2.1052 H   0  0  0  0  0  0  0  0  0  0  0  0
   -5.2744    1.6190   -2.0404 H   0  0  0  0  0  0  0  0  0  0  0  0
   -4.2699    0.4641   -1.1366 H   0  0  0  0  0  0  0  0  0  0  0  0
   -1.1005    2.5730   -0.3354 H   0  0  0  0  0  0  0  0  0  0  0  0
   -2.3551    1.8761    0.6975 H   0  0  0  0  0  0  0  0  0  0  0  0
    1.1342   -1.2195   -0.7641 H   0  0  0  0  0  0  0  0  0  0  0  0
    1.9461   -1.9099   -1.9999 H   0  0  0  0  0  0  0  0  0  0  0  0
   -5.3083    3.8773   -0.1257 H   0  0  0  0  0  0  0  0  0  0  0  0
   -6.5544    3.3932    0.8119 H   0  0  0  0  0  0  0  0  0  0  0  0
  1  3  1  0  0  0  0
  1  6  1  0  0  0  0
  2 13  1  0  0  0  0
  2 12  1  0  0  0  0
  3 15  1  0  0  0  0
  3  8  1  0  0  0  0
  4 17  1  0  0  0  0
  4  2  1  0  0  0  0
  5 19  1  0  0  0  0
  6 20  1  0  0  0  0
  7  2  1  0  0  0  0
  7 23  1  0  0  0  0
  8  5  1  0  0  0  0
  9  4  1  0  0  0  0
  9  5  1  0  0  0  0
 10  1  1  0  0  0  0
 11  1  1  0  0  0  0
 14  3  1  0  0  0  0
 16  4  1  0  0  0  0
 18  5  1  0  0  0  0
 21  6  1  0  0  0  0
 22  7  1  0  0  0  0
M  END
>  <HBA>
4

>  <HBD>
2

>  <TPSA>
102.64

>  <cid>
31585

>  <dipole>
1.61

>  <excitation_energy_1>
5.001

>  <excitation_energy_2>
5.139

>  <excitation_energy_3>
5.497

>  <excitation_energy_4>
5.559

>  <homo_energy>
-6.068

>  <homo_lumo_gap>
6.46

>  <logP>
1.728

>  <lumo_energy>
0.392

>  <melting_point>
100.54

>  <molecular_refractivity>
46.75

>  <oscillator_strength_1>
0.009

>  <oscillator_strength_2>
0.0039

>  <oscillator_strength_3>
0.0434

>  <oscillator_strength_4>
0.0013

>  <open_babel_can_smiles>
NCCSCSCCN

>  <mulliken_charges>
23
1   -0.14739
2   -0.125436
3   -0.399563
4   -0.425145
5   -0.559641
6   -0.717449
7   -0.717676
8   0.079243
9   0.088187
10   0.151919
11   0.131777
12   0.116339
13   0.148403
14   0.190269
15   0.179853
16   0.190112
17   0.192229
18   0.203827
19   0.201682
20   0.311756
21   0.29807
22   0.311901
23   0.296733

>  <lowdin_charges>
23
1   -0.205047
2   -0.207828
3   -0.374868
4   -0.3818
5   -0.486425
6   -0.559236
7   -0.561716
8   0.077957
9   0.08856
10   0.149921
11   0.127259
12   0.117719
13   0.149277
14   0.169095
15   0.163831
16   0.17641
17   0.169849
18   0.180463
19   0.175956
20   0.258974
21   0.256213
22   0.260063
23   0.255373

$$$$

