PCCDB-ID:  7610
public computational chemistry database (PCCDB) project, http://pccdb.org

 21 21  0  0  0  0  0  0  0  0999 V2000
    0.8521    0.0071    0.2540 C   0  0  0  0  0  0  0  0  0  0  0  0
    4.5526    3.6469    0.1694 C   0  0  0  0  0  0  0  0  0  0  0  0
    5.1519    0.0594   -0.1042 C   0  0  0  0  0  0  0  0  0  0  0  0
    4.4616   -1.1453   -0.1307 C   0  0  0  0  0  0  0  0  0  0  0  0
    3.0595    1.2342    0.1300 C   0  0  0  0  0  0  0  0  0  0  0  0
    2.3544    0.0229    0.1128 C   0  0  0  0  0  0  0  0  0  0  0  0
    4.4524    1.2642    0.0231 C   0  0  0  0  0  0  0  0  0  0  0  0
    3.0627   -1.1861   -0.0231 C   0  0  0  0  0  0  0  0  0  0  0  0
    2.3824   -2.4205    0.0225 N   0  0  0  0  0  0  0  0  0  0  0  0
    5.2165    2.4054    0.0326 O   0  0  0  0  0  0  0  0  0  0  0  0
    0.4572    1.0149    0.4135 H   0  0  0  0  0  0  0  0  0  0  0  0
    0.5377   -0.6189    1.0994 H   0  0  0  0  0  0  0  0  0  0  0  0
    0.3556   -0.3959   -0.6421 H   0  0  0  0  0  0  0  0  0  0  0  0
    5.3334    4.4103    0.1547 H   0  0  0  0  0  0  0  0  0  0  0  0
    4.0024    3.7130    1.1186 H   0  0  0  0  0  0  0  0  0  0  0  0
    3.8547    3.8302   -0.6598 H   0  0  0  0  0  0  0  0  0  0  0  0
    6.2340    0.0875   -0.1872 H   0  0  0  0  0  0  0  0  0  0  0  0
    5.0153   -2.0769   -0.2307 H   0  0  0  0  0  0  0  0  0  0  0  0
    2.4939    2.1543    0.2331 H   0  0  0  0  0  0  0  0  0  0  0  0
    2.9293   -3.1899   -0.3478 H   0  0  0  0  0  0  0  0  0  0  0  0
    1.4686   -2.4058   -0.4166 H   0  0  0  0  0  0  0  0  0  0  0  0
  1 11  1  0  0  0  0
  1 12  1  0  0  0  0
  2 15  1  0  0  0  0
  3  7  1  0  0  0  0
  4  3  2  0  0  0  0
  4  8  1  0  0  0  0
  5 19  1  0  0  0  0
  6  5  1  0  0  0  0
  6  1  1  0  0  0  0
  7 10  1  0  0  0  0
  7  5  2  0  0  0  0
  8  9  1  0  0  0  0
  8  6  2  0  0  0  0
 10  2  1  0  0  0  0
 13  1  1  0  0  0  0
 14  2  1  0  0  0  0
 16  2  1  0  0  0  0
 17  3  1  0  0  0  0
 18  4  1  0  0  0  0
 20  9  1  0  0  0  0
 21  9  1  0  0  0  0
M  END
>  <HBA>
2

>  <HBD>
1

>  <TPSA>
35.25

>  <cid>
7610

>  <dipole>
1.83

>  <excitation_energy_1>
4.329

>  <excitation_energy_2>
4.442

>  <excitation_energy_3>
4.817

>  <excitation_energy_4>
4.996

>  <homo_energy>
-4.89

>  <homo_lumo_gap>
5.189

>  <logP>
2.167

>  <lumo_energy>
0.299

>  <melting_point>
63.42

>  <molecular_refractivity>
42.3

>  <oscillator_strength_1>
0.0167

>  <oscillator_strength_2>
0.0566

>  <oscillator_strength_3>
0.0032

>  <oscillator_strength_4>
0.0018

>  <open_babel_can_smiles>
COc1ccc(c(c1)C)N

>  <mulliken_charges>
21
1   -0.549693
2   -0.208125
3   -0.182485
4   -0.173444
5   -0.272587
6   0.161093
7   0.378968
8   0.22952
9   -0.789759
10   -0.516719
11   0.15546
12   0.171074
13   0.146295
14   0.164102
15   0.146156
16   0.144948
17   0.1316
18   0.115176
19   0.119299
20   0.313386
21   0.315733

>  <lowdin_charges>
21
1   -0.444492
2   -0.278667
3   -0.175838
4   -0.187878
5   -0.215806
6   -0.027456
7   0.081274
8   0.030099
9   -0.499836
10   -0.208653
11   0.157487
12   0.162939
13   0.149409
14   0.160381
15   0.141264
16   0.141374
17   0.162371
18   0.152042
19   0.157509
20   0.271486
21   0.270991

$$$$

