PCCDB-ID:  70779
public computational chemistry database (PCCDB) project, http://pccdb.org

 26 26  0  0  0  0  0  0  0  0999 V2000
    0.9198    0.0775   -0.7095 C   0  0  0  0  0  0  0  0  0  0  0  0
    2.2489    0.0746    1.4568 C   0  0  0  0  0  0  0  0  0  0  0  0
    4.3271    0.0750   -2.8010 C   0  0  0  0  0  0  0  0  0  0  0  0
    5.6578    0.0722   -0.6406 C   0  0  0  0  0  0  0  0  0  0  0  0
    3.2915    1.1126   -0.6719 C   0  0  0  0  0  0  0  0  0  0  0  0
    3.2887   -0.9631   -0.6738 C   0  0  0  0  0  0  0  0  0  0  0  0
    2.3252    0.0755   -0.0808 C   0  0  0  0  0  0  0  0  0  0  0  0
    4.2534    0.0740   -1.2655 C   0  0  0  0  0  0  0  0  0  0  0  0
    3.3768    2.3777   -0.7187 N   0  0  0  0  0  0  0  0  0  0  0  0
    3.3689   -2.2283   -0.7256 N   0  0  0  0  0  0  0  0  0  0  0  0
    2.2859    2.9890   -0.0472 O   0  0  0  0  0  0  0  0  0  0  0  0
    2.2764   -2.8378   -0.0548 O   0  0  0  0  0  0  0  0  0  0  0  0
    0.3735    0.9708   -0.3918 H   0  0  0  0  0  0  0  0  0  0  0  0
    0.3709   -0.8142   -0.3920 H   0  0  0  0  0  0  0  0  0  0  0  0
    0.9675    0.0775   -1.8035 H   0  0  0  0  0  0  0  0  0  0  0  0
    1.7174    0.9668    1.8015 H   0  0  0  0  0  0  0  0  0  0  0  0
    3.2457    0.0748    1.9101 H   0  0  0  0  0  0  0  0  0  0  0  0
    1.7182   -0.8186    1.8003 H   0  0  0  0  0  0  0  0  0  0  0  0
    4.8627    0.9642   -3.1513 H   0  0  0  0  0  0  0  0  0  0  0  0
    3.3298    0.0782   -3.2527 H   0  0  0  0  0  0  0  0  0  0  0  0
    4.8576   -0.8167   -3.1525 H   0  0  0  0  0  0  0  0  0  0  0  0
    6.2095    0.9655   -0.9532 H   0  0  0  0  0  0  0  0  0  0  0  0
    6.2126   -0.8151   -0.9645 H   0  0  0  0  0  0  0  0  0  0  0  0
    5.6124    0.0651    0.4532 H   0  0  0  0  0  0  0  0  0  0  0  0
    2.4847    3.9316   -0.1595 H   0  0  0  0  0  0  0  0  0  0  0  0
    2.4670   -3.7807   -0.1779 H   0  0  0  0  0  0  0  0  0  0  0  0
  1 14  1  0  0  0  0
  1 13  1  0  0  0  0
  1  7  1  0  0  0  0
  2 18  1  0  0  0  0
  2 16  1  0  0  0  0
  2 17  1  0  0  0  0
  3  8  1  0  0  0  0
  4 24  1  0  0  0  0
  5  7  1  0  0  0  0
  6  7  1  0  0  0  0
  7  2  1  0  0  0  0
  8  6  1  0  0  0  0
  8  5  1  0  0  0  0
  8  4  1  0  0  0  0
  9  5  2  0  0  0  0
  9 11  1  0  0  0  0
 10  6  2  0  0  0  0
 10 12  1  0  0  0  0
 15  1  1  0  0  0  0
 19  3  1  0  0  0  0
 20  3  1  0  0  0  0
 21  3  1  0  0  0  0
 22  4  1  0  0  0  0
 23  4  1  0  0  0  0
 25 11  1  0  0  0  0
 26 12  1  0  0  0  0
M  END
>  <HBA>
4

>  <HBD>
2

>  <TPSA>
65.18

>  <cid>
70779

>  <dipole>
0.01

>  <excitation_energy_1>
5.291

>  <excitation_energy_2>
5.592

>  <excitation_energy_3>
5.674

>  <excitation_energy_4>
5.848

>  <homo_energy>
-6.618

>  <homo_lumo_gap>
6.185

>  <logP>
1.713

>  <lumo_energy>
-0.433

>  <melting_point>
175.6

>  <molecular_refractivity>
46.77

>  <oscillator_strength_1>
0.0

>  <oscillator_strength_2>
0.0037

>  <oscillator_strength_3>
0.0019

>  <oscillator_strength_4>
0.0969

>  <open_babel_can_smiles>
O/N=C/1\C(C)(C)/C(=N\O)/C1(C)C

>  <mulliken_charges>
26
1   -0.447791
2   -0.447578
3   -0.439696
4   -0.439903
5   0.343896
6   0.343795
7   0.002688
8   0.001343
9   -0.309358
10   -0.309284
11   -0.513624
12   -0.513642
13   0.167883
14   0.167881
15   0.146205
16   0.167817
17   0.14617
18   0.167882
19   0.158321
20   0.150907
21   0.158377
22   0.158507
23   0.158283
24   0.150904
25   0.415008
26   0.415008

>  <lowdin_charges>
26
1   -0.432978
2   -0.434544
3   -0.432269
4   -0.4307
5   0.010537
6   0.010526
7   -0.001663
8   0.01341
9   -0.06495
10   -0.064933
11   -0.386848
12   -0.38687
13   0.163272
14   0.163283
15   0.149987
16   0.163286
17   0.151516
18   0.163303
19   0.158857
20   0.153694
21   0.158866
22   0.158885
23   0.158829
24   0.152184
25   0.352663
26   0.352655

$$$$

