PCCDB-ID:  73509
public computational chemistry database (PCCDB) project, http://pccdb.org

 14 14  0  0  1  0  0  0  0  0999 V2000
   -0.5001   -1.1455    0.3980 C   0  0  0  0  0  0  0  0  0  0  0  0
    0.7186   -1.0458   -0.5241 C   0  0  0  0  0  0  0  0  0  0  0  0
   -1.0820    0.2798    0.2910 C   0  0  2  0  0  0  0  0  0  0  0  0
    0.1952    1.1161    0.1093 C   0  0  0  0  0  0  0  0  0  0  0  0
   -1.9258    0.8158    1.3400 N   0  0  0  0  0  0  0  0  0  0  0  0
    0.3702    2.2770    0.3619 O   0  0  0  0  0  0  0  0  0  0  0  0
    1.1831    0.3160   -0.3896 O   0  0  0  0  0  0  0  0  0  0  0  0
   -0.1859   -1.3384    1.4316 H   0  0  0  0  0  0  0  0  0  0  0  0
   -1.1976   -1.9325    0.0959 H   0  0  0  0  0  0  0  0  0  0  0  0
    0.4556   -1.2234   -1.5742 H   0  0  0  0  0  0  0  0  0  0  0  0
    1.5476   -1.7031   -0.2528 H   0  0  0  0  0  0  0  0  0  0  0  0
   -1.6366    0.3584   -0.6573 H   0  0  0  0  0  0  0  0  0  0  0  0
   -1.4098    0.8995    2.2133 H   0  0  0  0  0  0  0  0  0  0  0  0
   -2.7202    0.2028    1.5068 H   0  0  0  0  0  0  0  0  0  0  0  0
  1  8  1  0  0  0  0
  2  7  1  0  0  0  0
  2 11  1  0  0  0  0
  2  1  1  0  0  0  0
  3 12  1  6  0  0  0
  3  1  1  0  0  0  0
  3  5  1  0  0  0  0
  4  3  1  0  0  0  0
  4  6  2  0  0  0  0
  5 14  1  0  0  0  0
  5 13  1  0  0  0  0
  7  4  1  0  0  0  0
  9  1  1  0  0  0  0
 10  2  1  0  0  0  0
M  END
>  <HBA>
3

>  <HBD>
1

>  <TPSA>
52.32

>  <cid>
73509

>  <dipole>
5.31

>  <excitation_energy_1>
5.448

>  <excitation_energy_2>
5.652

>  <excitation_energy_3>
6.18

>  <excitation_energy_4>
6.41

>  <homo_energy>
-6.694

>  <homo_lumo_gap>
6.917

>  <logP>
-0.039

>  <lumo_energy>
0.223

>  <melting_point>
64.03

>  <molecular_refractivity>
23.22

>  <oscillator_strength_1>
0.009

>  <oscillator_strength_2>
0.0095

>  <oscillator_strength_3>
0.0102

>  <oscillator_strength_4>
0.0055

>  <open_babel_can_smiles>
O=C1OCC[C@H]1N

>  <mulliken_charges>
14
1   -0.319466
2   -0.040562
3   -0.076315
4   0.616995
5   -0.698388
6   -0.442771
7   -0.450864
8   0.15249
9   0.152856
10   0.155958
11   0.166743
12   0.173196
13   0.306438
14   0.30369

>  <lowdin_charges>
14
1   -0.312273
2   -0.126153
3   -0.105239
4   0.178269
5   -0.527099
6   -0.218752
7   -0.192164
8   0.150496
9   0.157568
10   0.14587
11   0.160326
12   0.164195
13   0.262843
14   0.262113

$$$$

