PCCDB-ID:  18209
public computational chemistry database (PCCDB) project, http://pccdb.org

 14 14  0  0  0  0  0  0  0  0999 V2000
    1.0843   -0.0682    0.0820 C   0  0  0  0  0  0  0  0  0  0  0  0
    3.3634   -1.1556    0.1237 C   0  0  0  0  0  0  0  0  0  0  0  0
    3.3522    1.0239   -0.1914 C   0  0  0  0  0  0  0  0  0  0  0  0
    4.6324   -0.6398   -0.0164 C   0  0  0  0  0  0  0  0  0  0  0  0
    4.6256    0.7080   -0.2113 N   0  0  0  0  0  0  0  0  0  0  0  0
    2.5394   -0.0684    0.0084 N   0  0  0  0  0  0  0  0  0  0  0  0
    5.8473   -1.4173    0.0334 N   0  0  0  0  0  0  0  0  0  0  0  0
    5.7056   -2.6330    0.2167 O   0  0  0  0  0  0  0  0  0  0  0  0
    6.9184   -0.8381   -0.1058 O   0  0  0  0  0  0  0  0  0  0  0  0
    0.6602   -0.6875   -0.7136 H   0  0  0  0  0  0  0  0  0  0  0  0
    0.7285    0.9567   -0.0395 H   0  0  0  0  0  0  0  0  0  0  0  0
    0.7500   -0.4465    1.0523 H   0  0  0  0  0  0  0  0  0  0  0  0
    3.0076   -2.1606    0.2828 H   0  0  0  0  0  0  0  0  0  0  0  0
    2.9459    2.0191   -0.3152 H   0  0  0  0  0  0  0  0  0  0  0  0
  1 12  1  0  0  0  0
  2 13  1  0  0  0  0
  3  6  1  0  0  0  0
  4  7  1  0  0  0  0
  4  2  2  0  0  0  0
  5  3  2  0  0  0  0
  5  4  1  0  0  0  0
  6  1  1  0  0  0  0
  6  2  1  0  0  0  0
  7  8  2  0  0  0  0
  9  7  2  0  0  0  0
 10  1  1  0  0  0  0
 11  1  1  0  0  0  0
 14  3  1  0  0  0  0
M  END
>  <HBA>
2

>  <HBD>
0

>  <TPSA>
63.64

>  <cid>
18209

>  <dipole>
8.05

>  <excitation_energy_1>
3.815

>  <excitation_energy_2>
4.335

>  <excitation_energy_3>
4.507

>  <excitation_energy_4>
5.099

>  <homo_energy>
-7.143

>  <homo_lumo_gap>
5.211

>  <logP>
0.852

>  <lumo_energy>
-1.932

>  <melting_point>
60.78

>  <molecular_refractivity>
32.31

>  <oscillator_strength_1>
0.0

>  <oscillator_strength_2>
0.0003

>  <oscillator_strength_3>
0.1469

>  <oscillator_strength_4>
0.0008

>  <open_babel_can_smiles>
O=N(=O)c1ncn(c1)C

>  <mulliken_charges>
14
1   -0.329401
2   0.047595
3   0.215202
4   0.383722
5   -0.433691
6   -0.379177
7   0.356167
8   -0.417543
9   -0.380569
10   0.192661
11   0.185904
12   0.192645
13   0.194464
14   0.172023

>  <lowdin_charges>
14
1   -0.344346
2   -0.133486
3   -0.083991
4   -0.002178
5   -0.14515
6   0.007869
7   0.305902
8   -0.269432
9   -0.22439
10   0.17365
11   0.174425
12   0.172546
13   0.193546
14   0.175034

$$$$

