PCCDB-ID:  33650
public computational chemistry database (PCCDB) project, http://pccdb.org

 42 41  0  0  0  0  0  0  0  0999 V2000
    0.6527    3.9661    3.7350 C   0  0  0  0  0  0  0  0  0  0  0  0
   12.6506   -0.5157    0.2872 C   0  0  0  0  0  0  0  0  0  0  0  0
    1.8927    3.5517    4.4750 C   0  0  0  0  0  0  0  0  0  0  0  0
   12.3468    0.0575    1.6767 C   0  0  0  0  0  0  0  0  0  0  0  0
    2.9024    2.8459    3.9577 C   0  0  0  0  0  0  0  0  0  0  0  0
   11.9043    1.5303    1.6765 C   0  0  0  0  0  0  0  0  0  0  0  0
    4.1440    2.4397    4.7071 C   0  0  0  0  0  0  0  0  0  0  0  0
   10.5549    1.7968    0.9940 C   0  0  0  0  0  0  0  0  0  0  0  0
    5.4453    3.0907    4.1874 C   0  0  0  0  0  0  0  0  0  0  0  0
   10.1256    3.2689    1.0751 C   0  0  0  0  0  0  0  0  0  0  0  0
    5.8303    2.6967    2.7552 C   0  0  0  0  0  0  0  0  0  0  0  0
    8.8194    3.5996    0.3312 C   0  0  0  0  0  0  0  0  0  0  0  0
    7.1597    3.3113    2.2957 C   0  0  0  0  0  0  0  0  0  0  0  0
    7.5456    2.9181    0.8629 C   0  0  0  0  0  0  0  0  0  0  0  0
   -0.2509    3.5604    4.2105 H   0  0  0  0  0  0  0  0  0  0  0  0
    0.6708    3.6216    2.6952 H   0  0  0  0  0  0  0  0  0  0  0  0
    0.5377    5.0587    3.7276 H   0  0  0  0  0  0  0  0  0  0  0  0
   13.0164   -1.5466    0.3580 H   0  0  0  0  0  0  0  0  0  0  0  0
   13.4216    0.0756   -0.2229 H   0  0  0  0  0  0  0  0  0  0  0  0
   11.7630   -0.5269   -0.3554 H   0  0  0  0  0  0  0  0  0  0  0  0
    1.9494    3.8558    5.5226 H   0  0  0  0  0  0  0  0  0  0  0  0
   13.2436   -0.0385    2.3037 H   0  0  0  0  0  0  0  0  0  0  0  0
   11.5711   -0.5524    2.1620 H   0  0  0  0  0  0  0  0  0  0  0  0
    2.8392    2.5367    2.9126 H   0  0  0  0  0  0  0  0  0  0  0  0
   12.6820    2.1407    1.1930 H   0  0  0  0  0  0  0  0  0  0  0  0
   11.8474    1.8816    2.7168 H   0  0  0  0  0  0  0  0  0  0  0  0
    4.2607    1.3456    4.6583 H   0  0  0  0  0  0  0  0  0  0  0  0
    4.0219    2.6914    5.7686 H   0  0  0  0  0  0  0  0  0  0  0  0
    9.7905    1.1559    1.4563 H   0  0  0  0  0  0  0  0  0  0  0  0
   10.6040    1.4994   -0.0629 H   0  0  0  0  0  0  0  0  0  0  0  0
    6.2652    2.8126    4.8650 H   0  0  0  0  0  0  0  0  0  0  0  0
    5.3470    4.1833    4.2514 H   0  0  0  0  0  0  0  0  0  0  0  0
   10.9279    3.8916    0.6539 H   0  0  0  0  0  0  0  0  0  0  0  0
   10.0424    3.5656    2.1301 H   0  0  0  0  0  0  0  0  0  0  0  0
    5.0364    3.0012    2.0593 H   0  0  0  0  0  0  0  0  0  0  0  0
    5.8935    1.6000    2.6856 H   0  0  0  0  0  0  0  0  0  0  0  0
    8.9428    3.3336   -0.7285 H   0  0  0  0  0  0  0  0  0  0  0  0
    8.6691    4.6886    0.3540 H   0  0  0  0  0  0  0  0  0  0  0  0
    7.9526    3.0098    2.9943 H   0  0  0  0  0  0  0  0  0  0  0  0
    7.0948    4.4077    2.3640 H   0  0  0  0  0  0  0  0  0  0  0  0
    7.6505    1.8257    0.8021 H   0  0  0  0  0  0  0  0  0  0  0  0
    6.7137    3.1745    0.1914 H   0  0  0  0  0  0  0  0  0  0  0  0
  1 15  1  0  0  0  0
  1  3  1  0  0  0  0
  2 18  1  0  0  0  0
  2  4  1  0  0  0  0
  3 21  1  0  0  0  0
  4 23  1  0  0  0  0
  4 22  1  0  0  0  0
  5  3  2  0  0  0  0
  5  7  1  0  0  0  0
  6  4  1  0  0  0  0
  6 26  1  0  0  0  0
  7 28  1  0  0  0  0
  8 10  1  0  0  0  0
  8 29  1  0  0  0  0
  8  6  1  0  0  0  0
  9 32  1  0  0  0  0
  9  7  1  0  0  0  0
  9 31  1  0  0  0  0
 10 34  1  0  0  0  0
 11  9  1  0  0  0  0
 12 38  1  0  0  0  0
 12 14  1  0  0  0  0
 12 10  1  0  0  0  0
 13 40  1  0  0  0  0
 13 11  1  0  0  0  0
 13 39  1  0  0  0  0
 14 13  1  0  0  0  0
 16  1  1  0  0  0  0
 17  1  1  0  0  0  0
 19  2  1  0  0  0  0
 20  2  1  0  0  0  0
 24  5  1  0  0  0  0
 25  6  1  0  0  0  0
 27  7  1  0  0  0  0
 30  8  1  0  0  0  0
 33 10  1  0  0  0  0
 35 11  1  0  0  0  0
 36 11  1  0  0  0  0
 37 12  1  0  0  0  0
 41 14  1  0  0  0  0
 42 14  1  0  0  0  0
M  END
>  <HBA>
0

>  <HBD>
0

>  <TPSA>
0.0

>  <cid>
33650

>  <dipole>
0.07

>  <excitation_energy_1>
6.057

>  <excitation_energy_2>
6.26

>  <excitation_energy_3>
6.363

>  <excitation_energy_4>
6.504

>  <homo_energy>
-6.384

>  <homo_lumo_gap>
7.244

>  <logP>
5.483

>  <lumo_energy>
0.86

>  <melting_point>
-22.09

>  <molecular_refractivity>
68.94

>  <oscillator_strength_1>
0.038

>  <oscillator_strength_2>
0.0136

>  <oscillator_strength_3>
0.0355

>  <oscillator_strength_4>
0.0021

>  <open_babel_can_smiles>
CCCCCCCCCCC/C=C/C

>  <mulliken_charges>
42
1   -0.485705
2   -0.442753
3   -0.093075
4   -0.24864
5   -0.085138
6   -0.248827
7   -0.307226
8   -0.254102
9   -0.249282
10   -0.256291
11   -0.255341
12   -0.258328
13   -0.253513
14   -0.256266
15   0.152865
16   0.150191
17   0.152589
18   0.14111
19   0.140073
20   0.145895
21   0.115691
22   0.129703
23   0.128478
24   0.116227
25   0.125253
26   0.12606
27   0.135106
28   0.133586
29   0.12981
30   0.130389
31   0.126456
32   0.133299
33   0.126656
34   0.131233
35   0.132517
36   0.12476
37   0.125411
38   0.125817
39   0.131138
40   0.12696
41   0.130821
42   0.126393

>  <lowdin_charges>
42
1   -0.436629
2   -0.447869
3   -0.165453
4   -0.274567
5   -0.170842
6   -0.275244
7   -0.268044
8   -0.278861
9   -0.271828
10   -0.277372
11   -0.275605
12   -0.272547
13   -0.274908
14   -0.276675
15   0.155568
16   0.152172
17   0.153164
18   0.148168
19   0.146714
20   0.147388
21   0.142906
22   0.141457
23   0.139184
24   0.14326
25   0.137688
26   0.138167
27   0.142275
28   0.144461
29   0.138893
30   0.137115
31   0.139976
32   0.138866
33   0.141366
34   0.136766
35   0.140207
36   0.134069
37   0.137741
38   0.137484
39   0.139091
40   0.135427
41   0.13606
42   0.140812

$$$$

