PCCDB-ID:  14349
public computational chemistry database (PCCDB) project, http://pccdb.org

 26 26  0  0  0  0  0  0  0  0999 V2000
   -1.7603    0.7194    0.2032 C   0  0  0  0  0  0  0  0  0  0  0  0
   -0.9619    1.2674   -0.8029 C   0  0  0  0  0  0  0  0  0  0  0  0
   -1.1684    0.0389    1.2691 C   0  0  0  0  0  0  0  0  0  0  0  0
    0.4250    1.1342   -0.7418 C   0  0  0  0  0  0  0  0  0  0  0  0
    0.2189   -0.0929    1.3270 C   0  0  0  0  0  0  0  0  0  0  0  0
    3.5476   -3.2272   -1.6811 C   0  0  0  0  0  0  0  0  0  0  0  0
    2.5200    0.2903    0.3748 C   0  0  0  0  0  0  0  0  0  0  0  0
    1.0272    0.4538    0.3234 C   0  0  0  0  0  0  0  0  0  0  0  0
    4.2456   -4.4191   -2.3486 C   0  0  0  0  0  0  0  0  0  0  0  0
    4.1377   -1.2944   -0.4686 C   0  0  0  0  0  0  0  0  0  0  0  0
    4.5308   -2.3436   -1.0712 N   0  0  0  0  0  0  0  0  0  0  0  0
    3.6364   -5.2916   -2.9195 O   0  0  0  0  0  0  0  0  0  0  0  0
    5.5864   -4.4090   -2.2441 O   0  0  0  0  0  0  0  0  0  0  0  0
    5.0097   -0.4424    0.1125 O   0  0  0  0  0  0  0  0  0  0  0  0
    2.8573   -0.9341   -0.3492 O   0  0  0  0  0  0  0  0  0  0  0  0
   -2.8408    0.8246    0.1579 H   0  0  0  0  0  0  0  0  0  0  0  0
   -1.4185    1.7996   -1.6327 H   0  0  0  0  0  0  0  0  0  0  0  0
   -1.7859   -0.3869    2.0550 H   0  0  0  0  0  0  0  0  0  0  0  0
    1.0461    1.5620   -1.5253 H   0  0  0  0  0  0  0  0  0  0  0  0
    0.6793   -0.6231    2.1575 H   0  0  0  0  0  0  0  0  0  0  0  0
    2.8339   -3.6277   -0.9492 H   0  0  0  0  0  0  0  0  0  0  0  0
    2.9484   -2.7205   -2.4491 H   0  0  0  0  0  0  0  0  0  0  0  0
    2.8818    0.1949    1.4022 H   0  0  0  0  0  0  0  0  0  0  0  0
    3.0369    1.1277   -0.1009 H   0  0  0  0  0  0  0  0  0  0  0  0
    5.8048   -3.5950   -1.7349 H   0  0  0  0  0  0  0  0  0  0  0  0
    5.8950   -0.8151   -0.0432 H   0  0  0  0  0  0  0  0  0  0  0  0
  1  3  2  0  0  0  0
  2  4  2  0  0  0  0
  2  1  1  0  0  0  0
  3  5  1  0  0  0  0
  3 18  1  0  0  0  0
  4  8  1  0  0  0  0
  5 20  1  0  0  0  0
  6 11  1  0  0  0  0
  6 21  1  0  0  0  0
  7 23  1  0  0  0  0
  8  7  1  0  0  0  0
  8  5  2  0  0  0  0
  9 13  1  0  0  0  0
  9  6  1  0  0  0  0
 10 15  1  0  0  0  0
 10 14  1  0  0  0  0
 11 10  2  0  0  0  0
 12  9  2  0  0  0  0
 13 25  1  0  0  0  0
 15  7  1  0  0  0  0
 16  1  1  0  0  0  0
 17  2  1  0  0  0  0
 19  4  1  0  0  0  0
 22  6  1  0  0  0  0
 24  7  1  0  0  0  0
 26 14  1  0  0  0  0
M  END
>  <HBA>
5

>  <HBD>
2

>  <TPSA>
75.63

>  <cid>
14349

>  <dipole>
7.51

>  <excitation_energy_1>
5.291

>  <excitation_energy_2>
5.695

>  <excitation_energy_3>
5.736

>  <excitation_energy_4>
5.743

>  <homo_energy>
-6.754

>  <homo_lumo_gap>
6.022

>  <logP>
1.388

>  <lumo_energy>
-0.732

>  <melting_point>
132.27

>  <molecular_refractivity>
52.08

>  <oscillator_strength_1>
0.0026

>  <oscillator_strength_2>
0.009

>  <oscillator_strength_3>
0.0

>  <oscillator_strength_4>
0.0005

>  <open_babel_can_smiles>
O/C(=N/CC(=O)O)/OCc1ccccc1

>  <mulliken_charges>
26
1   -0.12326
2   -0.129193
3   -0.128937
4   -0.163404
5   -0.164484
6   -0.224499
7   -0.128501
8   0.143695
9   0.582997
10   0.761166
11   -0.567449
12   -0.465477
13   -0.576084
14   -0.598707
15   -0.468244
16   0.139282
17   0.139404
18   0.139325
19   0.135083
20   0.135013
21   0.186692
22   0.186768
23   0.169351
24   0.170717
25   0.420843
26   0.427904

>  <lowdin_charges>
26
1   -0.14359
2   -0.152189
3   -0.152948
4   -0.152473
5   -0.152197
6   -0.237432
7   -0.11623
8   -0.020978
9   0.183342
10   0.201385
11   -0.299568
12   -0.261038
13   -0.360074
14   -0.354327
15   -0.185069
16   0.160542
17   0.163397
18   0.163691
19   0.161293
20   0.160896
21   0.172967
22   0.172988
23   0.158018
24   0.16086
25   0.353358
26   0.375375

$$$$

