PCCDB-ID:  4091
public computational chemistry database (PCCDB) project, http://pccdb.org

 20 19  0  0  0  0  0  0  0  0999 V2000
    2.2084   -1.3961   -1.1408 C   0  0  0  0  0  0  0  0  0  0  0  0
    4.5520   -1.5653   -0.4700 C   0  0  0  0  0  0  0  0  0  0  0  0
    5.0110    2.3945    0.2929 C   0  0  0  0  0  0  0  0  0  0  0  0
    3.3670    0.6146   -0.4463 C   0  0  0  0  0  0  0  0  0  0  0  0
    6.1215    2.9408   -0.0462 N   0  0  0  0  0  0  0  0  0  0  0  0
    4.1414    2.7952    1.3038 N   0  0  0  0  0  0  0  0  0  0  0  0
    2.2248    1.1128   -0.1215 N   0  0  0  0  0  0  0  0  0  0  0  0
    4.6056    1.2802   -0.4450 N   0  0  0  0  0  0  0  0  0  0  0  0
    3.4628   -0.6944   -0.9016 N   0  0  0  0  0  0  0  0  0  0  0  0
    2.4045   -2.2435   -1.8069 H   0  0  0  0  0  0  0  0  0  0  0  0
    1.4946   -0.7167   -1.6060 H   0  0  0  0  0  0  0  0  0  0  0  0
    1.7595   -1.7741   -0.2100 H   0  0  0  0  0  0  0  0  0  0  0  0
    4.7845   -2.2858   -1.2623 H   0  0  0  0  0  0  0  0  0  0  0  0
    4.2801   -2.1313    0.4360 H   0  0  0  0  0  0  0  0  0  0  0  0
    5.4494   -0.9868   -0.2504 H   0  0  0  0  0  0  0  0  0  0  0  0
    6.3476    3.7261    0.5655 H   0  0  0  0  0  0  0  0  0  0  0  0
    4.5739    3.3719    2.0135 H   0  0  0  0  0  0  0  0  0  0  0  0
    3.5265    2.0829    1.6814 H   0  0  0  0  0  0  0  0  0  0  0  0
    2.2897    2.1272   -0.0359 H   0  0  0  0  0  0  0  0  0  0  0  0
    5.2747    1.0403   -1.1652 H   0  0  0  0  0  0  0  0  0  0  0  0
  1  9  1  0  0  0  0
  1 12  1  0  0  0  0
  2 15  1  0  0  0  0
  2 14  1  0  0  0  0
  3  6  2  0  0  0  0
  4  8  1  0  0  0  0
  4  7  2  0  0  0  0
  5  3  1  0  0  0  0
  5 16  1  0  0  0  0
  6 18  1  0  0  0  0
  6 17  1  0  0  0  0
  7 19  1  0  0  0  0
  8  3  1  0  0  0  0
  9  2  1  0  0  0  0
  9  4  1  0  0  0  0
 10  1  1  0  0  0  0
 11  1  1  0  0  0  0
 13  2  1  0  0  0  0
 20  8  1  0  0  0  0
M  RAD  1   5   2
M  END
>  <HBA>
5

>  <HBD>
3

>  <TPSA>
91.49

>  <cid>
4091

>  <dipole>
2.34

>  <excitation_energy_1>
5.284

>  <excitation_energy_2>
5.429

>  <excitation_energy_3>
5.775

>  <excitation_energy_4>
5.838

>  <homo_energy>
-6.046

>  <homo_lumo_gap>
6.656

>  <logP>
0.257

>  <lumo_energy>
0.61

>  <melting_point>
135.06

>  <molecular_refractivity>
36.93

>  <oscillator_strength_1>
0.0127

>  <oscillator_strength_2>
0.0254

>  <oscillator_strength_3>
0.0708

>  <oscillator_strength_4>
0.0607

>  <open_babel_can_smiles>
CN(C(=N)NC(=[NH2])[NH])C

>  <mulliken_charges>
20
1   -0.288715
2   -0.318804
3   0.599728
4   0.615078
5   -0.650384
6   -0.759243
7   -0.663551
8   -0.655117
9   -0.418887
10   0.141535
11   0.188361
12   0.148503
13   0.159661
14   0.149235
15   0.169916
16   0.270691
17   0.3278
18   0.339902
19   0.297032
20   0.347259

>  <lowdin_charges>
20
1   -0.350312
2   -0.356257
3   0.136315
4   0.122087
5   -0.480767
6   -0.504163
7   -0.470459
8   -0.275139
9   -0.129376
10   0.147548
11   0.177178
12   0.143989
13   0.153917
14   0.14173
15   0.163448
16   0.250445
17   0.283323
18   0.2887
19   0.256464
20   0.301326

$$$$

