PCCDB-ID:  50599
public computational chemistry database (PCCDB) project, http://pccdb.org

 29 31  0  0  1  0  0  0  0  0999 V2000
   -0.8061   -0.9048   -0.4140 C   0  0  0  0  0  0  0  0  0  0  0  0
    0.5328   -1.1587    0.2963 C   0  0  0  0  0  0  0  0  0  0  0  0
   -2.0543    0.3201    1.4567 C   0  0  0  0  0  0  0  0  0  0  0  0
    0.6271    1.2116    4.7547 C   0  0  0  0  0  0  0  0  0  0  0  0
    3.3829    0.4238    1.4755 C   0  0  0  0  0  0  0  0  0  0  0  0
   -1.2245    0.4535    0.1693 C   0  0  1  0  0  0  0  0  0  0  0  0
    1.1130    0.2638    0.3808 C   0  0  2  0  0  0  0  0  0  0  0  0
    2.9335    0.8306    3.4980 C   0  0  0  0  0  0  0  0  0  0  0  0
    1.6919    0.7711    2.8483 C   0  0  0  0  0  0  0  0  0  0  0  0
    2.9070    1.1047    4.8740 C   0  0  0  0  0  0  0  0  0  0  0  0
    0.5058    0.9636    3.4449 N   0  0  0  0  0  0  0  0  0  0  0  0
    1.7461    1.2877    5.4931 N   0  0  0  0  0  0  0  0  0  0  0  0
    3.9813    0.6107    2.6258 N   0  0  0  0  0  0  0  0  0  0  0  0
    2.0025    0.4976    1.5267 N   0  0  0  0  0  0  0  0  0  0  0  0
   -2.1076    1.5159    2.1901 O   0  0  0  0  0  0  0  0  0  0  0  0
    4.0272    1.1909    5.6073 O   0  0  0  0  0  0  0  0  0  0  0  0
    0.0228    1.1476    0.4392 O   0  0  0  0  0  0  0  0  0  0  0  0
   -1.5437   -1.6899   -0.2184 H   0  0  0  0  0  0  0  0  0  0  0  0
   -0.6640   -0.8391   -1.4984 H   0  0  0  0  0  0  0  0  0  0  0  0
    1.1966   -1.8445   -0.2378 H   0  0  0  0  0  0  0  0  0  0  0  0
    0.3758   -1.5517    1.3058 H   0  0  0  0  0  0  0  0  0  0  0  0
   -1.6550   -0.5065    2.0679 H   0  0  0  0  0  0  0  0  0  0  0  0
   -3.0809    0.0522    1.1752 H   0  0  0  0  0  0  0  0  0  0  0  0
   -0.3040    1.3775    5.2907 H   0  0  0  0  0  0  0  0  0  0  0  0
    3.8897    0.2290    0.5385 H   0  0  0  0  0  0  0  0  0  0  0  0
   -1.7628    1.0829   -0.5462 H   0  0  0  0  0  0  0  0  0  0  0  0
    1.7294    0.4862   -0.5030 H   0  0  0  0  0  0  0  0  0  0  0  0
   -1.2135    1.6039    2.5797 H   0  0  0  0  0  0  0  0  0  0  0  0
    4.7826    1.0416    5.0097 H   0  0  0  0  0  0  0  0  0  0  0  0
  1 18  1  0  0  0  0
  1  6  1  0  0  0  0
  1  2  1  0  0  0  0
  2  7  1  0  0  0  0
  2 21  1  0  0  0  0
  3 22  1  0  0  0  0
  3 15  1  0  0  0  0
  4 24  1  0  0  0  0
  4 12  1  0  0  0  0
  5 14  1  0  0  0  0
  5 13  2  0  0  0  0
  6 26  1  6  0  0  0
  6 17  1  0  0  0  0
  6  3  1  0  0  0  0
  7 27  1  6  0  0  0
  7 17  1  0  0  0  0
  7 14  1  0  0  0  0
  8 10  1  0  0  0  0
  9 11  1  0  0  0  0
  9  8  2  0  0  0  0
 10 12  2  0  0  0  0
 10 16  1  0  0  0  0
 11  4  2  0  0  0  0
 13  8  1  0  0  0  0
 14  9  1  0  0  0  0
 15 28  1  0  0  0  0
 19  1  1  0  0  0  0
 20  2  1  0  0  0  0
 23  3  1  0  0  0  0
 25  5  1  0  0  0  0
 29 16  1  0  0  0  0
M  END
>  <HBA>
6

>  <HBD>
2

>  <TPSA>
93.03

>  <cid>
50599

>  <dipole>
6.14

>  <excitation_energy_1>
4.828

>  <excitation_energy_2>
5.001

>  <excitation_energy_3>
5.236

>  <excitation_energy_4>
5.35

>  <homo_energy>
-6.621

>  <homo_lumo_gap>
5.535

>  <logP>
-0.21

>  <lumo_energy>
-1.086

>  <melting_point>
194.14

>  <molecular_refractivity>
58.77

>  <oscillator_strength_1>
0.0013

>  <oscillator_strength_2>
0.0061

>  <oscillator_strength_3>
0.1645

>  <oscillator_strength_4>
0.0106

>  <open_babel_can_smiles>
OC[C@@H]1CC[C@@H](O1)n1cnc2c1ncnc2O

>  <mulliken_charges>
29
1   -0.316769
2   -0.31902
3   -0.038744
4   0.172323
5   0.228586
6   0.133993
7   0.298518
8   0.153033
9   0.568341
10   0.50623
11   -0.534608
12   -0.461378
13   -0.533587
14   -0.514793
15   -0.64345
16   -0.588988
17   -0.501874
18   0.160515
19   0.153838
20   0.156143
21   0.173285
22   0.115114
23   0.134902
24   0.166797
25   0.172825
26   0.147976
27   0.141454
28   0.434765
29   0.434574

>  <lowdin_charges>
29
1   -0.290604
2   -0.300694
3   -0.151751
4   -0.025853
5   -0.053984
6   -0.012894
7   0.066639
8   -0.067885
9   0.072429
10   0.151377
11   -0.191468
12   -0.179441
13   -0.192913
14   -0.029408
15   -0.471639
16   -0.323605
17   -0.259157
18   0.162164
19   0.151801
20   0.161036
21   0.161744
22   0.125232
23   0.143771
24   0.168545
25   0.174737
26   0.152041
27   0.143436
28   0.340676
29   0.375666

$$$$

