PCCDB-ID:  16448
public computational chemistry database (PCCDB) project, http://pccdb.org

 29 30  0  0  0  0  0  0  0  0999 V2000
    3.2082    0.8390   -2.5457 C   0  0  0  0  0  0  0  0  0  0  0  0
   -3.7059    3.9204   -2.7342 C   0  0  0  0  0  0  0  0  0  0  0  0
   -3.3441    2.8606   -1.9004 C   0  0  0  0  0  0  0  0  0  0  0  0
   -2.7821    4.9338   -2.9956 C   0  0  0  0  0  0  0  0  0  0  0  0
    2.1224    4.8914    0.0500 C   0  0  0  0  0  0  0  0  0  0  0  0
   -2.0712    2.8152   -1.3334 C   0  0  0  0  0  0  0  0  0  0  0  0
   -1.5089    4.8867   -2.4295 C   0  0  0  0  0  0  0  0  0  0  0  0
    0.8536    4.9518   -0.5274 C   0  0  0  0  0  0  0  0  0  0  0  0
    2.7890    3.6763    0.1825 C   0  0  0  0  0  0  0  0  0  0  0  0
    0.9111    2.5614   -0.8575 C   0  0  0  0  0  0  0  0  0  0  0  0
    3.2504    0.5492   -1.0608 C   0  0  0  0  0  0  0  0  0  0  0  0
   -1.1299    3.8271   -1.5877 C   0  0  0  0  0  0  0  0  0  0  0  0
    0.2275    3.7811   -0.9838 C   0  0  0  0  0  0  0  0  0  0  0  0
    2.1919    2.4953   -0.2885 C   0  0  0  0  0  0  0  0  0  0  0  0
    2.8520    1.2717   -0.0982 N   0  0  0  0  0  0  0  0  0  0  0  0
    3.8202   -0.6443   -0.7246 O   0  0  0  0  0  0  0  0  0  0  0  0
    2.5894    0.0984   -3.0674 H   0  0  0  0  0  0  0  0  0  0  0  0
    4.2205    0.7837   -2.9666 H   0  0  0  0  0  0  0  0  0  0  0  0
    2.8003    1.8307   -2.7438 H   0  0  0  0  0  0  0  0  0  0  0  0
   -4.6986    3.9566   -3.1750 H   0  0  0  0  0  0  0  0  0  0  0  0
   -4.0584    2.0711   -1.6815 H   0  0  0  0  0  0  0  0  0  0  0  0
   -3.0497    5.7603   -3.6489 H   0  0  0  0  0  0  0  0  0  0  0  0
    2.5910    5.8021    0.4145 H   0  0  0  0  0  0  0  0  0  0  0  0
   -1.8100    2.0010   -0.6632 H   0  0  0  0  0  0  0  0  0  0  0  0
   -0.7891    5.6675   -2.6590 H   0  0  0  0  0  0  0  0  0  0  0  0
    0.3306    5.9014   -0.5893 H   0  0  0  0  0  0  0  0  0  0  0  0
    3.7699    3.6212    0.6446 H   0  0  0  0  0  0  0  0  0  0  0  0
    0.4471    1.6443   -1.2093 H   0  0  0  0  0  0  0  0  0  0  0  0
    4.1164   -1.0942   -1.5306 H   0  0  0  0  0  0  0  0  0  0  0  0
  1 11  1  0  0  0  0
  2  3  1  0  0  0  0
  3 21  1  0  0  0  0
  3  6  2  0  0  0  0
  4  2  2  0  0  0  0
  4  7  1  0  0  0  0
  5  9  1  0  0  0  0
  5 23  1  0  0  0  0
  6 24  1  0  0  0  0
  7 12  2  0  0  0  0
  8  5  2  0  0  0  0
  9 27  1  0  0  0  0
 10 14  1  0  0  0  0
 11 16  1  0  0  0  0
 11 15  2  0  0  0  0
 12  6  1  0  0  0  0
 12 13  1  0  0  0  0
 13 10  2  0  0  0  0
 13  8  1  0  0  0  0
 14 15  1  0  0  0  0
 14  9  2  0  0  0  0
 17  1  1  0  0  0  0
 18  1  1  0  0  0  0
 19  1  1  0  0  0  0
 20  2  1  0  0  0  0
 22  4  1  0  0  0  0
 25  7  1  0  0  0  0
 26  8  1  0  0  0  0
 28 10  1  0  0  0  0
 29 16  1  0  0  0  0
M  END
>  <HBA>
2

>  <HBD>
1

>  <TPSA>
29.1

>  <cid>
16448

>  <dipole>
3.76

>  <excitation_energy_1>
4.4

>  <excitation_energy_2>
4.756

>  <excitation_energy_3>
4.871

>  <excitation_energy_4>
4.924

>  <homo_energy>
-5.704

>  <homo_lumo_gap>
5.061

>  <logP>
3.385

>  <lumo_energy>
-0.642

>  <melting_point>
96.87

>  <molecular_refractivity>
66.19

>  <oscillator_strength_1>
0.0752

>  <oscillator_strength_2>
0.0607

>  <oscillator_strength_3>
0.018

>  <oscillator_strength_4>
0.4071

>  <open_babel_can_smiles>
C/C(=N\c1cccc(c1)c1ccccc1)/O

>  <mulliken_charges>
29
1   -0.555038
2   -0.127218
3   -0.134711
4   -0.134181
5   -0.141396
6   -0.17413
7   -0.174232
8   -0.178899
9   -0.150421
10   -0.212009
11   0.482296
12   0.084993
13   0.086999
14   0.237634
15   -0.464357
16   -0.569581
17   0.177141
18   0.170979
19   0.200342
20   0.128192
21   0.129551
22   0.128888
23   0.129128
24   0.135928
25   0.130892
26   0.128099
27   0.132058
28   0.124797
29   0.408258

>  <lowdin_charges>
29
1   -0.483534
2   -0.158381
3   -0.156384
4   -0.155793
5   -0.150671
6   -0.162348
7   -0.163672
8   -0.179373
9   -0.174622
10   -0.195283
11   0.148443
12   -0.000406
13   0.002509
14   0.049062
15   -0.17021
16   -0.361363
17   0.172096
18   0.167318
19   0.18481
20   0.156571
21   0.158443
22   0.15783
23   0.158354
24   0.161315
25   0.159657
26   0.158342
27   0.162203
28   0.158318
29   0.356769

$$$$

