PCCDB-ID:  1662
public computational chemistry database (PCCDB) project, http://pccdb.org

 21 20  0  0  0  0  0  0  0  0999 V2000
    0.9255   -0.5186    0.1231 C   0  0  0  0  0  0  0  0  0  0  0  0
    2.4988    1.0429   -1.1339 C   0  0  0  0  0  0  0  0  0  0  0  0
    2.6213    0.8481    1.3950 C   0  0  0  0  0  0  0  0  0  0  0  0
    2.4347    0.3276   -2.4769 C   0  0  0  0  0  0  0  0  0  0  0  0
    3.9909    1.5309    1.4897 C   0  0  0  0  0  0  0  0  0  0  0  0
    2.3322    0.0931    0.0827 C   0  0  0  0  0  0  0  0  0  0  0  0
    2.6683   -0.8547   -2.6282 O   0  0  0  0  0  0  0  0  0  0  0  0
    2.1370    1.0841   -3.5522 O   0  0  0  0  0  0  0  0  0  0  0  0
    4.1412    2.6257    1.9783 O   0  0  0  0  0  0  0  0  0  0  0  0
    5.0310    0.8211    1.0088 O   0  0  0  0  0  0  0  0  0  0  0  0
    3.3121   -0.9590    0.0160 O   0  0  0  0  0  0  0  0  0  0  0  0
    0.1576    0.2573    0.2214 H   0  0  0  0  0  0  0  0  0  0  0  0
    0.8446   -1.1965    0.9779 H   0  0  0  0  0  0  0  0  0  0  0  0
    0.7246   -1.0933   -0.7864 H   0  0  0  0  0  0  0  0  0  0  0  0
    1.7424    1.8364   -1.0874 H   0  0  0  0  0  0  0  0  0  0  0  0
    3.4805    1.5334   -1.0827 H   0  0  0  0  0  0  0  0  0  0  0  0
    1.8651    1.6162    1.5739 H   0  0  0  0  0  0  0  0  0  0  0  0
    2.5514    0.1194    2.2135 H   0  0  0  0  0  0  0  0  0  0  0  0
    1.9812    2.0064   -3.2880 H   0  0  0  0  0  0  0  0  0  0  0  0
    4.6863   -0.0238    0.6292 H   0  0  0  0  0  0  0  0  0  0  0  0
    3.2606   -1.3227   -0.8940 H   0  0  0  0  0  0  0  0  0  0  0  0
  1 12  1  0  0  0  0
  1 13  1  0  0  0  0
  2 15  1  0  0  0  0
  2 16  1  0  0  0  0
  2  6  1  0  0  0  0
  3  5  1  0  0  0  0
  3 17  1  0  0  0  0
  3 18  1  0  0  0  0
  4  2  1  0  0  0  0
  5  9  2  0  0  0  0
  6  1  1  0  0  0  0
  6  3  1  0  0  0  0
  7  4  2  0  0  0  0
  8 19  1  0  0  0  0
  8  4  1  0  0  0  0
 10  5  1  0  0  0  0
 11  6  1  0  0  0  0
 14  1  1  0  0  0  0
 20 10  1  0  0  0  0
 21 11  1  0  0  0  0
M  END
>  <HBA>
5

>  <HBD>
3

>  <TPSA>
94.83

>  <cid>
1662

>  <dipole>
4.39

>  <excitation_energy_1>
5.507

>  <excitation_energy_2>
5.76

>  <excitation_energy_3>
5.964

>  <excitation_energy_4>
6.05

>  <homo_energy>
-7.116

>  <homo_lumo_gap>
6.373

>  <logP>
-0.313

>  <lumo_energy>
-0.743

>  <melting_point>
157.4

>  <molecular_refractivity>
35.7

>  <oscillator_strength_1>
0.001

>  <oscillator_strength_2>
0.0002

>  <oscillator_strength_3>
0.0002

>  <oscillator_strength_4>
0.003

>  <open_babel_can_smiles>
OC(=O)CC(CC(=O)O)(O)C

>  <mulliken_charges>
21
1   -0.46499
2   -0.428814
3   -0.377899
4   0.629046
5   0.574948
6   0.282564
7   -0.462647
8   -0.549174
9   -0.453774
10   -0.589533
11   -0.676575
12   0.145422
13   0.169176
14   0.168807
15   0.163908
16   0.21303
17   0.171731
18   0.187898
19   0.422042
20   0.438191
21   0.436643

>  <lowdin_charges>
21
1   -0.458218
2   -0.342092
3   -0.32262
4   0.205375
5   0.177845
6   0.126227
7   -0.252653
8   -0.325844
9   -0.253077
10   -0.369378
11   -0.465895
12   0.154713
13   0.166615
14   0.164278
15   0.166907
16   0.189663
17   0.17408
18   0.180765
19   0.366143
20   0.359777
21   0.35739

$$$$

