PCCDB-ID:  21307
public computational chemistry database (PCCDB) project, http://pccdb.org

 29 30  0  0  0  0  0  0  0  0999 V2000
    1.0436    2.0173    0.9928 C   0  0  0  0  0  0  0  0  0  0  0  0
   -2.0081    0.2278   -2.3850 C   0  0  0  0  0  0  0  0  0  0  0  0
   -2.3866    0.0478   -1.0525 C   0  0  0  0  0  0  0  0  0  0  0  0
   -0.7039   -0.0863   -2.7734 C   0  0  0  0  0  0  0  0  0  0  0  0
   -1.4726   -0.4359   -0.1188 C   0  0  0  0  0  0  0  0  0  0  0  0
    0.2217   -0.5547   -1.8420 C   0  0  0  0  0  0  0  0  0  0  0  0
    4.2536    2.5209   -0.7445 C   0  0  0  0  0  0  0  0  0  0  0  0
    4.3967    1.3699   -1.7304 C   0  0  0  0  0  0  0  0  0  0  0  0
    2.2616    1.5678    0.2394 C   0  0  0  0  0  0  0  0  0  0  0  0
   -0.1489   -0.7214   -0.4952 C   0  0  0  0  0  0  0  0  0  0  0  0
    2.6465    0.2834    0.0632 C   0  0  0  0  0  0  0  0  0  0  0  0
    1.9113   -0.8759    0.6504 C   0  0  0  0  0  0  0  0  0  0  0  0
    0.7114   -1.2581    0.4738 N   0  0  0  0  0  0  0  0  0  0  0  0
    2.6703   -1.6477    1.4849 O   0  0  0  0  0  0  0  0  0  0  0  0
    2.9210    2.6601   -0.2522 O   0  0  0  0  0  0  0  0  0  0  0  0
    4.0899   -0.2228   -0.8899 S   0  0  0  0  0  0  0  0  0  0  0  0
    0.5514    1.1919    1.5056 H   0  0  0  0  0  0  0  0  0  0  0  0
    0.3229    2.4731    0.3039 H   0  0  0  0  0  0  0  0  0  0  0  0
    1.3319    2.7814    1.7236 H   0  0  0  0  0  0  0  0  0  0  0  0
   -2.7250    0.5936   -3.1149 H   0  0  0  0  0  0  0  0  0  0  0  0
   -3.4032    0.2725   -0.7395 H   0  0  0  0  0  0  0  0  0  0  0  0
   -0.4029    0.0297   -3.8118 H   0  0  0  0  0  0  0  0  0  0  0  0
   -1.7649   -0.6019    0.9140 H   0  0  0  0  0  0  0  0  0  0  0  0
    1.2274   -0.8207   -2.1537 H   0  0  0  0  0  0  0  0  0  0  0  0
    4.4691    3.4766   -1.2315 H   0  0  0  0  0  0  0  0  0  0  0  0
    4.9446    2.3908    0.0972 H   0  0  0  0  0  0  0  0  0  0  0  0
    5.4151    1.3284   -2.1272 H   0  0  0  0  0  0  0  0  0  0  0  0
    3.6981    1.4920   -2.5632 H   0  0  0  0  0  0  0  0  0  0  0  0
    3.4978   -1.1758    1.6748 H   0  0  0  0  0  0  0  0  0  0  0  0
  1 17  1  0  0  0  0
  1 19  1  0  0  0  0
  2  3  1  0  0  0  0
  3 21  1  0  0  0  0
  3  5  2  0  0  0  0
  4  2  2  0  0  0  0
  4  6  1  0  0  0  0
  5 23  1  0  0  0  0
  6 10  2  0  0  0  0
  7 15  1  0  0  0  0
  7 26  1  0  0  0  0
  8 16  1  0  0  0  0
  8  7  1  0  0  0  0
  9  1  1  0  0  0  0
 10  5  1  0  0  0  0
 10 13  1  0  0  0  0
 11  9  2  0  0  0  0
 11 12  1  0  0  0  0
 12 14  1  0  0  0  0
 13 12  2  0  0  0  0
 14 29  1  0  0  0  0
 15  9  1  0  0  0  0
 16 11  1  0  0  0  0
 18  1  1  0  0  0  0
 20  2  1  0  0  0  0
 22  4  1  0  0  0  0
 24  6  1  0  0  0  0
 25  7  1  0  0  0  0
 27  8  1  0  0  0  0
 28  8  1  0  0  0  0
M  END
>  <HBA>
4

>  <HBD>
1

>  <TPSA>
63.63

>  <cid>
21307

>  <dipole>
5.14

>  <excitation_energy_1>
4.195

>  <excitation_energy_2>
4.246

>  <excitation_energy_3>
4.585

>  <excitation_energy_4>
4.806

>  <homo_energy>
-5.674

>  <homo_lumo_gap>
5.094

>  <logP>
2.693

>  <lumo_energy>
-0.58

>  <melting_point>
95.17

>  <molecular_refractivity>
66.07

>  <oscillator_strength_1>
0.0161

>  <oscillator_strength_2>
0.1146

>  <oscillator_strength_3>
0.0072

>  <oscillator_strength_4>
0.0159

>  <open_babel_can_smiles>
O/C(=N/c1ccccc1)/C1=C(C)OCCS1

>  <mulliken_charges>
29
1   -0.510399
2   -0.130967
3   -0.138591
4   -0.144075
5   -0.156467
6   -0.153934
7   -0.040691
8   -0.446552
9   0.409172
10   0.251747
11   -0.316065
12   0.445536
13   -0.47764
14   -0.572378
15   -0.482049
16   0.14485
17   0.180916
18   0.187339
19   0.165945
20   0.122701
21   0.126148
22   0.123944
23   0.131448
24   0.143382
25   0.167006
26   0.166024
27   0.186449
28   0.201187
29   0.416013

>  <lowdin_charges>
29
1   -0.445582
2   -0.174506
3   -0.154709
4   -0.154805
5   -0.173665
6   -0.181627
7   -0.129878
8   -0.388725
9   0.100966
10   0.046799
11   -0.257487
12   0.14307
13   -0.165259
14   -0.351976
15   -0.198669
16   0.146786
17   0.177163
18   0.178377
19   0.167222
20   0.156364
21   0.155236
22   0.153614
23   0.160549
24   0.163391
25   0.161848
26   0.152898
27   0.178699
28   0.173215
29   0.360692

$$$$

