PCCDB-ID:  38839
public computational chemistry database (PCCDB) project, http://pccdb.org

 34 35  0  0  0  0  0  0  0  0999 V2000
    6.6956   -3.9823    4.3140 C   0  0  0  0  0  0  0  0  0  0  0  0
    9.3429   -5.3611   -1.2596 C   0  0  0  0  0  0  0  0  0  0  0  0
   10.9739   -2.5519   -3.8633 C   0  0  0  0  0  0  0  0  0  0  0  0
    3.3745   -3.3919    2.5123 C   0  0  0  0  0  0  0  0  0  0  0  0
    4.3099   -3.7738    3.4786 C   0  0  0  0  0  0  0  0  0  0  0  0
    3.7989   -2.8525    1.3034 C   0  0  0  0  0  0  0  0  0  0  0  0
    7.4165   -1.5361   -1.8307 C   0  0  0  0  0  0  0  0  0  0  0  0
    8.5914   -1.8304   -2.5145 C   0  0  0  0  0  0  0  0  0  0  0  0
    6.0969   -3.1005    2.0185 C   0  0  0  0  0  0  0  0  0  0  0  0
    7.5040   -3.6895   -0.7513 C   0  0  0  0  0  0  0  0  0  0  0  0
    5.6822   -3.6206    3.2519 C   0  0  0  0  0  0  0  0  0  0  0  0
    8.6695   -4.0233   -1.4351 C   0  0  0  0  0  0  0  0  0  0  0  0
    5.1710   -2.7187    1.0383 C   0  0  0  0  0  0  0  0  0  0  0  0
    6.8619   -2.4496   -0.9258 C   0  0  0  0  0  0  0  0  0  0  0  0
    9.2184   -3.0682   -2.3186 C   0  0  0  0  0  0  0  0  0  0  0  0
    5.5743   -2.0830   -0.2626 C   0  0  0  0  0  0  0  0  0  0  0  0
    4.8310   -1.2529   -0.7794 O   0  0  0  0  0  0  0  0  0  0  0  0
   10.3669   -3.4500   -2.9453 O   0  0  0  0  0  0  0  0  0  0  0  0
    6.2639   -4.6481    5.0682 H   0  0  0  0  0  0  0  0  0  0  0  0
    7.0606   -3.0880    4.8360 H   0  0  0  0  0  0  0  0  0  0  0  0
    7.5699   -4.4825    3.8824 H   0  0  0  0  0  0  0  0  0  0  0  0
    8.7853   -5.9873   -0.5568 H   0  0  0  0  0  0  0  0  0  0  0  0
   10.3664   -5.2470   -0.8830 H   0  0  0  0  0  0  0  0  0  0  0  0
    9.4199   -5.8972   -2.2128 H   0  0  0  0  0  0  0  0  0  0  0  0
   11.8644   -3.0621   -4.2344 H   0  0  0  0  0  0  0  0  0  0  0  0
   11.2688   -1.6149   -3.3737 H   0  0  0  0  0  0  0  0  0  0  0  0
   10.3065   -2.3256   -4.7046 H   0  0  0  0  0  0  0  0  0  0  0  0
    2.3129   -3.5135    2.7110 H   0  0  0  0  0  0  0  0  0  0  0  0
    3.9684   -4.1903    4.4237 H   0  0  0  0  0  0  0  0  0  0  0  0
    3.0887   -2.5291    0.5496 H   0  0  0  0  0  0  0  0  0  0  0  0
    6.9099   -0.5897   -1.9888 H   0  0  0  0  0  0  0  0  0  0  0  0
    9.0078   -1.1003   -3.1990 H   0  0  0  0  0  0  0  0  0  0  0  0
    7.1590   -2.9669    1.8324 H   0  0  0  0  0  0  0  0  0  0  0  0
    7.0686   -4.4288   -0.0858 H   0  0  0  0  0  0  0  0  0  0  0  0
  1 20  1  0  0  0  0
  1 19  1  0  0  0  0
  2 23  1  0  0  0  0
  2 22  1  0  0  0  0
  3 26  1  0  0  0  0
  3 18  1  0  0  0  0
  4 28  1  0  0  0  0
  4  5  2  0  0  0  0
  5 29  1  0  0  0  0
  6  4  1  0  0  0  0
  7 14  2  0  0  0  0
  8 15  2  0  0  0  0
  8  7  1  0  0  0  0
  9 11  2  0  0  0  0
 10 34  1  0  0  0  0
 11  5  1  0  0  0  0
 11  1  1  0  0  0  0
 12  2  1  0  0  0  0
 12 10  2  0  0  0  0
 13  6  2  0  0  0  0
 13  9  1  0  0  0  0
 14 10  1  0  0  0  0
 14 16  1  0  0  0  0
 15 12  1  0  0  0  0
 16 13  1  0  0  0  0
 17 16  2  0  0  0  0
 18 15  1  0  0  0  0
 21  1  1  0  0  0  0
 24  2  1  0  0  0  0
 25  3  1  0  0  0  0
 27  3  1  0  0  0  0
 30  6  1  0  0  0  0
 31  7  1  0  0  0  0
 32  8  1  0  0  0  0
 33  9  1  0  0  0  0
M  END
>  <HBA>
2

>  <HBD>
0

>  <TPSA>
26.3

>  <cid>
38839

>  <dipole>
3.47

>  <excitation_energy_1>
3.61

>  <excitation_energy_2>
4.133

>  <excitation_energy_3>
4.411

>  <excitation_energy_4>
4.566

>  <homo_energy>
-6.011

>  <homo_lumo_gap>
4.604

>  <logP>
3.543

>  <lumo_energy>
-1.407

>  <melting_point>
79.54

>  <molecular_refractivity>
72.74

>  <oscillator_strength_1>
0.003

>  <oscillator_strength_2>
0.2721

>  <oscillator_strength_3>
0.0222

>  <oscillator_strength_4>
0.012

>  <open_babel_can_smiles>
COc1ccc(cc1C)C(=O)c1cccc(c1)C

>  <mulliken_charges>
34
1   -0.528219
2   -0.513581
3   -0.218203
4   -0.132955
5   -0.172975
6   -0.155398
7   -0.169549
8   -0.197396
9   -0.230907
10   -0.249777
11   0.17034
12   0.123896
13   0.078375
14   0.082909
15   0.332367
16   0.314742
17   -0.475489
18   -0.503005
19   0.156203
20   0.168563
21   0.159016
22   0.150099
23   0.165398
24   0.167449
25   0.172895
26   0.156986
27   0.158367
28   0.133514
29   0.125616
30   0.154207
31   0.158629
32   0.136813
33   0.139341
34   0.141726

>  <lowdin_charges>
34
1   -0.444125
2   -0.437194
3   -0.279217
4   -0.153058
5   -0.156406
6   -0.139404
7   -0.122924
8   -0.213564
9   -0.161619
10   -0.15629
11   -0.002085
12   -0.028243
13   -0.039127
14   -0.063948
15   0.105757
16   0.155323
17   -0.257034
18   -0.190857
19   0.158824
20   0.16411
21   0.159879
22   0.156808
23   0.162227
24   0.164062
25   0.165098
26   0.148306
27   0.149598
28   0.158188
29   0.156035
30   0.173834
31   0.174679
32   0.165703
33   0.160783
34   0.165879

$$$$

