PCCDB-ID:  6305
public computational chemistry database (PCCDB) project, http://pccdb.org

 27 28  0  0  1  0  0  0  0  0999 V2000
    2.3114    0.1507   -1.5296 C   0  0  0  0  0  0  0  0  0  0  0  0
    2.1204    1.4727   -1.0754 C   0  0  0  0  0  0  0  0  0  0  0  0
    1.3799   -0.8425   -1.2604 C   0  0  0  0  0  0  0  0  0  0  0  0
    0.9934    1.8282   -0.3456 C   0  0  0  0  0  0  0  0  0  0  0  0
   -1.2069   -2.7230   -0.3637 C   0  0  0  0  0  0  0  0  0  0  0  0
   -1.7165   -0.3795    0.6178 C   0  0  0  0  0  0  0  0  0  0  0  0
   -0.9148   -1.2737   -0.0622 C   0  0  0  0  0  0  0  0  0  0  0  0
    0.2290   -0.5158   -0.5213 C   0  0  0  0  0  0  0  0  0  0  0  0
   -1.7607   -3.5630    0.8134 C   0  0  2  0  0  0  0  0  0  0  0  0
    0.0560    0.8238   -0.0803 C   0  0  0  0  0  0  0  0  0  0  0  0
   -0.7026   -3.8404    1.9082 C   0  0  0  0  0  0  0  0  0  0  0  0
   -2.3607   -4.7867    0.2931 N   0  0  0  0  0  0  0  0  0  0  0  0
   -1.1409    0.8746    0.6054 N   0  0  0  0  0  0  0  0  0  0  0  0
   -0.4938   -4.9480    2.3447 O   0  0  0  0  0  0  0  0  0  0  0  0
   -0.0352   -2.7704    2.3936 O   0  0  0  0  0  0  0  0  0  0  0  0
    3.2045   -0.0908   -2.0988 H   0  0  0  0  0  0  0  0  0  0  0  0
    2.8688    2.2272   -1.3008 H   0  0  0  0  0  0  0  0  0  0  0  0
    1.5401   -1.8568   -1.6161 H   0  0  0  0  0  0  0  0  0  0  0  0
    0.8457    2.8467    0.0035 H   0  0  0  0  0  0  0  0  0  0  0  0
   -0.2931   -3.2021   -0.7392 H   0  0  0  0  0  0  0  0  0  0  0  0
   -1.9459   -2.8054   -1.1702 H   0  0  0  0  0  0  0  0  0  0  0  0
   -2.6750   -0.5321    1.0955 H   0  0  0  0  0  0  0  0  0  0  0  0
   -2.5638   -2.9877    1.2981 H   0  0  0  0  0  0  0  0  0  0  0  0
   -2.6159   -5.3744    1.0868 H   0  0  0  0  0  0  0  0  0  0  0  0
   -1.6327   -5.3221   -0.1830 H   0  0  0  0  0  0  0  0  0  0  0  0
   -1.5136    1.6869    1.0722 H   0  0  0  0  0  0  0  0  0  0  0  0
   -0.2843   -1.9692    1.8883 H   0  0  0  0  0  0  0  0  0  0  0  0
  1  3  2  0  0  0  0
  1  2  1  0  0  0  0
  2  4  2  0  0  0  0
  3  8  1  0  0  0  0
  4 10  1  0  0  0  0
  4 19  1  0  0  0  0
  5  7  1  0  0  0  0
  5  9  1  0  0  0  0
  6 22  1  0  0  0  0
  7  6  2  0  0  0  0
  8 10  2  0  0  0  0
  8  7  1  0  0  0  0
  9 23  1  1  0  0  0
  9 11  1  0  0  0  0
 10 13  1  0  0  0  0
 11 14  2  0  0  0  0
 11 15  1  0  0  0  0
 12  9  1  0  0  0  0
 12 24  1  0  0  0  0
 13  6  1  0  0  0  0
 13 26  1  0  0  0  0
 16  1  1  0  0  0  0
 17  2  1  0  0  0  0
 18  3  1  0  0  0  0
 20  5  1  0  0  0  0
 21  5  1  0  0  0  0
 25 12  1  0  0  0  0
 27 15  1  0  0  0  0
M  END
>  <HBA>
3

>  <HBD>
3

>  <TPSA>
79.11

>  <cid>
6305

>  <dipole>
5.1

>  <excitation_energy_1>
4.667

>  <excitation_energy_2>
4.863

>  <excitation_energy_3>
4.943

>  <excitation_energy_4>
5.266

>  <homo_energy>
-5.894

>  <homo_lumo_gap>
5.257

>  <logP>
1.823

>  <lumo_energy>
-0.637

>  <melting_point>
229.84

>  <molecular_refractivity>
57.36

>  <oscillator_strength_1>
0.069

>  <oscillator_strength_2>
0.0452

>  <oscillator_strength_3>
0.0011

>  <oscillator_strength_4>
0.005

>  <open_babel_can_smiles>
OC(=O)[C@@H](Cc1c[nH]c2c1cccc2)N

>  <mulliken_charges>
27
1   -0.138619
2   -0.148357
3   -0.199713
4   -0.159856
5   -0.333036
6   -0.002341
7   -0.026929
8   0.094426
9   -0.111473
10   0.315128
11   0.574095
12   -0.696591
13   -0.684062
14   -0.455551
15   -0.576684
16   0.128987
17   0.130546
18   0.132758
19   0.127902
20   0.153528
21   0.18666
22   0.162398
23   0.159117
24   0.313338
25   0.300607
26   0.333677
27   0.420044

>  <lowdin_charges>
27
1   -0.169467
2   -0.158197
3   -0.156878
4   -0.183424
5   -0.274879
6   -0.142537
7   -0.084883
8   -0.038818
9   -0.112941
10   0.032751
11   0.169363
12   -0.535825
13   -0.193978
14   -0.254808
15   -0.359181
16   0.159044
17   0.160457
18   0.158293
19   0.157786
20   0.155322
21   0.173388
22   0.169103
23   0.155412
24   0.265651
25   0.258959
26   0.296163
27   0.354126

$$$$

