PCCDB-ID:  2749
public computational chemistry database (PCCDB) project, http://pccdb.org

 32 33  0  0  0  0  0  0  0  0999 V2000
    0.6367    1.5632   -0.2246 C   0  0  0  0  0  0  0  0  0  0  0  0
    5.8250    4.5661    1.7601 C   0  0  0  0  0  0  0  0  0  0  0  0
    5.8631    3.1135    2.2530 C   0  0  0  0  0  0  0  0  0  0  0  0
    5.0244    4.6809    0.4551 C   0  0  0  0  0  0  0  0  0  0  0  0
    6.4722    2.1886    1.1921 C   0  0  0  0  0  0  0  0  0  0  0  0
    5.5314    3.7063   -0.6261 C   0  0  0  0  0  0  0  0  0  0  0  0
    3.1420    1.8847   -0.1889 C   0  0  0  0  0  0  0  0  0  0  0  0
    2.2463   -0.3644   -0.1102 C   0  0  0  0  0  0  0  0  0  0  0  0
    2.0345    0.9964   -0.1713 C   0  0  0  0  0  0  0  0  0  0  0  0
    5.7150    2.2394   -0.1668 C   0  0  0  0  0  0  0  0  0  0  0  0
    4.4400    1.4151   -0.1430 C   0  0  0  0  0  0  0  0  0  0  0  0
    3.5629   -0.9093   -0.0775 C   0  0  0  0  0  0  0  0  0  0  0  0
    4.5856    0.0624   -0.0900 N   0  0  0  0  0  0  0  0  0  0  0  0
    3.9342   -2.0983   -0.0482 O   0  0  0  0  0  0  0  0  0  0  0  0
    5.8518   -0.4974   -0.0928 O   0  0  0  0  0  0  0  0  0  0  0  0
    0.4610    2.2554    0.6080 H   0  0  0  0  0  0  0  0  0  0  0  0
   -0.1188    0.7743   -0.1764 H   0  0  0  0  0  0  0  0  0  0  0  0
    0.4792    2.1291   -1.1511 H   0  0  0  0  0  0  0  0  0  0  0  0
    6.8546    4.9155    1.5915 H   0  0  0  0  0  0  0  0  0  0  0  0
    5.3930    5.2236    2.5250 H   0  0  0  0  0  0  0  0  0  0  0  0
    4.8443    2.7806    2.4984 H   0  0  0  0  0  0  0  0  0  0  0  0
    6.4465    3.0397    3.1793 H   0  0  0  0  0  0  0  0  0  0  0  0
    5.0792    5.7047    0.0632 H   0  0  0  0  0  0  0  0  0  0  0  0
    3.9659    4.4972    0.6785 H   0  0  0  0  0  0  0  0  0  0  0  0
    6.5247    1.1568    1.5495 H   0  0  0  0  0  0  0  0  0  0  0  0
    7.5071    2.5039    0.9986 H   0  0  0  0  0  0  0  0  0  0  0  0
    6.5199    4.0542   -0.9555 H   0  0  0  0  0  0  0  0  0  0  0  0
    4.8854    3.7459   -1.5119 H   0  0  0  0  0  0  0  0  0  0  0  0
    2.9707    2.9507   -0.2450 H   0  0  0  0  0  0  0  0  0  0  0  0
    1.4259   -1.0734   -0.0974 H   0  0  0  0  0  0  0  0  0  0  0  0
    6.3593    1.7440   -0.9040 H   0  0  0  0  0  0  0  0  0  0  0  0
    5.5806   -1.4632   -0.0757 H   0  0  0  0  0  0  0  0  0  0  0  0
  1 17  1  0  0  0  0
  1  9  1  0  0  0  0
  1 16  1  0  0  0  0
  2  3  1  0  0  0  0
  2 20  1  0  0  0  0
  3 21  1  0  0  0  0
  3 22  1  0  0  0  0
  4 24  1  0  0  0  0
  4  2  1  0  0  0  0
  5 25  1  0  0  0  0
  5  3  1  0  0  0  0
  6 10  1  0  0  0  0
  6  4  1  0  0  0  0
  7  9  1  0  0  0  0
  7 11  2  0  0  0  0
  8 30  1  0  0  0  0
  8 12  1  0  0  0  0
  9  8  2  0  0  0  0
 10 11  1  0  0  0  0
 10  5  1  0  0  0  0
 11 13  1  0  0  0  0
 12 14  2  0  0  0  0
 13 12  1  0  0  0  0
 15 13  1  0  0  0  0
 15 32  1  0  0  0  0
 18  1  1  0  0  0  0
 19  2  1  0  0  0  0
 23  4  1  0  0  0  0
 26  5  1  0  0  0  0
 27  6  1  0  0  0  0
 28  6  1  0  0  0  0
 29  7  1  0  0  0  0
 31 10  1  0  0  0  0
M  END
>  <HBA>
3

>  <HBD>
1

>  <TPSA>
42.23

>  <cid>
2749

>  <dipole>
4.07

>  <excitation_energy_1>
4.382

>  <excitation_energy_2>
5.29

>  <excitation_energy_3>
5.346

>  <excitation_energy_4>
5.404

>  <homo_energy>
-5.747

>  <homo_lumo_gap>
4.906

>  <logP>
2.442

>  <lumo_energy>
-0.841

>  <melting_point>
124.43

>  <molecular_refractivity>
60.1

>  <oscillator_strength_1>
0.1273

>  <oscillator_strength_2>
0.0132

>  <oscillator_strength_3>
0.0233

>  <oscillator_strength_4>
0.0013

>  <open_babel_can_smiles>
Cc1cc(C2CCCCC2)n(c(=O)c1)O

>  <mulliken_charges>
32
1   -0.531756
2   -0.25598
3   -0.26221
4   -0.266458
5   -0.270956
6   -0.277253
7   -0.327884
8   -0.299852
9   0.233821
10   -0.155337
11   0.409664
12   0.628391
13   -0.280653
14   -0.603734
15   -0.521495
16   0.16818
17   0.166128
18   0.169596
19   0.128673
20   0.132806
21   0.135665
22   0.136353
23   0.135655
24   0.136927
25   0.167374
26   0.13419
27   0.13989
28   0.140919
29   0.137632
30   0.14568
31   0.166702
32   0.439322

>  <lowdin_charges>
32
1   -0.440755
2   -0.278371
3   -0.280098
4   -0.27974
5   -0.274752
6   -0.279217
7   -0.236606
8   -0.226976
9   0.035206
10   -0.133745
11   0.068349
12   0.133739
13   0.091847
14   -0.359891
15   -0.363707
16   0.165533
17   0.163352
18   0.165938
19   0.136653
20   0.145901
21   0.14056
22   0.14733
23   0.145353
24   0.136981
25   0.158773
26   0.142989
27   0.148853
28   0.148479
29   0.166757
30   0.17452
31   0.16891
32   0.367835

$$$$

