PCCDB-ID:  12259
public computational chemistry database (PCCDB) project, http://pccdb.org

 11 10  0  0  0  0  0  0  0  0999 V2000
    1.2902    0.4742    1.4938 C   0  0  0  0  0  0  0  0  0  0  0  0
    1.8884    0.1200    0.1434 C   0  0  0  0  0  0  0  0  0  0  0  0
    1.1796   -0.0140   -2.1456 N   0  0  0  0  0  0  0  0  0  0  0  0
    2.3290   -0.3537   -2.3498 O   0  0  0  0  0  0  0  0  0  0  0  0
    0.2672    0.1213   -2.9248 O   0  0  0  0  0  0  0  0  0  0  0  0
    0.8105    0.2760   -0.8140 O   0  0  0  0  0  0  0  0  0  0  0  0
    2.0622    0.3807    2.2648 H   0  0  0  0  0  0  0  0  0  0  0  0
    0.4651   -0.1981    1.7466 H   0  0  0  0  0  0  0  0  0  0  0  0
    0.9174    1.5026    1.5003 H   0  0  0  0  0  0  0  0  0  0  0  0
    2.2512   -0.9114    0.1096 H   0  0  0  0  0  0  0  0  0  0  0  0
    2.7114    0.7860   -0.1317 H   0  0  0  0  0  0  0  0  0  0  0  0
  1  9  1  0  0  0  0
  1  8  1  0  0  0  0
  1  7  1  0  0  0  0
  2  1  1  0  0  0  0
  3  6  1  0  0  0  0
  4  3  2  0  0  0  0
  5  3  2  0  0  0  0
  6  2  1  0  0  0  0
 10  2  1  0  0  0  0
 11  2  1  0  0  0  0
M  END
>  <HBA>
0

>  <HBD>
0

>  <TPSA>
55.05

>  <cid>
12259

>  <dipole>
3.42

>  <excitation_energy_1>
4.712

>  <excitation_energy_2>
5.638

>  <excitation_energy_3>
6.19

>  <excitation_energy_4>
7.268

>  <homo_energy>
-8.487

>  <homo_lumo_gap>
6.792

>  <logP>
0.738

>  <lumo_energy>
-1.695

>  <melting_point>
0.25

>  <molecular_refractivity>
20.92

>  <oscillator_strength_1>
0.0

>  <oscillator_strength_2>
0.0004

>  <oscillator_strength_3>
0.0687

>  <oscillator_strength_4>
0.1106

>  <open_babel_can_smiles>
CCON(=O)=O

>  <mulliken_charges>
11
1   -0.467811
2   -0.034673
3   0.749843
4   -0.372068
5   -0.356478
6   -0.375305
7   0.164456
8   0.174107
9   0.174235
10   0.171841
11   0.171852

>  <lowdin_charges>
11
1   -0.447327
2   -0.133856
3   0.37479
4   -0.221498
5   -0.19872
6   -0.184983
7   0.167015
8   0.166214
9   0.164639
10   0.1559
11   0.157826

$$$$

