PCCDB-ID:  7420
public computational chemistry database (PCCDB) project, http://pccdb.org

 16 16  0  0  0  0  0  0  0  0999 V2000
   -0.7459    1.2296   -0.0341 C   0  0  0  0  0  0  0  0  0  0  0  0
   -1.4058    0.0022   -0.0380 C   0  0  0  0  0  0  0  0  0  0  0  0
    0.6472    1.2846   -0.0532 C   0  0  0  0  0  0  0  0  0  0  0  0
    0.7382   -1.1363   -0.0512 C   0  0  0  0  0  0  0  0  0  0  0  0
   -0.6572   -1.1857   -0.0547 C   0  0  0  0  0  0  0  0  0  0  0  0
    1.3916    0.0981   -0.0592 C   0  0  0  0  0  0  0  0  0  0  0  0
   -1.2961   -2.5448   -0.0461 C   0  0  0  0  0  0  0  0  0  0  0  0
    2.7553    0.0834   -0.0711 O   0  0  0  0  0  0  0  0  0  0  0  0
   -0.7383   -3.5431    0.3413 O   0  0  0  0  0  0  0  0  0  0  0  0
   -2.5746   -2.6163   -0.5098 O   0  0  0  0  0  0  0  0  0  0  0  0
   -1.3172    2.1530   -0.0084 H   0  0  0  0  0  0  0  0  0  0  0  0
   -2.4908   -0.0187    0.0226 H   0  0  0  0  0  0  0  0  0  0  0  0
    1.1568    2.2464   -0.0546 H   0  0  0  0  0  0  0  0  0  0  0  0
    1.3122   -2.0559   -0.0432 H   0  0  0  0  0  0  0  0  0  0  0  0
    3.0864    0.9951   -0.0661 H   0  0  0  0  0  0  0  0  0  0  0  0
   -2.8209   -1.7754   -0.9284 H   0  0  0  0  0  0  0  0  0  0  0  0
  1 11  1  0  0  0  0
  2  1  2  0  0  0  0
  2 12  1  0  0  0  0
  3  1  1  0  0  0  0
  4 14  1  0  0  0  0
  5  4  2  0  0  0  0
  5  7  1  0  0  0  0
  5  2  1  0  0  0  0
  6  3  2  0  0  0  0
  6  4  1  0  0  0  0
  7  9  2  0  0  0  0
  8 15  1  0  0  0  0
  8  6  1  0  0  0  0
 10  7  1  0  0  0  0
 13  3  1  0  0  0  0
 16 10  1  0  0  0  0
M  END
>  <HBA>
3

>  <HBD>
2

>  <TPSA>
57.53

>  <cid>
7420

>  <dipole>
6.09

>  <excitation_energy_1>
4.532

>  <excitation_energy_2>
4.713

>  <excitation_energy_3>
5.397

>  <excitation_energy_4>
5.538

>  <homo_energy>
-6.591

>  <homo_lumo_gap>
5.252

>  <logP>
1.09

>  <lumo_energy>
-1.339

>  <melting_point>
135.62

>  <molecular_refractivity>
35.42

>  <oscillator_strength_1>
0.0436

>  <oscillator_strength_2>
0.0118

>  <oscillator_strength_3>
0.0393

>  <oscillator_strength_4>
0.0029

>  <open_babel_can_smiles>
Oc1cccc(c1)C(=O)O

>  <mulliken_charges>
16
1   -0.135385
2   -0.204803
3   -0.182832
4   -0.187711
5   0.049393
6   0.3538
7   0.549835
8   -0.633326
9   -0.44187
10   -0.574488
11   0.143302
12   0.133648
13   0.130113
14   0.178521
15   0.411267
16   0.410536

>  <lowdin_charges>
16
1   -0.140406
2   -0.187964
3   -0.199041
4   -0.157288
5   -0.045828
6   0.10928
7   0.198174
8   -0.367898
9   -0.236936
10   -0.357905
11   0.165287
12   0.15582
13   0.159111
14   0.189426
15   0.359184
16   0.356983

$$$$

