PCCDB-ID:  59831
public computational chemistry database (PCCDB) project, http://pccdb.org

 27 27  0  0  1  0  0  0  0  0999 V2000
    1.0780   -1.0981    0.9248 C   0  0  0  0  0  0  0  0  0  0  0  0
    9.4778    1.2457    2.5264 C   0  0  0  0  0  0  0  0  0  0  0  0
    2.5704   -1.3806    0.8919 C   0  0  0  0  0  0  0  0  0  0  0  0
    6.5859    1.0508    1.9947 C   0  0  0  0  0  0  0  0  0  0  0  0
    6.8046   -1.1941    1.1874 C   0  0  0  0  0  0  0  0  0  0  0  0
    5.2018    0.9603    1.8866 C   0  0  0  0  0  0  0  0  0  0  0  0
    5.4178   -1.3027    1.0714 C   0  0  0  0  0  0  0  0  0  0  0  0
    8.9447    0.0460    1.7254 C   0  0  2  0  0  0  0  0  0  0  0  0
    7.4197   -0.0234    1.6483 C   0  0  0  0  0  0  0  0  0  0  0  0
    4.6046   -0.2179    1.4223 C   0  0  0  0  0  0  0  0  0  0  0  0
    9.4600   -1.2517    2.2038 N   0  0  0  0  0  0  0  0  0  0  0  0
    3.2396   -0.2094    1.3525 O   0  0  0  0  0  0  0  0  0  0  0  0
    0.5208   -1.9705    0.5665 H   0  0  0  0  0  0  0  0  0  0  0  0
    0.8344   -0.2432    0.2863 H   0  0  0  0  0  0  0  0  0  0  0  0
    0.7510   -0.8709    1.9443 H   0  0  0  0  0  0  0  0  0  0  0  0
    9.1987    2.2055    2.0763 H   0  0  0  0  0  0  0  0  0  0  0  0
   10.5731    1.2090    2.5616 H   0  0  0  0  0  0  0  0  0  0  0  0
    9.1044    1.2314    3.5581 H   0  0  0  0  0  0  0  0  0  0  0  0
    2.9000   -1.6244   -0.1286 H   0  0  0  0  0  0  0  0  0  0  0  0
    2.8214   -2.2346    1.5377 H   0  0  0  0  0  0  0  0  0  0  0  0
    7.0119    1.9800    2.3596 H   0  0  0  0  0  0  0  0  0  0  0  0
    7.4306   -2.0413    0.9262 H   0  0  0  0  0  0  0  0  0  0  0  0
    4.5621    1.7938    2.1607 H   0  0  0  0  0  0  0  0  0  0  0  0
    4.9868   -2.2293    0.7091 H   0  0  0  0  0  0  0  0  0  0  0  0
    9.3257    0.1481    0.6973 H   0  0  0  0  0  0  0  0  0  0  0  0
    9.1493   -1.3989    3.1650 H   0  0  0  0  0  0  0  0  0  0  0  0
   10.4790   -1.2177    2.2339 H   0  0  0  0  0  0  0  0  0  0  0  0
  1 15  1  0  0  0  0
  2 17  1  0  0  0  0
  2 18  1  0  0  0  0
  3  1  1  0  0  0  0
  3 12  1  0  0  0  0
  3 20  1  0  0  0  0
  4 21  1  0  0  0  0
  5  9  1  0  0  0  0
  6  4  1  0  0  0  0
  6 23  1  0  0  0  0
  7  5  2  0  0  0  0
  7 10  1  0  0  0  0
  8 25  1  6  0  0  0
  8 11  1  0  0  0  0
  8  2  1  0  0  0  0
  9  8  1  0  0  0  0
  9  4  2  0  0  0  0
 10  6  2  0  0  0  0
 11 27  1  0  0  0  0
 11 26  1  0  0  0  0
 12 10  1  0  0  0  0
 13  1  1  0  0  0  0
 14  1  1  0  0  0  0
 16  2  1  0  0  0  0
 19  3  1  0  0  0  0
 22  5  1  0  0  0  0
 24  7  1  0  0  0  0
M  END
>  <HBA>
2

>  <HBD>
1

>  <TPSA>
35.25

>  <cid>
59831

>  <dipole>
0.55

>  <excitation_energy_1>
4.94

>  <excitation_energy_2>
5.193

>  <excitation_energy_3>
5.46

>  <excitation_energy_4>
5.622

>  <homo_energy>
-5.592

>  <homo_lumo_gap>
5.829

>  <logP>
2.805

>  <lumo_energy>
0.237

>  <melting_point>
66.18

>  <molecular_refractivity>
50.22

>  <oscillator_strength_1>
0.0253

>  <oscillator_strength_2>
0.1352

>  <oscillator_strength_3>
0.0309

>  <oscillator_strength_4>
0.0133

>  <open_babel_can_smiles>
CCOc1ccc(cc1)[C@H](N)C

>  <mulliken_charges>
27
1   -0.456333
2   -0.458876
3   -0.026778
4   -0.191283
5   -0.179089
6   -0.182669
7   -0.197368
8   -0.037511
9   0.137343
10   0.382215
11   -0.709306
12   -0.521059
13   0.146802
14   0.162767
15   0.162262
16   0.147292
17   0.134663
18   0.14345
19   0.139476
20   0.139309
21   0.122109
22   0.151349
23   0.131225
24   0.129232
25   0.146301
26   0.292563
27   0.291914

>  <lowdin_charges>
27
1   -0.448109
2   -0.459787
3   -0.123585
4   -0.162298
5   -0.148612
6   -0.188354
7   -0.215287
8   -0.059621
9   -0.036252
10   0.101522
11   -0.543987
12   -0.206197
13   0.15689
14   0.160127
15   0.158464
16   0.15126
17   0.144742
18   0.146866
19   0.136308
20   0.137882
21   0.157383
22   0.17073
23   0.164204
24   0.16057
25   0.145187
26   0.250836
27   0.249114

$$$$

