PCCDB-ID:  66258
public computational chemistry database (PCCDB) project, http://pccdb.org

 35 36  0  0  1  0  0  0  0  0999 V2000
    2.9830    1.2093   -0.6489 C   0  0  0  0  0  0  0  0  0  0  0  0
    4.2401   -5.2893    3.6473 C   0  0  0  0  0  0  0  0  0  0  0  0
    4.0023   -6.4322    1.4417 C   0  0  0  0  0  0  0  0  0  0  0  0
    2.3866   -2.2136    0.9143 C   0  0  0  0  0  0  0  0  0  0  0  0
    2.9871   -1.1117    0.4097 C   0  0  0  0  0  0  0  0  0  0  0  0
    3.0782   -3.3640    1.4462 C   0  0  0  0  0  0  0  0  0  0  0  0
    0.6832   -4.5942    3.6648 C   0  0  0  0  0  0  0  0  0  0  0  0
    1.3449   -5.8692    4.2792 C   0  0  0  0  0  0  0  0  0  0  0  0
    0.9573   -6.2652    1.9700 C   0  0  0  0  0  0  0  0  0  0  0  0
    2.1951    0.0250   -0.1099 C   0  0  0  0  0  0  0  0  0  0  0  0
    1.0056   -4.7281    2.1432 C   0  0  2  0  0  0  0  0  0  0  0  0
    2.0214   -6.5374    3.0576 C   0  0  1  0  0  0  0  0  0  0  0  0
    2.4859   -4.4569    1.9738 C   0  0  0  0  0  0  0  0  0  0  0  0
    3.2302   -5.6776    2.5493 C   0  0  0  0  0  0  0  0  0  0  0  0
    0.9693    0.0251   -0.1125 O   0  0  0  0  0  0  0  0  0  0  0  0
    3.6511    1.6128    0.1228 H   0  0  0  0  0  0  0  0  0  0  0  0
    2.2957    1.9894   -0.9817 H   0  0  0  0  0  0  0  0  0  0  0  0
    3.6170    0.8979   -1.4893 H   0  0  0  0  0  0  0  0  0  0  0  0
    4.6351   -6.1852    4.1428 H   0  0  0  0  0  0  0  0  0  0  0  0
    3.8022   -4.6410    4.4114 H   0  0  0  0  0  0  0  0  0  0  0  0
    5.0912   -4.7517    3.2142 H   0  0  0  0  0  0  0  0  0  0  0  0
    4.4960   -7.3179    1.8609 H   0  0  0  0  0  0  0  0  0  0  0  0
    4.7767   -5.7907    1.0068 H   0  0  0  0  0  0  0  0  0  0  0  0
    3.3524   -6.7619    0.6262 H   0  0  0  0  0  0  0  0  0  0  0  0
    1.2981   -2.2125    0.9155 H   0  0  0  0  0  0  0  0  0  0  0  0
    4.0732   -1.0365    0.3769 H   0  0  0  0  0  0  0  0  0  0  0  0
    4.1679   -3.3269    1.4148 H   0  0  0  0  0  0  0  0  0  0  0  0
    1.0747   -3.6625    4.0841 H   0  0  0  0  0  0  0  0  0  0  0  0
   -0.4020   -4.5930    3.8167 H   0  0  0  0  0  0  0  0  0  0  0  0
    0.5854   -6.5424    4.6920 H   0  0  0  0  0  0  0  0  0  0  0  0
    2.0405   -5.6422    5.0907 H   0  0  0  0  0  0  0  0  0  0  0  0
    1.2345   -6.6005    0.9665 H   0  0  0  0  0  0  0  0  0  0  0  0
   -0.0244   -6.6845    2.2181 H   0  0  0  0  0  0  0  0  0  0  0  0
    0.3472   -4.1395    1.5017 H   0  0  0  0  0  0  0  0  0  0  0  0
    2.2899   -7.5859    3.2213 H   0  0  0  0  0  0  0  0  0  0  0  0
  1 10  1  0  0  0  0
  1 16  1  0  0  0  0
  2 19  1  0  0  0  0
  2 20  1  0  0  0  0
  3 22  1  0  0  0  0
  3 14  1  0  0  0  0
  4 25  1  0  0  0  0
  4  6  1  0  0  0  0
  5  4  2  0  0  0  0
  6 13  2  0  0  0  0
  7 29  1  0  0  0  0
  7 28  1  0  0  0  0
  7  8  1  0  0  0  0
  8 30  1  0  0  0  0
  8 31  1  0  0  0  0
  9 11  1  0  0  0  0
  9 33  1  0  0  0  0
  9 12  1  0  0  0  0
 10  5  1  0  0  0  0
 11 34  1  6  0  0  0
 11  7  1  0  0  0  0
 12 35  1  1  0  0  0
 12  8  1  0  0  0  0
 13 11  1  0  0  0  0
 13 14  1  0  0  0  0
 14 12  1  0  0  0  0
 14  2  1  0  0  0  0
 15 10  2  0  0  0  0
 17  1  1  0  0  0  0
 18  1  1  0  0  0  0
 21  2  1  0  0  0  0
 23  3  1  0  0  0  0
 24  3  1  0  0  0  0
 26  5  1  0  0  0  0
 27  6  1  0  0  0  0
 32  9  1  0  0  0  0
M  END
>  <HBA>
1

>  <HBD>
0

>  <TPSA>
17.07

>  <cid>
66258

>  <dipole>
3.63

>  <excitation_energy_1>
3.466

>  <excitation_energy_2>
4.248

>  <excitation_energy_3>
5.465

>  <excitation_energy_4>
5.669

>  <homo_energy>
-5.957

>  <homo_lumo_gap>
4.389

>  <logP>
3.514

>  <lumo_energy>
-1.567

>  <melting_point>
76.36

>  <molecular_refractivity>
64.18

>  <oscillator_strength_1>
0.0001

>  <oscillator_strength_2>
0.8358

>  <oscillator_strength_3>
0.0036

>  <oscillator_strength_4>
0.0039

>  <open_babel_can_smiles>
CC(=O)/C=C/C=C/1\[C@@H]2CC[C@H](C1(C)C)C2

>  <mulliken_charges>
35
1   -0.537097
2   -0.455245
3   -0.448779
4   -0.074675
5   -0.210453
6   -0.217597
7   -0.272836
8   -0.278449
9   -0.285149
10   0.431191
11   -0.176278
12   -0.119421
13   0.172746
14   0.052312
15   -0.472242
16   0.163591
17   0.174379
18   0.164794
19   0.142974
20   0.152163
21   0.144403
22   0.142755
23   0.146077
24   0.150667
25   0.162391
26   0.118641
27   0.119465
28   0.148307
29   0.144604
30   0.138887
31   0.141939
32   0.145526
33   0.137515
34   0.135684
35   0.117206

>  <lowdin_charges>
35
1   -0.476395
2   -0.442663
3   -0.439555
4   -0.090514
5   -0.227578
6   -0.191544
7   -0.27944
8   -0.288999
9   -0.280977
10   0.152116
11   -0.13589
12   -0.13319
13   0.023374
14   0.00695
15   -0.264691
16   0.166947
17   0.170941
18   0.167515
19   0.150712
20   0.154061
21   0.151557
22   0.149764
23   0.152157
24   0.152739
25   0.169525
26   0.14957
27   0.149567
28   0.1502
29   0.147855
30   0.148267
31   0.148443
32   0.147461
33   0.146976
34   0.153948
35   0.14079

$$$$

