PCCDB-ID:  69695
public computational chemistry database (PCCDB) project, http://pccdb.org

 18 18  0  0  0  0  0  0  0  0999 V2000
    1.4018    0.6599   -0.8486 C   0  0  0  0  0  0  0  0  0  0  0  0
    4.3293    2.6407    2.7775 C   0  0  0  0  0  0  0  0  0  0  0  0
    3.2750    3.1636    2.0328 C   0  0  0  0  0  0  0  0  0  0  0  0
    4.7419    1.3244    2.5634 C   0  0  0  0  0  0  0  0  0  0  0  0
    2.6263    2.3799    1.0725 C   0  0  0  0  0  0  0  0  0  0  0  0
    4.2111   -1.7077    0.6937 C   0  0  0  0  0  0  0  0  0  0  0  0
    4.1060    0.5298    1.6102 C   0  0  0  0  0  0  0  0  0  0  0  0
    3.0351    1.0634    0.8556 C   0  0  0  0  0  0  0  0  0  0  0  0
    4.5345   -0.7831    1.4138 N   0  0  0  0  0  0  0  0  0  0  0  0
    4.0350   -2.6971    0.0816 O   0  0  0  0  0  0  0  0  0  0  0  0
    2.4830    0.2051   -0.0472 O   0  0  0  0  0  0  0  0  0  0  0  0
    1.1265   -0.1840   -1.4826 H   0  0  0  0  0  0  0  0  0  0  0  0
    1.7011    1.5083   -1.4770 H   0  0  0  0  0  0  0  0  0  0  0  0
    0.5425    0.9502   -0.2309 H   0  0  0  0  0  0  0  0  0  0  0  0
    4.8320    3.2498    3.5224 H   0  0  0  0  0  0  0  0  0  0  0  0
    2.9463    4.1867    2.1916 H   0  0  0  0  0  0  0  0  0  0  0  0
    5.5605    0.8915    3.1293 H   0  0  0  0  0  0  0  0  0  0  0  0
    1.8070    2.7994    0.4996 H   0  0  0  0  0  0  0  0  0  0  0  0
  1 14  1  0  0  0  0
  1 11  1  0  0  0  0
  2 15  1  0  0  0  0
  3 16  1  0  0  0  0
  3  2  2  0  0  0  0
  4  2  1  0  0  0  0
  4 17  1  0  0  0  0
  5  3  1  0  0  0  0
  6  9  2  0  0  0  0
  7  4  2  0  0  0  0
  8  5  2  0  0  0  0
  8  7  1  0  0  0  0
  9  7  1  0  0  0  0
 10  6  2  0  0  0  0
 11  8  1  0  0  0  0
 12  1  1  0  0  0  0
 13  1  1  0  0  0  0
 18  5  1  0  0  0  0
M  END
>  <HBA>
3

>  <HBD>
0

>  <TPSA>
38.66

>  <cid>
69695

>  <dipole>
3.4

>  <excitation_energy_1>
4.819

>  <excitation_energy_2>
5.151

>  <excitation_energy_3>
5.303

>  <excitation_energy_4>
5.513

>  <homo_energy>
-5.935

>  <homo_lumo_gap>
5.513

>  <logP>
1.663

>  <lumo_energy>
-0.422

>  <melting_point>
67.57

>  <molecular_refractivity>
40.72

>  <oscillator_strength_1>
0.0746

>  <oscillator_strength_2>
0.0004

>  <oscillator_strength_3>
0.1443

>  <oscillator_strength_4>
0.0005

>  <open_babel_can_smiles>
O=C=Nc1ccccc1OC

>  <mulliken_charges>
18
1   -0.218338
2   -0.142525
3   -0.131679
4   -0.151366
5   -0.205891
6   0.631137
7   0.247499
8   0.374458
9   -0.521732
10   -0.403109
11   -0.525198
12   0.180927
13   0.158121
14   0.158058
15   0.132988
16   0.132991
17   0.145858
18   0.1378

>  <lowdin_charges>
18
1   -0.276968
2   -0.170794
3   -0.151099
4   -0.156992
5   -0.207681
6   0.196416
7   0.039026
8   0.084994
9   -0.150337
10   -0.143797
11   -0.190782
12   0.169923
13   0.14975
14   0.149819
15   0.162479
16   0.159393
17   0.170926
18   0.165724

$$$$

