PCCDB-ID:  18280
public computational chemistry database (PCCDB) project, http://pccdb.org

 27 26  0  0  1  0  0  0  0  0999 V2000
    3.0629    1.9957   -0.6476 C   0  0  0  0  0  0  0  0  0  0  0  0
    1.3903    0.3771    0.3356 C   0  0  0  0  0  0  0  0  0  0  0  0
    2.8513   -0.5574   -2.3216 C   0  0  0  0  0  0  0  0  0  0  0  0
    5.5802   -0.6791    0.5196 C   0  0  0  0  0  0  0  0  0  0  0  0
    5.3954   -2.0472   -1.5676 C   0  0  0  0  0  0  0  0  0  0  0  0
    2.8700    0.6021   -0.0257 C   0  0  0  0  0  0  0  0  0  0  0  0
    3.4218   -0.5750   -0.8899 C   0  0  2  0  0  0  0  0  0  0  0  0
    4.9777   -0.7240   -0.8964 C   0  0  0  0  0  0  0  0  0  0  0  0
    5.5047    0.3735   -1.6674 O   0  0  0  0  0  0  0  0  0  0  0  0
    2.7185    2.7708    0.0483 H   0  0  0  0  0  0  0  0  0  0  0  0
    2.4803    2.1045   -1.5702 H   0  0  0  0  0  0  0  0  0  0  0  0
    4.1110    2.1833   -0.8912 H   0  0  0  0  0  0  0  0  0  0  0  0
    1.0413    1.1575    1.0223 H   0  0  0  0  0  0  0  0  0  0  0  0
    1.2378   -0.5920    0.8270 H   0  0  0  0  0  0  0  0  0  0  0  0
    0.7406    0.4094   -0.5469 H   0  0  0  0  0  0  0  0  0  0  0  0
    1.7756   -0.3553   -2.3143 H   0  0  0  0  0  0  0  0  0  0  0  0
    2.9888   -1.5192   -2.8254 H   0  0  0  0  0  0  0  0  0  0  0  0
    3.3394    0.2108   -2.9271 H   0  0  0  0  0  0  0  0  0  0  0  0
    5.1107   -1.4150    1.1832 H   0  0  0  0  0  0  0  0  0  0  0  0
    5.4743    0.3118    0.9679 H   0  0  0  0  0  0  0  0  0  0  0  0
    6.6524   -0.9117    0.4783 H   0  0  0  0  0  0  0  0  0  0  0  0
    4.9680   -2.9138   -1.0498 H   0  0  0  0  0  0  0  0  0  0  0  0
    6.4879   -2.1547   -1.5394 H   0  0  0  0  0  0  0  0  0  0  0  0
    5.0862   -2.0787   -2.6150 H   0  0  0  0  0  0  0  0  0  0  0  0
    3.4157    0.5903    0.9257 H   0  0  0  0  0  0  0  0  0  0  0  0
    3.0623   -1.4926   -0.3995 H   0  0  0  0  0  0  0  0  0  0  0  0
    6.4686    0.2652   -1.7010 H   0  0  0  0  0  0  0  0  0  0  0  0
  1  6  1  0  0  0  0
  1 10  1  0  0  0  0
  2 14  1  0  0  0  0
  2 13  1  0  0  0  0
  3 16  1  0  0  0  0
  3  7  1  0  0  0  0
  4 20  1  0  0  0  0
  4 19  1  0  0  0  0
  5 23  1  0  0  0  0
  5 22  1  0  0  0  0
  5  8  1  0  0  0  0
  6  2  1  0  0  0  0
  6 25  1  0  0  0  0
  7 26  1  1  0  0  0
  7  6  1  0  0  0  0
  8  7  1  0  0  0  0
  8  4  1  0  0  0  0
  9  8  1  0  0  0  0
 11  1  1  0  0  0  0
 12  1  1  0  0  0  0
 15  2  1  0  0  0  0
 17  3  1  0  0  0  0
 18  3  1  0  0  0  0
 21  4  1  0  0  0  0
 24  5  1  0  0  0  0
 27  9  1  0  0  0  0
M  END
>  <HBA>
1

>  <HBD>
1

>  <TPSA>
20.23

>  <cid>
18280

>  <dipole>
1.64

>  <excitation_energy_1>
6.312

>  <excitation_energy_2>
7.098

>  <excitation_energy_3>
7.276

>  <excitation_energy_4>
7.292

>  <homo_energy>
-7.053

>  <homo_lumo_gap>
8.708

>  <logP>
2.049

>  <lumo_energy>
1.654

>  <melting_point>
1.75

>  <molecular_refractivity>
41.77

>  <oscillator_strength_1>
0.0192

>  <oscillator_strength_2>
0.0055

>  <oscillator_strength_3>
0.0213

>  <oscillator_strength_4>
0.02

>  <open_babel_can_smiles>
CC([C@H](C(O)(C)C)C)C

>  <mulliken_charges>
27
1   -0.449402
2   -0.449128
3   -0.47286
4   -0.469653
5   -0.464922
6   -0.082442
7   -0.06291
8   0.312748
9   -0.635837
10   0.126784
11   0.137094
12   0.17051
13   0.138671
14   0.133991
15   0.141993
16   0.14016
17   0.13699
18   0.172025
19   0.142641
20   0.162588
21   0.127061
22   0.141882
23   0.126154
24   0.160608
25   0.120855
26   0.110862
27   0.383536

>  <lowdin_charges>
27
1   -0.453306
2   -0.447518
3   -0.451926
4   -0.460597
5   -0.457092
6   -0.123045
7   -0.128347
8   0.123761
9   -0.457981
10   0.142926
11   0.145491
12   0.160451
13   0.148686
14   0.143255
15   0.145216
16   0.146555
17   0.146623
18   0.162422
19   0.153628
20   0.157312
21   0.141407
22   0.152567
23   0.140021
24   0.156696
25   0.138459
26   0.137514
27   0.336823

$$$$

