PCCDB-ID:  13589
public computational chemistry database (PCCDB) project, http://pccdb.org

 14 14  0  0  1  0  0  0  0  0999 V2000
    2.1875   -1.0932   -0.0663 C   0  0  0  0  0  0  0  0  0  0  0  0
    3.4111    0.8372   -0.6233 C   0  0  0  0  0  0  0  0  0  0  0  0
    5.7801    1.8098   -0.1779 C   0  0  0  0  0  0  0  0  0  0  0  0
    4.7732    1.2769   -1.1032 C   0  0  2  0  0  0  0  0  0  0  0  0
    3.4427   -0.5640   -0.4379 O   0  0  0  0  0  0  0  0  0  0  0  0
    5.0231    2.6848   -1.0273 O   0  0  0  0  0  0  0  0  0  0  0  0
    2.3122   -2.1740    0.0389 H   0  0  0  0  0  0  0  0  0  0  0  0
    1.4190   -0.8934   -0.8305 H   0  0  0  0  0  0  0  0  0  0  0  0
    1.8373   -0.6784    0.8927 H   0  0  0  0  0  0  0  0  0  0  0  0
    2.6470    1.1146   -1.3705 H   0  0  0  0  0  0  0  0  0  0  0  0
    3.1603    1.3644    0.3124 H   0  0  0  0  0  0  0  0  0  0  0  0
    6.8390    1.7254   -0.4219 H   0  0  0  0  0  0  0  0  0  0  0  0
    5.5498    1.8759    0.8858 H   0  0  0  0  0  0  0  0  0  0  0  0
    5.1142    0.7973   -2.0224 H   0  0  0  0  0  0  0  0  0  0  0  0
  1  7  1  0  0  0  0
  1  9  1  0  0  0  0
  2  5  1  0  0  0  0
  2 11  1  0  0  0  0
  3 13  1  0  0  0  0
  4 14  1  6  0  0  0
  4  6  1  0  0  0  0
  4  2  1  0  0  0  0
  4  3  1  0  0  0  0
  5  1  1  0  0  0  0
  6  3  1  0  0  0  0
  8  1  1  0  0  0  0
 10  2  1  0  0  0  0
 12  3  1  0  0  0  0
M  END
>  <HBA>
2

>  <HBD>
0

>  <TPSA>
21.76

>  <cid>
13589

>  <dipole>
1.64

>  <excitation_energy_1>
6.665

>  <excitation_energy_2>
7.051

>  <excitation_energy_3>
7.115

>  <excitation_energy_4>
7.234

>  <homo_energy>
-7.089

>  <homo_lumo_gap>
9.238

>  <logP>
0.032

>  <lumo_energy>
2.15

>  <melting_point>
-20.56

>  <molecular_refractivity>
21.4

>  <oscillator_strength_1>
0.0219

>  <oscillator_strength_2>
0.0143

>  <oscillator_strength_3>
0.0129

>  <oscillator_strength_4>
0.012

>  <open_babel_can_smiles>
COC[C@@H]1CO1

>  <mulliken_charges>
14
1   -0.191668
2   -0.032183
3   -0.103004
4   0.093639
5   -0.461988
6   -0.447469
7   0.160909
8   0.132951
9   0.132538
10   0.130494
11   0.128061
12   0.153367
13   0.151566
14   0.152787

>  <lowdin_charges>
14
1   -0.27748
2   -0.133886
3   -0.159264
4   -0.023626
5   -0.271279
6   -0.285067
7   0.154647
8   0.134092
9   0.132852
10   0.134764
11   0.134408
12   0.154122
13   0.151462
14   0.154257

$$$$

