PCCDB-ID:  23349
public computational chemistry database (PCCDB) project, http://pccdb.org

 13 12  0  0  0  0  0  0  0  0999 V2000
    1.0330   -0.0484    0.0392 C   0  0  0  0  0  0  0  0  0  0  0  0
    6.9062   -1.2747    1.6619 C   0  0  0  0  0  0  0  0  0  0  0  0
    2.2392   -0.0366    0.0366 C   0  0  0  0  0  0  0  0  0  0  0  0
    6.3290   -0.2627    1.3440 C   0  0  0  0  0  0  0  0  0  0  0  0
    3.6988   -0.0483    0.0027 C   0  0  0  0  0  0  0  0  0  0  0  0
    5.6189    0.9641    0.9533 C   0  0  0  0  0  0  0  0  0  0  0  0
    4.2040    0.8482    0.9892 O   0  0  0  0  0  0  0  0  0  0  0  0
   -0.0333   -0.0523    0.0520 H   0  0  0  0  0  0  0  0  0  0  0  0
    7.4178   -2.1678    1.9420 H   0  0  0  0  0  0  0  0  0  0  0  0
    4.0545    0.2512   -0.9983 H   0  0  0  0  0  0  0  0  0  0  0  0
    4.0718   -1.0678    0.1859 H   0  0  0  0  0  0  0  0  0  0  0  0
    5.9542    1.2757   -0.0507 H   0  0  0  0  0  0  0  0  0  0  0  0
    5.8598    1.7750    1.6485 H   0  0  0  0  0  0  0  0  0  0  0  0
  1  8  1  0  0  0  0
  2  9  1  0  0  0  0
  3  1  3  0  0  0  0
  4  2  3  0  0  0  0
  5  3  1  0  0  0  0
  5 11  1  0  0  0  0
  5  7  1  0  0  0  0
  6  7  1  0  0  0  0
  6  4  1  0  0  0  0
  6 13  1  0  0  0  0
 10  5  1  0  0  0  0
 12  6  1  0  0  0  0
M  END
>  <HBA>
1

>  <HBD>
0

>  <TPSA>
9.23

>  <cid>
23349

>  <dipole>
1.37

>  <excitation_energy_1>
5.964

>  <excitation_energy_2>
6.106

>  <excitation_energy_3>
6.458

>  <excitation_energy_4>
6.58

>  <homo_energy>
-7.116

>  <homo_lumo_gap>
7.491

>  <logP>
0.269

>  <lumo_energy>
0.376

>  <melting_point>
-0.81

>  <molecular_refractivity>
28.36

>  <oscillator_strength_1>
0.0002

>  <oscillator_strength_2>
0.0007

>  <oscillator_strength_3>
0.0421

>  <oscillator_strength_4>
0.0029

>  <open_babel_can_smiles>
C#CCOCC#C

>  <mulliken_charges>
13
1   -0.503488
2   -0.465585
3   0.359903
4   0.306779
5   -0.152179
6   -0.152272
7   -0.452644
8   0.195399
9   0.195722
10   0.15196
11   0.17249
12   0.156505
13   0.18741

>  <lowdin_charges>
13
1   -0.230571
2   -0.236449
3   -0.04075
4   -0.058804
5   -0.113684
6   -0.11743
7   -0.253892
8   0.2054
9   0.208225
10   0.14947
11   0.160637
12   0.150718
13   0.17713

$$$$

