PCCDB-ID:  31875
public computational chemistry database (PCCDB) project, http://pccdb.org

 32 35  0  0  0  0  0  0  0  0999 V2000
    0.9202    0.0306    0.0533 C   0  0  0  0  0  0  0  0  0  0  0  0
    2.4180   -2.5617    0.0534 C   0  0  0  0  0  0  0  0  0  0  0  0
    7.8675    3.8594    0.0554 C   0  0  0  0  0  0  0  0  0  0  0  0
    6.6145    4.4790    0.0557 C   0  0  0  0  0  0  0  0  0  0  0  0
    6.8145   -2.1615    0.0532 C   0  0  0  0  0  0  0  0  0  0  0  0
    7.9746    2.4630    0.0551 C   0  0  0  0  0  0  0  0  0  0  0  0
    5.4392    3.7173    0.0554 C   0  0  0  0  0  0  0  0  0  0  0  0
    5.4402   -2.3393    0.0535 C   0  0  0  0  0  0  0  0  0  0  0  0
    7.4201   -0.8755    0.0538 C   0  0  0  0  0  0  0  0  0  0  0  0
    3.1287    1.2369    0.0542 C   0  0  0  0  0  0  0  0  0  0  0  0
    2.4366   -0.0139    0.0535 C   0  0  0  0  0  0  0  0  0  0  0  0
    3.1300   -1.2286    0.0532 C   0  0  0  0  0  0  0  0  0  0  0  0
    4.5657   -1.2128    0.0544 C   0  0  0  0  0  0  0  0  0  0  0  0
    6.8138    1.6965    0.0544 C   0  0  0  0  0  0  0  0  0  0  0  0
    5.5339    2.3293    0.0544 C   0  0  0  0  0  0  0  0  0  0  0  0
    6.6019    0.2357    0.0553 C   0  0  0  0  0  0  0  0  0  0  0  0
    4.5047    1.2726    0.0552 C   0  0  0  0  0  0  0  0  0  0  0  0
    5.1973    0.0390    0.0559 C   0  0  0  0  0  0  0  0  0  0  0  0
    0.5643    1.0651    0.0561 H   0  0  0  0  0  0  0  0  0  0  0  0
    0.4924   -0.4638    0.9340 H   0  0  0  0  0  0  0  0  0  0  0  0
    0.4929   -0.4588   -0.8305 H   0  0  0  0  0  0  0  0  0  0  0  0
    1.3321   -2.4568    0.0504 H   0  0  0  0  0  0  0  0  0  0  0  0
    2.6883   -3.1557    0.9361 H   0  0  0  0  0  0  0  0  0  0  0  0
    2.6929   -3.1586   -0.8259 H   0  0  0  0  0  0  0  0  0  0  0  0
    8.7684    4.4671    0.0564 H   0  0  0  0  0  0  0  0  0  0  0  0
    6.5508    5.5639    0.0567 H   0  0  0  0  0  0  0  0  0  0  0  0
    7.4575   -3.0379    0.0519 H   0  0  0  0  0  0  0  0  0  0  0  0
    8.9536    1.9901    0.0558 H   0  0  0  0  0  0  0  0  0  0  0  0
    4.4695    4.2089    0.0572 H   0  0  0  0  0  0  0  0  0  0  0  0
    5.0365   -3.3474    0.0529 H   0  0  0  0  0  0  0  0  0  0  0  0
    8.5040   -0.7922    0.0528 H   0  0  0  0  0  0  0  0  0  0  0  0
    2.5407    2.1520    0.0547 H   0  0  0  0  0  0  0  0  0  0  0  0
  1 11  1  0  0  0  0
  1 19  1  0  0  0  0
  1 20  1  0  0  0  0
  2 23  1  0  0  0  0
  3  4  2  0  0  0  0
  3 25  1  0  0  0  0
  4 26  1  0  0  0  0
  5  8  2  0  0  0  0
  5  9  1  0  0  0  0
  6  3  1  0  0  0  0
  6 28  1  0  0  0  0
  7  4  1  0  0  0  0
  7 29  1  0  0  0  0
  8 13  1  0  0  0  0
  9 16  2  0  0  0  0
 10 32  1  0  0  0  0
 10 17  2  0  0  0  0
 11 10  1  0  0  0  0
 12  2  1  0  0  0  0
 12 11  2  0  0  0  0
 12 13  1  0  0  0  0
 13 18  2  0  0  0  0
 14  6  2  0  0  0  0
 14 16  1  0  0  0  0
 15 14  1  0  0  0  0
 15 17  1  0  0  0  0
 15  7  2  0  0  0  0
 16 18  1  0  0  0  0
 17 18  1  0  0  0  0
 21  1  1  0  0  0  0
 22  2  1  0  0  0  0
 24  2  1  0  0  0  0
 27  5  1  0  0  0  0
 30  8  1  0  0  0  0
 31  9  1  0  0  0  0
M  END
>  <HBA>
0

>  <HBD>
0

>  <TPSA>
0.0

>  <cid>
31875

>  <dipole>
1.07

>  <excitation_energy_1>
3.263

>  <excitation_energy_2>
3.499

>  <excitation_energy_3>
4.056

>  <excitation_energy_4>
4.509

>  <homo_energy>
-5.57

>  <homo_lumo_gap>
3.899

>  <logP>
5.104

>  <lumo_energy>
-1.671

>  <melting_point>
131.57

>  <molecular_refractivity>
78.31

>  <oscillator_strength_1>
0.023

>  <oscillator_strength_2>
0.1786

>  <oscillator_strength_3>
0.0335

>  <oscillator_strength_4>
0.1612

>  <open_babel_can_smiles>
Cc1cc2c3c(c1C)cccc3c1c2cccc1

>  <mulliken_charges>
32
1   -0.544011
2   -0.540208
3   -0.136961
4   -0.136901
5   -0.128589
6   -0.197502
7   -0.197013
8   -0.216148
9   -0.222931
10   -0.289553
11   0.127537
12   0.050246
13   0.152326
14   0.061164
15   0.06261
16   0.115147
17   0.131534
18   -0.082889
19   0.156256
20   0.163514
21   0.163546
22   0.158743
23   0.164453
24   0.164368
25   0.126499
26   0.12645
27   0.127783
28   0.128336
29   0.128019
30   0.126508
31   0.131781
32   0.125884

>  <lowdin_charges>
32
1   -0.445617
2   -0.446428
3   -0.160044
4   -0.155657
5   -0.156518
6   -0.157988
7   -0.158852
8   -0.159079
9   -0.150476
10   -0.157149
11   -0.009665
12   -0.005819
13   -0.007247
14   -0.007512
15   -0.006776
16   -0.004735
17   -0.009528
18   -0.017673
19   0.155814
20   0.160433
21   0.160424
22   0.159772
23   0.162199
24   0.162177
25   0.157572
26   0.15492
27   0.158634
28   0.157004
29   0.156981
30   0.158067
31   0.156687
32   0.156078

$$$$

