PCCDB-ID:  46219
public computational chemistry database (PCCDB) project, http://pccdb.org

 25 25  0  0  1  0  0  0  0  0999 V2000
    4.6265    1.0855   -2.8704 C   0  0  0  0  0  0  0  0  0  0  0  0
    2.1672   -0.6357   -1.0320 C   0  0  0  0  0  0  0  0  0  0  0  0
    4.2211    0.3052   -2.0428 C   0  0  0  0  0  0  0  0  0  0  0  0
    6.9328   -6.2298   -1.6974 C   0  0  0  0  0  0  0  0  0  0  0  0
    6.0639   -5.6246   -2.6098 C   0  0  0  0  0  0  0  0  0  0  0  0
    7.3722   -5.5126   -0.5848 C   0  0  0  0  0  0  0  0  0  0  0  0
    5.6419   -4.3101   -2.4134 C   0  0  0  0  0  0  0  0  0  0  0  0
    6.9434   -4.1982   -0.3873 C   0  0  0  0  0  0  0  0  0  0  0  0
    5.6445   -2.1444   -1.0951 C   0  0  0  0  0  0  0  0  0  0  0  0
    3.7051   -0.6275   -1.0273 C   0  0  2  0  0  0  0  0  0  0  0  0
    6.0795   -3.5807   -1.2987 C   0  0  0  0  0  0  0  0  0  0  0  0
    4.1984   -1.9898   -1.2805 N   0  0  0  0  0  0  0  0  0  0  0  0
    4.9852    1.7721   -3.6032 H   0  0  0  0  0  0  0  0  0  0  0  0
    1.7764    0.3694   -0.8492 H   0  0  0  0  0  0  0  0  0  0  0  0
    1.7904   -1.3008   -0.2456 H   0  0  0  0  0  0  0  0  0  0  0  0
    1.7976   -0.9893   -1.9984 H   0  0  0  0  0  0  0  0  0  0  0  0
    7.2603   -7.2547   -1.8516 H   0  0  0  0  0  0  0  0  0  0  0  0
    5.7154   -6.1797   -3.4772 H   0  0  0  0  0  0  0  0  0  0  0  0
    8.0463   -5.9744    0.1322 H   0  0  0  0  0  0  0  0  0  0  0  0
    4.9623   -3.8379   -3.1169 H   0  0  0  0  0  0  0  0  0  0  0  0
    7.2814   -3.6452    0.4867 H   0  0  0  0  0  0  0  0  0  0  0  0
    6.1333   -1.4934   -1.8317 H   0  0  0  0  0  0  0  0  0  0  0  0
    5.9884   -1.7962   -0.1025 H   0  0  0  0  0  0  0  0  0  0  0  0
    4.0440   -0.2561   -0.0392 H   0  0  0  0  0  0  0  0  0  0  0  0
    3.7165   -2.6219   -0.6418 H   0  0  0  0  0  0  0  0  0  0  0  0
  1  3  3  0  0  0  0
  2 10  1  0  0  0  0
  2 14  1  0  0  0  0
  2 15  1  0  0  0  0
  3 10  1  0  0  0  0
  4  6  2  0  0  0  0
  5  7  2  0  0  0  0
  5  4  1  0  0  0  0
  6  8  1  0  0  0  0
  6 19  1  0  0  0  0
  7 11  1  0  0  0  0
  8 21  1  0  0  0  0
  9 23  1  0  0  0  0
 10 24  1  1  0  0  0
 11  9  1  0  0  0  0
 11  8  2  0  0  0  0
 12  9  1  0  0  0  0
 12 10  1  0  0  0  0
 12 25  1  0  0  0  0
 13  1  1  0  0  0  0
 16  2  1  0  0  0  0
 17  4  1  0  0  0  0
 18  5  1  0  0  0  0
 20  7  1  0  0  0  0
 22  9  1  0  0  0  0
M  END
>  <HBA>
1

>  <HBD>
1

>  <TPSA>
12.03

>  <cid>
46219

>  <dipole>
1.08

>  <excitation_energy_1>
5.246

>  <excitation_energy_2>
5.287

>  <excitation_energy_3>
5.53

>  <excitation_energy_4>
5.625

>  <homo_energy>
-6.188

>  <homo_lumo_gap>
6.24

>  <logP>
2.189

>  <lumo_energy>
0.052

>  <melting_point>
49.02

>  <molecular_refractivity>
51.6

>  <oscillator_strength_1>
0.0018

>  <oscillator_strength_2>
0.0004

>  <oscillator_strength_3>
0.0208

>  <oscillator_strength_4>
0.0084

>  <open_babel_can_smiles>
C[C@H](C#C)NCc1ccccc1

>  <mulliken_charges>
25
1   -0.502724
2   -0.453244
3   0.367758
4   -0.12913
5   -0.131788
6   -0.128594
7   -0.163863
8   -0.187467
9   -0.196623
10   -0.090688
11   0.131164
12   -0.552147
13   0.189315
14   0.159624
15   0.142113
16   0.171979
17   0.126652
18   0.128058
19   0.126834
20   0.145863
21   0.121548
22   0.172787
23   0.11587
24   0.137674
25   0.299029

>  <lowdin_charges>
25
1   -0.255439
2   -0.438313
3   -0.036555
4   -0.15888
5   -0.156785
6   -0.15865
7   -0.158694
8   -0.170008
9   -0.201879
10   -0.046392
11   -0.01374
12   -0.356128
13   0.205697
14   0.160892
15   0.15013
16   0.164584
17   0.155102
18   0.157209
19   0.157439
20   0.167823
21   0.153898
22   0.163372
23   0.121927
24   0.135946
25   0.257444

$$$$

