PCCDB-ID:  22647
public computational chemistry database (PCCDB) project, http://pccdb.org

 31 33  0  0  0  0  0  0  0  0999 V2000
    0.8177    0.0567   -0.2768 C   0  0  0  0  0  0  0  0  0  0  0  0
    2.9019    0.0571   -1.7120 C   0  0  0  0  0  0  0  0  0  0  0  0
    2.9474    3.7758    0.5780 C   0  0  0  0  0  0  0  0  0  0  0  0
    2.9481   -3.6639    0.5725 C   0  0  0  0  0  0  0  0  0  0  0  0
    3.7326    3.7019    1.7298 C   0  0  0  0  0  0  0  0  0  0  0  0
    3.7332   -3.5916    1.7245 C   0  0  0  0  0  0  0  0  0  0  0  0
    2.5257    2.5968   -0.0354 C   0  0  0  0  0  0  0  0  0  0  0  0
    2.5260   -2.4841   -0.0391 C   0  0  0  0  0  0  0  0  0  0  0  0
    4.0829    2.4617    2.2479 C   0  0  0  0  0  0  0  0  0  0  0  0
    4.0833   -2.3520    2.2444 C   0  0  0  0  0  0  0  0  0  0  0  0
    2.8602    1.3301    0.4592 C   0  0  0  0  0  0  0  0  0  0  0  0
    2.8601   -1.2181    0.4576 C   0  0  0  0  0  0  0  0  0  0  0  0
    3.6536    1.2786    1.6223 C   0  0  0  0  0  0  0  0  0  0  0  0
    3.6537   -1.1681    1.6206 C   0  0  0  0  0  0  0  0  0  0  0  0
    2.3696    0.0565   -0.2534 C   0  0  0  0  0  0  0  0  0  0  0  0
    4.0193    0.0549    2.1624 N   0  0  0  0  0  0  0  0  0  0  0  0
    0.4320    0.9405   -0.7961 H   0  0  0  0  0  0  0  0  0  0  0  0
    0.4148    0.0576    0.7412 H   0  0  0  0  0  0  0  0  0  0  0  0
    0.4318   -0.8280   -0.7947 H   0  0  0  0  0  0  0  0  0  0  0  0
    2.5611    0.9449   -2.2553 H   0  0  0  0  0  0  0  0  0  0  0  0
    2.5497   -0.8235   -2.2600 H   0  0  0  0  0  0  0  0  0  0  0  0
    3.9966    0.0501   -1.7250 H   0  0  0  0  0  0  0  0  0  0  0  0
    2.6655    4.7381    0.1611 H   0  0  0  0  0  0  0  0  0  0  0  0
    2.6665   -4.6257    0.1541 H   0  0  0  0  0  0  0  0  0  0  0  0
    4.0730    4.6071    2.2255 H   0  0  0  0  0  0  0  0  0  0  0  0
    4.0738   -4.4975    2.2188 H   0  0  0  0  0  0  0  0  0  0  0  0
    1.9143    2.6667   -0.9309 H   0  0  0  0  0  0  0  0  0  0  0  0
    1.9147   -2.5527   -0.9347 H   0  0  0  0  0  0  0  0  0  0  0  0
    4.6963    2.3939    3.1444 H   0  0  0  0  0  0  0  0  0  0  0  0
    4.6967   -2.2855    3.1410 H   0  0  0  0  0  0  0  0  0  0  0  0
    4.5916    0.0543    2.9936 H   0  0  0  0  0  0  0  0  0  0  0  0
  1 15  1  0  0  0  0
  1 18  1  0  0  0  0
  2 15  1  0  0  0  0
  3  5  2  0  0  0  0
  4  6  2  0  0  0  0
  5 25  1  0  0  0  0
  5  9  1  0  0  0  0
  6 26  1  0  0  0  0
  6 10  1  0  0  0  0
  7 11  2  0  0  0  0
  7  3  1  0  0  0  0
  8 12  2  0  0  0  0
  8  4  1  0  0  0  0
  9 29  1  0  0  0  0
 10 30  1  0  0  0  0
 11 13  1  0  0  0  0
 12 14  1  0  0  0  0
 13 16  1  0  0  0  0
 13  9  2  0  0  0  0
 14 16  1  0  0  0  0
 14 10  2  0  0  0  0
 15 12  1  0  0  0  0
 15 11  1  0  0  0  0
 16 31  1  0  0  0  0
 17  1  1  0  0  0  0
 19  1  1  0  0  0  0
 20  2  1  0  0  0  0
 21  2  1  0  0  0  0
 22  2  1  0  0  0  0
 23  3  1  0  0  0  0
 24  4  1  0  0  0  0
 27  7  1  0  0  0  0
 28  8  1  0  0  0  0
M  END
>  <HBA>
0

>  <HBD>
1

>  <TPSA>
12.03

>  <cid>
22647

>  <dipole>
0.88

>  <excitation_energy_1>
3.985

>  <excitation_energy_2>
4.136

>  <excitation_energy_3>
4.283

>  <excitation_energy_4>
4.368

>  <homo_energy>
-4.876

>  <homo_lumo_gap>
4.816

>  <logP>
4.207

>  <lumo_energy>
-0.06

>  <melting_point>
115.98

>  <molecular_refractivity>
71.43

>  <oscillator_strength_1>
0.0335

>  <oscillator_strength_2>
0.0877

>  <oscillator_strength_3>
0.0001

>  <oscillator_strength_4>
0.2686

>  <open_babel_can_smiles>
CC1(C)c2ccccc2Nc2c1cccc2

>  <mulliken_charges>
31
1   -0.433067
2   -0.433922
3   -0.136819
4   -0.13682
5   -0.135533
6   -0.135529
7   -0.2128
8   -0.212716
9   -0.192426
10   -0.192441
11   0.124573
12   0.124489
13   0.346654
14   0.346709
15   -0.040723
16   -0.843624
17   0.141248
18   0.153017
19   0.141236
20   0.141401
21   0.141252
22   0.153105
23   0.121831
24   0.12183
25   0.125811
26   0.125808
27   0.124329
28   0.124282
29   0.116212
30   0.116212
31   0.31642

>  <lowdin_charges>
31
1   -0.438874
2   -0.437613
3   -0.183951
4   -0.183946
5   -0.149688
6   -0.149691
7   -0.151946
8   -0.151926
9   -0.19681
10   -0.196803
11   -0.034487
12   -0.03448
13   0.052576
14   0.052559
15   0.020877
16   -0.238253
17   0.148353
18   0.154427
19   0.148359
20   0.148341
21   0.14828
22   0.153157
23   0.155555
24   0.155561
25   0.157537
26   0.15753
27   0.154549
28   0.154552
29   0.151162
30   0.151161
31   0.283935

$$$$

