PCCDB-ID:  29427
public computational chemistry database (PCCDB) project, http://pccdb.org

 37 38  0  0  0  0  0  0  0  0999 V2000
   -2.5964    0.6737    1.2101 C   0  0  0  0  0  0  0  0  0  0  0  0
   -1.3544    1.5688    1.0494 C   0  0  0  0  0  0  0  0  0  0  0  0
    6.8556   -1.3921   -0.2807 C   0  0  0  0  0  0  0  0  0  0  0  0
   -2.4698   -0.6836    0.4964 C   0  0  0  0  0  0  0  0  0  0  0  0
   -0.1878    1.2986    2.0237 C   0  0  0  0  0  0  0  0  0  0  0  0
    5.8995   -0.5471   -0.8460 C   0  0  0  0  0  0  0  0  0  0  0  0
    6.4553   -2.3111    0.6899 C   0  0  0  0  0  0  0  0  0  0  0  0
   -1.4936   -1.7005    1.1031 C   0  0  0  0  0  0  0  0  0  0  0  0
    0.0709   -0.1650    2.4350 C   0  0  0  0  0  0  0  0  0  0  0  0
    4.5672   -0.6293   -0.4511 C   0  0  0  0  0  0  0  0  0  0  0  0
    5.1262   -2.3966    1.1040 C   0  0  0  0  0  0  0  0  0  0  0  0
   -0.0388   -1.2362    1.3195 C   0  0  0  0  0  0  0  0  0  0  0  0
    4.1635   -1.5546    0.5263 C   0  0  0  0  0  0  0  0  0  0  0  0
    1.9894   -2.4905    1.4717 C   0  0  0  0  0  0  0  0  0  0  0  0
    0.7315   -2.4220    1.6828 N   0  0  0  0  0  0  0  0  0  0  0  0
    2.8022   -1.5319    0.9019 N   0  0  0  0  0  0  0  0  0  0  0  0
    2.6538   -3.6176    1.8368 O   0  0  0  0  0  0  0  0  0  0  0  0
   -3.4606    1.1989    0.7825 H   0  0  0  0  0  0  0  0  0  0  0  0
   -2.8290    0.5261    2.2747 H   0  0  0  0  0  0  0  0  0  0  0  0
   -1.6444    2.6221    1.1565 H   0  0  0  0  0  0  0  0  0  0  0  0
   -0.9998    1.4671    0.0137 H   0  0  0  0  0  0  0  0  0  0  0  0
    7.8947   -1.3346   -0.5912 H   0  0  0  0  0  0  0  0  0  0  0  0
   -2.1892   -0.4913   -0.5504 H   0  0  0  0  0  0  0  0  0  0  0  0
   -3.4593   -1.1586    0.4564 H   0  0  0  0  0  0  0  0  0  0  0  0
   -0.3526    1.8717    2.9460 H   0  0  0  0  0  0  0  0  0  0  0  0
    0.7277    1.7162    1.5808 H   0  0  0  0  0  0  0  0  0  0  0  0
    6.1861    0.1776   -1.6035 H   0  0  0  0  0  0  0  0  0  0  0  0
    7.1874   -2.9733    1.1446 H   0  0  0  0  0  0  0  0  0  0  0  0
   -1.4655   -2.5867    0.4573 H   0  0  0  0  0  0  0  0  0  0  0  0
   -1.8702   -2.0478    2.0753 H   0  0  0  0  0  0  0  0  0  0  0  0
   -0.6186   -0.4561    3.2378 H   0  0  0  0  0  0  0  0  0  0  0  0
    1.0736   -0.2179    2.8758 H   0  0  0  0  0  0  0  0  0  0  0  0
    3.8271    0.0261   -0.9067 H   0  0  0  0  0  0  0  0  0  0  0  0
    4.8364   -3.1073    1.8649 H   0  0  0  0  0  0  0  0  0  0  0  0
    0.3192   -0.8016    0.3633 H   0  0  0  0  0  0  0  0  0  0  0  0
    2.2876   -0.7413    0.5406 H   0  0  0  0  0  0  0  0  0  0  0  0
    1.9544   -4.1859    2.2080 H   0  0  0  0  0  0  0  0  0  0  0  0
  1 19  1  0  0  0  0
  2 20  1  0  0  0  0
  2  1  1  0  0  0  0
  2  5  1  0  0  0  0
  3  7  2  0  0  0  0
  4  8  1  0  0  0  0
  4  1  1  0  0  0  0
  5  9  1  0  0  0  0
  5 25  1  0  0  0  0
  6 10  2  0  0  0  0
  6  3  1  0  0  0  0
  7 11  1  0  0  0  0
  7 28  1  0  0  0  0
  8 12  1  0  0  0  0
  8 30  1  0  0  0  0
  9 32  1  0  0  0  0
  9 31  1  0  0  0  0
 10 13  1  0  0  0  0
 11 34  1  0  0  0  0
 12 15  1  0  0  0  0
 12  9  1  0  0  0  0
 13 16  1  0  0  0  0
 13 11  2  0  0  0  0
 14 15  2  0  0  0  0
 14 17  1  0  0  0  0
 16 14  1  0  0  0  0
 17 37  1  0  0  0  0
 18  1  1  0  0  0  0
 21  2  1  0  0  0  0
 22  3  1  0  0  0  0
 23  4  1  0  0  0  0
 24  4  1  0  0  0  0
 26  5  1  0  0  0  0
 27  6  1  0  0  0  0
 29  8  1  0  0  0  0
 33 10  1  0  0  0  0
 35 12  1  0  0  0  0
 36 16  1  0  0  0  0
M  END
>  <HBA>
3

>  <HBD>
2

>  <TPSA>
41.13

>  <cid>
29427

>  <dipole>
1.09

>  <excitation_energy_1>
4.726

>  <excitation_energy_2>
4.883

>  <excitation_energy_3>
5.049

>  <excitation_energy_4>
5.441

>  <homo_energy>
-5.576

>  <homo_lumo_gap>
5.611

>  <logP>
3.995

>  <lumo_energy>
0.035

>  <melting_point>
114.7

>  <molecular_refractivity>
70.67

>  <oscillator_strength_1>
0.0196

>  <oscillator_strength_2>
0.0014

>  <oscillator_strength_3>
0.4839

>  <oscillator_strength_4>
0.0028

>  <open_babel_can_smiles>
O/C(=N/C1CCCCCC1)/Nc1ccccc1

>  <mulliken_charges>
37
1   -0.253586
2   -0.258835
3   -0.130722
4   -0.266699
5   -0.267817
6   -0.131523
7   -0.142129
8   -0.249263
9   -0.263692
10   -0.19969
11   -0.15251
12   0.006943
13   0.358012
14   0.69917
15   -0.504113
16   -0.747367
17   -0.608113
18   0.129676
19   0.130231
20   0.131757
21   0.126137
22   0.126593
23   0.125471
24   0.13127
25   0.135561
26   0.123197
27   0.129819
28   0.130768
29   0.136899
30   0.134166
31   0.140454
32   0.139231
33   0.120937
34   0.164048
35   0.094583
36   0.344648
37   0.416487

>  <lowdin_charges>
37
1   -0.27962
2   -0.280343
3   -0.173748
4   -0.277251
5   -0.282605
6   -0.14846
7   -0.148254
8   -0.277789
9   -0.290881
10   -0.194562
11   -0.183488
12   -0.064116
13   0.064136
14   0.162776
15   -0.285569
16   -0.253054
17   -0.368046
18   0.145083
19   0.137874
20   0.143247
21   0.134338
22   0.156132
23   0.134216
24   0.144368
25   0.144689
26   0.136818
27   0.159035
28   0.159841
29   0.148934
30   0.142752
31   0.146317
32   0.147838
33   0.153735
34   0.177116
35   0.111069
36   0.290453
37   0.367019

$$$$

