PCCDB-ID:  66169
public computational chemistry database (PCCDB) project, http://pccdb.org

 22 21  0  0  0  0  0  0  0  0999 V2000
    1.3732   -0.6069    0.0159 C   0  0  0  0  0  0  0  0  0  0  0  0
    2.3895    2.1606    1.2258 C   0  0  0  0  0  0  0  0  0  0  0  0
    2.8215   -0.1529    0.2448 C   0  0  0  0  0  0  0  0  0  0  0  0
    2.5442    0.2104    2.7673 C   0  0  0  0  0  0  0  0  0  0  0  0
    4.6012    1.0414    1.5706 C   0  0  0  0  0  0  0  0  0  0  0  0
    3.0748    0.7994    1.4418 C   0  0  0  0  0  0  0  0  0  0  0  0
    3.1404   -1.0449    3.1328 O   0  0  0  0  0  0  0  0  0  0  0  0
    5.3686   -0.1406    1.7178 O   0  0  0  0  0  0  0  0  0  0  0  0
    1.3118   -1.2437   -0.8736 H   0  0  0  0  0  0  0  0  0  0  0  0
    0.6944    0.2385   -0.1411 H   0  0  0  0  0  0  0  0  0  0  0  0
    0.9768   -1.1911    0.8565 H   0  0  0  0  0  0  0  0  0  0  0  0
    1.2984    2.0684    1.1871 H   0  0  0  0  0  0  0  0  0  0  0  0
    2.7184    2.6157    0.2842 H   0  0  0  0  0  0  0  0  0  0  0  0
    2.6315    2.8603    2.0356 H   0  0  0  0  0  0  0  0  0  0  0  0
    3.1817    0.3525   -0.6615 H   0  0  0  0  0  0  0  0  0  0  0  0
    3.4712   -1.0290    0.3591 H   0  0  0  0  0  0  0  0  0  0  0  0
    1.4495    0.1141    2.7399 H   0  0  0  0  0  0  0  0  0  0  0  0
    2.7890    0.8867    3.5934 H   0  0  0  0  0  0  0  0  0  0  0  0
    4.7760    1.7361    2.4122 H   0  0  0  0  0  0  0  0  0  0  0  0
    4.9694    1.5368    0.6637 H   0  0  0  0  0  0  0  0  0  0  0  0
    2.8404   -1.7101    2.4933 H   0  0  0  0  0  0  0  0  0  0  0  0
    4.9426   -0.6425    2.4377 H   0  0  0  0  0  0  0  0  0  0  0  0
  1  3  1  0  0  0  0
  1 11  1  0  0  0  0
  2  6  1  0  0  0  0
  2 14  1  0  0  0  0
  3 16  1  0  0  0  0
  3  6  1  0  0  0  0
  4  7  1  0  0  0  0
  4 18  1  0  0  0  0
  5  8  1  0  0  0  0
  5 19  1  0  0  0  0
  6  5  1  0  0  0  0
  6  4  1  0  0  0  0
  8 22  1  0  0  0  0
  9  1  1  0  0  0  0
 10  1  1  0  0  0  0
 12  2  1  0  0  0  0
 13  2  1  0  0  0  0
 15  3  1  0  0  0  0
 17  4  1  0  0  0  0
 20  5  1  0  0  0  0
 21  7  1  0  0  0  0
M  END
>  <HBA>
2

>  <HBD>
2

>  <TPSA>
40.46

>  <cid>
66169

>  <dipole>
2.71

>  <excitation_energy_1>
6.141

>  <excitation_energy_2>
6.561

>  <excitation_energy_3>
6.604

>  <excitation_energy_4>
6.852

>  <homo_energy>
-6.748

>  <homo_lumo_gap>
8.052

>  <logP>
0.387

>  <lumo_energy>
1.303

>  <melting_point>
29.36

>  <molecular_refractivity>
33.02

>  <oscillator_strength_1>
0.0024

>  <oscillator_strength_2>
0.0055

>  <oscillator_strength_3>
0.0121

>  <oscillator_strength_4>
0.0155

>  <open_babel_can_smiles>
CCC(CO)(CO)C

>  <mulliken_charges>
22
1   -0.459163
2   -0.464508
3   -0.269635
4   -0.055506
5   -0.012924
6   0.037629
7   -0.630876
8   -0.643947
9   0.151833
10   0.150926
11   0.131559
12   0.147142
13   0.149181
14   0.144674
15   0.137866
16   0.143539
17   0.135659
18   0.149981
19   0.109611
20   0.133021
21   0.405676
22   0.408263

>  <lowdin_charges>
22
1   -0.45326
2   -0.443118
3   -0.285168
4   -0.140939
5   -0.135064
6   -0.03192
7   -0.463321
8   -0.482423
9   0.155848
10   0.150691
11   0.140064
12   0.148902
13   0.153914
14   0.151119
15   0.14853
16   0.147293
17   0.133284
18   0.151175
19   0.122315
20   0.141735
21   0.349552
22   0.340791

$$$$

