PCCDB-ID:  15392
public computational chemistry database (PCCDB) project, http://pccdb.org

 23 24  0  0  1  0  0  0  0  0999 V2000
    0.9883   -0.5028    0.2649 C   0  0  0  0  0  0  0  0  0  0  0  0
    3.0996    0.4019   -4.3152 C   0  0  0  0  0  0  0  0  0  0  0  0
    3.3070    1.4779   -3.4541 C   0  0  0  0  0  0  0  0  0  0  0  0
    2.6826   -0.8249   -3.7924 C   0  0  0  0  0  0  0  0  0  0  0  0
    3.0944    1.3319   -2.0808 C   0  0  0  0  0  0  0  0  0  0  0  0
    2.4681   -0.9671   -2.4229 C   0  0  0  0  0  0  0  0  0  0  0  0
    3.5443   -0.8738    0.7265 C   0  0  0  0  0  0  0  0  0  0  0  0
    2.6674    0.1099   -1.5443 C   0  0  0  0  0  0  0  0  0  0  0  0
    2.9730    0.9951    0.8768 C   0  0  0  0  0  0  0  0  0  0  0  0
    2.4307   -0.0754   -0.0541 C   0  0  1  0  0  0  0  0  0  0  0  0
    3.8651    0.3495    1.5333 N   0  0  0  0  0  0  0  0  0  0  0  0
    2.6391    2.2920    1.0534 O   0  0  0  0  0  0  0  0  0  0  0  0
    0.7389   -1.4471   -0.2299 H   0  0  0  0  0  0  0  0  0  0  0  0
    0.2683    0.2480   -0.0834 H   0  0  0  0  0  0  0  0  0  0  0  0
    0.8526   -0.6364    1.3437 H   0  0  0  0  0  0  0  0  0  0  0  0
    3.2660    0.5137   -5.3831 H   0  0  0  0  0  0  0  0  0  0  0  0
    3.6393    2.4354   -3.8463 H   0  0  0  0  0  0  0  0  0  0  0  0
    2.5257   -1.6736   -4.4530 H   0  0  0  0  0  0  0  0  0  0  0  0
    3.2803    2.1771   -1.4243 H   0  0  0  0  0  0  0  0  0  0  0  0
    2.1510   -1.9305   -2.0309 H   0  0  0  0  0  0  0  0  0  0  0  0
    4.3861   -1.2085    0.1127 H   0  0  0  0  0  0  0  0  0  0  0  0
    3.1762   -1.7030    1.3412 H   0  0  0  0  0  0  0  0  0  0  0  0
    1.8961    2.5037    0.4669 H   0  0  0  0  0  0  0  0  0  0  0  0
  1 15  1  0  0  0  0
  2  4  2  0  0  0  0
  2  3  1  0  0  0  0
  3  5  2  0  0  0  0
  4  6  1  0  0  0  0
  5  8  1  0  0  0  0
  5 19  1  0  0  0  0
  6 20  1  0  0  0  0
  6  8  2  0  0  0  0
  7 22  1  0  0  0  0
  7 11  1  0  0  0  0
  8 10  1  0  0  0  0
  9 12  1  0  0  0  0
  9 11  2  0  0  0  0
 10  1  1  1  0  0  0
 10  7  1  0  0  0  0
 10  9  1  0  0  0  0
 13  1  1  0  0  0  0
 14  1  1  0  0  0  0
 16  2  1  0  0  0  0
 17  3  1  0  0  0  0
 18  4  1  0  0  0  0
 21  7  1  0  0  0  0
 23 12  1  0  0  0  0
M  END
>  <HBA>
2

>  <HBD>
1

>  <TPSA>
29.1

>  <cid>
15392

>  <dipole>
4.15

>  <excitation_energy_1>
5.213

>  <excitation_energy_2>
5.619

>  <excitation_energy_3>
5.766

>  <excitation_energy_4>
5.84

>  <homo_energy>
-6.553

>  <homo_lumo_gap>
6.245

>  <logP>
1.403

>  <lumo_energy>
-0.307

>  <melting_point>
83.25

>  <molecular_refractivity>
50.51

>  <oscillator_strength_1>
0.0025

>  <oscillator_strength_2>
0.0598

>  <oscillator_strength_3>
0.009

>  <oscillator_strength_4>
0.008

>  <open_babel_can_smiles>
OC1=NC[C@]1(C)c1ccccc1

>  <mulliken_charges>
23
1   -0.463107
2   -0.126093
3   -0.132579
4   -0.131562
5   -0.200838
6   -0.173147
7   -0.141464
8   0.158235
9   0.501794
10   -0.119386
11   -0.429604
12   -0.590212
13   0.161037
14   0.145676
15   0.162776
16   0.132694
17   0.134578
18   0.133412
19   0.132263
20   0.12885
21   0.155733
22   0.143747
23   0.417197

>  <lowdin_charges>
23
1   -0.43848
2   -0.15504
3   -0.151327
4   -0.152469
5   -0.17998
6   -0.163607
7   -0.19208
8   -0.005273
9   0.09877
10   -0.023042
11   -0.214105
12   -0.350218
13   0.158387
14   0.151491
15   0.157674
16   0.157828
17   0.159938
18   0.160165
19   0.159173
20   0.156398
21   0.153107
22   0.146377
23   0.366312

$$$$

