PCCDB-ID:  25768
public computational chemistry database (PCCDB) project, http://pccdb.org

 24 25  0  0  0  0  0  0  0  0999 V2000
    1.1102   -0.2141   -0.0482 C   0  0  0  0  0  0  0  0  0  0  0  0
    7.0741    1.1317   -0.0604 C   0  0  0  0  0  0  0  0  0  0  0  0
    3.9281    4.8131   -0.0560 C   0  0  0  0  0  0  0  0  0  0  0  0
    3.4602   -1.0556   -0.0548 C   0  0  0  0  0  0  0  0  0  0  0  0
    3.3124    1.1345   -0.0532 C   0  0  0  0  0  0  0  0  0  0  0  0
    4.6318    0.6919   -0.0573 C   0  0  0  0  0  0  0  0  0  0  0  0
    2.9504    2.5101   -0.0527 C   0  0  0  0  0  0  0  0  0  0  0  0
    5.4292    2.9395   -0.0560 C   0  0  0  0  0  0  0  0  0  0  0  0
    4.7284   -0.6594   -0.0586 N   0  0  0  0  0  0  0  0  0  0  0  0
    2.5605   -0.0428   -0.0510 N   0  0  0  0  0  0  0  0  0  0  0  0
    5.6797    1.5755   -0.0608 N   0  0  0  0  0  0  0  0  0  0  0  0
    4.0744    3.3491   -0.0590 N   0  0  0  0  0  0  0  0  0  0  0  0
    6.3386    3.7551   -0.0515 O   0  0  0  0  0  0  0  0  0  0  0  0
    1.3665    3.0740   -0.0477 S   0  0  0  0  0  0  0  0  0  0  0  0
    0.9053   -1.2876   -0.0383 H   0  0  0  0  0  0  0  0  0  0  0  0
    0.6707    0.2415   -0.9365 H   0  0  0  0  0  0  0  0  0  0  0  0
    0.6727    0.2577    0.8324 H   0  0  0  0  0  0  0  0  0  0  0  0
    7.0755    0.0428   -0.0825 H   0  0  0  0  0  0  0  0  0  0  0  0
    7.5804    1.4948    0.8374 H   0  0  0  0  0  0  0  0  0  0  0  0
    7.5904    1.5322   -0.9361 H   0  0  0  0  0  0  0  0  0  0  0  0
    2.8673    5.0487   -0.0638 H   0  0  0  0  0  0  0  0  0  0  0  0
    4.4230    5.2283   -0.9365 H   0  0  0  0  0  0  0  0  0  0  0  0
    4.4079    5.2244    0.8348 H   0  0  0  0  0  0  0  0  0  0  0  0
    3.1431   -2.0903   -0.0551 H   0  0  0  0  0  0  0  0  0  0  0  0
  1 15  1  0  0  0  0
  1 17  1  0  0  0  0
  2 19  1  0  0  0  0
  3 23  1  0  0  0  0
  4 10  1  0  0  0  0
  5  7  1  0  0  0  0
  5 10  1  0  0  0  0
  6  5  2  0  0  0  0
  7 14  2  0  0  0  0
  8 13  2  0  0  0  0
  9  6  1  0  0  0  0
  9  4  2  0  0  0  0
 10  1  1  0  0  0  0
 11  2  1  0  0  0  0
 11  6  1  0  0  0  0
 11  8  1  0  0  0  0
 12  8  1  0  0  0  0
 12  3  1  0  0  0  0
 12  7  1  0  0  0  0
 16  1  1  0  0  0  0
 18  2  1  0  0  0  0
 20  2  1  0  0  0  0
 21  3  1  0  0  0  0
 22  3  1  0  0  0  0
 24  4  1  0  0  0  0
M  END
>  <HBA>
6

>  <HBD>
0

>  <TPSA>
76.84

>  <cid>
25768

>  <dipole>
3.83

>  <excitation_energy_1>
3.022

>  <excitation_energy_2>
3.927

>  <excitation_energy_3>
4.638

>  <excitation_energy_4>
5.038

>  <homo_energy>
-5.829

>  <homo_lumo_gap>
4.182

>  <logP>
0.34

>  <lumo_energy>
-1.646

>  <melting_point>
151.29

>  <molecular_refractivity>
56.6

>  <oscillator_strength_1>
0.0

>  <oscillator_strength_2>
0.2931

>  <oscillator_strength_3>
0.055

>  <oscillator_strength_4>
0.0002

>  <open_babel_can_smiles>
Cn1cnc2c1c(=S)n(C)c(=O)n2C

>  <mulliken_charges>
24
1   -0.315502
2   -0.32438
3   -0.309804
4   0.229058
5   0.250713
6   0.481393
7   0.185834
8   0.793722
9   -0.508191
10   -0.482018
11   -0.583326
12   -0.524022
13   -0.520557
14   -0.265585
15   0.162005
16   0.206271
17   0.20712
18   0.201753
19   0.185418
20   0.186184
21   0.206256
22   0.181828
23   0.181689
24   0.174141

>  <lowdin_charges>
24
1   -0.339771
2   -0.340607
3   -0.349714
4   -0.055171
5   -0.054471
6   0.065563
7   -0.037823
8   0.192303
9   -0.202645
10   0.012253
11   -0.044795
12   -0.063612
13   -0.30239
14   -0.229852
15   0.16015
16   0.181957
17   0.182569
18   0.180652
19   0.171198
20   0.172125
21   0.186142
22   0.170544
23   0.170256
24   0.175137

$$$$

