PCCDB-ID:  13207
public computational chemistry database (PCCDB) project, http://pccdb.org

 23 23  0  0  0  0  0  0  0  0999 V2000
    2.4856   -0.4939   -1.4484 C   0  0  0  0  0  0  0  0  0  0  0  0
    2.0986    3.7623    0.8982 C   0  0  0  0  0  0  0  0  0  0  0  0
    1.7617    2.6140    1.8611 C   0  0  0  0  0  0  0  0  0  0  0  0
    2.4479    3.2342   -0.5016 C   0  0  0  0  0  0  0  0  0  0  0  0
    2.8815    1.5605    1.9145 C   0  0  0  0  0  0  0  0  0  0  0  0
    3.5933    2.2113   -0.4382 C   0  0  0  0  0  0  0  0  0  0  0  0
    2.2315    0.0668   -0.0544 C   0  0  0  0  0  0  0  0  0  0  0  0
    3.2727    1.0368    0.5200 C   0  0  0  0  0  0  0  0  0  0  0  0
    1.2477   -0.2764    0.5761 O   0  0  0  0  0  0  0  0  0  0  0  0
    2.1797    0.2389   -2.2061 H   0  0  0  0  0  0  0  0  0  0  0  0
    1.8869   -1.3971   -1.5845 H   0  0  0  0  0  0  0  0  0  0  0  0
    3.5451   -0.7146   -1.6195 H   0  0  0  0  0  0  0  0  0  0  0  0
    2.9571    4.3292    1.2894 H   0  0  0  0  0  0  0  0  0  0  0  0
    1.2600    4.4676    0.8392 H   0  0  0  0  0  0  0  0  0  0  0  0
    0.8328    2.1265    1.5425 H   0  0  0  0  0  0  0  0  0  0  0  0
    1.5804    3.0081    2.8692 H   0  0  0  0  0  0  0  0  0  0  0  0
    2.7276    4.0627   -1.1648 H   0  0  0  0  0  0  0  0  0  0  0  0
    1.5568    2.7663   -0.9463 H   0  0  0  0  0  0  0  0  0  0  0  0
    2.5742    0.7219    2.5474 H   0  0  0  0  0  0  0  0  0  0  0  0
    3.7758    2.0039    2.3748 H   0  0  0  0  0  0  0  0  0  0  0  0
    4.4983    2.7119   -0.0673 H   0  0  0  0  0  0  0  0  0  0  0  0
    3.8379    1.8411   -1.4409 H   0  0  0  0  0  0  0  0  0  0  0  0
    4.1894    0.4303    0.6103 H   0  0  0  0  0  0  0  0  0  0  0  0
  1  7  1  0  0  0  0
  2 13  1  0  0  0  0
  2  3  1  0  0  0  0
  3  5  1  0  0  0  0
  3 16  1  0  0  0  0
  4  6  1  0  0  0  0
  4  2  1  0  0  0  0
  5 20  1  0  0  0  0
  5 19  1  0  0  0  0
  6 21  1  0  0  0  0
  6  8  1  0  0  0  0
  7  8  1  0  0  0  0
  7  9  2  0  0  0  0
  8 23  1  0  0  0  0
  8  5  1  0  0  0  0
 10  1  1  0  0  0  0
 11  1  1  0  0  0  0
 12  1  1  0  0  0  0
 14  2  1  0  0  0  0
 15  3  1  0  0  0  0
 17  4  1  0  0  0  0
 18  4  1  0  0  0  0
 22  6  1  0  0  0  0
M  END
>  <HBA>
1

>  <HBD>
0

>  <TPSA>
17.07

>  <cid>
13207

>  <dipole>
2.58

>  <excitation_energy_1>
4.298

>  <excitation_energy_2>
5.962

>  <excitation_energy_3>
6.511

>  <excitation_energy_4>
6.615

>  <homo_energy>
-6.498

>  <homo_lumo_gap>
6.177

>  <logP>
2.156

>  <lumo_energy>
-0.321

>  <melting_point>
16.08

>  <molecular_refractivity>
38.66

>  <oscillator_strength_1>
0.0001

>  <oscillator_strength_2>
0.0125

>  <oscillator_strength_3>
0.0392

>  <oscillator_strength_4>
0.004

>  <open_babel_can_smiles>
CC(=O)C1CCCCC1

>  <mulliken_charges>
23
1   -0.534307
2   -0.25462
3   -0.266694
4   -0.261419
5   -0.255867
6   -0.275858
7   0.458028
8   -0.180601
9   -0.44385
10   0.177022
11   0.179182
12   0.160399
13   0.124658
14   0.131791
15   0.156998
16   0.129023
17   0.133275
18   0.133915
19   0.150741
20   0.122705
21   0.138112
22   0.135055
23   0.14231

>  <lowdin_charges>
23
1   -0.477972
2   -0.279187
3   -0.280965
4   -0.28206
5   -0.277922
6   -0.277816
7   0.164304
8   -0.16399
9   -0.23836
10   0.174813
11   0.173947
12   0.161175
13   0.13629
14   0.144719
15   0.151906
16   0.143178
17   0.145996
18   0.13971
19   0.156771
20   0.139336
21   0.145443
22   0.143846
23   0.156837

$$$$

