PCCDB-ID:  513
public computational chemistry database (PCCDB) project, http://pccdb.org

 24 23  0  0  1  0  0  0  0  0999 V2000
    2.0858   -0.1235   -1.8982 C   0  0  0  0  0  0  0  0  0  0  0  0
    4.2237    1.7364   -0.4755 C   0  0  0  0  0  0  0  0  0  0  0  0
    2.6858    1.9158   -0.5063 C   0  0  1  0  0  0  0  0  0  0  0  0
    4.7719    1.5535    0.9219 C   0  0  0  0  0  0  0  0  0  0  0  0
    2.3153    3.3740   -0.1592 C   0  0  0  0  0  0  0  0  0  0  0  0
    2.7905    1.9906   -3.0805 C   0  0  0  0  0  0  0  0  0  0  0  0
    2.0540    1.4091   -1.8364 C   0  0  1  0  0  0  0  0  0  0  0  0
    4.1622    1.7611    1.9599 O   0  0  0  0  0  0  0  0  0  0  0  0
    6.0396    1.1211    0.9146 O   0  0  0  0  0  0  0  0  0  0  0  0
    1.9838    4.2199   -0.9675 O   0  0  0  0  0  0  0  0  0  0  0  0
    2.4084    3.6907    1.1345 O   0  0  0  0  0  0  0  0  0  0  0  0
    3.5837    1.3310   -3.7182 O   0  0  0  0  0  0  0  0  0  0  0  0
    2.4758    3.2440   -3.4089 O   0  0  0  0  0  0  0  0  0  0  0  0
    0.6999    1.8619   -1.7893 O   0  0  0  0  0  0  0  0  0  0  0  0
    3.1005   -0.5259   -1.9046 H   0  0  0  0  0  0  0  0  0  0  0  0
    1.6112   -0.4655   -2.8243 H   0  0  0  0  0  0  0  0  0  0  0  0
    1.5325   -0.5335   -1.0473 H   0  0  0  0  0  0  0  0  0  0  0  0
    4.7350    2.5946   -0.9312 H   0  0  0  0  0  0  0  0  0  0  0  0
    4.5303    0.8746   -1.0750 H   0  0  0  0  0  0  0  0  0  0  0  0
    2.2516    1.2891    0.2816 H   0  0  0  0  0  0  0  0  0  0  0  0
    6.3269    1.0519    1.8457 H   0  0  0  0  0  0  0  0  0  0  0  0
    2.8205    2.9521    1.6408 H   0  0  0  0  0  0  0  0  0  0  0  0
    2.0006    3.6671   -2.6474 H   0  0  0  0  0  0  0  0  0  0  0  0
    0.2351    1.4955   -2.5588 H   0  0  0  0  0  0  0  0  0  0  0  0
  1  7  1  0  0  0  0
  1 17  1  0  0  0  0
  2  4  1  0  0  0  0
  3  2  1  0  0  0  0
  3  5  1  0  0  0  0
  3 20  1  1  0  0  0
  4  8  2  0  0  0  0
  5 11  1  0  0  0  0
  7  6  1  6  0  0  0
  7 14  1  0  0  0  0
  7  3  1  0  0  0  0
  9  4  1  0  0  0  0
  9 21  1  0  0  0  0
 10  5  2  0  0  0  0
 11 22  1  0  0  0  0
 12  6  2  0  0  0  0
 13  6  1  0  0  0  0
 13 23  1  0  0  0  0
 15  1  1  0  0  0  0
 16  1  1  0  0  0  0
 18  2  1  0  0  0  0
 19  2  1  0  0  0  0
 24 14  1  0  0  0  0
M  END
>  <HBA>
7

>  <HBD>
4

>  <TPSA>
132.13

>  <cid>
513

>  <dipole>
5.32

>  <excitation_energy_1>
5.27

>  <excitation_energy_2>
5.458

>  <excitation_energy_3>
5.685

>  <excitation_energy_4>
5.98

>  <homo_energy>
-7.048

>  <homo_lumo_gap>
6.044

>  <logP>
-1.002

>  <lumo_energy>
-1.004

>  <melting_point>
233.89

>  <molecular_refractivity>
42.28

>  <oscillator_strength_1>
0.0019

>  <oscillator_strength_2>
0.0006

>  <oscillator_strength_3>
0.0006

>  <oscillator_strength_4>
0.0001

>  <open_babel_can_smiles>
OC(=O)C[C@H]([C@](C(=O)O)(O)C)C(=O)O

>  <mulliken_charges>
24
1   -0.464445
2   -0.392966
3   -0.237626
4   0.603142
5   0.637938
6   0.583663
7   0.18647
8   -0.487607
9   -0.542633
10   -0.474447
11   -0.577118
12   -0.468981
13   -0.588326
14   -0.632747
15   0.171598
16   0.159913
17   0.155874
18   0.223577
19   0.223148
20   0.181641
21   0.425895
22   0.449591
23   0.460524
24   0.403921

>  <lowdin_charges>
24
1   -0.451446
2   -0.305983
3   -0.170127
4   0.214533
5   0.211631
6   0.160604
7   0.082239
8   -0.283921
9   -0.323627
10   -0.256456
11   -0.339795
12   -0.261672
13   -0.346955
14   -0.444716
15   0.16641
16   0.163156
17   0.157572
18   0.196743
19   0.196739
20   0.174429
21   0.371554
22   0.365577
23   0.370077
24   0.353433

$$$$

