PCCDB-ID:  13853
public computational chemistry database (PCCDB) project, http://pccdb.org

 16 16  0  0  1  0  0  0  0  0999 V2000
    0.9406   -0.0088    0.1863 C   0  0  0  0  0  0  0  0  0  0  0  0
    2.4479   -0.1322   -0.0567 C   0  0  0  0  0  0  0  0  0  0  0  0
    3.0913    1.1911   -0.4978 C   0  0  0  0  0  0  0  0  0  0  0  0
    5.5903    1.3875    0.2411 C   0  0  0  0  0  0  0  0  0  0  0  0
    4.5725    1.0609   -0.7691 C   0  0  2  0  0  0  0  0  0  0  0  0
    5.3275    2.2785   -0.8498 O   0  0  0  0  0  0  0  0  0  0  0  0
    0.5071   -0.9663    0.4960 H   0  0  0  0  0  0  0  0  0  0  0  0
    0.4187    0.3166   -0.7219 H   0  0  0  0  0  0  0  0  0  0  0  0
    0.7248    0.7253    0.9721 H   0  0  0  0  0  0  0  0  0  0  0  0
    2.6330   -0.8999   -0.8213 H   0  0  0  0  0  0  0  0  0  0  0  0
    2.9418   -0.4880    0.8579 H   0  0  0  0  0  0  0  0  0  0  0  0
    2.9404    1.9621    0.2691 H   0  0  0  0  0  0  0  0  0  0  0  0
    2.5961    1.5568   -1.4087 H   0  0  0  0  0  0  0  0  0  0  0  0
    6.5624    0.8934    0.2206 H   0  0  0  0  0  0  0  0  0  0  0  0
    5.2758    1.7464    1.2224 H   0  0  0  0  0  0  0  0  0  0  0  0
    4.8443    0.3283   -1.5342 H   0  0  0  0  0  0  0  0  0  0  0  0
  1  7  1  0  0  0  0
  1  9  1  0  0  0  0
  2  1  1  0  0  0  0
  2 11  1  0  0  0  0
  3  2  1  0  0  0  0
  3 12  1  0  0  0  0
  4 15  1  0  0  0  0
  5 16  1  6  0  0  0
  5  3  1  0  0  0  0
  5  4  1  0  0  0  0
  6  5  1  0  0  0  0
  6  4  1  0  0  0  0
  8  1  1  0  0  0  0
 10  2  1  0  0  0  0
 13  3  1  0  0  0  0
 14  4  1  0  0  0  0
M  END
>  <HBA>
1

>  <HBD>
0

>  <TPSA>
12.53

>  <cid>
13853

>  <dipole>
2.06

>  <excitation_energy_1>
6.784

>  <excitation_energy_2>
7.123

>  <excitation_energy_3>
7.241

>  <excitation_energy_4>
7.28

>  <homo_energy>
-7.089

>  <homo_lumo_gap>
9.516

>  <logP>
1.185

>  <lumo_energy>
2.427

>  <melting_point>
-12.27

>  <molecular_refractivity>
25.12

>  <oscillator_strength_1>
0.0191

>  <oscillator_strength_2>
0.0039

>  <oscillator_strength_3>
0.0153

>  <oscillator_strength_4>
0.0103

>  <open_babel_can_smiles>
CCC[C@@H]1CO1

>  <mulliken_charges>
16
1   -0.441432
2   -0.256583
3   -0.274551
4   -0.109723
5   0.110201
6   -0.450581
7   0.145184
8   0.14541
9   0.144939
10   0.1351
11   0.136351
12   0.141417
13   0.144997
14   0.147002
15   0.145564
16   0.136705

>  <lowdin_charges>
16
1   -0.444617
2   -0.273551
3   -0.280372
4   -0.168726
5   -0.023192
6   -0.289213
7   0.151353
8   0.148903
9   0.148926
10   0.141573
11   0.142118
12   0.150634
13   0.150392
14   0.151279
15   0.149173
16   0.14532

$$$$

