PCCDB-ID:  57247
public computational chemistry database (PCCDB) project, http://pccdb.org

 21 21  0  0  0  0  0  0  0  0999 V2000
    1.7857   -0.1598    0.0345 C   0  0  0  0  0  0  0  0  0  0  0  0
    0.8542   -1.2377    0.6131 C   0  0  0  0  0  0  0  0  0  0  0  0
    1.0481    1.0427   -0.5791 C   0  0  0  0  0  0  0  0  0  0  0  0
   -0.3698   -1.5474   -0.2612 C   0  0  0  0  0  0  0  0  0  0  0  0
   -0.1795    1.5198    0.2151 C   0  0  0  0  0  0  0  0  0  0  0  0
   -3.8814   -0.3245   -0.4136 C   0  0  0  0  0  0  0  0  0  0  0  0
   -1.4629   -0.4859   -0.1772 C   0  0  0  0  0  0  0  0  0  0  0  0
   -4.8940    0.2517   -0.4490 N   0  0  0  0  0  0  0  0  0  0  0  0
   -1.4109    0.7582    0.0500 N   0  0  0  0  0  0  0  0  0  0  0  0
   -2.7510   -1.0470   -0.3890 N   0  0  0  0  0  0  0  0  0  0  0  0
    2.4360   -0.6065   -0.7294 H   0  0  0  0  0  0  0  0  0  0  0  0
    2.4505    0.1861    0.8367 H   0  0  0  0  0  0  0  0  0  0  0  0
    0.5002   -0.9326    1.6055 H   0  0  0  0  0  0  0  0  0  0  0  0
    1.4227   -2.1631    0.7653 H   0  0  0  0  0  0  0  0  0  0  0  0
    0.7156    0.8053   -1.5986 H   0  0  0  0  0  0  0  0  0  0  0  0
    1.7509    1.8795   -0.6807 H   0  0  0  0  0  0  0  0  0  0  0  0
   -0.7989   -2.5081    0.0535 H   0  0  0  0  0  0  0  0  0  0  0  0
   -0.0741   -1.6805   -1.3118 H   0  0  0  0  0  0  0  0  0  0  0  0
   -0.4198    2.5448   -0.0903 H   0  0  0  0  0  0  0  0  0  0  0  0
    0.0567    1.5802    1.2885 H   0  0  0  0  0  0  0  0  0  0  0  0
   -2.8390   -2.0459   -0.5141 H   0  0  0  0  0  0  0  0  0  0  0  0
  1  2  1  0  0  0  0
  1 12  1  0  0  0  0
  2 14  1  0  0  0  0
  2 13  1  0  0  0  0
  3  1  1  0  0  0  0
  3  5  1  0  0  0  0
  4  7  1  0  0  0  0
  4 17  1  0  0  0  0
  4  2  1  0  0  0  0
  5 20  1  0  0  0  0
  6 10  1  0  0  0  0
  7  9  2  0  0  0  0
  8  6  3  0  0  0  0
  9  5  1  0  0  0  0
 10  7  1  0  0  0  0
 11  1  1  0  0  0  0
 15  3  1  0  0  0  0
 16  3  1  0  0  0  0
 18  4  1  0  0  0  0
 19  5  1  0  0  0  0
 21 10  1  0  0  0  0
M  END
>  <HBA>
3

>  <HBD>
1

>  <TPSA>
48.18

>  <cid>
57247

>  <dipole>
6.39

>  <excitation_energy_1>
5.195

>  <excitation_energy_2>
5.444

>  <excitation_energy_3>
5.72

>  <excitation_energy_4>
5.897

>  <homo_energy>
-6.596

>  <homo_lumo_gap>
6.572

>  <logP>
0.856

>  <lumo_energy>
-0.024

>  <melting_point>
74.3

>  <molecular_refractivity>
43.21

>  <oscillator_strength_1>
0.0009

>  <oscillator_strength_2>
0.0005

>  <oscillator_strength_3>
0.0091

>  <oscillator_strength_4>
0.1609

>  <open_babel_can_smiles>
N#CNC1=NCCCCC1

>  <mulliken_charges>
21
1   -0.262134
2   -0.264484
3   -0.282469
4   -0.36067
5   -0.149653
6   0.548121
7   0.516758
8   -0.441272
9   -0.447602
10   -0.702219
11   0.137454
12   0.140867
13   0.153465
14   0.144275
15   0.143736
16   0.142032
17   0.145806
18   0.176065
19   0.157866
20   0.147975
21   0.356081

>  <lowdin_charges>
21
1   -0.282521
2   -0.276139
3   -0.294079
4   -0.299057
5   -0.198444
6   0.021324
7   0.098985
8   -0.149243
9   -0.199448
10   -0.235541
11   0.145812
12   0.147746
13   0.150443
14   0.152661
15   0.144559
16   0.153098
17   0.154065
18   0.16412
19   0.154125
20   0.145857
21   0.301679

$$$$

