PCCDB-ID:  31374
public computational chemistry database (PCCDB) project, http://pccdb.org

 15 14  0  0  0  0  0  0  0  0999 V2000
    3.3571    1.2890   -0.5051 C   0  0  0  0  0  0  0  0  0  0  0  0
    4.7213   -1.1630    0.3456 C   0  0  0  0  0  0  0  0  0  0  0  0
    2.5570   -2.1793    0.9112 C   0  0  0  0  0  0  0  0  0  0  0  0
    2.5677    0.0941    0.0203 C   0  0  0  0  0  0  0  0  0  0  0  0
    3.2783   -1.0221    0.4040 N   0  0  0  0  0  0  0  0  0  0  0  0
    1.3438    0.1399    0.0925 O   0  0  0  0  0  0  0  0  0  0  0  0
    4.0679    1.6736    0.2350 H   0  0  0  0  0  0  0  0  0  0  0  0
    2.6342    2.0711   -0.7388 H   0  0  0  0  0  0  0  0  0  0  0  0
    3.9175    1.0434   -1.4144 H   0  0  0  0  0  0  0  0  0  0  0  0
    5.0011   -2.0167   -0.2879 H   0  0  0  0  0  0  0  0  0  0  0  0
    5.1359   -1.3410    1.3482 H   0  0  0  0  0  0  0  0  0  0  0  0
    5.1904   -0.2696   -0.0635 H   0  0  0  0  0  0  0  0  0  0  0  0
    2.7236   -3.0531    0.2664 H   0  0  0  0  0  0  0  0  0  0  0  0
    1.4952   -1.9387    0.9314 H   0  0  0  0  0  0  0  0  0  0  0  0
    2.8978   -2.4309    1.9246 H   0  0  0  0  0  0  0  0  0  0  0  0
  1  4  1  0  0  0  0
  1  7  1  0  0  0  0
  2  5  1  0  0  0  0
  2 11  1  0  0  0  0
  3 14  1  0  0  0  0
  3 15  1  0  0  0  0
  4  6  2  0  0  0  0
  4  5  1  0  0  0  0
  5  3  1  0  0  0  0
  8  1  1  0  0  0  0
  9  1  1  0  0  0  0
 10  2  1  0  0  0  0
 12  2  1  0  0  0  0
 13  3  1  0  0  0  0
M  END
>  <HBA>
2

>  <HBD>
0

>  <TPSA>
20.31

>  <cid>
31374

>  <dipole>
3.66

>  <excitation_energy_1>
5.64

>  <excitation_energy_2>
5.763

>  <excitation_energy_3>
6.097

>  <excitation_energy_4>
6.385

>  <homo_energy>
-6.362

>  <homo_lumo_gap>
7.285

>  <logP>
0.095

>  <lumo_energy>
0.922

>  <melting_point>
-1.21

>  <molecular_refractivity>
24.44

>  <oscillator_strength_1>
0.0012

>  <oscillator_strength_2>
0.0198

>  <oscillator_strength_3>
0.0171

>  <oscillator_strength_4>
0.0066

>  <open_babel_can_smiles>
CC(=O)N(C)C

>  <mulliken_charges>
15
1   -0.548802
2   -0.314266
3   -0.319488
4   0.577547
5   -0.392304
6   -0.508665
7   0.165774
8   0.18803
9   0.166545
10   0.156881
11   0.156715
12   0.169353
13   0.14842
14   0.206602
15   0.147659

>  <lowdin_charges>
15
1   -0.476453
2   -0.351975
3   -0.355381
4   0.156413
5   -0.110627
6   -0.315045
7   0.165757
8   0.179771
9   0.165606
10   0.150099
11   0.148627
12   0.166527
13   0.146891
14   0.184155
15   0.145635

$$$$

