PCCDB-ID:  70471
public computational chemistry database (PCCDB) project, http://pccdb.org

 19 18  0  0  0  0  0  0  0  0999 V2000
    0.9624    0.7518    1.8994 C   0  0  0  0  0  0  0  0  0  0  0  0
    2.0773    0.0061    1.1591 C   0  0  0  0  0  0  0  0  0  0  0  0
    3.2133    0.9364    0.7084 C   0  0  0  0  0  0  0  0  0  0  0  0
    4.3075    0.1683   -0.0197 C   0  0  0  0  0  0  0  0  0  0  0  0
    6.0060    2.7328    1.1952 O   0  0  0  0  0  0  0  0  0  0  0  0
    6.8797    0.4440    1.3050 O   0  0  0  0  0  0  0  0  0  0  0  0
    7.5757    1.9971   -0.6012 O   0  0  0  0  0  0  0  0  0  0  0  0
    5.3299    1.0543   -0.5825 O   0  0  0  0  0  0  0  0  0  0  0  0
    6.5946    1.4752    0.3287 S   0  0  0  0  0  0  0  0  0  0  0  0
    0.1665    0.0661    2.2099 H   0  0  0  0  0  0  0  0  0  0  0  0
    0.5099    1.5227    1.2639 H   0  0  0  0  0  0  0  0  0  0  0  0
    1.3476    1.2465    2.7988 H   0  0  0  0  0  0  0  0  0  0  0  0
    1.6549   -0.5079    0.2843 H   0  0  0  0  0  0  0  0  0  0  0  0
    2.4860   -0.7796    1.8096 H   0  0  0  0  0  0  0  0  0  0  0  0
    3.6411    1.4493    1.5778 H   0  0  0  0  0  0  0  0  0  0  0  0
    2.8193    1.7129    0.0397 H   0  0  0  0  0  0  0  0  0  0  0  0
    3.9173   -0.3447   -0.9024 H   0  0  0  0  0  0  0  0  0  0  0  0
    4.8012   -0.5629    0.6255 H   0  0  0  0  0  0  0  0  0  0  0  0
    6.0919    3.5328    0.6427 H   0  0  0  0  0  0  0  0  0  0  0  0
  1 10  1  0  0  0  0
  1 12  1  0  0  0  0
  2 14  1  0  0  0  0
  2  1  1  0  0  0  0
  3  2  1  0  0  0  0
  3 15  1  0  0  0  0
  4 18  1  0  0  0  0
  4  3  1  0  0  0  0
  7  9  2  0  0  0  0
  8  4  1  0  0  0  0
  8  9  1  0  0  0  0
  9  5  1  0  0  0  0
  9  6  2  0  0  0  0
 11  1  1  0  0  0  0
 13  2  1  0  0  0  0
 16  3  1  0  0  0  0
 17  4  1  0  0  0  0
 19  5  1  0  0  0  0
M  END
>  <HBA>
4

>  <HBD>
1

>  <TPSA>
71.98

>  <cid>
70471

>  <dipole>
4.03

>  <excitation_energy_1>
7.179

>  <excitation_energy_2>
7.408

>  <excitation_energy_3>
7.739

>  <excitation_energy_4>
8.158

>  <homo_energy>
-8.561

>  <homo_lumo_gap>
9.023

>  <logP>
1.687

>  <lumo_energy>
0.463

>  <melting_point>
49.15

>  <molecular_refractivity>
32.96

>  <oscillator_strength_1>
0.0002

>  <oscillator_strength_2>
0.003

>  <oscillator_strength_3>
0.0006

>  <oscillator_strength_4>
0.0152

>  <open_babel_can_smiles>
CCCCOS(=O)(=O)O

>  <mulliken_charges>
19
1   -0.442306
2   -0.261943
3   -0.276347
4   -0.070553
5   -0.626653
6   -0.493691
7   -0.481717
8   -0.51295
9   1.318538
10   0.149795
11   0.146193
12   0.149942
13   0.137407
14   0.144027
15   0.168189
16   0.147466
17   0.171384
18   0.18981
19   0.443408

>  <lowdin_charges>
19
1   -0.44441
2   -0.273986
3   -0.29241
4   -0.130031
5   -0.566529
6   -0.543082
7   -0.545832
8   -0.39942
9   1.422028
10   0.154765
11   0.150142
12   0.15135
13   0.142875
14   0.146397
15   0.158913
16   0.150783
17   0.163627
18   0.16906
19   0.385761

$$$$

