PCCDB-ID:  33718
public computational chemistry database (PCCDB) project, http://pccdb.org

 22 23  0  0  0  0  0  0  0  0999 V2000
   -1.7360    0.3021   -0.0289 C   0  0  0  0  0  0  0  0  0  0  0  0
   -0.8761    1.3658    0.2528 C   0  0  0  0  0  0  0  0  0  0  0  0
   -1.1928   -0.9492   -0.3224 C   0  0  0  0  0  0  0  0  0  0  0  0
    0.5028    1.1781    0.2407 C   0  0  0  0  0  0  0  0  0  0  0  0
    0.1869   -1.1561   -0.3391 C   0  0  0  0  0  0  0  0  0  0  0  0
    4.1034   -3.2471   -0.7996 C   0  0  0  0  0  0  0  0  0  0  0  0
    5.2485   -2.2385   -0.4993 C   0  0  0  0  0  0  0  0  0  0  0  0
    1.0449   -0.0832   -0.0553 C   0  0  0  0  0  0  0  0  0  0  0  0
    3.2197   -1.2964   -0.3117 C   0  0  0  0  0  0  0  0  0  0  0  0
    2.8637   -2.4840   -0.6262 N   0  0  0  0  0  0  0  0  0  0  0  0
    2.4456   -0.2025   -0.0475 N   0  0  0  0  0  0  0  0  0  0  0  0
    4.5564   -1.0032   -0.2057 O   0  0  0  0  0  0  0  0  0  0  0  0
   -2.8122    0.4479   -0.0195 H   0  0  0  0  0  0  0  0  0  0  0  0
   -1.2772    2.3492    0.4837 H   0  0  0  0  0  0  0  0  0  0  0  0
   -1.8494   -1.7867   -0.5439 H   0  0  0  0  0  0  0  0  0  0  0  0
    1.1671    2.0115    0.4621 H   0  0  0  0  0  0  0  0  0  0  0  0
    0.6092   -2.1257   -0.5693 H   0  0  0  0  0  0  0  0  0  0  0  0
    4.1223   -4.1041   -0.1151 H   0  0  0  0  0  0  0  0  0  0  0  0
    4.1646   -3.6454   -1.8200 H   0  0  0  0  0  0  0  0  0  0  0  0
    5.9133   -2.0619   -1.3500 H   0  0  0  0  0  0  0  0  0  0  0  0
    5.8498   -2.5067    0.3747 H   0  0  0  0  0  0  0  0  0  0  0  0
    2.9713    0.6294    0.1800 H   0  0  0  0  0  0  0  0  0  0  0  0
  1 13  1  0  0  0  0
  1  2  2  0  0  0  0
  2 14  1  0  0  0  0
  3  1  1  0  0  0  0
  4  2  1  0  0  0  0
  4 16  1  0  0  0  0
  5  3  2  0  0  0  0
  5  8  1  0  0  0  0
  6 10  1  0  0  0  0
  6  7  1  0  0  0  0
  6 18  1  0  0  0  0
  7 12  1  0  0  0  0
  7 21  1  0  0  0  0
  8 11  1  0  0  0  0
  8  4  2  0  0  0  0
  9 12  1  0  0  0  0
  9 11  1  0  0  0  0
 10  9  2  0  0  0  0
 11 22  1  0  0  0  0
 15  3  1  0  0  0  0
 17  5  1  0  0  0  0
 19  6  1  0  0  0  0
 20  7  1  0  0  0  0
M  END
>  <HBA>
3

>  <HBD>
1

>  <TPSA>
33.62

>  <cid>
33718

>  <dipole>
1.99

>  <excitation_energy_1>
4.808

>  <excitation_energy_2>
5.033

>  <excitation_energy_3>
5.155

>  <excitation_energy_4>
5.465

>  <homo_energy>
-5.554

>  <homo_lumo_gap>
5.714

>  <logP>
0.993

>  <lumo_energy>
0.161

>  <melting_point>
68.03

>  <molecular_refractivity>
51.34

>  <oscillator_strength_1>
0.021

>  <oscillator_strength_2>
0.0001

>  <oscillator_strength_3>
0.3623

>  <oscillator_strength_4>
0.0

>  <open_babel_can_smiles>
c1ccc(cc1)NC1=NCCO1

>  <mulliken_charges>
22
1   -0.129895
2   -0.133729
3   -0.144937
4   -0.197719
5   -0.164429
6   -0.162419
7   -0.057979
8   0.36017
9   0.759415
10   -0.497645
11   -0.768083
12   -0.51273
13   0.124002
14   0.127554
15   0.130016
16   0.118391
17   0.186519
18   0.152885
19   0.152812
20   0.157374
21   0.157095
22   0.343332

>  <lowdin_charges>
22
1   -0.174414
2   -0.149216
3   -0.147207
4   -0.195377
5   -0.188806
6   -0.207738
7   -0.139561
8   0.066711
9   0.16236
10   -0.272801
11   -0.230958
12   -0.231156
13   0.154265
14   0.156991
15   0.158963
16   0.152593
17   0.187574
18   0.149003
19   0.147404
20   0.151816
21   0.15153
22   0.298027

$$$$

