PCCDB-ID:  20126
public computational chemistry database (PCCDB) project, http://pccdb.org

 30 29  0  0  1  0  0  0  0  0999 V2000
    1.6279   -2.8598   -0.8758 C   0  0  0  0  0  0  0  0  0  0  0  0
    8.0423   -0.8286    3.4202 C   0  0  0  0  0  0  0  0  0  0  0  0
    2.6339   -1.7095   -0.7646 C   0  0  0  0  0  0  0  0  0  0  0  0
    8.4180   -0.6456    1.9453 C   0  0  0  0  0  0  0  0  0  0  0  0
    3.9158   -2.0974   -0.0172 C   0  0  0  0  0  0  0  0  0  0  0  0
    4.9259   -0.9476    0.0960 C   0  0  0  0  0  0  0  0  0  0  0  0
    6.2084   -1.3470    0.8398 C   0  0  0  0  0  0  0  0  0  0  0  0
    7.2428   -0.2104    1.0420 C   0  0  2  0  0  0  0  0  0  0  0  0
    7.7385    0.3089   -0.3109 C   0  0  0  0  0  0  0  0  0  0  0  0
    8.7450   -0.0826   -0.9786 N   0  0  0  0  0  0  0  0  0  0  0  0
    6.9732    1.2896   -0.8786 O   0  0  0  0  0  0  0  0  0  0  0  0
    0.7263   -2.5509   -1.4166 H   0  0  0  0  0  0  0  0  0  0  0  0
    1.3175   -3.2132    0.1152 H   0  0  0  0  0  0  0  0  0  0  0  0
    2.0604   -3.7142   -1.4107 H   0  0  0  0  0  0  0  0  0  0  0  0
    8.9246   -1.1007    4.0096 H   0  0  0  0  0  0  0  0  0  0  0  0
    7.2962   -1.6172    3.5649 H   0  0  0  0  0  0  0  0  0  0  0  0
    7.6360    0.0987    3.8423 H   0  0  0  0  0  0  0  0  0  0  0  0
    2.1605   -0.8579   -0.2552 H   0  0  0  0  0  0  0  0  0  0  0  0
    2.8966   -1.3539   -1.7708 H   0  0  0  0  0  0  0  0  0  0  0  0
    8.8428   -1.5836    1.5608 H   0  0  0  0  0  0  0  0  0  0  0  0
    9.2131    0.1061    1.8700 H   0  0  0  0  0  0  0  0  0  0  0  0
    4.3910   -2.9470   -0.5293 H   0  0  0  0  0  0  0  0  0  0  0  0
    3.6555   -2.4561    0.9899 H   0  0  0  0  0  0  0  0  0  0  0  0
    4.4475   -0.1057    0.6225 H   0  0  0  0  0  0  0  0  0  0  0  0
    5.1733   -0.5857   -0.9099 H   0  0  0  0  0  0  0  0  0  0  0  0
    6.7025   -2.1669    0.3001 H   0  0  0  0  0  0  0  0  0  0  0  0
    5.9339   -1.7443    1.8253 H   0  0  0  0  0  0  0  0  0  0  0  0
    6.7353    0.6249    1.5529 H   0  0  0  0  0  0  0  0  0  0  0  0
    9.2412   -0.8152   -0.4701 H   0  0  0  0  0  0  0  0  0  0  0  0
    6.2485    1.5150   -0.2768 H   0  0  0  0  0  0  0  0  0  0  0  0
  1  3  1  0  0  0  0
  1 13  1  0  0  0  0
  2 16  1  0  0  0  0
  2 17  1  0  0  0  0
  2 15  1  0  0  0  0
  3 18  1  0  0  0  0
  3  5  1  0  0  0  0
  4  2  1  0  0  0  0
  5  6  1  0  0  0  0
  5 23  1  0  0  0  0
  6 24  1  0  0  0  0
  6  7  1  0  0  0  0
  7  8  1  0  0  0  0
  7 27  1  0  0  0  0
  8 28  1  1  0  0  0
  8  4  1  0  0  0  0
  9  8  1  0  0  0  0
 10 29  1  0  0  0  0
 10  9  2  0  0  0  0
 11  9  1  0  0  0  0
 11 30  1  0  0  0  0
 12  1  1  0  0  0  0
 14  1  1  0  0  0  0
 19  3  1  0  0  0  0
 20  4  1  0  0  0  0
 21  4  1  0  0  0  0
 22  5  1  0  0  0  0
 25  6  1  0  0  0  0
 26  7  1  0  0  0  0
M  END
>  <HBA>
2

>  <HBD>
1

>  <TPSA>
43.09

>  <cid>
20126

>  <dipole>
4.3

>  <excitation_energy_1>
6.084

>  <excitation_energy_2>
6.33

>  <excitation_energy_3>
6.423

>  <excitation_energy_4>
6.664

>  <homo_energy>
-6.95

>  <homo_lumo_gap>
7.744

>  <logP>
2.779

>  <lumo_energy>
0.795

>  <melting_point>
47.08

>  <molecular_refractivity>
48.28

>  <oscillator_strength_1>
0.0009

>  <oscillator_strength_2>
0.0048

>  <oscillator_strength_3>
0.0148

>  <oscillator_strength_4>
0.0045

>  <open_babel_can_smiles>
CCCCC[C@H](C(=N)O)CC

>  <mulliken_charges>
30
1   -0.442309
2   -0.453873
3   -0.248953
4   -0.272139
5   -0.247473
6   -0.28629
7   -0.250375
8   -0.1775
9   0.480537
10   -0.591607
11   -0.578669
12   0.144302
13   0.141218
14   0.143715
15   0.152699
16   0.151305
17   0.146501
18   0.129053
19   0.136656
20   0.138214
21   0.153813
22   0.133734
23   0.127236
24   0.11677
25   0.159193
26   0.142859
27   0.14088
28   0.117751
29   0.286816
30   0.405937

>  <lowdin_charges>
30
1   -0.444976
2   -0.44726
3   -0.272496
4   -0.277046
5   -0.273782
6   -0.286851
7   -0.272348
8   -0.162946
9   0.125318
10   -0.402768
11   -0.36606
12   0.151104
13   0.145875
14   0.148252
15   0.156693
16   0.150234
17   0.149173
18   0.139001
19   0.141321
20   0.142932
21   0.153326
22   0.14191
23   0.136568
24   0.132185
25   0.150865
26   0.148044
27   0.145294
28   0.138735
29   0.257423
30   0.352278

$$$$

