PCCDB-ID:  17025
public computational chemistry database (PCCDB) project, http://pccdb.org

 18 18  0  0  1  0  0  0  0  0999 V2000
    1.2027   -0.7548    0.8201 C   0  0  0  0  0  0  0  0  0  0  0  0
    5.1506    3.1219   -1.0255 C   0  0  0  0  0  0  0  0  0  0  0  0
    2.2483   -0.3058    0.1295 C   0  0  0  0  0  0  0  0  0  0  0  0
    5.5226    0.8030    0.0639 C   0  0  0  0  0  0  0  0  0  0  0  0
    4.8068    2.1580    0.0944 C   0  0  2  0  0  0  0  0  0  0  0  0
    3.3153    0.5614    0.7245 C   0  0  1  0  0  0  0  0  0  0  0  0
    4.5918   -0.0919    0.6683 O   0  0  0  0  0  0  0  0  0  0  0  0
    3.4379    1.7562   -0.0217 O   0  0  0  0  0  0  0  0  0  0  0  0
    0.4464   -1.3916    0.3702 H   0  0  0  0  0  0  0  0  0  0  0  0
    1.0636   -0.5014    1.8691 H   0  0  0  0  0  0  0  0  0  0  0  0
    6.2017    3.4252   -0.9620 H   0  0  0  0  0  0  0  0  0  0  0  0
    4.5311    4.0217   -0.9612 H   0  0  0  0  0  0  0  0  0  0  0  0
    4.9779    2.6524   -1.9996 H   0  0  0  0  0  0  0  0  0  0  0  0
    2.3931   -0.5595   -0.9189 H   0  0  0  0  0  0  0  0  0  0  0  0
    6.4563    0.7941    0.6370 H   0  0  0  0  0  0  0  0  0  0  0  0
    5.7364    0.4932   -0.9698 H   0  0  0  0  0  0  0  0  0  0  0  0
    4.9643    2.6373    1.0753 H   0  0  0  0  0  0  0  0  0  0  0  0
    3.0939    0.7881    1.7815 H   0  0  0  0  0  0  0  0  0  0  0  0
  1 10  1  0  0  0  0
  2 11  1  0  0  0  0
  2 12  1  0  0  0  0
  2  5  1  0  0  0  0
  3  6  1  0  0  0  0
  3  1  2  0  0  0  0
  4  5  1  0  0  0  0
  4 15  1  0  0  0  0
  4  7  1  0  0  0  0
  5 17  1  1  0  0  0
  6 18  1  1  0  0  0
  7  6  1  0  0  0  0
  8  5  1  0  0  0  0
  8  6  1  0  0  0  0
  9  1  1  0  0  0  0
 13  2  1  0  0  0  0
 14  3  1  0  0  0  0
 16  4  1  0  0  0  0
M  END
>  <HBA>
2

>  <HBD>
0

>  <TPSA>
18.46

>  <cid>
17025

>  <dipole>
1.22

>  <excitation_energy_1>
5.907

>  <excitation_energy_2>
6.514

>  <excitation_energy_3>
6.58

>  <excitation_energy_4>
6.883

>  <homo_energy>
-6.825

>  <homo_lumo_gap>
7.045

>  <logP>
0.934

>  <lumo_energy>
0.22

>  <melting_point>
-42.48

>  <molecular_refractivity>
30.54

>  <oscillator_strength_1>
0.0176

>  <oscillator_strength_2>
0.0297

>  <oscillator_strength_3>
0.0089

>  <oscillator_strength_4>
0.0068

>  <open_babel_can_smiles>
C=C[C@H]1OC[C@H](O1)C

>  <mulliken_charges>
18
1   -0.342092
2   -0.46393
3   -0.036178
4   -0.02467
5   0.122319
6   0.336082
7   -0.507665
8   -0.505576
9   0.149091
10   0.146083
11   0.14873
12   0.166078
13   0.158818
14   0.137304
15   0.140877
16   0.132515
17   0.127005
18   0.11521

>  <lowdin_charges>
18
1   -0.31677
2   -0.445031
3   -0.152488
4   -0.143726
5   -0.006899
6   0.11488
7   -0.280613
8   -0.264753
9   0.164972
10   0.157715
11   0.155782
12   0.164081
13   0.158183
14   0.159681
15   0.147537
16   0.134564
17   0.130639
18   0.122247

$$$$

