PCCDB-ID:  37508
public computational chemistry database (PCCDB) project, http://pccdb.org

 20 19  0  0  0  0  0  0  0  0999 V2000
    1.6660   -1.0130   -1.1008 C   0  0  0  0  0  0  0  0  0  0  0  0
    4.2832   -1.4592    0.6304 C   0  0  0  0  0  0  0  0  0  0  0  0
    4.0667    0.9575    1.3184 C   0  0  0  0  0  0  0  0  0  0  0  0
    1.3643    0.1854    2.1657 C   0  0  0  0  0  0  0  0  0  0  0  0
    2.6383    0.0221   -0.5596 C   0  0  0  0  0  0  0  0  0  0  0  0
    3.3173   -0.2768    0.8063 C   0  0  0  0  0  0  0  0  0  0  0  0
    2.9040    1.0322   -1.1833 O   0  0  0  0  0  0  0  0  0  0  0  0
    2.3361   -0.7563    1.7396 O   0  0  0  0  0  0  0  0  0  0  0  0
    2.2299   -1.8529   -1.5275 H   0  0  0  0  0  0  0  0  0  0  0  0
    1.0670   -0.5631   -1.8953 H   0  0  0  0  0  0  0  0  0  0  0  0
    1.0290   -1.4220   -0.3129 H   0  0  0  0  0  0  0  0  0  0  0  0
    5.0378   -1.2380   -0.1315 H   0  0  0  0  0  0  0  0  0  0  0  0
    3.7419   -2.3659    0.3452 H   0  0  0  0  0  0  0  0  0  0  0  0
    4.7912   -1.6541    1.5803 H   0  0  0  0  0  0  0  0  0  0  0  0
    4.8997    1.1962    0.6526 H   0  0  0  0  0  0  0  0  0  0  0  0
    4.4600    0.7563    2.3204 H   0  0  0  0  0  0  0  0  0  0  0  0
    3.4257    1.8421    1.3556 H   0  0  0  0  0  0  0  0  0  0  0  0
    0.6394   -0.3732    2.7635 H   0  0  0  0  0  0  0  0  0  0  0  0
    0.8367    0.6556    1.3216 H   0  0  0  0  0  0  0  0  0  0  0  0
    1.7977    0.9787    2.7887 H   0  0  0  0  0  0  0  0  0  0  0  0
  1  5  1  0  0  0  0
  1 11  1  0  0  0  0
  2  6  1  0  0  0  0
  2 14  1  0  0  0  0
  3 17  1  0  0  0  0
  3 16  1  0  0  0  0
  4 18  1  0  0  0  0
  4 20  1  0  0  0  0
  5  6  1  0  0  0  0
  6  3  1  0  0  0  0
  6  8  1  0  0  0  0
  7  5  2  0  0  0  0
  8  4  1  0  0  0  0
  9  1  1  0  0  0  0
 10  1  1  0  0  0  0
 12  2  1  0  0  0  0
 13  2  1  0  0  0  0
 15  3  1  0  0  0  0
 19  4  1  0  0  0  0
M  END
>  <HBA>
2

>  <HBD>
0

>  <TPSA>
26.3

>  <cid>
37508

>  <dipole>
1.58

>  <excitation_energy_1>
4.071

>  <excitation_energy_2>
5.781

>  <excitation_energy_3>
5.974

>  <excitation_energy_4>
6.396

>  <homo_energy>
-6.338

>  <homo_lumo_gap>
5.796

>  <logP>
1.0

>  <lumo_energy>
-0.542

>  <melting_point>
-3.1

>  <molecular_refractivity>
32.28

>  <oscillator_strength_1>
0.0004

>  <oscillator_strength_2>
0.002

>  <oscillator_strength_3>
0.0124

>  <oscillator_strength_4>
0.0034

>  <open_babel_can_smiles>
COC(C(=O)C)(C)C

>  <mulliken_charges>
20
1   -0.533956
2   -0.466542
3   -0.461664
4   -0.209881
5   0.428533
6   0.250858
7   -0.438608
8   -0.490349
9   0.176028
10   0.175484
11   0.181517
12   0.155094
13   0.158809
14   0.163819
15   0.162518
16   0.147619
17   0.157459
18   0.160768
19   0.136769
20   0.145725

>  <lowdin_charges>
20
1   -0.481383
2   -0.443816
3   -0.452718
4   -0.289492
5   0.149569
6   0.09534
7   -0.230022
8   -0.270398
9   0.176338
10   0.17324
11   0.175506
12   0.15896
13   0.158936
14   0.163217
15   0.167142
16   0.15406
17   0.159599
18   0.158695
19   0.135734
20   0.141493

$$$$

