PCCDB-ID:  12293
public computational chemistry database (PCCDB) project, http://pccdb.org

 29 28  0  0  0  0  0  0  0  0999 V2000
    4.7076    0.0140   -2.7037 C   0  0  0  0  0  0  0  0  0  0  0  0
    7.4670    2.3104    6.4751 C   0  0  0  0  0  0  0  0  0  0  0  0
    5.1239    0.6087   -1.3546 C   0  0  0  0  0  0  0  0  0  0  0  0
    6.8555    1.7759    5.1755 C   0  0  0  0  0  0  0  0  0  0  0  0
    4.2873    0.0841   -0.1805 C   0  0  0  0  0  0  0  0  0  0  0  0
    4.6969    0.6829    1.1703 C   0  0  0  0  0  0  0  0  0  0  0  0
    3.8470    0.1464    2.3409 C   0  0  0  0  0  0  0  0  0  0  0  0
    5.8157    0.6924    5.4438 C   0  0  0  0  0  0  0  0  0  0  0  0
    4.2480    0.7915    3.6506 C   0  0  0  0  0  0  0  0  0  0  0  0
    3.7353    1.7841    4.1233 O   0  0  0  0  0  0  0  0  0  0  0  0
    5.2934    0.1381    4.2148 O   0  0  0  0  0  0  0  0  0  0  0  0
    5.3233    0.4071   -3.5206 H   0  0  0  0  0  0  0  0  0  0  0  0
    3.6607    0.2473   -2.9337 H   0  0  0  0  0  0  0  0  0  0  0  0
    4.8104   -1.0781   -2.7048 H   0  0  0  0  0  0  0  0  0  0  0  0
    8.2102    3.0872    6.2672 H   0  0  0  0  0  0  0  0  0  0  0  0
    7.9674    1.5145    7.0405 H   0  0  0  0  0  0  0  0  0  0  0  0
    6.7002    2.7496    7.1244 H   0  0  0  0  0  0  0  0  0  0  0  0
    5.0423    1.7040   -1.3957 H   0  0  0  0  0  0  0  0  0  0  0  0
    6.1850    0.3901   -1.1688 H   0  0  0  0  0  0  0  0  0  0  0  0
    7.6402    1.3623    4.5294 H   0  0  0  0  0  0  0  0  0  0  0  0
    6.3755    2.5917    4.6232 H   0  0  0  0  0  0  0  0  0  0  0  0
    4.3719   -1.0117   -0.1341 H   0  0  0  0  0  0  0  0  0  0  0  0
    3.2248    0.2997   -0.3667 H   0  0  0  0  0  0  0  0  0  0  0  0
    4.6006    1.7763    1.1339 H   0  0  0  0  0  0  0  0  0  0  0  0
    5.7550    0.4656    1.3673 H   0  0  0  0  0  0  0  0  0  0  0  0
    3.9630   -0.9402    2.4160 H   0  0  0  0  0  0  0  0  0  0  0  0
    2.7905    0.3766    2.1719 H   0  0  0  0  0  0  0  0  0  0  0  0
    4.9853    1.0864    6.0361 H   0  0  0  0  0  0  0  0  0  0  0  0
    6.2594   -0.1611    5.9648 H   0  0  0  0  0  0  0  0  0  0  0  0
  1  3  1  0  0  0  0
  2 16  1  0  0  0  0
  2 17  1  0  0  0  0
  3 19  1  0  0  0  0
  3  5  1  0  0  0  0
  4  8  1  0  0  0  0
  4  2  1  0  0  0  0
  5 22  1  0  0  0  0
  5  6  1  0  0  0  0
  6 25  1  0  0  0  0
  6  7  1  0  0  0  0
  7 26  1  0  0  0  0
  7  9  1  0  0  0  0
  8 29  1  0  0  0  0
  8 28  1  0  0  0  0
  9 10  2  0  0  0  0
  9 11  1  0  0  0  0
 11  8  1  0  0  0  0
 12  1  1  0  0  0  0
 13  1  1  0  0  0  0
 14  1  1  0  0  0  0
 15  2  1  0  0  0  0
 18  3  1  0  0  0  0
 20  4  1  0  0  0  0
 21  4  1  0  0  0  0
 23  5  1  0  0  0  0
 24  6  1  0  0  0  0
 27  7  1  0  0  0  0
M  END
>  <HBA>
2

>  <HBD>
0

>  <TPSA>
26.3

>  <cid>
12293

>  <dipole>
1.8

>  <excitation_energy_1>
5.727

>  <excitation_energy_2>
7.048

>  <excitation_energy_3>
7.243

>  <excitation_energy_4>
7.393

>  <homo_energy>
-7.138

>  <homo_lumo_gap>
7.584

>  <logP>
2.52

>  <lumo_energy>
0.446

>  <melting_point>
-16.11

>  <molecular_refractivity>
46.66

>  <oscillator_strength_1>
0.003

>  <oscillator_strength_2>
0.0116

>  <oscillator_strength_3>
0.0101

>  <oscillator_strength_4>
0.0115

>  <open_babel_can_smiles>
CCCCCC(=O)OCCC

>  <mulliken_charges>
29
1   -0.442157
2   -0.453393
3   -0.248847
4   -0.27197
5   -0.24636
6   -0.269662
7   -0.329619
8   -0.039731
9   0.600145
10   -0.478655
11   -0.461724
12   0.143686
13   0.142984
14   0.142222
15   0.152337
16   0.143942
17   0.152588
18   0.133793
19   0.132283
20   0.142983
21   0.162171
22   0.130511
23   0.132314
24   0.149546
25   0.14668
26   0.157505
27   0.163687
28   0.166462
29   0.146279

>  <lowdin_charges>
29
1   -0.441846
2   -0.447161
3   -0.268061
4   -0.286979
5   -0.270225
6   -0.265221
7   -0.291718
8   -0.135938
9   0.198436
10   -0.27237
11   -0.198021
12   0.151303
13   0.145908
14   0.144726
15   0.156614
16   0.148695
17   0.153031
18   0.138423
19   0.138289
20   0.14738
21   0.157434
22   0.136912
23   0.138428
24   0.146325
25   0.145294
26   0.15886
27   0.162774
28   0.158098
29   0.150612

$$$$

