PCCDB-ID:  7530
public computational chemistry database (PCCDB) project, http://pccdb.org

 19 19  0  0  0  0  0  0  0  0999 V2000
    0.8284    0.1879    0.0521 C   0  0  0  0  0  0  0  0  0  0  0  0
    4.4272   -3.4614   -0.7429 C   0  0  0  0  0  0  0  0  0  0  0  0
    4.4810    1.2873   -0.0433 C   0  0  0  0  0  0  0  0  0  0  0  0
    3.0860    1.3330    0.0460 C   0  0  0  0  0  0  0  0  0  0  0  0
    5.1395    0.0832   -0.2574 C   0  0  0  0  0  0  0  0  0  0  0  0
    2.9984   -1.0561   -0.2960 C   0  0  0  0  0  0  0  0  0  0  0  0
    2.3348    0.1615   -0.0755 C   0  0  0  0  0  0  0  0  0  0  0  0
    4.3934   -1.0975   -0.3849 C   0  0  0  0  0  0  0  0  0  0  0  0
    5.1221   -2.2348   -0.5988 O   0  0  0  0  0  0  0  0  0  0  0  0
    0.4234    1.1726   -0.2034 H   0  0  0  0  0  0  0  0  0  0  0  0
    0.5118   -0.0382    1.0793 H   0  0  0  0  0  0  0  0  0  0  0  0
    0.3551   -0.5525   -0.6023 H   0  0  0  0  0  0  0  0  0  0  0  0
    5.1928   -4.2230   -0.9031 H   0  0  0  0  0  0  0  0  0  0  0  0
    3.7479   -3.4435   -1.6058 H   0  0  0  0  0  0  0  0  0  0  0  0
    3.8521   -3.7102    0.1593 H   0  0  0  0  0  0  0  0  0  0  0  0
    5.0589    2.2032    0.0503 H   0  0  0  0  0  0  0  0  0  0  0  0
    2.5823    2.2821    0.2108 H   0  0  0  0  0  0  0  0  0  0  0  0
    6.2207    0.0281   -0.3349 H   0  0  0  0  0  0  0  0  0  0  0  0
    2.4115   -1.9632   -0.3959 H   0  0  0  0  0  0  0  0  0  0  0  0
  1 11  1  0  0  0  0
  2  9  1  0  0  0  0
  2 15  1  0  0  0  0
  3  4  1  0  0  0  0
  3 16  1  0  0  0  0
  4 17  1  0  0  0  0
  5  3  2  0  0  0  0
  6  7  1  0  0  0  0
  7  4  2  0  0  0  0
  7  1  1  0  0  0  0
  8  6  2  0  0  0  0
  8  5  1  0  0  0  0
  9  8  1  0  0  0  0
 10  1  1  0  0  0  0
 12  1  1  0  0  0  0
 13  2  1  0  0  0  0
 14  2  1  0  0  0  0
 18  5  1  0  0  0  0
 19  6  1  0  0  0  0
M  END
>  <HBA>
1

>  <HBD>
0

>  <TPSA>
9.23

>  <cid>
7530

>  <dipole>
1.49

>  <excitation_energy_1>
4.987

>  <excitation_energy_2>
5.437

>  <excitation_energy_3>
5.663

>  <excitation_energy_4>
5.793

>  <homo_energy>
-5.758

>  <homo_lumo_gap>
5.921

>  <logP>
2.004

>  <lumo_energy>
0.163

>  <melting_point>
13.26

>  <molecular_refractivity>
37.9

>  <oscillator_strength_1>
0.0378

>  <oscillator_strength_2>
0.005

>  <oscillator_strength_3>
0.0679

>  <oscillator_strength_4>
0.0053

>  <open_babel_can_smiles>
COc1cccc(c1)C

>  <mulliken_charges>
19
1   -0.528775
2   -0.211981
3   -0.130646
4   -0.186966
5   -0.175126
6   -0.251354
7   0.173458
8   0.379064
9   -0.508892
10   0.156534
11   0.164465
12   0.15403
13   0.167698
14   0.150181
15   0.150141
16   0.12736
17   0.116015
18   0.13378
19   0.121014

>  <lowdin_charges>
19
1   -0.441987
2   -0.279184
3   -0.146497
4   -0.191669
5   -0.186618
6   -0.22684
7   0.011782
8   0.103384
9   -0.200928
10   0.157576
11   0.160295
12   0.157487
13   0.162614
14   0.144369
15   0.144506
16   0.157702
17   0.15286
18   0.16296
19   0.158187

$$$$

