PCCDB-ID:  41224
public computational chemistry database (PCCDB) project, http://pccdb.org

 23 22  0  0  0  0  0  0  0  0999 V2000
    3.5253    1.7555    0.3417 C   0  0  0  0  0  0  0  0  0  0  0  0
    2.8597    0.3854    0.3981 C   0  0  0  0  0  0  0  0  0  0  0  0
    0.3399   -1.3324   -1.0355 C   0  0  0  0  0  0  0  0  0  0  0  0
   -0.2196   -0.8040   -2.3739 C   0  0  0  0  0  0  0  0  0  0  0  0
    1.8679   -1.4966   -0.9724 C   0  0  0  0  0  0  0  0  0  0  0  0
   -0.1321   -1.8605   -3.4778 C   0  0  0  0  0  0  0  0  0  0  0  0
    3.1152    0.3789   -1.9716 N   0  0  0  0  0  0  0  0  0  0  0  0
    2.5985   -0.2199   -0.9171 N   0  0  0  0  0  0  0  0  0  0  0  0
   -1.0501   -2.6029   -3.7390 O   0  0  0  0  0  0  0  0  0  0  0  0
    1.0518   -1.9663   -4.1139 O   0  0  0  0  0  0  0  0  0  0  0  0
    2.8966   -0.1465   -3.0749 O   0  0  0  0  0  0  0  0  0  0  0  0
    3.6424    2.1235    1.3664 H   0  0  0  0  0  0  0  0  0  0  0  0
    2.9196    2.4728   -0.2185 H   0  0  0  0  0  0  0  0  0  0  0  0
    4.5109    1.7080   -0.1263 H   0  0  0  0  0  0  0  0  0  0  0  0
    1.8958    0.4551    0.9178 H   0  0  0  0  0  0  0  0  0  0  0  0
    3.4789   -0.3184    0.9710 H   0  0  0  0  0  0  0  0  0  0  0  0
   -0.1138   -2.3086   -0.8247 H   0  0  0  0  0  0  0  0  0  0  0  0
    0.0220   -0.6615   -0.2274 H   0  0  0  0  0  0  0  0  0  0  0  0
    0.2944    0.1182   -2.6672 H   0  0  0  0  0  0  0  0  0  0  0  0
   -1.2808   -0.5769   -2.2471 H   0  0  0  0  0  0  0  0  0  0  0  0
    2.2467   -2.0580   -1.8290 H   0  0  0  0  0  0  0  0  0  0  0  0
    2.1414   -2.0443   -0.0645 H   0  0  0  0  0  0  0  0  0  0  0  0
    1.6902   -1.2939   -3.7829 H   0  0  0  0  0  0  0  0  0  0  0  0
  1  2  1  0  0  0  0
  1 12  1  0  0  0  0
  2 15  1  0  0  0  0
  2 16  1  0  0  0  0
  3  5  1  0  0  0  0
  3 17  1  0  0  0  0
  3 18  1  0  0  0  0
  4 20  1  0  0  0  0
  4  3  1  0  0  0  0
  5  8  1  0  0  0  0
  5 22  1  0  0  0  0
  6  4  1  0  0  0  0
  7  8  1  0  0  0  0
  8  2  1  0  0  0  0
  9  6  2  0  0  0  0
 10 23  1  0  0  0  0
 10  6  1  0  0  0  0
 11  7  1  0  0  0  0
 13  1  1  0  0  0  0
 14  1  1  0  0  0  0
 19  4  1  0  0  0  0
 21  5  1  0  0  0  0
M  RAD  2   7   2  11   2
M  END
>  <HBA>
5

>  <HBD>
1

>  <TPSA>
69.97

>  <cid>
41224

>  <dipole>
7.6

>  <excitation_energy_1>
3.517

>  <excitation_energy_2>
4.794

>  <excitation_energy_3>
5.549

>  <excitation_energy_4>
5.842

>  <homo_energy>
-6.795

>  <homo_lumo_gap>
5.233

>  <logP>
0.855

>  <lumo_energy>
-1.562

>  <melting_point>
72.28

>  <molecular_refractivity>
40.36

>  <oscillator_strength_1>
0.0007

>  <oscillator_strength_2>
0.0001

>  <oscillator_strength_3>
0.0006

>  <oscillator_strength_4>
0.0212

>  <open_babel_can_smiles>
CCN(CCCC(=O)O)[N][O]

>  <mulliken_charges>
23
1   -0.450517
2   -0.132891
3   -0.272841
4   -0.368479
5   -0.185635
6   0.572945
7   0.173125
8   -0.191824
9   -0.451686
10   -0.595798
11   -0.428606
12   0.157466
13   0.173564
14   0.181705
15   0.167348
16   0.168513
17   0.176334
18   0.151246
19   0.161761
20   0.176641
21   0.194137
22   0.16784
23   0.455653

>  <lowdin_charges>
23
1   -0.445869
2   -0.193411
3   -0.27224
4   -0.319469
5   -0.224097
6   0.188453
7   0.066381
8   -0.022124
9   -0.258675
10   -0.369464
11   -0.299776
12   0.16071
13   0.166888
14   0.168482
15   0.155464
16   0.157048
17   0.16539
18   0.151881
19   0.159079
20   0.172093
21   0.175554
22   0.164389
23   0.353312

$$$$

