PCCDB-ID:  54459
public computational chemistry database (PCCDB) project, http://pccdb.org

 27 29  0  0  1  0  0  0  0  0999 V2000
    2.2959    0.5026    0.2166 C   0  0  0  0  0  0  0  0  0  0  0  0
    2.0921   -0.7291    0.8451 C   0  0  0  0  0  0  0  0  0  0  0  0
    1.2229    1.1786   -0.3616 C   0  0  0  0  0  0  0  0  0  0  0  0
    0.8103   -1.2733    0.9101 C   0  0  0  0  0  0  0  0  0  0  0  0
   -5.8763   -1.7382   -0.5174 C   0  0  0  0  0  0  0  0  0  0  0  0
   -5.1967   -2.8834    0.2846 C   0  0  0  0  0  0  0  0  0  0  0  0
   -2.2771    0.5580   -1.0987 C   0  0  0  0  0  0  0  0  0  0  0  0
   -0.0609    0.6327   -0.3108 C   0  0  0  0  0  0  0  0  0  0  0  0
   -0.2664   -0.5950    0.3402 C   0  0  0  0  0  0  0  0  0  0  0  0
   -2.5941   -0.2475    0.1561 C   0  0  1  0  0  0  0  0  0  0  0  0
   -3.8536   -1.0601    0.0242 C   0  0  3  0  0  0  0  0  0  0  0  0
   -4.8213   -0.7318   -0.7511 N   0  0  0  0  0  0  0  0  0  0  0  0
   -4.0275   -2.1762    0.8302 N   0  0  0  0  0  0  0  0  0  0  0  0
   -1.0915    1.3274   -0.8928 O   0  0  0  0  0  0  0  0  0  0  0  0
   -1.5204   -1.1621    0.4282 O   0  0  0  0  0  0  0  0  0  0  0  0
    3.2910    0.9351    0.1687 H   0  0  0  0  0  0  0  0  0  0  0  0
    2.9258   -1.2624    1.2921 H   0  0  0  0  0  0  0  0  0  0  0  0
    1.3549    2.1311   -0.8656 H   0  0  0  0  0  0  0  0  0  0  0  0
    0.6203   -2.2218    1.4038 H   0  0  0  0  0  0  0  0  0  0  0  0
   -6.6866   -1.2751    0.0621 H   0  0  0  0  0  0  0  0  0  0  0  0
   -6.3038   -2.0767   -1.4662 H   0  0  0  0  0  0  0  0  0  0  0  0
   -4.8917   -3.7128   -0.3703 H   0  0  0  0  0  0  0  0  0  0  0  0
   -5.8287   -3.2853    1.0817 H   0  0  0  0  0  0  0  0  0  0  0  0
   -3.0807    1.2587   -1.3236 H   0  0  0  0  0  0  0  0  0  0  0  0
   -2.1454   -0.1216   -1.9500 H   0  0  0  0  0  0  0  0  0  0  0  0
   -2.6871    0.4423    1.0088 H   0  0  0  0  0  0  0  0  0  0  0  0
   -3.1922   -2.7020    1.0584 H   0  0  0  0  0  0  0  0  0  0  0  0
  1  2  2  0  0  0  0
  2  4  1  0  0  0  0
  2 17  1  0  0  0  0
  3  8  2  0  0  0  0
  3  1  1  0  0  0  0
  4 19  1  0  0  0  0
  5 20  1  0  0  0  0
  5  6  1  0  0  0  0
  6 13  1  0  0  0  0
  6 23  1  0  0  0  0
  7 14  1  0  0  0  0
  7 10  1  0  0  0  0
  8  9  1  0  0  0  0
  9 15  1  0  0  0  0
  9  4  2  0  0  0  0
 10 15  1  0  0  0  0
 10 26  1  1  0  0  0
 11 10  1  0  0  0  0
 11 13  1  0  0  0  0
 12  5  1  0  0  0  0
 12 11  1  0  0  0  0
 13 27  1  0  0  0  0
 14  8  1  0  0  0  0
 16  1  1  0  0  0  0
 18  3  1  0  0  0  0
 21  5  1  0  0  0  0
 22  6  1  0  0  0  0
 24  7  1  0  0  0  0
 25  7  1  0  0  0  0
M  RAD  2  11   2  12   2
M  END
>  <HBA>
4

>  <HBD>
1

>  <TPSA>
42.85

>  <cid>
54459

>  <dipole>
2.36

>  <excitation_energy_1>
4.877

>  <excitation_energy_2>
5.153

>  <excitation_energy_3>
5.411

>  <excitation_energy_4>
5.499

>  <homo_energy>
-5.75

>  <homo_lumo_gap>
5.804

>  <logP>
0.593

>  <lumo_energy>
0.054

>  <melting_point>
102.74

>  <molecular_refractivity>
63.35

>  <oscillator_strength_1>
0.0509

>  <oscillator_strength_2>
0.0087

>  <oscillator_strength_3>
0.0053

>  <oscillator_strength_4>
0.0041

>  <open_babel_can_smiles>
C1CN[C]([N]1)[C@@H]1COc2c(O1)cccc2

>  <mulliken_charges>
27
1   -0.136437
2   -0.138505
3   -0.192071
4   -0.192035
5   -0.160729
6   -0.149512
7   -0.045696
8   0.336014
9   0.337739
10   0.050446
11   0.478889
12   -0.489507
13   -0.606251
14   -0.529381
15   -0.564901
16   0.129337
17   0.128506
18   0.141471
19   0.133505
20   0.155055
21   0.153199
22   0.145639
23   0.155081
24   0.187151
25   0.16067
26   0.176852
27   0.335471

>  <lowdin_charges>
27
1   -0.163346
2   -0.168026
3   -0.174014
4   -0.175976
5   -0.208113
6   -0.210865
7   -0.13611
8   0.06298
9   0.059107
10   -0.009377
11   0.074608
12   -0.244552
13   -0.308711
14   -0.204191
15   -0.21923
16   0.158668
17   0.159891
18   0.168031
19   0.164154
20   0.15028
21   0.15286
22   0.139381
23   0.153927
24   0.178247
25   0.153598
26   0.162445
27   0.284333

$$$$

