PCCDB-ID:  15848
public computational chemistry database (PCCDB) project, http://pccdb.org

 24 24  0  0  0  0  0  0  0  0999 V2000
    2.5934   -1.7064    0.6035 C   0  0  0  0  0  0  0  0  0  0  0  0
    3.4860    0.0040   -1.6989 C   0  0  0  0  0  0  0  0  0  0  0  0
    3.4156    1.9716   -0.2824 C   0  0  0  0  0  0  0  0  0  0  0  0
    3.8989    0.7781   -2.7749 C   0  0  0  0  0  0  0  0  0  0  0  0
    3.8284    2.7543   -1.3537 C   0  0  0  0  0  0  0  0  0  0  0  0
    6.4812    3.2436   -6.2130 C   0  0  0  0  0  0  0  0  0  0  0  0
    4.1573    3.6255   -6.8217 C   0  0  0  0  0  0  0  0  0  0  0  0
    2.7882   -0.2087    0.7513 C   0  0  0  0  0  0  0  0  0  0  0  0
    3.2397    0.5897   -0.4435 C   0  0  0  0  0  0  0  0  0  0  0  0
    4.0699    2.1606   -2.5997 C   0  0  0  0  0  0  0  0  0  0  0  0
    5.1343    3.5799   -5.7202 C   0  0  0  0  0  0  0  0  0  0  0  0
    7.5535    2.9830   -6.5682 N   0  0  0  0  0  0  0  0  0  0  0  0
    3.3634    3.6712   -7.6652 N   0  0  0  0  0  0  0  0  0  0  0  0
    4.4868    3.0575   -3.6225 N   0  0  0  0  0  0  0  0  0  0  0  0
    4.7039    2.5315   -4.7347 N   0  0  0  0  0  0  0  0  0  0  0  0
    2.5844    0.3495    1.8168 O   0  0  0  0  0  0  0  0  0  0  0  0
    3.5220   -2.1970    0.2879 H   0  0  0  0  0  0  0  0  0  0  0  0
    1.8317   -1.9316   -0.1528 H   0  0  0  0  0  0  0  0  0  0  0  0
    2.2780   -2.1144    1.5650 H   0  0  0  0  0  0  0  0  0  0  0  0
    3.3551   -1.0642   -1.8383 H   0  0  0  0  0  0  0  0  0  0  0  0
    3.2215    2.4060    0.6922 H   0  0  0  0  0  0  0  0  0  0  0  0
    4.0897    0.3357   -3.7461 H   0  0  0  0  0  0  0  0  0  0  0  0
    3.9706    3.8256   -1.2525 H   0  0  0  0  0  0  0  0  0  0  0  0
    5.1661    4.5608   -5.2248 H   0  0  0  0  0  0  0  0  0  0  0  0
  1  8  1  0  0  0  0
  1 19  1  0  0  0  0
  2  9  2  0  0  0  0
  3 21  1  0  0  0  0
  4 10  2  0  0  0  0
  4  2  1  0  0  0  0
  5 23  1  0  0  0  0
  5  3  2  0  0  0  0
  6 11  1  0  0  0  0
  7 11  1  0  0  0  0
  8 16  2  0  0  0  0
  9  3  1  0  0  0  0
  9  8  1  0  0  0  0
 10  5  1  0  0  0  0
 11 24  1  0  0  0  0
 11 15  1  0  0  0  0
 12  6  3  0  0  0  0
 13  7  3  0  0  0  0
 14 10  1  0  0  0  0
 15 14  1  0  0  0  0
 17  1  1  0  0  0  0
 18  1  1  0  0  0  0
 20  2  1  0  0  0  0
 22  4  1  0  0  0  0
M  RAD  2  14   2  15   2
M  END
>  <HBA>
5

>  <HBD>
0

>  <TPSA>
89.37

>  <cid>
15848

>  <dipole>
3.41

>  <excitation_energy_1>
2.962

>  <excitation_energy_2>
3.147

>  <excitation_energy_3>
3.84

>  <excitation_energy_4>
4.177

>  <homo_energy>
-7.32

>  <homo_lumo_gap>
4.057

>  <logP>
2.389

>  <lumo_energy>
-3.263

>  <melting_point>
128.59

>  <molecular_refractivity>
56.13

>  <oscillator_strength_1>
0.0002

>  <oscillator_strength_2>
0.0

>  <oscillator_strength_3>
0.0387

>  <oscillator_strength_4>
0.5975

>  <open_babel_can_smiles>
N#CC(C#N)[N][N]c1ccc(cc1)C(=O)C

>  <mulliken_charges>
24
1   -0.546047
2   -0.197646
3   -0.168727
4   -0.12166
5   -0.132907
6   0.393851
7   0.394166
8   0.414968
9   0.08888
10   0.258947
11   -0.104849
12   -0.432179
13   -0.432058
14   -0.270531
15   -0.161658
16   -0.43867
17   0.176513
18   0.177043
19   0.189928
20   0.151967
21   0.179633
22   0.176886
23   0.161572
24   0.242577

>  <lowdin_charges>
24
1   -0.476077
2   -0.141296
3   -0.124648
4   -0.139922
5   -0.131514
6   -0.008262
7   -0.007913
8   0.164168
9   -0.030662
10   0.013267
11   -0.059746
12   -0.072111
13   -0.071955
14   -0.05014
15   -0.077229
16   -0.227546
17   0.173293
18   0.174184
19   0.179833
20   0.168023
21   0.184658
22   0.182555
23   0.174962
24   0.204081

$$$$

