PCCDB-ID:  72720
public computational chemistry database (PCCDB) project, http://pccdb.org

 13 13  0  0  0  0  0  0  0  0999 V2000
   -1.1557    0.0777    0.1366 C   0  0  0  0  0  0  0  0  0  0  0  0
   -0.2437   -0.9575    0.1302 C   0  0  0  0  0  0  0  0  0  0  0  0
   -0.5650   -2.3841    0.2240 C   0  0  0  0  0  0  0  0  0  0  0  0
    1.5215   -3.3172   -0.2053 N   0  0  0  0  0  0  0  0  0  0  0  0
    0.1921   -3.4118    0.1386 N   0  0  0  0  0  0  0  0  0  0  0  0
    1.0621   -0.5204    0.0549 N   0  0  0  0  0  0  0  0  0  0  0  0
    1.2265    0.7400    0.0018 N   0  0  0  0  0  0  0  0  0  0  0  0
   -1.9055   -2.5822    0.4481 O   0  0  0  0  0  0  0  0  0  0  0  0
   -0.3216    1.5551    0.0426 S   0  0  0  0  0  0  0  0  0  0  0  0
   -2.2307   -0.0111    0.1900 H   0  0  0  0  0  0  0  0  0  0  0  0
    2.0120   -4.1188    0.1736 H   0  0  0  0  0  0  0  0  0  0  0  0
    1.9670   -2.4335    0.0410 H   0  0  0  0  0  0  0  0  0  0  0  0
   -2.0290   -3.5478    0.4554 H   0  0  0  0  0  0  0  0  0  0  0  0
  1 10  1  0  0  0  0
  2  1  2  0  0  0  0
  2  3  1  0  0  0  0
  3  8  1  0  0  0  0
  4 12  1  0  0  0  0
  4  5  1  0  0  0  0
  4 11  1  0  0  0  0
  5  3  2  0  0  0  0
  6  2  1  0  0  0  0
  7  9  1  0  0  0  0
  7  6  2  0  0  0  0
  8 13  1  0  0  0  0
  9  1  1  0  0  0  0
M  END
>  <HBA>
6

>  <HBD>
2

>  <TPSA>
109.14

>  <cid>
72720

>  <dipole>
1.92

>  <excitation_energy_1>
3.147

>  <excitation_energy_2>
4.248

>  <excitation_energy_3>
4.354

>  <excitation_energy_4>
4.605

>  <homo_energy>
-5.663

>  <homo_lumo_gap>
3.728

>  <logP>
0.233

>  <lumo_energy>
-1.935

>  <melting_point>
150.54

>  <molecular_refractivity>
30.81

>  <oscillator_strength_1>
0.0257

>  <oscillator_strength_2>
0.0014

>  <oscillator_strength_3>
0.0009

>  <oscillator_strength_4>
0.2146

>  <open_babel_can_smiles>
N/N=C(\c1csnn1)/O

>  <mulliken_charges>
13
1   -0.375879
2   0.312303
3   0.49427
4   -0.574664
5   -0.373105
6   -0.299926
7   -0.268701
8   -0.632981
9   0.403929
10   0.224593
11   0.329643
12   0.347729
13   0.412789

>  <lowdin_charges>
13
1   -0.304965
2   -0.025881
3   0.083961
4   -0.436099
5   -0.148678
6   -0.085938
7   -0.223488
8   -0.390616
9   0.415662
10   0.21161
11   0.275643
12   0.269319
13   0.35947

$$$$

