PCCDB-ID:  25398
public computational chemistry database (PCCDB) project, http://pccdb.org

 14 13  0  0  0  0  0  0  0  0999 V2000
    1.3636   -0.6370   -0.2206 C   0  0  0  0  0  0  0  0  0  0  0  0
    0.0678   -0.9696   -0.1296 C   0  0  0  0  0  0  0  0  0  0  0  0
    2.4599   -1.5649   -0.5807 C   0  0  0  0  0  0  0  0  0  0  0  0
   -0.9410    0.0521    0.2751 C   0  0  0  0  0  0  0  0  0  0  0  0
    3.6877   -1.3953   -0.2414 N   0  0  0  0  0  0  0  0  0  0  0  0
    2.0862   -2.7194   -1.2601 N   0  0  0  0  0  0  0  0  0  0  0  0
   -0.6854    1.2153    0.4797 O   0  0  0  0  0  0  0  0  0  0  0  0
   -2.2188   -0.3983    0.4038 O   0  0  0  0  0  0  0  0  0  0  0  0
    1.6459    0.3862    0.0186 H   0  0  0  0  0  0  0  0  0  0  0  0
   -0.2535   -1.9917   -0.3220 H   0  0  0  0  0  0  0  0  0  0  0  0
    3.7889   -0.5511    0.3261 H   0  0  0  0  0  0  0  0  0  0  0  0
    1.4034   -2.5904   -1.9974 H   0  0  0  0  0  0  0  0  0  0  0  0
    2.8901   -3.2610   -1.5598 H   0  0  0  0  0  0  0  0  0  0  0  0
   -2.2628   -1.3529    0.2307 H   0  0  0  0  0  0  0  0  0  0  0  0
  1  2  2  0  0  0  0
  1  9  1  0  0  0  0
  2  4  1  0  0  0  0
  3  5  1  0  0  0  0
  3  1  1  0  0  0  0
  4  8  1  0  0  0  0
  4  7  2  0  0  0  0
  5 11  1  0  0  0  0
  6  3  2  0  0  0  0
 10  2  1  0  0  0  0
 12  6  1  0  0  0  0
 13  6  1  0  0  0  0
 14  8  1  0  0  0  0
M  RAD  1   5   2
M  END
>  <HBA>
4

>  <HBD>
3

>  <TPSA>
87.17

>  <cid>
25398

>  <dipole>
3.95

>  <excitation_energy_1>
4.124

>  <excitation_energy_2>
4.196

>  <excitation_energy_3>
4.396

>  <excitation_energy_4>
5.516

>  <homo_energy>
-6.953

>  <homo_lumo_gap>
4.767

>  <logP>
0.363

>  <lumo_energy>
-2.185

>  <melting_point>
147.26

>  <molecular_refractivity>
28.94

>  <oscillator_strength_1>
0.0093

>  <oscillator_strength_2>
0.0446

>  <oscillator_strength_3>
0.0263

>  <oscillator_strength_4>
0.33

>  <open_babel_can_smiles>
[NH]C(=[NH2])/C=C/C(=O)O

>  <mulliken_charges>
14
1   -0.132301
2   -0.233093
3   0.431132
4   0.608664
5   -0.607606
6   -0.740904
7   -0.447258
8   -0.575624
9   0.184164
10   0.149123
11   0.291478
12   0.322822
13   0.338935
14   0.410467

>  <lowdin_charges>
14
1   -0.121332
2   -0.212091
3   0.084914
4   0.192385
5   -0.402645
6   -0.481923
7   -0.239425
8   -0.349446
9   0.185323
10   0.162473
11   0.258004
12   0.279051
13   0.288288
14   0.356424

$$$$

