PCCDB-ID:  60254
public computational chemistry database (PCCDB) project, http://pccdb.org

 35 35  0  0  0  0  0  0  0  0999 V2000
    0.9645    2.2391    2.8597 C   0  0  0  0  0  0  0  0  0  0  0  0
    3.2543    5.2924    0.7710 C   0  0  0  0  0  0  0  0  0  0  0  0
    2.2665    3.0385    2.7734 C   0  0  0  0  0  0  0  0  0  0  0  0
    3.9170    3.9891    1.2263 C   0  0  0  0  0  0  0  0  0  0  0  0
    6.1779   -4.6673   -0.2764 C   0  0  0  0  0  0  0  0  0  0  0  0
    7.0300   -3.7458   -0.8906 C   0  0  0  0  0  0  0  0  0  0  0  0
    5.2315   -4.2252    0.6503 C   0  0  0  0  0  0  0  0  0  0  0  0
    6.9370   -2.3921   -0.5834 C   0  0  0  0  0  0  0  0  0  0  0  0
    5.1352   -2.8714    0.9621 C   0  0  0  0  0  0  0  0  0  0  0  0
    3.4293    1.5858    1.1448 C   0  0  0  0  0  0  0  0  0  0  0  0
    4.5767    1.0524    2.0251 C   0  0  0  0  0  0  0  0  0  0  0  0
    5.9880   -1.9350    0.3474 C   0  0  0  0  0  0  0  0  0  0  0  0
    5.8830   -0.4882    0.6707 C   0  0  0  0  0  0  0  0  0  0  0  0
    2.9435    2.9185    1.4797 N   0  0  0  0  0  0  0  0  0  0  0  0
    4.9336   -0.2793    1.5931 O   0  0  0  0  0  0  0  0  0  0  0  0
    6.8144    0.7059   -0.0103 S   0  0  0  0  0  0  0  0  0  0  0  0
    0.4529    2.4610    3.8029 H   0  0  0  0  0  0  0  0  0  0  0  0
    1.1336    1.1571    2.8287 H   0  0  0  0  0  0  0  0  0  0  0  0
    0.2988    2.5035    2.0315 H   0  0  0  0  0  0  0  0  0  0  0  0
    4.0173    6.0478    0.5494 H   0  0  0  0  0  0  0  0  0  0  0  0
    2.5923    5.7099    1.5376 H   0  0  0  0  0  0  0  0  0  0  0  0
    2.6593    5.1195   -0.1314 H   0  0  0  0  0  0  0  0  0  0  0  0
    2.9236    2.7676    3.6234 H   0  0  0  0  0  0  0  0  0  0  0  0
    2.0264    4.0978    2.9115 H   0  0  0  0  0  0  0  0  0  0  0  0
    4.5567    4.1876    2.1067 H   0  0  0  0  0  0  0  0  0  0  0  0
    4.5878    3.6420    0.4329 H   0  0  0  0  0  0  0  0  0  0  0  0
    6.2511   -5.7241   -0.5192 H   0  0  0  0  0  0  0  0  0  0  0  0
    7.7676   -4.0833   -1.6133 H   0  0  0  0  0  0  0  0  0  0  0  0
    4.5656   -4.9365    1.1310 H   0  0  0  0  0  0  0  0  0  0  0  0
    7.5932   -1.6712   -1.0584 H   0  0  0  0  0  0  0  0  0  0  0  0
    4.4010   -2.5301    1.6813 H   0  0  0  0  0  0  0  0  0  0  0  0
    2.5987    0.8739    1.1917 H   0  0  0  0  0  0  0  0  0  0  0  0
    3.7770    1.6002    0.1064 H   0  0  0  0  0  0  0  0  0  0  0  0
    4.2666    0.9216    3.0643 H   0  0  0  0  0  0  0  0  0  0  0  0
    5.4577    1.6954    1.9782 H   0  0  0  0  0  0  0  0  0  0  0  0
  1 17  1  0  0  0  0
  2  4  1  0  0  0  0
  2 21  1  0  0  0  0
  3  1  1  0  0  0  0
  3 24  1  0  0  0  0
  3 23  1  0  0  0  0
  4 14  1  0  0  0  0
  4 25  1  0  0  0  0
  5  7  2  0  0  0  0
  6  8  2  0  0  0  0
  6  5  1  0  0  0  0
  7  9  1  0  0  0  0
  7 29  1  0  0  0  0
  8 12  1  0  0  0  0
  9 31  1  0  0  0  0
 10 32  1  0  0  0  0
 10 14  1  0  0  0  0
 10 11  1  0  0  0  0
 11 34  1  0  0  0  0
 12 13  1  0  0  0  0
 12  9  2  0  0  0  0
 13 15  1  0  0  0  0
 14  3  1  0  0  0  0
 15 11  1  0  0  0  0
 16 13  2  0  0  0  0
 18  1  1  0  0  0  0
 19  1  1  0  0  0  0
 20  2  1  0  0  0  0
 22  2  1  0  0  0  0
 26  4  1  0  0  0  0
 27  5  1  0  0  0  0
 28  6  1  0  0  0  0
 30  8  1  0  0  0  0
 33 10  1  0  0  0  0
 35 11  1  0  0  0  0
M  END
>  <HBA>
3

>  <HBD>
0

>  <TPSA>
44.56

>  <cid>
60254

>  <dipole>
2.56

>  <excitation_energy_1>
2.872

>  <excitation_energy_2>
3.093

>  <excitation_energy_3>
4.218

>  <excitation_energy_4>
4.381

>  <homo_energy>
-5.619

>  <homo_lumo_gap>
3.668

>  <logP>
2.72

>  <lumo_energy>
-1.951

>  <melting_point>
27.21

>  <molecular_refractivity>
72.02

>  <oscillator_strength_1>
0.0001

>  <oscillator_strength_2>
0.0448

>  <oscillator_strength_3>
0.216

>  <oscillator_strength_4>
0.1449

>  <open_babel_can_smiles>
CCN(CCOC(=S)c1ccccc1)CC

>  <mulliken_charges>
35
1   -0.450719
2   -0.438405
3   -0.120073
4   -0.133125
5   -0.117125
6   -0.136891
7   -0.131283
8   -0.159135
9   -0.147738
10   -0.163102
11   -0.064403
12   0.076035
13   0.190146
14   -0.373624
15   -0.434325
16   -0.223748
17   0.144053
18   0.14516
19   0.15891
20   0.141538
21   0.143958
22   0.154708
23   0.111574
24   0.144233
25   0.11789
26   0.157742
27   0.138323
28   0.139302
29   0.136581
30   0.173273
31   0.153836
32   0.151215
33   0.169412
34   0.157716
35   0.188094

>  <lowdin_charges>
35
1   -0.44952
2   -0.451432
3   -0.197522
4   -0.200834
5   -0.136139
6   -0.156698
7   -0.159196
8   -0.131776
9   -0.139505
10   -0.217243
11   -0.150159
12   -0.034566
13   0.019298
14   -0.185382
15   -0.156259
16   -0.176359
17   0.153578
18   0.14509
19   0.157246
20   0.152027
21   0.14775
22   0.154692
23   0.115914
24   0.14666
25   0.122386
26   0.155635
27   0.160171
28   0.163254
29   0.162509
30   0.183303
31   0.171756
32   0.150661
33   0.158359
34   0.152819
35   0.169479

$$$$

