PCCDB-ID:  27878
public computational chemistry database (PCCDB) project, http://pccdb.org

 24 25  0  0  0  0  0  0  0  0999 V2000
    1.0567    0.0031    0.1182 C   0  0  0  0  0  0  0  0  0  0  0  0
    2.4477   -2.5970    0.0008 C   0  0  0  0  0  0  0  0  0  0  0  0
    5.6491    2.2573   -0.4353 C   0  0  0  0  0  0  0  0  0  0  0  0
    7.0324    1.5781   -0.5860 C   0  0  0  0  0  0  0  0  0  0  0  0
    3.2863    1.1389   -0.1495 C   0  0  0  0  0  0  0  0  0  0  0  0
    4.6092   -1.3295   -0.2622 C   0  0  0  0  0  0  0  0  0  0  0  0
    2.5566   -0.0519   -0.0484 C   0  0  0  0  0  0  0  0  0  0  0  0
    3.2246   -1.3057   -0.1052 C   0  0  0  0  0  0  0  0  0  0  0  0
    4.6708    1.1039   -0.3066 C   0  0  0  0  0  0  0  0  0  0  0  0
    5.3186   -0.1301   -0.3614 C   0  0  0  0  0  0  0  0  0  0  0  0
    6.7760    0.0602   -0.5306 C   0  0  0  0  0  0  0  0  0  0  0  0
    7.6260   -0.8076   -0.6128 O   0  0  0  0  0  0  0  0  0  0  0  0
    0.7014    1.0366    0.1637 H   0  0  0  0  0  0  0  0  0  0  0  0
    0.7324   -0.5048    1.0355 H   0  0  0  0  0  0  0  0  0  0  0  0
    0.5401   -0.4933   -0.7136 H   0  0  0  0  0  0  0  0  0  0  0  0
    3.1169   -3.4605   -0.0548 H   0  0  0  0  0  0  0  0  0  0  0  0
    1.7083   -2.6953   -0.8047 H   0  0  0  0  0  0  0  0  0  0  0  0
    1.8942   -2.6639    0.9464 H   0  0  0  0  0  0  0  0  0  0  0  0
    5.4053    2.8879   -1.2992 H   0  0  0  0  0  0  0  0  0  0  0  0
    5.6071    2.9113    0.4445 H   0  0  0  0  0  0  0  0  0  0  0  0
    7.7327    1.8515    0.2109 H   0  0  0  0  0  0  0  0  0  0  0  0
    7.5266    1.8215   -1.5330 H   0  0  0  0  0  0  0  0  0  0  0  0
    2.7591    2.0900   -0.1037 H   0  0  0  0  0  0  0  0  0  0  0  0
    5.1477   -2.2729   -0.3092 H   0  0  0  0  0  0  0  0  0  0  0  0
  1 13  1  0  0  0  0
  1 14  1  0  0  0  0
  2 18  1  0  0  0  0
  3  9  1  0  0  0  0
  3 20  1  0  0  0  0
  4 11  1  0  0  0  0
  4  3  1  0  0  0  0
  4 21  1  0  0  0  0
  5 23  1  0  0  0  0
  5  7  2  0  0  0  0
  6  8  2  0  0  0  0
  7  1  1  0  0  0  0
  8  7  1  0  0  0  0
  8  2  1  0  0  0  0
  9  5  1  0  0  0  0
 10  9  2  0  0  0  0
 10  6  1  0  0  0  0
 11 10  1  0  0  0  0
 12 11  2  0  0  0  0
 15  1  1  0  0  0  0
 16  2  1  0  0  0  0
 17  2  1  0  0  0  0
 19  3  1  0  0  0  0
 22  4  1  0  0  0  0
 24  6  1  0  0  0  0
M  END
>  <HBA>
1

>  <HBD>
0

>  <TPSA>
17.07

>  <cid>
27878

>  <dipole>
3.87

>  <excitation_energy_1>
3.728

>  <excitation_energy_2>
4.539

>  <excitation_energy_3>
5.07

>  <excitation_energy_4>
5.328

>  <homo_energy>
-6.362

>  <homo_lumo_gap>
5.11

>  <logP>
2.432

>  <lumo_energy>
-1.252

>  <melting_point>
75.31

>  <molecular_refractivity>
49.42

>  <oscillator_strength_1>
0.0

>  <oscillator_strength_2>
0.0537

>  <oscillator_strength_3>
0.2369

>  <oscillator_strength_4>
0.0002

>  <open_babel_can_smiles>
O=C1CCc2c1cc(C)c(c2)C

>  <mulliken_charges>
24
1   -0.535382
2   -0.534227
3   -0.357913
4   -0.374104
5   -0.25679
6   -0.23185
7   0.141686
8   0.128231
9   0.119745
10   0.07433
11   0.378465
12   -0.47065
13   0.158623
14   0.164676
15   0.165231
16   0.162997
17   0.160741
18   0.160569
19   0.161366
20   0.161533
21   0.17604
22   0.17618
23   0.122408
24   0.148097

>  <lowdin_charges>
24
1   -0.442303
2   -0.442066
3   -0.279851
4   -0.312832
5   -0.178727
6   -0.139339
7   0.013787
8   -0.009501
9   0.005703
10   -0.064654
11   0.14982
12   -0.249236
13   0.157896
14   0.162284
15   0.16318
16   0.161673
17   0.159763
18   0.159039
19   0.159418
20   0.159244
21   0.17204
22   0.171372
23   0.154736
24   0.168551

$$$$

