PCCDB-ID:  7754
public computational chemistry database (PCCDB) project, http://pccdb.org

 22 21  0  0  1  0  0  0  0  0999 V2000
    0.8684    0.3701    0.2819 C   0  0  0  0  0  0  0  0  0  0  0  0
    1.3289   -1.2909   -2.3334 C   0  0  0  0  0  0  0  0  0  0  0  0
    5.5328   -2.3429   -3.3013 C   0  0  0  0  0  0  0  0  0  0  0  0
    2.1629    0.3329   -0.5387 C   0  0  0  0  0  0  0  0  0  0  0  0
    3.8075   -0.9834   -1.9326 C   0  0  0  0  0  0  0  0  0  0  0  0
    2.4132   -0.9926   -1.2861 C   0  0  2  0  0  0  0  0  0  0  0  0
    4.3187   -2.3487   -2.3859 C   0  0  0  0  0  0  0  0  0  0  0  0
    3.7995   -3.3896   -2.0278 O   0  0  0  0  0  0  0  0  0  0  0  0
    0.7987    1.3003    0.8573 H   0  0  0  0  0  0  0  0  0  0  0  0
    0.8281   -0.4644    0.9929 H   0  0  0  0  0  0  0  0  0  0  0  0
   -0.0227    0.3103   -0.3520 H   0  0  0  0  0  0  0  0  0  0  0  0
    0.3366   -1.3641   -1.8768 H   0  0  0  0  0  0  0  0  0  0  0  0
    1.5274   -2.2409   -2.8385 H   0  0  0  0  0  0  0  0  0  0  0  0
    1.2891   -0.4980   -3.0930 H   0  0  0  0  0  0  0  0  0  0  0  0
    6.3223   -1.6900   -2.9100 H   0  0  0  0  0  0  0  0  0  0  0  0
    5.2511   -1.9466   -4.2856 H   0  0  0  0  0  0  0  0  0  0  0  0
    5.9140   -3.3592   -3.4206 H   0  0  0  0  0  0  0  0  0  0  0  0
    3.0113    0.5211    0.1347 H   0  0  0  0  0  0  0  0  0  0  0  0
    2.1605    1.1617   -1.2628 H   0  0  0  0  0  0  0  0  0  0  0  0
    4.5554   -0.6002   -1.2192 H   0  0  0  0  0  0  0  0  0  0  0  0
    3.8431   -0.2867   -2.7838 H   0  0  0  0  0  0  0  0  0  0  0  0
    2.4047   -1.8088   -0.5512 H   0  0  0  0  0  0  0  0  0  0  0  0
  1  9  1  0  0  0  0
  1 10  1  0  0  0  0
  2 12  1  0  0  0  0
  2  6  1  0  0  0  0
  3 15  1  0  0  0  0
  3  7  1  0  0  0  0
  4 18  1  0  0  0  0
  4  1  1  0  0  0  0
  5  6  1  0  0  0  0
  5 20  1  0  0  0  0
  6 22  1  1  0  0  0
  6  4  1  0  0  0  0
  7  8  2  0  0  0  0
  7  5  1  0  0  0  0
 11  1  1  0  0  0  0
 13  2  1  0  0  0  0
 14  2  1  0  0  0  0
 16  3  1  0  0  0  0
 17  3  1  0  0  0  0
 19  4  1  0  0  0  0
 21  5  1  0  0  0  0
M  END
>  <HBA>
1

>  <HBD>
0

>  <TPSA>
17.07

>  <cid>
7754

>  <dipole>
2.54

>  <excitation_energy_1>
4.412

>  <excitation_energy_2>
6.108

>  <excitation_energy_3>
6.754

>  <excitation_energy_4>
6.963

>  <homo_energy>
-6.604

>  <homo_lumo_gap>
6.319

>  <logP>
2.012

>  <lumo_energy>
-0.286

>  <melting_point>
-5.84

>  <molecular_refractivity>
35.96

>  <oscillator_strength_1>
0.0001

>  <oscillator_strength_2>
0.0265

>  <oscillator_strength_3>
0.0158

>  <oscillator_strength_4>
0.0037

>  <open_babel_can_smiles>
CC[C@H](CC(=O)C)C

>  <mulliken_charges>
22
1   -0.4482
2   -0.46024
3   -0.529313
4   -0.250332
5   -0.360015
6   -0.055831
7   0.456928
8   -0.440421
9   0.141957
10   0.144537
11   0.147775
12   0.147462
13   0.162197
14   0.129714
15   0.163493
16   0.171537
17   0.179016
18   0.125992
19   0.124999
20   0.157748
21   0.146001
22   0.144995

>  <lowdin_charges>
22
1   -0.447335
2   -0.449485
3   -0.47686
4   -0.27469
5   -0.313713
6   -0.121475
7   0.169365
8   -0.239125
9   0.150318
10   0.148592
11   0.149034
12   0.151036
13   0.158858
14   0.140883
15   0.167059
16   0.171602
17   0.171648
18   0.138931
19   0.136896
20   0.164506
21   0.154069
22   0.149888

$$$$

