PCCDB-ID:  17399
public computational chemistry database (PCCDB) project, http://pccdb.org

 34 33  0  0  0  0  0  0  0  0999 V2000
    4.4464    1.2742    1.6004 C   0  0  0  0  0  0  0  0  0  0  0  0
   -0.8628  -10.4711   -0.9687 C   0  0  0  0  0  0  0  0  0  0  0  0
    2.1119   -4.7164    0.8002 C   0  0  0  0  0  0  0  0  0  0  0  0
    3.2337   -3.6795    0.9451 C   0  0  0  0  0  0  0  0  0  0  0  0
    2.6332   -6.1478    0.6189 C   0  0  0  0  0  0  0  0  0  0  0  0
    2.7187   -2.2457    1.1205 C   0  0  0  0  0  0  0  0  0  0  0  0
    1.5178   -7.1938    0.5019 C   0  0  0  0  0  0  0  0  0  0  0  0
    3.8469   -1.2235    1.2674 C   0  0  0  0  0  0  0  0  0  0  0  0
    2.0720   -8.6193    0.3104 C   0  0  0  0  0  0  0  0  0  0  0  0
    3.3673    0.2128    1.4518 C   0  0  0  0  0  0  0  0  0  0  0  0
    0.9857   -9.6733    0.2609 C   0  0  0  0  0  0  0  0  0  0  0  0
    2.1854    0.5007    1.4785 O   0  0  0  0  0  0  0  0  0  0  0  0
    0.7974  -10.5330    1.0944 O   0  0  0  0  0  0  0  0  0  0  0  0
    0.2147   -9.5299   -0.8451 O   0  0  0  0  0  0  0  0  0  0  0  0
    5.1034    1.2822    0.7216 H   0  0  0  0  0  0  0  0  0  0  0  0
    5.0813    1.0603    2.4695 H   0  0  0  0  0  0  0  0  0  0  0  0
    3.9847    2.2565    1.7198 H   0  0  0  0  0  0  0  0  0  0  0  0
   -1.3680  -10.2188   -1.9017 H   0  0  0  0  0  0  0  0  0  0  0  0
   -1.5512  -10.3835   -0.1237 H   0  0  0  0  0  0  0  0  0  0  0  0
   -0.4781  -11.4939   -1.0050 H   0  0  0  0  0  0  0  0  0  0  0  0
    1.4753   -4.4484   -0.0557 H   0  0  0  0  0  0  0  0  0  0  0  0
    1.4617   -4.6739    1.6860 H   0  0  0  0  0  0  0  0  0  0  0  0
    3.8880   -3.7291    0.0619 H   0  0  0  0  0  0  0  0  0  0  0  0
    3.8649   -3.9495    1.8052 H   0  0  0  0  0  0  0  0  0  0  0  0
    3.2850   -6.4066    1.4664 H   0  0  0  0  0  0  0  0  0  0  0  0
    3.2671   -6.1925   -0.2790 H   0  0  0  0  0  0  0  0  0  0  0  0
    2.0659   -2.1866    2.0001 H   0  0  0  0  0  0  0  0  0  0  0  0
    2.0890   -1.9654    0.2668 H   0  0  0  0  0  0  0  0  0  0  0  0
    0.8591   -6.9482   -0.3401 H   0  0  0  0  0  0  0  0  0  0  0  0
    0.8939   -7.1664    1.4057 H   0  0  0  0  0  0  0  0  0  0  0  0
    4.5136   -1.2474    0.3913 H   0  0  0  0  0  0  0  0  0  0  0  0
    4.4948   -1.4758    2.1215 H   0  0  0  0  0  0  0  0  0  0  0  0
    2.7395   -8.8864    1.1348 H   0  0  0  0  0  0  0  0  0  0  0  0
    2.6457   -8.6634   -0.6240 H   0  0  0  0  0  0  0  0  0  0  0  0
  1 17  1  0  0  0  0
  1 16  1  0  0  0  0
  2 14  1  0  0  0  0
  2 19  1  0  0  0  0
  3  4  1  0  0  0  0
  3 22  1  0  0  0  0
  4  6  1  0  0  0  0
  4 24  1  0  0  0  0
  5  3  1  0  0  0  0
  5 25  1  0  0  0  0
  6  8  1  0  0  0  0
  6 27  1  0  0  0  0
  7  5  1  0  0  0  0
  7 30  1  0  0  0  0
  8 10  1  0  0  0  0
  8 32  1  0  0  0  0
  9  7  1  0  0  0  0
  9 33  1  0  0  0  0
 10 12  2  0  0  0  0
 10  1  1  0  0  0  0
 11  9  1  0  0  0  0
 11 13  2  0  0  0  0
 14 11  1  0  0  0  0
 15  1  1  0  0  0  0
 18  2  1  0  0  0  0
 20  2  1  0  0  0  0
 21  3  1  0  0  0  0
 23  4  1  0  0  0  0
 26  5  1  0  0  0  0
 28  6  1  0  0  0  0
 29  7  1  0  0  0  0
 31  8  1  0  0  0  0
 34  9  1  0  0  0  0
M  END
>  <HBA>
3

>  <HBD>
0

>  <TPSA>
43.37

>  <cid>
17399

>  <dipole>
2.75

>  <excitation_energy_1>
4.426

>  <excitation_energy_2>
5.711

>  <excitation_energy_3>
6.169

>  <excitation_energy_4>
6.586

>  <homo_energy>
-6.64

>  <homo_lumo_gap>
6.34

>  <logP>
2.479

>  <lumo_energy>
-0.299

>  <melting_point>
3.95

>  <molecular_refractivity>
56.48

>  <oscillator_strength_1>
0.0001

>  <oscillator_strength_2>
0.0036

>  <oscillator_strength_3>
0.0336

>  <oscillator_strength_4>
0.0

>  <open_babel_can_smiles>
COC(=O)CCCCCCCC(=O)C

>  <mulliken_charges>
34
1   -0.528127
2   -0.217065
3   -0.254978
4   -0.257488
5   -0.253636
6   -0.246173
7   -0.268133
8   -0.357907
9   -0.333869
10   0.454165
11   0.598637
12   -0.436072
13   -0.475148
14   -0.445512
15   0.166315
16   0.166751
17   0.179656
18   0.162144
19   0.16906
20   0.16948
21   0.132468
22   0.133148
23   0.125965
24   0.126616
25   0.131943
26   0.1299
27   0.148364
28   0.147578
29   0.153355
30   0.144581
31   0.154012
32   0.15433
33   0.165261
34   0.160381

>  <lowdin_charges>
34
1   -0.4754
2   -0.278756
3   -0.274679
4   -0.275507
5   -0.274784
6   -0.271786
7   -0.270922
8   -0.311219
9   -0.296599
10   0.164197
11   0.195857
12   -0.235498
13   -0.264734
14   -0.198524
15   0.168594
16   0.169022
17   0.172288
18   0.159385
19   0.159091
20   0.157706
21   0.141195
22   0.141203
23   0.137019
24   0.137642
25   0.140412
26   0.139088
27   0.150874
28   0.150822
29   0.151049
30   0.146382
31   0.15876
32   0.159134
33   0.16525
34   0.163436

$$$$

