PCCDB-ID:  59646
public computational chemistry database (PCCDB) project, http://pccdb.org

 31 32  0  0  1  0  0  0  0  0999 V2000
    2.3975   -3.1486   -1.3820 C   0  0  0  0  0  0  0  0  0  0  0  0
    3.2227   -2.1139   -1.2226 C   0  0  0  0  0  0  0  0  0  0  0  0
    7.3213   -0.3738    0.3546 C   0  0  0  0  0  0  0  0  0  0  0  0
    7.3590   -1.6942    1.1496 C   0  0  0  0  0  0  0  0  0  0  0  0
    6.9094    0.8298    1.2257 C   0  0  0  0  0  0  0  0  0  0  0  0
    3.1265   -1.1006   -0.1125 C   0  0  0  0  0  0  0  0  0  0  0  0
    6.0077   -0.6879    3.0184 C   0  0  0  0  0  0  0  0  0  0  0  0
    4.8044   -2.0924    1.3389 C   0  0  0  0  0  0  0  0  0  0  0  0
    4.3768    0.3094    1.4087 C   0  0  0  0  0  0  0  0  0  0  0  0
    6.1405   -1.8968    2.0784 C   0  0  1  0  0  0  0  0  0  0  0  0
    5.7051    0.5452    2.1513 C   0  0  2  0  0  0  0  0  0  0  0  0
    4.3956   -0.9027    0.5854 N   0  0  0  0  0  0  0  0  0  0  0  0
    2.4895   -3.8321   -2.2218 H   0  0  0  0  0  0  0  0  0  0  0  0
    1.5913   -3.3490   -0.6787 H   0  0  0  0  0  0  0  0  0  0  0  0
    4.0275   -1.9423   -1.9381 H   0  0  0  0  0  0  0  0  0  0  0  0
    6.6110   -0.4748   -0.4691 H   0  0  0  0  0  0  0  0  0  0  0  0
    8.3088   -0.1845   -0.0877 H   0  0  0  0  0  0  0  0  0  0  0  0
    8.2605   -1.7135    1.7798 H   0  0  0  0  0  0  0  0  0  0  0  0
    7.4493   -2.5415    0.4564 H   0  0  0  0  0  0  0  0  0  0  0  0
    6.6958    1.6957    0.5843 H   0  0  0  0  0  0  0  0  0  0  0  0
    7.7546    1.1217    1.8667 H   0  0  0  0  0  0  0  0  0  0  0  0
    2.3091   -1.3846    0.5824 H   0  0  0  0  0  0  0  0  0  0  0  0
    2.8445   -0.1302   -0.5469 H   0  0  0  0  0  0  0  0  0  0  0  0
    6.9319   -0.5391    3.5929 H   0  0  0  0  0  0  0  0  0  0  0  0
    5.1989   -0.8539    3.7431 H   0  0  0  0  0  0  0  0  0  0  0  0
    4.0303   -2.3711    2.0867 H   0  0  0  0  0  0  0  0  0  0  0  0
    4.8764   -2.9302    0.6365 H   0  0  0  0  0  0  0  0  0  0  0  0
    4.1576    1.1603    0.7500 H   0  0  0  0  0  0  0  0  0  0  0  0
    3.5611    0.2698    2.1624 H   0  0  0  0  0  0  0  0  0  0  0  0
    6.3093   -2.8083    2.6685 H   0  0  0  0  0  0  0  0  0  0  0  0
    5.5544    1.4230    2.7949 H   0  0  0  0  0  0  0  0  0  0  0  0
  1  2  2  0  0  0  0
  1 14  1  0  0  0  0
  2  6  1  0  0  0  0
  3  4  1  0  0  0  0
  3  5  1  0  0  0  0
  4 18  1  0  0  0  0
  4 10  1  0  0  0  0
  5 21  1  0  0  0  0
  5 11  1  0  0  0  0
  6 22  1  0  0  0  0
  6 12  1  0  0  0  0
  7 24  1  0  0  0  0
  7 25  1  0  0  0  0
  8 10  1  0  0  0  0
  8 26  1  0  0  0  0
  9 11  1  0  0  0  0
  9 29  1  0  0  0  0
 10 30  1  1  0  0  0
 10  7  1  0  0  0  0
 11 31  1  1  0  0  0
 11  7  1  0  0  0  0
 12  8  1  0  0  0  0
 12  9  1  0  0  0  0
 13  1  1  0  0  0  0
 15  2  1  0  0  0  0
 16  3  1  0  0  0  0
 17  3  1  0  0  0  0
 19  4  1  0  0  0  0
 20  5  1  0  0  0  0
 23  6  1  0  0  0  0
 27  8  1  0  0  0  0
 28  9  1  0  0  0  0
M  END
>  <HBA>
1

>  <HBD>
0

>  <TPSA>
3.24

>  <cid>
59646

>  <dipole>
0.43

>  <excitation_energy_1>
4.858

>  <excitation_energy_2>
5.123

>  <excitation_energy_3>
5.491

>  <excitation_energy_4>
5.58

>  <homo_energy>
-5.592

>  <homo_lumo_gap>
6.109

>  <logP>
2.232

>  <lumo_energy>
0.517

>  <melting_point>
-2.69

>  <molecular_refractivity>
57.1

>  <oscillator_strength_1>
0.0005

>  <oscillator_strength_2>
0.0131

>  <oscillator_strength_3>
0.0111

>  <oscillator_strength_4>
0.0159

>  <open_babel_can_smiles>
C=CCN1C[C@@H]2CCC[C@H](C1)C2

>  <mulliken_charges>
31
1   -0.339182
2   -0.049302
3   -0.252548
4   -0.259064
5   -0.259019
6   -0.154719
7   -0.268155
8   -0.118567
9   -0.113282
10   -0.097353
11   -0.097979
12   -0.399992
13   0.14102
14   0.137888
15   0.134932
16   0.155604
17   0.118922
18   0.123096
19   0.125675
20   0.124471
21   0.12365
22   0.11276
23   0.144654
24   0.126615
25   0.123973
26   0.10052
27   0.144995
28   0.131808
29   0.103118
30   0.117921
31   0.117541

>  <lowdin_charges>
31
1   -0.339603
2   -0.149781
3   -0.287374
4   -0.277728
5   -0.27808
6   -0.195183
7   -0.283048
8   -0.205117
9   -0.202045
10   -0.13445
11   -0.135044
12   -0.186393
13   0.159564
14   0.15552
15   0.155616
16   0.15186
17   0.137162
18   0.137386
19   0.141567
20   0.140833
21   0.138251
22   0.121004
23   0.151078
24   0.14021
25   0.139552
26   0.114309
27   0.149772
28   0.141676
29   0.114691
30   0.141884
31   0.141912

$$$$

