PCCDB-ID:  32935
public computational chemistry database (PCCDB) project, http://pccdb.org

 24 23  0  0  0  0  0  0  0  0999 V2000
    1.7901    0.0475    1.5272 C   0  0  0  0  0  0  0  0  0  0  0  0
    9.0656   -2.5252   -0.1431 C   0  0  0  0  0  0  0  0  0  0  0  0
    1.8514   -0.9626    0.3684 C   0  0  0  0  0  0  0  0  0  0  0  0
    7.7130   -3.2442   -0.1702 C   0  0  0  0  0  0  0  0  0  0  0  0
    3.0063   -1.9202    0.4880 C   0  0  0  0  0  0  0  0  0  0  0  0
    6.5197   -2.2834   -0.2439 C   0  0  0  0  0  0  0  0  0  0  0  0
    3.9930   -2.0606   -0.4016 C   0  0  0  0  0  0  0  0  0  0  0  0
    5.1581   -3.0040   -0.2737 C   0  0  0  0  0  0  0  0  0  0  0  0
    0.9223    0.7098    1.4287 H   0  0  0  0  0  0  0  0  0  0  0  0
    2.6927    0.6682    1.5535 H   0  0  0  0  0  0  0  0  0  0  0  0
    1.7110   -0.4645    2.4940 H   0  0  0  0  0  0  0  0  0  0  0  0
    9.8970   -3.2376   -0.0910 H   0  0  0  0  0  0  0  0  0  0  0  0
    9.1428   -1.8589    0.7249 H   0  0  0  0  0  0  0  0  0  0  0  0
    9.2074   -1.9131   -1.0424 H   0  0  0  0  0  0  0  0  0  0  0  0
    1.9138   -0.4270   -0.5876 H   0  0  0  0  0  0  0  0  0  0  0  0
    0.9076   -1.5285    0.3461 H   0  0  0  0  0  0  0  0  0  0  0  0
    7.6156   -3.8743    0.7254 H   0  0  0  0  0  0  0  0  0  0  0  0
    7.6788   -3.9296   -1.0292 H   0  0  0  0  0  0  0  0  0  0  0  0
    3.0217   -2.5350    1.3917 H   0  0  0  0  0  0  0  0  0  0  0  0
    6.6155   -1.6527   -1.1403 H   0  0  0  0  0  0  0  0  0  0  0  0
    6.5430   -1.5980    0.6148 H   0  0  0  0  0  0  0  0  0  0  0  0
    3.9805   -1.4400   -1.3013 H   0  0  0  0  0  0  0  0  0  0  0  0
    5.0445   -3.6126    0.6337 H   0  0  0  0  0  0  0  0  0  0  0  0
    5.1561   -3.7075   -1.1214 H   0  0  0  0  0  0  0  0  0  0  0  0
  1 10  1  0  0  0  0
  1 11  1  0  0  0  0
  2 12  1  0  0  0  0
  2 13  1  0  0  0  0
  3  5  1  0  0  0  0
  3  1  1  0  0  0  0
  4  2  1  0  0  0  0
  4 17  1  0  0  0  0
  5 19  1  0  0  0  0
  6  4  1  0  0  0  0
  6 21  1  0  0  0  0
  7  8  1  0  0  0  0
  7  5  2  0  0  0  0
  8  6  1  0  0  0  0
  8 23  1  0  0  0  0
  9  1  1  0  0  0  0
 14  2  1  0  0  0  0
 15  3  1  0  0  0  0
 16  3  1  0  0  0  0
 18  4  1  0  0  0  0
 20  6  1  0  0  0  0
 22  7  1  0  0  0  0
 24  8  1  0  0  0  0
M  END
>  <HBA>
0

>  <HBD>
0

>  <TPSA>
0.0

>  <cid>
32935

>  <dipole>
0.04

>  <excitation_energy_1>
6.16

>  <excitation_energy_2>
6.379

>  <excitation_energy_3>
6.389

>  <excitation_energy_4>
6.666

>  <homo_energy>
-6.381

>  <homo_lumo_gap>
7.249

>  <logP>
3.143

>  <lumo_energy>
0.868

>  <melting_point>
-18.1

>  <molecular_refractivity>
40.1

>  <oscillator_strength_1>
0.0372

>  <oscillator_strength_2>
0.0381

>  <oscillator_strength_3>
0.1023

>  <oscillator_strength_4>
0.0159

>  <open_babel_can_smiles>
CCCC/C=C/CC

>  <mulliken_charges>
24
1   -0.438927
2   -0.441291
3   -0.29497
4   -0.246541
5   -0.089598
6   -0.245332
7   -0.09432
8   -0.301162
9   0.141855
10   0.149003
11   0.142373
12   0.14156
13   0.142002
14   0.141226
15   0.137272
16   0.140321
17   0.130617
18   0.129907
19   0.111845
20   0.127367
21   0.134298
22   0.11238
23   0.133902
24   0.136216

>  <lowdin_charges>
24
1   -0.443356
2   -0.44547
3   -0.26821
4   -0.273204
5   -0.169676
6   -0.274339
7   -0.168989
8   -0.271304
9   0.149246
10   0.150303
11   0.146614
12   0.149642
13   0.147006
14   0.146482
15   0.144776
16   0.146537
17   0.139266
18   0.138976
19   0.143217
20   0.137997
21   0.141691
22   0.143472
23   0.143881
24   0.145442

$$$$

