PCCDB-ID:  67155
public computational chemistry database (PCCDB) project, http://pccdb.org

 32 32  0  0  0  0  0  0  0  0999 V2000
    6.6733    3.2626   -0.7961 C   0  0  0  0  0  0  0  0  0  0  0  0
    6.3926    2.5978   -2.1492 C   0  0  0  0  0  0  0  0  0  0  0  0
    6.3098    1.0627   -2.1002 C   0  0  0  0  0  0  0  0  0  0  0  0
    5.1211    0.5187   -1.2912 C   0  0  0  0  0  0  0  0  0  0  0  0
    4.9447   -1.0090   -1.3603 C   0  0  0  0  0  0  0  0  0  0  0  0
    3.7777   -4.2306   -0.9552 C   0  0  0  0  0  0  0  0  0  0  0  0
    4.5685   -4.2881   -2.2906 C   0  0  0  0  0  0  0  0  0  0  0  0
    6.0740   -1.7932   -0.6565 C   0  0  0  0  0  0  0  0  0  0  0  0
    4.8384   -3.8209    0.1082 C   0  0  0  0  0  0  0  0  0  0  0  0
    6.0329   -3.9634   -1.8845 C   0  0  0  0  0  0  0  0  0  0  0  0
    5.9875   -3.2528   -0.6033 N   0  0  0  0  0  0  0  0  0  0  0  0
    6.7619    4.3499   -0.9027 H   0  0  0  0  0  0  0  0  0  0  0  0
    7.6116    2.8936   -0.3630 H   0  0  0  0  0  0  0  0  0  0  0  0
    5.8748    3.0678   -0.0716 H   0  0  0  0  0  0  0  0  0  0  0  0
    7.1832    2.8835   -2.8562 H   0  0  0  0  0  0  0  0  0  0  0  0
    5.4554    2.9958   -2.5646 H   0  0  0  0  0  0  0  0  0  0  0  0
    7.2534    0.6695   -1.6968 H   0  0  0  0  0  0  0  0  0  0  0  0
    6.2360    0.6809   -3.1290 H   0  0  0  0  0  0  0  0  0  0  0  0
    4.2020    0.9962   -1.6608 H   0  0  0  0  0  0  0  0  0  0  0  0
    5.2148    0.8192   -0.2381 H   0  0  0  0  0  0  0  0  0  0  0  0
    4.8769   -1.3177   -2.4130 H   0  0  0  0  0  0  0  0  0  0  0  0
    3.9846   -1.2712   -0.8961 H   0  0  0  0  0  0  0  0  0  0  0  0
    3.3162   -5.1922   -0.7060 H   0  0  0  0  0  0  0  0  0  0  0  0
    2.9703   -3.4931   -1.0130 H   0  0  0  0  0  0  0  0  0  0  0  0
    4.1866   -3.5449   -2.9983 H   0  0  0  0  0  0  0  0  0  0  0  0
    4.4923   -5.2656   -2.7789 H   0  0  0  0  0  0  0  0  0  0  0  0
    6.1491   -1.4364    0.3804 H   0  0  0  0  0  0  0  0  0  0  0  0
    7.0340   -1.5509   -1.1284 H   0  0  0  0  0  0  0  0  0  0  0  0
    5.1694   -4.7154    0.6557 H   0  0  0  0  0  0  0  0  0  0  0  0
    4.4561   -3.1128    0.8505 H   0  0  0  0  0  0  0  0  0  0  0  0
    6.5706   -3.3734   -2.6338 H   0  0  0  0  0  0  0  0  0  0  0  0
    6.5909   -4.9016   -1.7485 H   0  0  0  0  0  0  0  0  0  0  0  0
  1 13  1  0  0  0  0
  1 14  1  0  0  0  0
  2  3  1  0  0  0  0
  2  1  1  0  0  0  0
  3 17  1  0  0  0  0
  3  4  1  0  0  0  0
  4 20  1  0  0  0  0
  5  4  1  0  0  0  0
  5 22  1  0  0  0  0
  5  8  1  0  0  0  0
  6 23  1  0  0  0  0
  6  9  1  0  0  0  0
  7 10  1  0  0  0  0
  7  6  1  0  0  0  0
  8 11  1  0  0  0  0
  8 27  1  0  0  0  0
  9 29  1  0  0  0  0
  9 30  1  0  0  0  0
 10 32  1  0  0  0  0
 10 11  1  0  0  0  0
 11  9  1  0  0  0  0
 12  1  1  0  0  0  0
 15  2  1  0  0  0  0
 16  2  1  0  0  0  0
 18  3  1  0  0  0  0
 19  4  1  0  0  0  0
 21  5  1  0  0  0  0
 24  6  1  0  0  0  0
 25  7  1  0  0  0  0
 26  7  1  0  0  0  0
 28  8  1  0  0  0  0
 31 10  1  0  0  0  0
M  END
>  <HBA>
1

>  <HBD>
0

>  <TPSA>
3.24

>  <cid>
67155

>  <dipole>
0.89

>  <excitation_energy_1>
4.823

>  <excitation_energy_2>
5.115

>  <excitation_energy_3>
5.244

>  <excitation_energy_4>
5.274

>  <homo_energy>
-5.263

>  <homo_lumo_gap>
7.255

>  <logP>
2.6

>  <lumo_energy>
1.992

>  <melting_point>
-4.0

>  <molecular_refractivity>
54.88

>  <oscillator_strength_1>
0.0108

>  <oscillator_strength_2>
0.0049

>  <oscillator_strength_3>
0.002

>  <oscillator_strength_4>
0.0225

>  <open_babel_can_smiles>
CCCCCCN1CCCC1

>  <mulliken_charges>
32
1   -0.44312
2   -0.248753
3   -0.252136
4   -0.256955
5   -0.272893
6   -0.284184
7   -0.28192
8   -0.135755
9   -0.140684
10   -0.142052
11   -0.375174
12   0.141823
13   0.140939
14   0.146191
15   0.130258
16   0.128912
17   0.133084
18   0.125752
19   0.127287
20   0.131585
21   0.129848
22   0.130314
23   0.134997
24   0.139447
25   0.13971
26   0.134333
27   0.132768
28   0.139433
29   0.138436
30   0.13537
31   0.135358
32   0.13778

>  <lowdin_charges>
32
1   -0.446272
2   -0.273589
3   -0.277648
4   -0.276061
5   -0.295727
6   -0.301739
7   -0.301409
8   -0.204939
9   -0.209788
10   -0.20925
11   -0.189521
12   0.147699
13   0.146117
14   0.147883
15   0.1423
16   0.138162
17   0.138882
18   0.138015
19   0.140937
20   0.137688
21   0.137143
22   0.141587
23   0.144962
24   0.144558
25   0.144827
26   0.144749
27   0.138717
28   0.14223
29   0.139256
30   0.1458
31   0.146171
32   0.13826

$$$$

