PCCDB-ID:  7704
public computational chemistry database (PCCDB) project, http://pccdb.org

 24 24  0  0  1  0  0  0  0  0999 V2000
    1.0854   -0.2764   -0.3728 C   0  0  0  0  0  0  0  0  0  0  0  0
    2.5485   -0.2168    0.0777 C   0  0  0  0  0  0  0  0  0  0  0  0
    2.9968   -1.4777    0.8280 C   0  0  0  0  0  0  0  0  0  0  0  0
    4.4610   -1.4199    1.2788 C   0  0  0  0  0  0  0  0  0  0  0  0
    6.4264   -2.6181    2.4604 C   0  0  0  0  0  0  0  0  0  0  0  0
    7.0946   -3.7777    1.7095 C   0  0  0  0  0  0  0  0  0  0  0  0
    4.9346   -2.6665    2.0223 C   0  0  2  0  0  0  0  0  0  0  0  0
    5.9719   -4.4707    0.9445 C   0  0  0  0  0  0  0  0  0  0  0  0
    6.0520   -5.4443    0.2416 O   0  0  0  0  0  0  0  0  0  0  0  0
    4.7963   -3.8212    1.1582 O   0  0  0  0  0  0  0  0  0  0  0  0
    0.7939    0.6360   -0.9052 H   0  0  0  0  0  0  0  0  0  0  0  0
    0.4112   -0.3921    0.4847 H   0  0  0  0  0  0  0  0  0  0  0  0
    0.9133   -1.1252   -1.0455 H   0  0  0  0  0  0  0  0  0  0  0  0
    2.6990    0.6631    0.7199 H   0  0  0  0  0  0  0  0  0  0  0  0
    3.1955   -0.0687   -0.7985 H   0  0  0  0  0  0  0  0  0  0  0  0
    2.8539   -2.3580    0.1891 H   0  0  0  0  0  0  0  0  0  0  0  0
    2.3523   -1.6262    1.7074 H   0  0  0  0  0  0  0  0  0  0  0  0
    4.6144   -0.5572    1.9438 H   0  0  0  0  0  0  0  0  0  0  0  0
    5.1163   -1.2649    0.4093 H   0  0  0  0  0  0  0  0  0  0  0  0
    6.8703   -1.6526    2.1999 H   0  0  0  0  0  0  0  0  0  0  0  0
    6.5139   -2.7328    3.5442 H   0  0  0  0  0  0  0  0  0  0  0  0
    7.5754   -4.5105    2.3645 H   0  0  0  0  0  0  0  0  0  0  0  0
    7.8523   -3.4547    0.9884 H   0  0  0  0  0  0  0  0  0  0  0  0
    4.2774   -2.8546    2.8792 H   0  0  0  0  0  0  0  0  0  0  0  0
  1  2  1  0  0  0  0
  1 12  1  0  0  0  0
  2 14  1  0  0  0  0
  2  3  1  0  0  0  0
  3  4  1  0  0  0  0
  3 17  1  0  0  0  0
  4 18  1  0  0  0  0
  4  7  1  0  0  0  0
  5 21  1  0  0  0  0
  6 22  1  0  0  0  0
  6  5  1  0  0  0  0
  7  5  1  0  0  0  0
  7 24  1  1  0  0  0
  8 10  1  0  0  0  0
  8  6  1  0  0  0  0
  9  8  2  0  0  0  0
 10  7  1  0  0  0  0
 11  1  1  0  0  0  0
 13  1  1  0  0  0  0
 15  2  1  0  0  0  0
 16  3  1  0  0  0  0
 19  4  1  0  0  0  0
 20  5  1  0  0  0  0
 23  6  1  0  0  0  0
M  END
>  <HBA>
2

>  <HBD>
0

>  <TPSA>
26.3

>  <cid>
7704

>  <dipole>
4.37

>  <excitation_energy_1>
5.706

>  <excitation_energy_2>
6.651

>  <excitation_energy_3>
7.187

>  <excitation_energy_4>
7.212

>  <homo_energy>
-7.146

>  <homo_lumo_gap>
7.584

>  <logP>
1.882

>  <lumo_energy>
0.438

>  <melting_point>
7.13

>  <molecular_refractivity>
39.74

>  <oscillator_strength_1>
0.0002

>  <oscillator_strength_2>
0.009

>  <oscillator_strength_3>
0.0273

>  <oscillator_strength_4>
0.0099

>  <open_babel_can_smiles>
CCCC[C@@H]1CCC(=O)O1

>  <mulliken_charges>
24
1   -0.442267
2   -0.249498
3   -0.255071
4   -0.271108
5   -0.320328
6   -0.388717
7   0.131553
8   0.604708
9   -0.454134
10   -0.449668
11   0.143073
12   0.142071
13   0.147114
14   0.128232
15   0.133449
16   0.160576
17   0.127706
18   0.1356
19   0.137727
20   0.160102
21   0.159657
22   0.187899
23   0.18748
24   0.143845

>  <lowdin_charges>
24
1   -0.445501
2   -0.272503
3   -0.27887
4   -0.28568
5   -0.293984
6   -0.316504
7   0.005956
8   0.187094
9   -0.241483
10   -0.187685
11   0.150521
12   0.147278
13   0.149859
14   0.137694
15   0.140805
16   0.154426
17   0.139187
18   0.14707
19   0.145811
20   0.157723
21   0.156506
22   0.179002
23   0.178008
24   0.145271

$$$$

