PCCDB-ID:  70280
public computational chemistry database (PCCDB) project, http://pccdb.org

 19 19  0  0  0  0  0  0  0  0999 V2000
    1.0746   -0.2315   -0.0529 C   0  0  0  0  0  0  0  0  0  0  0  0
    5.8946    1.5361    0.1731 C   0  0  0  0  0  0  0  0  0  0  0  0
    3.3444    1.0856    0.0743 C   0  0  0  0  0  0  0  0  0  0  0  0
    2.5687   -0.1020   -0.0035 C   0  0  0  0  0  0  0  0  0  0  0  0
    4.6628    0.6899    0.0969 C   0  0  0  0  0  0  0  0  0  0  0  0
    5.6586   -1.6566    0.0165 C   0  0  0  0  0  0  0  0  0  0  0  0
    5.5195   -2.9125   -0.0428 N   0  0  0  0  0  0  0  0  0  0  0  0
    3.3456   -1.1740   -0.0287 N   0  0  0  0  0  0  0  0  0  0  0  0
    4.6264   -0.6924    0.0331 N   0  0  0  0  0  0  0  0  0  0  0  0
    6.8786   -1.0753    0.0733 O   0  0  0  0  0  0  0  0  0  0  0  0
    0.6003    0.7539   -0.0588 H   0  0  0  0  0  0  0  0  0  0  0  0
    0.6977   -0.7868    0.8133 H   0  0  0  0  0  0  0  0  0  0  0  0
    0.7556   -0.7711   -0.9513 H   0  0  0  0  0  0  0  0  0  0  0  0
    5.5960    2.5869    0.2193 H   0  0  0  0  0  0  0  0  0  0  0  0
    6.5412    1.3952   -0.6983 H   0  0  0  0  0  0  0  0  0  0  0  0
    6.4953    1.3047    1.0578 H   0  0  0  0  0  0  0  0  0  0  0  0
    2.9842    2.1047    0.1101 H   0  0  0  0  0  0  0  0  0  0  0  0
    4.5285   -3.1538   -0.0782 H   0  0  0  0  0  0  0  0  0  0  0  0
    7.5046   -1.8215    0.0561 H   0  0  0  0  0  0  0  0  0  0  0  0
  1  4  1  0  0  0  0
  1 12  1  0  0  0  0
  2 14  1  0  0  0  0
  2 16  1  0  0  0  0
  3  5  2  0  0  0  0
  3 17  1  0  0  0  0
  4  3  1  0  0  0  0
  5  2  1  0  0  0  0
  6  9  1  0  0  0  0
  6 10  1  0  0  0  0
  7  6  2  0  0  0  0
  8  4  2  0  0  0  0
  8  9  1  0  0  0  0
  9  5  1  0  0  0  0
 11  1  1  0  0  0  0
 13  1  1  0  0  0  0
 15  2  1  0  0  0  0
 18  7  1  0  0  0  0
 19 10  1  0  0  0  0
M  END
>  <HBA>
4

>  <HBD>
1

>  <TPSA>
60.91

>  <cid>
70280

>  <dipole>
2.54

>  <excitation_energy_1>
5.463

>  <excitation_energy_2>
5.64

>  <excitation_energy_3>
5.912

>  <excitation_energy_4>
6.061

>  <homo_energy>
-6.604

>  <homo_lumo_gap>
6.125

>  <logP>
1.127

>  <lumo_energy>
-0.479

>  <melting_point>
116.64

>  <molecular_refractivity>
36.72

>  <oscillator_strength_1>
0.1955

>  <oscillator_strength_2>
0.1537

>  <oscillator_strength_3>
0.0082

>  <oscillator_strength_4>
0.0056

>  <open_babel_can_smiles>
Cc1cc(nn1C(=N)O)C

>  <mulliken_charges>
19
1   -0.51424
2   -0.498342
3   -0.326569
4   0.345822
5   0.401772
6   0.669125
7   -0.63914
8   -0.363986
9   -0.386138
10   -0.601169
11   0.156005
12   0.174129
13   0.174365
14   0.160138
15   0.179549
16   0.179499
17   0.133019
18   0.327444
19   0.428717

>  <lowdin_charges>
19
1   -0.44271
2   -0.438875
3   -0.245092
4   0.025199
5   0.044482
6   0.160106
7   -0.427405
8   -0.166858
9   0.023661
10   -0.359666
11   0.160127
12   0.17015
13   0.170223
14   0.163336
15   0.172545
16   0.172552
17   0.165239
18   0.278466
19   0.374519

$$$$

