PCCDB-ID:  13033
public computational chemistry database (PCCDB) project, http://pccdb.org

 22 22  0  0  0  0  0  0  0  0999 V2000
    2.2822   -0.2288    1.1584 C   0  0  0  0  0  0  0  0  0  0  0  0
    2.7993    0.1538   -0.0098 C   0  0  0  0  0  0  0  0  0  0  0  0
    2.8100   -0.6713   -1.2671 C   0  0  0  0  0  0  0  0  0  0  0  0
    4.2136   -3.2421   -5.4588 C   0  0  0  0  0  0  0  0  0  0  0  0
    4.2324   -3.9021   -4.2288 C   0  0  0  0  0  0  0  0  0  0  0  0
    4.2195   -1.8465   -5.4906 C   0  0  0  0  0  0  0  0  0  0  0  0
    4.2442   -0.9766   -1.7676 C   0  0  0  0  0  0  0  0  0  0  0  0
    4.2548   -3.1695   -3.0413 C   0  0  0  0  0  0  0  0  0  0  0  0
    4.2419   -1.1192   -4.2999 C   0  0  0  0  0  0  0  0  0  0  0  0
    4.2599   -1.7681   -3.0577 C   0  0  0  0  0  0  0  0  0  0  0  0
    2.3098    0.4124    2.0355 H   0  0  0  0  0  0  0  0  0  0  0  0
    1.8052   -1.1994    1.2815 H   0  0  0  0  0  0  0  0  0  0  0  0
    3.2693    1.1368   -0.0833 H   0  0  0  0  0  0  0  0  0  0  0  0
    2.2725   -0.1393   -2.0659 H   0  0  0  0  0  0  0  0  0  0  0  0
    2.2722   -1.6134   -1.1031 H   0  0  0  0  0  0  0  0  0  0  0  0
    4.1985   -3.8107   -6.3848 H   0  0  0  0  0  0  0  0  0  0  0  0
    4.2333   -4.9885   -4.1931 H   0  0  0  0  0  0  0  0  0  0  0  0
    4.2106   -1.3228   -6.4432 H   0  0  0  0  0  0  0  0  0  0  0  0
    4.7801   -1.5249   -0.9832 H   0  0  0  0  0  0  0  0  0  0  0  0
    4.7804   -0.0287   -1.9081 H   0  0  0  0  0  0  0  0  0  0  0  0
    4.2753   -3.6913   -2.0865 H   0  0  0  0  0  0  0  0  0  0  0  0
    4.2527   -0.0314   -4.3335 H   0  0  0  0  0  0  0  0  0  0  0  0
  1 12  1  0  0  0  0
  1 11  1  0  0  0  0
  2  1  2  0  0  0  0
  3 15  1  0  0  0  0
  3  2  1  0  0  0  0
  4  5  1  0  0  0  0
  5 17  1  0  0  0  0
  5  8  2  0  0  0  0
  6  4  2  0  0  0  0
  6  9  1  0  0  0  0
  7  3  1  0  0  0  0
  7 19  1  0  0  0  0
  8 21  1  0  0  0  0
  9 10  2  0  0  0  0
 10  8  1  0  0  0  0
 10  7  1  0  0  0  0
 13  2  1  0  0  0  0
 14  3  1  0  0  0  0
 16  4  1  0  0  0  0
 18  6  1  0  0  0  0
 20  7  1  0  0  0  0
 22  9  1  0  0  0  0
M  END
>  <HBA>
0

>  <HBD>
0

>  <TPSA>
0.0

>  <cid>
13033

>  <dipole>
0.13

>  <excitation_energy_1>
5.287

>  <excitation_energy_2>
5.806

>  <excitation_energy_3>
6.007

>  <excitation_energy_4>
6.146

>  <homo_energy>
-6.414

>  <homo_lumo_gap>
6.476

>  <logP>
2.805

>  <lumo_energy>
0.063

>  <melting_point>
-15.44

>  <molecular_refractivity>
45.35

>  <oscillator_strength_1>
0.0014

>  <oscillator_strength_2>
0.1066

>  <oscillator_strength_3>
0.0047

>  <oscillator_strength_4>
0.0286

>  <open_babel_can_smiles>
C=CCCc1ccccc1

>  <mulliken_charges>
22
1   -0.340584
2   -0.040491
3   -0.296788
4   -0.13161
5   -0.127893
6   -0.127587
7   -0.350706
8   -0.18055
9   -0.180783
10   0.173389
11   0.138267
12   0.134955
13   0.123095
14   0.147799
15   0.143507
16   0.127186
17   0.127703
18   0.127538
19   0.149119
20   0.141151
21   0.122414
22   0.12087

>  <lowdin_charges>
22
1   -0.34248
2   -0.145089
3   -0.270187
4   -0.162399
5   -0.152558
6   -0.155613
7   -0.272851
8   -0.167898
9   -0.165515
10   -0.000939
11   0.158294
12   0.153251
13   0.147469
14   0.152727
15   0.149216
16   0.156967
17   0.154516
18   0.15663
19   0.153268
20   0.148017
21   0.154067
22   0.151106

$$$$

