PCCDB-ID:  18613
public computational chemistry database (PCCDB) project, http://pccdb.org

 14 13  0  0  0  0  0  0  0  0999 V2000
    1.4692   -0.2785    0.2308 C   0  0  0  0  0  0  0  0  0  0  0  0
    1.3706    0.1003    1.6224 C   0  0  0  0  0  0  0  0  0  0  0  0
    2.5227    0.0113   -0.5637 C   0  0  0  0  0  0  0  0  0  0  0  0
    0.3172   -0.1896    2.4169 C   0  0  0  0  0  0  0  0  0  0  0  0
    2.5597   -0.4056   -1.9726 C   0  0  0  0  0  0  0  0  0  0  0  0
    0.2810    0.2257    3.8263 C   0  0  0  0  0  0  0  0  0  0  0  0
    3.4852   -0.1694   -2.7264 O   0  0  0  0  0  0  0  0  0  0  0  0
   -0.6440   -0.0114    4.5805 O   0  0  0  0  0  0  0  0  0  0  0  0
    0.6299   -0.8336   -0.1902 H   0  0  0  0  0  0  0  0  0  0  0  0
    2.2100    0.6552    2.0434 H   0  0  0  0  0  0  0  0  0  0  0  0
    3.3857    0.5623   -0.1951 H   0  0  0  0  0  0  0  0  0  0  0  0
   -0.5458   -0.7404    2.0482 H   0  0  0  0  0  0  0  0  0  0  0  0
    1.6637   -0.9673   -2.3195 H   0  0  0  0  0  0  0  0  0  0  0  0
    1.1772    0.7870    4.1733 H   0  0  0  0  0  0  0  0  0  0  0  0
  1  2  1  0  0  0  0
  2 10  1  0  0  0  0
  2  4  2  0  0  0  0
  3 11  1  0  0  0  0
  3  1  2  0  0  0  0
  4  6  1  0  0  0  0
  5  3  1  0  0  0  0
  6 14  1  0  0  0  0
  6  8  2  0  0  0  0
  7  5  2  0  0  0  0
  9  1  1  0  0  0  0
 12  4  1  0  0  0  0
 13  5  1  0  0  0  0
M  END
>  <HBA>
2

>  <HBD>
0

>  <TPSA>
34.14

>  <cid>
18613

>  <dipole>
0.0

>  <excitation_energy_1>
2.974

>  <excitation_energy_2>
3.102

>  <excitation_energy_3>
4.492

>  <excitation_energy_4>
5.259

>  <homo_energy>
-7.219

>  <homo_lumo_gap>
4.093

>  <logP>
0.497

>  <lumo_energy>
-3.127

>  <melting_point>
56.47

>  <molecular_refractivity>
30.41

>  <oscillator_strength_1>
0.0001

>  <oscillator_strength_2>
0.0

>  <oscillator_strength_3>
1.0447

>  <oscillator_strength_4>
0.0

>  <open_babel_can_smiles>
O=C/C=C/C=C/C=O

>  <mulliken_charges>
14
1   -0.099199
2   -0.099389
3   -0.157923
4   -0.157842
5   0.231441
6   0.231434
7   -0.401319
8   -0.401348
9   0.155388
10   0.155402
11   0.162475
12   0.162474
13   0.109196
14   0.109211

>  <lowdin_charges>
14
1   -0.116271
2   -0.116279
3   -0.17241
4   -0.172408
5   0.041989
6   0.042014
7   -0.215106
8   -0.21515
9   0.167803
10   0.167803
11   0.174547
12   0.174547
13   0.119456
14   0.119463

$$$$

