PCCDB-ID:  13276
public computational chemistry database (PCCDB) project, http://pccdb.org

 35 36  0  0  1  0  0  0  0  0999 V2000
    2.6749    1.4659    0.4861 C   0  0  0  0  0  0  0  0  0  0  0  0
    2.5539   -0.0596    0.4741 C   0  0  0  0  0  0  0  0  0  0  0  0
    2.2367    1.2464   -5.8146 C   0  0  0  0  0  0  0  0  0  0  0  0
    3.2747    0.1373   -5.5907 C   0  0  0  0  0  0  0  0  0  0  0  0
    1.4298    1.5213   -4.5363 C   0  0  0  0  0  0  0  0  0  0  0  0
    2.5944   -1.1657   -5.1460 C   0  0  0  0  0  0  0  0  0  0  0  0
    0.7651    0.2452   -3.9863 C   0  0  0  0  0  0  0  0  0  0  0  0
    1.6266   -1.0425   -3.9446 C   0  0  0  0  0  0  0  0  0  0  0  0
    3.5010   -0.7611   -0.5531 C   0  0  1  0  0  0  0  0  0  0  0  0
    3.5005   -2.2460   -0.3299 C   0  0  0  0  0  0  0  0  0  0  0  0
    3.1011   -0.4247   -1.9872 C   0  0  0  0  0  0  0  0  0  0  0  0
    2.0434   -2.6449   -2.0809 C   0  0  0  0  0  0  0  0  0  0  0  0
    2.8194   -3.0884   -1.0041 N   0  0  0  0  0  0  0  0  0  0  0  0
    2.2754   -1.3305   -2.6197 N   0  0  0  0  0  0  0  0  0  0  0  0
    4.2368   -2.7268    0.6894 O   0  0  0  0  0  0  0  0  0  0  0  0
    3.4614    0.6340   -2.4791 O   0  0  0  0  0  0  0  0  0  0  0  0
    1.2197   -3.3784   -2.5865 O   0  0  0  0  0  0  0  0  0  0  0  0
    1.9803    1.8891    1.2195 H   0  0  0  0  0  0  0  0  0  0  0  0
    2.4502    1.8955   -0.4931 H   0  0  0  0  0  0  0  0  0  0  0  0
    3.6885    1.7805    0.7604 H   0  0  0  0  0  0  0  0  0  0  0  0
    1.5232   -0.3638    0.2560 H   0  0  0  0  0  0  0  0  0  0  0  0
    2.7865   -0.4581    1.4702 H   0  0  0  0  0  0  0  0  0  0  0  0
    1.5550    0.9475   -6.6264 H   0  0  0  0  0  0  0  0  0  0  0  0
    2.7315    2.1675   -6.1471 H   0  0  0  0  0  0  0  0  0  0  0  0
    3.9982    0.4637   -4.8372 H   0  0  0  0  0  0  0  0  0  0  0  0
    3.8316   -0.0533   -6.5175 H   0  0  0  0  0  0  0  0  0  0  0  0
    0.6428    2.2589   -4.7427 H   0  0  0  0  0  0  0  0  0  0  0  0
    2.0922    1.9539   -3.7839 H   0  0  0  0  0  0  0  0  0  0  0  0
    3.3332   -1.9489   -4.9374 H   0  0  0  0  0  0  0  0  0  0  0  0
    1.9907   -1.5367   -5.9867 H   0  0  0  0  0  0  0  0  0  0  0  0
   -0.0849    0.0026   -4.6394 H   0  0  0  0  0  0  0  0  0  0  0  0
    0.3335    0.4275   -2.9944 H   0  0  0  0  0  0  0  0  0  0  0  0
    0.9343   -1.8787   -4.0140 H   0  0  0  0  0  0  0  0  0  0  0  0
    4.5136   -0.3592   -0.4198 H   0  0  0  0  0  0  0  0  0  0  0  0
    4.7298   -2.0037    1.1101 H   0  0  0  0  0  0  0  0  0  0  0  0
  1 20  1  0  0  0  0
  1 18  1  0  0  0  0
  2  1  1  0  0  0  0
  2 22  1  0  0  0  0
  3  4  1  0  0  0  0
  3  5  1  0  0  0  0
  4  6  1  0  0  0  0
  4 25  1  0  0  0  0
  5  7  1  0  0  0  0
  5 28  1  0  0  0  0
  6 29  1  0  0  0  0
  6  8  1  0  0  0  0
  7  8  1  0  0  0  0
  7 32  1  0  0  0  0
  8 14  1  0  0  0  0
  9 34  1  1  0  0  0
  9 10  1  0  0  0  0
  9  2  1  0  0  0  0
 10 15  1  0  0  0  0
 11  9  1  0  0  0  0
 12 13  1  0  0  0  0
 13 10  2  0  0  0  0
 14 12  1  0  0  0  0
 14 11  1  0  0  0  0
 15 35  1  0  0  0  0
 16 11  2  0  0  0  0
 17 12  2  0  0  0  0
 19  1  1  0  0  0  0
 21  2  1  0  0  0  0
 23  3  1  0  0  0  0
 24  3  1  0  0  0  0
 26  4  1  0  0  0  0
 27  5  1  0  0  0  0
 30  6  1  0  0  0  0
 31  7  1  0  0  0  0
 33  8  1  0  0  0  0
M  END
>  <HBA>
5

>  <HBD>
1

>  <TPSA>
66.48

>  <cid>
13276

>  <dipole>
4.78

>  <excitation_energy_1>
4.427

>  <excitation_energy_2>
4.802

>  <excitation_energy_3>
4.873

>  <excitation_energy_4>
4.962

>  <homo_energy>
-7.236

>  <homo_lumo_gap>
5.687

>  <logP>
1.69

>  <lumo_energy>
-1.548

>  <melting_point>
118.93

>  <molecular_refractivity>
70.09

>  <oscillator_strength_1>
0.0008

>  <oscillator_strength_2>
0.0054

>  <oscillator_strength_3>
0.0014

>  <oscillator_strength_4>
0.0468

>  <open_babel_can_smiles>
CC[C@H]1C(=NC(=O)N(C1=O)C1CCCCC1)O

>  <mulliken_charges>
35
1   -0.448347
2   -0.261872
3   -0.261148
4   -0.256067
5   -0.255524
6   -0.270087
7   -0.28046
8   0.021745
9   -0.302975
10   0.535769
11   0.630834
12   0.69795
13   -0.469312
14   -0.531856
15   -0.559443
16   -0.497221
17   -0.4585
18   0.155473
19   0.185656
20   0.14848
21   0.168379
22   0.147282
23   0.119576
24   0.129753
25   0.159126
26   0.123781
27   0.120935
28   0.165473
29   0.139934
30   0.139309
31   0.14062
32   0.134201
33   0.192716
34   0.17373
35   0.422091

>  <lowdin_charges>
35
1   -0.446574
2   -0.259212
3   -0.277609
4   -0.285688
5   -0.288391
6   -0.28203
7   -0.281342
8   -0.062446
9   -0.184472
10   0.159401
11   0.165332
12   0.190977
13   -0.183618
14   -0.100712
15   -0.319907
16   -0.272351
17   -0.24097
18   0.159439
19   0.168843
20   0.151085
21   0.157825
22   0.147726
23   0.132863
24   0.144388
25   0.15416
26   0.140755
27   0.139539
28   0.156809
29   0.150447
30   0.14866
31   0.149402
32   0.146772
33   0.182185
34   0.171651
35   0.367065

$$$$

