PCCDB-ID:  61277
public computational chemistry database (PCCDB) project, http://pccdb.org

 13 12  0  0  0  0  0  0  0  0999 V2000
    1.0224    0.0659   -0.0068 C   0  0  0  0  0  0  0  0  0  0  0  0
    3.0770    1.4160   -0.6520 C   0  0  0  0  0  0  0  0  0  0  0  0
    3.2705   -1.0484    2.0000 C   0  0  0  0  0  0  0  0  0  0  0  0
    2.5525    0.0879   -0.1019 C   0  0  0  0  0  0  0  0  0  0  0  0
    3.1492   -0.1438    1.2099 N   0  0  0  0  0  0  0  0  0  0  0  0
    3.4624   -1.8412    2.8549 O   0  0  0  0  0  0  0  0  0  0  0  0
    0.5804    0.2392   -0.9944 H   0  0  0  0  0  0  0  0  0  0  0  0
    0.6695    0.8486    0.6731 H   0  0  0  0  0  0  0  0  0  0  0  0
    0.6647   -0.9003    0.3644 H   0  0  0  0  0  0  0  0  0  0  0  0
    2.6712    1.5957   -1.6532 H   0  0  0  0  0  0  0  0  0  0  0  0
    4.1694    1.4068   -0.7154 H   0  0  0  0  0  0  0  0  0  0  0  0
    2.7788    2.2455   -0.0016 H   0  0  0  0  0  0  0  0  0  0  0  0
    2.8786   -0.7202   -0.7707 H   0  0  0  0  0  0  0  0  0  0  0  0
  1  9  1  0  0  0  0
  1  8  1  0  0  0  0
  2  4  1  0  0  0  0
  2 12  1  0  0  0  0
  3  6  2  0  0  0  0
  4  1  1  0  0  0  0
  4  5  1  0  0  0  0
  5  3  2  0  0  0  0
  7  1  1  0  0  0  0
 10  2  1  0  0  0  0
 11  2  1  0  0  0  0
 13  4  1  0  0  0  0
M  END
>  <HBA>
2

>  <HBD>
0

>  <TPSA>
29.43

>  <cid>
61277

>  <dipole>
2.99

>  <excitation_energy_1>
5.977

>  <excitation_energy_2>
6.724

>  <excitation_energy_3>
7.083

>  <excitation_energy_4>
7.458

>  <homo_energy>
-7.434

>  <homo_lumo_gap>
8.0

>  <logP>
0.731

>  <lumo_energy>
0.566

>  <melting_point>
25.54

>  <molecular_refractivity>
23.6

>  <oscillator_strength_1>
0.002

>  <oscillator_strength_2>
0.022

>  <oscillator_strength_3>
0.011

>  <oscillator_strength_4>
0.0168

>  <open_babel_can_smiles>
CC(N=C=O)C

>  <mulliken_charges>
13
1   -0.438545
2   -0.436596
3   0.602537
4   0.024727
5   -0.423523
6   -0.415884
7   0.151008
8   0.160911
9   0.155322
10   0.147051
11   0.16067
12   0.158474
13   0.153847

>  <lowdin_charges>
13
1   -0.447031
2   -0.442185
3   0.172801
4   -0.024061
5   -0.183193
6   -0.167081
7   0.156086
8   0.159601
9   0.156243
10   0.153346
11   0.158
12   0.158347
13   0.149126

$$$$

