PCCDB-ID:  22250
public computational chemistry database (PCCDB) project, http://pccdb.org

 21 21  0  0  0  0  0  0  0  0999 V2000
    3.3145   -1.2418    0.6902 C   0  0  0  0  0  0  0  0  0  0  0  0
    4.2158    5.8655   -1.4701 C   0  0  0  0  0  0  0  0  0  0  0  0
    4.3143    1.1119   -0.7218 C   0  0  0  0  0  0  0  0  0  0  0  0
    2.5173    2.3888    0.2408 C   0  0  0  0  0  0  0  0  0  0  0  0
    4.8386    2.2776   -1.2717 C   0  0  0  0  0  0  0  0  0  0  0  0
    3.0435    3.5599   -0.3039 C   0  0  0  0  0  0  0  0  0  0  0  0
    3.1345    1.1434    0.0449 C   0  0  0  0  0  0  0  0  0  0  0  0
    4.2135    3.5121   -1.0701 C   0  0  0  0  0  0  0  0  0  0  0  0
    2.5480   -0.0154    0.5709 N   0  0  0  0  0  0  0  0  0  0  0  0
    4.8188    4.5989   -1.6520 O   0  0  0  0  0  0  0  0  0  0  0  0
    2.7037   -1.9870    1.2071 H   0  0  0  0  0  0  0  0  0  0  0  0
    4.2633   -1.1228    1.2410 H   0  0  0  0  0  0  0  0  0  0  0  0
    3.5500   -1.6431   -0.3022 H   0  0  0  0  0  0  0  0  0  0  0  0
    4.8437    6.5795   -2.0074 H   0  0  0  0  0  0  0  0  0  0  0  0
    4.1751    6.1495   -0.4090 H   0  0  0  0  0  0  0  0  0  0  0  0
    3.1987    5.8965   -1.8858 H   0  0  0  0  0  0  0  0  0  0  0  0
    4.8311    0.1737   -0.8939 H   0  0  0  0  0  0  0  0  0  0  0  0
    1.6024    2.4433    0.8279 H   0  0  0  0  0  0  0  0  0  0  0  0
    5.7489    2.2479   -1.8630 H   0  0  0  0  0  0  0  0  0  0  0  0
    2.5314    4.4983   -0.1219 H   0  0  0  0  0  0  0  0  0  0  0  0
    1.9645    0.1726    1.3760 H   0  0  0  0  0  0  0  0  0  0  0  0
  1 11  1  0  0  0  0
  1 12  1  0  0  0  0
  2 15  1  0  0  0  0
  3  7  2  0  0  0  0
  4 18  1  0  0  0  0
  5  8  2  0  0  0  0
  5  3  1  0  0  0  0
  6 20  1  0  0  0  0
  6  4  2  0  0  0  0
  7  4  1  0  0  0  0
  7  9  1  0  0  0  0
  8  6  1  0  0  0  0
  9  1  1  0  0  0  0
  9 21  1  0  0  0  0
 10  2  1  0  0  0  0
 10  8  1  0  0  0  0
 13  1  1  0  0  0  0
 14  2  1  0  0  0  0
 16  2  1  0  0  0  0
 17  3  1  0  0  0  0
 19  5  1  0  0  0  0
M  END
>  <HBA>
2

>  <HBD>
1

>  <TPSA>
21.26

>  <cid>
22250

>  <dipole>
1.79

>  <excitation_energy_1>
4.204

>  <excitation_energy_2>
4.365

>  <excitation_energy_3>
4.734

>  <excitation_energy_4>
4.797

>  <homo_energy>
-4.787

>  <homo_lumo_gap>
5.015

>  <logP>
1.81

>  <lumo_energy>
0.229

>  <melting_point>
43.98

>  <molecular_refractivity>
42.24

>  <oscillator_strength_1>
0.0406

>  <oscillator_strength_2>
0.0174

>  <oscillator_strength_3>
0.0044

>  <oscillator_strength_4>
0.0147

>  <open_babel_can_smiles>
CNc1ccc(cc1)OC

>  <mulliken_charges>
21
1   -0.304797
2   -0.209535
3   -0.184092
4   -0.199919
5   -0.18339
6   -0.197455
7   0.341221
8   0.367787
9   -0.635593
10   -0.514415
11   0.152157
12   0.142327
13   0.163244
14   0.164307
15   0.145026
16   0.146021
17   0.123622
18   0.113933
19   0.132706
20   0.126329
21   0.310514

>  <lowdin_charges>
21
1   -0.355002
2   -0.275998
3   -0.196336
4   -0.189663
5   -0.171551
6   -0.203678
7   0.04158
8   0.078183
9   -0.307383
10   -0.209134
11   0.157427
12   0.13418
13   0.1524
14   0.16119
15   0.139184
16   0.140145
17   0.1588
18   0.150667
19   0.163998
20   0.160259
21   0.270734

$$$$

