PCCDB-ID:  54408
public computational chemistry database (PCCDB) project, http://pccdb.org

 37 37  0  0  0  0  0  0  0  0999 V2000
    4.7354   -1.7367   -1.2912 C   0  0  0  0  0  0  0  0  0  0  0  0
    2.4256    1.1367   -1.9442 C   0  0  0  0  0  0  0  0  0  0  0  0
    9.0256    1.7436   -0.8986 C   0  0  0  0  0  0  0  0  0  0  0  0
    4.2408   -0.7336   -0.2478 C   0  0  0  0  0  0  0  0  0  0  0  0
    3.9612    1.1334   -1.8458 C   0  0  0  0  0  0  0  0  0  0  0  0
    9.3609    5.5489   -0.7043 C   0  0  0  0  0  0  0  0  0  0  0  0
    8.1180    5.9053   -0.1879 C   0  0  0  0  0  0  0  0  0  0  0  0
    9.6341    4.1968   -0.9311 C   0  0  0  0  0  0  0  0  0  0  0  0
    7.1611    4.9293    0.0925 C   0  0  0  0  0  0  0  0  0  0  0  0
    5.1136    2.8768    0.4229 C   0  0  0  0  0  0  0  0  0  0  0  0
    4.3284    1.5657    0.5524 C   0  0  0  0  0  0  0  0  0  0  0  0
    8.7013    3.1976   -0.6568 C   0  0  0  0  0  0  0  0  0  0  0  0
    7.4339    3.5686   -0.1350 C   0  0  0  0  0  0  0  0  0  0  0  0
    6.5087    2.5749    0.1724 N   0  0  0  0  0  0  0  0  0  0  0  0
    4.5503    0.6623   -0.5818 N   0  0  0  0  0  0  0  0  0  0  0  0
    4.6037   -2.7570   -0.9143 H   0  0  0  0  0  0  0  0  0  0  0  0
    5.7994   -1.5807   -1.5002 H   0  0  0  0  0  0  0  0  0  0  0  0
    4.1870   -1.6657   -2.2363 H   0  0  0  0  0  0  0  0  0  0  0  0
    2.1193    1.5318   -2.9196 H   0  0  0  0  0  0  0  0  0  0  0  0
    1.9637    1.7653   -1.1749 H   0  0  0  0  0  0  0  0  0  0  0  0
    2.0064    0.1290   -1.8501 H   0  0  0  0  0  0  0  0  0  0  0  0
   10.0583    1.6246   -1.2399 H   0  0  0  0  0  0  0  0  0  0  0  0
    8.3764    1.2937   -1.6651 H   0  0  0  0  0  0  0  0  0  0  0  0
    8.9001    1.1444    0.0134 H   0  0  0  0  0  0  0  0  0  0  0  0
    4.7423   -0.9477    0.7033 H   0  0  0  0  0  0  0  0  0  0  0  0
    3.1610   -0.8932   -0.0683 H   0  0  0  0  0  0  0  0  0  0  0  0
    4.3358    2.1466   -2.0261 H   0  0  0  0  0  0  0  0  0  0  0  0
    4.3716    0.5190   -2.6541 H   0  0  0  0  0  0  0  0  0  0  0  0
   10.1090    6.3046   -0.9261 H   0  0  0  0  0  0  0  0  0  0  0  0
    7.8804    6.9500   -0.0017 H   0  0  0  0  0  0  0  0  0  0  0  0
   10.6028    3.9043   -1.3318 H   0  0  0  0  0  0  0  0  0  0  0  0
    6.1978    5.2277    0.4931 H   0  0  0  0  0  0  0  0  0  0  0  0
    5.0068    3.4289    1.3662 H   0  0  0  0  0  0  0  0  0  0  0  0
    4.6807    3.5211   -0.3626 H   0  0  0  0  0  0  0  0  0  0  0  0
    3.2631    1.8026    0.7224 H   0  0  0  0  0  0  0  0  0  0  0  0
    4.6848    1.0479    1.4497 H   0  0  0  0  0  0  0  0  0  0  0  0
    6.6009    1.7103   -0.3508 H   0  0  0  0  0  0  0  0  0  0  0  0
  1 16  1  0  0  0  0
  1  4  1  0  0  0  0
  2 21  1  0  0  0  0
  2  5  1  0  0  0  0
  2 20  1  0  0  0  0
  3 12  1  0  0  0  0
  3 24  1  0  0  0  0
  4 26  1  0  0  0  0
  4 25  1  0  0  0  0
  5 15  1  0  0  0  0
  6  7  1  0  0  0  0
  7 30  1  0  0  0  0
  7  9  2  0  0  0  0
  8  6  2  0  0  0  0
  8 12  1  0  0  0  0
  9 32  1  0  0  0  0
 10 11  1  0  0  0  0
 10 33  1  0  0  0  0
 11 35  1  0  0  0  0
 11 36  1  0  0  0  0
 12 13  2  0  0  0  0
 13  9  1  0  0  0  0
 13 14  1  0  0  0  0
 14 10  1  0  0  0  0
 15  4  1  0  0  0  0
 15 11  1  0  0  0  0
 17  1  1  0  0  0  0
 18  1  1  0  0  0  0
 19  2  1  0  0  0  0
 22  3  1  0  0  0  0
 23  3  1  0  0  0  0
 27  5  1  0  0  0  0
 28  5  1  0  0  0  0
 29  6  1  0  0  0  0
 31  8  1  0  0  0  0
 34 10  1  0  0  0  0
 37 14  1  0  0  0  0
M  END
>  <HBA>
2

>  <HBD>
1

>  <TPSA>
15.27

>  <cid>
54408

>  <dipole>
3.06

>  <excitation_energy_1>
4.563

>  <excitation_energy_2>
4.599

>  <excitation_energy_3>
4.752

>  <excitation_energy_4>
4.968

>  <homo_energy>
-4.925

>  <homo_lumo_gap>
5.478

>  <logP>
2.822

>  <lumo_energy>
0.552

>  <melting_point>
42.02

>  <molecular_refractivity>
67.64

>  <oscillator_strength_1>
0.0152

>  <oscillator_strength_2>
0.0505

>  <oscillator_strength_3>
0.0104

>  <oscillator_strength_4>
0.0041

>  <open_babel_can_smiles>
CCN(CCNc1ccccc1C)CC

>  <mulliken_charges>
37
1   -0.457941
2   -0.461224
3   -0.5516
4   -0.107822
5   -0.142707
6   -0.133255
7   -0.14319
8   -0.200509
9   -0.183501
10   -0.120856
11   -0.14183
12   0.148943
13   0.291997
14   -0.675768
15   -0.39903
16   0.147528
17   0.154641
18   0.150334
19   0.148271
20   0.150338
21   0.15077
22   0.154765
23   0.15138
24   0.162003
25   0.141236
26   0.118349
27   0.151003
28   0.147728
29   0.113816
30   0.117147
31   0.111949
32   0.117993
33   0.148331
34   0.133586
35   0.124433
36   0.149446
37   0.333246

>  <lowdin_charges>
37
1   -0.449363
2   -0.465838
3   -0.446725
4   -0.194961
5   -0.207797
6   -0.193128
7   -0.152177
8   -0.161636
9   -0.212186
10   -0.203694
11   -0.205653
12   -0.038192
13   0.049197
14   -0.303972
15   -0.19447
16   0.155013
17   0.152565
18   0.149545
19   0.156007
20   0.151101
21   0.149725
22   0.157259
23   0.151755
24   0.157604
25   0.145819
26   0.11843
27   0.148684
28   0.14866
29   0.152858
30   0.150776
31   0.149393
32   0.153756
33   0.148499
34   0.129033
35   0.126681
36   0.152031
37   0.275397

$$$$

