PCCDB-ID:  56251
public computational chemistry database (PCCDB) project, http://pccdb.org

 31 32  0  0  0  0  0  0  0  0999 V2000
    0.7151    0.0937    0.9747 C   0  0  0  0  0  0  0  0  0  0  0  0
    5.6219    0.8272   -0.6134 C   0  0  0  0  0  0  0  0  0  0  0  0
    3.9397    3.3890    0.1543 C   0  0  0  0  0  0  0  0  0  0  0  0
    1.4498   -5.3965    0.3940 C   0  0  0  0  0  0  0  0  0  0  0  0
    0.5833   -4.4113   -0.0838 C   0  0  0  0  0  0  0  0  0  0  0  0
    2.7331   -5.0374    0.8103 C   0  0  0  0  0  0  0  0  0  0  0  0
    0.9948   -3.0814   -0.1524 C   0  0  0  0  0  0  0  0  0  0  0  0
    3.1413   -3.7059    0.7577 C   0  0  0  0  0  0  0  0  0  0  0  0
    2.1102   -0.0973    0.4546 C   0  0  0  0  0  0  0  0  0  0  0  0
    4.2744    0.3212   -0.1929 C   0  0  0  0  0  0  0  0  0  0  0  0
    2.8145    2.3807    0.3634 C   0  0  0  0  0  0  0  0  0  0  0  0
    2.2802   -2.7016    0.2751 C   0  0  0  0  0  0  0  0  0  0  0  0
    3.0836    0.9426    0.2090 C   0  0  0  0  0  0  0  0  0  0  0  0
    2.7317   -1.3069    0.1952 C   0  0  0  0  0  0  0  0  0  0  0  0
    4.0402   -1.0197   -0.1767 N   0  0  0  0  0  0  0  0  0  0  0  0
    1.6957    2.7922    0.6582 O   0  0  0  0  0  0  0  0  0  0  0  0
    0.7081    0.7712    1.8325 H   0  0  0  0  0  0  0  0  0  0  0  0
    0.2769   -0.8619    1.2770 H   0  0  0  0  0  0  0  0  0  0  0  0
    0.0618    0.5546    0.2247 H   0  0  0  0  0  0  0  0  0  0  0  0
    5.5634    1.4849   -1.4877 H   0  0  0  0  0  0  0  0  0  0  0  0
    6.2761   -0.0109   -0.8781 H   0  0  0  0  0  0  0  0  0  0  0  0
    6.1210    1.3905    0.1828 H   0  0  0  0  0  0  0  0  0  0  0  0
    4.7898    3.1910    0.8174 H   0  0  0  0  0  0  0  0  0  0  0  0
    3.5449    4.3853    0.3626 H   0  0  0  0  0  0  0  0  0  0  0  0
    4.3136    3.3629   -0.8761 H   0  0  0  0  0  0  0  0  0  0  0  0
    1.1288   -6.4335    0.4411 H   0  0  0  0  0  0  0  0  0  0  0  0
   -0.4141   -4.6807   -0.4214 H   0  0  0  0  0  0  0  0  0  0  0  0
    3.4142   -5.7936    1.1921 H   0  0  0  0  0  0  0  0  0  0  0  0
    0.3275   -2.3305   -0.5630 H   0  0  0  0  0  0  0  0  0  0  0  0
    4.1288   -3.4340    1.1231 H   0  0  0  0  0  0  0  0  0  0  0  0
    4.6930   -1.7156   -0.5081 H   0  0  0  0  0  0  0  0  0  0  0  0
  1 18  1  0  0  0  0
  1 17  1  0  0  0  0
  2 10  1  0  0  0  0
  2 22  1  0  0  0  0
  3 24  1  0  0  0  0
  3 11  1  0  0  0  0
  3 23  1  0  0  0  0
  4 26  1  0  0  0  0
  4  6  2  0  0  0  0
  5  4  1  0  0  0  0
  6 28  1  0  0  0  0
  7  5  2  0  0  0  0
  7 12  1  0  0  0  0
  8  6  1  0  0  0  0
  8 30  1  0  0  0  0
  9  1  1  0  0  0  0
 10 15  1  0  0  0  0
 10 13  2  0  0  0  0
 11 16  2  0  0  0  0
 12  8  2  0  0  0  0
 13 11  1  0  0  0  0
 13  9  1  0  0  0  0
 14 12  1  0  0  0  0
 14  9  2  0  0  0  0
 15 14  1  0  0  0  0
 19  1  1  0  0  0  0
 20  2  1  0  0  0  0
 21  2  1  0  0  0  0
 25  3  1  0  0  0  0
 27  5  1  0  0  0  0
 29  7  1  0  0  0  0
 31 15  1  0  0  0  0
M  END
>  <HBA>
1

>  <HBD>
1

>  <TPSA>
32.86

>  <cid>
56251

>  <dipole>
4.95

>  <excitation_energy_1>
4.073

>  <excitation_energy_2>
4.22

>  <excitation_energy_3>
4.349

>  <excitation_energy_4>
4.432

>  <homo_energy>
-5.385

>  <homo_lumo_gap>
4.884

>  <logP>
3.501

>  <lumo_energy>
-0.501

>  <melting_point>
133.44

>  <molecular_refractivity>
66.36

>  <oscillator_strength_1>
0.0002

>  <oscillator_strength_2>
0.1429

>  <oscillator_strength_3>
0.1257

>  <oscillator_strength_4>
0.1963

>  <open_babel_can_smiles>
CC(=O)c1c(C)[nH]c(c1C)c1ccccc1

>  <mulliken_charges>
31
1   -0.508779
2   -0.532756
3   -0.540193
4   -0.127666
5   -0.136968
6   -0.132198
7   -0.169835
8   -0.185075
9   0.071106
10   0.313104
11   0.395451
12   0.111956
13   -0.046111
14   0.185573
15   -0.680155
16   -0.482042
17   0.174109
18   0.141037
19   0.16331
20   0.177948
21   0.150343
22   0.177672
23   0.15855
24   0.175743
25   0.15974
26   0.130697
27   0.133308
28   0.130331
29   0.144872
30   0.122768
31   0.324157

>  <lowdin_charges>
31
1   -0.442211
2   -0.445286
3   -0.472056
4   -0.159101
5   -0.151423
6   -0.155311
7   -0.160995
8   -0.17315
9   -0.018403
10   0.029877
11   0.156337
12   -0.00547
13   -0.11284
14   -0.012667
15   -0.173443
16   -0.267674
17   0.170664
18   0.151705
19   0.164947
20   0.168501
21   0.158382
22   0.169363
23   0.162348
24   0.17101
25   0.162265
26   0.157486
27   0.15882
28   0.159368
29   0.167084
30   0.152401
31   0.289471

$$$$

