PCCDB-ID:  34146
public computational chemistry database (PCCDB) project, http://pccdb.org

 21 20  0  0  0  0  0  0  0  0999 V2000
    2.5803    0.1356   -0.7384 C   0  0  0  0  0  0  0  0  0  0  0  0
    2.1684   -4.5102   -0.0871 C   0  0  0  0  0  0  0  0  0  0  0  0
    2.4217   -0.6114    0.5998 C   0  0  0  0  0  0  0  0  0  0  0  0
    1.9180   -3.0518    0.2038 C   0  0  0  0  0  0  0  0  0  0  0  0
    2.8140   -2.0800    0.5020 C   0  0  0  0  0  0  0  0  0  0  0  0
    0.4593   -2.6872    0.0191 C   0  0  0  0  0  0  0  0  0  0  0  0
    4.2648   -2.4078    0.6632 C   0  0  0  0  0  0  0  0  0  0  0  0
   -0.0939   -2.6896   -1.0514 O   0  0  0  0  0  0  0  0  0  0  0  0
   -0.2341   -2.4109    1.1571 O   0  0  0  0  0  0  0  0  0  0  0  0
    4.7621   -3.5088    0.8056 O   0  0  0  0  0  0  0  0  0  0  0  0
    5.0389   -1.2894    0.6657 O   0  0  0  0  0  0  0  0  0  0  0  0
    2.2935    1.1865   -0.6211 H   0  0  0  0  0  0  0  0  0  0  0  0
    1.9390   -0.3092   -1.5065 H   0  0  0  0  0  0  0  0  0  0  0  0
    3.6163    0.1024   -1.0876 H   0  0  0  0  0  0  0  0  0  0  0  0
    3.2273   -4.7535   -0.1025 H   0  0  0  0  0  0  0  0  0  0  0  0
    1.7032   -4.7542   -1.0494 H   0  0  0  0  0  0  0  0  0  0  0  0
    1.6780   -5.1394    0.6687 H   0  0  0  0  0  0  0  0  0  0  0  0
    1.3802   -0.5290    0.9257 H   0  0  0  0  0  0  0  0  0  0  0  0
    3.0304   -0.1209    1.3651 H   0  0  0  0  0  0  0  0  0  0  0  0
    0.3669   -2.4707    1.9197 H   0  0  0  0  0  0  0  0  0  0  0  0
    5.9532   -1.6074    0.7867 H   0  0  0  0  0  0  0  0  0  0  0  0
  1 12  1  0  0  0  0
  1  3  1  0  0  0  0
  2  4  1  0  0  0  0
  2 17  1  0  0  0  0
  3 18  1  0  0  0  0
  3 19  1  0  0  0  0
  4  5  2  0  0  0  0
  5  3  1  0  0  0  0
  5  7  1  0  0  0  0
  6  4  1  0  0  0  0
  6  9  1  0  0  0  0
  7 11  1  0  0  0  0
  7 10  2  0  0  0  0
  8  6  2  0  0  0  0
  9 20  1  0  0  0  0
 11 21  1  0  0  0  0
 13  1  1  0  0  0  0
 14  1  1  0  0  0  0
 15  2  1  0  0  0  0
 16  2  1  0  0  0  0
M  END
>  <HBA>
4

>  <HBD>
2

>  <TPSA>
74.6

>  <cid>
34146

>  <dipole>
3.36

>  <excitation_energy_1>
4.522

>  <excitation_energy_2>
4.952

>  <excitation_energy_3>
5.527

>  <excitation_energy_4>
5.782

>  <homo_energy>
-7.323

>  <homo_lumo_gap>
5.595

>  <logP>
0.882

>  <lumo_energy>
-1.728

>  <melting_point>
143.72

>  <molecular_refractivity>
38.83

>  <oscillator_strength_1>
0.0009

>  <oscillator_strength_2>
0.0765

>  <oscillator_strength_3>
0.1995

>  <oscillator_strength_4>
0.0283

>  <open_babel_can_smiles>
CC/C(=C(\C(=O)O)/C)/C(=O)O

>  <mulliken_charges>
21
1   -0.445613
2   -0.521242
3   -0.336552
4   0.001181
5   0.051217
6   0.5397
7   0.547137
8   -0.425313
9   -0.553742
10   -0.472758
11   -0.573536
12   0.150597
13   0.166434
14   0.16281
15   0.214373
16   0.190061
17   0.165179
18   0.148531
19   0.162534
20   0.415168
21   0.413834

>  <lowdin_charges>
21
1   -0.440972
2   -0.446673
3   -0.282683
4   -0.012515
5   -0.057108
6   0.19654
7   0.195864
8   -0.222443
9   -0.349288
10   -0.269563
11   -0.353192
12   0.153214
13   0.159836
14   0.155528
15   0.187549
16   0.1779
17   0.167561
18   0.152466
19   0.161503
20   0.363378
21   0.363097

$$$$

