PCCDB-ID:  13360
public computational chemistry database (PCCDB) project, http://pccdb.org

 19 18  0  0  0  0  0  0  0  0999 V2000
    3.1042   -1.2033    1.6481 C   0  0  0  0  0  0  0  0  0  0  0  0
    0.9141   -0.1293    1.0400 C   0  0  0  0  0  0  0  0  0  0  0  0
    5.2428    2.6019   -1.0102 C   0  0  0  0  0  0  0  0  0  0  0  0
    5.1470    1.0834   -1.1838 C   0  0  0  0  0  0  0  0  0  0  0  0
    2.4034   -0.3216    0.9232 C   0  0  0  0  0  0  0  0  0  0  0  0
    3.0751    0.5533   -0.0831 C   0  0  0  0  0  0  0  0  0  0  0  0
    4.2145    3.3270   -1.6426 O   0  0  0  0  0  0  0  0  0  0  0  0
    2.4527    1.3374   -0.7866 O   0  0  0  0  0  0  0  0  0  0  0  0
    4.4083    0.3981   -0.1355 O   0  0  0  0  0  0  0  0  0  0  0  0
    2.6146   -1.8392    2.3808 H   0  0  0  0  0  0  0  0  0  0  0  0
    4.1763   -1.3133    1.5319 H   0  0  0  0  0  0  0  0  0  0  0  0
    0.4943   -0.7977    1.7967 H   0  0  0  0  0  0  0  0  0  0  0  0
    0.4182   -0.3237    0.0826 H   0  0  0  0  0  0  0  0  0  0  0  0
    0.6723    0.9050    1.3091 H   0  0  0  0  0  0  0  0  0  0  0  0
    6.1815    2.9324   -1.4716 H   0  0  0  0  0  0  0  0  0  0  0  0
    5.3193    2.8217    0.0694 H   0  0  0  0  0  0  0  0  0  0  0  0
    6.1358    0.6234   -1.1195 H   0  0  0  0  0  0  0  0  0  0  0  0
    4.6962    0.8480   -2.1533 H   0  0  0  0  0  0  0  0  0  0  0  0
    3.3795    2.8796   -1.4085 H   0  0  0  0  0  0  0  0  0  0  0  0
  1 10  1  0  0  0  0
  2 14  1  0  0  0  0
  2 12  1  0  0  0  0
  3 16  1  0  0  0  0
  4 17  1  0  0  0  0
  4  3  1  0  0  0  0
  4  9  1  0  0  0  0
  5  2  1  0  0  0  0
  5  1  2  0  0  0  0
  6  5  1  0  0  0  0
  7 19  1  0  0  0  0
  7  3  1  0  0  0  0
  8  6  2  0  0  0  0
  9  6  1  0  0  0  0
 11  1  1  0  0  0  0
 13  2  1  0  0  0  0
 15  3  1  0  0  0  0
 18  4  1  0  0  0  0
M  END
>  <HBA>
3

>  <HBD>
1

>  <TPSA>
46.53

>  <cid>
13360

>  <dipole>
3.51

>  <excitation_energy_1>
4.697

>  <excitation_energy_2>
5.02

>  <excitation_energy_3>
5.731

>  <excitation_energy_4>
6.176

>  <homo_energy>
-6.901

>  <homo_lumo_gap>
5.472

>  <logP>
0.098

>  <lumo_energy>
-1.429

>  <melting_point>
-12.68

>  <molecular_refractivity>
32.93

>  <oscillator_strength_1>
0.0049

>  <oscillator_strength_2>
0.005

>  <oscillator_strength_3>
0.1935

>  <oscillator_strength_4>
0.1174

>  <open_babel_can_smiles>
CC(=C)C(=O)OCCO

>  <mulliken_charges>
19
1   -0.363629
2   -0.50079
3   -0.03115
4   -0.08433
5   0.128352
6   0.60499
7   -0.638575
8   -0.505965
9   -0.469794
10   0.153572
11   0.174893
12   0.150696
13   0.176099
14   0.174518
15   0.146516
16   0.129008
17   0.157812
18   0.174025
19   0.423751

>  <lowdin_charges>
19
1   -0.292302
2   -0.434812
3   -0.141901
4   -0.14785
5   -0.028858
6   0.205502
7   -0.479282
8   -0.281105
9   -0.185926
10   0.167008
11   0.174798
12   0.158666
13   0.170325
14   0.168622
15   0.151551
16   0.129291
17   0.160189
18   0.160478
19   0.345607

$$$$

