PCCDB-ID:  7884
public computational chemistry database (PCCDB) project, http://pccdb.org

 23 22  0  0  0  0  0  0  0  0999 V2000
    4.0141    2.7459    1.4647 C   0  0  0  0  0  0  0  0  0  0  0  0
    0.4937    1.8912   -1.6304 C   0  0  0  0  0  0  0  0  0  0  0  0
   -0.2197    3.0450    0.5038 C   0  0  0  0  0  0  0  0  0  0  0  0
    1.2731    4.8229   -1.3349 C   0  0  0  0  0  0  0  0  0  0  0  0
    1.9056    1.6381    0.4339 C   0  0  0  0  0  0  0  0  0  0  0  0
    2.5763    2.3023    1.6380 C   0  0  0  0  0  0  0  0  0  0  0  0
    0.9747    2.5982   -0.3521 C   0  0  0  0  0  0  0  0  0  0  0  0
    1.9706    2.4625    2.6826 O   0  0  0  0  0  0  0  0  0  0  0  0
    1.8423    3.7033   -0.6830 O   0  0  0  0  0  0  0  0  0  0  0  0
    4.0835    3.4082    0.5948 H   0  0  0  0  0  0  0  0  0  0  0  0
    4.6565    1.8781    1.2642 H   0  0  0  0  0  0  0  0  0  0  0  0
    4.3618    3.2571    2.3648 H   0  0  0  0  0  0  0  0  0  0  0  0
   -0.0459    0.9710   -1.3810 H   0  0  0  0  0  0  0  0  0  0  0  0
    1.3459    1.6320   -2.2675 H   0  0  0  0  0  0  0  0  0  0  0  0
   -0.1895    2.5234   -2.2080 H   0  0  0  0  0  0  0  0  0  0  0  0
   -0.7936    2.1718    0.8314 H   0  0  0  0  0  0  0  0  0  0  0  0
   -0.8971    3.6874   -0.0688 H   0  0  0  0  0  0  0  0  0  0  0  0
    0.1121    3.5805    1.3962 H   0  0  0  0  0  0  0  0  0  0  0  0
    2.1022    5.5045   -1.5441 H   0  0  0  0  0  0  0  0  0  0  0  0
    0.5417    5.3489   -0.7063 H   0  0  0  0  0  0  0  0  0  0  0  0
    0.7934    4.5599   -2.2883 H   0  0  0  0  0  0  0  0  0  0  0  0
    1.3111    0.7942    0.7991 H   0  0  0  0  0  0  0  0  0  0  0  0
    2.6646    1.2555   -0.2577 H   0  0  0  0  0  0  0  0  0  0  0  0
  1  6  1  0  0  0  0
  1 12  1  0  0  0  0
  2 13  1  0  0  0  0
  2  7  1  0  0  0  0
  3 16  1  0  0  0  0
  3 18  1  0  0  0  0
  4 20  1  0  0  0  0
  4  9  1  0  0  0  0
  5 22  1  0  0  0  0
  5  6  1  0  0  0  0
  6  8  2  0  0  0  0
  7  5  1  0  0  0  0
  7  3  1  0  0  0  0
  9  7  1  0  0  0  0
 10  1  1  0  0  0  0
 11  1  1  0  0  0  0
 14  2  1  0  0  0  0
 15  2  1  0  0  0  0
 17  3  1  0  0  0  0
 19  4  1  0  0  0  0
 21  4  1  0  0  0  0
 23  5  1  0  0  0  0
M  END
>  <HBA>
2

>  <HBD>
0

>  <TPSA>
26.3

>  <cid>
7884

>  <dipole>
2.79

>  <excitation_energy_1>
4.299

>  <excitation_energy_2>
5.75

>  <excitation_energy_3>
6.048

>  <excitation_energy_4>
6.421

>  <homo_energy>
-6.387

>  <homo_lumo_gap>
6.174

>  <logP>
1.391

>  <lumo_energy>
-0.212

>  <melting_point>
-3.76

>  <molecular_refractivity>
37.09

>  <oscillator_strength_1>
0.0002

>  <oscillator_strength_2>
0.0022

>  <oscillator_strength_3>
0.0324

>  <oscillator_strength_4>
0.003

>  <open_babel_can_smiles>
COC(CC(=O)C)(C)C

>  <mulliken_charges>
23
1   -0.532514
2   -0.46001
3   -0.466394
4   -0.200942
5   -0.344631
6   0.468296
7   0.322612
8   -0.452351
9   -0.500707
10   0.189986
11   0.160694
12   0.170142
13   0.147294
14   0.152183
15   0.146201
16   0.148217
17   0.138572
18   0.181478
19   0.157472
20   0.141034
21   0.132957
22   0.158815
23   0.141597

>  <lowdin_charges>
23
1   -0.478073
2   -0.458332
3   -0.462151
4   -0.284882
5   -0.312474
6   0.176109
7   0.13574
8   -0.245294
9   -0.281375
10   0.18014
11   0.166639
12   0.167982
13   0.156468
14   0.155962
15   0.152928
16   0.15905
17   0.149777
18   0.170733
19   0.156504
20   0.138987
21   0.133204
22   0.167134
23   0.155224

$$$$

