PCCDB-ID:  8400
public computational chemistry database (PCCDB) project, http://pccdb.org

 28 29  0  0  1  0  0  0  0  0999 V2000
    0.4096   -0.7046    4.1139 C   0  0  0  0  0  0  0  0  0  0  0  0
    2.2312    5.0205    0.2388 C   0  0  0  0  0  0  0  0  0  0  0  0
    1.7941   -0.7358    3.9259 C   0  0  0  0  0  0  0  0  0  0  0  0
   -0.4335   -0.5263    3.0169 C   0  0  0  0  0  0  0  0  0  0  0  0
    1.1901    4.0917    0.2936 C   0  0  0  0  0  0  0  0  0  0  0  0
    3.5558    4.5823    0.1473 C   0  0  0  0  0  0  0  0  0  0  0  0
    2.3312   -0.5849    2.6489 C   0  0  0  0  0  0  0  0  0  0  0  0
    0.1077   -0.3745    1.7384 C   0  0  0  0  0  0  0  0  0  0  0  0
    1.4682    2.7265    0.2559 C   0  0  0  0  0  0  0  0  0  0  0  0
    3.8358    3.2206    0.1096 C   0  0  0  0  0  0  0  0  0  0  0  0
    1.4919   -0.3955    1.5430 C   0  0  0  0  0  0  0  0  0  0  0  0
    2.7951    2.2774    0.1633 C   0  0  0  0  0  0  0  0  0  0  0  0
    2.0878   -0.2778    0.1417 C   0  0  1  0  0  0  0  0  0  0  0  0
    3.1580    0.8369    0.0937 C   0  0  0  0  0  0  0  0  0  0  0  0
    2.6833   -1.4896   -0.2635 O   0  0  0  0  0  0  0  0  0  0  0  0
    4.3287    0.4796    0.0006 O   0  0  0  0  0  0  0  0  0  0  0  0
   -0.0085   -0.8240    5.1098 H   0  0  0  0  0  0  0  0  0  0  0  0
    2.0113    6.0843    0.2673 H   0  0  0  0  0  0  0  0  0  0  0  0
    2.4559   -0.8791    4.7760 H   0  0  0  0  0  0  0  0  0  0  0  0
   -1.5117   -0.5132    3.1527 H   0  0  0  0  0  0  0  0  0  0  0  0
    0.1605    4.4301    0.3671 H   0  0  0  0  0  0  0  0  0  0  0  0
    4.3668    5.3040    0.1041 H   0  0  0  0  0  0  0  0  0  0  0  0
    3.4079   -0.6186    2.5044 H   0  0  0  0  0  0  0  0  0  0  0  0
   -0.5533   -0.2519    0.8825 H   0  0  0  0  0  0  0  0  0  0  0  0
    0.6504    2.0173    0.3130 H   0  0  0  0  0  0  0  0  0  0  0  0
    4.8559    2.8593    0.0347 H   0  0  0  0  0  0  0  0  0  0  0  0
    1.2825   -0.0276   -0.5634 H   0  0  0  0  0  0  0  0  0  0  0  0
    3.6448   -1.3049   -0.2698 H   0  0  0  0  0  0  0  0  0  0  0  0
  1 17  1  0  0  0  0
  2 18  1  0  0  0  0
  2  5  2  0  0  0  0
  3  1  1  0  0  0  0
  3 19  1  0  0  0  0
  4 20  1  0  0  0  0
  4  1  2  0  0  0  0
  5 21  1  0  0  0  0
  6  2  1  0  0  0  0
  7  3  2  0  0  0  0
  8  4  1  0  0  0  0
  9  5  1  0  0  0  0
  9 25  1  0  0  0  0
 10  6  2  0  0  0  0
 10 12  1  0  0  0  0
 11  8  2  0  0  0  0
 11  7  1  0  0  0  0
 12  9  2  0  0  0  0
 13 27  1  6  0  0  0
 13 11  1  0  0  0  0
 14 13  1  0  0  0  0
 14 12  1  0  0  0  0
 15 13  1  0  0  0  0
 16 14  2  0  0  0  0
 22  6  1  0  0  0  0
 23  7  1  0  0  0  0
 24  8  1  0  0  0  0
 26 10  1  0  0  0  0
 28 15  1  0  0  0  0
M  END
>  <HBA>
2

>  <HBD>
1

>  <TPSA>
37.3

>  <cid>
8400

>  <dipole>
3.94

>  <excitation_energy_1>
3.769

>  <excitation_energy_2>
4.134

>  <excitation_energy_3>
4.31

>  <excitation_energy_4>
4.541

>  <homo_energy>
-6.582

>  <homo_lumo_gap>
4.691

>  <logP>
2.603

>  <lumo_energy>
-1.891

>  <melting_point>
87.22

>  <molecular_refractivity>
62.29

>  <oscillator_strength_1>
0.0154

>  <oscillator_strength_2>
0.0027

>  <oscillator_strength_3>
0.0047

>  <oscillator_strength_4>
0.0132

>  <open_babel_can_smiles>
O[C@H](C(=O)c1ccccc1)c1ccccc1

>  <mulliken_charges>
28
1   -0.127611
2   -0.115866
3   -0.127722
4   -0.129598
5   -0.138304
6   -0.132532
7   -0.174909
8   -0.193206
9   -0.164904
10   -0.152427
11   0.183998
12   0.092346
13   -0.013655
14   0.365401
15   -0.629832
16   -0.493924
17   0.132014
18   0.14201
19   0.133931
20   0.131616
21   0.14101
22   0.142136
23   0.143754
24   0.127877
25   0.145742
26   0.166801
27   0.13583
28   0.410024

>  <lowdin_charges>
28
1   -0.15369
2   -0.131367
3   -0.152134
4   -0.151658
5   -0.153879
6   -0.155054
7   -0.150572
8   -0.168969
9   -0.141217
10   -0.122991
11   -0.014466
12   -0.046201
13   -0.029206
14   0.152372
15   -0.452405
16   -0.25232
17   0.158505
18   0.161978
19   0.160522
20   0.156833
21   0.162315
22   0.164655
23   0.161855
24   0.155799
25   0.168479
26   0.176951
27   0.149892
28   0.345972

$$$$

