PCCDB-ID:  15327
public computational chemistry database (PCCDB) project, http://pccdb.org

 27 27  0  0  0  0  0  0  0  0999 V2000
    6.6330   -0.2258    1.9264 C   0  0  0  0  0  0  0  0  0  0  0  0
    4.9518    4.9669   -3.9791 C   0  0  0  0  0  0  0  0  0  0  0  0
    5.4171   -0.1032    1.0022 C   0  0  0  0  0  0  0  0  0  0  0  0
    5.7356    0.5991   -0.3235 C   0  0  0  0  0  0  0  0  0  0  0  0
    5.5711    1.3053   -4.8733 C   0  0  0  0  0  0  0  0  0  0  0  0
    5.4727    2.6941   -4.9777 C   0  0  0  0  0  0  0  0  0  0  0  0
    4.5108    0.7274   -1.2512 C   0  0  0  0  0  0  0  0  0  0  0  0
    5.2506    0.6668   -3.6770 C   0  0  0  0  0  0  0  0  0  0  0  0
    4.7332    2.7997   -2.6920 C   0  0  0  0  0  0  0  0  0  0  0  0
    5.0531    3.4613   -3.8853 C   0  0  0  0  0  0  0  0  0  0  0  0
    4.8269    1.4093   -2.5657 C   0  0  0  0  0  0  0  0  0  0  0  0
    6.3745   -0.7331    2.8629 H   0  0  0  0  0  0  0  0  0  0  0  0
    7.0372    0.7612    2.1826 H   0  0  0  0  0  0  0  0  0  0  0  0
    7.4379   -0.7978    1.4487 H   0  0  0  0  0  0  0  0  0  0  0  0
    5.0502    5.3109   -5.0137 H   0  0  0  0  0  0  0  0  0  0  0  0
    5.7388    5.4581   -3.3918 H   0  0  0  0  0  0  0  0  0  0  0  0
    3.9912    5.3295   -3.5942 H   0  0  0  0  0  0  0  0  0  0  0  0
    4.6168    0.4450    1.5198 H   0  0  0  0  0  0  0  0  0  0  0  0
    5.0125   -1.1040    0.7939 H   0  0  0  0  0  0  0  0  0  0  0  0
    6.5302    0.0513   -0.8495 H   0  0  0  0  0  0  0  0  0  0  0  0
    6.1408    1.6008   -0.1221 H   0  0  0  0  0  0  0  0  0  0  0  0
    5.8910    0.7199   -5.7318 H   0  0  0  0  0  0  0  0  0  0  0  0
    5.7179    3.1857   -5.9164 H   0  0  0  0  0  0  0  0  0  0  0  0
    3.7238    1.2850   -0.7258 H   0  0  0  0  0  0  0  0  0  0  0  0
    4.1047   -0.2746   -1.4447 H   0  0  0  0  0  0  0  0  0  0  0  0
    5.3214   -0.4164   -3.6031 H   0  0  0  0  0  0  0  0  0  0  0  0
    4.3956    3.3851   -1.8373 H   0  0  0  0  0  0  0  0  0  0  0  0
  1 13  1  0  0  0  0
  1 12  1  0  0  0  0
  2 10  1  0  0  0  0
  2 17  1  0  0  0  0
  2 16  1  0  0  0  0
  3 18  1  0  0  0  0
  3  1  1  0  0  0  0
  4 21  1  0  0  0  0
  4  3  1  0  0  0  0
  5  8  1  0  0  0  0
  6  5  2  0  0  0  0
  6 10  1  0  0  0  0
  7 24  1  0  0  0  0
  7  4  1  0  0  0  0
  8 26  1  0  0  0  0
  8 11  2  0  0  0  0
  9 11  1  0  0  0  0
  9 27  1  0  0  0  0
 10  9  2  0  0  0  0
 11  7  1  0  0  0  0
 14  1  1  0  0  0  0
 15  2  1  0  0  0  0
 19  3  1  0  0  0  0
 20  4  1  0  0  0  0
 22  5  1  0  0  0  0
 23  6  1  0  0  0  0
 25  7  1  0  0  0  0
M  END
>  <HBA>
0

>  <HBD>
0

>  <TPSA>
0.0

>  <cid>
15327

>  <dipole>
0.34

>  <excitation_energy_1>
5.187

>  <excitation_energy_2>
5.771

>  <excitation_energy_3>
5.895

>  <excitation_energy_4>
6.054

>  <homo_energy>
-6.248

>  <homo_lumo_gap>
6.406

>  <logP>
3.338

>  <lumo_energy>
0.158

>  <melting_point>
10.0

>  <molecular_refractivity>
50.8

>  <oscillator_strength_1>
0.0043

>  <oscillator_strength_2>
0.0132

>  <oscillator_strength_3>
0.0034

>  <oscillator_strength_4>
0.0098

>  <open_babel_can_smiles>
CCCCc1cccc(c1)C

>  <mulliken_charges>
27
1   -0.441432
2   -0.529326
3   -0.245767
4   -0.241278
5   -0.125335
6   -0.185944
7   -0.349016
8   -0.185276
9   -0.234605
10   0.181719
11   0.178587
12   0.141872
13   0.142181
14   0.14246
15   0.153382
16   0.162429
17   0.158596
18   0.130252
19   0.130461
20   0.134353
21   0.133587
22   0.124668
23   0.117881
24   0.137859
25   0.137759
26   0.118134
27   0.111799

>  <lowdin_charges>
27
1   -0.444704
2   -0.442698
3   -0.273633
4   -0.2726
5   -0.155656
6   -0.175157
7   -0.273343
8   -0.17191
9   -0.179352
10   0.002876
11   0.00252
12   0.149439
13   0.146427
14   0.147872
15   0.154954
16   0.161376
17   0.158725
18   0.139793
19   0.138225
20   0.142742
21   0.140647
22   0.156317
23   0.152719
24   0.147612
25   0.14596
26   0.150398
27   0.150451

$$$$

