PCCDB-ID:  29376
public computational chemistry database (PCCDB) project, http://pccdb.org

 26 25  0  0  0  0  0  0  0  0999 V2000
    1.9281   -2.5943    0.6382 C   0  0  0  0  0  0  0  0  0  0  0  0
    7.3896   -1.9619   -1.0326 C   0  0  0  0  0  0  0  0  0  0  0  0
    5.4291    2.0244    0.3022 C   0  0  0  0  0  0  0  0  0  0  0  0
    2.9629   -1.4668    0.6649 C   0  0  0  0  0  0  0  0  0  0  0  0
    6.9707   -0.5287   -0.7055 C   0  0  0  0  0  0  0  0  0  0  0  0
    5.3914    0.5954    0.8589 C   0  0  0  0  0  0  0  0  0  0  0  0
    4.5348   -0.7625   -0.9852 C   0  0  0  0  0  0  0  0  0  0  0  0
    3.3444   -1.1172   -0.6913 N   0  0  0  0  0  0  0  0  0  0  0  0
    5.6072   -0.4527   -0.1507 N   0  0  0  0  0  0  0  0  0  0  0  0
    4.8628   -0.6773   -2.3123 O   0  0  0  0  0  0  0  0  0  0  0  0
    1.6013   -2.8478    1.6537 H   0  0  0  0  0  0  0  0  0  0  0  0
    2.3501   -3.4940    0.1771 H   0  0  0  0  0  0  0  0  0  0  0  0
    1.0515   -2.2963    0.0536 H   0  0  0  0  0  0  0  0  0  0  0  0
    8.4266   -1.9785   -1.3874 H   0  0  0  0  0  0  0  0  0  0  0  0
    6.7580   -2.3850   -1.8185 H   0  0  0  0  0  0  0  0  0  0  0  0
    7.3166   -2.5993   -0.1449 H   0  0  0  0  0  0  0  0  0  0  0  0
    5.2585    2.7496    1.1069 H   0  0  0  0  0  0  0  0  0  0  0  0
    4.6505    2.1680   -0.4550 H   0  0  0  0  0  0  0  0  0  0  0  0
    6.3967    2.2549   -0.1568 H   0  0  0  0  0  0  0  0  0  0  0  0
    3.8319   -1.7752    1.2688 H   0  0  0  0  0  0  0  0  0  0  0  0
    2.5169   -0.5958    1.1720 H   0  0  0  0  0  0  0  0  0  0  0  0
    7.0828    0.1093   -1.5913 H   0  0  0  0  0  0  0  0  0  0  0  0
    7.6352   -0.1269    0.0673 H   0  0  0  0  0  0  0  0  0  0  0  0
    4.4317    0.4206    1.3476 H   0  0  0  0  0  0  0  0  0  0  0  0
    6.1620    0.4696    1.6287 H   0  0  0  0  0  0  0  0  0  0  0  0
    4.0784   -1.0286   -2.7715 H   0  0  0  0  0  0  0  0  0  0  0  0
  1  4  1  0  0  0  0
  1 11  1  0  0  0  0
  2  5  1  0  0  0  0
  2 16  1  0  0  0  0
  3  6  1  0  0  0  0
  3 17  1  0  0  0  0
  4 21  1  0  0  0  0
  4 20  1  0  0  0  0
  5  9  1  0  0  0  0
  5 23  1  0  0  0  0
  6 24  1  0  0  0  0
  6 25  1  0  0  0  0
  7  8  2  0  0  0  0
  7  9  1  0  0  0  0
  8  4  1  0  0  0  0
  9  6  1  0  0  0  0
 10  7  1  0  0  0  0
 12  1  1  0  0  0  0
 13  1  1  0  0  0  0
 14  2  1  0  0  0  0
 15  2  1  0  0  0  0
 18  3  1  0  0  0  0
 19  3  1  0  0  0  0
 22  5  1  0  0  0  0
 26 10  1  0  0  0  0
M  END
>  <HBA>
3

>  <HBD>
1

>  <TPSA>
32.34

>  <cid>
29376

>  <dipole>
1.64

>  <excitation_energy_1>
5.439

>  <excitation_energy_2>
5.693

>  <excitation_energy_3>
5.832

>  <excitation_energy_4>
5.935

>  <homo_energy>
-5.834

>  <homo_lumo_gap>
7.026

>  <logP>
1.449

>  <lumo_energy>
1.192

>  <melting_point>
34.31

>  <molecular_refractivity>
42.05

>  <oscillator_strength_1>
0.0182

>  <oscillator_strength_2>
0.0137

>  <oscillator_strength_3>
0.0519

>  <oscillator_strength_4>
0.0009

>  <open_babel_can_smiles>
CC/N=C(\N(CC)CC)/O

>  <mulliken_charges>
26
1   -0.432636
2   -0.448238
3   -0.448085
4   -0.138874
5   -0.116706
6   -0.152396
7   0.649447
8   -0.481295
9   -0.439935
10   -0.60828
11   0.130638
12   0.144303
13   0.150267
14   0.141219
15   0.165604
16   0.149635
17   0.145222
18   0.162789
19   0.151619
20   0.130967
21   0.13198
22   0.157942
23   0.137073
24   0.164051
25   0.145647
26   0.408043

>  <lowdin_charges>
26
1   -0.446054
2   -0.451126
3   -0.460352
4   -0.198962
5   -0.19348
6   -0.193162
7   0.154224
8   -0.278018
9   -0.144436
10   -0.385958
11   0.143828
12   0.149609
13   0.152991
14   0.150993
15   0.15995
16   0.151979
17   0.154492
18   0.158515
19   0.151365
20   0.130909
21   0.13447
22   0.146035
23   0.147686
24   0.158777
25   0.1458
26   0.359926

$$$$

