PCCDB-ID:  29544
public computational chemistry database (PCCDB) project, http://pccdb.org

 15 14  0  0  0  0  0  0  0  0999 V2000
    1.1997   -0.2382   -0.2264 C   0  0  0  0  0  0  0  0  0  0  0  0
    2.6960    0.0102   -0.0551 C   0  0  0  0  0  0  0  0  0  0  0  0
    4.6006   -0.8289    1.2488 C   0  0  0  0  0  0  0  0  0  0  0  0
    5.4075   -0.2488    0.4363 N   0  0  0  0  0  0  0  0  0  0  0  0
    4.9271   -1.5145    2.4349 N   0  0  0  0  0  0  0  0  0  0  0  0
    3.2290   -0.8119    1.0289 N   0  0  0  0  0  0  0  0  0  0  0  0
    0.8043    0.3691   -1.0475 H   0  0  0  0  0  0  0  0  0  0  0  0
    0.6404    0.0305    0.6796 H   0  0  0  0  0  0  0  0  0  0  0  0
    0.9990   -1.2921   -0.4475 H   0  0  0  0  0  0  0  0  0  0  0  0
    2.8946    1.0789    0.1183 H   0  0  0  0  0  0  0  0  0  0  0  0
    3.2426   -0.2572   -0.9629 H   0  0  0  0  0  0  0  0  0  0  0  0
    6.3781   -0.4538    0.6807 H   0  0  0  0  0  0  0  0  0  0  0  0
    5.9175   -1.7076    2.5254 H   0  0  0  0  0  0  0  0  0  0  0  0
    4.3791   -2.3572    2.5787 H   0  0  0  0  0  0  0  0  0  0  0  0
    2.6918   -0.7556    1.8878 H   0  0  0  0  0  0  0  0  0  0  0  0
  1  2  1  0  0  0  0
  1  8  1  0  0  0  0
  2 10  1  0  0  0  0
  2  6  1  0  0  0  0
  3  5  2  0  0  0  0
  4 12  1  0  0  0  0
  4  3  1  0  0  0  0
  5 13  1  0  0  0  0
  5 14  1  0  0  0  0
  6  3  1  0  0  0  0
  6 15  1  0  0  0  0
  7  1  1  0  0  0  0
  9  1  1  0  0  0  0
 11  2  1  0  0  0  0
M  RAD  1   4   2
M  END
>  <HBA>
3

>  <HBD>
2

>  <TPSA>
64.4

>  <cid>
29544

>  <dipole>
2.63

>  <excitation_energy_1>
5.263

>  <excitation_energy_2>
5.858

>  <excitation_energy_3>
6.077

>  <excitation_energy_4>
6.272

>  <homo_energy>
-5.992

>  <homo_lumo_gap>
7.611

>  <logP>
0.68

>  <lumo_energy>
1.619

>  <melting_point>
101.79

>  <molecular_refractivity>
25.63

>  <oscillator_strength_1>
0.002

>  <oscillator_strength_2>
0.0058

>  <oscillator_strength_3>
0.0166

>  <oscillator_strength_4>
0.0314

>  <open_babel_can_smiles>
CCNC(=[NH2])[NH]

>  <mulliken_charges>
15
1   -0.461823
2   -0.094652
3   0.581891
4   -0.643967
5   -0.756264
6   -0.597679
7   0.1515
8   0.1365
9   0.154963
10   0.143268
11   0.17477
12   0.261939
13   0.316843
14   0.320357
15   0.312354

>  <lowdin_charges>
15
1   -0.450385
2   -0.185788
3   0.124754
4   -0.477665
5   -0.51506
6   -0.313522
7   0.157478
8   0.143867
9   0.152227
10   0.136111
11   0.164166
12   0.244155
13   0.272313
14   0.276481
15   0.27087

$$$$

