PCCDB-ID:  36181
public computational chemistry database (PCCDB) project, http://pccdb.org

 16 16  0  0  0  0  0  0  0  0999 V2000
    1.0682    0.3714   -0.4307 C   0  0  0  0  0  0  0  0  0  0  0  0
    2.5240    0.1462   -0.1777 C   0  0  0  0  0  0  0  0  0  0  0  0
    3.2610   -1.0781    0.0266 C   0  0  0  0  0  0  0  0  0  0  0  0
    2.7855   -2.4612    0.0187 C   0  0  0  0  0  0  0  0  0  0  0  0
    4.7609   -3.5313    0.5792 N   0  0  0  0  0  0  0  0  0  0  0  0
    3.4431   -3.5444    0.2067 N   0  0  0  0  0  0  0  0  0  0  0  0
    3.3679    1.1415   -0.1053 N   0  0  0  0  0  0  0  0  0  0  0  0
    4.5267   -0.7737    0.2192 N   0  0  0  0  0  0  0  0  0  0  0  0
    1.4428   -2.5536   -0.2517 O   0  0  0  0  0  0  0  0  0  0  0  0
    4.6049    0.5875    0.1371 O   0  0  0  0  0  0  0  0  0  0  0  0
    0.4663   -0.0344    0.3875 H   0  0  0  0  0  0  0  0  0  0  0  0
    0.7509   -0.1378   -1.3452 H   0  0  0  0  0  0  0  0  0  0  0  0
    0.8755    1.4423   -0.5262 H   0  0  0  0  0  0  0  0  0  0  0  0
    5.1917   -4.4088    0.3149 H   0  0  0  0  0  0  0  0  0  0  0  0
    5.2979   -2.7156    0.2869 H   0  0  0  0  0  0  0  0  0  0  0  0
    1.2337   -3.5040   -0.2155 H   0  0  0  0  0  0  0  0  0  0  0  0
  1  2  1  0  0  0  0
  1 11  1  0  0  0  0
  2  7  2  0  0  0  0
  2  3  1  0  0  0  0
  3  8  2  0  0  0  0
  4  3  1  0  0  0  0
  4  6  2  0  0  0  0
  6  5  1  0  0  0  0
  7 10  1  0  0  0  0
  9 16  1  0  0  0  0
  9  4  1  0  0  0  0
 10  8  1  0  0  0  0
 12  1  1  0  0  0  0
 13  1  1  0  0  0  0
 14  5  1  0  0  0  0
 15  5  1  0  0  0  0
M  END
>  <HBA>
6

>  <HBD>
2

>  <TPSA>
94.04

>  <cid>
36181

>  <dipole>
2.78

>  <excitation_energy_1>
3.831

>  <excitation_energy_2>
5.157

>  <excitation_energy_3>
5.191

>  <excitation_energy_4>
5.317

>  <homo_energy>
-5.91

>  <homo_lumo_gap>
4.264

>  <logP>
0.073

>  <lumo_energy>
-1.646

>  <melting_point>
155.38

>  <molecular_refractivity>
30.16

>  <oscillator_strength_1>
0.0866

>  <oscillator_strength_2>
0.0013

>  <oscillator_strength_3>
0.1637

>  <oscillator_strength_4>
0.0012

>  <open_babel_can_smiles>
Cc1nonc1/C(=N\N)/O

>  <mulliken_charges>
16
1   -0.503106
2   0.267469
3   0.277022
4   0.491842
5   -0.566585
6   -0.36788
7   -0.16577
8   -0.243744
9   -0.634851
10   -0.211165
11   0.1869
12   0.187178
13   0.180837
14   0.33519
15   0.351323
16   0.415339

>  <lowdin_charges>
16
1   -0.435021
2   0.014781
3   -0.022558
4   0.080382
5   -0.425125
6   -0.140877
7   -0.046344
8   -0.059237
9   -0.384825
10   -0.027081
11   0.179609
12   0.179063
13   0.173509
14   0.278491
15   0.273875
16   0.361358

$$$$

