PCCDB-ID:  11261
public computational chemistry database (PCCDB) project, http://pccdb.org

 21 20  0  0  1  0  0  0  0  0999 V2000
    2.8380    0.1439    1.5502 C   0  0  0  0  0  0  0  0  0  0  0  0
    2.5101    2.4160   -0.6652 C   0  0  0  0  0  0  0  0  0  0  0  0
    5.1747   -0.4121   -1.2386 C   0  0  0  0  0  0  0  0  0  0  0  0
    2.4258   -0.0273    0.0811 C   0  0  0  0  0  0  0  0  0  0  0  0
    3.0309    0.9914   -0.9141 C   0  0  2  0  0  0  0  0  0  0  0  0
    4.5764    0.9715   -0.9695 C   0  0  2  0  0  0  0  0  0  0  0  0
    5.0622    1.9104   -1.9382 O   0  0  0  0  0  0  0  0  0  0  0  0
    2.3335   -0.5995    2.1778 H   0  0  0  0  0  0  0  0  0  0  0  0
    2.5715    1.1335    1.9368 H   0  0  0  0  0  0  0  0  0  0  0  0
    3.9170    0.0120    1.6921 H   0  0  0  0  0  0  0  0  0  0  0  0
    1.4147    2.4444   -0.7060 H   0  0  0  0  0  0  0  0  0  0  0  0
    2.9048    3.1088   -1.4126 H   0  0  0  0  0  0  0  0  0  0  0  0
    2.8173    2.7891    0.3192 H   0  0  0  0  0  0  0  0  0  0  0  0
    4.9793   -1.1153   -0.4224 H   0  0  0  0  0  0  0  0  0  0  0  0
    6.2584   -0.3234   -1.3634 H   0  0  0  0  0  0  0  0  0  0  0  0
    4.7598   -0.8462   -2.1592 H   0  0  0  0  0  0  0  0  0  0  0  0
    1.3321    0.0464    0.0100 H   0  0  0  0  0  0  0  0  0  0  0  0
    2.6757   -1.0453   -0.2429 H   0  0  0  0  0  0  0  0  0  0  0  0
    2.6859    0.6835   -1.9169 H   0  0  0  0  0  0  0  0  0  0  0  0
    4.9716    1.3519   -0.0198 H   0  0  0  0  0  0  0  0  0  0  0  0
    4.7403    1.6145   -2.8059 H   0  0  0  0  0  0  0  0  0  0  0  0
  1 10  1  0  0  0  0
  1  9  1  0  0  0  0
  1  8  1  0  0  0  0
  2 13  1  0  0  0  0
  3  6  1  0  0  0  0
  3 14  1  0  0  0  0
  4  1  1  0  0  0  0
  5 19  1  6  0  0  0
  5  2  1  0  0  0  0
  5  4  1  0  0  0  0
  6  5  1  0  0  0  0
  6 20  1  1  0  0  0
  7  6  1  0  0  0  0
 11  2  1  0  0  0  0
 12  2  1  0  0  0  0
 15  3  1  0  0  0  0
 16  3  1  0  0  0  0
 17  4  1  0  0  0  0
 18  4  1  0  0  0  0
 21  7  1  0  0  0  0
M  END
>  <HBA>
1

>  <HBD>
1

>  <TPSA>
20.23

>  <cid>
11261

>  <dipole>
1.62

>  <excitation_energy_1>
6.438

>  <excitation_energy_2>
7.023

>  <excitation_energy_3>
7.2

>  <excitation_energy_4>
7.268

>  <homo_energy>
-7.034

>  <homo_lumo_gap>
8.955

>  <logP>
1.413

>  <lumo_energy>
1.921

>  <melting_point>
-7.94

>  <molecular_refractivity>
32.12

>  <oscillator_strength_1>
0.0079

>  <oscillator_strength_2>
0.0029

>  <oscillator_strength_3>
0.0272

>  <oscillator_strength_4>
0.0224

>  <open_babel_can_smiles>
CC[C@H]([C@H](O)C)C

>  <mulliken_charges>
21
1   -0.45321
2   -0.446759
3   -0.468185
4   -0.260014
5   -0.086784
6   0.146676
7   -0.624086
8   0.144085
9   0.150019
10   0.146383
11   0.134215
12   0.158164
13   0.14152
14   0.148921
15   0.158756
16   0.130463
17   0.131941
18   0.133409
19   0.100836
20   0.134295
21   0.379356

>  <lowdin_charges>
21
1   -0.449517
2   -0.44786
3   -0.462535
4   -0.273942
5   -0.140352
6   -0.002073
7   -0.462714
8   0.152873
9   0.149604
10   0.144875
11   0.143348
12   0.159067
13   0.14654
14   0.154962
15   0.157394
16   0.142995
17   0.141059
18   0.140662
19   0.127892
20   0.141814
21   0.335907

$$$$

