PCCDB-ID:  65285
public computational chemistry database (PCCDB) project, http://pccdb.org

 20 19  0  0  1  0  0  0  0  0999 V2000
    3.0052   -0.6008    1.1065 C   0  0  0  0  0  0  0  0  0  0  0  0
    2.3731    0.7069   -2.5503 C   0  0  0  0  0  0  0  0  0  0  0  0
    6.9699   -1.1630   -2.2522 C   0  0  0  0  0  0  0  0  0  0  0  0
    2.5421    0.3055   -0.0383 C   0  0  0  0  0  0  0  0  0  0  0  0
    2.9716   -0.1772   -1.4386 C   0  0  2  0  0  0  0  0  0  0  0  0
    4.4943   -0.1453   -1.5653 C   0  0  0  0  0  0  0  0  0  0  0  0
    5.1685    0.8265   -1.2989 O   0  0  0  0  0  0  0  0  0  0  0  0
    5.2180   -1.6750   -2.1874 S   0  0  0  0  0  0  0  0  0  0  0  0
    2.6442   -0.2248    2.0702 H   0  0  0  0  0  0  0  0  0  0  0  0
    4.0986   -0.6508    1.1603 H   0  0  0  0  0  0  0  0  0  0  0  0
    2.6286   -1.6237    0.9851 H   0  0  0  0  0  0  0  0  0  0  0  0
    1.2795    0.7036   -2.4869 H   0  0  0  0  0  0  0  0  0  0  0  0
    2.6572    0.3474   -3.5453 H   0  0  0  0  0  0  0  0  0  0  0  0
    2.7240    1.7386   -2.4453 H   0  0  0  0  0  0  0  0  0  0  0  0
    7.5353   -2.0114   -2.6436 H   0  0  0  0  0  0  0  0  0  0  0  0
    7.3242   -0.9056   -1.2526 H   0  0  0  0  0  0  0  0  0  0  0  0
    7.0851   -0.2999   -2.9102 H   0  0  0  0  0  0  0  0  0  0  0  0
    2.9317    1.3200    0.1079 H   0  0  0  0  0  0  0  0  0  0  0  0
    1.4468    0.3807   -0.0301 H   0  0  0  0  0  0  0  0  0  0  0  0
    2.6294   -1.2106   -1.5846 H   0  0  0  0  0  0  0  0  0  0  0  0
  1 10  1  0  0  0  0
  1  9  1  0  0  0  0
  2 12  1  0  0  0  0
  2 14  1  0  0  0  0
  2  5  1  0  0  0  0
  3  8  1  0  0  0  0
  3 16  1  0  0  0  0
  4 19  1  0  0  0  0
  4 18  1  0  0  0  0
  4  1  1  0  0  0  0
  5 20  1  6  0  0  0
  5  4  1  0  0  0  0
  6  5  1  0  0  0  0
  6  7  2  0  0  0  0
  8  6  1  0  0  0  0
 11  1  1  0  0  0  0
 13  2  1  0  0  0  0
 15  3  1  0  0  0  0
 17  3  1  0  0  0  0
M  END
>  <HBA>
2

>  <HBD>
0

>  <TPSA>
42.37

>  <cid>
65285

>  <dipole>
0.86

>  <excitation_energy_1>
4.688

>  <excitation_energy_2>
5.537

>  <excitation_energy_3>
5.765

>  <excitation_energy_4>
6.244

>  <homo_energy>
-6.827

>  <homo_lumo_gap>
6.436

>  <logP>
1.922

>  <lumo_energy>
-0.392

>  <melting_point>
3.8

>  <molecular_refractivity>
38.75

>  <oscillator_strength_1>
0.0004

>  <oscillator_strength_2>
0.0473

>  <oscillator_strength_3>
0.0001

>  <oscillator_strength_4>
0.0743

>  <open_babel_can_smiles>
CC[C@H](C(=O)SC)C

>  <mulliken_charges>
20
1   -0.45485
2   -0.451079
3   -0.58126
4   -0.249266
5   -0.147328
6   0.280895
7   -0.440136
8   0.098093
9   0.147674
10   0.159479
11   0.144536
12   0.151698
13   0.157097
14   0.167381
15   0.18073
16   0.199805
17   0.200024
18   0.158233
19   0.135513
20   0.142762

>  <lowdin_charges>
20
1   -0.444444
2   -0.433603
3   -0.539938
4   -0.265558
5   -0.145898
6   0.044942
7   -0.245981
8   0.129067
9   0.153397
10   0.152549
11   0.147101
12   0.152975
13   0.156514
14   0.159742
15   0.176881
16   0.176805
17   0.178191
18   0.153703
19   0.142877
20   0.150679

$$$$

