PCCDB-ID:  23151
public computational chemistry database (PCCDB) project, http://pccdb.org

 25 26  0  0  0  0  0  0  0  0999 V2000
    1.0102   -0.1253    0.0689 C   0  0  0  0  0  0  0  0  0  0  0  0
    6.8886    0.0497    0.0460 C   0  0  0  0  0  0  0  0  0  0  0  0
    4.0504   -3.5176   -0.1836 C   0  0  0  0  0  0  0  0  0  0  0  0
    2.7958   -2.6865    0.1839 C   0  0  0  0  0  0  0  0  0  0  0  0
    5.2577   -2.6145    0.1723 C   0  0  0  0  0  0  0  0  0  0  0  0
    3.2156    1.1306   -0.0129 C   0  0  0  0  0  0  0  0  0  0  0  0
    4.6122    1.1716   -0.0182 C   0  0  0  0  0  0  0  0  0  0  0  0
    2.5194   -0.0823    0.0506 C   0  0  0  0  0  0  0  0  0  0  0  0
    5.3793    0.0019    0.0386 C   0  0  0  0  0  0  0  0  0  0  0  0
    3.2855   -1.2550    0.0946 C   0  0  0  0  0  0  0  0  0  0  0  0
    4.6844   -1.2141    0.0884 C   0  0  0  0  0  0  0  0  0  0  0  0
    0.5838    0.8806    0.0002 H   0  0  0  0  0  0  0  0  0  0  0  0
    0.6299   -0.5864    0.9899 H   0  0  0  0  0  0  0  0  0  0  0  0
    0.6110   -0.7148   -0.7668 H   0  0  0  0  0  0  0  0  0  0  0  0
    7.2531    1.0770   -0.0551 H   0  0  0  0  0  0  0  0  0  0  0  0
    7.3176   -0.5395   -0.7750 H   0  0  0  0  0  0  0  0  0  0  0  0
    7.3021   -0.3597    0.9773 H   0  0  0  0  0  0  0  0  0  0  0  0
    4.0510   -3.7107   -1.2630 H   0  0  0  0  0  0  0  0  0  0  0  0
    4.0810   -4.4889    0.3203 H   0  0  0  0  0  0  0  0  0  0  0  0
    2.4555   -2.9128    1.2064 H   0  0  0  0  0  0  0  0  0  0  0  0
    1.9459   -2.8967   -0.4765 H   0  0  0  0  0  0  0  0  0  0  0  0
    6.1115   -2.7741   -0.4975 H   0  0  0  0  0  0  0  0  0  0  0  0
    5.6218   -2.8207    1.1907 H   0  0  0  0  0  0  0  0  0  0  0  0
    2.6559    2.0626   -0.0588 H   0  0  0  0  0  0  0  0  0  0  0  0
    5.1155    2.1349   -0.0685 H   0  0  0  0  0  0  0  0  0  0  0  0
  1 13  1  0  0  0  0
  2 17  1  0  0  0  0
  3  5  1  0  0  0  0
  3  4  1  0  0  0  0
  3 19  1  0  0  0  0
  4 20  1  0  0  0  0
  5 23  1  0  0  0  0
  6  8  1  0  0  0  0
  7  6  2  0  0  0  0
  7  9  1  0  0  0  0
  8  1  1  0  0  0  0
  8 10  2  0  0  0  0
  9  2  1  0  0  0  0
  9 11  2  0  0  0  0
 10  4  1  0  0  0  0
 11 10  1  0  0  0  0
 11  5  1  0  0  0  0
 12  1  1  0  0  0  0
 14  1  1  0  0  0  0
 15  2  1  0  0  0  0
 16  2  1  0  0  0  0
 18  3  1  0  0  0  0
 21  4  1  0  0  0  0
 22  5  1  0  0  0  0
 24  6  1  0  0  0  0
 25  7  1  0  0  0  0
M  END
>  <HBA>
0

>  <HBD>
0

>  <TPSA>
0.0

>  <cid>
23151

>  <dipole>
0.52

>  <excitation_energy_1>
5.111

>  <excitation_energy_2>
5.662

>  <excitation_energy_3>
5.754

>  <excitation_energy_4>
5.803

>  <homo_energy>
-5.997

>  <homo_lumo_gap>
6.305

>  <logP>
2.792

>  <lumo_energy>
0.307

>  <melting_point>
43.58

>  <molecular_refractivity>
49.0

>  <oscillator_strength_1>
0.0013

>  <oscillator_strength_2>
0.0098

>  <oscillator_strength_3>
0.0

>  <oscillator_strength_4>
0.0165

>  <open_babel_can_smiles>
Cc1ccc(c2c1CCC2)C

>  <mulliken_charges>
25
1   -0.530532
2   -0.530638
3   -0.279365
4   -0.349026
5   -0.349131
6   -0.188554
7   -0.188578
8   0.12312
9   0.1233
10   0.073449
11   0.073453
12   0.151929
13   0.157572
14   0.157296
15   0.151959
16   0.157027
17   0.157786
18   0.145514
19   0.134537
20   0.1473
21   0.14306
22   0.143072
23   0.147359
24   0.114062
25   0.114029

>  <lowdin_charges>
25
1   -0.441982
2   -0.441767
3   -0.271579
4   -0.279298
5   -0.279145
6   -0.172488
7   -0.172058
8   -0.0119
9   -0.011833
10   -0.023058
11   -0.023208
12   0.155031
13   0.157851
14   0.15788
15   0.154758
16   0.157845
17   0.157834
18   0.144694
19   0.144613
20   0.147978
21   0.149662
22   0.149561
23   0.148072
24   0.151439
25   0.151097

$$$$

