PCCDB-ID:  57966
public computational chemistry database (PCCDB) project, http://pccdb.org

 20 19  0  0  1  0  0  0  0  0999 V2000
    0.9209    0.1100    0.3607 C   0  0  0  0  0  0  0  0  0  0  0  0
    1.3814   -1.9145   -1.1551 C   0  0  0  0  0  0  0  0  0  0  0  0
    0.5899   -3.8356    0.1603 C   0  0  0  0  0  0  0  0  0  0  0  0
    0.4534   -0.7329   -0.8338 C   0  0  1  0  0  0  0  0  0  0  0  0
    0.1646    1.4293    0.5142 C   0  0  0  0  0  0  0  0  0  0  0  0
   -0.2033   -4.6739    0.3164 N   0  0  0  0  0  0  0  0  0  0  0  0
    0.6774    2.5773    0.6986 N   0  0  0  0  0  0  0  0  0  0  0  0
    2.6363   -2.9204    0.7986 N   0  0  0  0  0  0  0  0  0  0  0  0
    1.5114   -2.8768   -0.0505 N   0  0  0  0  0  0  0  0  0  0  0  0
   -0.8622   -1.2046   -0.5077 O   0  0  0  0  0  0  0  0  0  0  0  0
   -1.1850    1.3283    0.4693 O   0  0  0  0  0  0  0  0  0  0  0  0
    3.4447   -2.0592    0.5670 O   0  0  0  0  0  0  0  0  0  0  0  0
    1.9900    0.3162    0.2649 H   0  0  0  0  0  0  0  0  0  0  0  0
    0.7825   -0.4898    1.2708 H   0  0  0  0  0  0  0  0  0  0  0  0
    2.3930   -1.5595   -1.3693 H   0  0  0  0  0  0  0  0  0  0  0  0
    1.0115   -2.4638   -2.0268 H   0  0  0  0  0  0  0  0  0  0  0  0
    0.4200   -0.1017   -1.7346 H   0  0  0  0  0  0  0  0  0  0  0  0
    1.6957    2.5097    0.7164 H   0  0  0  0  0  0  0  0  0  0  0  0
   -1.3119   -1.5113   -1.3115 H   0  0  0  0  0  0  0  0  0  0  0  0
   -1.4255    0.4028    0.2674 H   0  0  0  0  0  0  0  0  0  0  0  0
  1  5  1  0  0  0  0
  1 14  1  0  0  0  0
  2  4  1  0  0  0  0
  2  9  1  0  0  0  0
  3  6  3  0  0  0  0
  4 17  1  6  0  0  0
  4 10  1  0  0  0  0
  4  1  1  0  0  0  0
  5  7  2  0  0  0  0
  7 18  1  0  0  0  0
  9  3  1  0  0  0  0
  9  8  1  0  0  0  0
 11  5  1  0  0  0  0
 12  8  1  0  0  0  0
 13  1  1  0  0  0  0
 15  2  1  0  0  0  0
 16  2  1  0  0  0  0
 19 10  1  0  0  0  0
 20 11  1  0  0  0  0
M  RAD  2   8   2  12   2
M  END
>  <HBA>
7

>  <HBD>
2

>  <TPSA>
119.78

>  <cid>
57966

>  <dipole>
5.14

>  <excitation_energy_1>
3.216

>  <excitation_energy_2>
3.724

>  <excitation_energy_3>
3.756

>  <excitation_energy_4>
4.754

>  <homo_energy>
-7.14

>  <homo_lumo_gap>
4.21

>  <logP>
-0.613

>  <lumo_energy>
-2.931

>  <melting_point>
123.95

>  <molecular_refractivity>
37.6

>  <oscillator_strength_1>
0.0012

>  <oscillator_strength_2>
0.0007

>  <oscillator_strength_3>
0.0009

>  <oscillator_strength_4>
0.0901

>  <open_babel_can_smiles>
[O][N]N(C[C@H](CC(=N)O)O)C#N

>  <mulliken_charges>
20
1   -0.376106
2   -0.201394
3   0.588272
4   0.114231
5   0.482867
6   -0.415343
7   -0.58556
8   0.213621
9   -0.360525
10   -0.624154
11   -0.593795
12   -0.286976
13   0.170825
14   0.190576
15   0.20725
16   0.185741
17   0.161646
18   0.279561
19   0.417012
20   0.432248

>  <lowdin_charges>
20
1   -0.319994
2   -0.21988
3   0.015041
4   -0.006082
5   0.122017
6   -0.107775
7   -0.396143
8   0.114263
9   -0.024501
10   -0.44892
11   -0.372811
12   -0.175685
13   0.168257
14   0.175671
15   0.184364
16   0.173658
17   0.151815
18   0.251731
19   0.361456
20   0.353518

$$$$

