PCCDB-ID:  7729
public computational chemistry database (PCCDB) project, http://pccdb.org

 14 14  0  0  0  0  0  0  0  0999 V2000
   -0.7590    1.1486   -0.0544 C   0  0  0  0  0  0  0  0  0  0  0  0
    1.4008    0.0290   -0.1085 C   0  0  0  0  0  0  0  0  0  0  0  0
   -1.4028   -0.0820   -0.0225 C   0  0  0  0  0  0  0  0  0  0  0  0
    0.7687   -1.1994   -0.0771 C   0  0  0  0  0  0  0  0  0  0  0  0
    0.6385    1.2112   -0.0975 C   0  0  0  0  0  0  0  0  0  0  0  0
   -0.6382   -1.2577   -0.0334 C   0  0  0  0  0  0  0  0  0  0  0  0
    1.1987    2.5251   -0.1258 N   0  0  0  0  0  0  0  0  0  0  0  0
   -1.1983   -2.4937   -0.0044 O   0  0  0  0  0  0  0  0  0  0  0  0
    2.4244    2.5677   -0.1636 O   0  0  0  0  0  0  0  0  0  0  0  0
   -1.3192    2.0790   -0.0466 H   0  0  0  0  0  0  0  0  0  0  0  0
    2.4820    0.1126   -0.1431 H   0  0  0  0  0  0  0  0  0  0  0  0
   -2.4889   -0.1390    0.0105 H   0  0  0  0  0  0  0  0  0  0  0  0
    1.3270   -2.1301   -0.0842 H   0  0  0  0  0  0  0  0  0  0  0  0
   -2.1651   -2.4114    0.0222 H   0  0  0  0  0  0  0  0  0  0  0  0
  1 10  1  0  0  0  0
  1  3  2  0  0  0  0
  2  5  2  0  0  0  0
  2  4  1  0  0  0  0
  3 12  1  0  0  0  0
  4  6  2  0  0  0  0
  5  1  1  0  0  0  0
  6  3  1  0  0  0  0
  6  8  1  0  0  0  0
  7  5  1  0  0  0  0
  8 14  1  0  0  0  0
  9  7  2  0  0  0  0
 11  2  1  0  0  0  0
 13  4  1  0  0  0  0
M  END
>  <HBA>
3

>  <HBD>
1

>  <TPSA>
49.66

>  <cid>
7729

>  <dipole>
4.85

>  <excitation_energy_1>
1.589

>  <excitation_energy_2>
4.129

>  <excitation_energy_3>
4.183

>  <excitation_energy_4>
4.241

>  <homo_energy>
-5.728

>  <homo_lumo_gap>
3.314

>  <logP>
1.79

>  <lumo_energy>
-2.414

>  <melting_point>
71.38

>  <molecular_refractivity>
33.92

>  <oscillator_strength_1>
0.0003

>  <oscillator_strength_2>
0.2785

>  <oscillator_strength_3>
0.0

>  <oscillator_strength_4>
0.0435

>  <open_babel_can_smiles>
O=Nc1ccc(cc1)O

>  <mulliken_charges>
14
1   -0.127818
2   -0.125561
3   -0.205209
4   -0.16863
5   0.215052
6   0.370875
7   -0.068536
8   -0.623164
9   -0.303053
10   0.159405
11   0.167582
12   0.134952
13   0.157313
14   0.416791

>  <lowdin_charges>
14
1   -0.117281
2   -0.118115
3   -0.211942
4   -0.176385
5   -0.039918
6   0.12485
7   0.036018
8   -0.35066
9   -0.197087
10   0.176451
11   0.178174
12   0.1588
13   0.175084
14   0.36201

$$$$

