PCCDB-ID:  15573
public computational chemistry database (PCCDB) project, http://pccdb.org

 22 23  0  0  1  0  0  0  0  0999 V2000
   -1.3622   -0.7818    0.3662 C   0  0  0  0  0  0  0  0  0  0  0  0
   -0.2605   -1.6228    0.7364 C   0  0  0  0  0  0  0  0  0  0  0  0
   -0.8702    0.1080   -0.5378 C   0  0  0  0  0  0  0  0  0  0  0  0
    1.6120   -3.1190   -2.8905 C   0  0  0  0  0  0  0  0  0  0  0  0
    2.2472   -3.8115   -0.4830 C   0  0  0  0  0  0  0  0  0  0  0  0
    2.6408   -3.0438   -1.7646 C   0  0  2  0  0  0  0  0  0  0  0  0
    0.8147   -1.1827    0.0229 C   0  0  0  0  0  0  0  0  0  0  0  0
    2.2639   -1.5938   -0.0054 C   0  0  1  0  0  0  0  0  0  0  0  0
    1.9583   -2.2594   -3.9584 O   0  0  0  0  0  0  0  0  0  0  0  0
    0.4573   -0.1189   -0.7591 O   0  0  0  0  0  0  0  0  0  0  0  0
    2.4313   -2.8665    0.5756 O   0  0  0  0  0  0  0  0  0  0  0  0
    2.7732   -1.6755   -1.3279 O   0  0  0  0  0  0  0  0  0  0  0  0
   -2.3802   -0.8379    0.7259 H   0  0  0  0  0  0  0  0  0  0  0  0
   -0.2604   -2.4406    1.4426 H   0  0  0  0  0  0  0  0  0  0  0  0
   -1.3042    0.9220   -1.0982 H   0  0  0  0  0  0  0  0  0  0  0  0
    0.6144   -2.8821   -2.4858 H   0  0  0  0  0  0  0  0  0  0  0  0
    1.5765   -4.1361   -3.2987 H   0  0  0  0  0  0  0  0  0  0  0  0
    2.8916   -4.6691   -0.2765 H   0  0  0  0  0  0  0  0  0  0  0  0
    1.2020   -4.1484   -0.5234 H   0  0  0  0  0  0  0  0  0  0  0  0
    3.6225   -3.3446   -2.1465 H   0  0  0  0  0  0  0  0  0  0  0  0
    2.8931   -0.8834    0.5431 H   0  0  0  0  0  0  0  0  0  0  0  0
    2.0733   -1.3806   -3.5585 H   0  0  0  0  0  0  0  0  0  0  0  0
  1 13  1  0  0  0  0
  1  2  1  0  0  0  0
  2 14  1  0  0  0  0
  3  1  2  0  0  0  0
  4 16  1  0  0  0  0
  4  6  1  0  0  0  0
  5 18  1  0  0  0  0
  5 11  1  0  0  0  0
  6 20  1  6  0  0  0
  6 12  1  0  0  0  0
  6  5  1  0  0  0  0
  7  2  2  0  0  0  0
  8  7  1  0  0  0  0
  8 21  1  1  0  0  0
  8 11  1  0  0  0  0
  9 22  1  0  0  0  0
  9  4  1  0  0  0  0
 10  3  1  0  0  0  0
 10  7  1  0  0  0  0
 12  8  1  0  0  0  0
 15  3  1  0  0  0  0
 17  4  1  0  0  0  0
 19  5  1  0  0  0  0
M  END
>  <HBA>
4

>  <HBD>
1

>  <TPSA>
51.83

>  <cid>
15573

>  <dipole>
2.07

>  <excitation_energy_1>
5.752

>  <excitation_energy_2>
5.877

>  <excitation_energy_3>
6.167

>  <excitation_energy_4>
6.178

>  <homo_energy>
-6.251

>  <homo_lumo_gap>
6.359

>  <logP>
0.686

>  <lumo_energy>
0.109

>  <melting_point>
27.68

>  <molecular_refractivity>
39.31

>  <oscillator_strength_1>
0.1378

>  <oscillator_strength_2>
0.0685

>  <oscillator_strength_3>
0.0029

>  <oscillator_strength_4>
0.0068

>  <open_babel_can_smiles>
OC[C@@H]1CO[C@@H](O1)c1ccco1

>  <mulliken_charges>
22
1   -0.183633
2   -0.194008
3   0.085804
4   -0.036551
5   -0.069887
6   0.095442
7   0.308131
8   0.261701
9   -0.618003
10   -0.435054
11   -0.476323
12   -0.502068
13   0.14481
14   0.150851
15   0.158393
16   0.132628
17   0.142547
18   0.162932
19   0.147776
20   0.154136
21   0.16593
22   0.404446

>  <lowdin_charges>
22
1   -0.202944
2   -0.207083
3   -0.077377
4   -0.149232
5   -0.145372
6   -0.028788
7   0.02112
8   0.102557
9   -0.46053
10   -0.097309
11   -0.249678
12   -0.268397
13   0.169927
14   0.175582
15   0.173488
16   0.133198
17   0.147721
18   0.160917
19   0.140848
20   0.152119
21   0.161492
22   0.347741

$$$$

