PCCDB-ID:  5312
public computational chemistry database (PCCDB) project, http://pccdb.org

 21 20  0  0  0  0  0  0  0  0999 V2000
    5.7174    2.9965    1.1808 C   0  0  0  0  0  0  0  0  0  0  0  0
    1.9750    1.2091   -0.6803 C   0  0  0  0  0  0  0  0  0  0  0  0
    0.5559    1.3629   -0.1026 C   0  0  0  0  0  0  0  0  0  0  0  0
    4.3266    2.2572   -0.8828 C   0  0  0  0  0  0  0  0  0  0  0  0
    4.9761    1.8882    0.4709 C   0  0  0  0  0  0  0  0  0  0  0  0
    2.8321    2.4565   -0.6566 C   0  0  0  0  0  0  0  0  0  0  0  0
   -0.4472    2.0615   -1.0267 C   0  0  0  0  0  0  0  0  0  0  0  0
    4.8420    0.7719    0.9282 O   0  0  0  0  0  0  0  0  0  0  0  0
    2.3937    3.5741   -0.4174 O   0  0  0  0  0  0  0  0  0  0  0  0
   -1.4007    1.4929   -1.5035 O   0  0  0  0  0  0  0  0  0  0  0  0
   -0.2081    3.3630   -1.2811 O   0  0  0  0  0  0  0  0  0  0  0  0
    6.5784    3.3183    0.5813 H   0  0  0  0  0  0  0  0  0  0  0  0
    6.0568    2.6563    2.1607 H   0  0  0  0  0  0  0  0  0  0  0  0
    5.0613    3.8698    1.2875 H   0  0  0  0  0  0  0  0  0  0  0  0
    1.9426    0.8444   -1.7182 H   0  0  0  0  0  0  0  0  0  0  0  0
    2.5301    0.4403   -0.1252 H   0  0  0  0  0  0  0  0  0  0  0  0
    0.6100    1.9041    0.8505 H   0  0  0  0  0  0  0  0  0  0  0  0
    0.1470    0.3711    0.0989 H   0  0  0  0  0  0  0  0  0  0  0  0
    4.5002    1.4256   -1.5724 H   0  0  0  0  0  0  0  0  0  0  0  0
    4.7455    3.1817   -1.2855 H   0  0  0  0  0  0  0  0  0  0  0  0
    0.6255    3.6396   -0.8387 H   0  0  0  0  0  0  0  0  0  0  0  0
  1 14  1  0  0  0  0
  1 13  1  0  0  0  0
  2  6  1  0  0  0  0
  2 16  1  0  0  0  0
  2  3  1  0  0  0  0
  3 18  1  0  0  0  0
  3 17  1  0  0  0  0
  4  6  1  0  0  0  0
  4  5  1  0  0  0  0
  5  8  2  0  0  0  0
  5  1  1  0  0  0  0
  6  9  2  0  0  0  0
  7  3  1  0  0  0  0
 10  7  2  0  0  0  0
 11  7  1  0  0  0  0
 11 21  1  0  0  0  0
 12  1  1  0  0  0  0
 15  2  1  0  0  0  0
 19  4  1  0  0  0  0
 20  4  1  0  0  0  0
M  END
>  <HBA>
4

>  <HBD>
1

>  <TPSA>
71.44

>  <cid>
5312

>  <dipole>
6.3

>  <excitation_energy_1>
4.184

>  <excitation_energy_2>
4.405

>  <excitation_energy_3>
4.596

>  <excitation_energy_4>
5.386

>  <homo_energy>
-6.969

>  <homo_lumo_gap>
5.037

>  <logP>
0.399

>  <lumo_energy>
-1.932

>  <melting_point>
92.71

>  <molecular_refractivity>
37.93

>  <oscillator_strength_1>
0.0122

>  <oscillator_strength_2>
0.0006

>  <oscillator_strength_3>
0.0016

>  <oscillator_strength_4>
0.0157

>  <open_babel_can_smiles>
OC(=O)CCC(=O)CC(=O)C

>  <mulliken_charges>
21
1   -0.529694
2   -0.380756
3   -0.379213
4   -0.420655
5   0.442414
6   0.46035
7   0.577171
8   -0.415627
9   -0.462946
10   -0.446691
11   -0.586616
12   0.182307
13   0.190383
14   0.192456
15   0.195695
16   0.209615
17   0.173215
18   0.184574
19   0.192098
20   0.18327
21   0.438649

>  <lowdin_charges>
21
1   -0.469957
2   -0.310472
3   -0.314056
4   -0.336243
5   0.17467
6   0.184579
7   0.187034
8   -0.221893
9   -0.24702
10   -0.253006
11   -0.369904
12   0.179079
13   0.178319
14   0.183126
15   0.180651
16   0.189828
17   0.167253
18   0.178515
19   0.184875
20   0.178246
21   0.356375

$$$$

