PCCDB-ID:  27893
public computational chemistry database (PCCDB) project, http://pccdb.org

 18 18  0  0  1  0  0  0  0  0999 V2000
    3.1268   -1.3310    0.5887 C   0  0  0  0  0  0  0  0  0  0  0  0
    2.3587   -0.1134    0.0600 C   0  0  0  0  0  0  0  0  0  0  0  0
    2.3154    2.4715   -0.1626 C   0  0  0  0  0  0  0  0  0  0  0  0
    4.4205    1.3915   -0.3476 C   0  0  0  0  0  0  0  0  0  0  0  0
    3.0515    1.2233    0.3422 C   0  0  2  0  0  0  0  0  0  0  0  0
    3.4322    3.4783   -0.4176 C   0  0  0  0  0  0  0  0  0  0  0  0
    3.3547    4.6711   -0.5484 O   0  0  0  0  0  0  0  0  0  0  0  0
    4.6225    2.8105   -0.4931 O   0  0  0  0  0  0  0  0  0  0  0  0
    2.5732   -2.2566    0.3981 H   0  0  0  0  0  0  0  0  0  0  0  0
    3.2895   -1.2574    1.6708 H   0  0  0  0  0  0  0  0  0  0  0  0
    4.1086   -1.4317    0.1109 H   0  0  0  0  0  0  0  0  0  0  0  0
    1.3571   -0.0929    0.5093 H   0  0  0  0  0  0  0  0  0  0  0  0
    2.2053   -0.2136   -1.0243 H   0  0  0  0  0  0  0  0  0  0  0  0
    1.5773    2.8862    0.5276 H   0  0  0  0  0  0  0  0  0  0  0  0
    1.8056    2.2791   -1.1174 H   0  0  0  0  0  0  0  0  0  0  0  0
    4.4275    0.9331   -1.3462 H   0  0  0  0  0  0  0  0  0  0  0  0
    5.2618    0.9964    0.2260 H   0  0  0  0  0  0  0  0  0  0  0  0
    3.2033    1.3249    1.4260 H   0  0  0  0  0  0  0  0  0  0  0  0
  1 10  1  0  0  0  0
  2  5  1  0  0  0  0
  2 12  1  0  0  0  0
  2  1  1  0  0  0  0
  3  5  1  0  0  0  0
  3 14  1  0  0  0  0
  4 17  1  0  0  0  0
  4  5  1  0  0  0  0
  5 18  1  1  0  0  0
  6  3  1  0  0  0  0
  7  6  2  0  0  0  0
  8  6  1  0  0  0  0
  8  4  1  0  0  0  0
  9  1  1  0  0  0  0
 11  1  1  0  0  0  0
 13  2  1  0  0  0  0
 15  3  1  0  0  0  0
 16  4  1  0  0  0  0
M  END
>  <HBA>
2

>  <HBD>
0

>  <TPSA>
26.3

>  <cid>
27893

>  <dipole>
4.74

>  <excitation_energy_1>
5.653

>  <excitation_energy_2>
6.741

>  <excitation_energy_3>
7.058

>  <excitation_energy_4>
7.22

>  <homo_energy>
-7.146

>  <homo_lumo_gap>
7.527

>  <logP>
0.96

>  <lumo_energy>
0.381

>  <melting_point>
8.46

>  <molecular_refractivity>
30.13

>  <oscillator_strength_1>
0.0005

>  <oscillator_strength_2>
0.0059

>  <oscillator_strength_3>
0.0124

>  <oscillator_strength_4>
0.0004

>  <open_babel_can_smiles>
CC[C@H]1COC(=O)C1

>  <mulliken_charges>
18
1   -0.453099
2   -0.264156
3   -0.391146
4   -0.037154
5   -0.118137
6   0.613139
7   -0.455501
8   -0.448441
9   0.154037
10   0.149456
11   0.149413
12   0.145752
13   0.136194
14   0.183136
15   0.176988
16   0.148992
17   0.16308
18   0.147447

>  <lowdin_charges>
18
1   -0.444735
2   -0.270179
3   -0.314351
4   -0.132882
5   -0.139297
6   0.187986
7   -0.233423
8   -0.192619
9   0.156524
10   0.14891
11   0.148595
12   0.148323
13   0.140316
14   0.17689
15   0.171353
16   0.143194
17   0.158648
18   0.146746

$$$$

