PCCDB-ID:  68312
public computational chemistry database (PCCDB) project, http://pccdb.org

 23 23  0  0  0  0  0  0  0  0999 V2000
    0.8805   -0.0619   -0.0058 C   0  0  0  0  0  0  0  0  0  0  0  0
    4.4369    1.3036   -0.1633 C   0  0  0  0  0  0  0  0  0  0  0  0
    3.0483    1.2499   -0.0601 C   0  0  0  0  0  0  0  0  0  0  0  0
    5.1834    0.1371   -0.3156 C   0  0  0  0  0  0  0  0  0  0  0  0
    3.1412   -1.1541   -0.2355 C   0  0  0  0  0  0  0  0  0  0  0  0
    2.3874    0.0154   -0.1008 C   0  0  0  0  0  0  0  0  0  0  0  0
    4.5376   -1.1076   -0.3626 C   0  0  0  0  0  0  0  0  0  0  0  0
    4.9909   -3.4491   -1.1853 C   0  0  0  0  0  0  0  0  0  0  0  0
    5.6212   -4.5543   -1.2253 N   0  0  0  0  0  0  0  0  0  0  0  0
    6.5727   -2.3647    0.1709 N   0  0  0  0  0  0  0  0  0  0  0  0
    5.3152   -2.2975   -0.4617 N   0  0  0  0  0  0  0  0  0  0  0  0
    3.8708   -3.2799   -1.9342 O   0  0  0  0  0  0  0  0  0  0  0  0
    0.4653    0.8155    0.5008 H   0  0  0  0  0  0  0  0  0  0  0  0
    0.5583   -0.9542    0.5418 H   0  0  0  0  0  0  0  0  0  0  0  0
    0.4241   -0.1125   -1.0032 H   0  0  0  0  0  0  0  0  0  0  0  0
    4.9478    2.2623   -0.1279 H   0  0  0  0  0  0  0  0  0  0  0  0
    2.4752    2.1658    0.0601 H   0  0  0  0  0  0  0  0  0  0  0  0
    6.2637    0.1999   -0.3993 H   0  0  0  0  0  0  0  0  0  0  0  0
    2.6396   -2.1141   -0.2498 H   0  0  0  0  0  0  0  0  0  0  0  0
    6.4321   -4.5151   -0.6087 H   0  0  0  0  0  0  0  0  0  0  0  0
    6.4726   -2.0308    1.1281 H   0  0  0  0  0  0  0  0  0  0  0  0
    7.2371   -1.7578   -0.3094 H   0  0  0  0  0  0  0  0  0  0  0  0
    3.7692   -4.1346   -2.3898 H   0  0  0  0  0  0  0  0  0  0  0  0
  1 13  1  0  0  0  0
  1 14  1  0  0  0  0
  2 16  1  0  0  0  0
  2  3  2  0  0  0  0
  3 17  1  0  0  0  0
  4  2  1  0  0  0  0
  5  6  2  0  0  0  0
  6  3  1  0  0  0  0
  6  1  1  0  0  0  0
  7  4  2  0  0  0  0
  7  5  1  0  0  0  0
  8 11  1  0  0  0  0
  9  8  2  0  0  0  0
  9 20  1  0  0  0  0
 10 21  1  0  0  0  0
 11  7  1  0  0  0  0
 11 10  1  0  0  0  0
 12  8  1  0  0  0  0
 15  1  1  0  0  0  0
 18  4  1  0  0  0  0
 19  5  1  0  0  0  0
 22 10  1  0  0  0  0
 23 12  1  0  0  0  0
M  END
>  <HBA>
4

>  <HBD>
2

>  <TPSA>
72.35

>  <cid>
68312

>  <dipole>
2.92

>  <excitation_energy_1>
4.678

>  <excitation_energy_2>
4.876

>  <excitation_energy_3>
4.991

>  <excitation_energy_4>
5.542

>  <homo_energy>
-5.633

>  <homo_lumo_gap>
5.546

>  <logP>
2.154

>  <lumo_energy>
-0.087

>  <melting_point>
158.39

>  <molecular_refractivity>
46.81

>  <oscillator_strength_1>
0.0177

>  <oscillator_strength_2>
0.1719

>  <oscillator_strength_3>
0.1465

>  <oscillator_strength_4>
0.0018

>  <open_babel_can_smiles>
Cc1cccc(c1)N(C(=N)O)N

>  <mulliken_charges>
23
1   -0.528448
2   -0.132908
3   -0.179184
4   -0.181074
5   -0.191308
6   0.164727
7   0.32635
8   0.667794
9   -0.666294
10   -0.57599
11   -0.470594
12   -0.604668
13   0.155025
14   0.15934
15   0.169332
16   0.129564
17   0.121433
18   0.108901
19   0.143314
20   0.308898
21   0.326408
22   0.327752
23   0.42163

>  <lowdin_charges>
23
1   -0.442135
2   -0.149751
3   -0.179408
4   -0.19366
5   -0.176713
6   0.008705
7   0.044767
8   0.158116
9   -0.475512
10   -0.437435
11   -0.06741
12   -0.37087
13   0.15774
14   0.160014
15   0.163643
16   0.158141
17   0.155624
18   0.148567
19   0.168342
20   0.268846
21   0.267321
22   0.26446
23   0.36861

$$$$

