PCCDB-ID:  22811
public computational chemistry database (PCCDB) project, http://pccdb.org

 15 16  0  0  1  0  0  0  0  0999 V2000
    0.9390    0.2136    0.4590 C   0  0  0  0  0  0  0  0  0  0  0  0
    3.8318    0.4075   -2.0005 C   0  0  0  0  0  0  0  0  0  0  0  0
    3.1583   -1.0746    0.8841 C   0  0  0  0  0  0  0  0  0  0  0  0
    2.5983   -0.1562   -1.4397 C   0  0  1  0  0  0  0  0  0  0  0  0
    2.3382   -0.1851    0.0434 C   0  0  1  0  0  0  0  0  0  0  0  0
    2.5974    1.1397   -2.0542 O   0  0  0  0  0  0  0  0  0  0  0  0
    3.3948    0.3398    0.8651 O   0  0  0  0  0  0  0  0  0  0  0  0
    0.1931   -0.4590    0.0186 H   0  0  0  0  0  0  0  0  0  0  0  0
    0.7271    1.2299    0.1110 H   0  0  0  0  0  0  0  0  0  0  0  0
    0.8375    0.1866    1.5477 H   0  0  0  0  0  0  0  0  0  0  0  0
    4.2007    0.0455   -2.9606 H   0  0  0  0  0  0  0  0  0  0  0  0
    4.5771    0.8124   -1.3196 H   0  0  0  0  0  0  0  0  0  0  0  0
    3.9408   -1.6838    0.4302 H   0  0  0  0  0  0  0  0  0  0  0  0
    2.7447   -1.4672    1.8135 H   0  0  0  0  0  0  0  0  0  0  0  0
    2.0589   -0.9164   -2.0112 H   0  0  0  0  0  0  0  0  0  0  0  0
  1 10  1  0  0  0  0
  2  4  1  0  0  0  0
  2 12  1  0  0  0  0
  3 14  1  0  0  0  0
  4 15  1  6  0  0  0
  4  5  1  0  0  0  0
  5  1  1  1  0  0  0
  5  7  1  0  0  0  0
  5  3  1  0  0  0  0
  6  2  1  0  0  0  0
  6  4  1  0  0  0  0
  7  3  1  0  0  0  0
  8  1  1  0  0  0  0
  9  1  1  0  0  0  0
 11  2  1  0  0  0  0
 13  3  1  0  0  0  0
M  END
>  <HBA>
2

>  <HBD>
0

>  <TPSA>
25.06

>  <cid>
22811

>  <dipole>
2.83

>  <excitation_energy_1>
6.627

>  <excitation_energy_2>
6.886

>  <excitation_energy_3>
7.006

>  <excitation_energy_4>
7.162

>  <homo_energy>
-7.012

>  <homo_lumo_gap>
9.35

>  <logP>
0.174

>  <lumo_energy>
2.337

>  <melting_point>
12.38

>  <molecular_refractivity>
24.13

>  <oscillator_strength_1>
0.0116

>  <oscillator_strength_2>
0.0046

>  <oscillator_strength_3>
0.0088

>  <oscillator_strength_4>
0.0041

>  <open_babel_can_smiles>
C[C@@]1(CO1)[C@@H]1CO1

>  <mulliken_charges>
15
1   -0.479273
2   -0.104563
3   -0.125906
4   0.051294
5   0.306341
6   -0.442693
7   -0.460503
8   0.149762
9   0.181106
10   0.159209
11   0.146772
12   0.175384
13   0.148286
14   0.15097
15   0.143816

>  <lowdin_charges>
15
1   -0.44166
2   -0.163156
3   -0.166621
4   -0.037118
5   0.099508
6   -0.283611
7   -0.279436
8   0.158493
9   0.17001
10   0.160689
11   0.152204
12   0.168202
13   0.154682
14   0.154947
15   0.152867

$$$$

