PCCDB-ID:  53780
public computational chemistry database (PCCDB) project, http://pccdb.org

 28 28  0  0  0  0  0  0  0  0999 V2000
    9.4489    1.5691    1.8452 C   0  0  0  0  0  0  0  0  0  0  0  0
    8.7461    1.6543    0.4988 C   0  0  0  0  0  0  0  0  0  0  0  0
    2.9096   -5.7013   -1.4904 C   0  0  0  0  0  0  0  0  0  0  0  0
    2.5432   -4.4500   -1.1064 C   0  0  0  0  0  0  0  0  0  0  0  0
    4.2794   -6.1790   -1.5022 C   0  0  0  0  0  0  0  0  0  0  0  0
    3.4252   -3.3812   -0.6960 C   0  0  0  0  0  0  0  0  0  0  0  0
    5.3697   -5.4133   -1.6545 C   0  0  0  0  0  0  0  0  0  0  0  0
    5.6048   -0.3358    0.5688 C   0  0  0  0  0  0  0  0  0  0  0  0
    4.7175   -3.2708   -1.0764 C   0  0  0  0  0  0  0  0  0  0  0  0
    7.1058   -0.0751    0.4831 C   0  0  0  0  0  0  0  0  0  0  0  0
    5.6068   -2.2570   -0.7143 N   0  0  0  0  0  0  0  0  0  0  0  0
    7.9435   -0.9353    0.3141 O   0  0  0  0  0  0  0  0  0  0  0  0
    7.3581    1.2402    0.5986 O   0  0  0  0  0  0  0  0  0  0  0  0
    5.3024   -4.0680   -2.0459 O   0  0  0  0  0  0  0  0  0  0  0  0
    5.3175   -1.7192    0.5748 O   0  0  0  0  0  0  0  0  0  0  0  0
   10.4695    1.9570    1.7518 H   0  0  0  0  0  0  0  0  0  0  0  0
    9.5056    0.5315    2.1860 H   0  0  0  0  0  0  0  0  0  0  0  0
    8.9227    2.1630    2.5995 H   0  0  0  0  0  0  0  0  0  0  0  0
    9.2409    1.0304   -0.2494 H   0  0  0  0  0  0  0  0  0  0  0  0
    8.6928    2.6837    0.1372 H   0  0  0  0  0  0  0  0  0  0  0  0
    2.1298   -6.4290   -1.7023 H   0  0  0  0  0  0  0  0  0  0  0  0
    1.4780   -4.2404   -1.0207 H   0  0  0  0  0  0  0  0  0  0  0  0
    4.4532   -7.2371   -1.3125 H   0  0  0  0  0  0  0  0  0  0  0  0
    3.0439   -2.6258   -0.0175 H   0  0  0  0  0  0  0  0  0  0  0  0
    6.3883   -5.7789   -1.5565 H   0  0  0  0  0  0  0  0  0  0  0  0
    5.1003    0.1800   -0.2580 H   0  0  0  0  0  0  0  0  0  0  0  0
    5.2191    0.0553    1.5159 H   0  0  0  0  0  0  0  0  0  0  0  0
    6.5750   -2.5762   -0.7047 H   0  0  0  0  0  0  0  0  0  0  0  0
  1 17  1  0  0  0  0
  1 18  1  0  0  0  0
  2 13  1  0  0  0  0
  2  1  1  0  0  0  0
  3  4  2  0  0  0  0
  4 22  1  0  0  0  0
  4  6  1  0  0  0  0
  5  3  1  0  0  0  0
  5 23  1  0  0  0  0
  6 24  1  0  0  0  0
  7 25  1  0  0  0  0
  7  5  2  0  0  0  0
  8 15  1  0  0  0  0
  8 27  1  0  0  0  0
  9 11  1  0  0  0  0
  9  6  2  0  0  0  0
 10  8  1  0  0  0  0
 10 13  1  0  0  0  0
 11 28  1  0  0  0  0
 11 15  1  0  0  0  0
 12 10  2  0  0  0  0
 14  7  1  0  0  0  0
 14  9  1  0  0  0  0
 16  1  1  0  0  0  0
 19  2  1  0  0  0  0
 20  2  1  0  0  0  0
 21  3  1  0  0  0  0
 26  8  1  0  0  0  0
M  END
>  <HBA>
5

>  <HBD>
1

>  <TPSA>
56.79

>  <cid>
53780

>  <dipole>
3.25

>  <excitation_energy_1>
3.606

>  <excitation_energy_2>
4.317

>  <excitation_energy_3>
4.717

>  <excitation_energy_4>
4.803

>  <homo_energy>
-4.993

>  <homo_lumo_gap>
4.321

>  <logP>
1.403

>  <lumo_energy>
-0.672

>  <melting_point>
50.22

>  <molecular_refractivity>
52.9

>  <oscillator_strength_1>
0.1176

>  <oscillator_strength_2>
0.0008

>  <oscillator_strength_3>
0.0054

>  <oscillator_strength_4>
0.0006

>  <open_babel_can_smiles>
CCOC(=O)CONC1=CC=CC=CO1

>  <mulliken_charges>
28
1   -0.462925
2   -0.048748
3   -0.151515
4   -0.125139
5   -0.112394
6   -0.171317
7   0.044418
8   -0.096364
9   0.488954
10   0.610886
11   -0.381164
12   -0.479311
13   -0.456108
14   -0.506297
15   -0.374002
16   0.155596
17   0.178394
18   0.160472
19   0.174979
20   0.159425
21   0.124161
22   0.126333
23   0.135857
24   0.140928
25   0.139756
26   0.182352
27   0.187321
28   0.355455

>  <lowdin_charges>
28
1   -0.453819
2   -0.125066
3   -0.18908
4   -0.13748
5   -0.176122
6   -0.2488
7   -0.05498
8   -0.164805
9   0.141988
10   0.188651
11   -0.166407
12   -0.266144
13   -0.191314
14   -0.199309
15   -0.195426
16   0.161078
17   0.165546
18   0.159137
19   0.162382
20   0.15477
21   0.156926
22   0.154564
23   0.164126
24   0.171892
25   0.155593
26   0.169738
27   0.176806
28   0.285556

$$$$

