PCCDB-ID:  56319
public computational chemistry database (PCCDB) project, http://pccdb.org

 35 35  0  0  1  0  0  0  0  0999 V2000
    5.1693    0.8397   -0.5068 C   0  0  0  0  0  0  0  0  0  0  0  0
    2.4165    4.4457    0.8759 C   0  0  0  0  0  0  0  0  0  0  0  0
    3.4937   -1.0887    3.7121 C   0  0  0  0  0  0  0  0  0  0  0  0
    1.8346    0.0774    2.3323 C   0  0  0  0  0  0  0  0  0  0  0  0
    6.8589    4.4978    2.8842 C   0  0  0  0  0  0  0  0  0  0  0  0
    5.9617    3.7166    3.6147 C   0  0  0  0  0  0  0  0  0  0  0  0
    6.7414    4.5753    1.4953 C   0  0  0  0  0  0  0  0  0  0  0  0
    4.9467    3.0177    2.9609 C   0  0  0  0  0  0  0  0  0  0  0  0
    5.7296    3.8745    0.8383 C   0  0  0  0  0  0  0  0  0  0  0  0
    4.0199    0.9663    0.4944 C   0  0  1  0  0  0  0  0  0  0  0  0
    2.5992    2.9834    0.5013 C   0  0  0  0  0  0  0  0  0  0  0  0
    4.8244    3.0958    1.5693 C   0  0  0  0  0  0  0  0  0  0  0  0
    4.2932    0.0754    1.7311 C   0  0  0  0  0  0  0  0  0  0  0  0
    3.2371   -0.2505    2.5480 N   0  0  0  0  0  0  0  0  0  0  0  0
    3.7767    2.3742    0.8968 N   0  0  0  0  0  0  0  0  0  0  0  0
    1.7258    2.3702   -0.1087 O   0  0  0  0  0  0  0  0  0  0  0  0
    5.4363   -0.3092    1.9639 O   0  0  0  0  0  0  0  0  0  0  0  0
    5.2616   -0.2005   -0.8336 H   0  0  0  0  0  0  0  0  0  0  0  0
    6.1229    1.1291   -0.0613 H   0  0  0  0  0  0  0  0  0  0  0  0
    4.9655    1.4634   -1.3835 H   0  0  0  0  0  0  0  0  0  0  0  0
    2.5558    4.6086    1.9491 H   0  0  0  0  0  0  0  0  0  0  0  0
    1.4056    4.7358    0.5870 H   0  0  0  0  0  0  0  0  0  0  0  0
    3.1373    5.0849    0.3561 H   0  0  0  0  0  0  0  0  0  0  0  0
    2.9850   -2.0569    3.6090 H   0  0  0  0  0  0  0  0  0  0  0  0
    3.1178   -0.6010    4.6211 H   0  0  0  0  0  0  0  0  0  0  0  0
    4.5671   -1.2506    3.7959 H   0  0  0  0  0  0  0  0  0  0  0  0
    1.4412    0.6320    3.1953 H   0  0  0  0  0  0  0  0  0  0  0  0
    1.2448   -0.8448    2.2343 H   0  0  0  0  0  0  0  0  0  0  0  0
    1.6794    0.6824    1.4409 H   0  0  0  0  0  0  0  0  0  0  0  0
    7.6479    5.0424    3.3953 H   0  0  0  0  0  0  0  0  0  0  0  0
    6.0509    3.6502    4.6954 H   0  0  0  0  0  0  0  0  0  0  0  0
    7.4376    5.1803    0.9211 H   0  0  0  0  0  0  0  0  0  0  0  0
    4.2444    2.4084    3.5211 H   0  0  0  0  0  0  0  0  0  0  0  0
    5.6341    3.9256   -0.2423 H   0  0  0  0  0  0  0  0  0  0  0  0
    3.0962    0.6630    0.0011 H   0  0  0  0  0  0  0  0  0  0  0  0
  1 19  1  0  0  0  0
  1 10  1  0  0  0  0
  2 21  1  0  0  0  0
  3 26  1  0  0  0  0
  3 25  1  0  0  0  0
  4 14  1  0  0  0  0
  4 27  1  0  0  0  0
  5 30  1  0  0  0  0
  5  6  2  0  0  0  0
  6 31  1  0  0  0  0
  7  5  1  0  0  0  0
  8 33  1  0  0  0  0
  8  6  1  0  0  0  0
  9  7  2  0  0  0  0
  9 12  1  0  0  0  0
 10 35  1  6  0  0  0
 10 15  1  0  0  0  0
 10 13  1  0  0  0  0
 11  2  1  0  0  0  0
 11 15  1  0  0  0  0
 12  8  2  0  0  0  0
 13 17  2  0  0  0  0
 13 14  1  0  0  0  0
 14  3  1  0  0  0  0
 15 12  1  0  0  0  0
 16 11  2  0  0  0  0
 18  1  1  0  0  0  0
 20  1  1  0  0  0  0
 22  2  1  0  0  0  0
 23  2  1  0  0  0  0
 24  3  1  0  0  0  0
 28  4  1  0  0  0  0
 29  4  1  0  0  0  0
 32  7  1  0  0  0  0
 34  9  1  0  0  0  0
M  END
>  <HBA>
4

>  <HBD>
0

>  <TPSA>
40.62

>  <cid>
56319

>  <dipole>
2.77

>  <excitation_energy_1>
4.976

>  <excitation_energy_2>
5.173

>  <excitation_energy_3>
5.251

>  <excitation_energy_4>
5.283

>  <homo_energy>
-6.324

>  <homo_lumo_gap>
5.864

>  <logP>
1.516

>  <lumo_energy>
-0.46

>  <melting_point>
54.76

>  <molecular_refractivity>
67.98

>  <oscillator_strength_1>
0.0027

>  <oscillator_strength_2>
0.0021

>  <oscillator_strength_3>
0.0044

>  <oscillator_strength_4>
0.0043

>  <open_babel_can_smiles>
CC(=O)N([C@H](C(=O)N(C)C)C)c1ccccc1

>  <mulliken_charges>
35
1   -0.442229
2   -0.537476
3   -0.322099
4   -0.346892
5   -0.116722
6   -0.142217
7   -0.142335
8   -0.124497
9   -0.133739
10   -0.079223
11   0.575303
12   0.241648
13   0.607489
14   -0.416075
15   -0.513688
16   -0.512963
17   -0.521808
18   0.158256
19   0.177224
20   0.140955
21   0.174177
22   0.183141
23   0.176151
24   0.152658
25   0.146491
26   0.205269
27   0.150252
28   0.15407
29   0.215979
30   0.136735
31   0.13882
32   0.138753
33   0.143533
34   0.14138
35   0.193678

>  <lowdin_charges>
35
1   -0.444154
2   -0.470673
3   -0.355864
4   -0.364427
5   -0.149975
6   -0.147557
7   -0.153647
8   -0.156901
9   -0.159284
10   -0.080715
11   0.16947
12   0.041304
13   0.144075
14   -0.103471
15   -0.098343
16   -0.319198
17   -0.310579
18   0.16171
19   0.167587
20   0.150494
21   0.170675
22   0.175547
23   0.174813
24   0.148262
25   0.146738
26   0.182815
27   0.148463
28   0.14951
29   0.184496
30   0.162924
31   0.160535
32   0.163709
33   0.168483
34   0.16323
35   0.179945

$$$$

