PCCDB-ID:  13590
public computational chemistry database (PCCDB) project, http://pccdb.org

 17 17  0  0  1  0  0  0  0  0999 V2000
    2.2949   -0.4477    1.4240 C   0  0  0  0  0  0  0  0  0  0  0  0
    2.5079    0.1271    0.0125 C   0  0  0  0  0  0  0  0  0  0  0  0
    4.3633    3.3006   -0.0737 C   0  0  0  0  0  0  0  0  0  0  0  0
    2.9195    3.8213    0.1598 C   0  0  0  0  0  0  0  0  0  0  0  0
    3.0412    1.5327    0.0304 C   0  0  3  0  0  0  0  0  0  0  0  0
    4.2350    1.8522   -0.3157 N   0  0  0  0  0  0  0  0  0  0  0  0
    2.2401    2.5700    0.5273 N   0  0  0  0  0  0  0  0  0  0  0  0
    1.9008   -1.4682    1.3683 H   0  0  0  0  0  0  0  0  0  0  0  0
    1.5905    0.1597    2.0017 H   0  0  0  0  0  0  0  0  0  0  0  0
    3.2413   -0.4767    1.9739 H   0  0  0  0  0  0  0  0  0  0  0  0
    1.5567    0.1043   -0.5391 H   0  0  0  0  0  0  0  0  0  0  0  0
    3.2231   -0.4840   -0.5444 H   0  0  0  0  0  0  0  0  0  0  0  0
    4.9869    3.4578    0.8176 H   0  0  0  0  0  0  0  0  0  0  0  0
    4.8642    3.7938   -0.9130 H   0  0  0  0  0  0  0  0  0  0  0  0
    2.4940    4.2560   -0.7576 H   0  0  0  0  0  0  0  0  0  0  0  0
    2.8502    4.5667    0.9580 H   0  0  0  0  0  0  0  0  0  0  0  0
    1.2444    2.5091    0.3456 H   0  0  0  0  0  0  0  0  0  0  0  0
  1 10  1  0  0  0  0
  1  9  1  0  0  0  0
  2  5  1  0  0  0  0
  2  1  1  0  0  0  0
  3  4  1  0  0  0  0
  3 13  1  0  0  0  0
  4  7  1  0  0  0  0
  4 16  1  0  0  0  0
  5  7  1  0  0  0  0
  6  3  1  0  0  0  0
  6  5  1  0  0  0  0
  8  1  1  0  0  0  0
 11  2  1  0  0  0  0
 12  2  1  0  0  0  0
 14  3  1  0  0  0  0
 15  4  1  0  0  0  0
 17  7  1  0  0  0  0
M  RAD  2   5   2   6   2
M  END
>  <HBA>
2

>  <HBD>
1

>  <TPSA>
24.39

>  <cid>
13590

>  <dipole>
2.63

>  <excitation_energy_1>
5.14

>  <excitation_energy_2>
5.738

>  <excitation_energy_3>
5.929

>  <excitation_energy_4>
6.114

>  <homo_energy>
-5.791

>  <homo_lumo_gap>
6.719

>  <logP>
0.163

>  <lumo_energy>
0.928

>  <melting_point>
41.72

>  <molecular_refractivity>
37.76

>  <oscillator_strength_1>
0.0031

>  <oscillator_strength_2>
0.0257

>  <oscillator_strength_3>
0.0062

>  <oscillator_strength_4>
0.0013

>  <open_babel_can_smiles>
CC[C]1[N]CCN1

>  <mulliken_charges>
17
1   -0.441015
2   -0.328484
3   -0.159294
4   -0.147537
5   0.476886
6   -0.460944
7   -0.600229
8   0.147379
9   0.151319
10   0.163069
11   0.135394
12   0.173056
13   0.148977
14   0.146158
15   0.137187
16   0.148843
17   0.309237

>  <lowdin_charges>
17
1   -0.439309
2   -0.279399
3   -0.211794
4   -0.21336
5   0.081071
6   -0.243419
7   -0.321028
8   0.15105
9   0.152806
10   0.158033
11   0.146505
12   0.170381
13   0.146257
14   0.149816
15   0.134204
16   0.149727
17   0.26846

$$$$

