PCCDB-ID:  7413
public computational chemistry database (PCCDB) project, http://pccdb.org

 21 21  0  0  0  0  0  0  0  0999 V2000
    0.8233    1.2342   -0.3847 C   0  0  0  0  0  0  0  0  0  0  0  0
    1.4734   -0.0411    0.1732 C   0  0  0  0  0  0  0  0  0  0  0  0
   -0.6234    1.3874    0.1079 C   0  0  0  0  0  0  0  0  0  0  0  0
    0.6406   -1.2844   -0.1724 C   0  0  0  0  0  0  0  0  0  0  0  0
   -1.4687    0.1377   -0.1900 C   0  0  0  0  0  0  0  0  0  0  0  0
   -0.8247   -1.1648    0.3238 C   0  0  0  0  0  0  0  0  0  0  0  0
   -0.9226   -1.2858    1.8484 C   0  0  0  0  0  0  0  0  0  0  0  0
   -1.3563   -0.4410    2.5921 O   0  0  0  0  0  0  0  0  0  0  0  0
   -0.4845   -2.4694    2.3682 O   0  0  0  0  0  0  0  0  0  0  0  0
    0.8373    1.1931   -1.4845 H   0  0  0  0  0  0  0  0  0  0  0  0
    1.4152    2.1126   -0.0990 H   0  0  0  0  0  0  0  0  0  0  0  0
    1.5713    0.0450    1.2647 H   0  0  0  0  0  0  0  0  0  0  0  0
    2.4896   -0.1591   -0.2231 H   0  0  0  0  0  0  0  0  0  0  0  0
   -1.0913    2.2607   -0.3638 H   0  0  0  0  0  0  0  0  0  0  0  0
   -0.6287    1.5687    1.1882 H   0  0  0  0  0  0  0  0  0  0  0  0
    1.1234   -2.1872    0.2270 H   0  0  0  0  0  0  0  0  0  0  0  0
    0.6147   -1.4118   -1.2631 H   0  0  0  0  0  0  0  0  0  0  0  0
   -1.5991    0.0372   -1.2767 H   0  0  0  0  0  0  0  0  0  0  0  0
   -2.4674    0.2477    0.2449 H   0  0  0  0  0  0  0  0  0  0  0  0
   -1.3901   -2.0194   -0.0805 H   0  0  0  0  0  0  0  0  0  0  0  0
   -0.1878   -3.0561    1.6532 H   0  0  0  0  0  0  0  0  0  0  0  0
  1 11  1  0  0  0  0
  1  3  1  0  0  0  0
  1  2  1  0  0  0  0
  2 12  1  0  0  0  0
  3 15  1  0  0  0  0
  4  2  1  0  0  0  0
  4 16  1  0  0  0  0
  4  6  1  0  0  0  0
  5  3  1  0  0  0  0
  5 19  1  0  0  0  0
  5  6  1  0  0  0  0
  6  7  1  0  0  0  0
  7  9  1  0  0  0  0
  7  8  2  0  0  0  0
 10  1  1  0  0  0  0
 13  2  1  0  0  0  0
 14  3  1  0  0  0  0
 17  4  1  0  0  0  0
 18  5  1  0  0  0  0
 20  6  1  0  0  0  0
 21  9  1  0  0  0  0
M  END
>  <HBA>
2

>  <HBD>
1

>  <TPSA>
37.3

>  <cid>
7413

>  <dipole>
4.03

>  <excitation_energy_1>
5.549

>  <excitation_energy_2>
6.34

>  <excitation_energy_3>
7.127

>  <excitation_energy_4>
7.159

>  <homo_energy>
-7.214

>  <homo_lumo_gap>
7.456

>  <logP>
1.651

>  <lumo_energy>
0.242

>  <melting_point>
72.51

>  <molecular_refractivity>
35.42

>  <oscillator_strength_1>
0.0012

>  <oscillator_strength_2>
0.0077

>  <oscillator_strength_3>
0.0085

>  <oscillator_strength_4>
0.0028

>  <open_babel_can_smiles>
OC(=O)C1CCCCC1

>  <mulliken_charges>
21
1   -0.256953
2   -0.262834
3   -0.269649
4   -0.274485
5   -0.255871
6   -0.222545
7   0.610538
8   -0.443959
9   -0.573796
10   0.125015
11   0.136581
12   0.149175
13   0.136707
14   0.131669
15   0.168236
16   0.120203
17   0.145039
18   0.127006
19   0.154724
20   0.145593
21   0.409606

>  <lowdin_charges>
21
1   -0.276255
2   -0.277357
3   -0.281815
4   -0.276257
5   -0.270318
6   -0.17534
7   0.196251
8   -0.240299
9   -0.362874
10   0.133252
11   0.147524
12   0.145244
13   0.146456
14   0.146164
15   0.15563
16   0.136038
17   0.145656
18   0.13903
19   0.157215
20   0.155284
21   0.356772

$$$$

