PCCDB-ID:  2365
public computational chemistry database (PCCDB) project, http://pccdb.org

  9  9  0  0  0  0  0  0  0  0999 V2000
    0.3523    1.0834   -0.0829 C   0  0  0  0  0  0  0  0  0  0  0  0
   -0.9895    0.3665    0.1335 C   0  0  0  0  0  0  0  0  0  0  0  0
    0.9384   -0.3154    0.1303 C   0  0  0  0  0  0  0  0  0  0  0  0
    2.0140   -0.8330    0.1534 O   0  0  0  0  0  0  0  0  0  0  0  0
   -0.2894   -0.9109    0.3169 O   0  0  0  0  0  0  0  0  0  0  0  0
    0.6452    1.8127    0.6765 H   0  0  0  0  0  0  0  0  0  0  0  0
    0.5306    1.4969   -1.0786 H   0  0  0  0  0  0  0  0  0  0  0  0
   -1.6588    0.3159   -0.7282 H   0  0  0  0  0  0  0  0  0  0  0  0
   -1.5435    0.6326    1.0364 H   0  0  0  0  0  0  0  0  0  0  0  0
  1  3  1  0  0  0  0
  1  2  1  0  0  0  0
  1  6  1  0  0  0  0
  2  5  1  0  0  0  0
  2  9  1  0  0  0  0
  3  4  2  0  0  0  0
  3  5  1  0  0  0  0
  7  1  1  0  0  0  0
  8  2  1  0  0  0  0
M  END
>  <HBA>
2

>  <HBD>
0

>  <TPSA>
26.3

>  <cid>
2365

>  <dipole>
4.11

>  <excitation_energy_1>
5.907

>  <excitation_energy_2>
7.148

>  <excitation_energy_3>
7.492

>  <excitation_energy_4>
7.658

>  <homo_energy>
-7.611

>  <homo_lumo_gap>
7.777

>  <logP>
-0.067

>  <lumo_energy>
0.166

>  <melting_point>
10.45

>  <molecular_refractivity>
15.71

>  <oscillator_strength_1>
0.0007

>  <oscillator_strength_2>
0.0437

>  <oscillator_strength_3>
0.0027

>  <oscillator_strength_4>
0.0207

>  <open_babel_can_smiles>
C1COC1=O

>  <mulliken_charges>
9
1   -0.439197
2   -0.03643
3   0.622657
4   -0.427186
5   -0.442069
6   0.192871
7   0.192905
8   0.168196
9   0.168252

>  <lowdin_charges>
9
1   -0.327757
2   -0.123248
3   0.19535
4   -0.208237
5   -0.212113
6   0.180712
7   0.179427
8   0.15787
9   0.157995

$$$$

