PCCDB-ID:  30448
public computational chemistry database (PCCDB) project, http://pccdb.org

 24 25  0  0  0  0  0  0  0  0999 V2000
    1.1112   -0.0390    0.0264 C   0  0  0  0  0  0  0  0  0  0  0  0
    5.2017    2.5730    0.9678 C   0  0  0  0  0  0  0  0  0  0  0  0
    6.5777    2.5677    1.1680 C   0  0  0  0  0  0  0  0  0  0  0  0
    6.5431    0.1313    1.1379 C   0  0  0  0  0  0  0  0  0  0  0  0
    2.9865    1.3799    0.6388 C   0  0  0  0  0  0  0  0  0  0  0  0
    4.3655   -1.1354    0.8185 C   0  0  0  0  0  0  0  0  0  0  0  0
    4.4862    1.3755    0.8497 C   0  0  0  0  0  0  0  0  0  0  0  0
    5.1627    0.1484    0.9428 C   0  0  0  0  0  0  0  0  0  0  0  0
    7.2292    1.3378    1.2469 C   0  0  0  0  0  0  0  0  0  0  0  0
    2.5591    0.0950    0.0839 N   0  0  0  0  0  0  0  0  0  0  0  0
    8.6836    1.3152    1.4591 N   0  0  0  0  0  0  0  0  0  0  0  0
    9.2638    2.3972    1.5492 O   0  0  0  0  0  0  0  0  0  0  0  0
    9.2358    0.2173    1.5341 O   0  0  0  0  0  0  0  0  0  0  0  0
    2.9876   -0.9015    1.0570 O   0  0  0  0  0  0  0  0  0  0  0  0
    0.7285    0.7060   -0.6783 H   0  0  0  0  0  0  0  0  0  0  0  0
    0.6308    0.1093    1.0073 H   0  0  0  0  0  0  0  0  0  0  0  0
    0.8668   -1.0370   -0.3442 H   0  0  0  0  0  0  0  0  0  0  0  0
    4.6757    3.5219    0.8969 H   0  0  0  0  0  0  0  0  0  0  0  0
    7.1474    3.4841    1.2589 H   0  0  0  0  0  0  0  0  0  0  0  0
    7.0942   -0.7998    1.2128 H   0  0  0  0  0  0  0  0  0  0  0  0
    2.7080    2.1608   -0.0791 H   0  0  0  0  0  0  0  0  0  0  0  0
    2.4726    1.6007    1.5925 H   0  0  0  0  0  0  0  0  0  0  0  0
    4.6713   -1.8634    1.5776 H   0  0  0  0  0  0  0  0  0  0  0  0
    4.5097   -1.5828   -0.1760 H   0  0  0  0  0  0  0  0  0  0  0  0
  1 10  1  0  0  0  0
  1 16  1  0  0  0  0
  2  3  2  0  0  0  0
  3  9  1  0  0  0  0
  3 19  1  0  0  0  0
  4 20  1  0  0  0  0
  4  9  2  0  0  0  0
  5  7  1  0  0  0  0
  5 22  1  0  0  0  0
  6  8  1  0  0  0  0
  6 14  1  0  0  0  0
  6 23  1  0  0  0  0
  7  8  2  0  0  0  0
  7  2  1  0  0  0  0
  8  4  1  0  0  0  0
  9 11  1  0  0  0  0
 10  5  1  0  0  0  0
 10 14  1  0  0  0  0
 11 13  2  0  0  0  0
 11 12  2  0  0  0  0
 15  1  1  0  0  0  0
 17  1  1  0  0  0  0
 18  2  1  0  0  0  0
 21  5  1  0  0  0  0
 24  6  1  0  0  0  0
M  END
>  <HBA>
2

>  <HBD>
0

>  <TPSA>
58.29

>  <cid>
30448

>  <dipole>
5.05

>  <excitation_energy_1>
3.402

>  <excitation_energy_2>
3.751

>  <excitation_energy_3>
4.122

>  <excitation_energy_4>
4.26

>  <homo_energy>
-6.436

>  <homo_lumo_gap>
4.06

>  <logP>
1.933

>  <lumo_energy>
-2.376

>  <melting_point>
69.74

>  <molecular_refractivity>
55.78

>  <oscillator_strength_1>
0.0066

>  <oscillator_strength_2>
0.0

>  <oscillator_strength_3>
0.0329

>  <oscillator_strength_4>
0.0008

>  <open_babel_can_smiles>
CN1OCc2c(C1)ccc(c2)N(=O)=O

>  <mulliken_charges>
24
1   -0.282166
2   -0.198039
3   -0.150477
4   -0.213267
5   -0.164207
6   -0.060325
7   0.129706
8   0.080375
9   0.278931
10   -0.217522
11   0.378038
12   -0.395749
13   -0.396738
14   -0.400934
15   0.156746
16   0.14118
17   0.173059
18   0.142004
19   0.182201
20   0.177704
21   0.161199
22   0.151995
23   0.165383
24   0.160903

>  <lowdin_charges>
24
1   -0.36044
2   -0.154907
3   -0.140255
4   -0.144646
5   -0.209006
6   -0.13351
7   0.01048
8   -0.017464
9   0.002841
10   -0.06135
11   0.30921
12   -0.248014
13   -0.249003
14   -0.22654
15   0.159986
16   0.136913
17   0.164582
18   0.164858
19   0.188338
20   0.18566
21   0.162654
22   0.144422
23   0.163594
24   0.151596

$$$$

