PCCDB-ID:  9076
public computational chemistry database (PCCDB) project, http://pccdb.org

 21 21  0  0  0  0  0  0  0  0999 V2000
    2.0991   -0.3400   -0.9518 C   0  0  0  0  0  0  0  0  0  0  0  0
    3.5981   -0.0919   -0.9463 C   0  0  0  0  0  0  0  0  0  0  0  0
    7.8247   -0.3437   -1.3295 C   0  0  0  0  0  0  0  0  0  0  0  0
    7.5465   -2.5842   -2.1556 C   0  0  0  0  0  0  0  0  0  0  0  0
    6.4397   -0.2185   -1.1851 C   0  0  0  0  0  0  0  0  0  0  0  0
    6.1701   -2.4653   -2.0163 C   0  0  0  0  0  0  0  0  0  0  0  0
    8.4026   -1.5220   -1.8148 C   0  0  0  0  0  0  0  0  0  0  0  0
    5.5999   -1.2810   -1.5305 C   0  0  0  0  0  0  0  0  0  0  0  0
    9.8005   -1.6695   -1.8963 N   0  0  0  0  0  0  0  0  0  0  0  0
    4.2310   -1.2680   -1.4359 O   0  0  0  0  0  0  0  0  0  0  0  0
    1.5674    0.5436   -0.5826 H   0  0  0  0  0  0  0  0  0  0  0  0
    1.8479   -1.1911   -0.3110 H   0  0  0  0  0  0  0  0  0  0  0  0
    1.7494   -0.5592   -1.9656 H   0  0  0  0  0  0  0  0  0  0  0  0
    3.9528    0.1311    0.0713 H   0  0  0  0  0  0  0  0  0  0  0  0
    3.8536    0.7677   -1.5841 H   0  0  0  0  0  0  0  0  0  0  0  0
    8.4634    0.4918   -1.0506 H   0  0  0  0  0  0  0  0  0  0  0  0
    7.9688   -3.5152   -2.5277 H   0  0  0  0  0  0  0  0  0  0  0  0
    6.0357    0.7131   -0.8052 H   0  0  0  0  0  0  0  0  0  0  0  0
    5.5117   -3.2865   -2.2831 H   0  0  0  0  0  0  0  0  0  0  0  0
   10.2959   -0.7925   -2.0114 H   0  0  0  0  0  0  0  0  0  0  0  0
   10.0987   -2.3318   -2.6035 H   0  0  0  0  0  0  0  0  0  0  0  0
  1  2  1  0  0  0  0
  1 11  1  0  0  0  0
  1 12  1  0  0  0  0
  2 14  1  0  0  0  0
  3  5  1  0  0  0  0
  3 16  1  0  0  0  0
  4  6  2  0  0  0  0
  4  7  1  0  0  0  0
  5 18  1  0  0  0  0
  6  8  1  0  0  0  0
  7  3  2  0  0  0  0
  8 10  1  0  0  0  0
  8  5  2  0  0  0  0
  9  7  1  0  0  0  0
 10  2  1  0  0  0  0
 13  1  1  0  0  0  0
 15  2  1  0  0  0  0
 17  4  1  0  0  0  0
 19  6  1  0  0  0  0
 20  9  1  0  0  0  0
 21  9  1  0  0  0  0
M  END
>  <HBA>
2

>  <HBD>
1

>  <TPSA>
35.25

>  <cid>
9076

>  <dipole>
1.7

>  <excitation_energy_1>
4.354

>  <excitation_energy_2>
4.414

>  <excitation_energy_3>
4.86

>  <excitation_energy_4>
5.145

>  <homo_energy>
-4.92

>  <homo_lumo_gap>
5.127

>  <logP>
2.249

>  <lumo_energy>
0.207

>  <melting_point>
57.92

>  <molecular_refractivity>
42.15

>  <oscillator_strength_1>
0.0499

>  <oscillator_strength_2>
0.0047

>  <oscillator_strength_3>
0.0029

>  <oscillator_strength_4>
0.0015

>  <open_babel_can_smiles>
CCOc1ccc(cc1)N

>  <mulliken_charges>
21
1   -0.455879
2   -0.023429
3   -0.183431
4   -0.173864
5   -0.200208
6   -0.181789
7   0.29815
8   0.372264
9   -0.786314
10   -0.52524
11   0.145104
12   0.161926
13   0.161321
14   0.135685
15   0.134446
16   0.115106
17   0.117356
18   0.128517
19   0.132859
20   0.313522
21   0.313896

>  <lowdin_charges>
21
1   -0.448208
2   -0.123485
3   -0.193815
4   -0.187904
5   -0.203678
6   -0.173525
7   0.042849
8   0.082385
9   -0.499932
10   -0.212573
11   0.155895
12   0.159615
13   0.158037
14   0.133973
15   0.134889
16   0.152675
17   0.153487
18   0.160829
19   0.165442
20   0.270989
21   0.272056

$$$$

