PCCDB-ID:  66922
public computational chemistry database (PCCDB) project, http://pccdb.org

 40 39  0  0  0  0  0  0  0  0999 V2000
    2.7477    0.6246   -1.1908 C   0  0  0  0  0  0  0  0  0  0  0  0
    3.9401   -3.8331   -1.3148 C   0  0  0  0  0  0  0  0  0  0  0  0
    8.8687   -4.9564    2.4577 C   0  0  0  0  0  0  0  0  0  0  0  0
    6.7271   -5.4241    5.5649 C   0  0  0  0  0  0  0  0  0  0  0  0
    3.0650   -0.8541   -1.4321 C   0  0  0  0  0  0  0  0  0  0  0  0
    3.3297   -2.9621   -0.2018 C   0  0  0  0  0  0  0  0  0  0  0  0
    7.3392   -4.9350    2.6397 C   0  0  0  0  0  0  0  0  0  0  0  0
    7.1712   -4.0937    4.9543 C   0  0  0  0  0  0  0  0  0  0  0  0
    5.4424   -1.5532    1.4036 C   0  0  0  0  0  0  0  0  0  0  0  0
    6.5423   -2.2450    1.7121 C   0  0  0  0  0  0  0  0  0  0  0  0
    5.0152   -1.1875    0.0071 C   0  0  0  0  0  0  0  0  0  0  0  0
    6.9910   -2.5373    3.1212 C   0  0  0  0  0  0  0  0  0  0  0  0
    3.6129   -1.5228   -0.2492 N   0  0  0  0  0  0  0  0  0  0  0  0
    6.7826   -3.9299    3.5517 N   0  0  0  0  0  0  0  0  0  0  0  0
    2.2724    1.0600   -2.0777 H   0  0  0  0  0  0  0  0  0  0  0  0
    3.6467    1.2144   -0.9808 H   0  0  0  0  0  0  0  0  0  0  0  0
    2.0672    0.7330   -0.3400 H   0  0  0  0  0  0  0  0  0  0  0  0
    3.6467   -4.8800   -1.1735 H   0  0  0  0  0  0  0  0  0  0  0  0
    5.0352   -3.7952   -1.3090 H   0  0  0  0  0  0  0  0  0  0  0  0
    3.5981   -3.5231   -2.3089 H   0  0  0  0  0  0  0  0  0  0  0  0
    9.1495   -5.7382    1.7422 H   0  0  0  0  0  0  0  0  0  0  0  0
    9.3905   -5.1662    3.3981 H   0  0  0  0  0  0  0  0  0  0  0  0
    9.2498   -4.0036    2.0724 H   0  0  0  0  0  0  0  0  0  0  0  0
    6.8976   -5.4116    6.6474 H   0  0  0  0  0  0  0  0  0  0  0  0
    7.2798   -6.2780    5.1589 H   0  0  0  0  0  0  0  0  0  0  0  0
    5.6595   -5.5900    5.3848 H   0  0  0  0  0  0  0  0  0  0  0  0
    3.7267   -0.9501   -2.3145 H   0  0  0  0  0  0  0  0  0  0  0  0
    2.1323   -1.3689   -1.6921 H   0  0  0  0  0  0  0  0  0  0  0  0
    3.6725   -3.3331    0.7707 H   0  0  0  0  0  0  0  0  0  0  0  0
    2.2382   -3.0773   -0.2137 H   0  0  0  0  0  0  0  0  0  0  0  0
    7.0058   -5.9188    2.9868 H   0  0  0  0  0  0  0  0  0  0  0  0
    6.8616   -4.7877    1.6646 H   0  0  0  0  0  0  0  0  0  0  0  0
    8.2601   -3.9607    5.1123 H   0  0  0  0  0  0  0  0  0  0  0  0
    6.6871   -3.2800    5.5097 H   0  0  0  0  0  0  0  0  0  0  0  0
    4.7883   -1.1916    2.1984 H   0  0  0  0  0  0  0  0  0  0  0  0
    7.1820   -2.6011    0.9033 H   0  0  0  0  0  0  0  0  0  0  0  0
    5.7110   -1.6362   -0.7282 H   0  0  0  0  0  0  0  0  0  0  0  0
    5.1139   -0.1000   -0.1076 H   0  0  0  0  0  0  0  0  0  0  0  0
    6.4227   -1.9029    3.8126 H   0  0  0  0  0  0  0  0  0  0  0  0
    8.0525   -2.2303    3.2242 H   0  0  0  0  0  0  0  0  0  0  0  0
  1 16  1  0  0  0  0
  1 17  1  0  0  0  0
  2 19  1  0  0  0  0
  2 18  1  0  0  0  0
  2  6  1  0  0  0  0
  3  7  1  0  0  0  0
  3 22  1  0  0  0  0
  4 24  1  0  0  0  0
  5  1  1  0  0  0  0
  5 13  1  0  0  0  0
  6 29  1  0  0  0  0
  7 31  1  0  0  0  0
  7 14  1  0  0  0  0
  8 33  1  0  0  0  0
  8 34  1  0  0  0  0
  8  4  1  0  0  0  0
  9 10  2  0  0  0  0
  9 35  1  0  0  0  0
 10 12  1  0  0  0  0
 11  9  1  0  0  0  0
 12 40  1  0  0  0  0
 12 14  1  0  0  0  0
 12 39  1  0  0  0  0
 13  6  1  0  0  0  0
 13 11  1  0  0  0  0
 14  8  1  0  0  0  0
 15  1  1  0  0  0  0
 20  2  1  0  0  0  0
 21  3  1  0  0  0  0
 23  3  1  0  0  0  0
 25  4  1  0  0  0  0
 26  4  1  0  0  0  0
 27  5  1  0  0  0  0
 28  5  1  0  0  0  0
 30  6  1  0  0  0  0
 32  7  1  0  0  0  0
 36 10  1  0  0  0  0
 37 11  1  0  0  0  0
 38 11  1  0  0  0  0
M  END
>  <HBA>
2

>  <HBD>
0

>  <TPSA>
6.48

>  <cid>
66922

>  <dipole>
0.79

>  <excitation_energy_1>
4.835

>  <excitation_energy_2>
4.913

>  <excitation_energy_3>
5.046

>  <excitation_energy_4>
5.059

>  <homo_energy>
-5.412

>  <homo_lumo_gap>
5.916

>  <logP>
2.226

>  <lumo_energy>
0.503

>  <melting_point>
-15.49

>  <molecular_refractivity>
65.12

>  <oscillator_strength_1>
0.0132

>  <oscillator_strength_2>
0.0075

>  <oscillator_strength_3>
0.021

>  <oscillator_strength_4>
0.0118

>  <open_babel_can_smiles>
CCN(C/C=C/CN(CC)CC)CC

>  <mulliken_charges>
40
1   -0.441963
2   -0.456819
3   -0.461828
4   -0.456723
5   -0.113168
6   -0.136205
7   -0.136861
8   -0.101956
9   -0.094546
10   -0.111618
11   -0.168433
12   -0.157285
13   -0.379994
14   -0.380078
15   0.1382
16   0.144553
17   0.153998
18   0.14208
19   0.146316
20   0.14513
21   0.14203
22   0.148578
23   0.146353
24   0.142185
25   0.146743
26   0.156737
27   0.113317
28   0.13526
29   0.154625
30   0.134845
31   0.142416
32   0.144177
33   0.109482
34   0.134157
35   0.132454
36   0.12377
37   0.116842
38   0.147771
39   0.141458
40   0.113997

>  <lowdin_charges>
40
1   -0.451815
2   -0.461729
3   -0.468886
4   -0.448786
5   -0.196729
6   -0.202856
7   -0.207548
8   -0.195772
9   -0.159104
10   -0.177499
11   -0.197038
12   -0.195435
13   -0.191378
14   -0.191713
15   0.15034
16   0.146967
17   0.154354
18   0.151414
19   0.145898
20   0.147164
21   0.153524
22   0.149451
23   0.147875
24   0.15109
25   0.148419
26   0.153716
27   0.118811
28   0.144566
29   0.151679
30   0.138418
31   0.145361
32   0.146264
33   0.112358
34   0.14367
35   0.155991
36   0.148161
37   0.122309
38   0.150543
39   0.148835
40   0.119109

$$$$

