PCCDB-ID:  14278
public computational chemistry database (PCCDB) project, http://pccdb.org

 21 21  0  0  0  0  0  0  0  0999 V2000
    1.0267    0.0690   -0.0927 C   0  0  0  0  0  0  0  0  0  0  0  0
    3.1569    0.1981   -1.3942 C   0  0  0  0  0  0  0  0  0  0  0  0
    3.0865   -1.1297    0.7548 C   0  0  0  0  0  0  0  0  0  0  0  0
    2.9958    1.3437    0.8524 C   0  0  0  0  0  0  0  0  0  0  0  0
    3.1068    0.0315    2.7780 C   0  0  0  0  0  0  0  0  0  0  0  0
    2.5592    0.1204    0.0153 C   0  0  0  0  0  0  0  0  0  0  0  0
    4.5797    0.2484   -1.3154 O   0  0  0  0  0  0  0  0  0  0  0  0
    2.6676   -1.1316    2.1205 O   0  0  0  0  0  0  0  0  0  0  0  0
    2.5813    1.2072    2.2127 O   0  0  0  0  0  0  0  0  0  0  0  0
    0.6999   -0.8099   -0.6622 H   0  0  0  0  0  0  0  0  0  0  0  0
    0.6363    0.9627   -0.5953 H   0  0  0  0  0  0  0  0  0  0  0  0
    0.5797    0.0152    0.9023 H   0  0  0  0  0  0  0  0  0  0  0  0
    2.7595    1.0926   -1.9026 H   0  0  0  0  0  0  0  0  0  0  0  0
    2.8261   -0.6807   -1.9727 H   0  0  0  0  0  0  0  0  0  0  0  0
    4.1844   -1.1603    0.6993 H   0  0  0  0  0  0  0  0  0  0  0  0
    2.6893   -2.0487    0.3108 H   0  0  0  0  0  0  0  0  0  0  0  0
    2.5310    2.2631    0.4811 H   0  0  0  0  0  0  0  0  0  0  0  0
    4.0883    1.4593    0.8033 H   0  0  0  0  0  0  0  0  0  0  0  0
    4.2132    0.0730    2.7630 H   0  0  0  0  0  0  0  0  0  0  0  0
    2.7399   -0.0225    3.8044 H   0  0  0  0  0  0  0  0  0  0  0  0
    4.9285    0.2964   -2.2177 H   0  0  0  0  0  0  0  0  0  0  0  0
  1  6  1  0  0  0  0
  1 12  1  0  0  0  0
  2  7  1  0  0  0  0
  2  6  1  0  0  0  0
  3  8  1  0  0  0  0
  4  9  1  0  0  0  0
  5 20  1  0  0  0  0
  6  3  1  0  0  0  0
  6  4  1  0  0  0  0
  8  5  1  0  0  0  0
  9  5  1  0  0  0  0
 10  1  1  0  0  0  0
 11  1  1  0  0  0  0
 13  2  1  0  0  0  0
 14  2  1  0  0  0  0
 15  3  1  0  0  0  0
 16  3  1  0  0  0  0
 17  4  1  0  0  0  0
 18  4  1  0  0  0  0
 19  5  1  0  0  0  0
 21  7  1  0  0  0  0
M  END
>  <HBA>
3

>  <HBD>
1

>  <TPSA>
38.69

>  <cid>
14278

>  <dipole>
3.05

>  <excitation_energy_1>
6.085

>  <excitation_energy_2>
6.479

>  <excitation_energy_3>
6.624

>  <excitation_energy_4>
6.703

>  <homo_energy>
-6.776

>  <homo_lumo_gap>
8.441

>  <logP>
-0.011

>  <lumo_energy>
1.665

>  <melting_point>
15.42

>  <molecular_refractivity>
31.91

>  <oscillator_strength_1>
0.0047

>  <oscillator_strength_2>
0.0048

>  <oscillator_strength_3>
0.013

>  <oscillator_strength_4>
0.0005

>  <open_babel_can_smiles>
OCC1(C)COCOC1

>  <mulliken_charges>
21
1   -0.455347
2   -0.038445
3   -0.048804
4   -0.048712
5   0.176782
6   0.028604
7   -0.622552
8   -0.46691
9   -0.466893
10   0.137065
11   0.137032
12   0.180429
13   0.122471
14   0.12248
15   0.150221
16   0.140176
17   0.140178
18   0.150252
19   0.111148
20   0.152808
21   0.398018

>  <lowdin_charges>
21
1   -0.445897
2   -0.135469
3   -0.136975
4   -0.137078
5   -0.021066
6   -0.031962
7   -0.473145
8   -0.266487
9   -0.266496
10   0.147255
11   0.147209
12   0.168785
13   0.130625
14   0.130602
15   0.140565
16   0.148751
17   0.148681
18   0.140718
19   0.110746
20   0.152754
21   0.347885

$$$$

