PCCDB-ID:  70688
public computational chemistry database (PCCDB) project, http://pccdb.org

 22 21  0  0  0  0  0  0  0  0999 V2000
    5.4841   -0.7453   -0.4175 C   0  0  0  0  0  0  0  0  0  0  0  0
   -0.8033   -1.5797    3.8208 C   0  0  0  0  0  0  0  0  0  0  0  0
    2.9664   -0.1183   -0.2457 C   0  0  0  0  0  0  0  0  0  0  0  0
    0.4668   -2.3851    1.7063 C   0  0  0  0  0  0  0  0  0  0  0  0
    4.4316    0.3146   -0.1651 C   0  0  0  0  0  0  0  0  0  0  0  0
    0.0274   -1.2264    2.6073 C   0  0  0  0  0  0  0  0  0  0  0  0
    2.5559   -1.2048    0.7249 C   0  0  0  0  0  0  0  0  0  0  0  0
    1.1670   -1.8349    0.4789 C   0  0  0  0  0  0  0  0  0  0  0  0
    4.7160    1.4715    0.0699 O   0  0  0  0  0  0  0  0  0  0  0  0
    0.3394   -0.0817    2.3354 O   0  0  0  0  0  0  0  0  0  0  0  0
    3.2357   -1.6279    1.6405 O   0  0  0  0  0  0  0  0  0  0  0  0
    0.7143   -1.8976   -0.6450 O   0  0  0  0  0  0  0  0  0  0  0  0
    5.2830   -1.2860   -1.3508 H   0  0  0  0  0  0  0  0  0  0  0  0
    5.4615   -1.4782    0.3970 H   0  0  0  0  0  0  0  0  0  0  0  0
    6.4696   -0.2782   -0.4635 H   0  0  0  0  0  0  0  0  0  0  0  0
   -0.3011   -2.3444    4.4252 H   0  0  0  0  0  0  0  0  0  0  0  0
   -1.7667   -2.0007    3.5060 H   0  0  0  0  0  0  0  0  0  0  0  0
   -0.9772   -0.6850    4.4216 H   0  0  0  0  0  0  0  0  0  0  0  0
    2.7114   -0.4599   -1.2581 H   0  0  0  0  0  0  0  0  0  0  0  0
    2.3329    0.7546   -0.0415 H   0  0  0  0  0  0  0  0  0  0  0  0
   -0.3945   -2.9881    1.4001 H   0  0  0  0  0  0  0  0  0  0  0  0
    1.1555   -3.0244    2.2731 H   0  0  0  0  0  0  0  0  0  0  0  0
  1  5  1  0  0  0  0
  1 14  1  0  0  0  0
  2 18  1  0  0  0  0
  2 16  1  0  0  0  0
  3  5  1  0  0  0  0
  3 20  1  0  0  0  0
  3  7  1  0  0  0  0
  4 22  1  0  0  0  0
  4  6  1  0  0  0  0
  5  9  2  0  0  0  0
  6  2  1  0  0  0  0
  7 11  2  0  0  0  0
  8  7  1  0  0  0  0
  8  4  1  0  0  0  0
 10  6  2  0  0  0  0
 12  8  2  0  0  0  0
 13  1  1  0  0  0  0
 15  1  1  0  0  0  0
 17  2  1  0  0  0  0
 19  3  1  0  0  0  0
 21  4  1  0  0  0  0
M  END
>  <HBA>
4

>  <HBD>
0

>  <TPSA>
68.28

>  <cid>
70688

>  <dipole>
4.68

>  <excitation_energy_1>
2.863

>  <excitation_energy_2>
3.573

>  <excitation_energy_3>
4.025

>  <excitation_energy_4>
4.422

>  <homo_energy>
-6.67

>  <homo_lumo_gap>
4.237

>  <logP>
0.083

>  <lumo_energy>
-2.433

>  <melting_point>
57.67

>  <molecular_refractivity>
41.37

>  <oscillator_strength_1>
0.0001

>  <oscillator_strength_2>
0.0011

>  <oscillator_strength_3>
0.0012

>  <oscillator_strength_4>
0.0003

>  <open_babel_can_smiles>
O=C(C(=O)CC(=O)C)CC(=O)C

>  <mulliken_charges>
22
1   -0.540483
2   -0.529475
3   -0.46088
4   -0.447918
5   0.476927
6   0.46397
7   0.411255
8   0.418006
9   -0.425358
10   -0.429915
11   -0.437208
12   -0.415776
13   0.161465
14   0.197642
15   0.180584
16   0.177971
17   0.180983
18   0.192325
19   0.202305
20   0.22187
21   0.192229
22   0.209479

>  <lowdin_charges>
22
1   -0.478115
2   -0.472498
3   -0.33903
4   -0.342042
5   0.173854
6   0.180762
7   0.15056
8   0.150412
9   -0.221326
10   -0.227909
11   -0.21203
12   -0.193689
13   0.165747
14   0.184641
15   0.173703
16   0.176219
17   0.177518
18   0.180667
19   0.191525
20   0.201503
21   0.183257
22   0.19627

$$$$

