PCCDB-ID:  264
public computational chemistry database (PCCDB) project, http://pccdb.org

 14 13  0  0  0  0  0  0  0  0999 V2000
    0.9603   -0.2491    0.2634 C   0  0  0  0  0  0  0  0  0  0  0  0
    2.4631   -0.0435    0.0550 C   0  0  0  0  0  0  0  0  0  0  0  0
    2.7736    1.1549   -0.8446 C   0  0  0  0  0  0  0  0  0  0  0  0
    4.2671    1.3724   -1.0582 C   0  0  0  0  0  0  0  0  0  0  0  0
    5.1388    0.7060   -0.5615 O   0  0  0  0  0  0  0  0  0  0  0  0
    4.5919    2.4136   -1.8781 O   0  0  0  0  0  0  0  0  0  0  0  0
    0.7700   -1.1060    0.9185 H   0  0  0  0  0  0  0  0  0  0  0  0
    0.4446   -0.4371   -0.6866 H   0  0  0  0  0  0  0  0  0  0  0  0
    0.4942    0.6306    0.7245 H   0  0  0  0  0  0  0  0  0  0  0  0
    2.9112   -0.9415   -0.3852 H   0  0  0  0  0  0  0  0  0  0  0  0
    2.9646    0.0992    1.0186 H   0  0  0  0  0  0  0  0  0  0  0  0
    2.3497    2.0765   -0.4172 H   0  0  0  0  0  0  0  0  0  0  0  0
    2.2957    1.0325   -1.8285 H   0  0  0  0  0  0  0  0  0  0  0  0
    3.7839    2.8472   -2.1993 H   0  0  0  0  0  0  0  0  0  0  0  0
  1  9  1  0  0  0  0
  1  7  1  0  0  0  0
  2  1  1  0  0  0  0
  2 11  1  0  0  0  0
  3 12  1  0  0  0  0
  3  2  1  0  0  0  0
  4  3  1  0  0  0  0
  4  5  2  0  0  0  0
  6  4  1  0  0  0  0
  8  1  1  0  0  0  0
 10  2  1  0  0  0  0
 13  3  1  0  0  0  0
 14  6  1  0  0  0  0
M  END
>  <HBA>
2

>  <HBD>
1

>  <TPSA>
37.3

>  <cid>
264

>  <dipole>
4.13

>  <excitation_energy_1>
5.747

>  <excitation_energy_2>
6.454

>  <excitation_energy_3>
7.372

>  <excitation_energy_4>
7.48

>  <homo_energy>
-7.369

>  <homo_lumo_gap>
7.69

>  <logP>
0.871

>  <lumo_energy>
0.321

>  <melting_point>
51.92

>  <molecular_refractivity>
23.11

>  <oscillator_strength_1>
0.0004

>  <oscillator_strength_2>
0.015

>  <oscillator_strength_3>
0.0154

>  <oscillator_strength_4>
0.0037

>  <open_babel_can_smiles>
CCCC(=O)O

>  <mulliken_charges>
14
1   -0.449595
2   -0.241091
3   -0.398206
4   0.605757
5   -0.43597
6   -0.568826
7   0.153199
8   0.142343
9   0.142229
10   0.15831
11   0.159582
12   0.163826
13   0.161113
14   0.407329

>  <lowdin_charges>
14
1   -0.446716
2   -0.266885
3   -0.323532
4   0.198122
5   -0.236563
6   -0.363249
7   0.156288
8   0.146737
9   0.14736
10   0.155953
11   0.155878
12   0.160887
13   0.158648
14   0.357071

$$$$

