PCCDB-ID:  41059
public computational chemistry database (PCCDB) project, http://pccdb.org

 21 22  0  0  0  0  0  0  0  0999 V2000
    0.9329   -0.1696   -0.1252 C   0  0  0  0  0  0  0  0  0  0  0  0
    2.4493    0.0901   -0.0695 C   0  0  0  0  0  0  0  0  0  0  0  0
    3.2752   -0.9593    2.0908 C   0  0  0  0  0  0  0  0  0  0  0  0
    3.7258   -0.8924    3.4001 C   0  0  0  0  0  0  0  0  0  0  0  0
    4.3531    0.6779    5.3463 C   0  0  0  0  0  0  0  0  0  0  0  0
    4.3978    2.0133    5.5864 C   0  0  0  0  0  0  0  0  0  0  0  0
    3.1467    1.4519    1.9449 C   0  0  0  0  0  0  0  0  0  0  0  0
    2.9782    0.2038    1.3455 C   0  0  0  0  0  0  0  0  0  0  0  0
    3.8972    0.3607    4.0166 C   0  0  0  0  0  0  0  0  0  0  0  0
    3.6002    1.5239    3.2654 C   0  0  0  0  0  0  0  0  0  0  0  0
    3.8906    2.9771    4.2130 S   0  0  0  0  0  0  0  0  0  0  0  0
    0.5889   -0.2554   -1.1625 H   0  0  0  0  0  0  0  0  0  0  0  0
    0.3783    0.6461    0.3518 H   0  0  0  0  0  0  0  0  0  0  0  0
    0.6724   -1.0975    0.3964 H   0  0  0  0  0  0  0  0  0  0  0  0
    2.6777    1.0105   -0.6211 H   0  0  0  0  0  0  0  0  0  0  0  0
    2.9716   -0.7224   -0.5912 H   0  0  0  0  0  0  0  0  0  0  0  0
    3.1489   -1.9311    1.6187 H   0  0  0  0  0  0  0  0  0  0  0  0
    3.9502   -1.8023    3.9511 H   0  0  0  0  0  0  0  0  0  0  0  0
    4.6302   -0.0722    6.0795 H   0  0  0  0  0  0  0  0  0  0  0  0
    4.7022    2.5122    6.4973 H   0  0  0  0  0  0  0  0  0  0  0  0
    2.9286    2.3582    1.3852 H   0  0  0  0  0  0  0  0  0  0  0  0
  1  2  1  0  0  0  0
  1 13  1  0  0  0  0
  1 14  1  0  0  0  0
  2  8  1  0  0  0  0
  3  4  2  0  0  0  0
  4 18  1  0  0  0  0
  4  9  1  0  0  0  0
  5  6  2  0  0  0  0
  5 19  1  0  0  0  0
  6 20  1  0  0  0  0
  7 10  1  0  0  0  0
  8  7  2  0  0  0  0
  8  3  1  0  0  0  0
  9  5  1  0  0  0  0
 10  9  2  0  0  0  0
 10 11  1  0  0  0  0
 11  6  1  0  0  0  0
 12  1  1  0  0  0  0
 15  2  1  0  0  0  0
 16  2  1  0  0  0  0
 17  3  1  0  0  0  0
 21  7  1  0  0  0  0
M  END
>  <HBA>
1

>  <HBD>
0

>  <TPSA>
28.24

>  <cid>
41059

>  <dipole>
0.78

>  <excitation_energy_1>
4.601

>  <excitation_energy_2>
4.762

>  <excitation_energy_3>
5.017

>  <excitation_energy_4>
5.335

>  <homo_energy>
-5.766

>  <homo_lumo_gap>
5.192

>  <logP>
3.464

>  <lumo_energy>
-0.574

>  <melting_point>
51.05

>  <molecular_refractivity>
51.6

>  <oscillator_strength_1>
0.0637

>  <oscillator_strength_2>
0.052

>  <oscillator_strength_3>
0.0005

>  <oscillator_strength_4>
0.3098

>  <open_babel_can_smiles>
CCc1ccc2c(c1)scc2

>  <mulliken_charges>
21
1   -0.433398
2   -0.342292
3   -0.191779
4   -0.178218
5   -0.123577
6   -0.352142
7   -0.225334
8   0.186893
9   0.148472
10   -0.145778
11   0.224063
12   0.14382
13   0.150538
14   0.14938
15   0.143
16   0.144647
17   0.122962
18   0.129697
19   0.142886
20   0.173144
21   0.133016

>  <lowdin_charges>
21
1   -0.440915
2   -0.271889
3   -0.171288
4   -0.15758
5   -0.184822
6   -0.302202
7   -0.173889
8   0.000588
9   -0.020174
10   -0.134322
11   0.278592
12   0.148546
13   0.152411
14   0.15066
15   0.148935
16   0.150777
17   0.155234
18   0.159635
19   0.168013
20   0.182462
21   0.161228

$$$$

