PCCDB-ID:  35998
public computational chemistry database (PCCDB) project, http://pccdb.org

 37 39  0  0  1  0  0  0  0  0999 V2000
    1.0284   -1.5106    1.7402 C   0  0  0  0  0  0  0  0  0  0  0  0
    0.1080   -0.9765    0.6332 C   0  0  0  0  0  0  0  0  0  0  0  0
    2.5108   -1.3121    1.4123 C   0  0  0  0  0  0  0  0  0  0  0  0
   -3.8235   -1.9604    2.3929 C   0  0  0  0  0  0  0  0  0  0  0  0
   -4.0698   -2.1124   -0.1081 C   0  0  0  0  0  0  0  0  0  0  0  0
   -4.1220    0.1345    1.0298 C   0  0  0  0  0  0  0  0  0  0  0  0
   -1.8460   -2.6052    0.9739 C   0  0  0  0  0  0  0  0  0  0  0  0
   -1.8979   -0.3635    2.1091 C   0  0  0  0  0  0  0  0  0  0  0  0
   -2.1457   -0.5167   -0.3824 C   0  0  0  0  0  0  0  0  0  0  0  0
   -3.3774   -2.7221    1.1275 C   0  0  1  0  0  0  0  0  0  0  0  0
   -3.4292   -0.4742    2.2658 C   0  0  2  0  0  0  0  0  0  0  0  0
   -3.6759   -0.6267   -0.2352 C   0  0  1  0  0  0  0  0  0  0  0  0
   -1.4161   -1.1212    0.8459 C   0  0  1  0  0  0  0  0  0  0  0  0
    3.3526   -1.7858    2.5185 N   0  0  0  0  0  0  0  0  0  0  0  0
    0.8449   -2.5828    1.9004 H   0  0  0  0  0  0  0  0  0  0  0  0
    0.8248   -1.0146    2.6962 H   0  0  0  0  0  0  0  0  0  0  0  0
    0.3678   -1.4747   -0.3138 H   0  0  0  0  0  0  0  0  0  0  0  0
    0.3292    0.0910    0.4801 H   0  0  0  0  0  0  0  0  0  0  0  0
    2.7111   -0.2408    1.2788 H   0  0  0  0  0  0  0  0  0  0  0  0
    2.7335   -1.7946    0.4416 H   0  0  0  0  0  0  0  0  0  0  0  0
   -3.3540   -2.4007    3.2838 H   0  0  0  0  0  0  0  0  0  0  0  0
   -4.9104   -2.0530    2.5260 H   0  0  0  0  0  0  0  0  0  0  0  0
   -5.1608   -2.2093   -0.0174 H   0  0  0  0  0  0  0  0  0  0  0  0
   -3.7756   -2.6602   -1.0144 H   0  0  0  0  0  0  0  0  0  0  0  0
   -3.8655    1.1994    0.9395 H   0  0  0  0  0  0  0  0  0  0  0  0
   -5.2138    0.0780    1.1413 H   0  0  0  0  0  0  0  0  0  0  0  0
   -1.5126   -3.1642    0.0870 H   0  0  0  0  0  0  0  0  0  0  0  0
   -1.3571   -3.0677    1.8415 H   0  0  0  0  0  0  0  0  0  0  0  0
   -1.4093   -0.7699    3.0044 H   0  0  0  0  0  0  0  0  0  0  0  0
   -1.6015    0.6937    2.0409 H   0  0  0  0  0  0  0  0  0  0  0  0
   -1.8550    0.5375   -0.4989 H   0  0  0  0  0  0  0  0  0  0  0  0
   -1.8185   -1.0362   -1.2950 H   0  0  0  0  0  0  0  0  0  0  0  0
   -3.6519   -3.7818    1.2183 H   0  0  0  0  0  0  0  0  0  0  0  0
   -3.7409    0.0691    3.1680 H   0  0  0  0  0  0  0  0  0  0  0  0
   -4.1609   -0.1904   -1.1189 H   0  0  0  0  0  0  0  0  0  0  0  0
    3.2517   -2.7966    2.6100 H   0  0  0  0  0  0  0  0  0  0  0  0
    4.3342   -1.6237    2.2981 H   0  0  0  0  0  0  0  0  0  0  0  0
  1 15  1  0  0  0  0
  1 16  1  0  0  0  0
  2  1  1  0  0  0  0
  3  1  1  0  0  0  0
  3 14  1  0  0  0  0
  4 22  1  0  0  0  0
  4 21  1  0  0  0  0
  5 23  1  0  0  0  0
  5 10  1  0  0  0  0
  6 26  1  0  0  0  0
  6 11  1  0  0  0  0
  7 10  1  0  0  0  0
  7 28  1  0  0  0  0
  8 11  1  0  0  0  0
  8 29  1  0  0  0  0
  9 12  1  0  0  0  0
  9 13  1  0  0  0  0
 10 33  1  1  0  0  0
 10  4  1  0  0  0  0
 11  4  1  0  0  0  0
 11 34  1  1  0  0  0
 12 35  1  6  0  0  0
 12  5  1  0  0  0  0
 12  6  1  0  0  0  0
 13  2  1  6  0  0  0
 13  7  1  0  0  0  0
 13  8  1  0  0  0  0
 14 36  1  0  0  0  0
 17  2  1  0  0  0  0
 18  2  1  0  0  0  0
 19  3  1  0  0  0  0
 20  3  1  0  0  0  0
 24  5  1  0  0  0  0
 25  6  1  0  0  0  0
 27  7  1  0  0  0  0
 30  8  1  0  0  0  0
 31  9  1  0  0  0  0
 32  9  1  0  0  0  0
 37 14  1  0  0  0  0
M  END
>  <HBA>
1

>  <HBD>
1

>  <TPSA>
26.02

>  <cid>
35998

>  <dipole>
1.27

>  <excitation_energy_1>
5.533

>  <excitation_energy_2>
6.094

>  <excitation_energy_3>
6.329

>  <excitation_energy_4>
6.519

>  <homo_energy>
-6.204

>  <homo_lumo_gap>
8.125

>  <logP>
3.642

>  <lumo_energy>
1.921

>  <melting_point>
109.46

>  <molecular_refractivity>
60.71

>  <oscillator_strength_1>
0.0135

>  <oscillator_strength_2>
0.0007

>  <oscillator_strength_3>
0.0113

>  <oscillator_strength_4>
0.0176

>  <open_babel_can_smiles>
NCCC[C@]12C[C@H]3C[C@@H](C2)C[C@@H](C1)C3

>  <mulliken_charges>
37
1   -0.261017
2   -0.265278
3   -0.133372
4   -0.264493
5   -0.263577
6   -0.263684
7   -0.276068
8   -0.276065
9   -0.272676
10   -0.090406
11   -0.090665
12   -0.089184
13   0.092937
14   -0.716495
15   0.125498
16   0.152228
17   0.11987
18   0.122248
19   0.136681
20   0.108641
21   0.124372
22   0.123622
23   0.123404
24   0.123176
25   0.123712
26   0.123285
27   0.11938
28   0.127806
29   0.130255
30   0.12113
31   0.121483
32   0.120681
33   0.112773
34   0.113752
35   0.112804
36   0.289706
37   0.293533

>  <lowdin_charges>
37
1   -0.281244
2   -0.271901
3   -0.20156
4   -0.279642
5   -0.279411
6   -0.277032
7   -0.283038
8   -0.280265
9   -0.277776
10   -0.129
11   -0.131288
12   -0.132026
13   0.001714
14   -0.555222
15   0.134671
16   0.149891
17   0.136559
18   0.136496
19   0.137925
20   0.113662
21   0.13948
22   0.137009
23   0.13664
24   0.138769
25   0.137051
26   0.136543
27   0.137642
28   0.140702
29   0.141856
30   0.136601
31   0.136485
32   0.137725
33   0.135987
34   0.138563
35   0.138424
36   0.247356
37   0.251653

$$$$

