PCCDB-ID:  55846
public computational chemistry database (PCCDB) project, http://pccdb.org

 30 31  0  0  1  0  0  0  0  0999 V2000
   -1.7203    0.2829    2.3219 C   0  0  0  0  0  0  0  0  0  0  0  0
   -0.4077    1.0201    2.1898 C   0  0  0  0  0  0  0  0  0  0  0  0
   -2.0106   -0.4261    1.2285 C   0  0  0  0  0  0  0  0  0  0  0  0
    0.2331    0.3653    0.9397 C   0  0  0  0  0  0  0  0  0  0  0  0
   -0.4022   -1.6373   -1.9395 C   0  0  0  0  0  0  0  0  0  0  0  0
   -0.3684   -2.7751    0.1698 C   0  0  0  0  0  0  0  0  0  0  0  0
   -0.0356   -2.8111   -2.5896 C   0  0  0  0  0  0  0  0  0  0  0  0
   -0.0027   -3.9659   -0.4624 C   0  0  0  0  0  0  0  0  0  0  0  0
    0.7681   -6.3196   -1.8879 C   0  0  0  0  0  0  0  0  0  0  0  0
   -0.9447   -0.2979    0.1536 C   0  0  1  0  0  0  0  0  0  0  0  0
   -0.5726   -1.5919   -0.5483 C   0  0  0  0  0  0  0  0  0  0  0  0
    0.1654   -3.9794   -1.8490 C   0  0  0  0  0  0  0  0  0  0  0  0
    1.1886   -7.3805   -2.9080 C   0  0  0  0  0  0  0  0  0  0  0  0
    1.4182   -8.5152   -2.5739 O   0  0  0  0  0  0  0  0  0  0  0  0
    1.2861   -6.9540   -4.1782 O   0  0  0  0  0  0  0  0  0  0  0  0
    0.5220   -5.0987   -2.5713 O   0  0  0  0  0  0  0  0  0  0  0  0
   -2.3616    0.3728    3.1948 H   0  0  0  0  0  0  0  0  0  0  0  0
    0.2269    0.9331    3.0809 H   0  0  0  0  0  0  0  0  0  0  0  0
   -0.5841    2.0963    2.0416 H   0  0  0  0  0  0  0  0  0  0  0  0
   -2.9182   -1.0031    1.0726 H   0  0  0  0  0  0  0  0  0  0  0  0
    0.9314   -0.4186    1.2532 H   0  0  0  0  0  0  0  0  0  0  0  0
    0.7951    1.0726    0.3220 H   0  0  0  0  0  0  0  0  0  0  0  0
   -0.5590   -0.7352   -2.5266 H   0  0  0  0  0  0  0  0  0  0  0  0
   -0.5012   -2.7725    1.2488 H   0  0  0  0  0  0  0  0  0  0  0  0
    0.0933   -2.8400   -3.6674 H   0  0  0  0  0  0  0  0  0  0  0  0
    0.1409   -4.8627    0.1300 H   0  0  0  0  0  0  0  0  0  0  0  0
    1.5752   -6.2105   -1.1521 H   0  0  0  0  0  0  0  0  0  0  0  0
   -0.1283   -6.6772   -1.3664 H   0  0  0  0  0  0  0  0  0  0  0  0
   -1.3059    0.4002   -0.6182 H   0  0  0  0  0  0  0  0  0  0  0  0
    1.0476   -6.0056   -4.1922 H   0  0  0  0  0  0  0  0  0  0  0  0
  1 17  1  0  0  0  0
  2  1  1  0  0  0  0
  2 18  1  0  0  0  0
  3  1  2  0  0  0  0
  4 21  1  0  0  0  0
  4  2  1  0  0  0  0
  5 11  1  0  0  0  0
  6 24  1  0  0  0  0
  7  5  2  0  0  0  0
  7 12  1  0  0  0  0
  8 26  1  0  0  0  0
  8  6  1  0  0  0  0
  9 28  1  0  0  0  0
  9 27  1  0  0  0  0
 10 29  1  6  0  0  0
 10  4  1  0  0  0  0
 10  3  1  0  0  0  0
 11 10  1  0  0  0  0
 11  6  2  0  0  0  0
 12  8  2  0  0  0  0
 13 14  2  0  0  0  0
 13  9  1  0  0  0  0
 15 13  1  0  0  0  0
 16  9  1  0  0  0  0
 16 12  1  0  0  0  0
 19  2  1  0  0  0  0
 20  3  1  0  0  0  0
 22  4  1  0  0  0  0
 23  5  1  0  0  0  0
 25  7  1  0  0  0  0
 30 15  1  0  0  0  0
M  END
>  <HBA>
3

>  <HBD>
1

>  <TPSA>
46.53

>  <cid>
55846

>  <dipole>
5.09

>  <excitation_energy_1>
4.941

>  <excitation_energy_2>
5.445

>  <excitation_energy_3>
5.543

>  <excitation_energy_4>
5.573

>  <homo_energy>
-6.231

>  <homo_lumo_gap>
5.815

>  <logP>
2.584

>  <lumo_energy>
-0.416

>  <melting_point>
119.47

>  <molecular_refractivity>
61.12

>  <oscillator_strength_1>
0.0276

>  <oscillator_strength_2>
0.0038

>  <oscillator_strength_3>
0.1083

>  <oscillator_strength_4>
0.0259

>  <open_babel_can_smiles>
OC(=O)COc1ccc(cc1)[C@@H]1CCC=C1

>  <mulliken_charges>
30
1   -0.121289
2   -0.304897
3   -0.094197
4   -0.281234
5   -0.199899
6   -0.196799
7   -0.174193
8   -0.190671
9   -0.131295
10   -0.209363
11   0.182617
12   0.384302
13   0.576731
14   -0.444666
15   -0.564805
16   -0.566578
17   0.129358
18   0.143776
19   0.147712
20   0.130845
21   0.14932
22   0.139844
23   0.130891
24   0.13882
25   0.135695
26   0.141512
27   0.187756
28   0.188471
29   0.137844
30   0.434393

>  <lowdin_charges>
30
1   -0.167772
2   -0.276741
3   -0.175094
4   -0.275514
5   -0.155531
6   -0.149539
7   -0.179024
8   -0.20624
9   -0.167995
10   -0.124024
11   -0.014523
12   0.098111
13   0.181191
14   -0.240462
15   -0.339472
16   -0.221659
17   0.156096
18   0.148901
19   0.147314
20   0.157165
21   0.1514
22   0.149544
23   0.159165
24   0.161199
25   0.163088
26   0.16567
27   0.170849
28   0.171523
29   0.148862
30   0.363513

$$$$

