PCCDB-ID:  30019
public computational chemistry database (PCCDB) project, http://pccdb.org

 35 35  0  0  1  0  0  0  0  0999 V2000
    3.9203    0.5978    3.8749 C   0  0  0  0  0  0  0  0  0  0  0  0
    8.0725   -5.4648    1.4190 C   0  0  0  0  0  0  0  0  0  0  0  0
    4.1206   -1.1470   -0.3463 C   0  0  0  0  0  0  0  0  0  0  0  0
    4.4860    0.2475    2.4947 C   0  0  0  0  0  0  0  0  0  0  0  0
    6.7935   -5.1193    1.5612 C   0  0  0  0  0  0  0  0  0  0  0  0
    4.3859   -1.2559    2.1816 C   0  0  0  0  0  0  0  0  0  0  0  0
    6.3113   -3.7072    1.7702 C   0  0  0  0  0  0  0  0  0  0  0  0
    4.9948   -1.6517    0.8151 C   0  0  1  0  0  0  0  0  0  0  0  0
    6.0046   -3.3913   -0.7101 C   0  0  0  0  0  0  0  0  0  0  0  0
    4.0682   -4.0537    0.6441 C   0  0  0  0  0  0  0  0  0  0  0  0
    4.2580   -4.6307   -1.6000 C   0  0  0  0  0  0  0  0  0  0  0  0
    5.3332   -3.1956    0.6533 C   0  0  1  0  0  0  0  0  0  0  0  0
    5.5353   -4.0252   -1.7076 N   0  0  0  0  0  0  0  0  0  0  0  0
    3.5910   -4.6910   -0.3480 N   0  0  0  0  0  0  0  0  0  0  0  0
    7.2061   -2.7951   -0.8833 O   0  0  0  0  0  0  0  0  0  0  0  0
    3.3900   -4.1655    1.8114 O   0  0  0  0  0  0  0  0  0  0  0  0
    3.7353   -5.1116   -2.5796 O   0  0  0  0  0  0  0  0  0  0  0  0
    4.4531    0.0654    4.6724 H   0  0  0  0  0  0  0  0  0  0  0  0
    2.8590    0.3319    3.9486 H   0  0  0  0  0  0  0  0  0  0  0  0
    4.0085    1.6709    4.0755 H   0  0  0  0  0  0  0  0  0  0  0  0
    8.3685   -6.4994    1.2736 H   0  0  0  0  0  0  0  0  0  0  0  0
    8.8751   -4.7301    1.4404 H   0  0  0  0  0  0  0  0  0  0  0  0
    4.5853   -1.3309   -1.3190 H   0  0  0  0  0  0  0  0  0  0  0  0
    3.9564   -0.0693   -0.2621 H   0  0  0  0  0  0  0  0  0  0  0  0
    3.1395   -1.6354   -0.3442 H   0  0  0  0  0  0  0  0  0  0  0  0
    3.9552    0.8265    1.7301 H   0  0  0  0  0  0  0  0  0  0  0  0
    5.5398    0.5550    2.4397 H   0  0  0  0  0  0  0  0  0  0  0  0
    6.0221   -5.8883    1.5310 H   0  0  0  0  0  0  0  0  0  0  0  0
    3.3280   -1.5511    2.2133 H   0  0  0  0  0  0  0  0  0  0  0  0
    4.8953   -1.7845    2.9999 H   0  0  0  0  0  0  0  0  0  0  0  0
    7.1701   -3.0263    1.8455 H   0  0  0  0  0  0  0  0  0  0  0  0
    5.8149   -3.6408    2.7462 H   0  0  0  0  0  0  0  0  0  0  0  0
    5.9669   -1.1394    0.7497 H   0  0  0  0  0  0  0  0  0  0  0  0
    7.4959   -2.3757   -0.0588 H   0  0  0  0  0  0  0  0  0  0  0  0
    3.7914   -3.6034    2.4909 H   0  0  0  0  0  0  0  0  0  0  0  0
  1 19  1  0  0  0  0
  1 20  1  0  0  0  0
  1 18  1  0  0  0  0
  2 22  1  0  0  0  0
  2  5  2  0  0  0  0
  3 25  1  0  0  0  0
  3 24  1  0  0  0  0
  3  8  1  0  0  0  0
  4  1  1  0  0  0  0
  5  7  1  0  0  0  0
  6 29  1  0  0  0  0
  6  4  1  0  0  0  0
  6 30  1  0  0  0  0
  7 31  1  0  0  0  0
  7 32  1  0  0  0  0
  8 33  1  6  0  0  0
  8  6  1  0  0  0  0
  9 12  1  0  0  0  0
 10 12  1  0  0  0  0
 10 16  1  0  0  0  0
 11 14  1  0  0  0  0
 12  8  1  0  0  0  0
 12  7  1  1  0  0  0
 13 11  2  0  0  0  0
 13  9  2  0  0  0  0
 14 10  2  0  0  0  0
 15  9  1  0  0  0  0
 15 34  1  0  0  0  0
 16 35  1  0  0  0  0
 17 11  2  0  0  0  0
 21  2  1  0  0  0  0
 23  3  1  0  0  0  0
 26  4  1  0  0  0  0
 27  4  1  0  0  0  0
 28  5  1  0  0  0  0
M  END
>  <HBA>
5

>  <HBD>
2

>  <TPSA>
75.27

>  <cid>
30019

>  <dipole>
10.22

>  <excitation_energy_1>
3.989

>  <excitation_energy_2>
4.17

>  <excitation_energy_3>
5.174

>  <excitation_energy_4>
5.332

>  <homo_energy>
-6.827

>  <homo_lumo_gap>
5.377

>  <logP>
2.009

>  <lumo_energy>
-1.45

>  <melting_point>
118.98

>  <molecular_refractivity>
71.37

>  <oscillator_strength_1>
0.0001

>  <oscillator_strength_2>
0.0001

>  <oscillator_strength_3>
0.0004

>  <oscillator_strength_4>
0.0053

>  <open_babel_can_smiles>
CCC[C@@H]([C@@]1(CC=C)C(=N[C](=[N]=C1O)=O)O)C

>  <mulliken_charges>
35
1   -0.447101
2   -0.3268
3   -0.487579
4   -0.259478
5   -0.049567
6   -0.307305
7   -0.350036
8   -0.070948
9   0.557946
10   0.533326
11   0.618886
12   -0.145339
13   -0.472054
14   -0.467332
15   -0.577656
16   -0.582486
17   -0.432474
18   0.144265
19   0.151887
20   0.155472
21   0.162687
22   0.13985
23   0.186244
24   0.161889
25   0.175571
26   0.152434
27   0.137101
28   0.164017
29   0.157406
30   0.128866
31   0.137597
32   0.155349
33   0.118362
34   0.415217
35   0.421781

>  <lowdin_charges>
35
1   -0.442099
2   -0.314752
3   -0.453846
4   -0.271248
5   -0.161264
6   -0.296322
7   -0.274771
8   -0.11764
9   0.153657
10   0.146694
11   0.17412
12   -0.065103
13   -0.184722
14   -0.185159
15   -0.330067
16   -0.336411
17   -0.211387
18   0.148597
19   0.150417
20   0.155597
21   0.170215
22   0.156507
23   0.170275
24   0.158673
25   0.163603
26   0.150158
27   0.140438
28   0.169244
29   0.149308
30   0.138581
31   0.146836
32   0.153509
33   0.135664
34   0.355239
35   0.357461

$$$$

