PCCDB-ID:  10050
public computational chemistry database (PCCDB) project, http://pccdb.org

 27 28  0  0  1  0  0  0  0  0999 V2000
    0.8775   -0.1576    0.0502 C   0  0  0  0  0  0  0  0  0  0  0  0
    2.8714   -0.1347    1.5245 C   0  0  0  0  0  0  0  0  0  0  0  0
    2.7621    2.4985   -0.3722 C   0  0  0  0  0  0  0  0  0  0  0  0
    2.5888   -0.8674   -2.2565 C   0  0  0  0  0  0  0  0  0  0  0  0
    2.6046    0.6922   -2.2407 C   0  0  0  0  0  0  0  0  0  0  0  0
    4.5739   -0.8639   -0.7722 C   0  0  0  0  0  0  0  0  0  0  0  0
    3.0758   -1.2288   -0.8322 C   0  0  1  0  0  0  0  0  0  0  0  0
    4.5218    0.6740   -0.7504 C   0  0  0  0  0  0  0  0  0  0  0  0
    2.4145   -0.1179    0.0528 C   0  0  0  0  0  0  0  0  0  0  0  0
    3.0359    1.0620   -0.7806 C   0  0  1  0  0  0  0  0  0  0  0  0
    5.4691    1.4298   -0.7296 O   0  0  0  0  0  0  0  0  0  0  0  0
    0.5249   -1.0815    0.5257 H   0  0  0  0  0  0  0  0  0  0  0  0
    0.4377   -0.1138   -0.9490 H   0  0  0  0  0  0  0  0  0  0  0  0
    0.4694    0.6811    0.6264 H   0  0  0  0  0  0  0  0  0  0  0  0
    2.5847   -1.0788    2.0040 H   0  0  0  0  0  0  0  0  0  0  0  0
    2.3894    0.6747    2.0845 H   0  0  0  0  0  0  0  0  0  0  0  0
    3.9514   -0.0127    1.6516 H   0  0  0  0  0  0  0  0  0  0  0  0
    3.3382    3.1878   -0.9986 H   0  0  0  0  0  0  0  0  0  0  0  0
    3.0597    2.6830    0.6658 H   0  0  0  0  0  0  0  0  0  0  0  0
    1.6995    2.7469   -0.4750 H   0  0  0  0  0  0  0  0  0  0  0  0
    3.2470   -1.2855   -3.0254 H   0  0  0  0  0  0  0  0  0  0  0  0
    1.5852   -1.2573   -2.4508 H   0  0  0  0  0  0  0  0  0  0  0  0
    1.6152    1.1137   -2.4483 H   0  0  0  0  0  0  0  0  0  0  0  0
    3.2907    1.1200   -2.9795 H   0  0  0  0  0  0  0  0  0  0  0  0
    5.1542   -1.2220   -1.6301 H   0  0  0  0  0  0  0  0  0  0  0  0
    5.0780   -1.2294    0.1292 H   0  0  0  0  0  0  0  0  0  0  0  0
    2.8516   -2.2560   -0.5275 H   0  0  0  0  0  0  0  0  0  0  0  0
  1  9  1  0  0  0  0
  1 12  1  0  0  0  0
  1 14  1  0  0  0  0
  2 17  1  0  0  0  0
  2 15  1  0  0  0  0
  2 16  1  0  0  0  0
  3 19  1  0  0  0  0
  4  5  1  0  0  0  0
  4  7  1  0  0  0  0
  5 10  1  0  0  0  0
  6  8  1  0  0  0  0
  6 26  1  0  0  0  0
  7  6  1  0  0  0  0
  7 27  1  1  0  0  0
  7  9  1  0  0  0  0
  8 11  2  0  0  0  0
  9  2  1  0  0  0  0
 10  8  1  0  0  0  0
 10  3  1  1  0  0  0
 10  9  1  0  0  0  0
 13  1  1  0  0  0  0
 18  3  1  0  0  0  0
 20  3  1  0  0  0  0
 21  4  1  0  0  0  0
 22  4  1  0  0  0  0
 23  5  1  0  0  0  0
 24  5  1  0  0  0  0
 25  6  1  0  0  0  0
M  END
>  <HBA>
1

>  <HBD>
0

>  <TPSA>
17.07

>  <cid>
10050

>  <dipole>
2.96

>  <excitation_energy_1>
4.217

>  <excitation_energy_2>
5.864

>  <excitation_energy_3>
6.205

>  <excitation_energy_4>
6.295

>  <homo_energy>
-6.234

>  <homo_lumo_gap>
6.006

>  <logP>
2.402

>  <lumo_energy>
-0.229

>  <melting_point>
74.7

>  <molecular_refractivity>
45.64

>  <oscillator_strength_1>
0.0003

>  <oscillator_strength_2>
0.0044

>  <oscillator_strength_3>
0.0115

>  <oscillator_strength_4>
0.0065

>  <open_babel_can_smiles>
O=C1C[C@H]2C([C@]1(C)CC2)(C)C

>  <mulliken_charges>
27
1   -0.467168
2   -0.471793
3   -0.477295
4   -0.280217
5   -0.301996
6   -0.358887
7   -0.112833
8   0.441281
9   0.087181
10   0.026432
11   -0.463849
12   0.144255
13   0.147016
14   0.147333
15   0.144717
16   0.149661
17   0.153891
18   0.163467
19   0.151535
20   0.138751
21   0.138835
22   0.143285
23   0.149287
24   0.153273
25   0.16398
26   0.171701
27   0.118157

>  <lowdin_charges>
27
1   -0.44647
2   -0.447759
3   -0.439777
4   -0.286914
5   -0.282368
6   -0.318655
7   -0.133679
8   0.155491
9   0.005052
10   -0.030115
11   -0.234018
12   0.15204
13   0.151602
14   0.152981
15   0.151827
16   0.154418
17   0.152505
18   0.164946
19   0.154771
20   0.147664
21   0.147631
22   0.14682
23   0.151037
24   0.154147
25   0.16615
26   0.169474
27   0.141199

$$$$

