PCCDB-ID:  12715
public computational chemistry database (PCCDB) project, http://pccdb.org

 20 19  0  0  1  0  0  0  0  0999 V2000
    1.9202    0.0890   -1.5785 C   0  0  0  0  0  0  0  0  0  0  0  0
    2.4874   -1.2458    2.0753 C   0  0  0  0  0  0  0  0  0  0  0  0
    1.6090   -0.5014   -0.2000 C   0  0  0  0  0  0  0  0  0  0  0  0
    2.8525   -0.8339    0.6400 C   0  0  2  0  0  0  0  0  0  0  0  0
    4.9552   -2.1209    0.2776 C   0  0  0  0  0  0  0  0  0  0  0  0
    5.8189   -1.4283    0.9194 N   0  0  0  0  0  0  0  0  0  0  0  0
    3.6431   -1.8564   -0.0463 N   0  0  0  0  0  0  0  0  0  0  0  0
    5.3228   -3.3265   -0.2395 O   0  0  0  0  0  0  0  0  0  0  0  0
    0.9979    0.2909   -2.1342 H   0  0  0  0  0  0  0  0  0  0  0  0
    2.5358   -0.5932   -2.1727 H   0  0  0  0  0  0  0  0  0  0  0  0
    2.4680    1.0345   -1.4865 H   0  0  0  0  0  0  0  0  0  0  0  0
    1.9652   -0.4350    2.5963 H   0  0  0  0  0  0  0  0  0  0  0  0
    3.3873   -1.4980    2.6453 H   0  0  0  0  0  0  0  0  0  0  0  0
    1.8302   -2.1241    2.0703 H   0  0  0  0  0  0  0  0  0  0  0  0
    1.0035   -1.4141   -0.3094 H   0  0  0  0  0  0  0  0  0  0  0  0
    0.9918    0.2007    0.3746 H   0  0  0  0  0  0  0  0  0  0  0  0
    3.4785    0.0677    0.6795 H   0  0  0  0  0  0  0  0  0  0  0  0
    5.4368   -0.5470    1.2572 H   0  0  0  0  0  0  0  0  0  0  0  0
    3.1307   -2.6729   -0.3594 H   0  0  0  0  0  0  0  0  0  0  0  0
    6.2629   -3.4175   -0.0046 H   0  0  0  0  0  0  0  0  0  0  0  0
  1 11  1  0  0  0  0
  1  3  1  0  0  0  0
  2 12  1  0  0  0  0
  2 13  1  0  0  0  0
  3 16  1  0  0  0  0
  3  4  1  0  0  0  0
  4 17  1  1  0  0  0
  4  2  1  0  0  0  0
  5  6  2  0  0  0  0
  6 18  1  0  0  0  0
  7  5  1  0  0  0  0
  7  4  1  0  0  0  0
  8 20  1  0  0  0  0
  8  5  1  0  0  0  0
  9  1  1  0  0  0  0
 10  1  1  0  0  0  0
 14  2  1  0  0  0  0
 15  3  1  0  0  0  0
 19  7  1  0  0  0  0
M  END
>  <HBA>
3

>  <HBD>
2

>  <TPSA>
55.12

>  <cid>
12715

>  <dipole>
2.55

>  <excitation_energy_1>
5.716

>  <excitation_energy_2>
6.087

>  <excitation_energy_3>
6.253

>  <excitation_energy_4>
6.326

>  <homo_energy>
-6.166

>  <homo_lumo_gap>
7.94

>  <logP>
1.544

>  <lumo_energy>
1.774

>  <melting_point>
87.25

>  <molecular_refractivity>
32.25

>  <oscillator_strength_1>
0.0007

>  <oscillator_strength_2>
0.0093

>  <oscillator_strength_3>
0.0095

>  <oscillator_strength_4>
0.0326

>  <open_babel_can_smiles>
C[C@@H](NC(=N)O)CC

>  <mulliken_charges>
20
1   -0.442138
2   -0.445433
3   -0.266422
4   0.036636
5   0.644458
6   -0.667407
7   -0.590356
8   -0.60979
9   0.144913
10   0.16217
11   0.145064
12   0.145576
13   0.162722
14   0.142445
15   0.129276
16   0.142227
17   0.137889
18   0.282093
19   0.327202
20   0.418876

>  <lowdin_charges>
20
1   -0.447748
2   -0.460024
3   -0.277982
4   -0.055563
5   0.163984
6   -0.500116
7   -0.29771
8   -0.385826
9   0.152023
10   0.157995
11   0.149151
12   0.153924
13   0.160457
14   0.149695
15   0.139361
16   0.150481
17   0.142606
18   0.255692
19   0.284558
20   0.365043

$$$$

