PCCDB-ID:  62326
public computational chemistry database (PCCDB) project, http://pccdb.org

 12 11  0  0  1  0  0  0  0  0999 V2000
    0.9275    0.3391    0.6986 C   0  0  0  0  0  0  0  0  0  0  0  0
    2.2860    0.1313    0.0306 C   0  0  1  0  0  0  0  0  0  0  0  0
    2.8013    1.4307   -0.6300 C   0  0  0  0  0  0  0  0  0  0  0  0
    2.0428    2.2916   -1.0037 O   0  0  0  0  0  0  0  0  0  0  0  0
    4.1292    1.5304   -0.8246 O   0  0  0  0  0  0  0  0  0  0  0  0
    3.5303   -0.6873    1.1377 S   0  0  0  0  0  0  0  0  0  0  0  0
    0.2302    0.7742   -0.0215 H   0  0  0  0  0  0  0  0  0  0  0  0
    1.0082    1.0318    1.5429 H   0  0  0  0  0  0  0  0  0  0  0  0
    0.5298   -0.6118    1.0619 H   0  0  0  0  0  0  0  0  0  0  0  0
    2.1837   -0.5988   -0.7837 H   0  0  0  0  0  0  0  0  0  0  0  0
    4.5695    0.7732   -0.3864 H   0  0  0  0  0  0  0  0  0  0  0  0
    3.4775    0.2241    2.1341 H   0  0  0  0  0  0  0  0  0  0  0  0
  1  9  1  0  0  0  0
  1  8  1  0  0  0  0
  2 10  1  6  0  0  0
  2  1  1  0  0  0  0
  2  6  1  0  0  0  0
  3  2  1  0  0  0  0
  4  3  2  0  0  0  0
  5  3  1  0  0  0  0
  5 11  1  0  0  0  0
  6 12  1  0  0  0  0
  7  1  1  0  0  0  0
M  END
>  <HBA>
3

>  <HBD>
2

>  <TPSA>
76.1

>  <cid>
62326

>  <dipole>
3.0

>  <excitation_energy_1>
5.312

>  <excitation_energy_2>
5.537

>  <excitation_energy_3>
6.187

>  <excitation_energy_4>
6.57

>  <homo_energy>
-7.121

>  <homo_lumo_gap>
6.904

>  <logP>
0.389

>  <lumo_energy>
-0.218

>  <melting_point>
72.85

>  <molecular_refractivity>
26.24

>  <oscillator_strength_1>
0.0038

>  <oscillator_strength_2>
0.0019

>  <oscillator_strength_3>
0.0255

>  <oscillator_strength_4>
0.0006

>  <open_babel_can_smiles>
C[C@@H](C(=O)O)S

>  <mulliken_charges>
12
1   -0.432551
2   -0.368842
3   0.613157
4   -0.437522
5   -0.563225
6   -0.093225
7   0.191876
8   0.160798
9   0.165509
10   0.213415
11   0.426876
12   0.123734

>  <lowdin_charges>
12
1   -0.441132
2   -0.261232
3   0.184763
4   -0.23898
5   -0.350461
6   -0.066432
7   0.178157
8   0.159651
9   0.163363
10   0.188997
11   0.356517
12   0.126789

$$$$

