PCCDB-ID:  57482
public computational chemistry database (PCCDB) project, http://pccdb.org

 28 27  0  0  1  0  0  0  0  0999 V2000
    3.6005    5.0632    3.2763 C   0  0  0  0  0  0  0  0  0  0  0  0
    7.4951    2.4223   -1.5232 C   0  0  0  0  0  0  0  0  0  0  0  0
    7.5450    4.9511    1.3128 C   0  0  0  0  0  0  0  0  0  0  0  0
    7.7003    1.0235    1.6630 C   0  0  0  0  0  0  0  0  0  0  0  0
    3.2441    4.0427    2.1903 C   0  0  0  0  0  0  0  0  0  0  0  0
    7.3432    2.4204   -0.3261 C   0  0  0  0  0  0  0  0  0  0  0  0
    7.9766    3.5612    1.7856 C   0  0  0  0  0  0  0  0  0  0  0  0
    3.7075    2.6067    2.5162 C   0  0  0  0  0  0  0  0  0  0  0  0
    5.2185    2.4813    2.5983 C   0  0  0  0  0  0  0  0  0  0  0  0
    7.2064    2.3844    1.1391 C   0  0  2  0  0  0  0  0  0  0  0  0
    5.8484    2.3884    3.6314 O   0  0  0  0  0  0  0  0  0  0  0  0
    5.7538    2.5117    1.3539 O   0  0  0  0  0  0  0  0  0  0  0  0
    3.2329    6.0604    3.0104 H   0  0  0  0  0  0  0  0  0  0  0  0
    4.6836    5.1339    3.4271 H   0  0  0  0  0  0  0  0  0  0  0  0
    3.1549    4.7859    4.2391 H   0  0  0  0  0  0  0  0  0  0  0  0
    7.6272    2.4224   -2.5815 H   0  0  0  0  0  0  0  0  0  0  0  0
    8.1529    5.7204    1.8011 H   0  0  0  0  0  0  0  0  0  0  0  0
    6.4963    5.1523    1.5552 H   0  0  0  0  0  0  0  0  0  0  0  0
    7.6656    5.0590    0.2299 H   0  0  0  0  0  0  0  0  0  0  0  0
    8.7489    0.8849    1.3827 H   0  0  0  0  0  0  0  0  0  0  0  0
    7.1157    0.2153    1.2139 H   0  0  0  0  0  0  0  0  0  0  0  0
    7.6075    0.9792    2.7491 H   0  0  0  0  0  0  0  0  0  0  0  0
    3.6755    4.3454    1.2285 H   0  0  0  0  0  0  0  0  0  0  0  0
    2.1560    4.0214    2.0508 H   0  0  0  0  0  0  0  0  0  0  0  0
    7.8657    3.4722    2.8689 H   0  0  0  0  0  0  0  0  0  0  0  0
    9.0370    3.4039    1.5521 H   0  0  0  0  0  0  0  0  0  0  0  0
    3.3418    1.9219    1.7432 H   0  0  0  0  0  0  0  0  0  0  0  0
    3.3064    2.2896    3.4837 H   0  0  0  0  0  0  0  0  0  0  0  0
  1 14  1  0  0  0  0
  1 15  1  0  0  0  0
  2  6  3  0  0  0  0
  3 18  1  0  0  0  0
  3  7  1  0  0  0  0
  3 17  1  0  0  0  0
  4 22  1  0  0  0  0
  5  8  1  0  0  0  0
  5  1  1  0  0  0  0
  7 25  1  0  0  0  0
  8  9  1  0  0  0  0
  8 28  1  0  0  0  0
  9 11  2  0  0  0  0
 10  6  1  6  0  0  0
 10 12  1  0  0  0  0
 10  4  1  0  0  0  0
 10  7  1  0  0  0  0
 12  9  1  0  0  0  0
 13  1  1  0  0  0  0
 16  2  1  0  0  0  0
 19  3  1  0  0  0  0
 20  4  1  0  0  0  0
 21  4  1  0  0  0  0
 23  5  1  0  0  0  0
 24  5  1  0  0  0  0
 26  7  1  0  0  0  0
 27  8  1  0  0  0  0
M  END
>  <HBA>
2

>  <HBD>
0

>  <TPSA>
26.3

>  <cid>
57482

>  <dipole>
1.49

>  <excitation_energy_1>
5.517

>  <excitation_energy_2>
6.299

>  <excitation_energy_3>
6.575

>  <excitation_energy_4>
6.763

>  <homo_energy>
-7.102

>  <homo_lumo_gap>
7.323

>  <logP>
2.132

>  <lumo_energy>
0.22

>  <melting_point>
11.59

>  <molecular_refractivity>
49.67

>  <oscillator_strength_1>
0.0021

>  <oscillator_strength_2>
0.0002

>  <oscillator_strength_3>
0.0129

>  <oscillator_strength_4>
0.0016

>  <open_babel_can_smiles>
CCCC(=O)O[C@@](C#C)(CC)C

>  <mulliken_charges>
28
1   -0.449363
2   -0.538059
3   -0.460469
4   -0.469072
5   -0.267428
6   0.369198
7   -0.277688
8   -0.326473
9   0.629984
10   0.20074
11   -0.48401
12   -0.498778
13   0.146205
14   0.16053
15   0.148936
16   0.196408
17   0.146897
18   0.155327
19   0.158765
20   0.157118
21   0.160471
22   0.189297
23   0.158147
24   0.143378
25   0.179641
26   0.144516
27   0.162562
28   0.163221

>  <lowdin_charges>
28
1   -0.446198
2   -0.240215
3   -0.44714
4   -0.444906
5   -0.265247
6   -0.035554
7   -0.277722
8   -0.297055
9   0.203499
10   0.153354
11   -0.271151
12   -0.194881
13   0.151731
14   0.151599
15   0.150908
16   0.205988
17   0.155228
18   0.150365
19   0.155231
20   0.161579
21   0.163031
22   0.172257
23   0.151096
24   0.145817
25   0.165493
26   0.152576
27   0.167172
28   0.163146

$$$$

