PCCDB-ID:  18098
public computational chemistry database (PCCDB) project, http://pccdb.org

 17 17  0  0  0  0  0  0  0  0999 V2000
    2.6761    1.8950    1.8123 C   0  0  0  0  0  0  0  0  0  0  0  0
    3.3276    0.8915    1.2269 C   0  0  0  0  0  0  0  0  0  0  0  0
    7.3385    1.3813   -0.8219 C   0  0  0  0  0  0  0  0  0  0  0  0
    7.3021    0.0504   -0.7065 C   0  0  0  0  0  0  0  0  0  0  0  0
    3.6789    0.8596   -0.2391 C   0  0  0  0  0  0  0  0  0  0  0  0
    5.9408    1.9172   -0.6742 C   0  0  0  0  0  0  0  0  0  0  0  0
    5.8787   -0.3733   -0.4712 C   0  0  0  0  0  0  0  0  0  0  0  0
    5.1215    0.8006   -0.4736 N   0  0  0  0  0  0  0  0  0  0  0  0
    5.5695    3.0709   -0.7306 O   0  0  0  0  0  0  0  0  0  0  0  0
    5.4441   -1.4961   -0.3110 O   0  0  0  0  0  0  0  0  0  0  0  0
    2.4274    1.8747    2.8698 H   0  0  0  0  0  0  0  0  0  0  0  0
    2.3669    2.7771    1.2555 H   0  0  0  0  0  0  0  0  0  0  0  0
    3.6340    0.0197    1.8038 H   0  0  0  0  0  0  0  0  0  0  0  0
    8.1834    2.0348   -0.9974 H   0  0  0  0  0  0  0  0  0  0  0  0
    8.1094   -0.6686   -0.7624 H   0  0  0  0  0  0  0  0  0  0  0  0
    3.3089    1.7544   -0.7460 H   0  0  0  0  0  0  0  0  0  0  0  0
    3.2464   -0.0250   -0.7190 H   0  0  0  0  0  0  0  0  0  0  0  0
  1 11  1  0  0  0  0
  2 13  1  0  0  0  0
  2  1  2  0  0  0  0
  3  4  2  0  0  0  0
  3  6  1  0  0  0  0
  4  7  1  0  0  0  0
  5  2  1  0  0  0  0
  6  8  1  0  0  0  0
  7 10  2  0  0  0  0
  8  7  1  0  0  0  0
  8  5  1  0  0  0  0
  9  6  2  0  0  0  0
 12  1  1  0  0  0  0
 14  3  1  0  0  0  0
 15  4  1  0  0  0  0
 16  5  1  0  0  0  0
 17  5  1  0  0  0  0
M  END
>  <HBA>
3

>  <HBD>
0

>  <TPSA>
37.38

>  <cid>
18098

>  <dipole>
1.11

>  <excitation_energy_1>
3.447

>  <excitation_energy_2>
3.827

>  <excitation_energy_3>
3.991

>  <excitation_energy_4>
4.342

>  <homo_energy>
-7.268

>  <homo_lumo_gap>
4.65

>  <logP>
0.035

>  <lumo_energy>
-2.618

>  <melting_point>
29.96

>  <molecular_refractivity>
39.91

>  <oscillator_strength_1>
0.0

>  <oscillator_strength_2>
0.0014

>  <oscillator_strength_3>
0.0054

>  <oscillator_strength_4>
0.0008

>  <open_babel_can_smiles>
C=CCN1C(=O)C=CC1=O

>  <mulliken_charges>
17
1   -0.32706
2   -0.048816
3   -0.164608
4   -0.162187
5   -0.201586
6   0.596378
7   0.590378
8   -0.499249
9   -0.469807
10   -0.476777
11   0.148552
12   0.150762
13   0.149349
14   0.17576
15   0.175634
16   0.180279
17   0.182998

>  <lowdin_charges>
17
1   -0.318579
2   -0.158311
3   -0.154048
4   -0.155536
5   -0.188459
6   0.168771
7   0.167054
8   -0.093413
9   -0.23238
10   -0.238536
11   0.161904
12   0.162228
13   0.161695
14   0.186118
15   0.186089
16   0.172641
17   0.172762

$$$$

