PCCDB-ID:  31576
public computational chemistry database (PCCDB) project, http://pccdb.org

 26 27  0  0  1  0  0  0  0  0999 V2000
    1.1691   -0.9652   -1.0912 C   0  0  0  0  0  0  0  0  0  0  0  0
    4.3047    0.8453   -0.4848 C   0  0  0  0  0  0  0  0  0  0  0  0
    5.1091   -3.0940   -5.2776 C   0  0  0  0  0  0  0  0  0  0  0  0
    4.9999   -3.5322   -3.9425 C   0  0  0  0  0  0  0  0  0  0  0  0
    4.5416   -1.8931   -5.6826 C   0  0  0  0  0  0  0  0  0  0  0  0
    4.3239   -2.7804   -2.9876 C   0  0  0  0  0  0  0  0  0  0  0  0
    3.1630    0.1494   -4.8036 C   0  0  0  0  0  0  0  0  0  0  0  0
    2.6859    0.4092   -3.5481 C   0  0  0  0  0  0  0  0  0  0  0  0
    2.6550   -0.6747   -1.2721 C   0  0  1  0  0  0  0  0  0  0  0  0
    3.8536   -1.1082   -4.7415 C   0  0  0  0  0  0  0  0  0  0  0  0
    3.7592   -1.5646   -3.3951 C   0  0  0  0  0  0  0  0  0  0  0  0
    3.0430   -0.6136   -2.6805 N   0  0  0  0  0  0  0  0  0  0  0  0
    2.9219    0.5445   -0.6190 O   0  0  0  0  0  0  0  0  0  0  0  0
    0.9057   -1.9043   -1.5865 H   0  0  0  0  0  0  0  0  0  0  0  0
    0.5700   -0.1589   -1.5251 H   0  0  0  0  0  0  0  0  0  0  0  0
    0.9314   -1.0410   -0.0261 H   0  0  0  0  0  0  0  0  0  0  0  0
    4.8303    0.0573    0.0753 H   0  0  0  0  0  0  0  0  0  0  0  0
    4.3652    1.7821    0.0738 H   0  0  0  0  0  0  0  0  0  0  0  0
    4.7905    0.9720   -1.4603 H   0  0  0  0  0  0  0  0  0  0  0  0
    5.6420   -3.7088   -5.9978 H   0  0  0  0  0  0  0  0  0  0  0  0
    5.4488   -4.4782   -3.6521 H   0  0  0  0  0  0  0  0  0  0  0  0
    4.6247   -1.5623   -6.7148 H   0  0  0  0  0  0  0  0  0  0  0  0
    4.2407   -3.1378   -1.9653 H   0  0  0  0  0  0  0  0  0  0  0  0
    3.0449    0.7831   -5.6720 H   0  0  0  0  0  0  0  0  0  0  0  0
    2.1345    1.2591   -3.1720 H   0  0  0  0  0  0  0  0  0  0  0  0
    3.2560   -1.4806   -0.8271 H   0  0  0  0  0  0  0  0  0  0  0  0
  1 16  1  0  0  0  0
  2 18  1  0  0  0  0
  2 17  1  0  0  0  0
  3  4  1  0  0  0  0
  4 21  1  0  0  0  0
  4  6  2  0  0  0  0
  5  3  2  0  0  0  0
  5 10  1  0  0  0  0
  6 23  1  0  0  0  0
  7 10  1  0  0  0  0
  7  8  2  0  0  0  0
  8 25  1  0  0  0  0
  8 12  1  0  0  0  0
  9  1  1  0  0  0  0
  9 26  1  1  0  0  0
  9 13  1  0  0  0  0
 10 11  2  0  0  0  0
 11  6  1  0  0  0  0
 11 12  1  0  0  0  0
 12  9  1  0  0  0  0
 13  2  1  0  0  0  0
 14  1  1  0  0  0  0
 15  1  1  0  0  0  0
 19  2  1  0  0  0  0
 20  3  1  0  0  0  0
 22  5  1  0  0  0  0
 24  7  1  0  0  0  0
M  END
>  <HBA>
2

>  <HBD>
0

>  <TPSA>
14.16

>  <cid>
31576

>  <dipole>
1.49

>  <excitation_energy_1>
4.625

>  <excitation_energy_2>
4.827

>  <excitation_energy_3>
5.038

>  <excitation_energy_4>
5.387

>  <homo_energy>
-5.382

>  <homo_lumo_gap>
5.282

>  <logP>
2.806

>  <lumo_energy>
-0.101

>  <melting_point>
40.54

>  <molecular_refractivity>
53.9

>  <oscillator_strength_1>
0.0799

>  <oscillator_strength_2>
0.0302

>  <oscillator_strength_3>
0.0069

>  <oscillator_strength_4>
0.0037

>  <open_babel_can_smiles>
CO[C@H](n1ccc2c1cccc2)C

>  <mulliken_charges>
26
1   -0.445916
2   -0.211301
3   -0.136771
4   -0.154097
5   -0.208817
6   -0.162819
7   -0.23479
8   0.030645
9   0.246396
10   0.106382
11   0.302827
12   -0.522545
13   -0.463006
14   0.16069
15   0.163433
16   0.161384
17   0.135668
18   0.16354
19   0.161713
20   0.119147
21   0.12095
22   0.123577
23   0.124697
24   0.128521
25   0.159567
26   0.130925

>  <lowdin_charges>
26
1   -0.448936
2   -0.285031
3   -0.178403
4   -0.165872
5   -0.160297
6   -0.192297
7   -0.223196
8   -0.125677
9   0.063543
10   -0.02649
11   0.022653
12   -0.041657
13   -0.262
14   0.162958
15   0.163645
16   0.16119
17   0.137746
18   0.159016
19   0.148308
20   0.155475
21   0.154469
22   0.154706
23   0.152896
24   0.163553
25   0.170593
26   0.139106

$$$$

