PCCDB-ID:  21843
public computational chemistry database (PCCDB) project, http://pccdb.org

 12 12  0  0  0  0  0  0  0  0999 V2000
    2.2343   -0.9224   -0.1557 C   0  0  0  0  0  0  0  0  0  0  0  0
    2.4088    0.2537    0.4429 C   0  0  0  0  0  0  0  0  0  0  0  0
    3.0091    2.6114    0.1576 C   0  0  0  0  0  0  0  0  0  0  0  0
    4.0224    1.9948    1.0465 C   0  0  0  0  0  0  0  0  0  0  0  0
    3.3763    1.1942   -0.0088 N   0  0  0  0  0  0  0  0  0  0  0  0
    1.4913   -1.6272    0.2040 H   0  0  0  0  0  0  0  0  0  0  0  0
    2.8316   -1.2029   -1.0178 H   0  0  0  0  0  0  0  0  0  0  0  0
    1.8031    0.5352    1.3141 H   0  0  0  0  0  0  0  0  0  0  0  0
    3.3084    3.2604   -0.6620 H   0  0  0  0  0  0  0  0  0  0  0  0
    2.0317    2.8365    0.5850 H   0  0  0  0  0  0  0  0  0  0  0  0
    3.7360    1.7991    2.0800 H   0  0  0  0  0  0  0  0  0  0  0  0
    5.0831    2.1803    0.8946 H   0  0  0  0  0  0  0  0  0  0  0  0
  1  6  1  0  0  0  0
  1  2  2  0  0  0  0
  2  8  1  0  0  0  0
  3 10  1  0  0  0  0
  3  4  1  0  0  0  0
  4 11  1  0  0  0  0
  5  3  1  0  0  0  0
  5  2  1  0  0  0  0
  5  4  1  0  0  0  0
  7  1  1  0  0  0  0
  9  3  1  0  0  0  0
 12  4  1  0  0  0  0
M  END
>  <HBA>
1

>  <HBD>
0

>  <TPSA>
3.01

>  <cid>
21843

>  <dipole>
1.46

>  <excitation_energy_1>
5.723

>  <excitation_energy_2>
6.358

>  <excitation_energy_3>
6.394

>  <excitation_energy_4>
6.72

>  <homo_energy>
-6.591

>  <homo_lumo_gap>
7.26

>  <logP>
0.383

>  <lumo_energy>
0.669

>  <melting_point>
-34.54

>  <molecular_refractivity>
25.57

>  <oscillator_strength_1>
0.0002

>  <oscillator_strength_2>
0.047

>  <oscillator_strength_3>
0.0341

>  <oscillator_strength_4>
0.0436

>  <open_babel_can_smiles>
C=CN1CC1

>  <mulliken_charges>
12
1   -0.340301
2   0.076722
3   -0.193468
4   -0.19371
5   -0.378832
6   0.138192
7   0.150367
8   0.109775
9   0.164493
10   0.151047
11   0.151161
12   0.164555

>  <lowdin_charges>
12
1   -0.348375
2   -0.094835
3   -0.234924
4   -0.233278
5   -0.175422
6   0.162358
7   0.16748
8   0.130935
9   0.16412
10   0.150461
11   0.149817
12   0.161663

$$$$

