PCCDB-ID:  33000
public computational chemistry database (PCCDB) project, http://pccdb.org

 23 22  0  0  0  0  0  0  0  0999 V2000
    3.0039    0.8264    4.4615 C   0  0  0  0  0  0  0  0  0  0  0  0
    3.7818    0.5096    3.1805 C   0  0  0  0  0  0  0  0  0  0  0  0
    3.2129   -0.6917    2.4149 C   0  0  0  0  0  0  0  0  0  0  0  0
    3.9767   -1.0305    1.1178 C   0  0  0  0  0  0  0  0  0  0  0  0
    5.3789   -1.5241    1.3520 C   0  0  0  0  0  0  0  0  0  0  0  0
    6.4894   -0.9633    0.8671 C   0  0  0  0  0  0  0  0  0  0  0  0
    7.8789   -1.4771    1.1105 C   0  0  0  0  0  0  0  0  0  0  0  0
    8.7116   -1.6551   -0.1460 C   0  0  0  0  0  0  0  0  0  0  0  0
    8.3598   -1.3530   -1.2638 O   0  0  0  0  0  0  0  0  0  0  0  0
    3.4298    1.6901    4.9849 H   0  0  0  0  0  0  0  0  0  0  0  0
    3.0189   -0.0236    5.1551 H   0  0  0  0  0  0  0  0  0  0  0  0
    1.9533    1.0545    4.2429 H   0  0  0  0  0  0  0  0  0  0  0  0
    4.8352    0.3198    3.4249 H   0  0  0  0  0  0  0  0  0  0  0  0
    3.7777    1.3899    2.5216 H   0  0  0  0  0  0  0  0  0  0  0  0
    2.1615   -0.4955    2.1627 H   0  0  0  0  0  0  0  0  0  0  0  0
    3.2082   -1.5739    3.0725 H   0  0  0  0  0  0  0  0  0  0  0  0
    3.9998   -0.1507    0.4611 H   0  0  0  0  0  0  0  0  0  0  0  0
    3.4133   -1.8069    0.5787 H   0  0  0  0  0  0  0  0  0  0  0  0
    5.4674   -2.4201    1.9724 H   0  0  0  0  0  0  0  0  0  0  0  0
    6.4140   -0.0790    0.2358 H   0  0  0  0  0  0  0  0  0  0  0  0
    7.8708   -2.4348    1.6515 H   0  0  0  0  0  0  0  0  0  0  0  0
    8.4572   -0.7911    1.7556 H   0  0  0  0  0  0  0  0  0  0  0  0
    9.7238   -2.0859    0.0338 H   0  0  0  0  0  0  0  0  0  0  0  0
  1 10  1  0  0  0  0
  1 11  1  0  0  0  0
  2 13  1  0  0  0  0
  2  1  1  0  0  0  0
  3 16  1  0  0  0  0
  3  2  1  0  0  0  0
  4  5  1  0  0  0  0
  4  3  1  0  0  0  0
  5 19  1  0  0  0  0
  6  7  1  0  0  0  0
  6  5  2  0  0  0  0
  7 21  1  0  0  0  0
  7 22  1  0  0  0  0
  8 23  1  0  0  0  0
  8  7  1  0  0  0  0
  9  8  2  0  0  0  0
 12  1  1  0  0  0  0
 14  2  1  0  0  0  0
 15  3  1  0  0  0  0
 17  4  1  0  0  0  0
 18  4  1  0  0  0  0
 20  6  1  0  0  0  0
M  END
>  <HBA>
1

>  <HBD>
0

>  <TPSA>
17.07

>  <cid>
33000

>  <dipole>
2.5

>  <excitation_energy_1>
4.309

>  <excitation_energy_2>
5.177

>  <excitation_energy_3>
6.077

>  <excitation_energy_4>
6.326

>  <homo_energy>
-6.585

>  <homo_lumo_gap>
6.052

>  <logP>
2.322

>  <lumo_energy>
-0.533

>  <melting_point>
13.62

>  <molecular_refractivity>
40.3

>  <oscillator_strength_1>
0.0009

>  <oscillator_strength_2>
0.0095

>  <oscillator_strength_3>
0.0821

>  <oscillator_strength_4>
0.0441

>  <open_babel_can_smiles>
CCCC/C=C/CC=O

>  <mulliken_charges>
23
1   -0.441363
2   -0.242947
3   -0.25267
4   -0.303375
5   -0.09105
6   -0.07209
7   -0.404817
8   0.255025
9   -0.374853
10   0.141917
11   0.140289
12   0.141302
13   0.137292
14   0.129372
15   0.130877
16   0.127341
17   0.139864
18   0.14374
19   0.114637
20   0.138819
21   0.167165
22   0.172393
23   0.103133

>  <lowdin_charges>
23
1   -0.443999
2   -0.273596
3   -0.272897
4   -0.272787
5   -0.157372
6   -0.166576
7   -0.310475
8   0.056647
9   -0.214654
10   0.150057
11   0.146141
12   0.144649
13   0.141517
14   0.139152
15   0.140052
16   0.137908
17   0.14744
18   0.153163
19   0.1435
20   0.158738
21   0.167271
22   0.172314
23   0.113806

$$$$

