PCCDB-ID:  55672
public computational chemistry database (PCCDB) project, http://pccdb.org

 18 17  0  0  0  0  0  0  0  0999 V2000
    0.5273   -0.0921    0.0786 C   0  0  0  0  0  0  0  0  0  0  0  0
    2.0544   -0.0746    0.2213 C   0  0  0  0  0  0  0  0  0  0  0  0
    2.5416    1.2089    0.8990 C   0  0  0  0  0  0  0  0  0  0  0  0
    4.7667    0.1439    2.3351 C   0  0  0  0  0  0  0  0  0  0  0  0
    4.9416   -1.3029    1.8487 C   0  0  0  0  0  0  0  0  0  0  0  0
    4.8786   -2.2341    2.6130 O   0  0  0  0  0  0  0  0  0  0  0  0
    5.2120   -1.4691    0.5404 O   0  0  0  0  0  0  0  0  0  0  0  0
    4.3660    1.4077    1.0686 S   0  0  0  0  0  0  0  0  0  0  0  0
    0.1942   -1.0129   -0.4117 H   0  0  0  0  0  0  0  0  0  0  0  0
    0.1727    0.7544   -0.5217 H   0  0  0  0  0  0  0  0  0  0  0  0
    0.0340   -0.0384    1.0565 H   0  0  0  0  0  0  0  0  0  0  0  0
    2.5231   -0.1617   -0.7666 H   0  0  0  0  0  0  0  0  0  0  0  0
    2.3754   -0.9505    0.7970 H   0  0  0  0  0  0  0  0  0  0  0  0
    2.1017    1.3208    1.8971 H   0  0  0  0  0  0  0  0  0  0  0  0
    2.2389    2.0866    0.3164 H   0  0  0  0  0  0  0  0  0  0  0  0
    5.7191    0.4579    2.7775 H   0  0  0  0  0  0  0  0  0  0  0  0
    4.0247    0.1484    3.1375 H   0  0  0  0  0  0  0  0  0  0  0  0
    5.1656   -0.5924    0.1023 H   0  0  0  0  0  0  0  0  0  0  0  0
  1  2  1  0  0  0  0
  1 11  1  0  0  0  0
  2 13  1  0  0  0  0
  2  3  1  0  0  0  0
  3  8  1  0  0  0  0
  3 14  1  0  0  0  0
  4 16  1  0  0  0  0
  4 17  1  0  0  0  0
  5  4  1  0  0  0  0
  5  6  2  0  0  0  0
  7  5  1  0  0  0  0
  8  4  1  0  0  0  0
  9  1  1  0  0  0  0
 10  1  1  0  0  0  0
 12  2  1  0  0  0  0
 15  3  1  0  0  0  0
 18  7  1  0  0  0  0
M  END
>  <HBA>
3

>  <HBD>
1

>  <TPSA>
62.6

>  <cid>
55672

>  <dipole>
3.77

>  <excitation_energy_1>
5.34

>  <excitation_energy_2>
5.637

>  <excitation_energy_3>
6.029

>  <excitation_energy_4>
6.238

>  <homo_energy>
-6.724

>  <homo_lumo_gap>
6.825

>  <logP>
1.214

>  <lumo_energy>
0.101

>  <melting_point>
60.23

>  <molecular_refractivity>
35.51

>  <oscillator_strength_1>
0.0016

>  <oscillator_strength_2>
0.0005

>  <oscillator_strength_3>
0.0125

>  <oscillator_strength_4>
0.0034

>  <open_babel_can_smiles>
CCCSCC(=O)O

>  <mulliken_charges>
18
1   -0.447051
2   -0.260356
3   -0.410799
4   -0.527248
5   0.593732
6   -0.439675
7   -0.56196
8   0.068566
9   0.159939
10   0.147827
11   0.149768
12   0.151684
13   0.163687
14   0.177056
15   0.182149
16   0.219733
17   0.209117
18   0.423832

>  <lowdin_charges>
18
1   -0.444737
2   -0.28233
3   -0.37237
4   -0.426868
5   0.183098
6   -0.245299
7   -0.352595
8   0.105869
9   0.159787
10   0.150379
11   0.150602
12   0.150171
13   0.155001
14   0.160072
15   0.171264
16   0.198212
17   0.187462
18   0.352283

$$$$

