PCCDB-ID:  70717
public computational chemistry database (PCCDB) project, http://pccdb.org

 15 15  0  0  0  0  0  0  0  0999 V2000
    1.1421   -0.0749    0.2739 C   0  0  0  0  0  0  0  0  0  0  0  0
    4.6748   -0.9300   -0.7198 C   0  0  0  0  0  0  0  0  0  0  0  0
    4.7293    0.6046   -0.6480 C   0  0  0  0  0  0  0  0  0  0  0  0
    3.2380   -1.2989   -0.3569 C   0  0  0  0  0  0  0  0  0  0  0  0
    3.3210    1.0358   -0.2448 C   0  0  0  0  0  0  0  0  0  0  0  0
    2.5455   -0.1140   -0.1049 N   0  0  0  0  0  0  0  0  0  0  0  0
    2.7561   -2.4098   -0.2871 O   0  0  0  0  0  0  0  0  0  0  0  0
    2.9128    2.1639   -0.0650 O   0  0  0  0  0  0  0  0  0  0  0  0
    0.8553   -1.0758    0.5990 H   0  0  0  0  0  0  0  0  0  0  0  0
    0.5211    0.2250   -0.5763 H   0  0  0  0  0  0  0  0  0  0  0  0
    1.0069    0.6497    1.0797 H   0  0  0  0  0  0  0  0  0  0  0  0
    5.3524   -1.4240   -0.0166 H   0  0  0  0  0  0  0  0  0  0  0  0
    4.8995   -1.3301   -1.7134 H   0  0  0  0  0  0  0  0  0  0  0  0
    4.9829    1.0779   -1.6017 H   0  0  0  0  0  0  0  0  0  0  0  0
    5.4395    0.9820    0.0942 H   0  0  0  0  0  0  0  0  0  0  0  0
  1  9  1  0  0  0  0
  1 11  1  0  0  0  0
  2  3  1  0  0  0  0
  2  4  1  0  0  0  0
  2 12  1  0  0  0  0
  3  5  1  0  0  0  0
  3 15  1  0  0  0  0
  4  7  2  0  0  0  0
  4  6  1  0  0  0  0
  5  6  1  0  0  0  0
  5  8  2  0  0  0  0
  6  1  1  0  0  0  0
 10  1  1  0  0  0  0
 13  2  1  0  0  0  0
 14  3  1  0  0  0  0
M  END
>  <HBA>
3

>  <HBD>
0

>  <TPSA>
37.38

>  <cid>
70717

>  <dipole>
1.49

>  <excitation_energy_1>
4.98

>  <excitation_energy_2>
5.553

>  <excitation_energy_3>
6.475

>  <excitation_energy_4>
6.567

>  <homo_energy>
-7.053

>  <homo_lumo_gap>
6.531

>  <logP>
-0.297

>  <lumo_energy>
-0.522

>  <melting_point>
42.1

>  <molecular_refractivity>
31.25

>  <oscillator_strength_1>
0.0011

>  <oscillator_strength_2>
0.0005

>  <oscillator_strength_3>
0.0738

>  <oscillator_strength_4>
0.2444

>  <open_babel_can_smiles>
CN1C(=O)CCC1=O

>  <mulliken_charges>
15
1   -0.3246
2   -0.383917
3   -0.383873
4   0.591011
5   0.588806
6   -0.454899
7   -0.478291
8   -0.478643
9   0.194205
10   0.179565
11   0.18666
12   0.191264
13   0.191043
14   0.190769
15   0.190899

>  <lowdin_charges>
15
1   -0.350404
2   -0.307464
3   -0.307988
4   0.16428
5   0.162996
6   -0.077397
7   -0.261441
8   -0.260405
9   0.179424
10   0.166995
11   0.1742
12   0.180241
13   0.178412
14   0.178722
15   0.179829

$$$$

