PCCDB-ID:  47292
public computational chemistry database (PCCDB) project, http://pccdb.org

 32 34  0  0  1  0  0  0  0  0999 V2000
    2.4916    1.0694    0.2192 C   0  0  0  0  0  0  0  0  0  0  0  0
    2.6337   -0.3187    0.1182 C   0  0  0  0  0  0  0  0  0  0  0  0
    1.2191    1.6305    0.2145 C   0  0  0  0  0  0  0  0  0  0  0  0
    1.5040   -1.1224    0.0108 C   0  0  0  0  0  0  0  0  0  0  0  0
   -1.0466   -3.6870   -1.3721 C   0  0  0  0  0  0  0  0  0  0  0  0
   -0.9835   -1.6593   -2.6450 C   0  0  0  0  0  0  0  0  0  0  0  0
   -1.0680   -4.4348   -2.5481 C   0  0  0  0  0  0  0  0  0  0  0  0
   -1.0058   -2.3913   -3.8262 C   0  0  0  0  0  0  0  0  0  0  0  0
   -1.2981    1.4439    0.1144 C   0  0  0  0  0  0  0  0  0  0  0  0
   -1.0021   -2.2906   -1.3950 C   0  0  0  0  0  0  0  0  0  0  0  0
    0.0788    0.8218    0.1079 C   0  0  0  0  0  0  0  0  0  0  0  0
   -1.0474   -3.7967   -3.7972 C   0  0  0  0  0  0  0  0  0  0  0  0
    0.2164   -0.5650    0.0032 C   0  0  0  0  0  0  0  0  0  0  0  0
   -2.4050    0.4134    0.1493 C   0  0  0  0  0  0  0  0  0  0  0  0
   -1.0022   -1.4810   -0.0975 C   0  0  1  0  0  0  0  0  0  0  0  0
   -1.0087   -4.5378   -4.9846 N   0  0  0  0  0  0  0  0  0  0  0  0
   -2.3048   -0.8437    0.0716 N   0  0  0  0  0  0  0  0  0  0  0  0
   -3.6676    0.9290    0.2737 O   0  0  0  0  0  0  0  0  0  0  0  0
    3.3680    1.7064    0.3023 H   0  0  0  0  0  0  0  0  0  0  0  0
    3.6227   -0.7691    0.1216 H   0  0  0  0  0  0  0  0  0  0  0  0
    1.1009    2.7094    0.2968 H   0  0  0  0  0  0  0  0  0  0  0  0
    1.6121   -2.2006   -0.0804 H   0  0  0  0  0  0  0  0  0  0  0  0
   -1.0749   -4.2059   -0.4163 H   0  0  0  0  0  0  0  0  0  0  0  0
   -0.9495   -0.5738   -2.6986 H   0  0  0  0  0  0  0  0  0  0  0  0
   -1.0991   -5.5213   -2.5000 H   0  0  0  0  0  0  0  0  0  0  0  0
   -0.9850   -1.8763   -4.7846 H   0  0  0  0  0  0  0  0  0  0  0  0
   -1.4415    2.0822   -0.7719 H   0  0  0  0  0  0  0  0  0  0  0  0
   -1.4078    2.1124    0.9826 H   0  0  0  0  0  0  0  0  0  0  0  0
   -0.9238   -2.2131    0.7194 H   0  0  0  0  0  0  0  0  0  0  0  0
   -1.4045   -5.4674   -4.9123 H   0  0  0  0  0  0  0  0  0  0  0  0
   -1.3722   -4.0512   -5.7953 H   0  0  0  0  0  0  0  0  0  0  0  0
   -3.6093    1.8940    0.3477 H   0  0  0  0  0  0  0  0  0  0  0  0
  1 19  1  0  0  0  0
  2 20  1  0  0  0  0
  2  1  2  0  0  0  0
  3  1  1  0  0  0  0
  3 21  1  0  0  0  0
  4  2  1  0  0  0  0
  5 23  1  0  0  0  0
  6 10  2  0  0  0  0
  7 25  1  0  0  0  0
  7  5  2  0  0  0  0
  8 12  2  0  0  0  0
  8  6  1  0  0  0  0
  9 14  1  0  0  0  0
  9 28  1  0  0  0  0
 10  5  1  0  0  0  0
 10 15  1  0  0  0  0
 11  9  1  0  0  0  0
 11  3  2  0  0  0  0
 12  7  1  0  0  0  0
 13  4  2  0  0  0  0
 13 11  1  0  0  0  0
 14 18  1  0  0  0  0
 15 13  1  0  0  0  0
 15 17  1  0  0  0  0
 15 29  1  1  0  0  0
 16 30  1  0  0  0  0
 16 12  1  0  0  0  0
 17 14  2  0  0  0  0
 18 32  1  0  0  0  0
 22  4  1  0  0  0  0
 24  6  1  0  0  0  0
 26  8  1  0  0  0  0
 27  9  1  0  0  0  0
 31 16  1  0  0  0  0
M  END
>  <HBA>
3

>  <HBD>
2

>  <TPSA>
55.12

>  <cid>
47292

>  <dipole>
2.37

>  <excitation_energy_1>
4.401

>  <excitation_energy_2>
4.548

>  <excitation_energy_3>
4.689

>  <excitation_energy_4>
4.767

>  <homo_energy>
-5.274

>  <homo_lumo_gap>
5.132

>  <logP>
2.941

>  <lumo_energy>
-0.142

>  <melting_point>
163.03

>  <molecular_refractivity>
74.88

>  <oscillator_strength_1>
0.0031

>  <oscillator_strength_2>
0.0638

>  <oscillator_strength_3>
0.0188

>  <oscillator_strength_4>
0.0272

>  <open_babel_can_smiles>
Nc1ccc(cc1)[C@@H]1N=C(O)Cc2c1cccc2

>  <mulliken_charges>
32
1   -0.129728
2   -0.130418
3   -0.188333
4   -0.183796
5   -0.202902
6   -0.17664
7   -0.171716
8   -0.171313
9   -0.470488
10   0.207895
11   0.117658
12   0.307064
13   0.127373
14   0.512987
15   -0.173413
16   -0.787303
17   -0.414545
18   -0.592886
19   0.128325
20   0.129823
21   0.118698
22   0.135446
23   0.123415
24   0.120307
25   0.114572
26   0.114406
27   0.176523
28   0.166602
29   0.151372
30   0.318336
31   0.318074
32   0.404607

>  <lowdin_charges>
32
1   -0.158338
2   -0.155423
3   -0.162457
4   -0.150168
5   -0.155208
6   -0.139921
7   -0.19834
8   -0.196878
9   -0.310777
10   -0.026577
11   -0.021585
12   0.058531
13   -0.018796
14   0.118691
15   -0.057228
16   -0.490059
17   -0.190118
18   -0.365964
19   0.158279
20   0.157861
21   0.150953
22   0.159492
23   0.154807
24   0.15279
25   0.149653
26   0.151322
27   0.167029
28   0.162815
29   0.156707
30   0.273628
31   0.274937
32   0.350341

$$$$

