PCCDB-ID:  57159
public computational chemistry database (PCCDB) project, http://pccdb.org

 42 42  0  0  0  0  0  0  0  0999 V2000
    2.4028    0.7757    3.3643 C   0  0  0  0  0  0  0  0  0  0  0  0
    8.1615    3.9500   -0.4077 C   0  0  0  0  0  0  0  0  0  0  0  0
    5.3958   -3.5515   -2.0853 C   0  0  0  0  0  0  0  0  0  0  0  0
    7.6312   -2.6433   -2.0701 C   0  0  0  0  0  0  0  0  0  0  0  0
    1.9723   -0.3015    2.3637 C   0  0  0  0  0  0  0  0  0  0  0  0
    7.2172    2.7484   -0.5114 C   0  0  0  0  0  0  0  0  0  0  0  0
    2.4889   -0.0889    0.9225 C   0  0  0  0  0  0  0  0  0  0  0  0
    7.1793    1.9103    0.7826 C   0  0  0  0  0  0  0  0  0  0  0  0
    4.5457   -1.4893    0.5063 C   0  0  0  0  0  0  0  0  0  0  0  0
    6.7540   -0.5698    0.4619 C   0  0  0  0  0  0  0  0  0  0  0  0
    6.4870   -3.0722    0.0569 C   0  0  0  0  0  0  0  0  0  0  0  0
    5.9192   -1.6903    0.3536 C   0  0  0  0  0  0  0  0  0  0  0  0
    3.9917   -0.2261    0.7525 C   0  0  0  0  0  0  0  0  0  0  0  0
    6.2588    0.7131    0.6976 C   0  0  0  0  0  0  0  0  0  0  0  0
    4.8676    0.8692    0.8436 C   0  0  0  0  0  0  0  0  0  0  0  0
    6.6499   -3.4453   -1.3562 N   0  0  0  0  0  0  0  0  0  0  0  0
    4.4267    2.1500    1.0829 O   0  0  0  0  0  0  0  0  0  0  0  0
    2.0152    0.5575    4.3655 H   0  0  0  0  0  0  0  0  0  0  0  0
    2.0160    1.7640    3.0790 H   0  0  0  0  0  0  0  0  0  0  0  0
    3.4931    0.8469    3.4389 H   0  0  0  0  0  0  0  0  0  0  0  0
    8.1705    4.5312   -1.3370 H   0  0  0  0  0  0  0  0  0  0  0  0
    9.1919    3.6317   -0.2043 H   0  0  0  0  0  0  0  0  0  0  0  0
    7.8574    4.6230    0.4034 H   0  0  0  0  0  0  0  0  0  0  0  0
    5.5904   -3.9836   -3.0740 H   0  0  0  0  0  0  0  0  0  0  0  0
    4.8750   -2.5873   -2.2335 H   0  0  0  0  0  0  0  0  0  0  0  0
    4.7154   -4.2252   -1.5508 H   0  0  0  0  0  0  0  0  0  0  0  0
    7.8097   -3.0881   -3.0563 H   0  0  0  0  0  0  0  0  0  0  0  0
    8.5802   -2.6487   -1.5210 H   0  0  0  0  0  0  0  0  0  0  0  0
    7.3314   -1.5900   -2.2230 H   0  0  0  0  0  0  0  0  0  0  0  0
    0.8754   -0.3491    2.3327 H   0  0  0  0  0  0  0  0  0  0  0  0
    2.3163   -1.2830    2.7147 H   0  0  0  0  0  0  0  0  0  0  0  0
    7.5255    2.1040   -1.3457 H   0  0  0  0  0  0  0  0  0  0  0  0
    6.2022    3.0936   -0.7407 H   0  0  0  0  0  0  0  0  0  0  0  0
    2.1338    0.8862    0.5515 H   0  0  0  0  0  0  0  0  0  0  0  0
    2.0051   -0.8275    0.2720 H   0  0  0  0  0  0  0  0  0  0  0  0
    6.8680    2.5584    1.6112 H   0  0  0  0  0  0  0  0  0  0  0  0
    8.1951    1.5634    1.0136 H   0  0  0  0  0  0  0  0  0  0  0  0
    3.8726   -2.3428    0.4370 H   0  0  0  0  0  0  0  0  0  0  0  0
    7.8314   -0.6987    0.3712 H   0  0  0  0  0  0  0  0  0  0  0  0
    5.8420   -3.8337    0.5140 H   0  0  0  0  0  0  0  0  0  0  0  0
    7.4749   -3.1659    0.5263 H   0  0  0  0  0  0  0  0  0  0  0  0
    3.4705    2.1346    1.2339 H   0  0  0  0  0  0  0  0  0  0  0  0
  1 20  1  0  0  0  0
  1 18  1  0  0  0  0
  2 22  1  0  0  0  0
  2 23  1  0  0  0  0
  3 26  1  0  0  0  0
  3 16  1  0  0  0  0
  4 28  1  0  0  0  0
  4 16  1  0  0  0  0
  5 31  1  0  0  0  0
  5  1  1  0  0  0  0
  6  2  1  0  0  0  0
  6  8  1  0  0  0  0
  7  5  1  0  0  0  0
  8 37  1  0  0  0  0
  8 36  1  0  0  0  0
  9 13  2  0  0  0  0
 10 14  1  0  0  0  0
 11 12  1  0  0  0  0
 11 40  1  0  0  0  0
 11 41  1  0  0  0  0
 12 10  2  0  0  0  0
 12  9  1  0  0  0  0
 13 15  1  0  0  0  0
 13  7  1  0  0  0  0
 14  8  1  0  0  0  0
 14 15  2  0  0  0  0
 15 17  1  0  0  0  0
 16 11  1  0  0  0  0
 17 42  1  0  0  0  0
 19  1  1  0  0  0  0
 21  2  1  0  0  0  0
 24  3  1  0  0  0  0
 25  3  1  0  0  0  0
 27  4  1  0  0  0  0
 29  4  1  0  0  0  0
 30  5  1  0  0  0  0
 32  6  1  0  0  0  0
 33  6  1  0  0  0  0
 34  7  1  0  0  0  0
 35  7  1  0  0  0  0
 38  9  1  0  0  0  0
 39 10  1  0  0  0  0
M  END
>  <HBA>
2

>  <HBD>
1

>  <TPSA>
23.47

>  <cid>
57159

>  <dipole>
1.88

>  <excitation_energy_1>
4.588

>  <excitation_energy_2>
4.834

>  <excitation_energy_3>
4.844

>  <excitation_energy_4>
5.025

>  <homo_energy>
-5.396

>  <homo_lumo_gap>
5.461

>  <logP>
3.359

>  <lumo_energy>
0.065

>  <melting_point>
56.46

>  <molecular_refractivity>
75.1

>  <oscillator_strength_1>
0.0128

>  <oscillator_strength_2>
0.0284

>  <oscillator_strength_3>
0.035

>  <oscillator_strength_4>
0.0232

>  <open_babel_can_smiles>
CCCc1cc(CN(C)C)cc(c1O)CCC

>  <mulliken_charges>
42
1   -0.463967
2   -0.441393
3   -0.298544
4   -0.299527
5   -0.233382
6   -0.246226
7   -0.384697
8   -0.326757
9   -0.267801
10   -0.267263
11   -0.238555
12   0.194509
13   0.171627
14   0.154471
15   0.199708
16   -0.346057
17   -0.661171
18   0.15179
19   0.130674
20   0.168423
21   0.141082
22   0.138472
23   0.142925
24   0.144672
25   0.129125
26   0.139512
27   0.144536
28   0.141025
29   0.130384
30   0.135598
31   0.144857
32   0.130804
33   0.151237
34   0.125716
35   0.155043
36   0.150941
37   0.130796
38   0.114247
39   0.116011
40   0.140109
41   0.141931
42   0.415119

>  <lowdin_charges>
42
1   -0.451077
2   -0.444784
3   -0.360309
4   -0.356895
5   -0.266995
6   -0.27063
7   -0.281904
8   -0.27039
9   -0.171882
10   -0.16653
11   -0.200751
12   -0.039488
13   -0.053155
14   -0.027582
15   0.082925
16   -0.179574
17   -0.386021
18   0.154885
19   0.139089
20   0.156896
21   0.149216
22   0.143397
23   0.147734
24   0.147395
25   0.125862
26   0.146473
27   0.147352
28   0.145593
29   0.12483
30   0.140724
31   0.146757
32   0.140063
33   0.14829
34   0.136107
35   0.159905
36   0.155245
37   0.143103
38   0.150792
39   0.149821
40   0.147556
41   0.146806
42   0.351152

$$$$

