PCCDB-ID:  7794
public computational chemistry database (PCCDB) project, http://pccdb.org

 29 28  0  0  1  0  0  0  0  0999 V2000
    2.1550    0.3365   -2.3715 C   0  0  0  0  0  0  0  0  0  0  0  0
    4.5985    0.3826   -3.0533 C   0  0  0  0  0  0  0  0  0  0  0  0
    6.9950   -2.0398    2.1203 C   0  0  0  0  0  0  0  0  0  0  0  0
    5.2314   -0.7508   -0.1776 C   0  0  0  0  0  0  0  0  0  0  0  0
    3.8844   -0.4066   -0.7563 C   0  0  0  0  0  0  0  0  0  0  0  0
    5.3553   -2.2522    0.1543 C   0  0  0  0  0  0  0  0  0  0  0  0
    6.8554   -4.2171    0.7698 C   0  0  0  0  0  0  0  0  0  0  0  0
    5.8281   -4.9192    1.6296 C   0  0  0  0  0  0  0  0  0  0  0  0
    3.5885    0.0684   -1.9762 C   0  0  0  0  0  0  0  0  0  0  0  0
    6.7181   -2.6692    0.7444 C   0  0  2  0  0  0  0  0  0  0  0  0
    5.0011   -5.7000    1.2095 O   0  0  0  0  0  0  0  0  0  0  0  0
    1.8731   -0.2481   -3.2586 H   0  0  0  0  0  0  0  0  0  0  0  0
    2.0076    1.3930   -2.6374 H   0  0  0  0  0  0  0  0  0  0  0  0
    1.4557    0.0890   -1.5667 H   0  0  0  0  0  0  0  0  0  0  0  0
    4.5351    1.4397   -3.3473 H   0  0  0  0  0  0  0  0  0  0  0  0
    4.3910   -0.2028   -3.9599 H   0  0  0  0  0  0  0  0  0  0  0  0
    5.6300    0.1810   -2.7552 H   0  0  0  0  0  0  0  0  0  0  0  0
    7.0545   -0.9489    2.0527 H   0  0  0  0  0  0  0  0  0  0  0  0
    7.9473   -2.3941    2.5330 H   0  0  0  0  0  0  0  0  0  0  0  0
    6.2072   -2.2793    2.8447 H   0  0  0  0  0  0  0  0  0  0  0  0
    5.3799   -0.1627    0.7397 H   0  0  0  0  0  0  0  0  0  0  0  0
    6.0429   -0.4658   -0.8575 H   0  0  0  0  0  0  0  0  0  0  0  0
    3.0478   -0.5915   -0.0794 H   0  0  0  0  0  0  0  0  0  0  0  0
    5.1736   -2.8251   -0.7646 H   0  0  0  0  0  0  0  0  0  0  0  0
    4.5514   -2.5379    0.8489 H   0  0  0  0  0  0  0  0  0  0  0  0
    6.7722   -4.6232   -0.2439 H   0  0  0  0  0  0  0  0  0  0  0  0
    7.8505   -4.4745    1.1639 H   0  0  0  0  0  0  0  0  0  0  0  0
    5.8686   -4.6810    2.7169 H   0  0  0  0  0  0  0  0  0  0  0  0
    7.5007   -2.3155    0.0570 H   0  0  0  0  0  0  0  0  0  0  0  0
  1  9  1  0  0  0  0
  1 14  1  0  0  0  0
  2 17  1  0  0  0  0
  2  9  1  0  0  0  0
  3 19  1  0  0  0  0
  3 20  1  0  0  0  0
  4  6  1  0  0  0  0
  4 21  1  0  0  0  0
  5  4  1  0  0  0  0
  5 23  1  0  0  0  0
  6 10  1  0  0  0  0
  6 25  1  0  0  0  0
  7 27  1  0  0  0  0
  7  8  1  0  0  0  0
  8 28  1  0  0  0  0
  9  5  2  0  0  0  0
 10 29  1  6  0  0  0
 10  7  1  0  0  0  0
 10  3  1  0  0  0  0
 11  8  2  0  0  0  0
 12  1  1  0  0  0  0
 13  1  1  0  0  0  0
 15  2  1  0  0  0  0
 16  2  1  0  0  0  0
 18  3  1  0  0  0  0
 22  4  1  0  0  0  0
 24  6  1  0  0  0  0
 26  7  1  0  0  0  0
M  END
>  <HBA>
1

>  <HBD>
0

>  <TPSA>
17.07

>  <cid>
7794

>  <dipole>
2.84

>  <excitation_energy_1>
4.143

>  <excitation_energy_2>
4.895

>  <excitation_energy_3>
5.707

>  <excitation_energy_4>
6.016

>  <homo_energy>
-6.237

>  <homo_lumo_gap>
5.644

>  <logP>
2.958

>  <lumo_energy>
-0.593

>  <melting_point>
15.72

>  <molecular_refractivity>
49.91

>  <oscillator_strength_1>
0.0001

>  <oscillator_strength_2>
0.0014

>  <oscillator_strength_3>
0.0086

>  <oscillator_strength_4>
0.0201

>  <open_babel_can_smiles>
O=CC[C@@H](CCC=C(C)C)C

>  <mulliken_charges>
29
1   -0.50584
2   -0.513129
3   -0.458359
4   -0.308099
5   -0.162654
6   -0.254256
7   -0.33799
8   0.257221
9   0.188896
10   -0.086646
11   -0.387258
12   0.149794
13   0.148482
14   0.151916
15   0.152204
16   0.152792
17   0.152096
18   0.155036
19   0.143258
20   0.146876
21   0.141653
22   0.135023
23   0.111773
24   0.145343
25   0.137105
26   0.161063
27   0.149994
28   0.101644
29   0.132061

>  <lowdin_charges>
29
1   -0.438866
2   -0.442204
3   -0.450678
4   -0.276313
5   -0.191943
6   -0.27741
7   -0.310493
8   0.055079
9   -0.010042
10   -0.119446
11   -0.218067
12   0.153223
13   0.1508
14   0.155457
15   0.15393
16   0.155768
17   0.15297
18   0.152856
19   0.149791
20   0.148816
21   0.14743
22   0.144569
23   0.146382
24   0.149665
25   0.143583
26   0.160482
27   0.159591
28   0.111861
29   0.14321

$$$$

