PCCDB-ID:  17096
public computational chemistry database (PCCDB) project, http://pccdb.org

 26 27  0  0  0  0  0  0  0  0999 V2000
    0.8783   -0.0174    0.0796 C   0  0  0  0  0  0  0  0  0  0  0  0
    2.3945    2.6556    0.0205 C   0  0  0  0  0  0  0  0  0  0  0  0
    2.4302   -2.4609   -0.1244 C   0  0  0  0  0  0  0  0  0  0  0  0
    6.6855    2.3457   -0.2831 C   0  0  0  0  0  0  0  0  0  0  0  0
    7.3149    1.0826   -0.3693 C   0  0  0  0  0  0  0  0  0  0  0  0
    5.3131    2.4386   -0.1830 C   0  0  0  0  0  0  0  0  0  0  0  0
    6.5559   -0.0661   -0.3531 C   0  0  0  0  0  0  0  0  0  0  0  0
    2.3822    0.0991   -0.0358 C   0  0  0  0  0  0  0  0  0  0  0  0
    3.0688    1.3045   -0.0578 C   0  0  0  0  0  0  0  0  0  0  0  0
    3.1365   -1.1249   -0.1336 C   0  0  0  0  0  0  0  0  0  0  0  0
    4.5006    1.2728   -0.1621 C   0  0  0  0  0  0  0  0  0  0  0  0
    5.1427    0.0023   -0.2477 C   0  0  0  0  0  0  0  0  0  0  0  0
    4.4484   -1.1719   -0.2356 N   0  0  0  0  0  0  0  0  0  0  0  0
    0.3842    0.9394    0.2491 H   0  0  0  0  0  0  0  0  0  0  0  0
    0.5979   -0.6781    0.9084 H   0  0  0  0  0  0  0  0  0  0  0  0
    0.4422   -0.4540   -0.8285 H   0  0  0  0  0  0  0  0  0  0  0  0
    1.3079    2.5911    0.0624 H   0  0  0  0  0  0  0  0  0  0  0  0
    2.6513    3.2687   -0.8518 H   0  0  0  0  0  0  0  0  0  0  0  0
    2.7272    3.2089    0.9075 H   0  0  0  0  0  0  0  0  0  0  0  0
    1.6955   -2.5403   -0.9357 H   0  0  0  0  0  0  0  0  0  0  0  0
    1.8842   -2.6260    0.8136 H   0  0  0  0  0  0  0  0  0  0  0  0
    3.1719   -3.2531   -0.2407 H   0  0  0  0  0  0  0  0  0  0  0  0
    7.2881    3.2500   -0.2965 H   0  0  0  0  0  0  0  0  0  0  0  0
    8.3970    1.0229   -0.4490 H   0  0  0  0  0  0  0  0  0  0  0  0
    4.8512    3.4183   -0.1192 H   0  0  0  0  0  0  0  0  0  0  0  0
    7.0042   -1.0528   -0.4179 H   0  0  0  0  0  0  0  0  0  0  0  0
  1 14  1  0  0  0  0
  1 15  1  0  0  0  0
  2 17  1  0  0  0  0
  2 19  1  0  0  0  0
  3 21  1  0  0  0  0
  4  6  2  0  0  0  0
  5  7  2  0  0  0  0
  5  4  1  0  0  0  0
  6 11  1  0  0  0  0
  6 25  1  0  0  0  0
  7 12  1  0  0  0  0
  8  1  1  0  0  0  0
  9  8  1  0  0  0  0
  9  2  1  0  0  0  0
 10  3  1  0  0  0  0
 10  8  2  0  0  0  0
 11  9  2  0  0  0  0
 12 13  2  0  0  0  0
 12 11  1  0  0  0  0
 13 10  1  0  0  0  0
 16  1  1  0  0  0  0
 18  2  1  0  0  0  0
 20  3  1  0  0  0  0
 22  3  1  0  0  0  0
 23  4  1  0  0  0  0
 24  5  1  0  0  0  0
 26  7  1  0  0  0  0
M  END
>  <HBA>
1

>  <HBD>
0

>  <TPSA>
12.89

>  <cid>
17096

>  <dipole>
2.27

>  <excitation_energy_1>
4.338

>  <excitation_energy_2>
4.387

>  <excitation_energy_3>
4.421

>  <excitation_energy_4>
5.223

>  <homo_energy>
-5.995

>  <homo_lumo_gap>
4.887

>  <logP>
3.16

>  <lumo_energy>
-1.108

>  <melting_point>
77.67

>  <molecular_refractivity>
56.64

>  <oscillator_strength_1>
0.0014

>  <oscillator_strength_2>
0.0497

>  <oscillator_strength_3>
0.0462

>  <oscillator_strength_4>
0.0001

>  <open_babel_can_smiles>
Cc1c(C)nc2c(c1C)cccc2

>  <mulliken_charges>
26
1   -0.54197
2   -0.542661
3   -0.522514
4   -0.129797
5   -0.138782
6   -0.20766
7   -0.144966
8   0.063414
9   0.107194
10   0.272192
11   0.110683
12   0.232006
13   -0.558573
14   0.158828
15   0.163377
16   0.164621
17   0.161
18   0.1694
19   0.169284
20   0.155294
21   0.156952
22   0.17804
23   0.128338
24   0.13035
25   0.126615
26   0.139331

>  <lowdin_charges>
26
1   -0.446126
2   -0.44728
3   -0.449392
4   -0.158672
5   -0.154458
6   -0.166241
7   -0.152308
8   -0.037613
9   0.010692
10   0.050849
11   -0.025834
12   0.038621
13   -0.163307
14   0.158266
15   0.162204
16   0.161832
17   0.158149
18   0.165277
19   0.165169
20   0.158701
21   0.158742
22   0.172408
23   0.158135
24   0.156792
25   0.158339
26   0.167056

$$$$

