PCCDB-ID:  9679
public computational chemistry database (PCCDB) project, http://pccdb.org

 15 15  0  0  1  0  0  0  0  0999 V2000
   -1.0877   -0.0738    0.0391 C   0  0  0  0  0  0  0  0  0  0  0  0
    0.9931   -0.6109    0.0399 C   0  0  0  0  0  0  0  0  0  0  0  0
    0.9617    0.7757    0.1098 C   0  0  0  0  0  0  0  0  0  0  0  0
    2.1739   -1.4770   -0.0476 C   0  0  1  0  0  0  0  0  0  0  0  0
    1.9706    1.7336    0.2070 N   0  0  0  0  0  0  0  0  0  0  0  0
    2.2446   -2.6555   -0.5095 N   0  0  0  0  0  0  0  0  0  0  0  0
   -0.3009   -1.1112   -0.0152 N   0  0  0  0  0  0  0  0  0  0  0  0
   -0.3722    1.1068    0.1158 N   0  0  0  0  0  0  0  0  0  0  0  0
    3.3495   -0.8781    0.3902 O   0  0  0  0  0  0  0  0  0  0  0  0
   -2.1690   -0.0854    0.0235 H   0  0  0  0  0  0  0  0  0  0  0  0
    2.8665    1.3282   -0.0510 H   0  0  0  0  0  0  0  0  0  0  0  0
    1.7983    2.5657   -0.3503 H   0  0  0  0  0  0  0  0  0  0  0  0
    1.3177   -2.9245   -0.8508 H   0  0  0  0  0  0  0  0  0  0  0  0
   -0.7510    2.0366    0.2296 H   0  0  0  0  0  0  0  0  0  0  0  0
    3.1534   -0.4176    1.2235 H   0  0  0  0  0  0  0  0  0  0  0  0
  1  8  1  0  0  0  0
  2  3  2  0  0  0  0
  3  8  1  0  0  0  0
  3  5  1  0  0  0  0
  4  6  1  6  0  0  0
  4  2  1  0  0  0  0
  4  9  1  0  0  0  0
  7  1  2  0  0  0  0
  7  2  1  0  0  0  0
  8 14  1  0  0  0  0
  9 15  1  0  0  0  0
 10  1  1  0  0  0  0
 11  5  1  0  0  0  0
 12  5  1  0  0  0  0
 13  6  1  0  0  0  0
M  RAD  2   4   2   6   2
M  END
>  <HBA>
4

>  <HBD>
3

>  <TPSA>
97.79

>  <cid>
9679

>  <dipole>
7.47

>  <excitation_energy_1>
4.438

>  <excitation_energy_2>
5.129

>  <excitation_energy_3>
5.217

>  <excitation_energy_4>
5.573

>  <homo_energy>
-5.674

>  <homo_lumo_gap>
5.725

>  <logP>
0.372

>  <lumo_energy>
0.052

>  <melting_point>
206.06

>  <molecular_refractivity>
31.09

>  <oscillator_strength_1>
0.0051

>  <oscillator_strength_2>
0.0363

>  <oscillator_strength_3>
0.2013

>  <oscillator_strength_4>
0.0613

>  <open_babel_can_smiles>
[NH][C](c1nc[nH]c1N)O

>  <mulliken_charges>
15
1   0.21804
2   0.136495
3   0.433968
4   0.43477
5   -0.798957
6   -0.58855
7   -0.485588
8   -0.612709
9   -0.618074
10   0.162845
11   0.346785
12   0.325026
13   0.304915
14   0.334725
15   0.406309

>  <lowdin_charges>
15
1   -0.086228
2   -0.101038
3   0.05565
4   0.116297
5   -0.495024
6   -0.375068
7   -0.173283
8   -0.198822
9   -0.398428
10   0.168721
11   0.289145
12   0.28005
13   0.267127
14   0.295136
15   0.355764

$$$$

