PCCDB-ID:  60968
public computational chemistry database (PCCDB) project, http://pccdb.org

 43 44  0  0  1  0  0  0  0  0999 V2000
    1.2425   -0.0348    2.7810 C   0  0  0  0  0  0  0  0  0  0  0  0
    2.8521    1.2769    1.3313 C   0  0  0  0  0  0  0  0  0  0  0  0
    7.5390   -1.7957    5.6435 C   0  0  0  0  0  0  0  0  0  0  0  0
    9.3312   -3.3947    5.0745 C   0  0  0  0  0  0  0  0  0  0  0  0
    6.8709   -3.5274    2.9542 C   0  0  0  0  0  0  0  0  0  0  0  0
   10.2274   -1.6485    2.8756 C   0  0  0  0  0  0  0  0  0  0  0  0
    9.1750   -2.6034    2.2307 C   0  0  0  0  0  0  0  0  0  0  0  0
    3.7223   -0.4315    2.9989 C   0  0  0  0  0  0  0  0  0  0  0  0
    8.4093   -0.0429    3.4095 C   0  0  0  0  0  0  0  0  0  0  0  0
    2.5837   -0.0614    2.0348 C   0  0  0  0  0  0  0  0  0  0  0  0
    9.4354   -1.0116    4.0418 C   0  0  1  0  0  0  0  0  0  0  0  0
    7.3996   -0.9967    2.7188 C   0  0  1  0  0  0  0  0  0  0  0  0
    5.0377   -0.7498    2.3101 C   0  0  0  0  0  0  0  0  0  0  0  0
    8.5371   -2.1884    4.5370 C   0  0  0  0  0  0  0  0  0  0  0  0
    7.9024   -2.4187    3.1123 C   0  0  1  0  0  0  0  0  0  0  0  0
    5.1634   -1.0331    1.1370 O   0  0  0  0  0  0  0  0  0  0  0  0
    6.0599   -0.7010    3.1985 O   0  0  0  0  0  0  0  0  0  0  0  0
    0.4204    0.2113    2.0990 H   0  0  0  0  0  0  0  0  0  0  0  0
    1.2474    0.7199    3.5786 H   0  0  0  0  0  0  0  0  0  0  0  0
    1.0169   -1.0045    3.2412 H   0  0  0  0  0  0  0  0  0  0  0  0
    2.0470    1.5138    0.6260 H   0  0  0  0  0  0  0  0  0  0  0  0
    3.7906    1.2479    0.7695 H   0  0  0  0  0  0  0  0  0  0  0  0
    2.9084    2.0983    2.0583 H   0  0  0  0  0  0  0  0  0  0  0  0
    8.0835   -1.5137    6.5537 H   0  0  0  0  0  0  0  0  0  0  0  0
    6.9008   -2.6495    5.9023 H   0  0  0  0  0  0  0  0  0  0  0  0
    6.8788   -0.9716    5.3732 H   0  0  0  0  0  0  0  0  0  0  0  0
    9.8429   -3.1220    6.0057 H   0  0  0  0  0  0  0  0  0  0  0  0
   10.0882   -3.7753    4.3848 H   0  0  0  0  0  0  0  0  0  0  0  0
    8.6551   -4.2253    5.3105 H   0  0  0  0  0  0  0  0  0  0  0  0
    6.5005   -3.5738    1.9237 H   0  0  0  0  0  0  0  0  0  0  0  0
    6.0076   -3.3707    3.6101 H   0  0  0  0  0  0  0  0  0  0  0  0
    7.3050   -4.5039    3.1984 H   0  0  0  0  0  0  0  0  0  0  0  0
   10.5923   -0.8899    2.1746 H   0  0  0  0  0  0  0  0  0  0  0  0
   11.1040   -2.1969    3.2340 H   0  0  0  0  0  0  0  0  0  0  0  0
    9.5077   -3.6462    2.2526 H   0  0  0  0  0  0  0  0  0  0  0  0
    8.9703   -2.3628    1.1815 H   0  0  0  0  0  0  0  0  0  0  0  0
    3.4506   -1.3240    3.5814 H   0  0  0  0  0  0  0  0  0  0  0  0
    3.8943    0.3630    3.7358 H   0  0  0  0  0  0  0  0  0  0  0  0
    8.8755    0.6493    2.7002 H   0  0  0  0  0  0  0  0  0  0  0  0
    7.8937    0.5604    4.1617 H   0  0  0  0  0  0  0  0  0  0  0  0
    2.5417   -0.8444    1.2670 H   0  0  0  0  0  0  0  0  0  0  0  0
   10.0646   -0.5448    4.8070 H   0  0  0  0  0  0  0  0  0  0  0  0
    7.3694   -0.8889    1.6340 H   0  0  0  0  0  0  0  0  0  0  0  0
  1 20  1  0  0  0  0
  1 19  1  0  0  0  0
  2 10  1  0  0  0  0
  2 23  1  0  0  0  0
  3 25  1  0  0  0  0
  3 24  1  0  0  0  0
  4 29  1  0  0  0  0
  4 27  1  0  0  0  0
  5 32  1  0  0  0  0
  5 31  1  0  0  0  0
  6 34  1  0  0  0  0
  6 11  1  0  0  0  0
  7 35  1  0  0  0  0
  7  6  1  0  0  0  0
  7 15  1  0  0  0  0
  8 37  1  0  0  0  0
  8 38  1  0  0  0  0
  9 11  1  0  0  0  0
  9 40  1  0  0  0  0
 10  1  1  0  0  0  0
 10  8  1  0  0  0  0
 11 14  1  0  0  0  0
 11 42  1  1  0  0  0
 12 43  1  6  0  0  0
 12 15  1  0  0  0  0
 12 17  1  0  0  0  0
 12  9  1  0  0  0  0
 13  8  1  0  0  0  0
 13 17  1  0  0  0  0
 14  4  1  0  0  0  0
 14  3  1  0  0  0  0
 15  5  1  6  0  0  0
 15 14  1  0  0  0  0
 16 13  2  0  0  0  0
 18  1  1  0  0  0  0
 21  2  1  0  0  0  0
 22  2  1  0  0  0  0
 26  3  1  0  0  0  0
 28  4  1  0  0  0  0
 30  5  1  0  0  0  0
 33  6  1  0  0  0  0
 36  7  1  0  0  0  0
 39  9  1  0  0  0  0
 41 10  1  0  0  0  0
M  END
>  <HBA>
2

>  <HBD>
0

>  <TPSA>
26.3

>  <cid>
60968

>  <dipole>
1.65

>  <excitation_energy_1>
5.788

>  <excitation_energy_2>
6.818

>  <excitation_energy_3>
6.922

>  <excitation_energy_4>
7.018

>  <homo_energy>
-7.208

>  <homo_lumo_gap>
7.636

>  <logP>
3.791

>  <lumo_energy>
0.427

>  <melting_point>
62.43

>  <molecular_refractivity>
70.76

>  <oscillator_strength_1>
0.0006

>  <oscillator_strength_2>
0.0036

>  <oscillator_strength_3>
0.0959

>  <oscillator_strength_4>
0.0045

>  <open_babel_can_smiles>
CC(CC(=O)O[C@H]1C[C@H]2C([C@]1(C)CC2)(C)C)C

>  <mulliken_charges>
43
1   -0.44686
2   -0.451988
3   -0.4735
4   -0.467028
5   -0.492276
6   -0.280591
7   -0.296777
8   -0.360554
9   -0.303856
10   -0.06158
11   -0.104228
12   0.115585
13   0.636232
14   0.094571
15   0.085259
16   -0.485668
17   -0.494338
18   0.144953
19   0.138469
20   0.139272
21   0.142164
22   0.163168
23   0.132874
24   0.134904
25   0.138758
26   0.165829
27   0.14117
28   0.14457
29   0.143232
30   0.161761
31   0.146188
32   0.142374
33   0.133185
34   0.139385
35   0.140871
36   0.141197
37   0.169109
38   0.161321
39   0.140097
40   0.156213
41   0.148609
42   0.112576
43   0.165348

>  <lowdin_charges>
43
1   -0.445157
2   -0.449543
3   -0.454347
4   -0.448269
5   -0.447336
6   -0.28875
7   -0.283304
8   -0.302159
9   -0.29321
10   -0.11825
11   -0.135941
12   -0.003153
13   0.19736
14   0.002365
15   -0.005765
16   -0.270177
17   -0.192214
18   0.151589
19   0.145613
20   0.146724
21   0.150734
22   0.158621
23   0.142617
24   0.146747
25   0.14874
26   0.159447
27   0.150143
28   0.151683
29   0.150295
30   0.159871
31   0.151357
32   0.150411
33   0.144847
34   0.146063
35   0.14584
36   0.145892
37   0.1697
38   0.163415
39   0.149482
40   0.158875
41   0.151185
42   0.141187
43   0.15677

$$$$

