PCCDB-ID:  11508
public computational chemistry database (PCCDB) project, http://pccdb.org

 21 20  0  0  1  0  0  0  0  0999 V2000
    0.6114    0.0100   -0.0013 C   0  0  0  0  0  0  0  0  0  0  0  0
    2.4218    1.6078    1.9812 C   0  0  0  0  0  0  0  0  0  0  0  0
    2.0244   -0.3881    0.4422 C   0  0  0  0  0  0  0  0  0  0  0  0
    4.3971    0.3372    1.0739 C   0  0  0  0  0  0  0  0  0  0  0  0
    5.1483   -0.2345   -0.1242 C   0  0  0  0  0  0  0  0  0  0  0  0
    2.9529    0.7959    0.7886 C   0  0  2  0  0  0  0  0  0  0  0  0
    6.4896   -0.4817    0.2915 O   0  0  0  0  0  0  0  0  0  0  0  0
    0.0382   -0.8705   -0.3137 H   0  0  0  0  0  0  0  0  0  0  0  0
    0.6444    0.7021   -0.8525 H   0  0  0  0  0  0  0  0  0  0  0  0
    0.0484    0.4979    0.8013 H   0  0  0  0  0  0  0  0  0  0  0  0
    1.4260    2.0196    1.7873 H   0  0  0  0  0  0  0  0  0  0  0  0
    3.0871    2.4483    2.2107 H   0  0  0  0  0  0  0  0  0  0  0  0
    2.3562    0.9820    2.8810 H   0  0  0  0  0  0  0  0  0  0  0  0
    2.4808   -0.9835   -0.3592 H   0  0  0  0  0  0  0  0  0  0  0  0
    1.9617   -1.0549    1.3154 H   0  0  0  0  0  0  0  0  0  0  0  0
    4.9821    1.1902    1.4421 H   0  0  0  0  0  0  0  0  0  0  0  0
    4.4002   -0.4096    1.8802 H   0  0  0  0  0  0  0  0  0  0  0  0
    5.1192    0.4874   -0.9587 H   0  0  0  0  0  0  0  0  0  0  0  0
    4.6749   -1.1630   -0.4793 H   0  0  0  0  0  0  0  0  0  0  0  0
    2.9798    1.4655   -0.0870 H   0  0  0  0  0  0  0  0  0  0  0  0
    6.9656   -0.8714   -0.4573 H   0  0  0  0  0  0  0  0  0  0  0  0
  1  3  1  0  0  0  0
  1 10  1  0  0  0  0
  2 12  1  0  0  0  0
  2 13  1  0  0  0  0
  3  6  1  0  0  0  0
  3 15  1  0  0  0  0
  4 16  1  0  0  0  0
  4 17  1  0  0  0  0
  5  7  1  0  0  0  0
  5  4  1  0  0  0  0
  6 20  1  6  0  0  0
  6  4  1  0  0  0  0
  6  2  1  0  0  0  0
  8  1  1  0  0  0  0
  9  1  1  0  0  0  0
 11  2  1  0  0  0  0
 14  3  1  0  0  0  0
 18  5  1  0  0  0  0
 19  5  1  0  0  0  0
 21  7  1  0  0  0  0
M  END
>  <HBA>
1

>  <HBD>
1

>  <TPSA>
20.23

>  <cid>
11508

>  <dipole>
1.54

>  <excitation_energy_1>
6.306

>  <excitation_energy_2>
7.177

>  <excitation_energy_3>
7.447

>  <excitation_energy_4>
7.505

>  <homo_energy>
-7.089

>  <homo_lumo_gap>
9.187

>  <logP>
1.415

>  <lumo_energy>
2.098

>  <melting_point>
-7.94

>  <molecular_refractivity>
32.12

>  <oscillator_strength_1>
0.0006

>  <oscillator_strength_2>
0.0073

>  <oscillator_strength_3>
0.0125

>  <oscillator_strength_4>
0.0133

>  <open_babel_can_smiles>
OCC[C@@H](CC)C

>  <mulliken_charges>
21
1   -0.448385
2   -0.449618
3   -0.25054
4   -0.259538
5   -0.034076
6   -0.071797
7   -0.621488
8   0.141968
9   0.140442
10   0.147444
11   0.144182
12   0.141975
13   0.139779
14   0.130874
15   0.129122
16   0.143245
17   0.138819
18   0.113995
19   0.119506
20   0.114819
21   0.38927

>  <lowdin_charges>
21
1   -0.44891
2   -0.445675
3   -0.277708
4   -0.283035
5   -0.13573
6   -0.123933
7   -0.476184
8   0.150642
9   0.146238
10   0.149291
11   0.148477
12   0.149823
13   0.146423
14   0.140544
15   0.139431
16   0.150882
17   0.146467
18   0.12217
19   0.12493
20   0.13226
21   0.343597

$$$$

