PCCDB-ID:  66012
public computational chemistry database (PCCDB) project, http://pccdb.org

 16 16  0  0  0  0  0  0  0  0999 V2000
   -0.7797    0.9299   -0.1450 C   0  0  0  0  0  0  0  0  0  0  0  0
    1.3216   -0.2956   -0.2165 C   0  0  0  0  0  0  0  0  0  0  0  0
   -1.4778   -0.2681   -0.0619 C   0  0  0  0  0  0  0  0  0  0  0  0
    0.6267   -1.4946   -0.1341 C   0  0  0  0  0  0  0  0  0  0  0  0
    2.4044    2.5844   -0.3901 C   0  0  0  0  0  0  0  0  0  0  0  0
    0.6212    0.9235   -0.2227 C   0  0  0  0  0  0  0  0  0  0  0  0
   -0.7658   -1.4667   -0.0576 C   0  0  0  0  0  0  0  0  0  0  0  0
    1.2762    2.1483   -0.3042 N   0  0  0  0  0  0  0  0  0  0  0  0
   -1.5006   -2.7346    0.0301 N   0  0  0  0  0  0  0  0  0  0  0  0
    3.4362    3.1401   -0.4739 O   0  0  0  0  0  0  0  0  0  0  0  0
   -2.7286   -2.6796    0.0971 O   0  0  0  0  0  0  0  0  0  0  0  0
   -0.8442   -3.7763    0.0313 O   0  0  0  0  0  0  0  0  0  0  0  0
   -1.3042    1.8790   -0.1510 H   0  0  0  0  0  0  0  0  0  0  0  0
    2.4056   -0.2955   -0.2773 H   0  0  0  0  0  0  0  0  0  0  0  0
   -2.5587   -0.2890   -0.0013 H   0  0  0  0  0  0  0  0  0  0  0  0
    1.1426   -2.4467   -0.1278 H   0  0  0  0  0  0  0  0  0  0  0  0
  1  3  2  0  0  0  0
  2  4  1  0  0  0  0
  3  7  1  0  0  0  0
  3 15  1  0  0  0  0
  4 16  1  0  0  0  0
  4  7  2  0  0  0  0
  5  8  2  0  0  0  0
  6  2  2  0  0  0  0
  6  1  1  0  0  0  0
  7  9  1  0  0  0  0
  8  6  1  0  0  0  0
  9 12  2  0  0  0  0
  9 11  2  0  0  0  0
 10  5  2  0  0  0  0
 13  1  1  0  0  0  0
 14  2  1  0  0  0  0
M  END
>  <HBA>
2

>  <HBD>
0

>  <TPSA>
75.25

>  <cid>
66012

>  <dipole>
2.75

>  <excitation_energy_1>
3.721

>  <excitation_energy_2>
4.15

>  <excitation_energy_3>
4.25

>  <excitation_energy_4>
4.389

>  <homo_energy>
-7.268

>  <homo_lumo_gap>
4.607

>  <logP>
2.085

>  <lumo_energy>
-2.661

>  <melting_point>
101.26

>  <molecular_refractivity>
43.05

>  <oscillator_strength_1>
0.0

>  <oscillator_strength_2>
0.3907

>  <oscillator_strength_3>
0.0003

>  <oscillator_strength_4>
0.0108

>  <open_babel_can_smiles>
O=C=Nc1ccc(cc1)N(=O)=O

>  <mulliken_charges>
16
1   -0.152664
2   -0.154299
3   -0.15583
4   -0.162548
5   0.618829
6   0.307062
7   0.282233
8   -0.502297
9   0.378331
10   -0.377191
11   -0.393872
12   -0.395011
13   0.165892
14   0.157996
15   0.191322
16   0.192046

>  <lowdin_charges>
16
1   -0.155156
2   -0.163758
3   -0.125508
4   -0.12771
5   0.199195
6   0.084202
7   -0.00271
8   -0.137353
9   0.306005
10   -0.120568
11   -0.24359
12   -0.246709
13   0.179452
14   0.171055
15   0.190463
16   0.19269

$$$$

