PCCDB-ID:  62588
public computational chemistry database (PCCDB) project, http://pccdb.org

 36 35  0  0  0  0  0  0  0  0999 V2000
    1.2768    1.6768    1.4578 C   0  0  0  0  0  0  0  0  0  0  0  0
    9.4374   -7.3106    6.1168 C   0  0  0  0  0  0  0  0  0  0  0  0
    2.7313    1.3720    1.2375 C   0  0  0  0  0  0  0  0  0  0  0  0
    3.2276    0.1804    0.8939 C   0  0  0  0  0  0  0  0  0  0  0  0
    4.6852   -0.1295    0.6848 C   0  0  0  0  0  0  0  0  0  0  0  0
    5.2245   -1.1887    1.6654 C   0  0  0  0  0  0  0  0  0  0  0  0
    6.6956   -1.5470    1.4205 C   0  0  0  0  0  0  0  0  0  0  0  0
    7.2355   -2.6086    2.3882 C   0  0  0  0  0  0  0  0  0  0  0  0
    8.7086   -2.9599    2.1350 C   0  0  0  0  0  0  0  0  0  0  0  0
    9.3162   -3.9616    3.1294 C   0  0  0  0  0  0  0  0  0  0  0  0
    8.6899   -5.3711    3.0561 C   0  0  0  0  0  0  0  0  0  0  0  0
    9.4193   -6.3289    3.9738 C   0  0  0  0  0  0  0  0  0  0  0  0
   10.4672   -6.8814    3.7154 O   0  0  0  0  0  0  0  0  0  0  0  0
    8.7799   -6.4642    5.1604 O   0  0  0  0  0  0  0  0  0  0  0  0
    1.0973    2.0537    2.4740 H   0  0  0  0  0  0  0  0  0  0  0  0
    0.6530    0.7883    1.3116 H   0  0  0  0  0  0  0  0  0  0  0  0
    0.9227    2.4562    0.7690 H   0  0  0  0  0  0  0  0  0  0  0  0
    8.7986   -7.3065    7.0007 H   0  0  0  0  0  0  0  0  0  0  0  0
   10.4301   -6.9208    6.3579 H   0  0  0  0  0  0  0  0  0  0  0  0
    9.5430   -8.3253    5.7237 H   0  0  0  0  0  0  0  0  0  0  0  0
    3.4222    2.2067    1.3744 H   0  0  0  0  0  0  0  0  0  0  0  0
    2.5379   -0.6564    0.7582 H   0  0  0  0  0  0  0  0  0  0  0  0
    5.2762    0.7918    0.7771 H   0  0  0  0  0  0  0  0  0  0  0  0
    4.8399   -0.4961   -0.3423 H   0  0  0  0  0  0  0  0  0  0  0  0
    4.6102   -2.0980    1.5897 H   0  0  0  0  0  0  0  0  0  0  0  0
    5.0986   -0.8207    2.6930 H   0  0  0  0  0  0  0  0  0  0  0  0
    7.3097   -0.6377    1.5008 H   0  0  0  0  0  0  0  0  0  0  0  0
    6.8156   -1.9034    0.3865 H   0  0  0  0  0  0  0  0  0  0  0  0
    6.6133   -3.5111    2.3099 H   0  0  0  0  0  0  0  0  0  0  0  0
    7.1223   -2.2491    3.4219 H   0  0  0  0  0  0  0  0  0  0  0  0
    9.3028   -2.0361    2.1733 H   0  0  0  0  0  0  0  0  0  0  0  0
    8.8214   -3.3510    1.1131 H   0  0  0  0  0  0  0  0  0  0  0  0
    9.2119   -3.5754    4.1525 H   0  0  0  0  0  0  0  0  0  0  0  0
   10.3917   -4.0555    2.9352 H   0  0  0  0  0  0  0  0  0  0  0  0
    8.7832   -5.7590    2.0358 H   0  0  0  0  0  0  0  0  0  0  0  0
    7.6307   -5.3408    3.3254 H   0  0  0  0  0  0  0  0  0  0  0  0
  1 15  1  0  0  0  0
  2 19  1  0  0  0  0
  2 18  1  0  0  0  0
  3 21  1  0  0  0  0
  3  1  1  0  0  0  0
  4  3  2  0  0  0  0
  5 23  1  0  0  0  0
  5  4  1  0  0  0  0
  5  6  1  0  0  0  0
  6 26  1  0  0  0  0
  7 27  1  0  0  0  0
  7  6  1  0  0  0  0
  7  8  1  0  0  0  0
  8 30  1  0  0  0  0
  9 31  1  0  0  0  0
  9  8  1  0  0  0  0
  9 10  1  0  0  0  0
 10 33  1  0  0  0  0
 11 10  1  0  0  0  0
 11 36  1  0  0  0  0
 11 12  1  0  0  0  0
 12 14  1  0  0  0  0
 13 12  2  0  0  0  0
 14  2  1  0  0  0  0
 16  1  1  0  0  0  0
 17  1  1  0  0  0  0
 20  2  1  0  0  0  0
 22  4  1  0  0  0  0
 24  5  1  0  0  0  0
 25  6  1  0  0  0  0
 28  7  1  0  0  0  0
 29  8  1  0  0  0  0
 32  9  1  0  0  0  0
 34 10  1  0  0  0  0
 35 11  1  0  0  0  0
M  END
>  <HBA>
2

>  <HBD>
0

>  <TPSA>
26.3

>  <cid>
62588

>  <dipole>
1.83

>  <excitation_energy_1>
5.744

>  <excitation_energy_2>
6.122

>  <excitation_energy_3>
6.285

>  <excitation_energy_4>
6.387

>  <homo_energy>
-6.419

>  <homo_lumo_gap>
6.827

>  <logP>
3.466

>  <lumo_energy>
0.408

>  <melting_point>
-8.32

>  <molecular_refractivity>
60.61

>  <oscillator_strength_1>
0.0019

>  <oscillator_strength_2>
0.0155

>  <oscillator_strength_3>
0.0021

>  <oscillator_strength_4>
0.0008

>  <open_babel_can_smiles>
C/C=C/CCCCCCCC(=O)OC

>  <mulliken_charges>
36
1   -0.486027
2   -0.218289
3   -0.092542
4   -0.085786
5   -0.301746
6   -0.25294
7   -0.253202
8   -0.256538
9   -0.256809
10   -0.270153
11   -0.333482
12   0.598622
13   -0.477502
14   -0.444577
15   0.152785
16   0.150703
17   0.153211
18   0.162294
19   0.168824
20   0.170033
21   0.115656
22   0.112046
23   0.134243
24   0.136503
25   0.128261
26   0.135697
27   0.128856
28   0.128424
29   0.132451
30   0.130295
31   0.134197
32   0.132082
33   0.142789
34   0.154822
35   0.163644
36   0.163155

>  <lowdin_charges>
36
1   -0.439606
2   -0.279209
3   -0.168772
4   -0.170874
5   -0.269126
6   -0.272511
7   -0.273342
8   -0.276128
9   -0.273822
10   -0.265926
11   -0.296087
12   0.196207
13   -0.268965
14   -0.195725
15   0.154487
16   0.154024
17   0.156304
18   0.159682
19   0.157907
20   0.158176
21   0.145508
22   0.144189
23   0.143942
24   0.144052
25   0.138398
26   0.140969
27   0.138517
28   0.137027
29   0.138981
30   0.138048
31   0.144572
32   0.139225
33   0.144178
34   0.151917
35   0.163993
36   0.159791

$$$$

