PCCDB-ID:  22172
public computational chemistry database (PCCDB) project, http://pccdb.org

 14 13  0  0  0  0  0  0  0  0999 V2000
    1.6808   -1.4410    0.5812 C   0  0  0  0  0  0  0  0  0  0  0  0
    0.8157    0.5613   -2.1882 C   0  0  0  0  0  0  0  0  0  0  0  0
    2.8669    0.1765   -1.0803 C   0  0  0  0  0  0  0  0  0  0  0  0
    2.5167   -0.1955    0.3686 C   0  0  0  0  0  0  0  0  0  0  0  0
    2.9580    0.4695    1.2857 O   0  0  0  0  0  0  0  0  0  0  0  0
    1.9473   -0.2801   -2.0505 O   0  0  0  0  0  0  0  0  0  0  0  0
    2.1167   -2.2921    0.0449 H   0  0  0  0  0  0  0  0  0  0  0  0
    0.6728   -1.3038    0.1731 H   0  0  0  0  0  0  0  0  0  0  0  0
    1.6176   -1.6587    1.6491 H   0  0  0  0  0  0  0  0  0  0  0  0
    0.1899    0.1256   -2.9710 H   0  0  0  0  0  0  0  0  0  0  0  0
    1.1079    1.5797   -2.4862 H   0  0  0  0  0  0  0  0  0  0  0  0
    0.2271    0.6285   -1.2600 H   0  0  0  0  0  0  0  0  0  0  0  0
    3.8254   -0.3089   -1.3104 H   0  0  0  0  0  0  0  0  0  0  0  0
    3.0249    1.2637   -1.1318 H   0  0  0  0  0  0  0  0  0  0  0  0
  1  9  1  0  0  0  0
  2  6  1  0  0  0  0
  2 12  1  0  0  0  0
  3  4  1  0  0  0  0
  4  1  1  0  0  0  0
  4  5  2  0  0  0  0
  6  3  1  0  0  0  0
  7  1  1  0  0  0  0
  8  1  1  0  0  0  0
 10  2  1  0  0  0  0
 11  2  1  0  0  0  0
 13  3  1  0  0  0  0
 14  3  1  0  0  0  0
M  END
>  <HBA>
2

>  <HBD>
0

>  <TPSA>
26.3

>  <cid>
22172

>  <dipole>
2.07

>  <excitation_energy_1>
4.196

>  <excitation_energy_2>
6.015

>  <excitation_energy_3>
6.077

>  <excitation_energy_4>
6.671

>  <homo_energy>
-6.474

>  <homo_lumo_gap>
5.951

>  <logP>
0.222

>  <lumo_energy>
-0.522

>  <melting_point>
-12.79

>  <molecular_refractivity>
22.63

>  <oscillator_strength_1>
0.0001

>  <oscillator_strength_2>
0.0142

>  <oscillator_strength_3>
0.0323

>  <oscillator_strength_4>
0.0007

>  <open_babel_can_smiles>
COCC(=O)C

>  <mulliken_charges>
14
1   -0.521477
2   -0.20678
3   -0.111295
4   0.419339
5   -0.429733
6   -0.451525
7   0.175474
8   0.176523
9   0.176742
10   0.165952
11   0.142453
12   0.134737
13   0.17509
14   0.154501

>  <lowdin_charges>
14
1   -0.473916
2   -0.282016
3   -0.167431
4   0.150923
5   -0.232047
6   -0.266547
7   0.17553
8   0.174687
9   0.170079
10   0.160661
11   0.137495
12   0.132718
13   0.170108
14   0.149758

$$$$

