PCCDB-ID:  70278
public computational chemistry database (PCCDB) project, http://pccdb.org

 20 20  0  0  0  0  0  0  0  0999 V2000
    0.8670    0.0364    0.0568 C   0  0  0  0  0  0  0  0  0  0  0  0
    2.4060    0.0778    0.0829 C   0  0  0  0  0  0  0  0  0  0  0  0
    4.0735    0.9820   -3.2488 C   0  0  0  0  0  0  0  0  0  0  0  0
    3.5164    1.0888   -1.9760 C   0  0  0  0  0  0  0  0  0  0  0  0
    4.1570   -0.2664   -3.8715 C   0  0  0  0  0  0  0  0  0  0  0  0
    3.0286   -0.0338   -1.2912 C   0  0  0  0  0  0  0  0  0  0  0  0
    3.6782   -1.3894   -3.2056 C   0  0  0  0  0  0  0  0  0  0  0  0
    3.1160   -1.2788   -1.9243 C   0  0  0  0  0  0  0  0  0  0  0  0
    3.7083   -2.6729   -3.7142 O   0  0  0  0  0  0  0  0  0  0  0  0
    2.6509   -2.3976   -1.2866 O   0  0  0  0  0  0  0  0  0  0  0  0
    0.4596    0.1284    1.0705 H   0  0  0  0  0  0  0  0  0  0  0  0
    0.5125   -0.9076   -0.3682 H   0  0  0  0  0  0  0  0  0  0  0  0
    0.4622    0.8560   -0.5479 H   0  0  0  0  0  0  0  0  0  0  0  0
    2.7709   -0.7394    0.7165 H   0  0  0  0  0  0  0  0  0  0  0  0
    2.7380    1.0141    0.5476 H   0  0  0  0  0  0  0  0  0  0  0  0
    4.4482    1.8643   -3.7591 H   0  0  0  0  0  0  0  0  0  0  0  0
    3.4578    2.0607   -1.4923 H   0  0  0  0  0  0  0  0  0  0  0  0
    4.5923   -0.3679   -4.8640 H   0  0  0  0  0  0  0  0  0  0  0  0
    4.1290   -2.6652   -4.5866 H   0  0  0  0  0  0  0  0  0  0  0  0
    2.8113   -3.1531   -1.8777 H   0  0  0  0  0  0  0  0  0  0  0  0
  1  2  1  0  0  0  0
  1 11  1  0  0  0  0
  2 15  1  0  0  0  0
  2 14  1  0  0  0  0
  3  4  1  0  0  0  0
  4 17  1  0  0  0  0
  4  6  2  0  0  0  0
  5  3  2  0  0  0  0
  5  7  1  0  0  0  0
  6  2  1  0  0  0  0
  7  8  2  0  0  0  0
  8  6  1  0  0  0  0
  8 10  1  0  0  0  0
  9  7  1  0  0  0  0
 12  1  1  0  0  0  0
 13  1  1  0  0  0  0
 16  3  1  0  0  0  0
 18  5  1  0  0  0  0
 19  9  1  0  0  0  0
 20 10  1  0  0  0  0
M  END
>  <HBA>
2

>  <HBD>
2

>  <TPSA>
40.46

>  <cid>
70278

>  <dipole>
2.26

>  <excitation_energy_1>
4.682

>  <excitation_energy_2>
4.956

>  <excitation_energy_3>
5.297

>  <excitation_energy_4>
5.455

>  <homo_energy>
-5.557

>  <homo_lumo_gap>
5.84

>  <logP>
1.66

>  <lumo_energy>
0.283

>  <melting_point>
88.44

>  <molecular_refractivity>
40.26

>  <oscillator_strength_1>
0.001

>  <oscillator_strength_2>
0.035

>  <oscillator_strength_3>
0.0015

>  <oscillator_strength_4>
0.0028

>  <open_babel_can_smiles>
CCc1cccc(c1O)O

>  <mulliken_charges>
20
1   -0.439468
2   -0.327742
3   -0.136381
4   -0.199687
5   -0.197629
6   0.133183
7   0.310163
8   0.257712
9   -0.683172
10   -0.65975
11   0.139011
12   0.164561
13   0.142597
14   0.15741
15   0.13538
16   0.124563
17   0.118983
18   0.11653
19   0.416178
20   0.427559

>  <lowdin_charges>
20
1   -0.442101
2   -0.268559
3   -0.170021
4   -0.176562
5   -0.207846
6   -0.022278
7   0.056981
8   0.069217
9   -0.404851
10   -0.385098
11   0.146694
12   0.157453
13   0.147979
14   0.158312
15   0.146368
16   0.157915
17   0.154654
18   0.152303
19   0.364041
20   0.365398

$$$$

