PCCDB-ID:  19081
public computational chemistry database (PCCDB) project, http://pccdb.org

 28 30  0  0  1  0  0  0  0  0999 V2000
    0.8887    0.0354    0.0476 C   0  0  0  0  0  0  0  0  0  0  0  0
    4.5697   -5.9676    0.0313 C   0  0  0  0  0  0  0  0  0  0  0  0
    3.1680   -5.9295    0.0362 C   0  0  0  0  0  0  0  0  0  0  0  0
    4.4577    1.4136    0.0278 C   0  0  0  0  0  0  0  0  0  0  0  0
    3.0581    1.3348    0.0343 C   0  0  0  0  0  0  0  0  0  0  0  0
    5.2837   -4.7783    0.0308 C   0  0  0  0  0  0  0  0  0  0  0  0
    5.2100    0.2505    0.0278 C   0  0  0  0  0  0  0  0  0  0  0  0
    2.5051   -4.7133    0.0399 C   0  0  0  0  0  0  0  0  0  0  0  0
    2.3970    0.1116    0.0403 C   0  0  0  0  0  0  0  0  0  0  0  0
    4.6471   -3.5249    0.0357 C   0  0  0  0  0  0  0  0  0  0  0  0
    4.5889   -1.0095    0.0337 C   0  0  2  0  0  0  0  0  0  0  0  0
    3.2327   -3.5077    0.0396 C   0  0  0  0  0  0  0  0  0  0  0  0
    5.4070   -2.2464    0.0339 C   0  0  0  0  0  0  0  0  0  0  0  0
    3.1807   -1.0687    0.0391 C   0  0  0  0  0  0  0  0  0  0  0  0
    6.6909   -2.1221    0.0318 N   0  0  0  0  0  0  0  0  0  0  0  0
    2.5550   -2.3057    0.0432 N   0  0  0  0  0  0  0  0  0  0  0  0
    0.4514    1.0377    0.0472 H   0  0  0  0  0  0  0  0  0  0  0  0
    0.5037   -0.4845    0.9369 H   0  0  0  0  0  0  0  0  0  0  0  0
    0.4949   -0.4894   -0.8348 H   0  0  0  0  0  0  0  0  0  0  0  0
    5.0929   -6.9189    0.0288 H   0  0  0  0  0  0  0  0  0  0  0  0
    2.5954   -6.8528    0.0360 H   0  0  0  0  0  0  0  0  0  0  0  0
    4.9464    2.3835    0.0230 H   0  0  0  0  0  0  0  0  0  0  0  0
    2.4662    2.2474    0.0339 H   0  0  0  0  0  0  0  0  0  0  0  0
    6.3694   -4.8200    0.0274 H   0  0  0  0  0  0  0  0  0  0  0  0
    6.2940    0.2727    0.0233 H   0  0  0  0  0  0  0  0  0  0  0  0
    1.4177   -4.6780    0.0436 H   0  0  0  0  0  0  0  0  0  0  0  0
    7.1563   -3.0326    0.0340 H   0  0  0  0  0  0  0  0  0  0  0  0
    1.5467   -2.3348    0.0474 H   0  0  0  0  0  0  0  0  0  0  0  0
  1 18  1  0  0  0  0
  2  3  2  0  0  0  0
  3  8  1  0  0  0  0
  4  5  1  0  0  0  0
  5  9  1  0  0  0  0
  6  2  1  0  0  0  0
  6 10  2  0  0  0  0
  7  4  2  0  0  0  0
  8 26  1  0  0  0  0
  9  1  1  0  0  0  0
 10 12  1  0  0  0  0
 11  7  1  6  0  0  0
 11 13  1  0  0  0  0
 11 14  1  0  0  0  0
 12  8  2  0  0  0  0
 12 16  1  0  0  0  0
 13 10  1  0  0  0  0
 14  9  2  0  0  0  0
 14 16  1  0  0  0  0
 15 13  2  0  0  0  0
 15 27  1  0  0  0  0
 16 28  1  0  0  0  0
 17  1  1  0  0  0  0
 19  1  1  0  0  0  0
 20  2  1  0  0  0  0
 21  3  1  0  0  0  0
 22  4  1  0  0  0  0
 23  5  1  0  0  0  0
 24  6  1  0  0  0  0
 25  7  1  0  0  0  0
M  RAD  2   5   2  11   2
M  END
>  <HBA>
2

>  <HBD>
1

>  <TPSA>
38.91

>  <cid>
19081

>  <dipole>
4.12

>  <excitation_energy_1>
3.475

>  <excitation_energy_2>
4.189

>  <excitation_energy_3>
4.36

>  <excitation_energy_4>
4.45

>  <homo_energy>
-5.233

>  <homo_lumo_gap>
4.025

>  <logP>
3.86

>  <lumo_energy>
-1.208

>  <melting_point>
163.49

>  <molecular_refractivity>
68.62

>  <oscillator_strength_1>
0.1013

>  <oscillator_strength_2>
0.1306

>  <oscillator_strength_3>
0.0017

>  <oscillator_strength_4>
0.0068

>  <open_babel_can_smiles>
CC1=C2Nc3ccccc3C(=N)[C]2C=C[CH]1

>  <mulliken_charges>
28
1   -0.561768
2   -0.136624
3   -0.131291
4   -0.126123
5   -0.203091
6   -0.214388
7   -0.193581
8   -0.18707
9   0.169295
10   0.113809
11   0.107183
12   0.351894
13   0.230167
14   0.255396
15   -0.660788
16   -0.85317
17   0.169615
18   0.159133
19   0.159005
20   0.131943
21   0.13522
22   0.127941
23   0.122334
24   0.134347
25   0.168741
26   0.12552
27   0.279138
28   0.327214

>  <lowdin_charges>
28
1   -0.449788
2   -0.175562
3   -0.138883
4   -0.174062
5   -0.153805
6   -0.136319
7   -0.1265
8   -0.189633
9   -0.03428
10   -0.059008
11   -0.044782
12   0.063776
13   0.054006
14   0.048955
15   -0.403801
16   -0.213787
17   0.166405
18   0.155599
19   0.155578
20   0.160478
21   0.161942
22   0.158325
23   0.155847
24   0.155902
25   0.17901
26   0.153379
27   0.243769
28   0.28724

$$$$

