PCCDB-ID:  68476
public computational chemistry database (PCCDB) project, http://pccdb.org

 19 20  0  0  0  0  0  0  0  0999 V2000
    2.4533   -0.6443    0.0342 C   0  0  0  0  0  0  0  0  0  0  0  0
    2.4171    0.7558   -0.0448 C   0  0  0  0  0  0  0  0  0  0  0  0
    1.2670   -1.3641    0.0669 C   0  0  0  0  0  0  0  0  0  0  0  0
    1.2014    1.4224   -0.0898 C   0  0  0  0  0  0  0  0  0  0  0  0
   -2.4565   -0.6854    0.0031 C   0  0  0  0  0  0  0  0  0  0  0  0
   -2.4079    0.6660   -0.0718 C   0  0  0  0  0  0  0  0  0  0  0  0
    0.0214   -0.7182    0.0227 C   0  0  0  0  0  0  0  0  0  0  0  0
   -1.2439   -1.4959    0.0571 C   0  0  0  0  0  0  0  0  0  0  0  0
    0.0016    0.6914   -0.0567 C   0  0  0  0  0  0  0  0  0  0  0  0
   -1.1887   -2.7862    0.1292 N   0  0  0  0  0  0  0  0  0  0  0  0
   -1.2211    1.3516   -0.1017 N   0  0  0  0  0  0  0  0  0  0  0  0
    3.4072   -1.1625    0.0702 H   0  0  0  0  0  0  0  0  0  0  0  0
    3.3416    1.3261   -0.0713 H   0  0  0  0  0  0  0  0  0  0  0  0
    1.2613   -2.4473    0.1277 H   0  0  0  0  0  0  0  0  0  0  0  0
    1.1675    2.5082   -0.1517 H   0  0  0  0  0  0  0  0  0  0  0  0
   -3.4219   -1.1816    0.0232 H   0  0  0  0  0  0  0  0  0  0  0  0
   -3.3005    1.2818   -0.1114 H   0  0  0  0  0  0  0  0  0  0  0  0
   -2.1369   -3.1752    0.1429 H   0  0  0  0  0  0  0  0  0  0  0  0
   -1.2264    2.3590   -0.1570 H   0  0  0  0  0  0  0  0  0  0  0  0
  1  3  2  0  0  0  0
  1 12  1  0  0  0  0
  2  1  1  0  0  0  0
  3 14  1  0  0  0  0
  4  9  1  0  0  0  0
  4  2  2  0  0  0  0
  5 16  1  0  0  0  0
  5  8  1  0  0  0  0
  6  5  2  0  0  0  0
  7  8  1  0  0  0  0
  7  3  1  0  0  0  0
  8 10  2  0  0  0  0
  9  7  2  0  0  0  0
 10 18  1  0  0  0  0
 11  6  1  0  0  0  0
 11  9  1  0  0  0  0
 13  2  1  0  0  0  0
 15  4  1  0  0  0  0
 17  6  1  0  0  0  0
 19 11  1  0  0  0  0
M  END
>  <HBA>
2

>  <HBD>
1

>  <TPSA>
38.91

>  <cid>
68476

>  <dipole>
4.68

>  <excitation_energy_1>
3.961

>  <excitation_energy_2>
4.279

>  <excitation_energy_3>
4.344

>  <excitation_energy_4>
4.618

>  <homo_energy>
-5.252

>  <homo_lumo_gap>
4.476

>  <logP>
2.398

>  <lumo_energy>
-0.776

>  <melting_point>
113.31

>  <molecular_refractivity>
46.15

>  <oscillator_strength_1>
0.135

>  <oscillator_strength_2>
0.0379

>  <oscillator_strength_3>
0.0001

>  <oscillator_strength_4>
0.0027

>  <open_babel_can_smiles>
N=c1cc[nH]c2c1cccc2

>  <mulliken_charges>
19
1   -0.129118
2   -0.134587
3   -0.191616
4   -0.177589
5   -0.217823
6   0.084346
7   0.091561
8   0.290123
9   0.321954
10   -0.667573
11   -0.711739
12   0.131145
13   0.13199
14   0.17268
15   0.121415
16   0.12875
17   0.158078
18   0.267831
19   0.330173

>  <lowdin_charges>
19
1   -0.169181
2   -0.143788
3   -0.123989
4   -0.189494
5   -0.239825
6   -0.08676
7   -0.034722
8   0.04909
9   0.053202
10   -0.425231
11   -0.202967
12   0.159579
13   0.160106
14   0.180412
15   0.15176
16   0.163403
17   0.167683
18   0.241057
19   0.289666

$$$$

