PCCDB-ID:  70813
public computational chemistry database (PCCDB) project, http://pccdb.org

 22 23  0  0  0  0  0  0  0  0999 V2000
    0.9650   -0.4601    0.2544 C   0  0  0  0  0  0  0  0  0  0  0  0
    2.2459   -0.2797   -0.1123 C   0  0  0  0  0  0  0  0  0  0  0  0
    2.8639    0.9790   -0.3117 C   0  0  0  0  0  0  0  0  0  0  0  0
    3.9890    9.3906   -0.3358 C   0  0  0  0  0  0  0  0  0  0  0  0
    3.4412    2.0369   -0.4981 C   0  0  0  0  0  0  0  0  0  0  0  0
    3.7149    8.0064   -0.1517 C   0  0  0  0  0  0  0  0  0  0  0  0
    5.3745    3.5219   -1.1058 C   0  0  0  0  0  0  0  0  0  0  0  0
    5.6863    4.8981   -1.1854 C   0  0  0  0  0  0  0  0  0  0  0  0
    5.0795    9.6162   -1.1305 C   0  0  0  0  0  0  0  0  0  0  0  0
    4.0773    3.2709   -0.6954 C   0  0  0  0  0  0  0  0  0  0  0  0
    4.6008    7.1770   -0.8075 C   0  0  0  0  0  0  0  0  0  0  0  0
    4.6368    5.7300   -0.8428 C   0  0  0  0  0  0  0  0  0  0  0  0
    5.7907    8.1315   -1.6789 S   0  0  0  0  0  0  0  0  0  0  0  0
    3.2211    4.7864   -0.4228 S   0  0  0  0  0  0  0  0  0  0  0  0
    0.5615   -1.4590    0.3853 H   0  0  0  0  0  0  0  0  0  0  0  0
    0.2959    0.3765    0.4309 H   0  0  0  0  0  0  0  0  0  0  0  0
    2.8794   -1.1516   -0.2770 H   0  0  0  0  0  0  0  0  0  0  0  0
    3.4007   10.1852    0.1100 H   0  0  0  0  0  0  0  0  0  0  0  0
    2.9045    7.6300    0.4635 H   0  0  0  0  0  0  0  0  0  0  0  0
    6.0744    2.7253   -1.3302 H   0  0  0  0  0  0  0  0  0  0  0  0
    6.6642    5.2748   -1.4661 H   0  0  0  0  0  0  0  0  0  0  0  0
    5.5129   10.5620   -1.4263 H   0  0  0  0  0  0  0  0  0  0  0  0
  1 15  1  0  0  0  0
  1 16  1  0  0  0  0
  2  1  2  0  0  0  0
  3  2  1  0  0  0  0
  4  6  1  0  0  0  0
  4 18  1  0  0  0  0
  5  3  3  0  0  0  0
  6 19  1  0  0  0  0
  7 10  2  0  0  0  0
  8  7  1  0  0  0  0
  8 12  2  0  0  0  0
  9  4  2  0  0  0  0
 10  5  1  0  0  0  0
 10 14  1  0  0  0  0
 11  6  2  0  0  0  0
 12 11  1  0  0  0  0
 12 14  1  0  0  0  0
 13  9  1  0  0  0  0
 13 11  1  0  0  0  0
 17  2  1  0  0  0  0
 20  7  1  0  0  0  0
 21  8  1  0  0  0  0
 22  9  1  0  0  0  0
M  END
>  <HBA>
2

>  <HBD>
0

>  <TPSA>
56.48

>  <cid>
70813

>  <dipole>
0.61

>  <excitation_energy_1>
3.253

>  <excitation_energy_2>
4.072

>  <excitation_energy_3>
4.437

>  <excitation_energy_4>
4.451

>  <homo_energy>
-5.301

>  <homo_lumo_gap>
3.505

>  <logP>
4.014

>  <lumo_energy>
-1.796

>  <melting_point>
38.64

>  <molecular_refractivity>
64.71

>  <oscillator_strength_1>
0.9095

>  <oscillator_strength_2>
0.006

>  <oscillator_strength_3>
0.02

>  <oscillator_strength_4>
0.0065

>  <open_babel_can_smiles>
C=CC#Cc1ccc(s1)c1cccs1

>  <mulliken_charges>
22
1   -0.312757
2   -0.194381
3   -0.138441
4   -0.098453
5   0.258664
6   -0.133653
7   -0.080636
8   -0.151063
9   -0.340474
10   -0.33212
11   -0.17358
12   -0.110155
13   0.26621
14   0.285999
15   0.151406
16   0.156137
17   0.163221
18   0.146453
19   0.154758
20   0.151411
21   0.155583
22   0.175872

>  <lowdin_charges>
22
1   -0.307501
2   -0.141836
3   -0.046551
4   -0.177207
5   -0.064338
6   -0.186313
7   -0.162168
8   -0.186555
9   -0.315284
10   -0.139315
11   -0.150333
12   -0.140477
13   0.314619
14   0.321566
15   0.165121
16   0.168184
17   0.173396
18   0.169674
19   0.173053
20   0.174506
21   0.172547
22   0.185212

$$$$

