PCCDB-ID:  15710
public computational chemistry database (PCCDB) project, http://pccdb.org

 18 18  0  0  0  0  0  0  0  0999 V2000
    0.9773    0.1016    0.0450 C   0  0  0  0  0  0  0  0  0  0  0  0
    2.8102   -2.4357    0.0474 C   0  0  0  0  0  0  0  0  0  0  0  0
    5.8521   -1.6299    0.0730 C   0  0  0  0  0  0  0  0  0  0  0  0
    3.1992    1.3131    0.0666 C   0  0  0  0  0  0  0  0  0  0  0  0
    2.4827    0.1496    0.0567 C   0  0  0  0  0  0  0  0  0  0  0  0
    3.3351   -1.0184    0.0590 C   0  0  0  0  0  0  0  0  0  0  0  0
    4.6719   -0.7022    0.0707 C   0  0  0  0  0  0  0  0  0  0  0  0
    4.9110    1.0296    0.0793 S   0  0  0  0  0  0  0  0  0  0  0  0
    0.5551    1.1112    0.0421 H   0  0  0  0  0  0  0  0  0  0  0  0
    0.5792   -0.4210    0.9243 H   0  0  0  0  0  0  0  0  0  0  0  0
    0.5927   -0.4205   -0.8406 H   0  0  0  0  0  0  0  0  0  0  0  0
    1.7169   -2.4544    0.0409 H   0  0  0  0  0  0  0  0  0  0  0  0
    3.1381   -3.0010    0.9286 H   0  0  0  0  0  0  0  0  0  0  0  0
    3.1485   -2.9902   -0.8368 H   0  0  0  0  0  0  0  0  0  0  0  0
    5.5181   -2.6715    0.0721 H   0  0  0  0  0  0  0  0  0  0  0  0
    6.4851   -1.4855    0.9577 H   0  0  0  0  0  0  0  0  0  0  0  0
    6.4886   -1.4851   -0.8090 H   0  0  0  0  0  0  0  0  0  0  0  0
    2.8162    2.3252    0.0653 H   0  0  0  0  0  0  0  0  0  0  0  0
  1  5  1  0  0  0  0
  1 10  1  0  0  0  0
  2  6  1  0  0  0  0
  2 13  1  0  0  0  0
  3 16  1  0  0  0  0
  4  8  1  0  0  0  0
  5  6  1  0  0  0  0
  5  4  2  0  0  0  0
  6  7  2  0  0  0  0
  7  3  1  0  0  0  0
  7  8  1  0  0  0  0
  9  1  1  0  0  0  0
 11  1  1  0  0  0  0
 12  2  1  0  0  0  0
 14  2  1  0  0  0  0
 15  3  1  0  0  0  0
 17  3  1  0  0  0  0
 18  4  1  0  0  0  0
M  END
>  <HBA>
1

>  <HBD>
0

>  <TPSA>
28.24

>  <cid>
15710

>  <dipole>
1.21

>  <excitation_energy_1>
5.246

>  <excitation_energy_2>
5.308

>  <excitation_energy_3>
5.318

>  <excitation_energy_4>
5.476

>  <homo_energy>
-5.744

>  <homo_lumo_gap>
5.769

>  <logP>
2.673

>  <lumo_energy>
0.024

>  <melting_point>
16.06

>  <molecular_refractivity>
39.22

>  <oscillator_strength_1>
0.0003

>  <oscillator_strength_2>
0.1095

>  <oscillator_strength_3>
0.0044

>  <oscillator_strength_4>
0.1044

>  <open_babel_can_smiles>
Cc1c(C)csc1C

>  <mulliken_charges>
18
1   -0.525378
2   -0.533402
3   -0.504728
4   -0.406248
5   0.16922
6   0.138961
7   -0.165335
8   0.217392
9   0.154505
10   0.158738
11   0.158637
12   0.15601
13   0.160976
14   0.161012
15   0.16382
16   0.168289
17   0.168431
18   0.1591

>  <lowdin_charges>
18
1   -0.439666
2   -0.443778
3   -0.43847
4   -0.341869
5   -0.03045
6   -0.047449
7   -0.16772
8   0.290343
9   0.158718
10   0.158235
11   0.158134
12   0.158155
13   0.159754
14   0.15976
15   0.163351
16   0.163841
17   0.163864
18   0.175248

$$$$

