PCCDB-ID:  27251
public computational chemistry database (PCCDB) project, http://pccdb.org

 22 22  0  0  1  0  0  0  0  0999 V2000
    0.2592   -1.8238   -1.4030 C   0  0  0  0  0  0  0  0  0  0  0  0
    2.4973   -4.8059    2.5721 C   0  0  0  0  0  0  0  0  0  0  0  0
    3.3537   -4.4455    1.3496 C   0  0  0  0  0  0  0  0  0  0  0  0
    1.0709   -4.5463    2.0607 C   0  0  0  0  0  0  0  0  0  0  0  0
    2.7840   -3.0563   -0.7300 C   0  0  0  0  0  0  0  0  0  0  0  0
    2.5656   -3.2674    0.7610 C   0  0  1  0  0  0  0  0  0  0  0  0
    2.4850   -1.4355   -2.8089 O   0  0  0  0  0  0  0  0  0  0  0  0
    2.3285   -0.4380   -0.4600 O   0  0  0  0  0  0  0  0  0  0  0  0
    1.1858   -3.5858    0.9977 O   0  0  0  0  0  0  0  0  0  0  0  0
    2.0423   -1.5292   -1.4078 S   0  0  0  0  0  0  0  0  0  0  0  0
    0.0307   -2.6379   -2.0935 H   0  0  0  0  0  0  0  0  0  0  0  0
   -0.1962   -0.8933   -1.7502 H   0  0  0  0  0  0  0  0  0  0  0  0
   -0.0545   -2.0682   -0.3882 H   0  0  0  0  0  0  0  0  0  0  0  0
    2.7334   -4.1378    3.4081 H   0  0  0  0  0  0  0  0  0  0  0  0
    2.6410   -5.8353    2.9133 H   0  0  0  0  0  0  0  0  0  0  0  0
    3.3795   -5.2788    0.6359 H   0  0  0  0  0  0  0  0  0  0  0  0
    4.3840   -4.1775    1.6012 H   0  0  0  0  0  0  0  0  0  0  0  0
    0.4083   -4.1457    2.8367 H   0  0  0  0  0  0  0  0  0  0  0  0
    0.6110   -5.4580    1.6562 H   0  0  0  0  0  0  0  0  0  0  0  0
    2.4055   -3.8983   -1.3177 H   0  0  0  0  0  0  0  0  0  0  0  0
    3.8481   -2.9222   -0.9522 H   0  0  0  0  0  0  0  0  0  0  0  0
    2.8215   -2.3375    1.2889 H   0  0  0  0  0  0  0  0  0  0  0  0
  1 13  1  0  0  0  0
  2 15  1  0  0  0  0
  2 14  1  0  0  0  0
  3 17  1  0  0  0  0
  3  2  1  0  0  0  0
  4  2  1  0  0  0  0
  4 18  1  0  0  0  0
  5  6  1  0  0  0  0
  6  9  1  0  0  0  0
  6 22  1  1  0  0  0
  6  3  1  0  0  0  0
  7 10  2  0  0  0  0
  9  4  1  0  0  0  0
 10  1  1  0  0  0  0
 10  5  1  0  0  0  0
 10  8  2  0  0  0  0
 11  1  1  0  0  0  0
 12  1  1  0  0  0  0
 16  3  1  0  0  0  0
 19  4  1  0  0  0  0
 20  5  1  0  0  0  0
 21  5  1  0  0  0  0
M  END
>  <HBA>
3

>  <HBD>
0

>  <TPSA>
51.75

>  <cid>
27251

>  <dipole>
5.74

>  <excitation_energy_1>
6.436

>  <excitation_energy_2>
6.908

>  <excitation_energy_3>
6.951

>  <excitation_energy_4>
7.028

>  <homo_energy>
-7.206

>  <homo_lumo_gap>
9.015

>  <logP>
1.291

>  <lumo_energy>
1.81

>  <melting_point>
16.7

>  <molecular_refractivity>
38.89

>  <oscillator_strength_1>
0.0042

>  <oscillator_strength_2>
0.0115

>  <oscillator_strength_3>
0.0559

>  <oscillator_strength_4>
0.0035

>  <open_babel_can_smiles>
CS(=O)(=O)C[C@@H]1CCCO1

>  <mulliken_charges>
22
1   -0.63257
2   -0.318374
3   -0.30287
4   -0.00669
5   -0.49681
6   0.160419
7   -0.538825
8   -0.545692
9   -0.517119
10   1.096869
11   0.194141
12   0.21254
13   0.228648
14   0.157144
15   0.154882
16   0.147429
17   0.157035
18   0.146798
19   0.138211
20   0.19
21   0.208646
22   0.166187

>  <lowdin_charges>
22
1   -0.603815
2   -0.292671
3   -0.288536
4   -0.130583
5   -0.440061
6   -0.001746
7   -0.608295
8   -0.610615
9   -0.296605
10   1.259715
11   0.186915
12   0.196188
13   0.19972
14   0.153975
15   0.157449
16   0.149686
17   0.158845
18   0.146823
19   0.138531
20   0.181283
21   0.191919
22   0.151879

$$$$

