PCCDB-ID:  29452
public computational chemistry database (PCCDB) project, http://pccdb.org

 34 36  0  0  1  0  0  0  0  0999 V2000
    2.2329    0.1677   -1.0122 C   0  0  0  0  0  0  0  0  0  0  0  0
    2.7972    2.2692    1.1907 C   0  0  0  0  0  0  0  0  0  0  0  0
    4.9671    3.4012    5.5174 C   0  0  0  0  0  0  0  0  0  0  0  0
    6.3740    3.3118    5.5556 C   0  0  0  0  0  0  0  0  0  0  0  0
    4.2150    2.5484    4.7197 C   0  0  0  0  0  0  0  0  0  0  0  0
    7.0540    2.3654    4.7984 C   0  0  0  0  0  0  0  0  0  0  0  0
    2.8612   -1.4425    0.8942 C   0  0  0  0  0  0  0  0  0  0  0  0
    2.6685   -1.2299    2.4173 C   0  0  0  0  0  0  0  0  0  0  0  0
    5.5568   -0.0882    2.5890 C   0  0  0  0  0  0  0  0  0  0  0  0
    3.0055   -0.0203    0.2938 C   0  0  2  0  0  0  0  0  0  0  0  0
    4.8712    1.5794    3.9387 C   0  0  0  0  0  0  0  0  0  0  0  0
    4.4197    0.5475    3.0313 C   0  0  0  0  0  0  0  0  0  0  0  0
    6.2907    1.5081    3.9987 C   0  0  0  0  0  0  0  0  0  0  0  0
    2.9790    0.2657    2.6491 C   0  0  1  0  0  0  0  0  0  0  0  0
    6.6782    0.4820    3.1629 N   0  0  0  0  0  0  0  0  0  0  0  0
    2.5202    0.8543    1.3689 N   0  0  0  0  0  0  0  0  0  0  0  0
    2.5671   -0.5622   -1.7591 H   0  0  0  0  0  0  0  0  0  0  0  0
    2.3827    1.1648   -1.4404 H   0  0  0  0  0  0  0  0  0  0  0  0
    1.1598    0.0243   -0.8419 H   0  0  0  0  0  0  0  0  0  0  0  0
    2.2743    2.6418    0.3038 H   0  0  0  0  0  0  0  0  0  0  0  0
    3.8722    2.5012    1.0806 H   0  0  0  0  0  0  0  0  0  0  0  0
    2.4202    2.8278    2.0541 H   0  0  0  0  0  0  0  0  0  0  0  0
    4.4659    4.1515    6.1229 H   0  0  0  0  0  0  0  0  0  0  0  0
    6.9364    3.9931    6.1881 H   0  0  0  0  0  0  0  0  0  0  0  0
    3.1313    2.6291    4.7039 H   0  0  0  0  0  0  0  0  0  0  0  0
    8.1383    2.2934    4.8296 H   0  0  0  0  0  0  0  0  0  0  0  0
    1.9992   -1.9603    0.4599 H   0  0  0  0  0  0  0  0  0  0  0  0
    3.7429   -2.0520    0.6663 H   0  0  0  0  0  0  0  0  0  0  0  0
    3.3002   -1.8799    3.0285 H   0  0  0  0  0  0  0  0  0  0  0  0
    1.6277   -1.4241    2.6928 H   0  0  0  0  0  0  0  0  0  0  0  0
    5.6651   -0.9219    1.9092 H   0  0  0  0  0  0  0  0  0  0  0  0
    4.0776    0.1768    0.0894 H   0  0  0  0  0  0  0  0  0  0  0  0
    2.3434    0.6730    3.4454 H   0  0  0  0  0  0  0  0  0  0  0  0
    7.6282    0.1871    3.0000 H   0  0  0  0  0  0  0  0  0  0  0  0
  1 19  1  0  0  0  0
  1 10  1  0  0  0  0
  2 16  1  0  0  0  0
  2 22  1  0  0  0  0
  3  4  1  0  0  0  0
  3 23  1  0  0  0  0
  4 24  1  0  0  0  0
  5  3  2  0  0  0  0
  6 26  1  0  0  0  0
  6  4  2  0  0  0  0
  7  8  1  0  0  0  0
  8 14  1  0  0  0  0
  8 30  1  0  0  0  0
  8 29  1  0  0  0  0
  9 12  2  0  0  0  0
  9 15  1  0  0  0  0
 10 32  1  6  0  0  0
 10  7  1  0  0  0  0
 10 16  1  0  0  0  0
 11 13  2  0  0  0  0
 11  5  1  0  0  0  0
 12 11  1  0  0  0  0
 13  6  1  0  0  0  0
 14 12  1  0  0  0  0
 14 33  1  1  0  0  0
 15 13  1  0  0  0  0
 16 14  1  0  0  0  0
 17  1  1  0  0  0  0
 18  1  1  0  0  0  0
 20  2  1  0  0  0  0
 21  2  1  0  0  0  0
 25  5  1  0  0  0  0
 27  7  1  0  0  0  0
 28  7  1  0  0  0  0
 31  9  1  0  0  0  0
 34 15  1  0  0  0  0
M  END
>  <HBA>
1

>  <HBD>
1

>  <TPSA>
19.03

>  <cid>
29452

>  <dipole>
2.51

>  <excitation_energy_1>
4.399

>  <excitation_energy_2>
4.618

>  <excitation_energy_3>
4.677

>  <excitation_energy_4>
4.818

>  <homo_energy>
-5.236

>  <homo_lumo_gap>
5.108

>  <logP>
3.261

>  <lumo_energy>
-0.128

>  <melting_point>
121.66

>  <molecular_refractivity>
72.0

>  <oscillator_strength_1>
0.0335

>  <oscillator_strength_2>
0.0015

>  <oscillator_strength_3>
0.0321

>  <oscillator_strength_4>
0.0264

>  <open_babel_can_smiles>
CN1[C@H](C)CC[C@H]1c1c[nH]c2c1cccc2

>  <mulliken_charges>
34
1   -0.456747
2   -0.305701
3   -0.140715
4   -0.151312
5   -0.20856
6   -0.163428
7   -0.297953
8   -0.27411
9   -0.006069
10   0.088304
11   0.068348
12   0.078369
13   0.317576
14   -0.063137
15   -0.695865
16   -0.383569
17   0.138516
18   0.143153
19   0.149449
20   0.14609
21   0.130367
22   0.146159
23   0.119431
24   0.121638
25   0.125708
26   0.11927
27   0.141151
28   0.129517
29   0.138854
30   0.145089
31   0.148419
32   0.098147
33   0.128319
34   0.32529

>  <lowdin_charges>
34
1   -0.447229
2   -0.359629
3   -0.177969
4   -0.166424
5   -0.162389
6   -0.18632
7   -0.288979
8   -0.281263
9   -0.138147
10   -0.057533
11   -0.034993
12   -0.076626
13   0.029311
14   -0.058957
15   -0.196284
16   -0.18729
17   0.150536
18   0.148165
19   0.150024
20   0.148492
21   0.126602
22   0.150807
23   0.155316
24   0.156497
25   0.152737
26   0.152393
27   0.149495
28   0.140961
29   0.149091
30   0.15053
31   0.164158
32   0.109671
33   0.145788
34   0.289457

$$$$

