PCCDB-ID:  40075
public computational chemistry database (PCCDB) project, http://pccdb.org

 27 28  0  0  0  0  0  0  0  0999 V2000
    3.9543    2.2942   -0.3080 C   0  0  0  0  0  0  0  0  0  0  0  0
    3.5225    1.9668   -1.5947 C   0  0  0  0  0  0  0  0  0  0  0  0
    4.2818    1.2764    0.5908 C   0  0  0  0  0  0  0  0  0  0  0  0
    4.9642   -5.0106   -1.0949 C   0  0  0  0  0  0  0  0  0  0  0  0
    6.3315   -4.7458   -0.9757 C   0  0  0  0  0  0  0  0  0  0  0  0
    3.4263    0.6315   -1.9879 C   0  0  0  0  0  0  0  0  0  0  0  0
    4.1797   -0.0631    0.2142 C   0  0  0  0  0  0  0  0  0  0  0  0
    4.0529   -3.9711   -1.2463 C   0  0  0  0  0  0  0  0  0  0  0  0
    8.2797   -3.1277   -0.9095 C   0  0  0  0  0  0  0  0  0  0  0  0
    8.6225   -2.3581    0.2945 C   0  0  0  0  0  0  0  0  0  0  0  0
    5.8803   -2.3755   -1.1800 C   0  0  0  0  0  0  0  0  0  0  0  0
    6.7892   -3.4277   -1.0194 C   0  0  0  0  0  0  0  0  0  0  0  0
    3.7582   -0.3751   -1.0810 C   0  0  0  0  0  0  0  0  0  0  0  0
    4.5155   -2.6507   -1.2844 C   0  0  0  0  0  0  0  0  0  0  0  0
    8.8807   -1.7429    1.2443 N   0  0  0  0  0  0  0  0  0  0  0  0
    3.5602   -1.6836   -1.4959 O   0  0  0  0  0  0  0  0  0  0  0  0
    4.0349    3.3346   -0.0069 H   0  0  0  0  0  0  0  0  0  0  0  0
    3.2623    2.7516   -2.2997 H   0  0  0  0  0  0  0  0  0  0  0  0
    4.6144    1.5217    1.5956 H   0  0  0  0  0  0  0  0  0  0  0  0
    4.6076   -6.0362   -1.0632 H   0  0  0  0  0  0  0  0  0  0  0  0
    7.0359   -5.5629   -0.8470 H   0  0  0  0  0  0  0  0  0  0  0  0
    3.0931    0.3545   -2.9831 H   0  0  0  0  0  0  0  0  0  0  0  0
    4.4224   -0.8568    0.9133 H   0  0  0  0  0  0  0  0  0  0  0  0
    2.9872   -4.1549   -1.3364 H   0  0  0  0  0  0  0  0  0  0  0  0
    8.8543   -4.0606   -0.8977 H   0  0  0  0  0  0  0  0  0  0  0  0
    8.6243   -2.5587   -1.7832 H   0  0  0  0  0  0  0  0  0  0  0  0
    6.2314   -1.3494   -1.2166 H   0  0  0  0  0  0  0  0  0  0  0  0
  1 17  1  0  0  0  0
  1  3  2  0  0  0  0
  2  1  1  0  0  0  0
  3 19  1  0  0  0  0
  4 20  1  0  0  0  0
  4  5  2  0  0  0  0
  5 21  1  0  0  0  0
  6  2  2  0  0  0  0
  6 13  1  0  0  0  0
  7  3  1  0  0  0  0
  7 23  1  0  0  0  0
  8  4  1  0  0  0  0
  9 25  1  0  0  0  0
  9 10  1  0  0  0  0
 10 15  3  0  0  0  0
 11 12  2  0  0  0  0
 12  5  1  0  0  0  0
 12  9  1  0  0  0  0
 13  7  2  0  0  0  0
 14  8  2  0  0  0  0
 14 11  1  0  0  0  0
 16 14  1  0  0  0  0
 16 13  1  0  0  0  0
 18  2  1  0  0  0  0
 22  6  1  0  0  0  0
 24  8  1  0  0  0  0
 26  9  1  0  0  0  0
 27 11  1  0  0  0  0
M  END
>  <HBA>
2

>  <HBD>
0

>  <TPSA>
33.02

>  <cid>
40075

>  <dipole>
2.89

>  <excitation_energy_1>
4.647

>  <excitation_energy_2>
5.062

>  <excitation_energy_3>
5.089

>  <excitation_energy_4>
5.421

>  <homo_energy>
-6.123

>  <homo_lumo_gap>
5.527

>  <logP>
3.545

>  <lumo_energy>
-0.596

>  <melting_point>
78.82

>  <molecular_refractivity>
62.48

>  <oscillator_strength_1>
0.0182

>  <oscillator_strength_2>
0.2117

>  <oscillator_strength_3>
0.0348

>  <oscillator_strength_4>
0.0017

>  <open_babel_can_smiles>
N#CCc1cccc(c1)Oc1ccccc1

>  <mulliken_charges>
27
1   -0.126209
2   -0.138378
3   -0.136974
4   -0.133533
5   -0.180353
6   -0.16892
7   -0.161687
8   -0.169831
9   -0.434712
10   0.361086
11   -0.216152
12   0.159631
13   0.33648
14   0.355289
15   -0.465109
16   -0.575786
17   0.133358
18   0.136165
19   0.142395
20   0.14003
21   0.130055
22   0.142593
23   0.154359
24   0.147469
25   0.201205
26   0.208374
27   0.159155

>  <lowdin_charges>
27
1   -0.164198
2   -0.148859
3   -0.143516
4   -0.140545
5   -0.182335
6   -0.176288
7   -0.183832
8   -0.17415
9   -0.269816
10   -0.014626
11   -0.196784
12   0.006486
13   0.098833
14   0.109208
15   -0.126425
16   -0.16175
17   0.159293
18   0.16221
19   0.163176
20   0.162813
21   0.15975
22   0.16797
23   0.173315
24   0.169738
25   0.186412
26   0.189989
27   0.173929

$$$$

