PCCDB-ID:  24324
public computational chemistry database (PCCDB) project, http://pccdb.org

 24 25  0  0  0  0  0  0  0  0999 V2000
    1.9021   -1.5852   -0.0056 C   0  0  0  0  0  0  0  0  0  0  0  0
    2.4036   -0.3394   -0.4268 C   0  0  0  0  0  0  0  0  0  0  0  0
    0.5508   -1.7648    0.2807 C   0  0  0  0  0  0  0  0  0  0  0  0
    1.5692    0.7684   -0.5748 C   0  0  0  0  0  0  0  0  0  0  0  0
   -4.9381   -0.9157   -0.5552 C   0  0  0  0  0  0  0  0  0  0  0  0
   -4.5763   -0.0301    0.6381 C   0  0  0  0  0  0  0  0  0  0  0  0
   -0.3037   -0.6662    0.1392 C   0  0  0  0  0  0  0  0  0  0  0  0
    0.2189    0.5785   -0.2859 C   0  0  0  0  0  0  0  0  0  0  0  0
   -1.9716    0.6763    0.0798 C   0  0  0  0  0  0  0  0  0  0  0  0
   -5.7419   -2.0441   -0.0700 N   0  0  0  0  0  0  0  0  0  0  0  0
   -1.6750   -0.5694    0.3584 N   0  0  0  0  0  0  0  0  0  0  0  0
   -0.8823    1.4235   -0.3170 N   0  0  0  0  0  0  0  0  0  0  0  0
   -3.5626    1.4340    0.1825 S   0  0  0  0  0  0  0  0  0  0  0  0
    2.5864   -2.4228    0.0977 H   0  0  0  0  0  0  0  0  0  0  0  0
    3.4637   -0.2364   -0.6408 H   0  0  0  0  0  0  0  0  0  0  0  0
    0.1597   -2.7237    0.6067 H   0  0  0  0  0  0  0  0  0  0  0  0
    1.9585    1.7290   -0.9002 H   0  0  0  0  0  0  0  0  0  0  0  0
   -4.0131   -1.2053   -1.0761 H   0  0  0  0  0  0  0  0  0  0  0  0
   -5.5478   -0.3398   -1.2602 H   0  0  0  0  0  0  0  0  0  0  0  0
   -4.0076   -0.5905    1.3844 H   0  0  0  0  0  0  0  0  0  0  0  0
   -5.4772    0.3718    1.1093 H   0  0  0  0  0  0  0  0  0  0  0  0
   -5.1361   -2.7071    0.4126 H   0  0  0  0  0  0  0  0  0  0  0  0
   -6.1365   -2.5494   -0.8613 H   0  0  0  0  0  0  0  0  0  0  0  0
   -0.8927    2.3991   -0.5753 H   0  0  0  0  0  0  0  0  0  0  0  0
  1 14  1  0  0  0  0
  1  3  2  0  0  0  0
  2  1  1  0  0  0  0
  3 16  1  0  0  0  0
  4  2  2  0  0  0  0
  4  8  1  0  0  0  0
  5 10  1  0  0  0  0
  5  6  1  0  0  0  0
  6 21  1  0  0  0  0
  6 20  1  0  0  0  0
  7  3  1  0  0  0  0
  7 11  1  0  0  0  0
  8  7  2  0  0  0  0
  9 13  1  0  0  0  0
  9 11  2  0  0  0  0
 10 22  1  0  0  0  0
 12  8  1  0  0  0  0
 12  9  1  0  0  0  0
 13  6  1  0  0  0  0
 15  2  1  0  0  0  0
 17  4  1  0  0  0  0
 18  5  1  0  0  0  0
 19  5  1  0  0  0  0
 23 10  1  0  0  0  0
 24 12  1  0  0  0  0
M  END
>  <HBA>
3

>  <HBD>
2

>  <TPSA>
80.0

>  <cid>
24324

>  <dipole>
1.76

>  <excitation_energy_1>
4.704

>  <excitation_energy_2>
4.736

>  <excitation_energy_3>
5.122

>  <excitation_energy_4>
5.152

>  <homo_energy>
-5.627

>  <homo_lumo_gap>
5.344

>  <logP>
2.314

>  <lumo_energy>
-0.283

>  <melting_point>
177.83

>  <molecular_refractivity>
55.33

>  <oscillator_strength_1>
0.1156

>  <oscillator_strength_2>
0.1549

>  <oscillator_strength_3>
0.0769

>  <oscillator_strength_4>
0.0036

>  <open_babel_can_smiles>
NCCSc1nc2c([nH]1)cccc2

>  <mulliken_charges>
24
1   -0.143452
2   -0.150331
3   -0.17574
4   -0.171217
5   -0.133676
6   -0.405866
7   0.230732
8   0.34908
9   0.307728
10   -0.722651
11   -0.538697
12   -0.720894
13   0.126637
14   0.125147
15   0.12645
16   0.134566
17   0.127522
18   0.152786
19   0.147245
20   0.204597
21   0.186629
22   0.302299
23   0.301506
24   0.339602

>  <lowdin_charges>
24
1   -0.171262
2   -0.161218
3   -0.162065
4   -0.186107
5   -0.211498
6   -0.367909
7   0.014638
8   0.019695
9   -0.041626
10   -0.560664
11   -0.224759
12   -0.206848
13   0.163757
14   0.157919
15   0.155875
16   0.16427
17   0.158179
18   0.138872
19   0.148163
20   0.180366
21   0.176144
22   0.258566
23   0.259171
24   0.298343

$$$$

