PCCDB-ID:  11572
public computational chemistry database (PCCDB) project, http://pccdb.org

 19 19  0  0  1  0  0  0  0  0999 V2000
    1.0191   -0.0849    0.5083 C   0  0  0  0  0  0  0  0  0  0  0  0
    3.9208   -0.0503    2.4090 C   0  0  0  0  0  0  0  0  0  0  0  0
    3.7531    1.1281    1.7999 C   0  0  0  0  0  0  0  0  0  0  0  0
    3.5515   -1.3687    1.7765 C   0  0  0  0  0  0  0  0  0  0  0  0
    3.1699    1.2802    0.4148 C   0  0  0  0  0  0  0  0  0  0  0  0
    3.2930   -1.2303    0.2666 C   0  0  0  0  0  0  0  0  0  0  0  0
    2.4397    0.0087   -0.0710 C   0  0  1  0  0  0  0  0  0  0  0  0
    0.4035    0.7559    0.1670 H   0  0  0  0  0  0  0  0  0  0  0  0
    1.0260   -0.0630    1.6038 H   0  0  0  0  0  0  0  0  0  0  0  0
    0.5235   -1.0110    0.1919 H   0  0  0  0  0  0  0  0  0  0  0  0
    4.3388   -0.0811    3.4148 H   0  0  0  0  0  0  0  0  0  0  0  0
    4.0536    2.0427    2.3104 H   0  0  0  0  0  0  0  0  0  0  0  0
    2.6642   -1.7821    2.2813 H   0  0  0  0  0  0  0  0  0  0  0  0
    4.3500   -2.1031    1.9518 H   0  0  0  0  0  0  0  0  0  0  0  0
    3.9766    1.5381   -0.2896 H   0  0  0  0  0  0  0  0  0  0  0  0
    2.4819    2.1376    0.3956 H   0  0  0  0  0  0  0  0  0  0  0  0
    2.8134   -2.1393   -0.1187 H   0  0  0  0  0  0  0  0  0  0  0  0
    4.2585   -1.1404   -0.2499 H   0  0  0  0  0  0  0  0  0  0  0  0
    2.3476    0.0668   -1.1644 H   0  0  0  0  0  0  0  0  0  0  0  0
  1  9  1  0  0  0  0
  2 11  1  0  0  0  0
  3 12  1  0  0  0  0
  3  2  2  0  0  0  0
  4 14  1  0  0  0  0
  4 13  1  0  0  0  0
  4  2  1  0  0  0  0
  5  3  1  0  0  0  0
  6  4  1  0  0  0  0
  7 19  1  6  0  0  0
  7  6  1  0  0  0  0
  7  5  1  0  0  0  0
  7  1  1  0  0  0  0
  8  1  1  0  0  0  0
 10  1  1  0  0  0  0
 15  5  1  0  0  0  0
 16  5  1  0  0  0  0
 17  6  1  0  0  0  0
 18  6  1  0  0  0  0
M  END
>  <HBA>
0

>  <HBD>
0

>  <TPSA>
0.0

>  <cid>
11572

>  <dipole>
0.21

>  <excitation_energy_1>
5.813

>  <excitation_energy_2>
6.381

>  <excitation_energy_3>
6.487

>  <excitation_energy_4>
6.556

>  <homo_energy>
-6.354

>  <homo_lumo_gap>
7.29

>  <logP>
2.363

>  <lumo_energy>
0.936

>  <melting_point>
5.14

>  <molecular_refractivity>
33.17

>  <oscillator_strength_1>
0.0064

>  <oscillator_strength_2>
0.018

>  <oscillator_strength_3>
0.0077

>  <oscillator_strength_4>
0.0095

>  <open_babel_can_smiles>
C[C@@H]1CCC=CC1

>  <mulliken_charges>
19
1   -0.448467
2   -0.102824
3   -0.108011
4   -0.30204
5   -0.29718
6   -0.264102
7   -0.079285
8   0.13873
9   0.152522
10   0.137361
11   0.116918
12   0.117035
13   0.144927
14   0.139204
15   0.141676
16   0.135494
17   0.126611
18   0.133252
19   0.11818

>  <lowdin_charges>
19
1   -0.447343
2   -0.176614
3   -0.177151
4   -0.280241
5   -0.279433
6   -0.276497
7   -0.120966
8   0.148269
9   0.150214
10   0.146571
11   0.148287
12   0.149878
13   0.148086
14   0.150257
15   0.149623
16   0.14748
17   0.14186
18   0.142225
19   0.135496

$$$$

