PCCDB-ID:  952
public computational chemistry database (PCCDB) project, http://pccdb.org

 19 19  0  0  1  0  0  0  0  0999 V2000
    1.4414    0.0353   -0.1313 C   0  0  0  0  0  0  0  0  0  0  0  0
   -0.1738    2.6649    1.3909 C   0  0  0  0  0  0  0  0  0  0  0  0
    1.1333    3.2326    0.8461 C   0  0  2  0  0  0  0  0  0  0  0  0
    0.5007    1.2184   -0.3467 C   0  0  2  0  0  0  0  0  0  0  0  0
    1.1985    2.5912   -0.5563 C   0  0  2  0  0  0  0  0  0  0  0  0
    0.6990   -1.1349    0.1735 O   0  0  0  0  0  0  0  0  0  0  0  0
    2.2882    2.7554    1.5415 O   0  0  0  0  0  0  0  0  0  0  0  0
    2.5036    2.5331   -1.0846 O   0  0  0  0  0  0  0  0  0  0  0  0
   -0.3108    1.3556    0.8423 O   0  0  0  0  0  0  0  0  0  0  0  0
    2.1556    0.2751    0.6710 H   0  0  0  0  0  0  0  0  0  0  0  0
    2.0054   -0.1673   -1.0461 H   0  0  0  0  0  0  0  0  0  0  0  0
   -1.0193    3.3021    1.0835 H   0  0  0  0  0  0  0  0  0  0  0  0
   -0.1810    2.5911    2.4844 H   0  0  0  0  0  0  0  0  0  0  0  0
    1.1344    4.3295    0.8030 H   0  0  0  0  0  0  0  0  0  0  0  0
   -0.1727    0.9814   -1.1804 H   0  0  0  0  0  0  0  0  0  0  0  0
    0.6033    3.1965   -1.2483 H   0  0  0  0  0  0  0  0  0  0  0  0
    0.1085   -0.8807    0.9026 H   0  0  0  0  0  0  0  0  0  0  0  0
    2.3848    3.2479    2.3697 H   0  0  0  0  0  0  0  0  0  0  0  0
    3.0927    2.4142   -0.3179 H   0  0  0  0  0  0  0  0  0  0  0  0
  1  6  1  0  0  0  0
  1 10  1  0  0  0  0
  2 13  1  0  0  0  0
  3 14  1  6  0  0  0
  3  2  1  0  0  0  0
  3  7  1  0  0  0  0
  4 15  1  6  0  0  0
  4  1  1  0  0  0  0
  4  9  1  0  0  0  0
  5 16  1  6  0  0  0
  5  4  1  0  0  0  0
  5  3  1  0  0  0  0
  6 17  1  0  0  0  0
  7 18  1  0  0  0  0
  8  5  1  0  0  0  0
  8 19  1  0  0  0  0
  9  2  1  0  0  0  0
 11  1  1  0  0  0  0
 12  2  1  0  0  0  0
M  END
>  <HBA>
4

>  <HBD>
3

>  <TPSA>
69.92

>  <cid>
952

>  <dipole>
4.82

>  <excitation_energy_1>
5.775

>  <excitation_energy_2>
6.168

>  <excitation_energy_3>
6.401

>  <excitation_energy_4>
6.539

>  <homo_energy>
-6.623

>  <homo_lumo_gap>
7.728

>  <logP>
-1.901

>  <lumo_energy>
1.105

>  <melting_point>
43.58

>  <molecular_refractivity>
28.61

>  <oscillator_strength_1>
0.0035

>  <oscillator_strength_2>
0.0104

>  <oscillator_strength_3>
0.012

>  <oscillator_strength_4>
0.0028

>  <open_babel_can_smiles>
OC[C@H]1OC[C@H]([C@H]1O)O

>  <mulliken_charges>
19
1   -0.033096
2   -0.012697
3   0.054388
4   0.110106
5   0.101921
6   -0.627892
7   -0.63781
8   -0.636729
9   -0.516481
10   0.126519
11   0.15236
12   0.131488
13   0.141414
14   0.137143
15   0.139707
16   0.146097
17   0.399557
18   0.407255
19   0.416749

>  <lowdin_charges>
19
1   -0.151576
2   -0.141891
3   -0.036284
4   -0.034033
5   -0.026583
6   -0.4689
7   -0.461595
8   -0.448325
9   -0.29026
10   0.132638
11   0.153963
12   0.137529
13   0.146369
14   0.139111
15   0.145841
16   0.153587
17   0.344553
18   0.355286
19   0.350568

$$$$

