PCCDB-ID:  28458
public computational chemistry database (PCCDB) project, http://pccdb.org

 35 34  0  0  1  0  0  0  0  0999 V2000
    0.6981    2.0025    1.5767 C   0  0  0  0  0  0  0  0  0  0  0  0
   10.1332   -1.6731   -0.0156 C   0  0  0  0  0  0  0  0  0  0  0  0
    3.5393    2.3637    2.8307 C   0  0  0  0  0  0  0  0  0  0  0  0
    8.7564    0.3298    1.9587 C   0  0  0  0  0  0  0  0  0  0  0  0
    1.7604    0.9070    1.7249 C   0  0  0  0  0  0  0  0  0  0  0  0
    8.7164   -1.8013    0.5560 C   0  0  0  0  0  0  0  0  0  0  0  0
    5.6568    0.5313    1.3609 C   0  0  0  0  0  0  0  0  0  0  0  0
    4.1858    0.1953    1.6484 C   0  0  0  0  0  0  0  0  0  0  0  0
    6.5389   -0.7214    1.2550 C   0  0  0  0  0  0  0  0  0  0  0  0
    3.2220    1.4003    1.6757 C   0  0  2  0  0  0  0  0  0  0  0  0
    8.0125   -0.4652    0.8737 C   0  0  1  0  0  0  0  0  0  0  0  0
   -0.3074    1.5681    1.5368 H   0  0  0  0  0  0  0  0  0  0  0  0
    0.8481    2.5758    0.6531 H   0  0  0  0  0  0  0  0  0  0  0  0
    0.7148    2.7100    2.4128 H   0  0  0  0  0  0  0  0  0  0  0  0
   10.5327   -2.6562   -0.2903 H   0  0  0  0  0  0  0  0  0  0  0  0
   10.8301   -1.2277    0.7026 H   0  0  0  0  0  0  0  0  0  0  0  0
   10.1414   -1.0488   -0.9180 H   0  0  0  0  0  0  0  0  0  0  0  0
    2.8835    3.2406    2.8201 H   0  0  0  0  0  0  0  0  0  0  0  0
    4.5694    2.7315    2.7808 H   0  0  0  0  0  0  0  0  0  0  0  0
    3.4108    1.8629    3.7999 H   0  0  0  0  0  0  0  0  0  0  0  0
    9.7892    0.5467    1.6664 H   0  0  0  0  0  0  0  0  0  0  0  0
    8.7876   -0.2350    2.9004 H   0  0  0  0  0  0  0  0  0  0  0  0
    8.2708    1.2897    2.1629 H   0  0  0  0  0  0  0  0  0  0  0  0
    1.6181    0.1684    0.9237 H   0  0  0  0  0  0  0  0  0  0  0  0
    1.5985    0.3642    2.6684 H   0  0  0  0  0  0  0  0  0  0  0  0
    8.7441   -2.4158    1.4684 H   0  0  0  0  0  0  0  0  0  0  0  0
    8.0967   -2.3559   -0.1625 H   0  0  0  0  0  0  0  0  0  0  0  0
    6.0455    1.1944    2.1428 H   0  0  0  0  0  0  0  0  0  0  0  0
    5.7203    1.0970    0.4187 H   0  0  0  0  0  0  0  0  0  0  0  0
    4.1157   -0.3400    2.6082 H   0  0  0  0  0  0  0  0  0  0  0  0
    3.8355   -0.5128    0.8829 H   0  0  0  0  0  0  0  0  0  0  0  0
    6.0976   -1.3944    0.5051 H   0  0  0  0  0  0  0  0  0  0  0  0
    6.5067   -1.2709    2.2088 H   0  0  0  0  0  0  0  0  0  0  0  0
    3.3519    1.9510    0.7295 H   0  0  0  0  0  0  0  0  0  0  0  0
    8.0162    0.1368   -0.0500 H   0  0  0  0  0  0  0  0  0  0  0  0
  1  5  1  0  0  0  0
  1 14  1  0  0  0  0
  2  6  1  0  0  0  0
  2 16  1  0  0  0  0
  3 20  1  0  0  0  0
  4 23  1  0  0  0  0
  4 22  1  0  0  0  0
  5 25  1  0  0  0  0
  6 11  1  0  0  0  0
  6 26  1  0  0  0  0
  7  8  1  0  0  0  0
  7 28  1  0  0  0  0
  8 10  1  0  0  0  0
  8 30  1  0  0  0  0
  9  7  1  0  0  0  0
  9 33  1  0  0  0  0
 10 34  1  6  0  0  0
 10  5  1  0  0  0  0
 10  3  1  0  0  0  0
 11 35  1  6  0  0  0
 11  9  1  0  0  0  0
 11  4  1  0  0  0  0
 12  1  1  0  0  0  0
 13  1  1  0  0  0  0
 15  2  1  0  0  0  0
 17  2  1  0  0  0  0
 18  3  1  0  0  0  0
 19  3  1  0  0  0  0
 21  4  1  0  0  0  0
 24  5  1  0  0  0  0
 27  6  1  0  0  0  0
 29  7  1  0  0  0  0
 31  8  1  0  0  0  0
 32  9  1  0  0  0  0
M  END
>  <HBA>
0

>  <HBD>
0

>  <TPSA>
0.0

>  <cid>
28458

>  <dipole>
0.08

>  <excitation_energy_1>
7.433

>  <excitation_energy_2>
7.699

>  <excitation_energy_3>
7.745

>  <excitation_energy_4>
7.869

>  <homo_energy>
-7.818

>  <homo_lumo_gap>
10.096

>  <logP>
4.249

>  <lumo_energy>
2.278

>  <melting_point>
-29.88

>  <molecular_refractivity>
54.99

>  <oscillator_strength_1>
0.0003

>  <oscillator_strength_2>
0.0003

>  <oscillator_strength_3>
0.0006

>  <oscillator_strength_4>
0.0182

>  <open_babel_can_smiles>
CC[C@H](CCC[C@H](CC)C)C

>  <mulliken_charges>
35
1   -0.44823
2   -0.448228
3   -0.453898
4   -0.453798
5   -0.24603
6   -0.246235
7   -0.266849
8   -0.25279
9   -0.253068
10   -0.062657
11   -0.062885
12   0.141258
13   0.140126
14   0.145593
15   0.141308
16   0.145579
17   0.140174
18   0.143925
19   0.144606
20   0.136386
21   0.143916
22   0.13644
23   0.144666
24   0.12742
25   0.126072
26   0.126088
27   0.127504
28   0.137137
29   0.12484
30   0.12322
31   0.123613
32   0.123688
33   0.123294
34   0.11389
35   0.113925

>  <lowdin_charges>
35
1   -0.446907
2   -0.448326
3   -0.447976
4   -0.447493
5   -0.274247
6   -0.275058
7   -0.279638
8   -0.275452
9   -0.275884
10   -0.123513
11   -0.123731
12   0.149023
13   0.145814
14   0.147815
15   0.149534
16   0.148474
17   0.14584
18   0.149648
19   0.147985
20   0.144109
21   0.148289
22   0.144339
23   0.148819
24   0.14006
25   0.137475
26   0.137666
27   0.140918
28   0.141833
29   0.136575
30   0.136265
31   0.138713
32   0.138956
33   0.13633
34   0.131802
35   0.131943

$$$$

