PCCDB-ID:  16583
public computational chemistry database (PCCDB) project, http://pccdb.org

 38 38  0  0  0  0  0  0  0  0999 V2000
    0.5813   -1.4975   -1.7256 C   0  0  0  0  0  0  0  0  0  0  0  0
    3.2052   -1.4183   -4.3386 C   0  0  0  0  0  0  0  0  0  0  0  0
    7.6188   -0.5577    2.1814 C   0  0  0  0  0  0  0  0  0  0  0  0
    1.9293   -0.7872   -1.5944 C   0  0  0  0  0  0  0  0  0  0  0  0
    3.1390   -2.3372   -3.1062 C   0  0  0  0  0  0  0  0  0  0  0  0
    9.8904   -1.6454   -2.2294 C   0  0  0  0  0  0  0  0  0  0  0  0
    8.7189   -2.1473   -2.7975 C   0  0  0  0  0  0  0  0  0  0  0  0
    9.8481   -1.1500   -0.9327 C   0  0  0  0  0  0  0  0  0  0  0  0
    7.5274   -2.1512   -2.0762 C   0  0  0  0  0  0  0  0  0  0  0  0
    4.3540   -1.1236   -1.3581 C   0  0  0  0  0  0  0  0  0  0  0  0
    5.1136   -2.1584   -0.5166 C   0  0  0  0  0  0  0  0  0  0  0  0
    8.7921   -0.5747    1.2207 C   0  0  0  0  0  0  0  0  0  0  0  0
    8.6679   -1.1414   -0.1707 C   0  0  0  0  0  0  0  0  0  0  0  0
    7.4865   -1.6544   -0.7639 C   0  0  0  0  0  0  0  0  0  0  0  0
    3.0741   -1.6812   -1.7949 N   0  0  0  0  0  0  0  0  0  0  0  0
    9.8696   -0.1219    1.5858 O   0  0  0  0  0  0  0  0  0  0  0  0
    6.3508   -1.6439   -0.0101 O   0  0  0  0  0  0  0  0  0  0  0  0
   -0.2271   -0.8155   -1.4399 H   0  0  0  0  0  0  0  0  0  0  0  0
    0.5439   -2.3743   -1.0702 H   0  0  0  0  0  0  0  0  0  0  0  0
    0.3811   -1.8278   -2.7506 H   0  0  0  0  0  0  0  0  0  0  0  0
    3.3013   -2.0206   -5.2494 H   0  0  0  0  0  0  0  0  0  0  0  0
    4.0639   -0.7384   -4.2982 H   0  0  0  0  0  0  0  0  0  0  0  0
    2.3003   -0.8095   -4.4400 H   0  0  0  0  0  0  0  0  0  0  0  0
    7.2144   -1.5634    2.3321 H   0  0  0  0  0  0  0  0  0  0  0  0
    6.7976    0.0491    1.7867 H   0  0  0  0  0  0  0  0  0  0  0  0
    7.9684   -0.1445    3.1298 H   0  0  0  0  0  0  0  0  0  0  0  0
    2.0125   -0.3904   -0.5759 H   0  0  0  0  0  0  0  0  0  0  0  0
    1.9484    0.0896   -2.2691 H   0  0  0  0  0  0  0  0  0  0  0  0
    4.0183   -2.9934   -3.0977 H   0  0  0  0  0  0  0  0  0  0  0  0
    2.2753   -3.0053   -3.2002 H   0  0  0  0  0  0  0  0  0  0  0  0
   10.8196   -1.6401   -2.7911 H   0  0  0  0  0  0  0  0  0  0  0  0
    8.7236   -2.5388   -3.8116 H   0  0  0  0  0  0  0  0  0  0  0  0
   10.7363   -0.7482   -0.4569 H   0  0  0  0  0  0  0  0  0  0  0  0
    6.6307   -2.5385   -2.5440 H   0  0  0  0  0  0  0  0  0  0  0  0
    4.9810   -0.7793   -2.1953 H   0  0  0  0  0  0  0  0  0  0  0  0
    4.1795   -0.2447   -0.7287 H   0  0  0  0  0  0  0  0  0  0  0  0
    5.2770   -3.0924   -1.0662 H   0  0  0  0  0  0  0  0  0  0  0  0
    4.5246   -2.3985    0.3716 H   0  0  0  0  0  0  0  0  0  0  0  0
  1  4  1  0  0  0  0
  1 18  1  0  0  0  0
  1 19  1  0  0  0  0
  2 22  1  0  0  0  0
  2  5  1  0  0  0  0
  3 24  1  0  0  0  0
  3 26  1  0  0  0  0
  4 27  1  0  0  0  0
  5 29  1  0  0  0  0
  5 15  1  0  0  0  0
  6  8  1  0  0  0  0
  7  6  2  0  0  0  0
  7  9  1  0  0  0  0
  8 33  1  0  0  0  0
  8 13  2  0  0  0  0
  9 14  2  0  0  0  0
 10 36  1  0  0  0  0
 10 11  1  0  0  0  0
 11 17  1  0  0  0  0
 11 38  1  0  0  0  0
 12 16  2  0  0  0  0
 12  3  1  0  0  0  0
 13 12  1  0  0  0  0
 14 13  1  0  0  0  0
 14 17  1  0  0  0  0
 15  4  1  0  0  0  0
 15 10  1  0  0  0  0
 20  1  1  0  0  0  0
 21  2  1  0  0  0  0
 23  2  1  0  0  0  0
 25  3  1  0  0  0  0
 28  4  1  0  0  0  0
 30  5  1  0  0  0  0
 31  6  1  0  0  0  0
 32  7  1  0  0  0  0
 34  9  1  0  0  0  0
 35 10  1  0  0  0  0
 37 11  1  0  0  0  0
M  END
>  <HBA>
3

>  <HBD>
0

>  <TPSA>
29.54

>  <cid>
16583

>  <dipole>
5.19

>  <excitation_energy_1>
3.785

>  <excitation_energy_2>
3.926

>  <excitation_energy_3>
4.347

>  <excitation_energy_4>
5.002

>  <homo_energy>
-5.761

>  <homo_lumo_gap>
4.566

>  <logP>
2.61

>  <lumo_energy>
-1.195

>  <melting_point>
43.64

>  <molecular_refractivity>
70.06

>  <oscillator_strength_1>
0.0001

>  <oscillator_strength_2>
0.0408

>  <oscillator_strength_3>
0.0705

>  <oscillator_strength_4>
0.0034

>  <open_babel_can_smiles>
CCN(CCOc1ccccc1C(=O)C)CC

>  <mulliken_charges>
38
1   -0.456486
2   -0.45907
3   -0.511067
4   -0.115008
5   -0.143245
6   -0.130497
7   -0.131446
8   -0.171956
9   -0.190863
10   -0.162027
11   -0.034234
12   0.410115
13   0.02395
14   0.320637
15   -0.382412
16   -0.460746
17   -0.534122
18   0.147284
19   0.15637
20   0.149474
21   0.146516
22   0.151343
23   0.152948
24   0.169352
25   0.168021
26   0.164671
27   0.141036
28   0.119902
29   0.136454
30   0.149423
31   0.132462
32   0.134663
33   0.168092
34   0.136437
35   0.143139
36   0.150802
37   0.147697
38   0.16239

>  <lowdin_charges>
38
1   -0.452264
2   -0.466445
3   -0.469912
4   -0.195932
5   -0.204274
6   -0.179891
7   -0.129541
8   -0.118815
9   -0.218506
10   -0.217261
11   -0.138107
12   0.167955
13   -0.083582
14   0.112718
15   -0.192141
16   -0.255725
17   -0.192414
18   0.156391
19   0.155386
20   0.14846
21   0.155216
22   0.150771
23   0.151841
24   0.169901
25   0.171109
26   0.164977
27   0.144427
28   0.120433
29   0.140596
30   0.14772
31   0.160533
32   0.158939
33   0.180176
34   0.162744
35   0.138099
36   0.153422
37   0.143199
38   0.159797

$$$$

