PCCDB-ID:  68352
public computational chemistry database (PCCDB) project, http://pccdb.org

 13 13  0  0  0  0  0  0  0  0999 V2000
    1.1297    0.0017   -0.3149 C   0  0  0  0  0  0  0  0  0  0  0  0
    3.2157   -1.3868    0.2942 C   0  0  0  0  0  0  0  0  0  0  0  0
    4.5944   -0.8277    0.7302 C   0  0  0  0  0  0  0  0  0  0  0  0
    2.3988   -0.1412    0.0681 C   0  0  0  0  0  0  0  0  0  0  0  0
    3.2640    1.0452    0.3508 C   0  0  0  0  0  0  0  0  0  0  0  0
    2.9807    2.2156    0.2850 O   0  0  0  0  0  0  0  0  0  0  0  0
    4.5041    0.6105    0.7183 O   0  0  0  0  0  0  0  0  0  0  0  0
    0.4831   -0.8455   -0.5260 H   0  0  0  0  0  0  0  0  0  0  0  0
    0.7129    0.9990   -0.4242 H   0  0  0  0  0  0  0  0  0  0  0  0
    2.7810   -2.0264    1.0698 H   0  0  0  0  0  0  0  0  0  0  0  0
    3.2998   -1.9914   -0.6153 H   0  0  0  0  0  0  0  0  0  0  0  0
    5.4005   -1.1135    0.0487 H   0  0  0  0  0  0  0  0  0  0  0  0
    4.8714   -1.1331    1.7433 H   0  0  0  0  0  0  0  0  0  0  0  0
  1  4  2  0  0  0  0
  2  3  1  0  0  0  0
  2 10  1  0  0  0  0
  3 13  1  0  0  0  0
  4  2  1  0  0  0  0
  4  5  1  0  0  0  0
  5  7  1  0  0  0  0
  6  5  2  0  0  0  0
  7  3  1  0  0  0  0
  8  1  1  0  0  0  0
  9  1  1  0  0  0  0
 11  2  1  0  0  0  0
 12  3  1  0  0  0  0
M  END
>  <HBA>
2

>  <HBD>
0

>  <TPSA>
26.3

>  <cid>
68352

>  <dipole>
4.66

>  <excitation_energy_1>
4.552

>  <excitation_energy_2>
5.911

>  <excitation_energy_3>
5.983

>  <excitation_energy_4>
6.875

>  <homo_energy>
-7.301

>  <homo_lumo_gap>
6.008

>  <logP>
0.489

>  <lumo_energy>
-1.293

>  <melting_point>
-8.06

>  <molecular_refractivity>
24.85

>  <oscillator_strength_1>
0.0

>  <oscillator_strength_2>
0.2669

>  <oscillator_strength_3>
0.0439

>  <oscillator_strength_4>
0.0079

>  <open_babel_can_smiles>
C=C1CCOC1=O

>  <mulliken_charges>
13
1   -0.381073
2   -0.386986
3   -0.039304
4   0.125232
5   0.582061
6   -0.463237
7   -0.456263
8   0.154253
9   0.182535
10   0.177031
11   0.177173
12   0.164306
13   0.164271

>  <lowdin_charges>
13
1   -0.284602
2   -0.296372
3   -0.124466
4   -0.048668
5   0.18413
6   -0.238734
7   -0.188934
8   0.167575
9   0.183375
10   0.169419
11   0.168509
12   0.155296
13   0.153473

$$$$

