PCCDB-ID:  61656
public computational chemistry database (PCCDB) project, http://pccdb.org

 17 16  0  0  0  0  0  0  0  0999 V2000
    3.8012    0.4345   -0.7852 C   0  0  0  0  0  0  0  0  0  0  0  0
    2.6721   -3.4207    2.6299 C   0  0  0  0  0  0  0  0  0  0  0  0
    2.5272    0.1620    0.0105 C   0  0  0  0  0  0  0  0  0  0  0  0
    1.5748   -0.8609    2.1983 C   0  0  0  0  0  0  0  0  0  0  0  0
    2.7861   -0.3857    1.4060 C   0  0  0  0  0  0  0  0  0  0  0  0
    3.9057   -0.4749    1.8795 O   0  0  0  0  0  0  0  0  0  0  0  0
    1.2335   -2.6329    1.8204 S   0  0  0  0  0  0  0  0  0  0  0  0
    3.5609    0.8525   -1.7682 H   0  0  0  0  0  0  0  0  0  0  0  0
    4.3733   -0.4867   -0.9334 H   0  0  0  0  0  0  0  0  0  0  0  0
    4.4495    1.1390   -0.2563 H   0  0  0  0  0  0  0  0  0  0  0  0
    2.6166   -4.4860    2.3908 H   0  0  0  0  0  0  0  0  0  0  0  0
    2.6260   -3.2934    3.7153 H   0  0  0  0  0  0  0  0  0  0  0  0
    3.6100   -3.0097    2.2508 H   0  0  0  0  0  0  0  0  0  0  0  0
    1.8655   -0.5397   -0.5152 H   0  0  0  0  0  0  0  0  0  0  0  0
    1.9348    1.0829    0.1308 H   0  0  0  0  0  0  0  0  0  0  0  0
    0.6632   -0.3233    1.9195 H   0  0  0  0  0  0  0  0  0  0  0  0
    1.7588   -0.7404    3.2697 H   0  0  0  0  0  0  0  0  0  0  0  0
  1 10  1  0  0  0  0
  1  3  1  0  0  0  0
  2 12  1  0  0  0  0
  3 15  1  0  0  0  0
  3  5  1  0  0  0  0
  4 17  1  0  0  0  0
  5  6  2  0  0  0  0
  5  4  1  0  0  0  0
  7  4  1  0  0  0  0
  7  2  1  0  0  0  0
  8  1  1  0  0  0  0
  9  1  1  0  0  0  0
 11  2  1  0  0  0  0
 13  2  1  0  0  0  0
 14  3  1  0  0  0  0
 16  4  1  0  0  0  0
M  END
>  <HBA>
2

>  <HBD>
0

>  <TPSA>
42.37

>  <cid>
61656

>  <dipole>
1.17

>  <excitation_energy_1>
3.992

>  <excitation_energy_2>
4.754

>  <excitation_energy_3>
5.32

>  <excitation_energy_4>
5.593

>  <homo_energy>
-6.112

>  <homo_lumo_gap>
5.402

>  <logP>
1.329

>  <lumo_energy>
-0.71

>  <melting_point>
4.46

>  <molecular_refractivity>
33.94

>  <oscillator_strength_1>
0.0124

>  <oscillator_strength_2>
0.0055

>  <oscillator_strength_3>
0.0068

>  <oscillator_strength_4>
0.0002

>  <open_babel_can_smiles>
CSCC(=O)CC

>  <mulliken_charges>
17
1   -0.434612
2   -0.589352
3   -0.353619
4   -0.494659
5   0.466238
6   -0.444201
7   0.099872
8   0.141953
9   0.160001
10   0.163279
11   0.183278
12   0.181537
13   0.208013
14   0.176171
15   0.159108
16   0.182753
17   0.194239

>  <lowdin_charges>
17
1   -0.440826
2   -0.542821
3   -0.309528
4   -0.406211
5   0.158049
6   -0.24281
7   0.117074
8   0.151153
9   0.158517
10   0.161242
11   0.175048
12   0.162975
13   0.177592
14   0.170338
15   0.162027
16   0.175127
17   0.173057

$$$$

