PCCDB-ID:  44228
public computational chemistry database (PCCDB) project, http://pccdb.org

 34 34  0  0  0  0  0  0  0  0999 V2000
    1.1592    1.7305   -2.7324 C   0  0  0  0  0  0  0  0  0  0  0  0
    1.6772    0.4157   -2.1387 C   0  0  0  0  0  0  0  0  0  0  0  0
   11.4727    3.5721    1.7748 C   0  0  0  0  0  0  0  0  0  0  0  0
   10.3185    4.3541    1.8621 C   0  0  0  0  0  0  0  0  0  0  0  0
   11.3990    2.3229    1.1559 C   0  0  0  0  0  0  0  0  0  0  0  0
    9.1121    3.8971    1.3380 C   0  0  0  0  0  0  0  0  0  0  0  0
   10.1967    1.8499    0.6318 C   0  0  0  0  0  0  0  0  0  0  0  0
    4.3014   -0.0713   -0.6767 C   0  0  0  0  0  0  0  0  0  0  0  0
    5.3108    1.0986   -0.6476 C   0  0  0  0  0  0  0  0  0  0  0  0
    9.0417    2.6394    0.7184 C   0  0  0  0  0  0  0  0  0  0  0  0
    2.9504    0.3483   -0.1181 C   0  0  0  0  0  0  0  0  0  0  0  0
    6.6905    0.7179   -1.1124 C   0  0  0  0  0  0  0  0  0  0  0  0
    1.8490    0.5467   -0.7059 N   0  0  0  0  0  0  0  0  0  0  0  0
    7.7933    2.1796    0.2583 N   0  0  0  0  0  0  0  0  0  0  0  0
    7.8139    1.1857   -0.7187 N   0  0  0  0  0  0  0  0  0  0  0  0
    2.9598    0.5852    1.2368 O   0  0  0  0  0  0  0  0  0  0  0  0
    6.7032   -0.2408   -2.0772 O   0  0  0  0  0  0  0  0  0  0  0  0
    0.9456    1.6145   -3.8012 H   0  0  0  0  0  0  0  0  0  0  0  0
    1.8996    2.5301   -2.6147 H   0  0  0  0  0  0  0  0  0  0  0  0
    0.2432    2.0433   -2.2218 H   0  0  0  0  0  0  0  0  0  0  0  0
    2.5844    0.1048   -2.6820 H   0  0  0  0  0  0  0  0  0  0  0  0
    0.9258   -0.3676   -2.3088 H   0  0  0  0  0  0  0  0  0  0  0  0
   12.4128    3.9318    2.1826 H   0  0  0  0  0  0  0  0  0  0  0  0
   10.3554    5.3312    2.3370 H   0  0  0  0  0  0  0  0  0  0  0  0
   12.2880    1.7019    1.0789 H   0  0  0  0  0  0  0  0  0  0  0  0
    8.2184    4.5145    1.4096 H   0  0  0  0  0  0  0  0  0  0  0  0
   10.1401    0.8822    0.1481 H   0  0  0  0  0  0  0  0  0  0  0  0
    4.6910   -0.9062   -0.0781 H   0  0  0  0  0  0  0  0  0  0  0  0
    4.2038   -0.4463   -1.6952 H   0  0  0  0  0  0  0  0  0  0  0  0
    5.4020    1.5025    0.3674 H   0  0  0  0  0  0  0  0  0  0  0  0
    4.9230    1.9158   -1.2729 H   0  0  0  0  0  0  0  0  0  0  0  0
    7.1371    2.9336    0.0763 H   0  0  0  0  0  0  0  0  0  0  0  0
    3.7913    0.2589    1.6137 H   0  0  0  0  0  0  0  0  0  0  0  0
    7.6415   -0.3967   -2.2927 H   0  0  0  0  0  0  0  0  0  0  0  0
  1 19  1  0  0  0  0
  1 20  1  0  0  0  0
  1  2  1  0  0  0  0
  2 13  1  0  0  0  0
  3  4  1  0  0  0  0
  3 23  1  0  0  0  0
  4 24  1  0  0  0  0
  5  3  2  0  0  0  0
  6 26  1  0  0  0  0
  6  4  2  0  0  0  0
  7 10  2  0  0  0  0
  7  5  1  0  0  0  0
  8  9  1  0  0  0  0
  8 11  1  0  0  0  0
  8 28  1  0  0  0  0
  9 30  1  0  0  0  0
 10  6  1  0  0  0  0
 11 16  1  0  0  0  0
 12 15  2  0  0  0  0
 12  9  1  0  0  0  0
 13 11  2  0  0  0  0
 14 10  1  0  0  0  0
 15 14  1  0  0  0  0
 16 33  1  0  0  0  0
 17 12  1  0  0  0  0
 18  1  1  0  0  0  0
 21  2  1  0  0  0  0
 22  2  1  0  0  0  0
 25  5  1  0  0  0  0
 27  7  1  0  0  0  0
 29  8  1  0  0  0  0
 31  9  1  0  0  0  0
 32 14  1  0  0  0  0
 34 17  1  0  0  0  0
M  END
>  <HBA>
5

>  <HBD>
3

>  <TPSA>
70.23

>  <cid>
44228

>  <dipole>
2.31

>  <excitation_energy_1>
4.385

>  <excitation_energy_2>
4.419

>  <excitation_energy_3>
4.679

>  <excitation_energy_4>
4.776

>  <homo_energy>
-5.304

>  <homo_lumo_gap>
5.252

>  <logP>
1.901

>  <lumo_energy>
-0.052

>  <melting_point>
131.69

>  <molecular_refractivity>
65.79

>  <oscillator_strength_1>
0.0415

>  <oscillator_strength_2>
0.0532

>  <oscillator_strength_3>
0.1156

>  <oscillator_strength_4>
0.2236

>  <open_babel_can_smiles>
CC/N=C(\CC/C(=N\Nc1ccccc1)/O)/O

>  <mulliken_charges>
34
1   -0.431588
2   -0.147406
3   -0.13377
4   -0.135798
5   -0.140625
6   -0.189612
7   -0.151822
8   -0.372085
9   -0.365367
10   0.346381
11   0.485692
12   0.544351
13   -0.403089
14   -0.549086
15   -0.352961
16   -0.585336
17   -0.602297
18   0.138439
19   0.138981
20   0.163728
21   0.114985
22   0.150032
23   0.122819
24   0.127001
25   0.12643
26   0.115505
27   0.139043
28   0.160306
29   0.193024
30   0.171218
31   0.184579
32   0.321247
33   0.40349
34   0.413594

>  <lowdin_charges>
34
1   -0.444343
2   -0.196808
3   -0.18296
4   -0.146405
5   -0.146753
6   -0.199669
7   -0.188919
8   -0.305554
9   -0.296156
10   0.052643
11   0.122798
12   0.106512
13   -0.19646
14   -0.224736
15   -0.168047
16   -0.37814
17   -0.366465
18   0.147376
19   0.146281
20   0.159387
21   0.12165
22   0.148879
23   0.155825
24   0.156182
25   0.156785
26   0.151519
27   0.165694
28   0.160289
29   0.173918
30   0.161724
31   0.17207
32   0.269078
33   0.351984
34   0.360821

$$$$

