PCCDB-ID:  70144
public computational chemistry database (PCCDB) project, http://pccdb.org

 20 20  0  0  0  0  0  0  0  0999 V2000
    1.5747    1.3871   -0.5672 C   0  0  0  0  0  0  0  0  0  0  0  0
    7.2471   -0.2176   -1.4266 C   0  0  0  0  0  0  0  0  0  0  0  0
    7.3331    1.6292    0.1371 C   0  0  0  0  0  0  0  0  0  0  0  0
    5.8618   -0.1597   -1.4129 C   0  0  0  0  0  0  0  0  0  0  0  0
    5.9418    1.6991    0.1636 C   0  0  0  0  0  0  0  0  0  0  0  0
    9.4735    0.6275   -0.6619 C   0  0  0  0  0  0  0  0  0  0  0  0
    3.0170    1.8238   -0.5105 C   0  0  0  0  0  0  0  0  0  0  0  0
    7.9967    0.6813   -0.6512 C   0  0  0  0  0  0  0  0  0  0  0  0
    5.2163    0.7995   -0.6224 C   0  0  0  0  0  0  0  0  0  0  0  0
   10.1337   -0.1630   -1.3098 O   0  0  0  0  0  0  0  0  0  0  0  0
    3.4134    2.9545   -0.3843 O   0  0  0  0  0  0  0  0  0  0  0  0
    3.8294    0.7207   -0.6344 O   0  0  0  0  0  0  0  0  0  0  0  0
    0.9298    2.2596   -0.4603 H   0  0  0  0  0  0  0  0  0  0  0  0
    1.3677    0.6675    0.2317 H   0  0  0  0  0  0  0  0  0  0  0  0
    1.3704    0.8861   -1.5190 H   0  0  0  0  0  0  0  0  0  0  0  0
    7.7731   -0.9500   -2.0310 H   0  0  0  0  0  0  0  0  0  0  0  0
    7.9131    2.3233    0.7414 H   0  0  0  0  0  0  0  0  0  0  0  0
    5.2589   -0.8442   -2.0009 H   0  0  0  0  0  0  0  0  0  0  0  0
    5.4336    2.4386    0.7659 H   0  0  0  0  0  0  0  0  0  0  0  0
    9.9692    1.3850   -0.0143 H   0  0  0  0  0  0  0  0  0  0  0  0
  1  7  1  0  0  0  0
  1 13  1  0  0  0  0
  1 14  1  0  0  0  0
  2  4  2  0  0  0  0
  2  8  1  0  0  0  0
  3  5  1  0  0  0  0
  3 17  1  0  0  0  0
  4  9  1  0  0  0  0
  5 19  1  0  0  0  0
  6  8  1  0  0  0  0
  6 20  1  0  0  0  0
  7 11  2  0  0  0  0
  8  3  2  0  0  0  0
  9  5  2  0  0  0  0
 10  6  2  0  0  0  0
 12  9  1  0  0  0  0
 12  7  1  0  0  0  0
 15  1  1  0  0  0  0
 16  2  1  0  0  0  0
 18  4  1  0  0  0  0
M  END
>  <HBA>
3

>  <HBD>
0

>  <TPSA>
43.37

>  <cid>
70144

>  <dipole>
3.74

>  <excitation_energy_1>
3.698

>  <excitation_energy_2>
4.702

>  <excitation_energy_3>
4.815

>  <excitation_energy_4>
5.26

>  <homo_energy>
-6.928

>  <homo_lumo_gap>
5.176

>  <logP>
1.424

>  <lumo_energy>
-1.752

>  <melting_point>
63.92

>  <molecular_refractivity>
43.33

>  <oscillator_strength_1>
0.0001

>  <oscillator_strength_2>
0.0124

>  <oscillator_strength_3>
0.4214

>  <oscillator_strength_4>
0.0031

>  <open_babel_can_smiles>
O=Cc1ccc(cc1)OC(=O)C

>  <mulliken_charges>
20
1   -0.525962
2   -0.165575
3   -0.195794
4   -0.169189
5   -0.14731
6   0.192663
7   0.594704
8   0.103731
9   0.35561
10   -0.408747
11   -0.437367
12   -0.509666
13   0.18949
14   0.189463
15   0.189847
16   0.168495
17   0.147568
18   0.15119
19   0.173832
20   0.10302

>  <lowdin_charges>
20
1   -0.462816
2   -0.119994
3   -0.13489
4   -0.170134
5   -0.175579
6   0.045166
7   0.213193
8   -0.062295
9   0.121108
10   -0.22995
11   -0.232815
12   -0.161461
13   0.180086
14   0.182957
15   0.182557
16   0.18025
17   0.167076
18   0.173739
19   0.184818
20   0.118984

$$$$

