PCCDB-ID:  26875
public computational chemistry database (PCCDB) project, http://pccdb.org

 22 23  0  0  0  0  0  0  0  0999 V2000
    1.1348   -0.0384   -0.0867 C   0  0  0  0  0  0  0  0  0  0  0  0
    6.6069    2.5416    1.0906 C   0  0  0  0  0  0  0  0  0  0  0  0
    7.2928    1.3250    1.1059 C   0  0  0  0  0  0  0  0  0  0  0  0
    5.2245    2.5552    0.9102 C   0  0  0  0  0  0  0  0  0  0  0  0
    6.5890    0.1322    0.9461 C   0  0  0  0  0  0  0  0  0  0  0  0
    3.0096    1.3626    0.5611 C   0  0  0  0  0  0  0  0  0  0  0  0
    4.4159   -1.1411    0.5887 C   0  0  0  0  0  0  0  0  0  0  0  0
    4.5139    1.3622    0.7457 C   0  0  0  0  0  0  0  0  0  0  0  0
    5.2022    0.1414    0.7701 C   0  0  0  0  0  0  0  0  0  0  0  0
    2.5817    0.1045   -0.0553 N   0  0  0  0  0  0  0  0  0  0  0  0
    3.0355   -0.9411    0.8537 O   0  0  0  0  0  0  0  0  0  0  0  0
    0.7298    0.7412   -0.7400 H   0  0  0  0  0  0  0  0  0  0  0  0
    0.6759    0.0528    0.9120 H   0  0  0  0  0  0  0  0  0  0  0  0
    0.8864   -1.0168   -0.5046 H   0  0  0  0  0  0  0  0  0  0  0  0
    7.1473    3.4762    1.2147 H   0  0  0  0  0  0  0  0  0  0  0  0
    8.3702    1.3057    1.2466 H   0  0  0  0  0  0  0  0  0  0  0  0
    4.6900    3.5031    0.8912 H   0  0  0  0  0  0  0  0  0  0  0  0
    7.1209   -0.8173    0.9639 H   0  0  0  0  0  0  0  0  0  0  0  0
    2.7087    2.1756   -0.1113 H   0  0  0  0  0  0  0  0  0  0  0  0
    2.5035    1.5249    1.5308 H   0  0  0  0  0  0  0  0  0  0  0  0
    4.7364   -1.9065    1.3045 H   0  0  0  0  0  0  0  0  0  0  0  0
    4.5499   -1.5376   -0.4293 H   0  0  0  0  0  0  0  0  0  0  0  0
  1 10  1  0  0  0  0
  1 13  1  0  0  0  0
  2  3  1  0  0  0  0
  2 15  1  0  0  0  0
  3 16  1  0  0  0  0
  4  2  2  0  0  0  0
  5 18  1  0  0  0  0
  5  3  2  0  0  0  0
  6  8  1  0  0  0  0
  6 20  1  0  0  0  0
  7  9  1  0  0  0  0
  7 11  1  0  0  0  0
  7 21  1  0  0  0  0
  8  9  2  0  0  0  0
  8  4  1  0  0  0  0
  9  5  1  0  0  0  0
 10  6  1  0  0  0  0
 10 11  1  0  0  0  0
 12  1  1  0  0  0  0
 14  1  1  0  0  0  0
 17  4  1  0  0  0  0
 19  6  1  0  0  0  0
 22  7  1  0  0  0  0
M  END
>  <HBA>
2

>  <HBD>
0

>  <TPSA>
12.47

>  <cid>
26875

>  <dipole>
0.82

>  <excitation_energy_1>
5.054

>  <excitation_energy_2>
5.116

>  <excitation_energy_3>
5.292

>  <excitation_energy_4>
5.743

>  <homo_energy>
-5.957

>  <homo_lumo_gap>
5.927

>  <logP>
1.502

>  <lumo_energy>
-0.03

>  <melting_point>
29.94

>  <molecular_refractivity>
46.96

>  <oscillator_strength_1>
0.0023

>  <oscillator_strength_2>
0.0022

>  <oscillator_strength_3>
0.0217

>  <oscillator_strength_4>
0.0083

>  <open_babel_can_smiles>
CN1OCc2c(C1)cccc2

>  <mulliken_charges>
22
1   -0.278367
2   -0.129833
3   -0.129632
4   -0.186772
5   -0.184549
6   -0.16202
7   -0.062696
8   0.11083
9   0.090227
10   -0.216125
11   -0.404831
12   0.152148
13   0.136323
14   0.167233
15   0.128001
16   0.128261
17   0.121995
18   0.122987
19   0.151542
20   0.141209
21   0.153657
22   0.150413

>  <lowdin_charges>
22
1   -0.360911
2   -0.158671
3   -0.154509
4   -0.162931
5   -0.163458
6   -0.208193
7   -0.133876
8   -0.011922
9   -0.024118
10   -0.062084
11   -0.231242
12   0.157422
13   0.133808
14   0.161448
15   0.15767
16   0.155397
17   0.154487
18   0.154801
19   0.157041
20   0.137437
21   0.157235
22   0.14517

$$$$

