PCCDB-ID:  20793
public computational chemistry database (PCCDB) project, http://pccdb.org

 30 30  0  0  0  0  0  0  0  0999 V2000
   -0.6637    0.0972   -3.5310 C   0  0  0  0  0  0  0  0  0  0  0  0
    0.5352   -0.6861   -2.9743 C   0  0  0  0  0  0  0  0  0  0  0  0
   -1.2399    1.0405   -2.4642 C   0  0  0  0  0  0  0  0  0  0  0  0
    1.6740   -0.3498    0.8407 C   0  0  0  0  0  0  0  0  0  0  0  0
    1.1462   -1.4935    1.7408 C   0  0  0  0  0  0  0  0  0  0  0  0
    0.1661   -1.3829   -1.6530 C   0  0  0  0  0  0  0  0  0  0  0  0
   -1.5378    0.2704   -1.1676 C   0  0  0  0  0  0  0  0  0  0  0  0
    0.6159    0.4080    0.0204 C   0  0  0  0  0  0  0  0  0  0  0  0
   -0.0312   -1.1177    2.6351 C   0  0  0  0  0  0  0  0  0  0  0  0
   -0.0121   -0.9415    3.8970 N   0  0  0  0  0  0  0  0  0  0  0  0
   -0.3790   -0.4723   -0.6248 N   0  0  0  0  0  0  0  0  0  0  0  0
   -1.2058   -0.9660    1.9808 O   0  0  0  0  0  0  0  0  0  0  0  0
   -1.4439   -0.6143   -3.8411 H   0  0  0  0  0  0  0  0  0  0  0  0
   -0.3764    0.6568   -4.4294 H   0  0  0  0  0  0  0  0  0  0  0  0
    1.3809   -0.0041   -2.8131 H   0  0  0  0  0  0  0  0  0  0  0  0
    0.8758   -1.4385   -3.6972 H   0  0  0  0  0  0  0  0  0  0  0  0
   -2.1623    1.5139   -2.8236 H   0  0  0  0  0  0  0  0  0  0  0  0
   -0.5307    1.8540   -2.2601 H   0  0  0  0  0  0  0  0  0  0  0  0
    2.4438   -0.7656    0.1786 H   0  0  0  0  0  0  0  0  0  0  0  0
    2.1835    0.3943    1.4655 H   0  0  0  0  0  0  0  0  0  0  0  0
    1.9703   -1.8516    2.3666 H   0  0  0  0  0  0  0  0  0  0  0  0
    0.8396   -2.3397    1.1123 H   0  0  0  0  0  0  0  0  0  0  0  0
    1.0307   -1.9112   -1.2391 H   0  0  0  0  0  0  0  0  0  0  0  0
   -0.6053   -2.1407   -1.8462 H   0  0  0  0  0  0  0  0  0  0  0  0
   -2.3289   -0.4675   -1.3611 H   0  0  0  0  0  0  0  0  0  0  0  0
   -1.9101    0.9386   -0.3835 H   0  0  0  0  0  0  0  0  0  0  0  0
    1.1339    1.0671   -0.6947 H   0  0  0  0  0  0  0  0  0  0  0  0
    0.0481    1.0603    0.6923 H   0  0  0  0  0  0  0  0  0  0  0  0
    0.9322   -1.1059    4.2505 H   0  0  0  0  0  0  0  0  0  0  0  0
   -1.0345   -1.0326    1.0049 H   0  0  0  0  0  0  0  0  0  0  0  0
  1  2  1  0  0  0  0
  1  3  1  0  0  0  0
  2 15  1  0  0  0  0
  2  6  1  0  0  0  0
  3 18  1  0  0  0  0
  3  7  1  0  0  0  0
  4 20  1  0  0  0  0
  4  5  1  0  0  0  0
  5 21  1  0  0  0  0
  5  9  1  0  0  0  0
  6 23  1  0  0  0  0
  6 11  1  0  0  0  0
  7 11  1  0  0  0  0
  7 26  1  0  0  0  0
  8 28  1  0  0  0  0
  8  4  1  0  0  0  0
  9 10  2  0  0  0  0
 10 29  1  0  0  0  0
 11  8  1  0  0  0  0
 12  9  1  0  0  0  0
 13  1  1  0  0  0  0
 14  1  1  0  0  0  0
 16  2  1  0  0  0  0
 17  3  1  0  0  0  0
 19  4  1  0  0  0  0
 22  5  1  0  0  0  0
 24  6  1  0  0  0  0
 25  7  1  0  0  0  0
 27  8  1  0  0  0  0
 30 12  1  0  0  0  0
M  END
>  <HBA>
3

>  <HBD>
1

>  <TPSA>
46.33

>  <cid>
20793

>  <dipole>
6.16

>  <excitation_energy_1>
5.462

>  <excitation_energy_2>
5.844

>  <excitation_energy_3>
5.861

>  <excitation_energy_4>
5.929

>  <homo_energy>
-6.362

>  <homo_lumo_gap>
7.456

>  <logP>
1.376

>  <lumo_energy>
1.094

>  <melting_point>
72.3

>  <molecular_refractivity>
52.98

>  <oscillator_strength_1>
0.0124

>  <oscillator_strength_2>
0.0048

>  <oscillator_strength_3>
0.0027

>  <oscillator_strength_4>
0.01

>  <open_babel_can_smiles>
OC(=N)CCCN1CCCCC1

>  <mulliken_charges>
30
1   -0.261303
2   -0.271055
3   -0.268647
4   -0.280052
5   -0.358146
6   -0.142196
7   -0.139419
8   -0.13706
9   0.481211
10   -0.599279
11   -0.449748
12   -0.618117
13   0.1332
14   0.13974
15   0.138713
16   0.139887
17   0.141797
18   0.139807
19   0.143846
20   0.153902
21   0.14659
22   0.15767
23   0.147364
24   0.145824
25   0.145682
26   0.158592
27   0.134703
28   0.16775
29   0.269795
30   0.438947

>  <lowdin_charges>
30
1   -0.279577
2   -0.294462
3   -0.292429
4   -0.2844
5   -0.314492
6   -0.210762
7   -0.209013
8   -0.218662
9   0.11787
10   -0.414387
11   -0.192041
12   -0.39048
13   0.141046
14   0.148083
15   0.142847
16   0.151492
17   0.15171
18   0.143583
19   0.14693
20   0.157958
21   0.157231
22   0.156517
23   0.150252
24   0.14686
25   0.146205
26   0.156479
27   0.13471
28   0.159126
29   0.246693
30   0.345111

$$$$

