PCCDB-ID:  67747
public computational chemistry database (PCCDB) project, http://pccdb.org

 31 31  0  0  0  0  0  0  0  0999 V2000
    2.4202    1.2158   -0.1295 C   0  0  0  0  0  0  0  0  0  0  0  0
    5.3996   -1.5167   -2.2949 C   0  0  0  0  0  0  0  0  0  0  0  0
    0.9282   -2.5236   -4.8609 C   0  0  0  0  0  0  0  0  0  0  0  0
    2.5007   -0.2905    0.1346 C   0  0  0  0  0  0  0  0  0  0  0  0
    4.5966   -0.6285   -1.3374 C   0  0  0  0  0  0  0  0  0  0  0  0
    0.4076   -1.9385   -3.5488 C   0  0  0  0  0  0  0  0  0  0  0  0
    3.2007   -2.5828   -0.4770 C   0  0  0  0  0  0  0  0  0  0  0  0
    2.2988   -1.0647   -2.2516 C   0  0  0  0  0  0  0  0  0  0  0  0
    1.3782   -3.2977   -1.7153 C   0  0  0  0  0  0  0  0  0  0  0  0
    3.1783   -1.1552   -0.9957 C   0  0  0  0  0  0  0  0  0  0  0  0
    2.3834   -3.5196   -0.7732 N   0  0  0  0  0  0  0  0  0  0  0  0
    1.3777   -2.0744   -2.4426 N   0  0  0  0  0  0  0  0  0  0  0  0
    4.1370   -2.8881    0.4421 O   0  0  0  0  0  0  0  0  0  0  0  0
    2.3689   -0.1017   -3.0037 O   0  0  0  0  0  0  0  0  0  0  0  0
    0.5277   -4.1325   -1.9464 O   0  0  0  0  0  0  0  0  0  0  0  0
    1.8685    1.6954    0.6864 H   0  0  0  0  0  0  0  0  0  0  0  0
    1.9073    1.4356   -1.0688 H   0  0  0  0  0  0  0  0  0  0  0  0
    3.4125    1.6761   -0.1714 H   0  0  0  0  0  0  0  0  0  0  0  0
    6.3786   -1.0692   -2.4953 H   0  0  0  0  0  0  0  0  0  0  0  0
    4.8823   -1.6203   -3.2543 H   0  0  0  0  0  0  0  0  0  0  0  0
    5.5676   -2.5202   -1.8884 H   0  0  0  0  0  0  0  0  0  0  0  0
    0.1721   -2.4054   -5.6451 H   0  0  0  0  0  0  0  0  0  0  0  0
    1.1398   -3.5916   -4.7508 H   0  0  0  0  0  0  0  0  0  0  0  0
    1.8379   -2.0082   -5.1844 H   0  0  0  0  0  0  0  0  0  0  0  0
    1.4940   -0.6916    0.3032 H   0  0  0  0  0  0  0  0  0  0  0  0
    3.0576   -0.4710    1.0638 H   0  0  0  0  0  0  0  0  0  0  0  0
    4.4673    0.3588   -1.7857 H   0  0  0  0  0  0  0  0  0  0  0  0
    5.1604   -0.4624   -0.4058 H   0  0  0  0  0  0  0  0  0  0  0  0
   -0.4983   -2.4537   -3.2291 H   0  0  0  0  0  0  0  0  0  0  0  0
    0.2039   -0.8721   -3.6554 H   0  0  0  0  0  0  0  0  0  0  0  0
    4.7258   -2.1283    0.5783 H   0  0  0  0  0  0  0  0  0  0  0  0
  1  4  1  0  0  0  0
  1 16  1  0  0  0  0
  2 21  1  0  0  0  0
  2  5  1  0  0  0  0
  3 23  1  0  0  0  0
  3  6  1  0  0  0  0
  4 25  1  0  0  0  0
  4 26  1  0  0  0  0
  5 10  1  0  0  0  0
  5 28  1  0  0  0  0
  6 29  1  0  0  0  0
  6 12  1  0  0  0  0
  7 13  1  0  0  0  0
  8 10  1  0  0  0  0
  9 11  1  0  0  0  0
 10  7  1  0  0  0  0
 10  4  1  0  0  0  0
 11  7  2  0  0  0  0
 12  8  1  0  0  0  0
 12  9  1  0  0  0  0
 13 31  1  0  0  0  0
 14  8  2  0  0  0  0
 15  9  2  0  0  0  0
 17  1  1  0  0  0  0
 18  1  1  0  0  0  0
 19  2  1  0  0  0  0
 20  2  1  0  0  0  0
 22  3  1  0  0  0  0
 24  3  1  0  0  0  0
 27  5  1  0  0  0  0
 30  6  1  0  0  0  0
M  END
>  <HBA>
5

>  <HBD>
1

>  <TPSA>
66.48

>  <cid>
67747

>  <dipole>
5.06

>  <excitation_energy_1>
4.475

>  <excitation_energy_2>
4.807

>  <excitation_energy_3>
5.056

>  <excitation_energy_4>
5.23

>  <homo_energy>
-7.208

>  <homo_lumo_gap>
5.758

>  <logP>
1.158

>  <lumo_energy>
-1.45

>  <melting_point>
116.37

>  <molecular_refractivity>
62.33

>  <oscillator_strength_1>
0.0006

>  <oscillator_strength_2>
0.0007

>  <oscillator_strength_3>
0.0079

>  <oscillator_strength_4>
0.0455

>  <open_babel_can_smiles>
CCN1C(=O)N=C(C(C1=O)(CC)CC)O

>  <mulliken_charges>
31
1   -0.45589
2   -0.467264
3   -0.453076
4   -0.265571
5   -0.301698
6   -0.142966
7   0.536113
8   0.641435
9   0.703596
10   -0.115809
11   -0.486675
12   -0.512116
13   -0.568478
14   -0.516284
15   -0.469527
16   0.154831
17   0.185436
18   0.15204
19   0.159746
20   0.173799
21   0.159658
22   0.152639
23   0.169641
24   0.1622
25   0.164497
26   0.141434
27   0.197234
28   0.120943
29   0.183653
30   0.172078
31   0.42438

>  <lowdin_charges>
31
1   -0.450444
2   -0.452963
3   -0.448779
4   -0.261327
5   -0.27665
6   -0.191785
7   0.16241
8   0.16565
9   0.186396
10   -0.053872
11   -0.185706
12   -0.090377
13   -0.321053
14   -0.283162
15   -0.247662
16   0.160071
17   0.169377
18   0.152292
19   0.160794
20   0.163119
21   0.153477
22   0.158987
23   0.159643
24   0.157576
25   0.157711
26   0.146349
27   0.177168
28   0.134111
29   0.171816
30   0.163539
31   0.363295

$$$$

