PCCDB-ID:  68037
public computational chemistry database (PCCDB) project, http://pccdb.org

 11 11  0  0  0  0  0  0  0  0999 V2000
   -0.6403    1.1563   -0.0007 C   0  0  0  0  0  0  0  0  0  0  0  0
   -1.3505   -0.0625   -0.0008 C   0  0  0  0  0  0  0  0  0  0  0  0
    0.6325   -1.1037    0.0032 C   0  0  0  0  0  0  0  0  0  0  0  0
    0.6866    1.1665    0.0012 N   0  0  0  0  0  0  0  0  0  0  0  0
   -0.7032   -1.2134    0.0016 N   0  0  0  0  0  0  0  0  0  0  0  0
    1.3629    0.0194    0.0031 N   0  0  0  0  0  0  0  0  0  0  0  0
   -2.6928   -0.1395   -0.0027 O   0  0  0  0  0  0  0  0  0  0  0  0
    1.3376   -2.2411    0.0054 O   0  0  0  0  0  0  0  0  0  0  0  0
   -1.1356    2.1243   -0.0022 H   0  0  0  0  0  0  0  0  0  0  0  0
   -3.0680    0.7564   -0.0066 H   0  0  0  0  0  0  0  0  0  0  0  0
    0.6917   -2.9697    0.0020 H   0  0  0  0  0  0  0  0  0  0  0  0
  1  4  2  0  0  0  0
  2  1  1  0  0  0  0
  2  5  2  0  0  0  0
  3  8  1  0  0  0  0
  4  6  1  0  0  0  0
  5  3  2  0  0  0  0
  6  3  1  0  0  0  0
  7  2  1  0  0  0  0
  9  1  1  0  0  0  0
 10  7  1  0  0  0  0
 11  8  1  0  0  0  0
M  RAD  1   6   2
M  END
>  <HBA>
3

>  <HBD>
2

>  <TPSA>
78.61

>  <cid>
68037

>  <dipole>
4.2

>  <excitation_energy_1>
3.492

>  <excitation_energy_2>
4.745

>  <excitation_energy_3>
4.93

>  <excitation_energy_4>
5.605

>  <homo_energy>
-6.672

>  <homo_lumo_gap>
4.882

>  <logP>
-1.542

>  <lumo_energy>
-1.791

>  <melting_point>
183.25

>  <molecular_refractivity>
25.48

>  <oscillator_strength_1>
0.0049

>  <oscillator_strength_2>
0.0006

>  <oscillator_strength_3>
0.0952

>  <oscillator_strength_4>
0.0073

>  <open_babel_can_smiles>
OC1=[N]=C(C=N[N]1)O

>  <mulliken_charges>
11
1   -0.033746
2   0.525185
3   0.661358
4   -0.21129
5   -0.500383
6   -0.29155
7   -0.583501
8   -0.569911
9   0.155009
10   0.424225
11   0.424603

>  <lowdin_charges>
11
1   -0.19819
2   0.14751
3   0.150461
4   -0.042164
5   -0.186085
6   -0.133865
7   -0.325806
8   -0.321953
9   0.169799
10   0.369191
11   0.371103

$$$$

