PCCDB-ID:  20973
public computational chemistry database (PCCDB) project, http://pccdb.org

 19 18  0  0  0  0  0  0  0  0999 V2000
    4.3793   -2.4702   -0.2705 C   0  0  0  0  0  0  0  0  0  0  0  0
    8.2570    3.5235    1.6745 C   0  0  0  0  0  0  0  0  0  0  0  0
    4.6957   -1.1819   -0.1238 C   0  0  0  0  0  0  0  0  0  0  0  0
    5.7222    1.3411    2.3403 C   0  0  0  0  0  0  0  0  0  0  0  0
    7.1923    1.1206    2.6902 C   0  0  0  0  0  0  0  0  0  0  0  0
    5.0697   -0.6407    1.2065 C   0  0  0  0  0  0  0  0  0  0  0  0
    5.1304   -1.2774    2.2406 O   0  0  0  0  0  0  0  0  0  0  0  0
    5.3355    0.6865    1.1198 O   0  0  0  0  0  0  0  0  0  0  0  0
    8.4111    1.7155    1.4577 S   0  0  0  0  0  0  0  0  0  0  0  0
    4.1040   -2.8840   -1.2358 H   0  0  0  0  0  0  0  0  0  0  0  0
    4.3912   -3.1405    0.5843 H   0  0  0  0  0  0  0  0  0  0  0  0
    9.0036    3.9814    1.0202 H   0  0  0  0  0  0  0  0  0  0  0  0
    8.4689    3.8185    2.7073 H   0  0  0  0  0  0  0  0  0  0  0  0
    7.2697    3.8914    1.3800 H   0  0  0  0  0  0  0  0  0  0  0  0
    4.6969   -0.4830   -0.9546 H   0  0  0  0  0  0  0  0  0  0  0  0
    5.5019    2.3972    2.1687 H   0  0  0  0  0  0  0  0  0  0  0  0
    5.0982    0.9695    3.1595 H   0  0  0  0  0  0  0  0  0  0  0  0
    7.3806    0.0497    2.8027 H   0  0  0  0  0  0  0  0  0  0  0  0
    7.3988    1.5920    3.6592 H   0  0  0  0  0  0  0  0  0  0  0  0
  1  3  2  0  0  0  0
  1 11  1  0  0  0  0
  2 13  1  0  0  0  0
  3  6  1  0  0  0  0
  4  5  1  0  0  0  0
  4 17  1  0  0  0  0
  5 18  1  0  0  0  0
  5 19  1  0  0  0  0
  6  7  2  0  0  0  0
  8  6  1  0  0  0  0
  8  4  1  0  0  0  0
  9  2  1  0  0  0  0
  9  5  1  0  0  0  0
 10  1  1  0  0  0  0
 12  2  1  0  0  0  0
 14  2  1  0  0  0  0
 15  3  1  0  0  0  0
 16  4  1  0  0  0  0
M  END
>  <HBA>
3

>  <HBD>
0

>  <TPSA>
51.6

>  <cid>
20973

>  <dipole>
1.94

>  <excitation_energy_1>
3.936

>  <excitation_energy_2>
4.772

>  <excitation_energy_3>
5.168

>  <excitation_energy_4>
5.516

>  <homo_energy>
-6.025

>  <homo_lumo_gap>
4.776

>  <logP>
1.079

>  <lumo_energy>
-1.249

>  <melting_point>
-25.75

>  <molecular_refractivity>
39.36

>  <oscillator_strength_1>
0.0033

>  <oscillator_strength_2>
0.0001

>  <oscillator_strength_3>
0.0009

>  <oscillator_strength_4>
0.0148

>  <open_babel_can_smiles>
CSCCOC(=O)C=C

>  <mulliken_charges>
19
1   -0.302146
2   -0.588838
3   -0.131053
4   -0.039649
5   -0.439653
6   0.609854
7   -0.495487
8   -0.459864
9   0.102956
10   0.158671
11   0.180672
12   0.187161
13   0.174613
14   0.177572
15   0.158277
16   0.157509
17   0.173838
18   0.206486
19   0.169084

>  <lowdin_charges>
19
1   -0.264656
2   -0.550179
3   -0.185164
4   -0.136196
5   -0.390419
6   0.200923
7   -0.276746
8   -0.184839
9   0.104877
10   0.169648
11   0.180289
12   0.17933
13   0.159422
14   0.159261
15   0.173417
16   0.152792
17   0.163409
18   0.182753
19   0.162079

$$$$

