PCCDB-ID:  6061
public computational chemistry database (PCCDB) project, http://pccdb.org

  9  8  0  0  0  0  0  0  0  0999 V2000
    0.9484   -0.0381   -0.0319 C   0  0  0  0  0  0  0  0  0  0  0  0
    2.9002   -0.8996    1.0120 N   0  0  0  0  0  0  0  0  0  0  0  0
    2.4097   -0.0459   -0.0950 N   0  0  0  0  0  0  0  0  0  0  0  0
    0.5754    0.7249   -0.7228 H   0  0  0  0  0  0  0  0  0  0  0  0
    0.5499    0.1541    0.9777 H   0  0  0  0  0  0  0  0  0  0  0  0
    0.5661   -1.0092   -0.3714 H   0  0  0  0  0  0  0  0  0  0  0  0
    3.9043   -0.9776    0.8271 H   0  0  0  0  0  0  0  0  0  0  0  0
    2.5548   -1.8322    0.7656 H   0  0  0  0  0  0  0  0  0  0  0  0
    2.7104    0.8870    0.1931 H   0  0  0  0  0  0  0  0  0  0  0  0
  1  5  1  0  0  0  0
  3  1  1  0  0  0  0
  3  9  1  0  0  0  0
  3  2  1  0  0  0  0
  4  1  1  0  0  0  0
  6  1  1  0  0  0  0
  7  2  1  0  0  0  0
  8  2  1  0  0  0  0
M  END
>  <HBA>
2

>  <HBD>
2

>  <TPSA>
38.05

>  <cid>
6061

>  <dipole>
0.29

>  <excitation_energy_1>
4.791

>  <excitation_energy_2>
5.575

>  <excitation_energy_3>
5.726

>  <excitation_energy_4>
6.293

>  <homo_energy>
-5.282

>  <homo_lumo_gap>
7.445

>  <logP>
0.171

>  <lumo_energy>
2.163

>  <melting_point>
58.19

>  <molecular_refractivity>
12.43

>  <oscillator_strength_1>
0.0026

>  <oscillator_strength_2>
0.0166

>  <oscillator_strength_3>
0.0129

>  <oscillator_strength_4>
0.0649

>  <open_babel_can_smiles>
CNN

>  <mulliken_charges>
9
1   -0.300622
2   -0.599416
3   -0.451529
4   0.15108
5   0.140085
6   0.146201
7   0.303917
8   0.301691
9   0.308594

>  <lowdin_charges>
9
1   -0.369379
2   -0.496796
3   -0.32016
4   0.154872
5   0.132448
6   0.143862
7   0.25142
8   0.251161
9   0.252571

$$$$

