PCCDB-ID:  17367
public computational chemistry database (PCCDB) project, http://pccdb.org

 22 22  0  0  1  0  0  0  0  0999 V2000
    0.6994    1.2827   -0.1875 C   0  0  0  0  0  0  0  0  0  0  0  0
    1.4592    0.0308    0.2734 C   0  0  0  0  0  0  0  0  0  0  0  0
   -1.4629   -0.0283   -0.1907 C   0  0  0  0  0  0  0  0  0  0  0  0
   -0.7032   -1.2802    0.2703 C   0  0  0  0  0  0  0  0  0  0  0  0
   -2.0361    3.3947    0.2008 C   0  0  0  0  0  0  0  0  0  0  0  0
    2.0492   -3.3820   -0.1177 C   0  0  0  0  0  0  0  0  0  0  0  0
   -0.7643    1.2566    0.2826 C   0  0  2  0  0  0  0  0  0  0  0  0
    0.7605   -1.2543   -0.1996 C   0  0  2  0  0  0  0  0  0  0  0  0
   -1.4696    2.4204   -0.2326 N   0  0  0  0  0  0  0  0  0  0  0  0
    1.4649   -2.4184    0.3162 N   0  0  0  0  0  0  0  0  0  0  0  0
   -2.6146    4.3818    0.4926 O   0  0  0  0  0  0  0  0  0  0  0  0
    2.6422   -4.3602   -0.4098 O   0  0  0  0  0  0  0  0  0  0  0  0
    0.7084    1.3520   -1.2836 H   0  0  0  0  0  0  0  0  0  0  0  0
    1.1924    2.1857    0.1895 H   0  0  0  0  0  0  0  0  0  0  0  0
    1.5251    0.0052    1.3694 H   0  0  0  0  0  0  0  0  0  0  0  0
    2.4878    0.0520   -0.1036 H   0  0  0  0  0  0  0  0  0  0  0  0
   -2.4917   -0.0495    0.1860 H   0  0  0  0  0  0  0  0  0  0  0  0
   -1.5285   -0.0026   -1.2867 H   0  0  0  0  0  0  0  0  0  0  0  0
   -1.1962   -2.1832   -0.1070 H   0  0  0  0  0  0  0  0  0  0  0  0
   -0.7125   -1.3497    1.3663 H   0  0  0  0  0  0  0  0  0  0  0  0
   -0.7810    1.2803    1.3815 H   0  0  0  0  0  0  0  0  0  0  0  0
    0.7773   -1.2784   -1.2985 H   0  0  0  0  0  0  0  0  0  0  0  0
  1 14  1  0  0  0  0
  1  2  1  0  0  0  0
  1  7  1  0  0  0  0
  2 15  1  0  0  0  0
  3 17  1  0  0  0  0
  3  4  1  0  0  0  0
  3  7  1  0  0  0  0
  4 20  1  0  0  0  0
  5 11  2  0  0  0  0
  6 10  2  0  0  0  0
  7 21  1  1  0  0  0
  8 22  1  6  0  0  0
  8  4  1  0  0  0  0
  8  2  1  0  0  0  0
  8 10  1  0  0  0  0
  9  5  2  0  0  0  0
  9  7  1  0  0  0  0
 12  6  2  0  0  0  0
 13  1  1  0  0  0  0
 16  2  1  0  0  0  0
 18  3  1  0  0  0  0
 19  4  1  0  0  0  0
M  END
>  <HBA>
4

>  <HBD>
0

>  <TPSA>
58.86

>  <cid>
17367

>  <dipole>
0.01

>  <excitation_energy_1>
5.891

>  <excitation_energy_2>
5.897

>  <excitation_energy_3>
6.703

>  <excitation_energy_4>
6.724

>  <homo_energy>
-7.549

>  <homo_lumo_gap>
7.791

>  <logP>
0.969

>  <lumo_energy>
0.242

>  <melting_point>
96.24

>  <molecular_refractivity>
42.97

>  <oscillator_strength_1>
0.005

>  <oscillator_strength_2>
0.0

>  <oscillator_strength_3>
0.0

>  <oscillator_strength_4>
0.0017

>  <open_babel_can_smiles>
O=C=N[C@@H]1CC[C@H](CC1)N=C=O

>  <mulliken_charges>
22
1   -0.266157
2   -0.266677
3   -0.266723
4   -0.266309
5   0.593272
6   0.593345
7   0.013847
8   0.013804
9   -0.418685
10   -0.418735
11   -0.410712
12   -0.410671
13   0.150083
14   0.153122
15   0.15023
16   0.153316
17   0.153444
18   0.150177
19   0.15324
20   0.150067
21   0.148367
22   0.148354

>  <lowdin_charges>
22
1   -0.279541
2   -0.278153
3   -0.278116
4   -0.279527
5   0.175741
6   0.175907
7   -0.03129
8   -0.031292
9   -0.179598
10   -0.17974
11   -0.161062
12   -0.16106
13   0.148916
14   0.157231
15   0.148963
16   0.155787
17   0.155856
18   0.148941
19   0.157297
20   0.148911
21   0.14292
22   0.14291

$$$$

