PCCDB-ID:  25887
public computational chemistry database (PCCDB) project, http://pccdb.org

 28 28  0  0  0  0  0  0  0  0999 V2000
    3.3466    1.3229    1.6305 C   0  0  0  0  0  0  0  0  0  0  0  0
    2.1781   -3.5529    5.8968 C   0  0  0  0  0  0  0  0  0  0  0  0
    4.7230    0.0095    5.1529 C   0  0  0  0  0  0  0  0  0  0  0  0
    3.0338   -4.4696    0.8349 C   0  0  0  0  0  0  0  0  0  0  0  0
    2.1268   -5.5323    1.2798 C   0  0  0  0  0  0  0  0  0  0  0  0
    3.5754   -2.0595    1.2904 C   0  0  0  0  0  0  0  0  0  0  0  0
    2.8187   -3.4139    3.1464 C   0  0  0  0  0  0  0  0  0  0  0  0
    3.1311   -3.2824    1.7891 C   0  0  0  0  0  0  0  0  0  0  0  0
    3.7312   -0.9654    2.1479 C   0  0  0  0  0  0  0  0  0  0  0  0
    2.9615   -2.3202    4.0068 C   0  0  0  0  0  0  0  0  0  0  0  0
    3.4287   -1.0851    3.5107 C   0  0  0  0  0  0  0  0  0  0  0  0
    1.4185   -6.3752    1.6474 N   0  0  0  0  0  0  0  0  0  0  0  0
    4.2362    0.2001    1.6283 O   0  0  0  0  0  0  0  0  0  0  0  0
    2.6873   -2.3479    5.3409 O   0  0  0  0  0  0  0  0  0  0  0  0
    3.5443    0.0037    4.3409 O   0  0  0  0  0  0  0  0  0  0  0  0
    3.8992    2.1426    1.1655 H   0  0  0  0  0  0  0  0  0  0  0  0
    3.0565    1.5988    2.6478 H   0  0  0  0  0  0  0  0  0  0  0  0
    2.4499    1.1068    1.0349 H   0  0  0  0  0  0  0  0  0  0  0  0
    2.0076   -3.3421    6.9538 H   0  0  0  0  0  0  0  0  0  0  0  0
    2.8968   -4.3772    5.8012 H   0  0  0  0  0  0  0  0  0  0  0  0
    1.2310   -3.8431    5.4252 H   0  0  0  0  0  0  0  0  0  0  0  0
    4.6851    0.9325    5.7361 H   0  0  0  0  0  0  0  0  0  0  0  0
    5.6257    0.0071    4.5295 H   0  0  0  0  0  0  0  0  0  0  0  0
    4.7368   -0.8503    5.8314 H   0  0  0  0  0  0  0  0  0  0  0  0
    2.7036   -4.1299   -0.1541 H   0  0  0  0  0  0  0  0  0  0  0  0
    4.0258   -4.9200    0.6871 H   0  0  0  0  0  0  0  0  0  0  0  0
    3.8227   -1.9280    0.2412 H   0  0  0  0  0  0  0  0  0  0  0  0
    2.4565   -4.3637    3.5208 H   0  0  0  0  0  0  0  0  0  0  0  0
  1 17  1  0  0  0  0
  2 19  1  0  0  0  0
  3 22  1  0  0  0  0
  3 24  1  0  0  0  0
  4  5  1  0  0  0  0
  4  8  1  0  0  0  0
  5 12  3  0  0  0  0
  6  8  2  0  0  0  0
  6  9  1  0  0  0  0
  7 28  1  0  0  0  0
  7 10  2  0  0  0  0
  8  7  1  0  0  0  0
  9 11  2  0  0  0  0
 10 14  1  0  0  0  0
 11 10  1  0  0  0  0
 11 15  1  0  0  0  0
 13  1  1  0  0  0  0
 13  9  1  0  0  0  0
 14  2  1  0  0  0  0
 15  3  1  0  0  0  0
 16  1  1  0  0  0  0
 18  1  1  0  0  0  0
 20  2  1  0  0  0  0
 21  2  1  0  0  0  0
 23  3  1  0  0  0  0
 25  4  1  0  0  0  0
 26  4  1  0  0  0  0
 27  6  1  0  0  0  0
M  END
>  <HBA>
4

>  <HBD>
0

>  <TPSA>
51.48

>  <cid>
25887

>  <dipole>
2.5

>  <excitation_energy_1>
4.926

>  <excitation_energy_2>
5.319

>  <excitation_energy_3>
5.497

>  <excitation_energy_4>
5.736

>  <homo_energy>
-6.055

>  <homo_lumo_gap>
5.853

>  <logP>
1.778

>  <lumo_energy>
-0.201

>  <melting_point>
58.72

>  <molecular_refractivity>
55.44

>  <oscillator_strength_1>
0.0102

>  <oscillator_strength_2>
0.0539

>  <oscillator_strength_3>
0.001

>  <oscillator_strength_4>
0.0526

>  <open_babel_can_smiles>
N#CCc1cc(OC)c(c(c1)OC)OC

>  <mulliken_charges>
28
1   -0.217711
2   -0.220494
3   -0.208869
4   -0.412496
5   0.363223
6   -0.241776
7   -0.261522
8   0.150868
9   0.333013
10   0.354882
11   0.261561
12   -0.482539
13   -0.527478
14   -0.5081
15   -0.521848
16   0.158411
17   0.176117
18   0.141108
19   0.172894
20   0.156214
21   0.164431
22   0.159523
23   0.150767
24   0.157747
25   0.204748
26   0.211659
27   0.129677
28   0.15599

>  <lowdin_charges>
28
1   -0.277189
2   -0.276323
3   -0.271933
4   -0.268011
5   -0.01115
6   -0.203414
7   -0.227898
8   0.000376
9   0.0856
10   0.09096
11   0.040298
12   -0.129358
13   -0.225175
14   -0.191058
15   -0.221769
16   0.157166
17   0.156309
18   0.140261
19   0.163112
20   0.148178
21   0.152157
22   0.156822
23   0.145173
24   0.148552
25   0.189151
26   0.190887
27   0.163394
28   0.174882

$$$$

