PCCDB-ID:  11164
public computational chemistry database (PCCDB) project, http://pccdb.org

 11 11  0  0  1  0  0  0  0  0999 V2000
    1.0927    0.0834   -0.0210 C   0  0  0  0  0  0  0  0  0  0  0  0
    1.4450   -0.3533    2.5224 C   0  0  0  0  0  0  0  0  0  0  0  0
    0.5649   -0.0540    1.3854 C   0  0  2  0  0  0  0  0  0  0  0  0
    0.2099   -0.5043   -0.9647 O   0  0  0  0  0  0  0  0  0  0  0  0
    0.6525   -1.3876    1.9261 O   0  0  0  0  0  0  0  0  0  0  0  0
    2.0990   -0.3621   -0.0751 H   0  0  0  0  0  0  0  0  0  0  0  0
    1.1749    1.1406   -0.2960 H   0  0  0  0  0  0  0  0  0  0  0  0
    1.1475   -0.0577    3.5284 H   0  0  0  0  0  0  0  0  0  0  0  0
    2.5206   -0.4404    2.3648 H   0  0  0  0  0  0  0  0  0  0  0  0
   -0.3924    0.4348    1.5762 H   0  0  0  0  0  0  0  0  0  0  0  0
    0.1070   -1.4336   -0.7018 H   0  0  0  0  0  0  0  0  0  0  0  0
  1  3  1  0  0  0  0
  2  8  1  0  0  0  0
  3 10  1  1  0  0  0
  3  5  1  0  0  0  0
  3  2  1  0  0  0  0
  4 11  1  0  0  0  0
  4  1  1  0  0  0  0
  5  2  1  0  0  0  0
  6  1  1  0  0  0  0
  7  1  1  0  0  0  0
  9  2  1  0  0  0  0
M  END
>  <HBA>
2

>  <HBD>
1

>  <TPSA>
32.76

>  <cid>
11164

>  <dipole>
1.98

>  <excitation_energy_1>
6.71

>  <excitation_energy_2>
6.978

>  <excitation_energy_3>
7.275

>  <excitation_energy_4>
7.384

>  <homo_energy>
-7.181

>  <homo_lumo_gap>
9.236

>  <logP>
-0.623

>  <lumo_energy>
2.054

>  <melting_point>
7.68

>  <molecular_refractivity>
16.67

>  <oscillator_strength_1>
0.0033

>  <oscillator_strength_2>
0.0126

>  <oscillator_strength_3>
0.019

>  <oscillator_strength_4>
0.0446

>  <open_babel_can_smiles>
OC[C@@H]1CO1

>  <mulliken_charges>
11
1   -0.03919
2   -0.110118
3   0.068222
4   -0.613132
5   -0.448252
6   0.128244
7   0.149822
8   0.156137
9   0.152139
10   0.155525
11   0.400602

>  <lowdin_charges>
11
1   -0.136535
2   -0.160072
3   -0.042701
4   -0.459193
5   -0.297144
6   0.133573
7   0.15206
8   0.156475
9   0.15147
10   0.154756
11   0.347311

$$$$

