PCCDB-ID:  49930
public computational chemistry database (PCCDB) project, http://pccdb.org

 17 16  0  0  0  0  0  0  0  0999 V2000
    1.3551    1.0576   -3.2396 C   0  0  0  0  0  0  0  0  0  0  0  0
    6.1289    1.4615   -4.6949 C   0  0  0  0  0  0  0  0  0  0  0  0
    4.9583    1.3523   -2.4362 C   0  0  0  0  0  0  0  0  0  0  0  0
    2.8321    0.7699   -3.3413 C   0  0  0  0  0  0  0  0  0  0  0  0
    5.9717    3.3910   -3.2974 N   0  0  0  0  0  0  0  0  0  0  0  0
    5.6475    2.0854   -3.4687 N   0  0  0  0  0  0  0  0  0  0  0  0
    3.3476   -0.0249   -4.0972 O   0  0  0  0  0  0  0  0  0  0  0  0
    5.5811    3.8881   -2.2520 O   0  0  0  0  0  0  0  0  0  0  0  0
    3.5297    1.5358   -2.4622 O   0  0  0  0  0  0  0  0  0  0  0  0
    1.0199    0.9680   -2.2020 H   0  0  0  0  0  0  0  0  0  0  0  0
    0.8046    0.3650   -3.8770 H   0  0  0  0  0  0  0  0  0  0  0  0
    1.1592    2.0874   -3.5574 H   0  0  0  0  0  0  0  0  0  0  0  0
    6.8549    0.6714   -4.4695 H   0  0  0  0  0  0  0  0  0  0  0  0
    6.6186    2.2426   -5.2793 H   0  0  0  0  0  0  0  0  0  0  0  0
    5.2982    1.0279   -5.2551 H   0  0  0  0  0  0  0  0  0  0  0  0
    5.2626    1.7521   -1.4704 H   0  0  0  0  0  0  0  0  0  0  0  0
    5.1945    0.2936   -2.5426 H   0  0  0  0  0  0  0  0  0  0  0  0
  1 10  1  0  0  0  0
  2 13  1  0  0  0  0
  2  6  1  0  0  0  0
  3 16  1  0  0  0  0
  4  1  1  0  0  0  0
  4  9  1  0  0  0  0
  5  8  2  0  0  0  0
  6  5  1  0  0  0  0
  6  3  1  0  0  0  0
  7  4  2  0  0  0  0
  9  3  1  0  0  0  0
 11  1  1  0  0  0  0
 12  1  1  0  0  0  0
 14  2  1  0  0  0  0
 15  2  1  0  0  0  0
 17  3  1  0  0  0  0
M  END
>  <HBA>
5

>  <HBD>
0

>  <TPSA>
58.97

>  <cid>
49930

>  <dipole>
2.33

>  <excitation_energy_1>
3.263

>  <excitation_energy_2>
5.544

>  <excitation_energy_3>
5.745

>  <excitation_energy_4>
5.813

>  <homo_energy>
-6.365

>  <homo_lumo_gap>
5.138

>  <logP>
0.12

>  <lumo_energy>
-1.227

>  <melting_point>
8.89

>  <molecular_refractivity>
30.26

>  <oscillator_strength_1>
0.001

>  <oscillator_strength_2>
0.0061

>  <oscillator_strength_3>
0.0523

>  <oscillator_strength_4>
0.1345

>  <open_babel_can_smiles>
O=NN(COC(=O)C)C

>  <mulliken_charges>
17
1   -0.523339
2   -0.315927
3   0.075844
4   0.601217
5   0.165273
6   -0.23278
7   -0.467536
8   -0.358703
9   -0.43749
10   0.187406
11   0.185629
12   0.192966
13   0.164781
14   0.186934
15   0.200346
16   0.194467
17   0.18091

>  <lowdin_charges>
17
1   -0.462389
2   -0.360626
3   -0.082678
4   0.206615
5   0.064781
6   -0.055978
7   -0.266716
8   -0.247756
9   -0.191797
10   0.180013
11   0.179031
12   0.183753
13   0.15728
14   0.175791
15   0.175372
16   0.178195
17   0.167112

$$$$

