PCCDB-ID:  35125
public computational chemistry database (PCCDB) project, http://pccdb.org

 20 20  0  0  1  0  0  0  0  0999 V2000
    1.2593   -2.6727    1.4201 C   0  0  0  0  0  0  0  0  0  0  0  0
    2.7816   -2.5668    1.3554 C   0  0  0  0  0  0  0  0  0  0  0  0
    7.0034   -2.1382    1.3399 C   0  0  0  0  0  0  0  0  0  0  0  0
    7.0787    0.3640    1.3501 C   0  0  0  0  0  0  0  0  0  0  0  0
    5.0320   -0.9342    1.3510 C   0  0  1  0  0  0  0  0  0  0  0  0
    7.5941   -3.2715    1.3340 N   0  0  0  0  0  0  0  0  0  0  0  0
    7.6186    1.5216    1.3543 N   0  0  0  0  0  0  0  0  0  0  0  0
    7.6777   -0.8871    1.3422 N   0  0  0  0  0  0  0  0  0  0  0  0
    5.6120   -2.0837    1.3448 N   0  0  0  0  0  0  0  0  0  0  0  0
    5.6867    0.2739    1.3537 N   0  0  0  0  0  0  0  0  0  0  0  0
    3.2637   -0.7888    1.3564 S   0  0  0  0  0  0  0  0  0  0  0  0
    0.9729   -3.7299    1.4135 H   0  0  0  0  0  0  0  0  0  0  0  0
    0.7812   -2.1903    0.5610 H   0  0  0  0  0  0  0  0  0  0  0  0
    0.8603   -2.2213    2.3344 H   0  0  0  0  0  0  0  0  0  0  0  0
    3.1856   -3.0219    0.4489 H   0  0  0  0  0  0  0  0  0  0  0  0
    3.2638   -3.0413    2.2119 H   0  0  0  0  0  0  0  0  0  0  0  0
    8.6114   -3.1595    1.3299 H   0  0  0  0  0  0  0  0  0  0  0  0
    8.6373    1.4658    1.3515 H   0  0  0  0  0  0  0  0  0  0  0  0
    8.6886   -0.9023    1.3399 H   0  0  0  0  0  0  0  0  0  0  0  0
    5.1931    1.1572    1.3620 H   0  0  0  0  0  0  0  0  0  0  0  0
  1 14  1  0  0  0  0
  2 11  1  0  0  0  0
  2  1  1  0  0  0  0
  2 16  1  0  0  0  0
  3  8  1  0  0  0  0
  3  9  2  0  0  0  0
  4 10  1  0  0  0  0
  4  7  2  0  0  0  0
  5 10  1  0  0  0  0
  5 11  1  6  0  0  0
  6  3  1  0  0  0  0
  8  4  1  0  0  0  0
  9  5  1  0  0  0  0
 10 20  1  0  0  0  0
 12  1  1  0  0  0  0
 13  1  1  0  0  0  0
 15  2  1  0  0  0  0
 17  6  1  0  0  0  0
 18  7  1  0  0  0  0
 19  8  1  0  0  0  0
M  RAD  2   5   2   6   2
M  END
>  <HBA>
6

>  <HBD>
2

>  <TPSA>
116.01

>  <cid>
35125

>  <dipole>
0.91

>  <excitation_energy_1>
5.164

>  <excitation_energy_2>
5.248

>  <excitation_energy_3>
5.317

>  <excitation_energy_4>
5.364

>  <homo_energy>
-6.436

>  <homo_lumo_gap>
5.769

>  <logP>
1.31

>  <lumo_energy>
-0.667

>  <melting_point>
162.3

>  <molecular_refractivity>
45.16

>  <oscillator_strength_1>
0.2187

>  <oscillator_strength_2>
0.0303

>  <oscillator_strength_3>
0.0008

>  <oscillator_strength_4>
0.0003

>  <open_babel_can_smiles>
CCS[C]1NC(=N)NC(=N1)[NH]

>  <mulliken_charges>
20
1   -0.46738
2   -0.390293
3   0.602168
4   0.691119
5   0.326776
6   -0.603484
7   -0.648981
8   -0.694612
9   -0.468796
10   -0.641231
11   0.140116
12   0.16756
13   0.166527
14   0.167411
15   0.204257
16   0.20722
17   0.265611
18   0.281344
19   0.329245
20   0.365424

>  <lowdin_charges>
20
1   -0.446786
2   -0.352609
3   0.128208
4   0.140592
5   0.001897
6   -0.405645
7   -0.453125
8   -0.277937
9   -0.213489
10   -0.230687
11   0.166622
12   0.163962
13   0.160735
14   0.160797
15   0.176864
16   0.179182
17   0.243266
18   0.255919
19   0.288527
20   0.313706

$$$$

