PCCDB-ID:  14541
public computational chemistry database (PCCDB) project, http://pccdb.org

 22 22  0  0  0  0  0  0  0  0999 V2000
    2.7178   -0.8502   -1.6437 C   0  0  0  0  0  0  0  0  0  0  0  0
   -2.0137    1.8767   -1.7462 C   0  0  0  0  0  0  0  0  0  0  0  0
   -2.0074    1.5763   -0.3821 C   0  0  0  0  0  0  0  0  0  0  0  0
   -0.8408    1.7317   -2.4896 C   0  0  0  0  0  0  0  0  0  0  0  0
   -0.8383    1.1294    0.2272 C   0  0  0  0  0  0  0  0  0  0  0  0
    0.3274    1.2749   -1.8822 C   0  0  0  0  0  0  0  0  0  0  0  0
    1.5442    0.4767    0.1950 C   0  0  0  0  0  0  0  0  0  0  0  0
    2.5881   -0.2501   -0.2684 C   0  0  0  0  0  0  0  0  0  0  0  0
    0.3465    0.9494   -0.5126 C   0  0  0  0  0  0  0  0  0  0  0  0
    3.6866   -0.6399    0.6836 C   0  0  0  0  0  0  0  0  0  0  0  0
    4.3300   -1.6580    0.5740 O   0  0  0  0  0  0  0  0  0  0  0  0
    3.9444    0.2134    1.7149 O   0  0  0  0  0  0  0  0  0  0  0  0
    1.7440   -0.9932   -2.1180 H   0  0  0  0  0  0  0  0  0  0  0  0
    3.2240   -1.8152   -1.5574 H   0  0  0  0  0  0  0  0  0  0  0  0
    3.3308   -0.2227   -2.3049 H   0  0  0  0  0  0  0  0  0  0  0  0
   -2.9225    2.2324   -2.2236 H   0  0  0  0  0  0  0  0  0  0  0  0
   -2.9121    1.6955    0.2077 H   0  0  0  0  0  0  0  0  0  0  0  0
   -0.8322    1.9840   -3.5465 H   0  0  0  0  0  0  0  0  0  0  0  0
   -0.8383    0.9008    1.2904 H   0  0  0  0  0  0  0  0  0  0  0  0
    1.2372    1.2014   -2.4672 H   0  0  0  0  0  0  0  0  0  0  0  0
    1.5299    0.7042    1.2617 H   0  0  0  0  0  0  0  0  0  0  0  0
    3.4763    1.0503    1.5614 H   0  0  0  0  0  0  0  0  0  0  0  0
  1 14  1  0  0  0  0
  1  8  1  0  0  0  0
  2  3  2  0  0  0  0
  3 17  1  0  0  0  0
  3  5  1  0  0  0  0
  4  6  2  0  0  0  0
  4  2  1  0  0  0  0
  5 19  1  0  0  0  0
  6  9  1  0  0  0  0
  7 21  1  0  0  0  0
  8  7  2  0  0  0  0
  8 10  1  0  0  0  0
  9  7  1  0  0  0  0
  9  5  2  0  0  0  0
 10 12  1  0  0  0  0
 11 10  2  0  0  0  0
 13  1  1  0  0  0  0
 15  1  1  0  0  0  0
 16  2  1  0  0  0  0
 18  4  1  0  0  0  0
 20  6  1  0  0  0  0
 22 12  1  0  0  0  0
M  END
>  <HBA>
2

>  <HBD>
1

>  <TPSA>
37.3

>  <cid>
14541

>  <dipole>
5.13

>  <excitation_energy_1>
4.457

>  <excitation_energy_2>
4.555

>  <excitation_energy_3>
4.637

>  <excitation_energy_4>
5.508

>  <homo_energy>
-6.544

>  <homo_lumo_gap>
4.83

>  <logP>
2.175

>  <lumo_energy>
-1.714

>  <melting_point>
106.09

>  <molecular_refractivity>
47.92

>  <oscillator_strength_1>
0.2356

>  <oscillator_strength_2>
0.3399

>  <oscillator_strength_3>
0.0067

>  <oscillator_strength_4>
0.0595

>  <open_babel_can_smiles>
C/C(=C\c1ccccc1)/C(=O)O

>  <mulliken_charges>
22
1   -0.533526
2   -0.124579
3   -0.130234
4   -0.132902
5   -0.182174
6   -0.181627
7   -0.267331
8   0.08405
9   0.164509
10   0.554771
11   -0.449401
12   -0.569132
13   0.166791
14   0.199197
15   0.165046
16   0.13804
17   0.138469
18   0.138235
19   0.136064
20   0.144502
21   0.13539
22   0.405842

>  <lowdin_charges>
22
1   -0.448085
2   -0.148669
3   -0.153213
4   -0.150847
5   -0.151121
6   -0.155925
7   -0.162196
8   -0.044792
9   -0.007946
10   0.188901
11   -0.239592
12   -0.359356
13   0.164772
14   0.182718
15   0.16451
16   0.162494
17   0.162605
18   0.160196
19   0.158317
20   0.165928
21   0.15562
22   0.355682

$$$$

