PCCDB-ID:  7313
public computational chemistry database (PCCDB) project, http://pccdb.org

 29 28  0  0  0  0  0  0  0  0999 V2000
    3.0249   -2.0632   -0.2521 C   0  0  0  0  0  0  0  0  0  0  0  0
    1.2154   -0.3175   -0.5522 C   0  0  0  0  0  0  0  0  0  0  0  0
    5.4250    0.3878   -0.7364 C   0  0  0  0  0  0  0  0  0  0  0  0
    5.2941    1.6044    1.4260 C   0  0  0  0  0  0  0  0  0  0  0  0
    2.7394    0.0816    1.9930 C   0  0  0  0  0  0  0  0  0  0  0  0
    1.7442    1.1928    2.3782 C   0  0  0  0  0  0  0  0  0  0  0  0
    2.7240   -0.5575   -0.4048 C   0  0  0  0  0  0  0  0  0  0  0  0
    4.8035    0.3592    0.6678 C   0  0  0  0  0  0  0  0  0  0  0  0
    3.3139    0.3071    0.6480 N   0  0  0  0  0  0  0  0  0  0  0  0
    2.2624    2.4730    2.0712 O   0  0  0  0  0  0  0  0  0  0  0  0
    2.6460   -2.6138   -1.1211 H   0  0  0  0  0  0  0  0  0  0  0  0
    2.5468   -2.4892    0.6374 H   0  0  0  0  0  0  0  0  0  0  0  0
    4.1002   -2.2574   -0.1776 H   0  0  0  0  0  0  0  0  0  0  0  0
    0.8455   -0.8366   -1.4438 H   0  0  0  0  0  0  0  0  0  0  0  0
    0.9993    0.7500   -0.6623 H   0  0  0  0  0  0  0  0  0  0  0  0
    0.6477   -0.6984    0.3037 H   0  0  0  0  0  0  0  0  0  0  0  0
    6.5026    0.5599   -0.6437 H   0  0  0  0  0  0  0  0  0  0  0  0
    5.0068    1.2100   -1.3296 H   0  0  0  0  0  0  0  0  0  0  0  0
    5.2925   -0.5444   -1.2923 H   0  0  0  0  0  0  0  0  0  0  0  0
    6.3790    1.5454    1.5707 H   0  0  0  0  0  0  0  0  0  0  0  0
    4.8263    1.7263    2.4047 H   0  0  0  0  0  0  0  0  0  0  0  0
    5.0785    2.5103    0.8467 H   0  0  0  0  0  0  0  0  0  0  0  0
    2.2417   -0.8952    2.0645 H   0  0  0  0  0  0  0  0  0  0  0  0
    3.5493    0.0632    2.7288 H   0  0  0  0  0  0  0  0  0  0  0  0
    1.5557    1.1638    3.4579 H   0  0  0  0  0  0  0  0  0  0  0  0
    0.7786    1.0290    1.8743 H   0  0  0  0  0  0  0  0  0  0  0  0
    3.1725   -0.2272   -1.3455 H   0  0  0  0  0  0  0  0  0  0  0  0
    5.1991   -0.5333    1.1882 H   0  0  0  0  0  0  0  0  0  0  0  0
    2.6579    2.3512    1.1864 H   0  0  0  0  0  0  0  0  0  0  0  0
  1 13  1  0  0  0  0
  1 12  1  0  0  0  0
  2  7  1  0  0  0  0
  2 16  1  0  0  0  0
  3 17  1  0  0  0  0
  3  8  1  0  0  0  0
  4 20  1  0  0  0  0
  4 21  1  0  0  0  0
  5 23  1  0  0  0  0
  5  6  1  0  0  0  0
  5 24  1  0  0  0  0
  6 25  1  0  0  0  0
  7  1  1  0  0  0  0
  7  9  1  0  0  0  0
  8 28  1  0  0  0  0
  8  4  1  0  0  0  0
  9  8  1  0  0  0  0
  9  5  1  0  0  0  0
 10  6  1  0  0  0  0
 11  1  1  0  0  0  0
 14  2  1  0  0  0  0
 15  2  1  0  0  0  0
 18  3  1  0  0  0  0
 19  3  1  0  0  0  0
 22  4  1  0  0  0  0
 26  6  1  0  0  0  0
 27  7  1  0  0  0  0
 29 10  1  0  0  0  0
M  END
>  <HBA>
2

>  <HBD>
1

>  <TPSA>
23.47

>  <cid>
7313

>  <dipole>
2.73

>  <excitation_energy_1>
5.371

>  <excitation_energy_2>
5.608

>  <excitation_energy_3>
5.785

>  <excitation_energy_4>
6.04

>  <homo_energy>
-5.834

>  <homo_lumo_gap>
7.832

>  <logP>
1.097

>  <lumo_energy>
1.997

>  <melting_point>
-6.64

>  <molecular_refractivity>
44.63

>  <oscillator_strength_1>
0.0083

>  <oscillator_strength_2>
0.0313

>  <oscillator_strength_3>
0.0467

>  <oscillator_strength_4>
0.0064

>  <open_babel_can_smiles>
OCCN(C(C)C)C(C)C

>  <mulliken_charges>
29
1   -0.456962
2   -0.453718
3   -0.471084
4   -0.456524
5   -0.164085
6   -0.015545
7   0.045033
8   0.072199
9   -0.428181
10   -0.62847
11   0.143741
12   0.145672
13   0.148781
14   0.143601
15   0.154661
16   0.145637
17   0.148742
18   0.151593
19   0.151179
20   0.137219
21   0.168315
22   0.143108
23   0.130153
24   0.146476
25   0.13278
26   0.117613
27   0.14071
28   0.111844
29   0.395512

>  <lowdin_charges>
29
1   -0.464264
2   -0.449965
3   -0.452774
4   -0.452569
5   -0.223993
6   -0.141472
7   -0.059801
8   -0.0528
9   -0.200522
10   -0.47429
11   0.153772
12   0.149095
13   0.149125
14   0.153268
15   0.153778
16   0.148281
17   0.154944
18   0.152903
19   0.151082
20   0.146571
21   0.159399
22   0.149199
23   0.138865
24   0.150674
25   0.139633
26   0.122653
27   0.147792
28   0.11949
29   0.331929

$$$$

