PCCDB-ID:  14215
public computational chemistry database (PCCDB) project, http://pccdb.org

 34 33  0  0  0  0  0  0  0  0999 V2000
    3.9866    1.4917    2.5200 C   0  0  0  0  0  0  0  0  0  0  0  0
    9.8789   -6.9182    1.2009 C   0  0  0  0  0  0  0  0  0  0  0  0
    3.2877   -4.0494   -1.5302 C   0  0  0  0  0  0  0  0  0  0  0  0
    4.2389    0.7880    1.1825 C   0  0  0  0  0  0  0  0  0  0  0  0
    8.3897   -6.7816    0.8615 C   0  0  0  0  0  0  0  0  0  0  0  0
    3.5910   -3.6985   -0.0699 C   0  0  0  0  0  0  0  0  0  0  0  0
    4.4074   -0.7297    1.3272 C   0  0  0  0  0  0  0  0  0  0  0  0
    4.6614   -1.4229   -0.0174 C   0  0  0  0  0  0  0  0  0  0  0  0
    7.9493   -5.3160    0.8458 C   0  0  0  0  0  0  0  0  0  0  0  0
    6.0394   -3.3771    0.3578 C   0  0  0  0  0  0  0  0  0  0  0  0
    4.7939   -2.8816    0.0987 N   0  0  0  0  0  0  0  0  0  0  0  0
    7.0283   -2.6760    0.5149 O   0  0  0  0  0  0  0  0  0  0  0  0
    6.1576   -5.2000    0.4473 S   0  0  0  0  0  0  0  0  0  0  0  0
    3.8740    2.5736    2.3869 H   0  0  0  0  0  0  0  0  0  0  0  0
    4.8173    1.3256    3.2164 H   0  0  0  0  0  0  0  0  0  0  0  0
    3.0734    1.1174    2.9987 H   0  0  0  0  0  0  0  0  0  0  0  0
   10.1829   -7.9707    1.2110 H   0  0  0  0  0  0  0  0  0  0  0  0
   10.1017   -6.4958    2.1880 H   0  0  0  0  0  0  0  0  0  0  0  0
   10.5035   -6.3959    0.4666 H   0  0  0  0  0  0  0  0  0  0  0  0
    2.3627   -4.6340   -1.5953 H   0  0  0  0  0  0  0  0  0  0  0  0
    4.1000   -4.6414   -1.9627 H   0  0  0  0  0  0  0  0  0  0  0  0
    3.1602   -3.1461   -2.1373 H   0  0  0  0  0  0  0  0  0  0  0  0
    5.1389    1.2082    0.7124 H   0  0  0  0  0  0  0  0  0  0  0  0
    3.4075    1.0007    0.4947 H   0  0  0  0  0  0  0  0  0  0  0  0
    7.7928   -7.3405    1.5938 H   0  0  0  0  0  0  0  0  0  0  0  0
    8.1890   -7.2371   -0.1165 H   0  0  0  0  0  0  0  0  0  0  0  0
    3.6933   -4.6091    0.5278 H   0  0  0  0  0  0  0  0  0  0  0  0
    2.7550   -3.1390    0.3661 H   0  0  0  0  0  0  0  0  0  0  0  0
    3.5103   -1.1574    1.7978 H   0  0  0  0  0  0  0  0  0  0  0  0
    5.2510   -0.9499    1.9926 H   0  0  0  0  0  0  0  0  0  0  0  0
    5.5797   -1.0373   -0.4669 H   0  0  0  0  0  0  0  0  0  0  0  0
    3.8380   -1.2212   -0.7130 H   0  0  0  0  0  0  0  0  0  0  0  0
    8.4959   -4.7385    0.0964 H   0  0  0  0  0  0  0  0  0  0  0  0
    8.1155   -4.8395    1.8158 H   0  0  0  0  0  0  0  0  0  0  0  0
  1 16  1  0  0  0  0
  1 15  1  0  0  0  0
  2 17  1  0  0  0  0
  2 18  1  0  0  0  0
  3  6  1  0  0  0  0
  4  7  1  0  0  0  0
  4  1  1  0  0  0  0
  5  2  1  0  0  0  0
  5 25  1  0  0  0  0
  6 11  1  0  0  0  0
  6 28  1  0  0  0  0
  6 27  1  0  0  0  0
  7 29  1  0  0  0  0
  7 30  1  0  0  0  0
  8 11  1  0  0  0  0
  8  7  1  0  0  0  0
  9  5  1  0  0  0  0
  9 34  1  0  0  0  0
 10 13  1  0  0  0  0
 10 12  2  0  0  0  0
 11 10  1  0  0  0  0
 13  9  1  0  0  0  0
 14  1  1  0  0  0  0
 19  2  1  0  0  0  0
 20  3  1  0  0  0  0
 21  3  1  0  0  0  0
 22  3  1  0  0  0  0
 23  4  1  0  0  0  0
 24  4  1  0  0  0  0
 26  5  1  0  0  0  0
 31  8  1  0  0  0  0
 32  8  1  0  0  0  0
 33  9  1  0  0  0  0
M  END
>  <HBA>
3

>  <HBD>
0

>  <TPSA>
45.61

>  <cid>
14215

>  <dipole>
1.88

>  <excitation_energy_1>
5.499

>  <excitation_energy_2>
5.748

>  <excitation_energy_3>
5.95

>  <excitation_energy_4>
6.039

>  <homo_energy>
-6.251

>  <homo_lumo_gap>
7.132

>  <logP>
3.372

>  <lumo_energy>
0.882

>  <melting_point>
14.11

>  <molecular_refractivity>
61.26

>  <oscillator_strength_1>
0.0014

>  <oscillator_strength_2>
0.0236

>  <oscillator_strength_3>
0.0062

>  <oscillator_strength_4>
0.0418

>  <open_babel_can_smiles>
CCCCN(C(=O)SCCC)CC

>  <mulliken_charges>
34
1   -0.441528
2   -0.445263
3   -0.441906
4   -0.253045
5   -0.270664
6   -0.171569
7   -0.251527
8   -0.151338
9   -0.38961
10   0.4132
11   -0.395726
12   -0.500041
13   0.062159
14   0.14347
15   0.147478
16   0.141226
17   0.148815
18   0.1481
19   0.148945
20   0.148078
21   0.173933
22   0.150976
23   0.13988
24   0.128131
25   0.1496
26   0.151138
27   0.185402
28   0.153812
29   0.128167
30   0.160431
31   0.177228
32   0.13942
33   0.190066
34   0.182561

>  <lowdin_charges>
34
1   -0.442078
2   -0.442512
3   -0.455064
4   -0.273392
5   -0.277063
6   -0.199968
7   -0.284379
8   -0.195714
9   -0.360847
10   0.056835
11   -0.103268
12   -0.311324
13   0.074886
14   0.14846
15   0.15009
16   0.146612
17   0.152045
18   0.149527
19   0.151603
20   0.155146
21   0.164197
22   0.151824
23   0.144129
24   0.137943
25   0.150134
26   0.149445
27   0.168265
28   0.152214
29   0.138315
30   0.155901
31   0.167005
32   0.144953
33   0.171162
34   0.164919

$$$$

