PCCDB-ID:  43806
public computational chemistry database (PCCDB) project, http://pccdb.org

 22 22  0  0  1  0  0  0  0  0999 V2000
    1.0414    1.0700   -0.9636 C   0  0  0  0  0  0  0  0  0  0  0  0
    1.7257    0.0832   -0.0060 C   0  0  0  0  0  0  0  0  0  0  0  0
   -0.2930    1.5683   -0.3856 C   0  0  0  0  0  0  0  0  0  0  0  0
    0.7855   -1.0772    0.3570 C   0  0  0  0  0  0  0  0  0  0  0  0
   -1.2546    0.4235   -0.0184 C   0  0  2  0  0  0  0  0  0  0  0  0
   -0.5590   -0.5873    0.9327 C   0  0  1  0  0  0  0  0  0  0  0  0
   -1.8319   -0.1650   -1.2378 N   0  0  0  0  0  0  0  0  0  0  0  0
   -1.5018   -1.6647    1.2735 N   0  0  0  0  0  0  0  0  0  0  0  0
    1.7015    1.9231   -1.1657 H   0  0  0  0  0  0  0  0  0  0  0  0
    0.8705    0.5823   -1.9348 H   0  0  0  0  0  0  0  0  0  0  0  0
    2.0136    0.6150    0.9130 H   0  0  0  0  0  0  0  0  0  0  0  0
    2.6543   -0.3027   -0.4455 H   0  0  0  0  0  0  0  0  0  0  0  0
   -0.7971    2.2346   -1.0943 H   0  0  0  0  0  0  0  0  0  0  0  0
   -0.0850    2.1551    0.5207 H   0  0  0  0  0  0  0  0  0  0  0  0
    1.2662   -1.7544    1.0763 H   0  0  0  0  0  0  0  0  0  0  0  0
    0.5880   -1.6814   -0.5432 H   0  0  0  0  0  0  0  0  0  0  0  0
   -2.1041    0.8448    0.5323 H   0  0  0  0  0  0  0  0  0  0  0  0
   -0.3516   -0.0495    1.8693 H   0  0  0  0  0  0  0  0  0  0  0  0
   -2.5553   -0.8331   -0.9784 H   0  0  0  0  0  0  0  0  0  0  0  0
   -1.1296   -0.6775   -1.7693 H   0  0  0  0  0  0  0  0  0  0  0  0
   -1.1199   -2.2241    2.0358 H   0  0  0  0  0  0  0  0  0  0  0  0
   -1.5751   -2.3042    0.4815 H   0  0  0  0  0  0  0  0  0  0  0  0
  1  3  1  0  0  0  0
  1  2  1  0  0  0  0
  2  4  1  0  0  0  0
  2 11  1  0  0  0  0
  3  5  1  0  0  0  0
  3 14  1  0  0  0  0
  4  6  1  0  0  0  0
  4 15  1  0  0  0  0
  5 17  1  1  0  0  0
  5  6  1  0  0  0  0
  6  8  1  0  0  0  0
  6 18  1  1  0  0  0
  7 19  1  0  0  0  0
  7  5  1  0  0  0  0
  8 21  1  0  0  0  0
  9  1  1  0  0  0  0
 10  1  1  0  0  0  0
 12  2  1  0  0  0  0
 13  3  1  0  0  0  0
 16  4  1  0  0  0  0
 20  7  1  0  0  0  0
 22  8  1  0  0  0  0
M  END
>  <HBA>
2

>  <HBD>
2

>  <TPSA>
52.04

>  <cid>
43806

>  <dipole>
2.29

>  <excitation_energy_1>
5.341

>  <excitation_energy_2>
5.709

>  <excitation_energy_3>
5.964

>  <excitation_energy_4>
6.069

>  <homo_energy>
-6.041

>  <homo_lumo_gap>
7.753

>  <logP>
1.616

>  <lumo_energy>
1.712

>  <melting_point>
104.51

>  <molecular_refractivity>
34.26

>  <oscillator_strength_1>
0.006

>  <oscillator_strength_2>
0.0441

>  <oscillator_strength_3>
0.0011

>  <oscillator_strength_4>
0.0044

>  <open_babel_can_smiles>
N[C@@H]1CCCC[C@@H]1N

>  <mulliken_charges>
22
1   -0.268942
2   -0.25832
3   -0.256105
4   -0.270569
5   0.035837
6   0.011331
7   -0.729713
8   -0.717529
9   0.133596
10   0.128791
11   0.129159
12   0.130764
13   0.146755
14   0.124397
15   0.124285
16   0.110265
17   0.136354
18   0.122105
19   0.303019
20   0.290201
21   0.294992
22   0.279327

>  <lowdin_charges>
22
1   -0.281184
2   -0.279448
3   -0.284822
4   -0.300103
5   -0.074568
6   -0.091154
7   -0.557793
8   -0.554792
9   0.146477
10   0.13636
11   0.138782
12   0.143956
13   0.154947
14   0.139613
15   0.141675
16   0.128864
17   0.148562
18   0.138253
19   0.258677
20   0.248242
21   0.255737
22   0.243719

$$$$

