PCCDB-ID:  32746
public computational chemistry database (PCCDB) project, http://pccdb.org

 42 41  0  0  0  0  0  0  0  0999 V2000
    7.3651    3.7985    9.7538 C   0  0  0  0  0  0  0  0  0  0  0  0
   11.0053    2.3007   -4.1166 C   0  0  0  0  0  0  0  0  0  0  0  0
    9.6291    1.1257    3.8334 C   0  0  0  0  0  0  0  0  0  0  0  0
    7.5130    3.1788    8.3599 C   0  0  0  0  0  0  0  0  0  0  0  0
    9.9310    1.7841   -3.1540 C   0  0  0  0  0  0  0  0  0  0  0  0
    6.4926    3.7273    7.3522 C   0  0  0  0  0  0  0  0  0  0  0  0
   10.1899    2.1729   -1.6927 C   0  0  0  0  0  0  0  0  0  0  0  0
    6.5489    3.0834    5.9574 C   0  0  0  0  0  0  0  0  0  0  0  0
    9.1144    1.6674   -0.7224 C   0  0  0  0  0  0  0  0  0  0  0  0
    7.8502    3.3576    5.1749 C   0  0  0  0  0  0  0  0  0  0  0  0
    9.3831    2.0460    0.7399 C   0  0  0  0  0  0  0  0  0  0  0  0
    7.7829    2.8508    3.7586 C   0  0  0  0  0  0  0  0  0  0  0  0
    8.2806    1.5579    1.7019 C   0  0  0  0  0  0  0  0  0  0  0  0
    8.5253    1.9064    3.1587 C   0  0  0  0  0  0  0  0  0  0  0  0
    8.1041    3.3930   10.4543 H   0  0  0  0  0  0  0  0  0  0  0  0
    6.3688    3.6042   10.1702 H   0  0  0  0  0  0  0  0  0  0  0  0
    7.5010    4.8866    9.7192 H   0  0  0  0  0  0  0  0  0  0  0  0
   10.7928    2.0056   -5.1506 H   0  0  0  0  0  0  0  0  0  0  0  0
   11.9951    1.9067   -3.8546 H   0  0  0  0  0  0  0  0  0  0  0  0
   11.0687    3.3956   -4.0889 H   0  0  0  0  0  0  0  0  0  0  0  0
    9.7674    1.3970    4.8825 H   0  0  0  0  0  0  0  0  0  0  0  0
   10.5917    1.2713    3.3256 H   0  0  0  0  0  0  0  0  0  0  0  0
    9.4162    0.0482    3.7923 H   0  0  0  0  0  0  0  0  0  0  0  0
    7.3988    2.0874    8.4297 H   0  0  0  0  0  0  0  0  0  0  0  0
    8.5330    3.3567    7.9947 H   0  0  0  0  0  0  0  0  0  0  0  0
    9.8663    0.6893   -3.2311 H   0  0  0  0  0  0  0  0  0  0  0  0
    8.9482    2.1684   -3.4625 H   0  0  0  0  0  0  0  0  0  0  0  0
    6.6279    4.8154    7.2559 H   0  0  0  0  0  0  0  0  0  0  0  0
    5.4828    3.5847    7.7635 H   0  0  0  0  0  0  0  0  0  0  0  0
   10.2618    3.2682   -1.6166 H   0  0  0  0  0  0  0  0  0  0  0  0
   11.1713    1.7829   -1.3834 H   0  0  0  0  0  0  0  0  0  0  0  0
    5.6997    3.4509    5.3642 H   0  0  0  0  0  0  0  0  0  0  0  0
    6.4072    1.9970    6.0458 H   0  0  0  0  0  0  0  0  0  0  0  0
    9.0361    0.5730   -0.8052 H   0  0  0  0  0  0  0  0  0  0  0  0
    8.1349    2.0651   -1.0273 H   0  0  0  0  0  0  0  0  0  0  0  0
    8.7044    2.9295    5.7088 H   0  0  0  0  0  0  0  0  0  0  0  0
    8.0170    4.4467    5.1561 H   0  0  0  0  0  0  0  0  0  0  0  0
    9.4723    3.1377    0.8288 H   0  0  0  0  0  0  0  0  0  0  0  0
   10.3547    1.6329    1.0439 H   0  0  0  0  0  0  0  0  0  0  0  0
    7.0021    3.3219    3.1566 H   0  0  0  0  0  0  0  0  0  0  0  0
    8.1853    0.4656    1.5969 H   0  0  0  0  0  0  0  0  0  0  0  0
    7.3215    1.9844    1.3808 H   0  0  0  0  0  0  0  0  0  0  0  0
  1 16  1  0  0  0  0
  1 15  1  0  0  0  0
  2 20  1  0  0  0  0
  2 19  1  0  0  0  0
  2  5  1  0  0  0  0
  3 21  1  0  0  0  0
  4 24  1  0  0  0  0
  4  1  1  0  0  0  0
  5  7  1  0  0  0  0
  6 29  1  0  0  0  0
  6  4  1  0  0  0  0
  7 30  1  0  0  0  0
  7 31  1  0  0  0  0
  7  9  1  0  0  0  0
  8 33  1  0  0  0  0
  8  6  1  0  0  0  0
  9 11  1  0  0  0  0
 10 36  1  0  0  0  0
 10  8  1  0  0  0  0
 11 38  1  0  0  0  0
 11 39  1  0  0  0  0
 11 13  1  0  0  0  0
 12 10  1  0  0  0  0
 13 14  1  0  0  0  0
 14 12  2  0  0  0  0
 14  3  1  0  0  0  0
 17  1  1  0  0  0  0
 18  2  1  0  0  0  0
 22  3  1  0  0  0  0
 23  3  1  0  0  0  0
 25  4  1  0  0  0  0
 26  5  1  0  0  0  0
 27  5  1  0  0  0  0
 28  6  1  0  0  0  0
 32  8  1  0  0  0  0
 34  9  1  0  0  0  0
 35  9  1  0  0  0  0
 37 10  1  0  0  0  0
 40 12  1  0  0  0  0
 41 13  1  0  0  0  0
 42 13  1  0  0  0  0
M  END
>  <HBA>
0

>  <HBD>
0

>  <TPSA>
0.0

>  <cid>
32746

>  <dipole>
0.2

>  <excitation_energy_1>
5.64

>  <excitation_energy_2>
5.973

>  <excitation_energy_3>
6.169

>  <excitation_energy_4>
6.186

>  <homo_energy>
-6.093

>  <homo_lumo_gap>
7.031

>  <logP>
5.483

>  <lumo_energy>
0.939

>  <melting_point>
-18.67

>  <molecular_refractivity>
68.94

>  <oscillator_strength_1>
0.0238

>  <oscillator_strength_2>
0.0292

>  <oscillator_strength_3>
0.033

>  <oscillator_strength_4>
0.0107

>  <open_babel_can_smiles>
CCCCCC/C(=C/CCCCC)/C

>  <mulliken_charges>
42
1   -0.441463
2   -0.441325
3   -0.521931
4   -0.248852
5   -0.246534
6   -0.247876
7   -0.245545
8   -0.252322
9   -0.251534
10   -0.302421
11   -0.252777
12   -0.169178
13   -0.327644
14   0.190497
15   0.140836
16   0.140998
17   0.141199
18   0.141079
19   0.140816
20   0.14106
21   0.153759
22   0.155357
23   0.150431
24   0.129507
25   0.134976
26   0.129518
27   0.129829
28   0.12531
29   0.127
30   0.126928
31   0.125759
32   0.128116
33   0.132777
34   0.126438
35   0.127067
36   0.140589
37   0.134866
38   0.133465
39   0.12965
40   0.108423
41   0.128484
42   0.134665

>  <lowdin_charges>
42
1   -0.442956
2   -0.440764
3   -0.442929
4   -0.271687
5   -0.269678
6   -0.273483
7   -0.271848
8   -0.272158
9   -0.271781
10   -0.275306
11   -0.271896
12   -0.190345
13   -0.269019
14   -0.013613
15   0.149778
16   0.145372
17   0.144247
18   0.14778
19   0.145424
20   0.144022
21   0.153839
22   0.154797
23   0.152569
24   0.136276
25   0.13875
26   0.136264
27   0.138153
28   0.134592
29   0.139457
30   0.135364
31   0.136433
32   0.14149
33   0.138658
34   0.135033
35   0.136987
36   0.145705
37   0.142843
38   0.139064
39   0.137862
40   0.144017
41   0.138302
42   0.144383

$$$$

