PCCDB-ID:  29788
public computational chemistry database (PCCDB) project, http://pccdb.org

 24 24  0  0  0  0  0  0  0  0999 V2000
   -0.6394    1.7834   -0.1787 C   0  0  0  0  0  0  0  0  0  0  0  0
   -1.6065    0.7847   -0.2534 C   0  0  0  0  0  0  0  0  0  0  0  0
    0.7148    1.4475   -0.0896 C   0  0  0  0  0  0  0  0  0  0  0  0
    0.1276   -0.8899   -0.1583 C   0  0  0  0  0  0  0  0  0  0  0  0
   -2.2849   -1.6563   -0.2800 C   0  0  0  0  0  0  0  0  0  0  0  0
    2.5808   -0.2698   -0.0379 C   0  0  0  0  0  0  0  0  0  0  0  0
   -1.2338   -0.5691   -0.2427 C   0  0  0  0  0  0  0  0  0  0  0  0
    1.1162    0.1044   -0.0803 C   0  0  0  0  0  0  0  0  0  0  0  0
   -2.8944   -2.0402    1.0818 C   0  0  0  0  0  0  0  0  0  0  0  0
    3.2699   -0.4401   -1.4060 C   0  0  0  0  0  0  0  0  0  0  0  0
   -3.9912   -2.5259    1.1859 O   0  0  0  0  0  0  0  0  0  0  0  0
   -2.1108   -1.8498    2.1698 O   0  0  0  0  0  0  0  0  0  0  0  0
    4.2661   -1.1016   -1.5469 O   0  0  0  0  0  0  0  0  0  0  0  0
    2.7261    0.2325   -2.4472 O   0  0  0  0  0  0  0  0  0  0  0  0
   -0.9376    2.8280   -0.1819 H   0  0  0  0  0  0  0  0  0  0  0  0
   -2.6585    1.0505   -0.3176 H   0  0  0  0  0  0  0  0  0  0  0  0
    1.4622    2.2341   -0.0113 H   0  0  0  0  0  0  0  0  0  0  0  0
    0.4307   -1.9358   -0.1663 H   0  0  0  0  0  0  0  0  0  0  0  0
   -1.8625   -2.5796   -0.6974 H   0  0  0  0  0  0  0  0  0  0  0  0
   -3.1255   -1.3794   -0.9214 H   0  0  0  0  0  0  0  0  0  0  0  0
    2.7415   -1.2079    0.4998 H   0  0  0  0  0  0  0  0  0  0  0  0
    3.1536    0.4987    0.4973 H   0  0  0  0  0  0  0  0  0  0  0  0
   -1.2839   -1.4072    1.9070 H   0  0  0  0  0  0  0  0  0  0  0  0
    1.9068    0.6758   -2.1618 H   0  0  0  0  0  0  0  0  0  0  0  0
  1  3  2  0  0  0  0
  2  7  2  0  0  0  0
  2  1  1  0  0  0  0
  3  8  1  0  0  0  0
  3 17  1  0  0  0  0
  4  8  2  0  0  0  0
  5  7  1  0  0  0  0
  5  9  1  0  0  0  0
  6 22  1  0  0  0  0
  6 21  1  0  0  0  0
  7  4  1  0  0  0  0
  8  6  1  0  0  0  0
  9 11  2  0  0  0  0
  9 12  1  0  0  0  0
 10  6  1  0  0  0  0
 13 10  2  0  0  0  0
 14 24  1  0  0  0  0
 14 10  1  0  0  0  0
 15  1  1  0  0  0  0
 16  2  1  0  0  0  0
 18  4  1  0  0  0  0
 19  5  1  0  0  0  0
 20  5  1  0  0  0  0
 23 12  1  0  0  0  0
M  END
>  <HBA>
4

>  <HBD>
2

>  <TPSA>
74.6

>  <cid>
29788

>  <dipole>
3.96

>  <excitation_energy_1>
4.996

>  <excitation_energy_2>
5.363

>  <excitation_energy_3>
5.405

>  <excitation_energy_4>
5.566

>  <homo_energy>
-7.203

>  <homo_lumo_gap>
5.916

>  <logP>
0.941

>  <lumo_energy>
-1.287

>  <melting_point>
164.98

>  <molecular_refractivity>
49.53

>  <oscillator_strength_1>
0.0028

>  <oscillator_strength_2>
0.0374

>  <oscillator_strength_3>
0.019

>  <oscillator_strength_4>
0.209

>  <open_babel_can_smiles>
OC(=O)Cc1cccc(c1)CC(=O)O

>  <mulliken_charges>
24
1   -0.118972
2   -0.161694
3   -0.202565
4   -0.240969
5   -0.457333
6   -0.457267
7   0.111065
8   0.11755
9   0.59342
10   0.592868
11   -0.433846
12   -0.561789
13   -0.433796
14   -0.562214
15   0.152742
16   0.152393
17   0.148733
18   0.149191
19   0.196486
20   0.195689
21   0.194017
22   0.196203
23   0.414405
24   0.415683

>  <lowdin_charges>
24
1   -0.139987
2   -0.153909
3   -0.180159
4   -0.182665
5   -0.315064
6   -0.316366
7   -0.017494
8   -0.020123
9   0.188286
10   0.188799
11   -0.234724
12   -0.351004
13   -0.235666
14   -0.350565
15   0.167922
16   0.167134
17   0.166001
18   0.163306
19   0.183294
20   0.185556
21   0.183679
22   0.184353
23   0.359484
24   0.359911

$$$$

