PCCDB-ID:  26445
public computational chemistry database (PCCDB) project, http://pccdb.org

 22 22  0  0  0  0  0  0  0  0999 V2000
    1.0120    0.1243   -0.5806 C   0  0  0  0  0  0  0  0  0  0  0  0
    3.4399    0.0632   -1.2020 C   0  0  0  0  0  0  0  0  0  0  0  0
    4.4839    0.0605    2.0524 C   0  0  0  0  0  0  0  0  0  0  0  0
    3.8899    1.2218    1.7614 C   0  0  0  0  0  0  0  0  0  0  0  0
    4.0193   -1.2623    1.4991 C   0  0  0  0  0  0  0  0  0  0  0  0
    2.6943    1.3460    0.8477 C   0  0  0  0  0  0  0  0  0  0  0  0
    2.6222   -1.1628    0.8660 C   0  0  0  0  0  0  0  0  0  0  0  0
    2.4452    0.0899   -0.0246 C   0  0  0  0  0  0  0  0  0  0  0  0
    0.8392    1.0320   -1.1729 H   0  0  0  0  0  0  0  0  0  0  0  0
    0.2703    0.1063    0.2275 H   0  0  0  0  0  0  0  0  0  0  0  0
    0.8197   -0.7386   -1.2307 H   0  0  0  0  0  0  0  0  0  0  0  0
    3.2600    0.9070   -1.8797 H   0  0  0  0  0  0  0  0  0  0  0  0
    3.3334   -0.8596   -1.7865 H   0  0  0  0  0  0  0  0  0  0  0  0
    4.4776    0.1306   -0.8600 H   0  0  0  0  0  0  0  0  0  0  0  0
    5.3506    0.0485    2.7126 H   0  0  0  0  0  0  0  0  0  0  0  0
    4.2694    2.1441    2.2005 H   0  0  0  0  0  0  0  0  0  0  0  0
    4.0116   -2.0184    2.2967 H   0  0  0  0  0  0  0  0  0  0  0  0
    4.7508   -1.6291    0.7620 H   0  0  0  0  0  0  0  0  0  0  0  0
    2.8150    2.2257    0.1985 H   0  0  0  0  0  0  0  0  0  0  0  0
    1.7984    1.5553    1.4548 H   0  0  0  0  0  0  0  0  0  0  0  0
    1.8725   -1.1235    1.6688 H   0  0  0  0  0  0  0  0  0  0  0  0
    2.4081   -2.0683    0.2822 H   0  0  0  0  0  0  0  0  0  0  0  0
  1  8  1  0  0  0  0
  1 10  1  0  0  0  0
  2 14  1  0  0  0  0
  2  8  1  0  0  0  0
  3 15  1  0  0  0  0
  4  3  2  0  0  0  0
  4 16  1  0  0  0  0
  5  3  1  0  0  0  0
  5 17  1  0  0  0  0
  6 20  1  0  0  0  0
  6  4  1  0  0  0  0
  7  5  1  0  0  0  0
  7 21  1  0  0  0  0
  8  6  1  0  0  0  0
  8  7  1  0  0  0  0
  9  1  1  0  0  0  0
 11  1  1  0  0  0  0
 12  2  1  0  0  0  0
 13  2  1  0  0  0  0
 18  5  1  0  0  0  0
 19  6  1  0  0  0  0
 22  7  1  0  0  0  0
M  END
>  <HBA>
0

>  <HBD>
0

>  <TPSA>
0.0

>  <cid>
26445

>  <dipole>
0.13

>  <excitation_energy_1>
5.839

>  <excitation_energy_2>
6.396

>  <excitation_energy_3>
6.483

>  <excitation_energy_4>
6.572

>  <homo_energy>
-6.37

>  <homo_lumo_gap>
7.293

>  <logP>
2.753

>  <lumo_energy>
0.922

>  <melting_point>
23.16

>  <molecular_refractivity>
37.72

>  <oscillator_strength_1>
0.0064

>  <oscillator_strength_2>
0.0117

>  <oscillator_strength_3>
0.0066

>  <oscillator_strength_4>
0.0104

>  <open_babel_can_smiles>
CC1(C)CCC=CC1

>  <mulliken_charges>
22
1   -0.448734
2   -0.451173
3   -0.103214
4   -0.110115
5   -0.307219
6   -0.297329
7   -0.260934
8   0.096624
9   0.13696
10   0.136551
11   0.137263
12   0.136167
13   0.135189
14   0.152328
15   0.117482
16   0.117045
17   0.139169
18   0.14521
19   0.134237
20   0.13946
21   0.130692
22   0.124339

>  <lowdin_charges>
22
1   -0.443126
2   -0.445126
3   -0.177378
4   -0.176672
5   -0.280342
6   -0.27718
7   -0.275374
8   0.012127
9   0.14661
10   0.146043
11   0.147014
12   0.146894
13   0.145414
14   0.152867
15   0.14971
16   0.15012
17   0.150425
18   0.148772
19   0.147157
20   0.148745
21   0.142187
22   0.141114

$$$$

