PCCDB-ID:  17271
public computational chemistry database (PCCDB) project, http://pccdb.org

 24 26  0  0  0  0  0  0  0  0999 V2000
   -3.4609    0.1236   -0.0344 C   0  0  0  0  0  0  0  0  0  0  0  0
   -3.0165   -1.2046   -0.0451 C   0  0  0  0  0  0  0  0  0  0  0  0
   -2.5478    1.1828   -0.0054 C   0  0  0  0  0  0  0  0  0  0  0  0
   -1.6530   -1.4969   -0.0273 C   0  0  0  0  0  0  0  0  0  0  0  0
    2.9961   -1.2201    0.0521 C   0  0  0  0  0  0  0  0  0  0  0  0
    1.6345   -1.5075    0.0263 C   0  0  0  0  0  0  0  0  0  0  0  0
   -0.0049    1.8454    0.0436 C   0  0  0  0  0  0  0  0  0  0  0  0
    2.5314    1.1855    0.0779 C   0  0  0  0  0  0  0  0  0  0  0  0
   -1.1868    0.8984    0.0124 C   0  0  0  0  0  0  0  0  0  0  0  0
    1.1806    0.9008    0.0514 C   0  0  0  0  0  0  0  0  0  0  0  0
    3.4396    0.1104    0.0780 C   0  0  0  0  0  0  0  0  0  0  0  0
   -0.7383   -0.4398    0.0016 C   0  0  0  0  0  0  0  0  0  0  0  0
    0.7260   -0.4439    0.0257 C   0  0  0  0  0  0  0  0  0  0  0  0
    4.8629    0.2772    0.1024 N   0  0  0  0  0  0  0  0  0  0  0  0
    5.2484    1.4412    0.1250 O   0  0  0  0  0  0  0  0  0  0  0  0
   -4.5269    0.3333   -0.0487 H   0  0  0  0  0  0  0  0  0  0  0  0
   -3.7410   -2.0139   -0.0676 H   0  0  0  0  0  0  0  0  0  0  0  0
   -2.9019    2.2107    0.0030 H   0  0  0  0  0  0  0  0  0  0  0  0
   -1.3123   -2.5290   -0.0358 H   0  0  0  0  0  0  0  0  0  0  0  0
    3.7440   -2.0076    0.0532 H   0  0  0  0  0  0  0  0  0  0  0  0
    1.2887   -2.5372    0.0068 H   0  0  0  0  0  0  0  0  0  0  0  0
   -0.0178    2.4936    0.9305 H   0  0  0  0  0  0  0  0  0  0  0  0
    0.0111    2.5139   -0.8281 H   0  0  0  0  0  0  0  0  0  0  0  0
    2.9237    2.1978    0.0986 H   0  0  0  0  0  0  0  0  0  0  0  0
  1  3  1  0  0  0  0
  2  1  2  0  0  0  0
  2  4  1  0  0  0  0
  3 18  1  0  0  0  0
  3  9  2  0  0  0  0
  4 12  2  0  0  0  0
  5 20  1  0  0  0  0
  5 11  2  0  0  0  0
  6  5  1  0  0  0  0
  7 10  1  0  0  0  0
  7 22  1  0  0  0  0
  8 11  1  0  0  0  0
  8 24  1  0  0  0  0
  9  7  1  0  0  0  0
 10  8  2  0  0  0  0
 11 14  1  0  0  0  0
 12  9  1  0  0  0  0
 12 13  1  0  0  0  0
 13  6  2  0  0  0  0
 13 10  1  0  0  0  0
 14 15  2  0  0  0  0
 16  1  1  0  0  0  0
 17  2  1  0  0  0  0
 19  4  1  0  0  0  0
 21  6  1  0  0  0  0
 23  7  1  0  0  0  0
M  END
>  <HBA>
2

>  <HBD>
0

>  <TPSA>
29.43

>  <cid>
17271

>  <dipole>
4.94

>  <excitation_energy_1>
1.506

>  <excitation_energy_2>
3.493

>  <excitation_energy_3>
3.757

>  <excitation_energy_4>
3.942

>  <homo_energy>
-5.725

>  <homo_lumo_gap>
3.14

>  <logP>
3.656

>  <lumo_energy>
-2.585

>  <melting_point>
101.6

>  <molecular_refractivity>
60.34

>  <oscillator_strength_1>
0.0003

>  <oscillator_strength_2>
0.5107

>  <oscillator_strength_3>
0.0383

>  <oscillator_strength_4>
0.0015

>  <open_babel_can_smiles>
O=Nc1ccc2c(c1)Cc1c2cccc1

>  <mulliken_charges>
24
1   -0.125218
2   -0.137492
3   -0.201018
4   -0.183441
5   -0.13739
6   -0.199882
7   -0.418023
8   -0.208596
9   0.109241
10   0.101037
11   0.223396
12   0.080013
13   0.103825
14   -0.068528
15   -0.297885
16   0.135746
17   0.135813
18   0.133106
19   0.136361
20   0.154466
21   0.141895
22   0.18196
23   0.182062
24   0.158554

>  <lowdin_charges>
24
1   -0.145768
2   -0.154917
3   -0.160247
4   -0.152772
5   -0.130033
6   -0.162722
7   -0.274695
8   -0.141349
9   0.001986
10   -0.001366
11   -0.024373
12   -0.016089
13   0.014734
14   0.038043
15   -0.193803
16   0.159738
17   0.162153
18   0.159424
19   0.159783
20   0.1747
21   0.162781
22   0.174597
23   0.174727
24   0.175468

$$$$

