PCCDB-ID:  14095
public computational chemistry database (PCCDB) project, http://pccdb.org

 24 24  0  0  0  0  0  0  0  0999 V2000
    1.4412    0.2095   -2.5908 C   0  0  0  0  0  0  0  0  0  0  0  0
    9.4527    1.1468   -1.7543 C   0  0  0  0  0  0  0  0  0  0  0  0
    2.9527    0.4393   -2.6807 C   0  0  0  0  0  0  0  0  0  0  0  0
    3.6617    0.3046   -1.3180 C   0  0  0  0  0  0  0  0  0  0  0  0
    7.0913    1.9998   -1.3756 C   0  0  0  0  0  0  0  0  0  0  0  0
    7.4034   -0.3442   -1.7720 C   0  0  0  0  0  0  0  0  0  0  0  0
    5.7151    1.7962   -1.2599 C   0  0  0  0  0  0  0  0  0  0  0  0
    6.0300   -0.5469   -1.6567 C   0  0  0  0  0  0  0  0  0  0  0  0
    7.9611    0.9348   -1.6338 C   0  0  0  0  0  0  0  0  0  0  0  0
    5.1576    0.5203   -1.4001 C   0  0  0  0  0  0  0  0  0  0  0  0
    0.9636    0.3098   -3.5721 H   0  0  0  0  0  0  0  0  0  0  0  0
    0.9687    0.9329   -1.9147 H   0  0  0  0  0  0  0  0  0  0  0  0
    1.2139   -0.7943   -2.2106 H   0  0  0  0  0  0  0  0  0  0  0  0
    9.7177    2.2018   -1.6307 H   0  0  0  0  0  0  0  0  0  0  0  0
    9.8269    0.8224   -2.7335 H   0  0  0  0  0  0  0  0  0  0  0  0
   10.0028    0.5750   -0.9963 H   0  0  0  0  0  0  0  0  0  0  0  0
    3.1545    1.4377   -3.0913 H   0  0  0  0  0  0  0  0  0  0  0  0
    3.3971   -0.2746   -3.3871 H   0  0  0  0  0  0  0  0  0  0  0  0
    3.4539   -0.6929   -0.9075 H   0  0  0  0  0  0  0  0  0  0  0  0
    3.2218    1.0260   -0.6160 H   0  0  0  0  0  0  0  0  0  0  0  0
    7.4956    3.0030   -1.2577 H   0  0  0  0  0  0  0  0  0  0  0  0
    8.0553   -1.1937   -1.9671 H   0  0  0  0  0  0  0  0  0  0  0  0
    5.0648    2.6442   -1.0533 H   0  0  0  0  0  0  0  0  0  0  0  0
    5.6263   -1.5519   -1.7642 H   0  0  0  0  0  0  0  0  0  0  0  0
  1 13  1  0  0  0  0
  1 12  1  0  0  0  0
  2  9  1  0  0  0  0
  2 14  1  0  0  0  0
  2 16  1  0  0  0  0
  3  1  1  0  0  0  0
  3  4  1  0  0  0  0
  4 19  1  0  0  0  0
  4 20  1  0  0  0  0
  5  7  1  0  0  0  0
  5 21  1  0  0  0  0
  6  8  2  0  0  0  0
  6  9  1  0  0  0  0
  7 23  1  0  0  0  0
  8 10  1  0  0  0  0
  9  5  2  0  0  0  0
 10  4  1  0  0  0  0
 10  7  2  0  0  0  0
 11  1  1  0  0  0  0
 15  2  1  0  0  0  0
 17  3  1  0  0  0  0
 18  3  1  0  0  0  0
 22  6  1  0  0  0  0
 24  8  1  0  0  0  0
M  END
>  <HBA>
0

>  <HBD>
0

>  <TPSA>
0.0

>  <cid>
14095

>  <dipole>
0.12

>  <excitation_energy_1>
5.174

>  <excitation_energy_2>
5.695

>  <excitation_energy_3>
5.819

>  <excitation_energy_4>
6.087

>  <homo_energy>
-6.139

>  <homo_lumo_gap>
6.286

>  <logP>
2.947

>  <lumo_energy>
0.147

>  <melting_point>
10.66

>  <molecular_refractivity>
45.99

>  <oscillator_strength_1>
0.0051

>  <oscillator_strength_2>
0.0838

>  <oscillator_strength_3>
0.0076

>  <oscillator_strength_4>
0.0019

>  <open_babel_can_smiles>
CCCc1ccc(cc1)C

>  <mulliken_charges>
24
1   -0.441269
2   -0.530163
3   -0.241766
4   -0.341457
5   -0.182744
6   -0.176511
7   -0.17993
8   -0.180907
9   0.17693
10   0.172291
11   0.144146
12   0.141727
13   0.14167
14   0.153157
15   0.160215
16   0.160602
17   0.137401
18   0.137304
19   0.137099
20   0.137377
21   0.118596
22   0.118532
23   0.118699
24   0.119003

>  <lowdin_charges>
24
1   -0.446025
2   -0.442304
3   -0.270281
4   -0.273829
5   -0.16773
6   -0.166826
7   -0.168268
8   -0.165149
9   -0.002912
10   -0.004591
11   0.150482
12   0.14765
13   0.145808
14   0.154354
15   0.15904
16   0.160607
17   0.142281
18   0.14399
19   0.145493
20   0.147389
21   0.151946
22   0.153534
23   0.153448
24   0.151893

$$$$

