PCCDB-ID:  22749
public computational chemistry database (PCCDB) project, http://pccdb.org

 24 23  0  0  1  0  0  0  0  0999 V2000
    1.0352   -0.1926   -0.1840 C   0  0  0  0  0  0  0  0  0  0  0  0
    2.8266    1.5587   -0.4836 C   0  0  0  0  0  0  0  0  0  0  0  0
    5.3792   -0.9665    2.2549 C   0  0  0  0  0  0  0  0  0  0  0  0
    3.2854   -0.5542    0.8930 C   0  0  0  0  0  0  0  0  0  0  0  0
    5.4403   -1.3116   -0.2462 C   0  0  0  0  0  0  0  0  0  0  0  0
    2.5457    0.0576   -0.3171 C   0  0  0  0  0  0  0  0  0  0  0  0
    4.8272   -0.4937    0.9022 C   0  0  2  0  0  0  0  0  0  0  0  0
    6.8653   -1.2700   -0.2743 O   0  0  0  0  0  0  0  0  0  0  0  0
    0.4897    0.1980   -1.0513 H   0  0  0  0  0  0  0  0  0  0  0  0
    0.6340    0.3006    0.7111 H   0  0  0  0  0  0  0  0  0  0  0  0
    0.8124   -1.2631   -0.1014 H   0  0  0  0  0  0  0  0  0  0  0  0
    2.2593    1.9713   -1.3264 H   0  0  0  0  0  0  0  0  0  0  0  0
    3.8863    1.7655   -0.6695 H   0  0  0  0  0  0  0  0  0  0  0  0
    2.5326    2.1130    0.4176 H   0  0  0  0  0  0  0  0  0  0  0  0
    5.0396   -0.3171    3.0701 H   0  0  0  0  0  0  0  0  0  0  0  0
    6.4729   -0.9739    2.2469 H   0  0  0  0  0  0  0  0  0  0  0  0
    5.0405   -1.9870    2.4767 H   0  0  0  0  0  0  0  0  0  0  0  0
    2.9837   -1.6084    0.9902 H   0  0  0  0  0  0  0  0  0  0  0  0
    2.9178   -0.0559    1.8027 H   0  0  0  0  0  0  0  0  0  0  0  0
    5.0292   -0.9878   -1.2148 H   0  0  0  0  0  0  0  0  0  0  0  0
    5.1846   -2.3710   -0.1229 H   0  0  0  0  0  0  0  0  0  0  0  0
    2.8821   -0.4525   -1.2313 H   0  0  0  0  0  0  0  0  0  0  0  0
    5.1378    0.5542    0.7604 H   0  0  0  0  0  0  0  0  0  0  0  0
    7.1243   -0.3466   -0.4206 H   0  0  0  0  0  0  0  0  0  0  0  0
  1 11  1  0  0  0  0
  1 10  1  0  0  0  0
  2  6  1  0  0  0  0
  2 14  1  0  0  0  0
  3 17  1  0  0  0  0
  3 15  1  0  0  0  0
  4  7  1  0  0  0  0
  4 18  1  0  0  0  0
  4 19  1  0  0  0  0
  5 21  1  0  0  0  0
  5  7  1  0  0  0  0
  6  1  1  0  0  0  0
  6  4  1  0  0  0  0
  7 23  1  6  0  0  0
  7  3  1  0  0  0  0
  8  5  1  0  0  0  0
  9  1  1  0  0  0  0
 12  2  1  0  0  0  0
 13  2  1  0  0  0  0
 16  3  1  0  0  0  0
 20  5  1  0  0  0  0
 22  6  1  0  0  0  0
 24  8  1  0  0  0  0
M  END
>  <HBA>
1

>  <HBD>
1

>  <TPSA>
20.23

>  <cid>
22749

>  <dipole>
1.68

>  <excitation_energy_1>
6.296

>  <excitation_energy_2>
6.998

>  <excitation_energy_3>
7.248

>  <excitation_energy_4>
7.289

>  <homo_energy>
-7.045

>  <homo_lumo_gap>
8.969

>  <logP>
1.661

>  <lumo_energy>
1.924

>  <melting_point>
-8.61

>  <molecular_refractivity>
36.92

>  <oscillator_strength_1>
0.003

>  <oscillator_strength_2>
0.0098

>  <oscillator_strength_3>
0.0156

>  <oscillator_strength_4>
0.0006

>  <open_babel_can_smiles>
OC[C@@H](CC(C)C)C

>  <mulliken_charges>
24
1   -0.442025
2   -0.44324
3   -0.443058
4   -0.251865
5   -0.029017
6   -0.075586
7   -0.108248
8   -0.616342
9   0.13991
10   0.139136
11   0.140709
12   0.141566
13   0.1387
14   0.139643
15   0.136748
16   0.157562
17   0.137885
18   0.125007
19   0.126364
20   0.123157
21   0.14069
22   0.125535
23   0.111683
24   0.385086

>  <lowdin_charges>
24
1   -0.443426
2   -0.446775
3   -0.444378
4   -0.275518
5   -0.137284
6   -0.124265
7   -0.143287
8   -0.466195
9   0.148562
10   0.146032
11   0.14628
12   0.150131
13   0.143762
14   0.146514
15   0.147223
16   0.155061
17   0.144976
18   0.138408
19   0.14167
20   0.127768
21   0.142823
22   0.135482
23   0.128678
24   0.337758

$$$$

