PCCDB-ID:  32970
public computational chemistry database (PCCDB) project, http://pccdb.org

 28 29  0  0  1  0  0  0  0  0999 V2000
    0.9702   -0.0494    0.0566 C   0  0  0  0  0  0  0  0  0  0  0  0
    1.8561    2.8406   -1.6115 C   0  0  0  0  0  0  0  0  0  0  0  0
    4.6008   -1.1633   -0.1044 C   0  0  0  0  0  0  0  0  0  0  0  0
    4.5885    3.8247   -0.3689 C   0  0  0  0  0  0  0  0  0  0  0  0
    3.2075   -1.1687   -0.0477 C   0  0  0  0  0  0  0  0  0  0  0  0
    3.2244    3.7628    0.3245 C   0  0  0  0  0  0  0  0  0  0  0  0
    5.2751    0.0503   -0.1388 C   0  0  0  0  0  0  0  0  0  0  0  0
    5.3887    2.5521   -0.0735 C   0  0  0  0  0  0  0  0  0  0  0  0
    2.4793    0.0244   -0.0495 C   0  0  0  0  0  0  0  0  0  0  0  0
    2.3867    2.5734   -0.1840 C   0  0  2  0  0  0  0  0  0  0  0  0
    4.5762    1.2659   -0.1348 C   0  0  0  0  0  0  0  0  0  0  0  0
    3.1675    1.2613   -0.1164 C   0  0  0  0  0  0  0  0  0  0  0  0
    0.6428   -1.0906    0.1357 H   0  0  0  0  0  0  0  0  0  0  0  0
    0.4605    0.3884   -0.8092 H   0  0  0  0  0  0  0  0  0  0  0  0
    0.5974    0.4794    0.9433 H   0  0  0  0  0  0  0  0  0  0  0  0
    1.2462    3.7524   -1.6298 H   0  0  0  0  0  0  0  0  0  0  0  0
    1.2375    2.0155   -1.9765 H   0  0  0  0  0  0  0  0  0  0  0  0
    2.6761    2.9673   -2.3260 H   0  0  0  0  0  0  0  0  0  0  0  0
    5.1525   -2.0998   -0.1114 H   0  0  0  0  0  0  0  0  0  0  0  0
    5.1525    4.7045   -0.0359 H   0  0  0  0  0  0  0  0  0  0  0  0
    4.4507    3.9389   -1.4514 H   0  0  0  0  0  0  0  0  0  0  0  0
    2.6725   -2.1143    0.0028 H   0  0  0  0  0  0  0  0  0  0  0  0
    2.6676    4.6960    0.1692 H   0  0  0  0  0  0  0  0  0  0  0  0
    3.3765    3.6625    1.4085 H   0  0  0  0  0  0  0  0  0  0  0  0
    6.3631    0.0676   -0.1622 H   0  0  0  0  0  0  0  0  0  0  0  0
    5.8154    2.6309    0.9384 H   0  0  0  0  0  0  0  0  0  0  0  0
    6.2493    2.4755   -0.7506 H   0  0  0  0  0  0  0  0  0  0  0  0
    1.5102    2.4856    0.4712 H   0  0  0  0  0  0  0  0  0  0  0  0
  1 13  1  0  0  0  0
  1 15  1  0  0  0  0
  2 10  1  0  0  0  0
  3  5  2  0  0  0  0
  4  8  1  0  0  0  0
  4 20  1  0  0  0  0
  4  6  1  0  0  0  0
  5 22  1  0  0  0  0
  6 24  1  0  0  0  0
  7 11  2  0  0  0  0
  7  3  1  0  0  0  0
  8 26  1  0  0  0  0
  9  5  1  0  0  0  0
  9  1  1  0  0  0  0
 10 12  1  0  0  0  0
 10  6  1  0  0  0  0
 10 28  1  1  0  0  0
 11 12  1  0  0  0  0
 11  8  1  0  0  0  0
 12  9  2  0  0  0  0
 14  1  1  0  0  0  0
 16  2  1  0  0  0  0
 17  2  1  0  0  0  0
 18  2  1  0  0  0  0
 19  3  1  0  0  0  0
 21  4  1  0  0  0  0
 23  6  1  0  0  0  0
 25  7  1  0  0  0  0
 27  8  1  0  0  0  0
M  END
>  <HBA>
0

>  <HBD>
0

>  <TPSA>
0.0

>  <cid>
32970

>  <dipole>
0.56

>  <excitation_energy_1>
5.105

>  <excitation_energy_2>
5.64

>  <excitation_energy_3>
5.749

>  <excitation_energy_4>
5.768

>  <homo_energy>
-6.147

>  <homo_lumo_gap>
6.348

>  <logP>
3.435

>  <lumo_energy>
0.201

>  <melting_point>
37.41

>  <molecular_refractivity>
53.65

>  <oscillator_strength_1>
0.0014

>  <oscillator_strength_2>
0.0015

>  <oscillator_strength_3>
0.0083

>  <oscillator_strength_4>
0.0008

>  <open_babel_can_smiles>
C[C@@H]1CCCc2c1c(C)ccc2

>  <mulliken_charges>
28
1   -0.540504
2   -0.447752
3   -0.122674
4   -0.271228
5   -0.18945
6   -0.266516
7   -0.187844
8   -0.340189
9   0.12883
10   -0.153503
11   0.112438
12   0.058964
13   0.153058
14   0.160861
15   0.160552
16   0.139219
17   0.149355
18   0.149736
19   0.122197
20   0.131814
21   0.139758
22   0.115681
23   0.127637
24   0.133332
25   0.114797
26   0.150429
27   0.143417
28   0.127582

>  <lowdin_charges>
28
1   -0.445343
2   -0.446384
3   -0.160135
4   -0.277922
5   -0.174306
6   -0.273693
7   -0.16771
8   -0.276075
9   -0.00569
10   -0.125324
11   -0.014244
12   -0.024609
13   0.155039
14   0.157676
15   0.158024
16   0.146728
17   0.151991
18   0.150303
19   0.154955
20   0.145735
21   0.140016
22   0.151391
23   0.142582
24   0.139925
25   0.149078
26   0.150678
27   0.151503
28   0.145812

$$$$

