PCCDB-ID:  10194
public computational chemistry database (PCCDB) project, http://pccdb.org

 24 24  0  0  0  0  0  0  0  0999 V2000
    0.9989    0.0996    0.0123 C   0  0  0  0  0  0  0  0  0  0  0  0
    5.2930    2.7187   -0.1332 C   0  0  0  0  0  0  0  0  0  0  0  0
    5.3648   -2.4141   -0.0718 C   0  0  0  0  0  0  0  0  0  0  0  0
    3.2130    1.3229   -0.0414 C   0  0  0  0  0  0  0  0  0  0  0  0
    3.2415   -1.0736    0.0053 C   0  0  0  0  0  0  0  0  0  0  0  0
    2.5090    0.1182    0.0032 C   0  0  0  0  0  0  0  0  0  0  0  0
    4.6111    1.3641   -0.0702 C   0  0  0  0  0  0  0  0  0  0  0  0
    4.6365   -1.0889   -0.0460 C   0  0  0  0  0  0  0  0  0  0  0  0
    5.3247    0.1460   -0.0632 C   0  0  0  0  0  0  0  0  0  0  0  0
    6.8276    0.1275   -0.1251 C   0  0  0  0  0  0  0  0  0  0  0  0
    7.4752   -0.5255   -0.9078 O   0  0  0  0  0  0  0  0  0  0  0  0
    7.4746    0.9056    0.7906 O   0  0  0  0  0  0  0  0  0  0  0  0
    0.5885    1.0115    0.4581 H   0  0  0  0  0  0  0  0  0  0  0  0
    0.6122   -0.7580    0.5730 H   0  0  0  0  0  0  0  0  0  0  0  0
    0.5994    0.0268   -1.0080 H   0  0  0  0  0  0  0  0  0  0  0  0
    4.6140    3.4603   -0.5643 H   0  0  0  0  0  0  0  0  0  0  0  0
    6.2034    2.7042   -0.7385 H   0  0  0  0  0  0  0  0  0  0  0  0
    5.5708    3.0938    0.8623 H   0  0  0  0  0  0  0  0  0  0  0  0
    4.6631   -3.2385    0.0855 H   0  0  0  0  0  0  0  0  0  0  0  0
    6.1385   -2.4734    0.7018 H   0  0  0  0  0  0  0  0  0  0  0  0
    5.8731   -2.5632   -1.0290 H   0  0  0  0  0  0  0  0  0  0  0  0
    2.6611    2.2606   -0.0599 H   0  0  0  0  0  0  0  0  0  0  0  0
    2.7096   -2.0221    0.0394 H   0  0  0  0  0  0  0  0  0  0  0  0
    6.8236    1.2916    1.3993 H   0  0  0  0  0  0  0  0  0  0  0  0
  1 13  1  0  0  0  0
  1 14  1  0  0  0  0
  2  7  1  0  0  0  0
  2 18  1  0  0  0  0
  3  8  1  0  0  0  0
  3 19  1  0  0  0  0
  3 20  1  0  0  0  0
  4  6  2  0  0  0  0
  5 23  1  0  0  0  0
  6  5  1  0  0  0  0
  6  1  1  0  0  0  0
  7  9  2  0  0  0  0
  7  4  1  0  0  0  0
  8  5  2  0  0  0  0
  9  8  1  0  0  0  0
 10  9  1  0  0  0  0
 10 12  1  0  0  0  0
 11 10  2  0  0  0  0
 12 24  1  0  0  0  0
 15  1  1  0  0  0  0
 16  2  1  0  0  0  0
 17  2  1  0  0  0  0
 21  3  1  0  0  0  0
 22  4  1  0  0  0  0
M  END
>  <HBA>
2

>  <HBD>
1

>  <TPSA>
37.3

>  <cid>
10194

>  <dipole>
4.55

>  <excitation_energy_1>
4.809

>  <excitation_energy_2>
4.949

>  <excitation_energy_3>
5.342

>  <excitation_energy_4>
5.877

>  <homo_energy>
-6.651

>  <homo_lumo_gap>
5.717

>  <logP>
2.31

>  <lumo_energy>
-0.933

>  <melting_point>
109.16

>  <molecular_refractivity>
48.3

>  <oscillator_strength_1>
0.0226

>  <oscillator_strength_2>
0.0569

>  <oscillator_strength_3>
0.0719

>  <oscillator_strength_4>
0.1632

>  <open_babel_can_smiles>
OC(=O)c1c(C)cc(cc1C)C

>  <mulliken_charges>
24
1   -0.53306
2   -0.55182
3   -0.523576
4   -0.249951
5   -0.253936
6   0.208953
7   0.147675
8   0.161464
9   -0.075776
10   0.517239
11   -0.440202
12   -0.567621
13   0.159179
14   0.161509
15   0.1721
16   0.167205
17   0.186662
18   0.154114
19   0.147847
20   0.164058
21   0.195379
22   0.119712
23   0.122138
24   0.410709

>  <lowdin_charges>
24
1   -0.442507
2   -0.451758
3   -0.444208
4   -0.182276
5   -0.180015
6   0.01577
7   -0.000539
8   0.023527
9   -0.08463
10   0.195171
11   -0.235567
12   -0.357549
13   0.159906
14   0.161597
15   0.165362
16   0.16552
17   0.171005
18   0.15405
19   0.154433
20   0.164047
21   0.179238
22   0.154438
23   0.155596
24   0.35939

$$$$

