PCCDB-ID:  31094
public computational chemistry database (PCCDB) project, http://pccdb.org

 35 36  0  0  1  0  0  0  0  0999 V2000
    6.8533    0.1934    8.2171 C   0  0  0  0  0  0  0  0  0  0  0  0
    6.8310    0.6964    6.7700 C   0  0  0  0  0  0  0  0  0  0  0  0
    6.2418   -0.3249    5.7903 C   0  0  0  0  0  0  0  0  0  0  0  0
   10.2861   -0.2197   -2.3433 C   0  0  0  0  0  0  0  0  0  0  0  0
   10.0472   -1.5799   -2.1363 C   0  0  0  0  0  0  0  0  0  0  0  0
    9.6443    0.7338   -1.5554 C   0  0  0  0  0  0  0  0  0  0  0  0
    9.1683   -1.9787   -1.1291 C   0  0  0  0  0  0  0  0  0  0  0  0
    6.2209    0.1733    4.3394 C   0  0  0  0  0  0  0  0  0  0  0  0
    6.9246    0.8163    0.9751 C   0  0  0  0  0  0  0  0  0  0  0  0
    8.7517    0.3505   -0.5449 C   0  0  0  0  0  0  0  0  0  0  0  0
    8.5271   -1.0244   -0.3454 C   0  0  0  0  0  0  0  0  0  0  0  0
    7.2521   -0.5308    1.6319 C   0  0  1  0  0  0  0  0  0  0  0  0
    6.0309   -1.1206    2.3460 C   0  0  0  0  0  0  0  0  0  0  0  0
    5.5747   -0.8052    3.4834 N   0  0  0  0  0  0  0  0  0  0  0  0
    8.1202    1.2805    0.2904 N   0  0  0  0  0  0  0  0  0  0  0  0
    5.3537   -2.0321    1.6043 O   0  0  0  0  0  0  0  0  0  0  0  0
    7.6497   -1.4790    0.6284 O   0  0  0  0  0  0  0  0  0  0  0  0
    7.2782    0.9426    8.8949 H   0  0  0  0  0  0  0  0  0  0  0  0
    7.4544   -0.7194    8.3096 H   0  0  0  0  0  0  0  0  0  0  0  0
    5.8416   -0.0409    8.5699 H   0  0  0  0  0  0  0  0  0  0  0  0
    7.8533    0.9570    6.4593 H   0  0  0  0  0  0  0  0  0  0  0  0
    6.2505    1.6289    6.7168 H   0  0  0  0  0  0  0  0  0  0  0  0
    5.2156   -0.5823    6.0816 H   0  0  0  0  0  0  0  0  0  0  0  0
    6.8176   -1.2597    5.8334 H   0  0  0  0  0  0  0  0  0  0  0  0
   10.9710    0.1039   -3.1218 H   0  0  0  0  0  0  0  0  0  0  0  0
   10.5428   -2.3272   -2.7482 H   0  0  0  0  0  0  0  0  0  0  0  0
    9.8308    1.7936   -1.7159 H   0  0  0  0  0  0  0  0  0  0  0  0
    8.9638   -3.0275   -0.9361 H   0  0  0  0  0  0  0  0  0  0  0  0
    7.2493    0.4373    4.0375 H   0  0  0  0  0  0  0  0  0  0  0  0
    5.6378    1.1062    4.2964 H   0  0  0  0  0  0  0  0  0  0  0  0
    6.6425    1.5422    1.7429 H   0  0  0  0  0  0  0  0  0  0  0  0
    6.0613    0.6730    0.3039 H   0  0  0  0  0  0  0  0  0  0  0  0
    8.0820   -0.3970    2.3334 H   0  0  0  0  0  0  0  0  0  0  0  0
    8.0458    2.2096   -0.1062 H   0  0  0  0  0  0  0  0  0  0  0  0
    5.9160   -2.2451    0.8355 H   0  0  0  0  0  0  0  0  0  0  0  0
  1 19  1  0  0  0  0
  1 20  1  0  0  0  0
  1 18  1  0  0  0  0
  2  1  1  0  0  0  0
  3 24  1  0  0  0  0
  3 23  1  0  0  0  0
  3  2  1  0  0  0  0
  4  5  2  0  0  0  0
  4  6  1  0  0  0  0
  5  7  1  0  0  0  0
  6 10  2  0  0  0  0
  7 28  1  0  0  0  0
  7 11  2  0  0  0  0
  8  3  1  0  0  0  0
  9 12  1  0  0  0  0
  9 31  1  0  0  0  0
 10 11  1  0  0  0  0
 10 15  1  0  0  0  0
 11 17  1  0  0  0  0
 12 33  1  1  0  0  0
 12 13  1  0  0  0  0
 13 14  2  0  0  0  0
 14  8  1  0  0  0  0
 15  9  1  0  0  0  0
 16 13  1  0  0  0  0
 17 12  1  0  0  0  0
 21  2  1  0  0  0  0
 22  2  1  0  0  0  0
 25  4  1  0  0  0  0
 26  5  1  0  0  0  0
 27  6  1  0  0  0  0
 29  8  1  0  0  0  0
 30  8  1  0  0  0  0
 32  9  1  0  0  0  0
 34 15  1  0  0  0  0
 35 16  1  0  0  0  0
M  END
>  <HBA>
4

>  <HBD>
2

>  <TPSA>
50.36

>  <cid>
31094

>  <dipole>
3.9

>  <excitation_energy_1>
4.564

>  <excitation_energy_2>
4.741

>  <excitation_energy_3>
5.068

>  <excitation_energy_4>
5.312

>  <homo_energy>
-5.554

>  <homo_lumo_gap>
5.499

>  <logP>
2.305

>  <lumo_energy>
-0.054

>  <melting_point>
111.81

>  <molecular_refractivity>
70.1

>  <oscillator_strength_1>
0.0513

>  <oscillator_strength_2>
0.022

>  <oscillator_strength_3>
0.0337

>  <oscillator_strength_4>
0.009

>  <open_babel_can_smiles>
CCCC/N=C(\[C@@H]1CNc2c(O1)cccc2)/O

>  <mulliken_charges>
35
1   -0.43988
2   -0.253633
3   -0.240327
4   -0.134218
5   -0.141852
6   -0.200297
7   -0.193194
8   -0.154189
9   -0.145313
10   0.315173
11   0.334244
12   0.055537
13   0.477857
14   -0.425955
15   -0.660401
16   -0.596868
17   -0.591609
18   0.140657
19   0.143124
20   0.144674
21   0.127809
22   0.129175
23   0.148267
24   0.134559
25   0.128834
26   0.12949
27   0.123002
28   0.139311
29   0.11404
30   0.139698
31   0.170467
32   0.155236
33   0.177767
34   0.320106
35   0.42871

>  <lowdin_charges>
35
1   -0.443807
2   -0.273064
3   -0.276306
4   -0.15999
5   -0.173703
6   -0.188761
7   -0.172319
8   -0.201114
9   -0.209086
10   0.02143
11   0.065537
12   -0.028826
13   0.111233
14   -0.200582
15   -0.305303
16   -0.362882
17   -0.225404
18   0.149818
19   0.147413
20   0.147454
21   0.136005
22   0.137925
23   0.149242
24   0.142678
25   0.159687
26   0.161072
27   0.154067
28   0.16582
29   0.118801
30   0.142047
31   0.166572
32   0.143801
33   0.16339
34   0.277098
35   0.360058

$$$$

