PCCDB-ID:  11514
public computational chemistry database (PCCDB) project, http://pccdb.org

 29 28  0  0  0  0  0  0  0  0999 V2000
   -0.9211    2.3677   -1.9852 C   0  0  0  0  0  0  0  0  0  0  0  0
   -1.9054    0.2862   -0.9278 C   0  0  0  0  0  0  0  0  0  0  0  0
    6.2894    0.6413   -3.6566 C   0  0  0  0  0  0  0  0  0  0  0  0
    4.9418   -1.4478   -3.1408 C   0  0  0  0  0  0  0  0  0  0  0  0
    0.4919    0.2746   -1.7116 C   0  0  0  0  0  0  0  0  0  0  0  0
    4.0665    0.8509   -2.5308 C   0  0  0  0  0  0  0  0  0  0  0  0
   -0.6385    1.1316   -1.1193 C   0  0  0  0  0  0  0  0  0  0  0  0
    4.8835    0.0358   -3.5300 C   0  0  0  0  0  0  0  0  0  0  0  0
    1.8550    0.9415   -1.6692 C   0  0  0  0  0  0  0  0  0  0  0  0
    2.1662    1.8701   -0.9531 O   0  0  0  0  0  0  0  0  0  0  0  0
    2.7139    0.3408   -2.5239 O   0  0  0  0  0  0  0  0  0  0  0  0
   -1.7118    2.9827   -1.5400 H   0  0  0  0  0  0  0  0  0  0  0  0
   -1.2534    2.0762   -2.9907 H   0  0  0  0  0  0  0  0  0  0  0  0
   -0.0284    2.9929   -2.0852 H   0  0  0  0  0  0  0  0  0  0  0  0
   -2.7106    0.8833   -0.4846 H   0  0  0  0  0  0  0  0  0  0  0  0
   -1.7224   -0.5709   -0.2684 H   0  0  0  0  0  0  0  0  0  0  0  0
   -2.2717   -0.1033   -1.8868 H   0  0  0  0  0  0  0  0  0  0  0  0
    6.8818    0.0925   -4.3969 H   0  0  0  0  0  0  0  0  0  0  0  0
    6.8273    0.5939   -2.7011 H   0  0  0  0  0  0  0  0  0  0  0  0
    6.2519    1.6915   -3.9693 H   0  0  0  0  0  0  0  0  0  0  0  0
    5.4972   -2.0255   -3.8883 H   0  0  0  0  0  0  0  0  0  0  0  0
    3.9377   -1.8738   -3.0562 H   0  0  0  0  0  0  0  0  0  0  0  0
    5.4477   -1.5781   -2.1751 H   0  0  0  0  0  0  0  0  0  0  0  0
    0.2729   -0.0145   -2.7471 H   0  0  0  0  0  0  0  0  0  0  0  0
    0.5869   -0.6674   -1.1517 H   0  0  0  0  0  0  0  0  0  0  0  0
    4.0397    1.9121   -2.8009 H   0  0  0  0  0  0  0  0  0  0  0  0
    4.4797    0.7771   -1.5178 H   0  0  0  0  0  0  0  0  0  0  0  0
   -0.2986    1.4800   -0.1357 H   0  0  0  0  0  0  0  0  0  0  0  0
    4.3818    0.1190   -4.5047 H   0  0  0  0  0  0  0  0  0  0  0  0
  1 12  1  0  0  0  0
  1  7  1  0  0  0  0
  2 15  1  0  0  0  0
  2 16  1  0  0  0  0
  3  8  1  0  0  0  0
  3 19  1  0  0  0  0
  4 22  1  0  0  0  0
  4 23  1  0  0  0  0
  5  9  1  0  0  0  0
  5 25  1  0  0  0  0
  5  7  1  0  0  0  0
  6 11  1  0  0  0  0
  6 27  1  0  0  0  0
  7  2  1  0  0  0  0
  7 28  1  0  0  0  0
  8  4  1  0  0  0  0
  8  6  1  0  0  0  0
  9 10  2  0  0  0  0
 11  9  1  0  0  0  0
 13  1  1  0  0  0  0
 14  1  1  0  0  0  0
 17  2  1  0  0  0  0
 18  3  1  0  0  0  0
 20  3  1  0  0  0  0
 21  4  1  0  0  0  0
 24  5  1  0  0  0  0
 26  6  1  0  0  0  0
 29  8  1  0  0  0  0
M  END
>  <HBA>
2

>  <HBD>
0

>  <TPSA>
26.3

>  <cid>
11514

>  <dipole>
1.78

>  <excitation_energy_1>
5.794

>  <excitation_energy_2>
6.889

>  <excitation_energy_3>
7.287

>  <excitation_energy_4>
7.549

>  <homo_energy>
-7.241

>  <homo_lumo_gap>
7.69

>  <logP>
2.232

>  <lumo_energy>
0.449

>  <melting_point>
-16.11

>  <molecular_refractivity>
46.66

>  <oscillator_strength_1>
0.0008

>  <oscillator_strength_2>
0.0211

>  <oscillator_strength_3>
0.0159

>  <oscillator_strength_4>
0.0045

>  <open_babel_can_smiles>
CC(COC(=O)CC(C)C)C

>  <mulliken_charges>
29
1   -0.451664
2   -0.446867
3   -0.451052
4   -0.445103
5   -0.356648
6   -0.024368
7   -0.061791
8   -0.097289
9   0.626869
10   -0.483861
11   -0.472871
12   0.14246
13   0.133041
14   0.162262
15   0.144934
16   0.139377
17   0.138412
18   0.149797
19   0.145149
20   0.145903
21   0.142938
22   0.160038
23   0.138391
24   0.16143
25   0.168671
26   0.153697
27   0.150987
28   0.149528
29   0.137632

>  <lowdin_charges>
29
1   -0.448777
2   -0.445541
3   -0.444029
4   -0.447698
5   -0.301061
6   -0.123951
7   -0.117296
8   -0.128018
9   0.196486
10   -0.268618
11   -0.197029
12   0.151196
13   0.141504
14   0.158579
15   0.151898
16   0.147384
17   0.145151
18   0.155452
19   0.148641
20   0.149264
21   0.151501
22   0.156586
23   0.145633
24   0.161707
25   0.169258
26   0.149426
27   0.147749
28   0.150601
29   0.144002

$$$$

