PCCDB-ID:  40346
public computational chemistry database (PCCDB) project, http://pccdb.org

 32 33  0  0  0  0  0  0  0  0999 V2000
    0.7802    0.5559    3.4358 C   0  0  0  0  0  0  0  0  0  0  0  0
    7.2172   -2.8122    1.7319 C   0  0  0  0  0  0  0  0  0  0  0  0
    2.2896    0.6348    3.6530 C   0  0  0  0  0  0  0  0  0  0  0  0
    9.7518    1.3706    3.9156 C   0  0  0  0  0  0  0  0  0  0  0  0
    9.6173    0.6129    5.0782 C   0  0  0  0  0  0  0  0  0  0  0  0
    8.9741    1.1001    2.7739 C   0  0  0  0  0  0  0  0  0  0  0  0
    8.6987   -0.4512    5.1538 C   0  0  0  0  0  0  0  0  0  0  0  0
    5.0828   -1.5388    2.3162 C   0  0  0  0  0  0  0  0  0  0  0  0
    4.4357   -0.3699    3.0620 C   0  0  0  0  0  0  0  0  0  0  0  0
    8.0780    0.0523    2.8626 C   0  0  0  0  0  0  0  0  0  0  0  0
    7.9438   -0.7056    4.0251 C   0  0  0  0  0  0  0  0  0  0  0  0
    6.6009   -1.6133    2.4432 C   0  0  0  0  0  0  0  0  0  0  0  0
    2.9815   -0.4207    2.9134 N   0  0  0  0  0  0  0  0  0  0  0  0
    7.1962   -0.3968    1.9119 O   0  0  0  0  0  0  0  0  0  0  0  0
    6.9731   -1.6594    3.8475 O   0  0  0  0  0  0  0  0  0  0  0  0
    0.2609    1.3207    4.0236 H   0  0  0  0  0  0  0  0  0  0  0  0
    0.4013   -0.4287    3.7283 H   0  0  0  0  0  0  0  0  0  0  0  0
    0.5227    0.7177    2.3810 H   0  0  0  0  0  0  0  0  0  0  0  0
    6.9910   -2.7749    0.6620 H   0  0  0  0  0  0  0  0  0  0  0  0
    6.8217   -3.7433    2.1488 H   0  0  0  0  0  0  0  0  0  0  0  0
    8.3034   -2.8007    1.8625 H   0  0  0  0  0  0  0  0  0  0  0  0
    2.5166    0.4952    4.7182 H   0  0  0  0  0  0  0  0  0  0  0  0
    2.6516    1.6485    3.3899 H   0  0  0  0  0  0  0  0  0  0  0  0
   10.4700    2.1847    3.8839 H   0  0  0  0  0  0  0  0  0  0  0  0
   10.2314    0.8421    5.9442 H   0  0  0  0  0  0  0  0  0  0  0  0
    9.0679    1.6842    1.8645 H   0  0  0  0  0  0  0  0  0  0  0  0
    8.5832   -1.0464    6.0534 H   0  0  0  0  0  0  0  0  0  0  0  0
    4.8480   -1.4796    1.2447 H   0  0  0  0  0  0  0  0  0  0  0  0
    4.6568   -2.4788    2.6843 H   0  0  0  0  0  0  0  0  0  0  0  0
    4.8741    0.5827    2.7141 H   0  0  0  0  0  0  0  0  0  0  0  0
    4.6676   -0.4545    4.1298 H   0  0  0  0  0  0  0  0  0  0  0  0
    2.7494   -0.3250    1.9238 H   0  0  0  0  0  0  0  0  0  0  0  0
  1  3  1  0  0  0  0
  1 17  1  0  0  0  0
  1 16  1  0  0  0  0
  2 21  1  0  0  0  0
  2 20  1  0  0  0  0
  2 12  1  0  0  0  0
  3 22  1  0  0  0  0
  4  5  2  0  0  0  0
  5  7  1  0  0  0  0
  5 25  1  0  0  0  0
  6 10  2  0  0  0  0
  6  4  1  0  0  0  0
  7 27  1  0  0  0  0
  8 12  1  0  0  0  0
  8 29  1  0  0  0  0
  8  9  1  0  0  0  0
  9 31  1  0  0  0  0
 10 11  1  0  0  0  0
 11  7  2  0  0  0  0
 12 15  1  0  0  0  0
 13  9  1  0  0  0  0
 13  3  1  0  0  0  0
 14 12  1  0  0  0  0
 14 10  1  0  0  0  0
 15 11  1  0  0  0  0
 18  1  1  0  0  0  0
 19  2  1  0  0  0  0
 23  3  1  0  0  0  0
 24  4  1  0  0  0  0
 26  6  1  0  0  0  0
 28  8  1  0  0  0  0
 30  9  1  0  0  0  0
 32 13  1  0  0  0  0
M  END
>  <HBA>
3

>  <HBD>
1

>  <TPSA>
30.49

>  <cid>
40346

>  <dipole>
0.87

>  <excitation_energy_1>
4.777

>  <excitation_energy_2>
5.246

>  <excitation_energy_3>
5.35

>  <excitation_energy_4>
5.366

>  <homo_energy>
-5.461

>  <homo_lumo_gap>
5.646

>  <logP>
2.564

>  <lumo_energy>
0.185

>  <melting_point>
72.65

>  <molecular_refractivity>
59.38

>  <oscillator_strength_1>
0.0875

>  <oscillator_strength_2>
0.0035

>  <oscillator_strength_3>
0.0098

>  <oscillator_strength_4>
0.0114

>  <open_babel_can_smiles>
CCNCCC1(C)Oc2c(O1)cccc2

>  <mulliken_charges>
32
1   -0.45059
2   -0.442884
3   -0.105729
4   -0.144256
5   -0.144418
6   -0.193619
7   -0.193255
8   -0.280214
9   -0.12726
10   0.340892
11   0.340271
12   0.482382
13   -0.557295
14   -0.556429
15   -0.555613
16   0.14422
17   0.158808
18   0.137095
19   0.157813
20   0.160168
21   0.164622
22   0.141255
23   0.111036
24   0.128112
25   0.128278
26   0.139823
27   0.140777
28   0.141116
29   0.162202
30   0.130301
31   0.157083
32   0.285308

>  <lowdin_charges>
32
1   -0.447891
2   -0.450698
3   -0.194703
4   -0.166514
5   -0.167133
6   -0.187194
7   -0.18731
8   -0.286622
9   -0.203855
10   0.067987
11   0.06991
12   0.242415
13   -0.363412
14   -0.20633
15   -0.205871
16   0.153888
17   0.155722
18   0.142971
19   0.161232
20   0.164149
21   0.164426
22   0.140028
23   0.114567
24   0.158928
25   0.159306
26   0.167735
27   0.168309
28   0.151069
29   0.164088
30   0.126633
31   0.149161
32   0.245012

$$$$

