PCCDB-ID:  43813
public computational chemistry database (PCCDB) project, http://pccdb.org

 23 22  0  0  0  0  0  0  0  0999 V2000
    0.6384   -1.0958    1.0080 C   0  0  0  0  0  0  0  0  0  0  0  0
    1.8685   -0.5814    0.2500 C   0  0  0  0  0  0  0  0  0  0  0  0
    2.2884    0.8530    0.6110 C   0  0  0  0  0  0  0  0  0  0  0  0
    2.7745    0.9869    2.0610 C   0  0  0  0  0  0  0  0  0  0  0  0
    4.5146    2.8438    1.8044 C   0  0  0  0  0  0  0  0  0  0  0  0
    4.3196    3.7686    0.5854 C   0  0  0  0  0  0  0  0  0  0  0  0
    2.5335    3.0530    3.2093 N   0  0  0  0  0  0  0  0  0  0  0  0
    3.2603    2.3350    2.3718 N   0  0  0  0  0  0  0  0  0  0  0  0
    4.7202    3.4760   -0.5150 O   0  0  0  0  0  0  0  0  0  0  0  0
    3.6811    4.9169    0.8450 O   0  0  0  0  0  0  0  0  0  0  0  0
    2.9275    4.2197    3.3854 O   0  0  0  0  0  0  0  0  0  0  0  0
    0.3588   -2.0968    0.6619 H   0  0  0  0  0  0  0  0  0  0  0  0
   -0.2247   -0.4371    0.8526 H   0  0  0  0  0  0  0  0  0  0  0  0
    0.8141   -1.1636    2.0880 H   0  0  0  0  0  0  0  0  0  0  0  0
    1.6648   -0.6123   -0.8273 H   0  0  0  0  0  0  0  0  0  0  0  0
    2.7167   -1.2609    0.4166 H   0  0  0  0  0  0  0  0  0  0  0  0
    1.4456    1.5405    0.4597 H   0  0  0  0  0  0  0  0  0  0  0  0
    3.0847    1.1792   -0.0694 H   0  0  0  0  0  0  0  0  0  0  0  0
    3.5887    0.2782    2.2612 H   0  0  0  0  0  0  0  0  0  0  0  0
    1.9713    0.7943    2.7754 H   0  0  0  0  0  0  0  0  0  0  0  0
    5.0301    3.3918    2.6018 H   0  0  0  0  0  0  0  0  0  0  0  0
    5.1130    1.9902    1.4884 H   0  0  0  0  0  0  0  0  0  0  0  0
    3.4307    4.9375    1.8002 H   0  0  0  0  0  0  0  0  0  0  0  0
  1 14  1  0  0  0  0
  2 16  1  0  0  0  0
  2  3  1  0  0  0  0
  2  1  1  0  0  0  0
  3  4  1  0  0  0  0
  4 19  1  0  0  0  0
  4  8  1  0  0  0  0
  4 20  1  0  0  0  0
  5  8  1  0  0  0  0
  5 21  1  0  0  0  0
  6 10  1  0  0  0  0
  6  5  1  0  0  0  0
  7 11  1  0  0  0  0
  8  7  1  0  0  0  0
  9  6  2  0  0  0  0
 10 23  1  0  0  0  0
 12  1  1  0  0  0  0
 13  1  1  0  0  0  0
 15  2  1  0  0  0  0
 17  3  1  0  0  0  0
 18  3  1  0  0  0  0
 22  5  1  0  0  0  0
M  RAD  2   7   2  11   2
M  END
>  <HBA>
5

>  <HBD>
1

>  <TPSA>
69.97

>  <cid>
43813

>  <dipole>
4.45

>  <excitation_energy_1>
3.515

>  <excitation_energy_2>
5.031

>  <excitation_energy_3>
5.482

>  <excitation_energy_4>
5.856

>  <homo_energy>
-7.026

>  <homo_lumo_gap>
5.241

>  <logP>
0.855

>  <lumo_energy>
-1.785

>  <melting_point>
72.28

>  <molecular_refractivity>
40.36

>  <oscillator_strength_1>
0.0008

>  <oscillator_strength_2>
0.0579

>  <oscillator_strength_3>
0.005

>  <oscillator_strength_4>
0.0749

>  <open_babel_can_smiles>
CCCCN(CC(=O)O)[N][O]

>  <mulliken_charges>
23
1   -0.449974
2   -0.259138
3   -0.278973
4   -0.141856
5   -0.282795
6   0.609958
7   0.168673
8   -0.196351
9   -0.44205
10   -0.571432
11   -0.416581
12   0.153721
13   0.151797
14   0.145451
15   0.151806
16   0.136785
17   0.155213
18   0.170354
19   0.160605
20   0.189628
21   0.207637
22   0.1958
23   0.441723

>  <lowdin_charges>
23
1   -0.446281
2   -0.271054
3   -0.291103
4   -0.201032
5   -0.255402
6   0.181646
7   0.066677
8   -0.01288
9   -0.241298
10   -0.346639
11   -0.298771
12   0.155716
13   0.152073
14   0.144634
15   0.151843
16   0.142686
17   0.153676
18   0.161902
19   0.154118
20   0.173093
21   0.185951
22   0.183879
23   0.356569

$$$$

