PCCDB-ID:  7657
public computational chemistry database (PCCDB) project, http://pccdb.org

 29 30  0  0  0  0  0  0  0  0999 V2000
   -1.4549    0.1528   -0.7119 C   0  0  0  0  0  0  0  0  0  0  0  0
    7.0310   -1.6969   -3.5800 C   0  0  0  0  0  0  0  0  0  0  0  0
   -0.9614    0.1302   -2.0170 C   0  0  0  0  0  0  0  0  0  0  0  0
   -0.5741    0.3429    0.3554 C   0  0  0  0  0  0  0  0  0  0  0  0
    6.0116   -2.3148   -2.8506 C   0  0  0  0  0  0  0  0  0  0  0  0
    7.3524   -0.3634   -3.3244 C   0  0  0  0  0  0  0  0  0  0  0  0
    0.4048    0.2959   -2.2505 C   0  0  0  0  0  0  0  0  0  0  0  0
    0.7894    0.5181    0.1197 C   0  0  0  0  0  0  0  0  0  0  0  0
    5.3241   -1.6052   -1.8667 C   0  0  0  0  0  0  0  0  0  0  0  0
    6.6557    0.3478   -2.3449 C   0  0  0  0  0  0  0  0  0  0  0  0
    2.7591    0.7342   -1.4584 C   0  0  0  0  0  0  0  0  0  0  0  0
    4.9209    0.4866   -0.4983 C   0  0  0  0  0  0  0  0  0  0  0  0
    1.2915    0.4971   -1.1872 C   0  0  0  0  0  0  0  0  0  0  0  0
    5.6417   -0.2664   -1.6029 C   0  0  0  0  0  0  0  0  0  0  0  0
    3.5373    0.1868   -0.4019 O   0  0  0  0  0  0  0  0  0  0  0  0
   -2.5174    0.0187   -0.5267 H   0  0  0  0  0  0  0  0  0  0  0  0
    7.5678   -2.2510   -4.3454 H   0  0  0  0  0  0  0  0  0  0  0  0
   -1.6374   -0.0259   -2.8538 H   0  0  0  0  0  0  0  0  0  0  0  0
   -0.9510    0.3565    1.3749 H   0  0  0  0  0  0  0  0  0  0  0  0
    5.7541   -3.3522   -3.0482 H   0  0  0  0  0  0  0  0  0  0  0  0
    8.1388    0.1269   -3.8924 H   0  0  0  0  0  0  0  0  0  0  0  0
    0.7858    0.2655   -3.2692 H   0  0  0  0  0  0  0  0  0  0  0  0
    1.4779    0.6570    0.9470 H   0  0  0  0  0  0  0  0  0  0  0  0
    4.5262   -2.0786   -1.3012 H   0  0  0  0  0  0  0  0  0  0  0  0
    6.9029    1.3908   -2.1564 H   0  0  0  0  0  0  0  0  0  0  0  0
    2.9614    1.8183   -1.5319 H   0  0  0  0  0  0  0  0  0  0  0  0
    3.0433    0.2920   -2.4245 H   0  0  0  0  0  0  0  0  0  0  0  0
    5.0732    1.5715   -0.6235 H   0  0  0  0  0  0  0  0  0  0  0  0
    5.3352    0.2074    0.4782 H   0  0  0  0  0  0  0  0  0  0  0  0
  1 16  1  0  0  0  0
  1  4  2  0  0  0  0
  2  6  2  0  0  0  0
  2  5  1  0  0  0  0
  3  1  1  0  0  0  0
  4 19  1  0  0  0  0
  5  9  2  0  0  0  0
  6 10  1  0  0  0  0
  7  3  2  0  0  0  0
  7 13  1  0  0  0  0
  8  4  1  0  0  0  0
  8 23  1  0  0  0  0
  9 14  1  0  0  0  0
  9 24  1  0  0  0  0
 10 25  1  0  0  0  0
 10 14  2  0  0  0  0
 11 13  1  0  0  0  0
 11 15  1  0  0  0  0
 12 15  1  0  0  0  0
 12 29  1  0  0  0  0
 13  8  2  0  0  0  0
 14 12  1  0  0  0  0
 17  2  1  0  0  0  0
 18  3  1  0  0  0  0
 20  5  1  0  0  0  0
 21  6  1  0  0  0  0
 22  7  1  0  0  0  0
 26 11  1  0  0  0  0
 27 11  1  0  0  0  0
 28 12  1  0  0  0  0
M  END
>  <HBA>
1

>  <HBD>
0

>  <TPSA>
9.23

>  <cid>
7657

>  <dipole>
1.12

>  <excitation_energy_1>
5.284

>  <excitation_energy_2>
5.289

>  <excitation_energy_3>
5.61

>  <excitation_energy_4>
5.744

>  <homo_energy>
-6.441

>  <homo_lumo_gap>
6.332

>  <logP>
3.403

>  <lumo_energy>
-0.109

>  <melting_point>
27.93

>  <molecular_refractivity>
61.79

>  <oscillator_strength_1>
0.0001

>  <oscillator_strength_2>
0.0002

>  <oscillator_strength_3>
0.0171

>  <oscillator_strength_4>
0.0069

>  <open_babel_can_smiles>
O(Cc1ccccc1)Cc1ccccc1

>  <mulliken_charges>
29
1   -0.128184
2   -0.128888
3   -0.129245
4   -0.132524
5   -0.129965
6   -0.128087
7   -0.181883
8   -0.161145
9   -0.169497
10   -0.182042
11   -0.08456
12   -0.093006
13   0.127989
14   0.120028
15   -0.471158
16   0.126904
17   0.129412
18   0.127534
19   0.128068
20   0.13119
21   0.129512
22   0.123026
23   0.141707
24   0.146003
25   0.122984
26   0.134843
27   0.142695
28   0.126838
29   0.16145

>  <lowdin_charges>
29
1   -0.157515
2   -0.159576
3   -0.157584
4   -0.154096
5   -0.152342
6   -0.156199
7   -0.165498
8   -0.157376
9   -0.159953
10   -0.166286
11   -0.126002
12   -0.128088
13   -0.012454
14   -0.026882
15   -0.265843
16   0.154767
17   0.158753
18   0.157533
19   0.155799
20   0.156801
21   0.158538
22   0.153591
23   0.165962
24   0.166717
25   0.152683
26   0.133924
27   0.141033
28   0.131218
29   0.158375

$$$$

