PCCDB-ID:  48802
public computational chemistry database (PCCDB) project, http://pccdb.org

 35 35  0  0  1  0  0  0  0  0999 V2000
    0.9599    0.1661    0.3314 C   0  0  0  0  0  0  0  0  0  0  0  0
    6.4062   -3.2509   -0.4808 C   0  0  0  0  0  0  0  0  0  0  0  0
    7.3534   -1.1496    0.5860 C   0  0  0  0  0  0  0  0  0  0  0  0
   -0.3170   -2.6275   -3.0201 C   0  0  0  0  0  0  0  0  0  0  0  0
    2.3706   -0.0150   -0.2386 C   0  0  0  0  0  0  0  0  0  0  0  0
    5.2215   -1.0159   -0.6806 C   0  0  0  0  0  0  0  0  0  0  0  0
    4.0726   -1.4351   -1.5637 C   0  0  0  0  0  0  0  0  0  0  0  0
    6.2437   -1.7720   -0.2281 C   0  0  0  0  0  0  0  0  0  0  0  0
    2.4787   -2.5074    0.1130 C   0  0  0  0  0  0  0  0  0  0  0  0
    1.6350   -1.5575   -2.0575 C   0  0  0  0  0  0  0  0  0  0  0  0
    0.5576   -3.4178   -0.8243 C   0  0  0  0  0  0  0  0  0  0  0  0
    2.6416   -1.4000   -0.9102 C   0  0  1  0  0  0  0  0  0  0  0  0
    1.5424   -3.3810    0.1592 N   0  0  0  0  0  0  0  0  0  0  0  0
    0.6670   -2.5282   -1.9357 N   0  0  0  0  0  0  0  0  0  0  0  0
    3.3857   -2.5575    1.0988 O   0  0  0  0  0  0  0  0  0  0  0  0
    1.6836   -0.8183   -3.0313 O   0  0  0  0  0  0  0  0  0  0  0  0
   -0.3705   -4.1982   -0.7664 O   0  0  0  0  0  0  0  0  0  0  0  0
    0.8756    1.1477    0.8094 H   0  0  0  0  0  0  0  0  0  0  0  0
    0.7223   -0.5917    1.0860 H   0  0  0  0  0  0  0  0  0  0  0  0
    0.1976    0.1174   -0.4534 H   0  0  0  0  0  0  0  0  0  0  0  0
    7.3468   -3.4408   -1.0146 H   0  0  0  0  0  0  0  0  0  0  0  0
    5.5937   -3.6898   -1.0626 H   0  0  0  0  0  0  0  0  0  0  0  0
    6.4697   -3.7970    0.4691 H   0  0  0  0  0  0  0  0  0  0  0  0
    8.3169   -1.2575    0.0699 H   0  0  0  0  0  0  0  0  0  0  0  0
    7.4629   -1.6529    1.5558 H   0  0  0  0  0  0  0  0  0  0  0  0
    7.1835   -0.0841    0.7680 H   0  0  0  0  0  0  0  0  0  0  0  0
   -0.7922   -1.6562   -3.1759 H   0  0  0  0  0  0  0  0  0  0  0  0
   -1.0518   -3.3740   -2.7290 H   0  0  0  0  0  0  0  0  0  0  0  0
    0.1796   -2.9203   -3.9492 H   0  0  0  0  0  0  0  0  0  0  0  0
    3.1045    0.1338    0.5609 H   0  0  0  0  0  0  0  0  0  0  0  0
    2.5637    0.7460   -1.0027 H   0  0  0  0  0  0  0  0  0  0  0  0
    5.2488    0.0453   -0.4336 H   0  0  0  0  0  0  0  0  0  0  0  0
    4.2362   -2.4354   -1.9774 H   0  0  0  0  0  0  0  0  0  0  0  0
    4.0117   -0.7519   -2.4178 H   0  0  0  0  0  0  0  0  0  0  0  0
    4.1328   -1.9575    0.8909 H   0  0  0  0  0  0  0  0  0  0  0  0
  1 18  1  0  0  0  0
  1 19  1  0  0  0  0
  2  8  1  0  0  0  0
  2 23  1  0  0  0  0
  3 26  1  0  0  0  0
  3 25  1  0  0  0  0
  4 28  1  0  0  0  0
  4 14  1  0  0  0  0
  5  1  1  0  0  0  0
  5 30  1  0  0  0  0
  6 32  1  0  0  0  0
  6  8  2  0  0  0  0
  7  6  1  0  0  0  0
  8  3  1  0  0  0  0
  9 13  2  0  0  0  0
  9 15  1  0  0  0  0
 10 14  1  0  0  0  0
 10 12  1  0  0  0  0
 11 17  2  0  0  0  0
 11 13  1  0  0  0  0
 12  7  1  6  0  0  0
 12  5  1  0  0  0  0
 12  9  1  0  0  0  0
 14 11  1  0  0  0  0
 16 10  2  0  0  0  0
 20  1  1  0  0  0  0
 21  2  1  0  0  0  0
 22  2  1  0  0  0  0
 24  3  1  0  0  0  0
 27  4  1  0  0  0  0
 29  4  1  0  0  0  0
 31  5  1  0  0  0  0
 33  7  1  0  0  0  0
 34  7  1  0  0  0  0
 35 15  1  0  0  0  0
M  END
>  <HBA>
5

>  <HBD>
1

>  <TPSA>
66.48

>  <cid>
48802

>  <dipole>
6.01

>  <excitation_energy_1>
4.524

>  <excitation_energy_2>
4.752

>  <excitation_energy_3>
5.03

>  <excitation_energy_4>
5.23

>  <homo_energy>
-7.072

>  <homo_lumo_gap>
5.755

>  <logP>
1.714

>  <lumo_energy>
-1.317

>  <melting_point>
128.25

>  <molecular_refractivity>
71.47

>  <oscillator_strength_1>
0.002

>  <oscillator_strength_2>
0.0161

>  <oscillator_strength_3>
0.027

>  <oscillator_strength_4>
0.0471

>  <open_babel_can_smiles>
CC[C@@]1(CC=C(C)C)C(=NC(=O)N(C1=O)C)O

>  <mulliken_charges>
35
1   -0.473765
2   -0.512232
3   -0.507794
4   -0.322825
5   -0.262812
6   -0.24285
7   -0.317661
8   0.182832
9   0.541142
10   0.646383
11   0.698594
12   -0.133965
13   -0.493761
14   -0.514346
15   -0.582771
16   -0.520358
17   -0.467181
18   0.158312
19   0.170838
20   0.16685
21   0.167087
22   0.166678
23   0.173337
24   0.166066
25   0.163566
26   0.159934
27   0.175905
28   0.204495
29   0.174479
30   0.142356
31   0.172912
32   0.139227
33   0.160501
34   0.198836
35   0.421994

>  <lowdin_charges>
35
1   -0.45411
2   -0.449126
3   -0.439383
4   -0.353029
5   -0.266829
6   -0.221067
7   -0.274125
8   0.008184
9   0.160359
10   0.162446
11   0.184542
12   -0.053001
13   -0.192107
14   -0.09078
15   -0.328076
16   -0.284785
17   -0.249069
18   0.160201
19   0.161167
20   0.159367
21   0.165651
22   0.162718
23   0.167829
24   0.163105
25   0.160928
26   0.157314
27   0.165665
28   0.186077
29   0.164559
30   0.147801
31   0.164542
32   0.155072
33   0.157893
34   0.182492
35   0.357574

$$$$

