PCCDB-ID:  59766
public computational chemistry database (PCCDB) project, http://pccdb.org

 20 19  0  0  0  0  0  0  0  0999 V2000
    2.7804   -0.5906   -3.1410 C   0  0  0  0  0  0  0  0  0  0  0  0
    5.2290   -4.3186    0.6521 C   0  0  0  0  0  0  0  0  0  0  0  0
    2.9244   -0.2280   -1.8630 C   0  0  0  0  0  0  0  0  0  0  0  0
    5.9080   -3.2954    0.1295 C   0  0  0  0  0  0  0  0  0  0  0  0
    3.4671   -1.1222   -0.7821 C   0  0  0  0  0  0  0  0  0  0  0  0
    5.9342   -1.9071    0.7035 C   0  0  0  0  0  0  0  0  0  0  0  0
    6.0139   -0.8846   -1.7406 O   0  0  0  0  0  0  0  0  0  0  0  0
    5.2665    0.7793    0.1975 O   0  0  0  0  0  0  0  0  0  0  0  0
    5.1865   -0.6046   -0.3540 P   0  0  0  0  0  0  0  0  0  0  0  0
    2.4081    0.1024   -3.8904 H   0  0  0  0  0  0  0  0  0  0  0  0
    3.0077   -1.5999   -3.4784 H   0  0  0  0  0  0  0  0  0  0  0  0
    5.2456   -5.3043    0.1953 H   0  0  0  0  0  0  0  0  0  0  0  0
    4.6399   -4.2138    1.5611 H   0  0  0  0  0  0  0  0  0  0  0  0
    2.6883    0.7913   -1.5617 H   0  0  0  0  0  0  0  0  0  0  0  0
    6.4878   -3.4431   -0.7802 H   0  0  0  0  0  0  0  0  0  0  0  0
    3.4858   -2.1704   -1.0977 H   0  0  0  0  0  0  0  0  0  0  0  0
    2.8657   -1.0467    0.1324 H   0  0  0  0  0  0  0  0  0  0  0  0
    6.9640   -1.5654    0.8744 H   0  0  0  0  0  0  0  0  0  0  0  0
    5.4157   -1.8619    1.6687 H   0  0  0  0  0  0  0  0  0  0  0  0
    5.6844   -0.3146   -2.4578 H   0  0  0  0  0  0  0  0  0  0  0  0
  1  3  2  0  0  0  0
  2 13  1  0  0  0  0
  3 14  1  0  0  0  0
  3  5  1  0  0  0  0
  4  2  2  0  0  0  0
  4  6  1  0  0  0  0
  5  9  1  0  0  0  0
  5 17  1  0  0  0  0
  6 18  1  0  0  0  0
  6 19  1  0  0  0  0
  7  9  1  0  0  0  0
  9  8  2  0  0  0  0
  9  6  1  0  0  0  0
 10  1  1  0  0  0  0
 11  1  1  0  0  0  0
 12  2  1  0  0  0  0
 15  4  1  0  0  0  0
 16  5  1  0  0  0  0
 20  7  1  0  0  0  0
M  END
>  <HBA>
2

>  <HBD>
1

>  <TPSA>
47.11

>  <cid>
59766

>  <dipole>
3.38

>  <excitation_energy_1>
5.838

>  <excitation_energy_2>
6.002

>  <excitation_energy_3>
6.092

>  <excitation_energy_4>
6.363

>  <homo_energy>
-6.789

>  <homo_lumo_gap>
6.694

>  <logP>
1.629

>  <lumo_energy>
-0.095

>  <melting_point>
-19.22

>  <molecular_refractivity>
39.83

>  <oscillator_strength_1>
0.1093

>  <oscillator_strength_2>
0.0546

>  <oscillator_strength_3>
0.0157

>  <oscillator_strength_4>
0.0254

>  <open_babel_can_smiles>
C=CCP(=O)(CC=C)O

>  <mulliken_charges>
20
1   -0.343435
2   -0.33907
3   -0.080493
4   -0.056947
5   -0.517544
6   -0.532603
7   -0.68197
8   -0.542336
9   0.99828
10   0.151724
11   0.146068
12   0.148197
13   0.140558
14   0.165685
15   0.157229
16   0.18619
17   0.18304
18   0.204017
19   0.184377
20   0.429033

>  <lowdin_charges>
20
1   -0.343926
2   -0.337392
3   -0.144965
4   -0.145851
5   -0.457871
6   -0.446815
7   -0.592341
8   -0.603248
9   0.984997
10   0.165681
11   0.157673
12   0.162477
13   0.155899
14   0.168737
15   0.165514
16   0.179216
17   0.182345
18   0.193254
19   0.180594
20   0.376022

$$$$

