PCCDB-ID:  28526
public computational chemistry database (PCCDB) project, http://pccdb.org

 27 26  0  0  1  0  0  0  0  0999 V2000
    0.8768   -0.2694   -0.0649 C   0  0  0  0  0  0  0  0  0  0  0  0
    7.3679   -0.8818    3.9655 C   0  0  0  0  0  0  0  0  0  0  0  0
    2.4025   -0.1315   -0.0836 C   0  0  0  0  0  0  0  0  0  0  0  0
    3.0648   -0.5326    1.2407 C   0  0  0  0  0  0  0  0  0  0  0  0
    4.5933   -0.4049    1.2227 C   0  0  0  0  0  0  0  0  0  0  0  0
    5.2490   -0.7746    2.5583 C   0  0  0  0  0  0  0  0  0  0  0  0
    6.7849   -0.6951    2.5512 C   0  0  2  0  0  0  0  0  0  0  0  0
    7.2152   -3.0086    1.7703 N   0  0  0  0  0  0  0  0  0  0  0  0
    7.3479   -1.6058    1.5328 N   0  0  0  0  0  0  0  0  0  0  0  0
    0.4350    0.0346   -1.0209 H   0  0  0  0  0  0  0  0  0  0  0  0
    0.4317    0.3540    0.7206 H   0  0  0  0  0  0  0  0  0  0  0  0
    0.5741   -1.3064    0.1266 H   0  0  0  0  0  0  0  0  0  0  0  0
    6.9868   -0.1137    4.6481 H   0  0  0  0  0  0  0  0  0  0  0  0
    8.4622   -0.8086    3.9536 H   0  0  0  0  0  0  0  0  0  0  0  0
    7.0983   -1.8543    4.3969 H   0  0  0  0  0  0  0  0  0  0  0  0
    2.6729    0.9069   -0.3229 H   0  0  0  0  0  0  0  0  0  0  0  0
    2.8165   -0.7466   -0.8951 H   0  0  0  0  0  0  0  0  0  0  0  0
    2.7877   -1.5703    1.4821 H   0  0  0  0  0  0  0  0  0  0  0  0
    2.6523    0.0856    2.0526 H   0  0  0  0  0  0  0  0  0  0  0  0
    4.8681    0.6276    0.9601 H   0  0  0  0  0  0  0  0  0  0  0  0
    5.0130   -1.0366    0.4300 H   0  0  0  0  0  0  0  0  0  0  0  0
    4.9476   -1.7924    2.8493 H   0  0  0  0  0  0  0  0  0  0  0  0
    4.8707   -0.1147    3.3510 H   0  0  0  0  0  0  0  0  0  0  0  0
    7.0703    0.3081    2.2024 H   0  0  0  0  0  0  0  0  0  0  0  0
    6.3032   -3.2937    1.4206 H   0  0  0  0  0  0  0  0  0  0  0  0
    7.2366   -3.2314    2.7694 H   0  0  0  0  0  0  0  0  0  0  0  0
    8.3447   -1.4269    1.4353 H   0  0  0  0  0  0  0  0  0  0  0  0
  1 12  1  0  0  0  0
  1 11  1  0  0  0  0
  2 15  1  0  0  0  0
  2 13  1  0  0  0  0
  3  1  1  0  0  0  0
  3  4  1  0  0  0  0
  4 18  1  0  0  0  0
  4 19  1  0  0  0  0
  5  4  1  0  0  0  0
  5  6  1  0  0  0  0
  6 22  1  0  0  0  0
  6 23  1  0  0  0  0
  7 24  1  6  0  0  0
  7  6  1  0  0  0  0
  7  2  1  0  0  0  0
  8 26  1  0  0  0  0
  9  8  1  0  0  0  0
  9  7  1  0  0  0  0
 10  1  1  0  0  0  0
 14  2  1  0  0  0  0
 16  3  1  0  0  0  0
 17  3  1  0  0  0  0
 20  5  1  0  0  0  0
 21  5  1  0  0  0  0
 25  8  1  0  0  0  0
 27  9  1  0  0  0  0
M  END
>  <HBA>
2

>  <HBD>
2

>  <TPSA>
38.05

>  <cid>
28526

>  <dipole>
1.67

>  <excitation_energy_1>
5.56

>  <excitation_energy_2>
5.847

>  <excitation_energy_3>
6.104

>  <excitation_energy_4>
6.319

>  <homo_energy>
-6.076

>  <homo_lumo_gap>
7.886

>  <logP>
2.51

>  <lumo_energy>
1.81

>  <melting_point>
54.2

>  <molecular_refractivity>
41.27

>  <oscillator_strength_1>
0.0126

>  <oscillator_strength_2>
0.0074

>  <oscillator_strength_3>
0.0213

>  <oscillator_strength_4>
0.0049

>  <open_babel_can_smiles>
CCCCC[C@H](NN)C

>  <mulliken_charges>
27
1   -0.441152
2   -0.457011
3   -0.246213
4   -0.246262
5   -0.252769
6   -0.254791
7   0.028675
8   -0.597398
9   -0.439438
10   0.141282
11   0.140049
12   0.140093
13   0.147706
14   0.140493
15   0.135391
16   0.129925
17   0.131525
18   0.121821
19   0.123338
20   0.124262
21   0.151639
22   0.113699
23   0.129275
24   0.126668
25   0.313427
26   0.288175
27   0.307589

>  <lowdin_charges>
27
1   -0.444859
2   -0.463427
3   -0.271672
4   -0.274598
5   -0.276234
6   -0.282467
7   -0.075886
8   -0.484979
9   -0.305476
10   0.148995
11   0.1466
12   0.144537
13   0.155704
14   0.146146
15   0.142805
16   0.137619
17   0.140525
18   0.133656
19   0.13611
20   0.136727
21   0.150676
22   0.131599
23   0.143599
24   0.140073
25   0.256043
26   0.234598
27   0.253588

$$$$

