PCCDB-ID:  2758
public computational chemistry database (PCCDB) project, http://pccdb.org

 29 30  0  0  1  0  0  0  0  0999 V2000
    0.9239    0.0927    0.0337 C   0  0  0  0  0  0  0  0  0  0  0  0
    2.9613   -0.5385   -1.2633 C   0  0  0  0  0  0  0  0  0  0  0  0
    4.1994    3.0148    1.3656 C   0  0  0  0  0  0  0  0  0  0  0  0
    4.4960   -0.8743    1.3263 C   0  0  0  0  0  0  0  0  0  0  0  0
    2.4698   -0.2497    2.6155 C   0  0  0  0  0  0  0  0  0  0  0  0
    4.9952    0.5971    1.3584 C   0  0  0  0  0  0  0  0  0  0  0  0
    2.9314    1.2334    2.6676 C   0  0  0  0  0  0  0  0  0  0  0  0
    2.9535   -0.8696    1.2874 C   0  0  1  0  0  0  0  0  0  0  0  0
    2.4565   -0.0131    0.0908 C   0  0  0  0  0  0  0  0  0  0  0  0
    3.7838    1.5495    1.4213 C   0  0  1  0  0  0  0  0  0  0  0  0
    2.9729    1.3358    0.2461 O   0  0  0  0  0  0  0  0  0  0  0  0
    0.4631   -0.8931   -0.1049 H   0  0  0  0  0  0  0  0  0  0  0  0
    0.6340    0.7273   -0.8103 H   0  0  0  0  0  0  0  0  0  0  0  0
    0.5114    0.5434    0.9401 H   0  0  0  0  0  0  0  0  0  0  0  0
    2.5890   -1.5515   -1.4599 H   0  0  0  0  0  0  0  0  0  0  0  0
    4.0531   -0.5550   -1.3129 H   0  0  0  0  0  0  0  0  0  0  0  0
    2.6049    0.1178   -2.0641 H   0  0  0  0  0  0  0  0  0  0  0  0
    4.8245    3.2749    2.2274 H   0  0  0  0  0  0  0  0  0  0  0  0
    3.3162    3.6622    1.3678 H   0  0  0  0  0  0  0  0  0  0  0  0
    4.7663    3.2157    0.4504 H   0  0  0  0  0  0  0  0  0  0  0  0
    4.8245   -1.4195    2.2191 H   0  0  0  0  0  0  0  0  0  0  0  0
    4.9131   -1.4117    0.4693 H   0  0  0  0  0  0  0  0  0  0  0  0
    1.3832   -0.3262    2.7168 H   0  0  0  0  0  0  0  0  0  0  0  0
    2.8960   -0.8227    3.4476 H   0  0  0  0  0  0  0  0  0  0  0  0
    5.5703    0.8376    0.4571 H   0  0  0  0  0  0  0  0  0  0  0  0
    5.6549    0.7757    2.2166 H   0  0  0  0  0  0  0  0  0  0  0  0
    3.5098    1.4395    3.5767 H   0  0  0  0  0  0  0  0  0  0  0  0
    2.0723    1.9133    2.6740 H   0  0  0  0  0  0  0  0  0  0  0  0
    2.5706   -1.8921    1.1811 H   0  0  0  0  0  0  0  0  0  0  0  0
  1  9  1  0  0  0  0
  1 14  1  0  0  0  0
  2  9  1  0  0  0  0
  3 19  1  0  0  0  0
  3 18  1  0  0  0  0
  4  6  1  0  0  0  0
  4 21  1  0  0  0  0
  5  7  1  0  0  0  0
  5 23  1  0  0  0  0
  5 24  1  0  0  0  0
  6 10  1  0  0  0  0
  6 26  1  0  0  0  0
  7 28  1  0  0  0  0
  7 27  1  0  0  0  0
  8 29  1  6  0  0  0
  8  4  1  0  0  0  0
  8  5  1  0  0  0  0
  9 11  1  0  0  0  0
  9  8  1  0  0  0  0
 10  3  1  1  0  0  0
 10  7  1  0  0  0  0
 11 10  1  0  0  0  0
 12  1  1  0  0  0  0
 13  1  1  0  0  0  0
 15  2  1  0  0  0  0
 16  2  1  0  0  0  0
 17  2  1  0  0  0  0
 20  3  1  0  0  0  0
 22  4  1  0  0  0  0
 25  6  1  0  0  0  0
M  END
>  <HBA>
1

>  <HBD>
0

>  <TPSA>
9.23

>  <cid>
2758

>  <dipole>
1.3

>  <excitation_energy_1>
5.77

>  <excitation_energy_2>
6.243

>  <excitation_energy_3>
6.293

>  <excitation_energy_4>
6.384

>  <homo_energy>
-6.24

>  <homo_lumo_gap>
8.101

>  <logP>
2.744

>  <lumo_energy>
1.861

>  <melting_point>
29.03

>  <molecular_refractivity>
47.12

>  <oscillator_strength_1>
0.0123

>  <oscillator_strength_2>
0.0039

>  <oscillator_strength_3>
0.0178

>  <oscillator_strength_4>
0.0021

>  <open_babel_can_smiles>
C[C@]12CC[C@H](CC1)C(O2)(C)C

>  <mulliken_charges>
29
1   -0.45155
2   -0.451653
3   -0.457374
4   -0.28626
5   -0.285885
6   -0.271862
7   -0.272379
8   -0.108925
9   0.339661
10   0.31143
11   -0.549062
12   0.132052
13   0.1492
14   0.146306
15   0.132112
16   0.146348
17   0.149234
18   0.135828
19   0.149628
20   0.149551
21   0.131624
22   0.140236
23   0.14016
24   0.131565
25   0.138913
26   0.128753
27   0.128776
28   0.139043
29   0.114531

>  <lowdin_charges>
29
1   -0.452551
2   -0.44938
3   -0.443722
4   -0.286255
5   -0.283558
6   -0.295043
7   -0.295312
8   -0.141284
9   0.12978
10   0.12407
11   -0.285297
12   0.146313
13   0.156217
14   0.152486
15   0.145991
16   0.150011
17   0.156407
18   0.150312
19   0.155768
20   0.155591
21   0.143902
22   0.146937
23   0.144064
24   0.144229
25   0.148463
26   0.145127
27   0.144883
28   0.148616
29   0.143232

$$$$

