PCCDB-ID:  66313
public computational chemistry database (PCCDB) project, http://pccdb.org

 27 28  0  0  1  0  0  0  0  0999 V2000
   -2.4559   -0.3736    0.4542 C   0  0  0  0  0  0  0  0  0  0  0  0
   -2.2995    1.1463    0.3194 C   0  0  0  0  0  0  0  0  0  0  0  0
    2.2350   -1.1164    0.5659 C   0  0  0  0  0  0  0  0  0  0  0  0
   -1.5407   -1.0937   -0.5454 C   0  0  0  0  0  0  0  0  0  0  0  0
    0.7102   -1.3465    0.7332 C   0  0  0  0  0  0  0  0  0  0  0  0
   -0.8371    1.5502    0.5393 C   0  0  0  0  0  0  0  0  0  0  0  0
    2.5179    0.1392   -0.2843 C   0  0  0  0  0  0  0  0  0  0  0  0
   -0.0515   -0.7050   -0.4393 C   0  0  2  0  0  0  0  0  0  0  0  0
    0.1448    0.8360   -0.4104 C   0  0  2  0  0  0  0  0  0  0  0  0
    1.5184    1.1576    0.0290 N   0  0  0  0  0  0  0  0  0  0  0  0
   -3.4981   -0.6725    0.2829 H   0  0  0  0  0  0  0  0  0  0  0  0
   -2.2097   -0.6769    1.4819 H   0  0  0  0  0  0  0  0  0  0  0  0
   -2.9458    1.6686    1.0362 H   0  0  0  0  0  0  0  0  0  0  0  0
   -2.6305    1.4570   -0.6833 H   0  0  0  0  0  0  0  0  0  0  0  0
    2.7032   -1.9850    0.0853 H   0  0  0  0  0  0  0  0  0  0  0  0
    2.7009   -1.0062    1.5514 H   0  0  0  0  0  0  0  0  0  0  0  0
   -1.8904   -0.8527   -1.5604 H   0  0  0  0  0  0  0  0  0  0  0  0
   -1.6352   -2.1828   -0.4402 H   0  0  0  0  0  0  0  0  0  0  0  0
    0.3715   -0.9148    1.6819 H   0  0  0  0  0  0  0  0  0  0  0  0
    0.4892   -2.4202    0.7828 H   0  0  0  0  0  0  0  0  0  0  0  0
   -0.5422    1.3160    1.5702 H   0  0  0  0  0  0  0  0  0  0  0  0
   -0.7122    2.6361    0.4264 H   0  0  0  0  0  0  0  0  0  0  0  0
    2.5483   -0.1305   -1.3577 H   0  0  0  0  0  0  0  0  0  0  0  0
    3.5067    0.5444   -0.0412 H   0  0  0  0  0  0  0  0  0  0  0  0
    0.4251   -1.0773   -1.3577 H   0  0  0  0  0  0  0  0  0  0  0  0
   -0.0481    1.2023   -1.4375 H   0  0  0  0  0  0  0  0  0  0  0  0
    1.7966    2.0633   -0.3391 H   0  0  0  0  0  0  0  0  0  0  0  0
  1 12  1  0  0  0  0
  2  1  1  0  0  0  0
  2  6  1  0  0  0  0
  2 13  1  0  0  0  0
  3  5  1  0  0  0  0
  3 16  1  0  0  0  0
  4 18  1  0  0  0  0
  4  8  1  0  0  0  0
  4  1  1  0  0  0  0
  5 20  1  0  0  0  0
  5 19  1  0  0  0  0
  6 21  1  0  0  0  0
  7 24  1  0  0  0  0
  7 10  1  0  0  0  0
  7  3  1  0  0  0  0
  8 25  1  6  0  0  0
  8  9  1  0  0  0  0
  8  5  1  0  0  0  0
  9 26  1  6  0  0  0
  9 10  1  0  0  0  0
  9  6  1  0  0  0  0
 11  1  1  0  0  0  0
 14  2  1  0  0  0  0
 15  3  1  0  0  0  0
 17  4  1  0  0  0  0
 22  6  1  0  0  0  0
 23  7  1  0  0  0  0
 27 10  1  0  0  0  0
M  END
>  <HBA>
1

>  <HBD>
1

>  <TPSA>
12.03

>  <cid>
66313

>  <dipole>
0.83

>  <excitation_energy_1>
4.981

>  <excitation_energy_2>
5.545

>  <excitation_energy_3>
5.551

>  <excitation_energy_4>
5.68

>  <homo_energy>
-5.587

>  <homo_lumo_gap>
7.655

>  <logP>
2.257

>  <lumo_energy>
2.068

>  <melting_point>
43.78

>  <molecular_refractivity>
47.87

>  <oscillator_strength_1>
0.0034

>  <oscillator_strength_2>
0.0176

>  <oscillator_strength_3>
0.0174

>  <oscillator_strength_4>
0.0218

>  <open_babel_can_smiles>
C1CC[C@H]2[C@@H](C1)NCCC2

>  <mulliken_charges>
27
1   -0.255974
2   -0.262271
3   -0.25281
4   -0.269127
5   -0.263331
6   -0.249672
7   -0.127786
8   -0.10634
9   0.053325
10   -0.575894
11   0.127854
12   0.13153
13   0.12926
14   0.12331
15   0.125525
16   0.136657
17   0.124901
18   0.127624
19   0.143593
20   0.125998
21   0.139937
22   0.120312
23   0.110305
24   0.132544
25   0.12109
26   0.097419
27   0.292021

>  <lowdin_charges>
27
1   -0.276971
2   -0.280557
3   -0.283565
4   -0.274115
5   -0.279771
6   -0.281603
7   -0.203229
8   -0.136611
9   -0.064943
10   -0.368467
11   0.141452
12   0.137732
13   0.14484
14   0.134604
15   0.139965
16   0.145458
17   0.137537
18   0.140331
19   0.144716
20   0.139878
21   0.143904
22   0.137791
23   0.110775
24   0.143826
25   0.138694
26   0.114522
27   0.253806

$$$$

