PCCDB-ID:  39542
public computational chemistry database (PCCDB) project, http://pccdb.org

 39 38  0  0  0  0  0  0  0  0999 V2000
    2.9681   -2.0062   -6.8892 C   0  0  0  0  0  0  0  0  0  0  0  0
    7.8228   -5.7586    2.2846 C   0  0  0  0  0  0  0  0  0  0  0  0
    7.0647   -0.1509   -2.8175 C   0  0  0  0  0  0  0  0  0  0  0  0
    2.4285   -1.3198   -5.6287 C   0  0  0  0  0  0  0  0  0  0  0  0
    7.2575   -5.3992    0.9068 C   0  0  0  0  0  0  0  0  0  0  0  0
    3.0860   -1.7858   -4.3192 C   0  0  0  0  0  0  0  0  0  0  0  0
    7.4725   -3.9278    0.5301 C   0  0  0  0  0  0  0  0  0  0  0  0
    4.5745   -1.4272   -4.1898 C   0  0  0  0  0  0  0  0  0  0  0  0
    6.9044   -3.5667   -0.8498 C   0  0  0  0  0  0  0  0  0  0  0  0
    5.1483   -1.8507   -2.8303 C   0  0  0  0  0  0  0  0  0  0  0  0
    7.1177   -2.0890   -1.2026 C   0  0  0  0  0  0  0  0  0  0  0  0
    7.4125   -2.4397   -3.6290 C   0  0  0  0  0  0  0  0  0  0  0  0
    6.6774   -1.6376   -2.6285 C   0  0  0  0  0  0  0  0  0  0  0  0
    7.9908   -3.0718   -4.4138 N   0  0  0  0  0  0  0  0  0  0  0  0
    2.4244   -1.6732   -7.7806 H   0  0  0  0  0  0  0  0  0  0  0  0
    2.8603   -3.0960   -6.8214 H   0  0  0  0  0  0  0  0  0  0  0  0
    4.0295   -1.7892   -7.0525 H   0  0  0  0  0  0  0  0  0  0  0  0
    7.6522   -6.8144    2.5234 H   0  0  0  0  0  0  0  0  0  0  0  0
    7.3544   -5.1586    3.0747 H   0  0  0  0  0  0  0  0  0  0  0  0
    8.9038   -5.5779    2.3296 H   0  0  0  0  0  0  0  0  0  0  0  0
    6.4957    0.4665   -2.1132 H   0  0  0  0  0  0  0  0  0  0  0  0
    6.8544    0.1994   -3.8312 H   0  0  0  0  0  0  0  0  0  0  0  0
    8.1314   -0.0008   -2.6228 H   0  0  0  0  0  0  0  0  0  0  0  0
    1.3477   -1.5017   -5.5588 H   0  0  0  0  0  0  0  0  0  0  0  0
    2.5466   -0.2308   -5.7247 H   0  0  0  0  0  0  0  0  0  0  0  0
    6.1820   -5.6258    0.8820 H   0  0  0  0  0  0  0  0  0  0  0  0
    7.7203   -6.0388    0.1422 H   0  0  0  0  0  0  0  0  0  0  0  0
    2.9663   -2.8752   -4.2228 H   0  0  0  0  0  0  0  0  0  0  0  0
    2.5403   -1.3437   -3.4730 H   0  0  0  0  0  0  0  0  0  0  0  0
    8.5489   -3.7020    0.5518 H   0  0  0  0  0  0  0  0  0  0  0  0
    7.0116   -3.2860    1.2960 H   0  0  0  0  0  0  0  0  0  0  0  0
    4.6904   -0.3445   -4.3316 H   0  0  0  0  0  0  0  0  0  0  0  0
    5.1482   -1.9115   -4.9900 H   0  0  0  0  0  0  0  0  0  0  0  0
    5.8341   -3.8100   -0.8661 H   0  0  0  0  0  0  0  0  0  0  0  0
    7.3787   -4.1970   -1.6141 H   0  0  0  0  0  0  0  0  0  0  0  0
    4.9192   -2.9111   -2.6735 H   0  0  0  0  0  0  0  0  0  0  0  0
    4.6398   -1.2994   -2.0265 H   0  0  0  0  0  0  0  0  0  0  0  0
    8.1826   -1.8465   -1.0884 H   0  0  0  0  0  0  0  0  0  0  0  0
    6.5773   -1.4548   -0.4861 H   0  0  0  0  0  0  0  0  0  0  0  0
  1 16  1  0  0  0  0
  1  4  1  0  0  0  0
  2 20  1  0  0  0  0
  2 18  1  0  0  0  0
  2 19  1  0  0  0  0
  3 13  1  0  0  0  0
  3 23  1  0  0  0  0
  3 21  1  0  0  0  0
  4 24  1  0  0  0  0
  4  6  1  0  0  0  0
  5  2  1  0  0  0  0
  6 28  1  0  0  0  0
  6  8  1  0  0  0  0
  6 29  1  0  0  0  0
  7 30  1  0  0  0  0
  7  5  1  0  0  0  0
  7 31  1  0  0  0  0
  8 10  1  0  0  0  0
  9  7  1  0  0  0  0
 10 36  1  0  0  0  0
 10 13  1  0  0  0  0
 10 37  1  0  0  0  0
 11 38  1  0  0  0  0
 11  9  1  0  0  0  0
 11 39  1  0  0  0  0
 12 13  1  0  0  0  0
 13 11  1  0  0  0  0
 14 12  3  0  0  0  0
 15  1  1  0  0  0  0
 17  1  1  0  0  0  0
 22  3  1  0  0  0  0
 25  4  1  0  0  0  0
 26  5  1  0  0  0  0
 27  5  1  0  0  0  0
 32  8  1  0  0  0  0
 33  8  1  0  0  0  0
 34  9  1  0  0  0  0
 35  9  1  0  0  0  0
M  END
>  <HBA>
1

>  <HBD>
0

>  <TPSA>
23.79

>  <cid>
39542

>  <dipole>
3.75

>  <excitation_energy_1>
7.565

>  <excitation_energy_2>
7.653

>  <excitation_energy_3>
7.761

>  <excitation_energy_4>
7.792

>  <homo_energy>
-8.191

>  <homo_lumo_gap>
9.374

>  <logP>
4.677

>  <lumo_energy>
1.184

>  <melting_point>
21.38

>  <molecular_refractivity>
64.09

>  <oscillator_strength_1>
0.0023

>  <oscillator_strength_2>
0.0059

>  <oscillator_strength_3>
0.0204

>  <oscillator_strength_4>
0.0016

>  <open_babel_can_smiles>
CCCCCC(C#N)(CCCCC)C

>  <mulliken_charges>
39
1   -0.444922
2   -0.442243
3   -0.450244
4   -0.250178
5   -0.248742
6   -0.252669
7   -0.249673
8   -0.27386
9   -0.274833
10   -0.263869
11   -0.2581
12   0.353774
13   0.001467
14   -0.496242
15   0.143211
16   0.143582
17   0.151361
18   0.143886
19   0.1407
20   0.143112
21   0.15171
22   0.168202
23   0.161242
24   0.132378
25   0.129531
26   0.130386
27   0.13683
28   0.131239
29   0.126768
30   0.131793
31   0.126611
32   0.133102
33   0.160586
34   0.135818
35   0.157063
36   0.153133
37   0.136121
38   0.14434
39   0.137628

>  <lowdin_charges>
39
1   -0.444524
2   -0.442276
3   -0.432403
4   -0.268625
5   -0.271313
6   -0.273192
7   -0.272536
8   -0.282459
9   -0.2816
10   -0.266779
11   -0.265053
12   -0.013093
13   0.003719
14   -0.144059
15   0.151028
16   0.145572
17   0.148307
18   0.149171
19   0.146965
20   0.145357
21   0.156391
22   0.161545
23   0.158634
24   0.140702
25   0.136345
26   0.137075
27   0.14329
28   0.13723
29   0.140029
30   0.13782
31   0.138003
32   0.1388
33   0.154549
34   0.139964
35   0.154164
36   0.151287
37   0.146359
38   0.148214
39   0.147393

$$$$

