PCCDB-ID:  16330
public computational chemistry database (PCCDB) project, http://pccdb.org

 28 28  0  0  0  0  0  0  0  0999 V2000
    1.9730   -4.3390   -0.0759 C   0  0  0  0  0  0  0  0  0  0  0  0
    3.3163   -4.0166   -0.7374 C   0  0  0  0  0  0  0  0  0  0  0  0
    3.1667   -3.1586   -2.0005 C   0  0  0  0  0  0  0  0  0  0  0  0
    9.3672    0.3331   -0.8448 C   0  0  0  0  0  0  0  0  0  0  0  0
    8.9788    0.6073    0.4688 C   0  0  0  0  0  0  0  0  0  0  0  0
    8.5230   -0.4150   -1.6551 C   0  0  0  0  0  0  0  0  0  0  0  0
    7.7640    0.1322    0.9503 C   0  0  0  0  0  0  0  0  0  0  0  0
    4.4857   -2.8343   -2.6856 C   0  0  0  0  0  0  0  0  0  0  0  0
    7.2877   -0.9044   -1.1978 C   0  0  0  0  0  0  0  0  0  0  0  0
    6.9092   -0.6246    0.1345 C   0  0  0  0  0  0  0  0  0  0  0  0
    6.4983   -1.6914   -2.1936 C   0  0  0  0  0  0  0  0  0  0  0  0
    5.7276   -1.0893    0.6276 O   0  0  0  0  0  0  0  0  0  0  0  0
    6.9195   -1.9714   -3.3023 O   0  0  0  0  0  0  0  0  0  0  0  0
    5.2778   -2.0551   -1.7623 O   0  0  0  0  0  0  0  0  0  0  0  0
    2.1086   -4.9484    0.8250 H   0  0  0  0  0  0  0  0  0  0  0  0
    1.3145   -4.8937   -0.7561 H   0  0  0  0  0  0  0  0  0  0  0  0
    1.4462   -3.4229    0.2188 H   0  0  0  0  0  0  0  0  0  0  0  0
    3.8320   -4.9524   -0.9969 H   0  0  0  0  0  0  0  0  0  0  0  0
    3.9660   -3.4906   -0.0284 H   0  0  0  0  0  0  0  0  0  0  0  0
    2.6553   -2.2187   -1.7529 H   0  0  0  0  0  0  0  0  0  0  0  0
    2.5316   -3.6778   -2.7326 H   0  0  0  0  0  0  0  0  0  0  0  0
   10.3143    0.6986   -1.2291 H   0  0  0  0  0  0  0  0  0  0  0  0
    9.6206    1.1915    1.1229 H   0  0  0  0  0  0  0  0  0  0  0  0
    8.7940   -0.6492   -2.6789 H   0  0  0  0  0  0  0  0  0  0  0  0
    7.4632    0.3439    1.9754 H   0  0  0  0  0  0  0  0  0  0  0  0
    4.3391   -2.2545   -3.6028 H   0  0  0  0  0  0  0  0  0  0  0  0
    5.0429   -3.7396   -2.9513 H   0  0  0  0  0  0  0  0  0  0  0  0
    5.6544   -0.8051    1.5528 H   0  0  0  0  0  0  0  0  0  0  0  0
  1 17  1  0  0  0  0
  1 15  1  0  0  0  0
  2  1  1  0  0  0  0
  2 19  1  0  0  0  0
  3 20  1  0  0  0  0
  3  2  1  0  0  0  0
  4  5  2  0  0  0  0
  5  7  1  0  0  0  0
  5 23  1  0  0  0  0
  6  9  2  0  0  0  0
  6  4  1  0  0  0  0
  7 25  1  0  0  0  0
  8  3  1  0  0  0  0
  8 14  1  0  0  0  0
  9 10  1  0  0  0  0
 10 12  1  0  0  0  0
 10  7  2  0  0  0  0
 11 14  1  0  0  0  0
 11  9  1  0  0  0  0
 12 28  1  0  0  0  0
 13 11  2  0  0  0  0
 16  1  1  0  0  0  0
 18  2  1  0  0  0  0
 21  3  1  0  0  0  0
 22  4  1  0  0  0  0
 24  6  1  0  0  0  0
 26  8  1  0  0  0  0
 27  8  1  0  0  0  0
M  END
>  <HBA>
3

>  <HBD>
1

>  <TPSA>
46.53

>  <cid>
16330

>  <dipole>
3.36

>  <excitation_energy_1>
4.538

>  <excitation_energy_2>
4.865

>  <excitation_energy_3>
5.385

>  <excitation_energy_4>
5.426

>  <homo_energy>
-6.278

>  <homo_lumo_gap>
5.249

>  <logP>
2.349

>  <lumo_energy>
-1.029

>  <melting_point>
68.24

>  <molecular_refractivity>
54.17

>  <oscillator_strength_1>
0.0774

>  <oscillator_strength_2>
0.0011

>  <oscillator_strength_3>
0.0014

>  <oscillator_strength_4>
0.134

>  <open_babel_can_smiles>
CCCCOC(=O)c1ccccc1O

>  <mulliken_charges>
28
1   -0.442745
2   -0.254547
3   -0.272654
4   -0.139688
5   -0.122627
6   -0.167405
7   -0.198274
8   -0.037349
9   0.029847
10   0.302993
11   0.608287
12   -0.618368
13   -0.501348
14   -0.46169
15   0.141959
16   0.139767
17   0.14135
18   0.127925
19   0.163779
20   0.145097
21   0.134232
22   0.134926
23   0.137904
24   0.168486
25   0.121228
26   0.15582
27   0.154315
28   0.40878

>  <lowdin_charges>
28
1   -0.446007
2   -0.278209
3   -0.283088
4   -0.179384
5   -0.131734
6   -0.11745
7   -0.215176
8   -0.12571
9   -0.077984
10   0.118168
11   0.197268
12   -0.354824
13   -0.281568
14   -0.175526
15   0.149632
16   0.146408
17   0.146575
18   0.138627
19   0.155777
20   0.148683
21   0.148134
22   0.161685
23   0.163692
24   0.179639
25   0.153421
26   0.152622
27   0.150261
28   0.35607

$$$$

