PCCDB-ID:  37203
public computational chemistry database (PCCDB) project, http://pccdb.org

 30 31  0  0  0  0  0  0  0  0999 V2000
    2.4131    0.9188   -1.0845 C   0  0  0  0  0  0  0  0  0  0  0  0
   -1.8124   -3.3460   -5.7648 C   0  0  0  0  0  0  0  0  0  0  0  0
    0.5874   -6.9267   -5.5052 C   0  0  0  0  0  0  0  0  0  0  0  0
    0.2044   -2.8805   -3.8537 C   0  0  0  0  0  0  0  0  0  0  0  0
    1.5341   -5.1755   -2.7939 C   0  0  0  0  0  0  0  0  0  0  0  0
    3.3243   -0.0567   -0.3807 C   0  0  0  0  0  0  0  0  0  0  0  0
    1.1910   -2.7431   -2.8639 C   0  0  0  0  0  0  0  0  0  0  0  0
    1.8358   -3.8889   -2.3447 C   0  0  0  0  0  0  0  0  0  0  0  0
   -0.1146   -4.1602   -4.2992 C   0  0  0  0  0  0  0  0  0  0  0  0
    0.5570   -5.3047   -3.7738 C   0  0  0  0  0  0  0  0  0  0  0  0
    2.5819   -2.0171   -1.3948 C   0  0  0  0  0  0  0  0  0  0  0  0
    3.3872   -1.3277   -0.5222 N   0  0  0  0  0  0  0  0  0  0  0  0
    1.6704   -1.5944   -2.2597 N   0  0  0  0  0  0  0  0  0  0  0  0
    2.7191   -3.3913   -1.4079 N   0  0  0  0  0  0  0  0  0  0  0  0
    4.2009    0.4617    0.5166 O   0  0  0  0  0  0  0  0  0  0  0  0
   -1.0717   -4.4341   -5.2421 O   0  0  0  0  0  0  0  0  0  0  0  0
    0.2006   -6.5716   -4.1768 O   0  0  0  0  0  0  0  0  0  0  0  0
    1.3733    0.5968   -0.9879 H   0  0  0  0  0  0  0  0  0  0  0  0
    2.6206    0.9158   -2.1588 H   0  0  0  0  0  0  0  0  0  0  0  0
    2.5224    1.9375   -0.6952 H   0  0  0  0  0  0  0  0  0  0  0  0
   -2.5285   -3.7794   -6.4659 H   0  0  0  0  0  0  0  0  0  0  0  0
   -1.1672   -2.6343   -6.2982 H   0  0  0  0  0  0  0  0  0  0  0  0
   -2.3556   -2.8122   -4.9736 H   0  0  0  0  0  0  0  0  0  0  0  0
    0.0988   -6.2899   -6.2492 H   0  0  0  0  0  0  0  0  0  0  0  0
    0.2692   -7.9627   -5.6460 H   0  0  0  0  0  0  0  0  0  0  0  0
    1.6778   -6.8632   -5.6254 H   0  0  0  0  0  0  0  0  0  0  0  0
   -0.2916   -1.9982   -4.2390 H   0  0  0  0  0  0  0  0  0  0  0  0
    2.0151   -6.0693   -2.4101 H   0  0  0  0  0  0  0  0  0  0  0  0
    3.3665   -3.8966   -0.8217 H   0  0  0  0  0  0  0  0  0  0  0  0
    4.0820    1.4222    0.5609 H   0  0  0  0  0  0  0  0  0  0  0  0
  1 18  1  0  0  0  0
  1 20  1  0  0  0  0
  1  6  1  0  0  0  0
  2 16  1  0  0  0  0
  2 23  1  0  0  0  0
  3 17  1  0  0  0  0
  4  7  1  0  0  0  0
  5 28  1  0  0  0  0
  5  8  1  0  0  0  0
  6 15  1  0  0  0  0
  7  8  2  0  0  0  0
  7 13  1  0  0  0  0
  8 14  1  0  0  0  0
  9  4  2  0  0  0  0
  9 10  1  0  0  0  0
 10  5  2  0  0  0  0
 11 12  1  0  0  0  0
 12  6  2  0  0  0  0
 13 11  2  0  0  0  0
 14 11  1  0  0  0  0
 14 29  1  0  0  0  0
 15 30  1  0  0  0  0
 16  9  1  0  0  0  0
 17 10  1  0  0  0  0
 19  1  1  0  0  0  0
 21  2  1  0  0  0  0
 22  2  1  0  0  0  0
 24  3  1  0  0  0  0
 25  3  1  0  0  0  0
 26  3  1  0  0  0  0
 27  4  1  0  0  0  0
M  END
>  <HBA>
5

>  <HBD>
2

>  <TPSA>
76.24

>  <cid>
37203

>  <dipole>
3.15

>  <excitation_energy_1>
4.004

>  <excitation_energy_2>
4.432

>  <excitation_energy_3>
4.451

>  <excitation_energy_4>
4.917

>  <homo_energy>
-5.08

>  <homo_lumo_gap>
4.335

>  <logP>
1.611

>  <lumo_energy>
-0.746

>  <melting_point>
178.93

>  <molecular_refractivity>
63.39

>  <oscillator_strength_1>
0.5229

>  <oscillator_strength_2>
0.0976

>  <oscillator_strength_3>
0.0008

>  <oscillator_strength_4>
0.0022

>  <open_babel_can_smiles>
COc1cc2[nH]c(nc2cc1OC)/N=C(/O)\C

>  <mulliken_charges>
30
1   -0.506994
2   -0.209952
3   -0.206521
4   -0.280021
5   -0.237429
6   0.47706
7   0.252951
8   0.374121
9   0.340559
10   0.305382
11   0.678949
12   -0.522576
13   -0.60188
14   -0.749196
15   -0.562311
16   -0.513478
17   -0.522257
18   0.213135
19   0.208707
20   0.130265
21   0.166222
22   0.148932
23   0.152565
24   0.160692
25   0.154505
26   0.134242
27   0.136056
28   0.133484
29   0.334245
30   0.410545

>  <lowdin_charges>
30
1   -0.469861
2   -0.281521
3   -0.27291
4   -0.222007
5   -0.201794
6   0.166788
7   0.012535
8   0.010586
9   0.07134
10   0.069287
11   0.105881
12   -0.200122
13   -0.237303
14   -0.201648
15   -0.340043
16   -0.198828
17   -0.22634
18   0.193442
19   0.190711
20   0.147311
21   0.161836
22   0.144541
23   0.147149
24   0.150117
25   0.152522
26   0.133713
27   0.169424
28   0.168183
29   0.30124
30   0.355769

$$$$

