PCCDB-ID:  33002
public computational chemistry database (PCCDB) project, http://pccdb.org

 41 40  0  0  0  0  0  0  0  0999 V2000
    1.1292    3.5864    3.1089 C   0  0  0  0  0  0  0  0  0  0  0  0
    3.4846    3.8935    3.9651 C   0  0  0  0  0  0  0  0  0  0  0  0
    6.5068    4.1530   -1.3263 C   0  0  0  0  0  0  0  0  0  0  0  0
    6.1753    3.1188   -0.2430 C   0  0  0  0  0  0  0  0  0  0  0  0
    7.9044    3.9800   -1.9346 C   0  0  0  0  0  0  0  0  0  0  0  0
    4.7745    3.2910    0.3594 C   0  0  0  0  0  0  0  0  0  0  0  0
    8.2262    5.0133   -3.0214 C   0  0  0  0  0  0  0  0  0  0  0  0
    4.4501    2.2565    1.4466 C   0  0  0  0  0  0  0  0  0  0  0  0
    9.6228    4.8335   -3.6311 C   0  0  0  0  0  0  0  0  0  0  0  0
    3.0145    2.3293    1.9952 C   0  0  0  0  0  0  0  0  0  0  0  0
    9.9642    5.8734   -4.7032 C   0  0  0  0  0  0  0  0  0  0  0  0
    2.6165    3.6291    2.7256 C   0  0  0  0  0  0  0  0  0  0  0  0
    9.1752    5.6956   -5.9842 C   0  0  0  0  0  0  0  0  0  0  0  0
    8.5227    4.7229   -6.2951 O   0  0  0  0  0  0  0  0  0  0  0  0
    9.2993    6.7737   -6.8007 O   0  0  0  0  0  0  0  0  0  0  0  0
    0.8155    4.5179    3.5950 H   0  0  0  0  0  0  0  0  0  0  0  0
    0.9282    2.7636    3.8077 H   0  0  0  0  0  0  0  0  0  0  0  0
    0.4934    3.4365    2.2280 H   0  0  0  0  0  0  0  0  0  0  0  0
    3.1652    4.8075    4.4803 H   0  0  0  0  0  0  0  0  0  0  0  0
    4.5435    4.0130    3.7110 H   0  0  0  0  0  0  0  0  0  0  0  0
    3.4040    3.0644    4.6807 H   0  0  0  0  0  0  0  0  0  0  0  0
    6.4178    5.1646   -0.9024 H   0  0  0  0  0  0  0  0  0  0  0  0
    5.7546    4.0930   -2.1268 H   0  0  0  0  0  0  0  0  0  0  0  0
    6.9259    3.1783    0.5596 H   0  0  0  0  0  0  0  0  0  0  0  0
    6.2666    2.1077   -0.6671 H   0  0  0  0  0  0  0  0  0  0  0  0
    7.9931    2.9696   -2.3602 H   0  0  0  0  0  0  0  0  0  0  0  0
    8.6591    4.0406   -1.1358 H   0  0  0  0  0  0  0  0  0  0  0  0
    4.0239    3.2199   -0.4424 H   0  0  0  0  0  0  0  0  0  0  0  0
    4.6848    4.3072    0.7685 H   0  0  0  0  0  0  0  0  0  0  0  0
    8.1434    6.0254   -2.5964 H   0  0  0  0  0  0  0  0  0  0  0  0
    7.4751    4.9458   -3.8187 H   0  0  0  0  0  0  0  0  0  0  0  0
    5.1737    2.3537    2.2680 H   0  0  0  0  0  0  0  0  0  0  0  0
    4.6070    1.2506    1.0313 H   0  0  0  0  0  0  0  0  0  0  0  0
    9.7047    3.8324   -4.0712 H   0  0  0  0  0  0  0  0  0  0  0  0
   10.3785    4.8940   -2.8365 H   0  0  0  0  0  0  0  0  0  0  0  0
    2.8573    1.4864    2.6849 H   0  0  0  0  0  0  0  0  0  0  0  0
    2.3150    2.1709    1.1606 H   0  0  0  0  0  0  0  0  0  0  0  0
   11.0266    5.8158   -4.9790 H   0  0  0  0  0  0  0  0  0  0  0  0
    9.8087    6.8968   -4.3399 H   0  0  0  0  0  0  0  0  0  0  0  0
    2.7535    4.4708    2.0313 H   0  0  0  0  0  0  0  0  0  0  0  0
    8.7885    6.5605   -7.6044 H   0  0  0  0  0  0  0  0  0  0  0  0
  1 16  1  0  0  0  0
  1 17  1  0  0  0  0
  2 19  1  0  0  0  0
  2 21  1  0  0  0  0
  3 22  1  0  0  0  0
  3  4  1  0  0  0  0
  4  6  1  0  0  0  0
  4 24  1  0  0  0  0
  5  3  1  0  0  0  0
  5 27  1  0  0  0  0
  6 29  1  0  0  0  0
  6  8  1  0  0  0  0
  7 30  1  0  0  0  0
  7  5  1  0  0  0  0
  8 10  1  0  0  0  0
  8 32  1  0  0  0  0
  9  7  1  0  0  0  0
  9 35  1  0  0  0  0
 10 36  1  0  0  0  0
 10 12  1  0  0  0  0
 11 39  1  0  0  0  0
 11  9  1  0  0  0  0
 12  1  1  0  0  0  0
 12  2  1  0  0  0  0
 13 11  1  0  0  0  0
 14 13  2  0  0  0  0
 15 13  1  0  0  0  0
 18  1  1  0  0  0  0
 20  2  1  0  0  0  0
 23  3  1  0  0  0  0
 25  4  1  0  0  0  0
 26  5  1  0  0  0  0
 28  6  1  0  0  0  0
 31  7  1  0  0  0  0
 33  8  1  0  0  0  0
 34  9  1  0  0  0  0
 37 10  1  0  0  0  0
 38 11  1  0  0  0  0
 40 12  1  0  0  0  0
 41 15  1  0  0  0  0
M  END
>  <HBA>
2

>  <HBD>
1

>  <TPSA>
37.3

>  <cid>
33002

>  <dipole>
1.33

>  <excitation_energy_1>
5.823

>  <excitation_energy_2>
6.894

>  <excitation_energy_3>
7.342

>  <excitation_energy_4>
7.45

>  <homo_energy>
-7.47

>  <homo_lumo_gap>
7.758

>  <logP>
4.238

>  <lumo_energy>
0.288

>  <melting_point>
45.95

>  <molecular_refractivity>
66.38

>  <oscillator_strength_1>
0.0003

>  <oscillator_strength_2>
0.0642

>  <oscillator_strength_3>
0.0034

>  <oscillator_strength_4>
0.003

>  <open_babel_can_smiles>
CC(CCCCCCCCCC(=O)O)C

>  <mulliken_charges>
41
1   -0.44131
2   -0.444937
3   -0.25363
4   -0.252907
5   -0.254006
6   -0.254331
7   -0.259808
8   -0.260997
9   -0.25188
10   -0.248665
11   -0.354123
12   -0.067321
13   0.579357
14   -0.463844
15   -0.568627
16   0.137731
17   0.137293
18   0.138723
19   0.138522
20   0.143485
21   0.137181
22   0.124875
23   0.130093
24   0.125356
25   0.127616
26   0.132565
27   0.124217
28   0.126396
29   0.131355
30   0.122095
31   0.151758
32   0.130228
33   0.127065
34   0.15462
35   0.130548
36   0.121978
37   0.123629
38   0.176914
39   0.170814
40   0.124889
41   0.407083

>  <lowdin_charges>
41
1   -0.445392
2   -0.446264
3   -0.273625
4   -0.273599
5   -0.273006
6   -0.276434
7   -0.277958
8   -0.277822
9   -0.272236
10   -0.277407
11   -0.301494
12   -0.123501
13   0.197141
14   -0.268998
15   -0.363105
16   0.146861
17   0.145088
18   0.14725
19   0.147968
20   0.146378
21   0.145303
22   0.135567
23   0.139659
24   0.137246
25   0.136892
26   0.139571
27   0.136339
28   0.137832
29   0.137286
30   0.13378
31   0.150081
32   0.13901
33   0.140188
34   0.153484
35   0.144384
36   0.13885
37   0.13879
38   0.17275
39   0.166769
40   0.136277
41   0.360095

$$$$

