PCCDB-ID:  11922
public computational chemistry database (PCCDB) project, http://pccdb.org

 15 15  0  0  0  0  0  0  0  0999 V2000
   -1.3608   -0.0467    0.0793 C   0  0  0  0  0  0  0  0  0  0  0  0
   -0.6024   -1.2118    0.2059 C   0  0  0  0  0  0  0  0  0  0  0  0
   -0.7313    1.1816   -0.1047 C   0  0  0  0  0  0  0  0  0  0  0  0
    0.7875   -1.1458    0.1471 C   0  0  0  0  0  0  0  0  0  0  0  0
    1.2255    2.5821   -0.3569 C   0  0  0  0  0  0  0  0  0  0  0  0
    0.6706    1.2729   -0.1672 C   0  0  0  0  0  0  0  0  0  0  0  0
    1.4131    0.0838   -0.0371 C   0  0  0  0  0  0  0  0  0  0  0  0
    1.5108    3.6992   -0.5086 N   0  0  0  0  0  0  0  0  0  0  0  0
    2.8876    0.0970   -0.0945 N   0  0  0  0  0  0  0  0  0  0  0  0
    3.4677   -0.9785    0.0443 O   0  0  0  0  0  0  0  0  0  0  0  0
    3.4408    1.1772   -0.2771 O   0  0  0  0  0  0  0  0  0  0  0  0
   -2.4446   -0.0911    0.1239 H   0  0  0  0  0  0  0  0  0  0  0  0
   -1.0886   -2.1714    0.3502 H   0  0  0  0  0  0  0  0  0  0  0  0
   -1.3135    2.0913   -0.2037 H   0  0  0  0  0  0  0  0  0  0  0  0
    1.4042   -2.0305    0.2415 H   0  0  0  0  0  0  0  0  0  0  0  0
  1 12  1  0  0  0  0
  1  2  2  0  0  0  0
  2 13  1  0  0  0  0
  3  1  1  0  0  0  0
  4  2  1  0  0  0  0
  4 15  1  0  0  0  0
  5  6  1  0  0  0  0
  6  3  2  0  0  0  0
  6  7  1  0  0  0  0
  7  4  2  0  0  0  0
  8  5  3  0  0  0  0
  9  7  1  0  0  0  0
  9 10  2  0  0  0  0
 11  9  2  0  0  0  0
 14  3  1  0  0  0  0
M  END
>  <HBA>
1

>  <HBD>
0

>  <TPSA>
69.61

>  <cid>
11922

>  <dipole>
6.81

>  <excitation_energy_1>
3.592

>  <excitation_energy_2>
4.123

>  <excitation_energy_3>
4.13

>  <excitation_energy_4>
4.677

>  <homo_energy>
-7.924

>  <homo_lumo_gap>
4.86

>  <logP>
1.99

>  <lumo_energy>
-3.064

>  <melting_point>
80.85

>  <molecular_refractivity>
39.98

>  <oscillator_strength_1>
0.0

>  <oscillator_strength_2>
0.0026

>  <oscillator_strength_3>
0.0489

>  <oscillator_strength_4>
0.1471

>  <open_babel_can_smiles>
N#Cc1ccccc1N(=O)=O

>  <mulliken_charges>
15
1   -0.116098
2   -0.125296
3   -0.14892
4   -0.157712
5   0.289573
6   0.126877
7   0.27822
8   -0.461728
9   0.371864
10   -0.387072
11   -0.377175
12   0.164281
13   0.164224
14   0.179737
15   0.199227

>  <lowdin_charges>
15
1   -0.124861
2   -0.132274
3   -0.123412
4   -0.131882
5   -0.007853
6   0.000258
7   0.018317
8   -0.092165
9   0.308203
10   -0.237443
11   -0.208549
12   0.173928
13   0.175579
14   0.185429
15   0.196725

$$$$

