PCCDB-ID:  14529
public computational chemistry database (PCCDB) project, http://pccdb.org

 25 25  0  0  0  0  0  0  0  0999 V2000
    0.8277   -0.0101    0.1323 C   0  0  0  0  0  0  0  0  0  0  0  0
    6.9967    0.3696   -2.1082 C   0  0  0  0  0  0  0  0  0  0  0  0
    7.3423    0.9376    0.3423 C   0  0  0  0  0  0  0  0  0  0  0  0
    3.0802   -1.1796    0.1164 C   0  0  0  0  0  0  0  0  0  0  0  0
    3.0129    1.1549   -0.4133 C   0  0  0  0  0  0  0  0  0  0  0  0
    4.4633   -1.1896   -0.0760 C   0  0  0  0  0  0  0  0  0  0  0  0
    4.3919    1.1500   -0.6065 C   0  0  0  0  0  0  0  0  0  0  0  0
    2.3279   -0.0129   -0.0502 C   0  0  0  0  0  0  0  0  0  0  0  0
    5.1423   -0.0235   -0.4416 C   0  0  0  0  0  0  0  0  0  0  0  0
    6.6564   -0.0144   -0.6557 C   0  0  0  0  0  0  0  0  0  0  0  0
    7.1172   -1.3519   -0.4091 O   0  0  0  0  0  0  0  0  0  0  0  0
    0.4940   -0.8764    0.7129 H   0  0  0  0  0  0  0  0  0  0  0  0
    0.3063   -0.0437   -0.8339 H   0  0  0  0  0  0  0  0  0  0  0  0
    0.4868    0.8940    0.6497 H   0  0  0  0  0  0  0  0  0  0  0  0
    6.6243    1.3670   -2.3636 H   0  0  0  0  0  0  0  0  0  0  0  0
    6.5524   -0.3535   -2.7986 H   0  0  0  0  0  0  0  0  0  0  0  0
    8.0849    0.3723   -2.2579 H   0  0  0  0  0  0  0  0  0  0  0  0
    7.0063    1.9721    0.2175 H   0  0  0  0  0  0  0  0  0  0  0  0
    8.4309    0.9217    0.1964 H   0  0  0  0  0  0  0  0  0  0  0  0
    7.1249    0.6234    1.3675 H   0  0  0  0  0  0  0  0  0  0  0  0
    2.5782   -2.1016    0.4029 H   0  0  0  0  0  0  0  0  0  0  0  0
    2.4589    2.0823   -0.5451 H   0  0  0  0  0  0  0  0  0  0  0  0
    5.0240   -2.1066    0.0597 H   0  0  0  0  0  0  0  0  0  0  0  0
    4.8854    2.0778   -0.8864 H   0  0  0  0  0  0  0  0  0  0  0  0
    8.0759   -1.3508   -0.5542 H   0  0  0  0  0  0  0  0  0  0  0  0
  1 14  1  0  0  0  0
  1 12  1  0  0  0  0
  2 10  1  0  0  0  0
  3 20  1  0  0  0  0
  4 21  1  0  0  0  0
  5  8  2  0  0  0  0
  6 23  1  0  0  0  0
  6  4  2  0  0  0  0
  7  9  2  0  0  0  0
  7  5  1  0  0  0  0
  8  4  1  0  0  0  0
  8  1  1  0  0  0  0
  9  6  1  0  0  0  0
 10  9  1  0  0  0  0
 10 11  1  0  0  0  0
 10  3  1  0  0  0  0
 13  1  1  0  0  0  0
 15  2  1  0  0  0  0
 16  2  1  0  0  0  0
 17  2  1  0  0  0  0
 18  3  1  0  0  0  0
 19  3  1  0  0  0  0
 22  5  1  0  0  0  0
 24  7  1  0  0  0  0
 25 11  1  0  0  0  0
M  END
>  <HBA>
1

>  <HBD>
1

>  <TPSA>
20.23

>  <cid>
14529

>  <dipole>
1.37

>  <excitation_energy_1>
5.216

>  <excitation_energy_2>
5.605

>  <excitation_energy_3>
5.778

>  <excitation_energy_4>
5.979

>  <homo_energy>
-6.133

>  <homo_lumo_gap>
6.376

>  <logP>
2.222

>  <lumo_energy>
0.242

>  <melting_point>
36.23

>  <molecular_refractivity>
47.03

>  <oscillator_strength_1>
0.0016

>  <oscillator_strength_2>
0.0051

>  <oscillator_strength_3>
0.082

>  <oscillator_strength_4>
0.0024

>  <open_babel_can_smiles>
Cc1ccc(cc1)C(O)(C)C

>  <mulliken_charges>
25
1   -0.52994
2   -0.452461
3   -0.450536
4   -0.18542
5   -0.186089
6   -0.172066
7   -0.181223
8   0.18248
9   0.123528
10   0.259369
11   -0.648715
12   0.154578
13   0.162736
14   0.155885
15   0.145837
16   0.163574
17   0.126822
18   0.14509
19   0.12653
20   0.163571
21   0.118382
22   0.117257
23   0.154706
24   0.11853
25   0.387577

>  <lowdin_charges>
25
1   -0.443474
2   -0.452777
3   -0.449397
4   -0.168704
5   -0.168525
6   -0.159855
7   -0.167089
8   -0.001904
9   -0.013232
10   0.128379
11   -0.454915
12   0.157232
13   0.159985
14   0.157805
15   0.15308
16   0.162475
17   0.139757
18   0.152074
19   0.13969
20   0.160401
21   0.152835
22   0.152399
23   0.172292
24   0.151705
25   0.339764

$$$$

