PCCDB-ID:  10332
public computational chemistry database (PCCDB) project, http://pccdb.org

 19 19  0  0  0  0  0  0  0  0999 V2000
    0.9123    0.0403    0.1126 C   0  0  0  0  0  0  0  0  0  0  0  0
    3.1568    1.2140   -0.0030 C   0  0  0  0  0  0  0  0  0  0  0  0
    4.5499    1.1771   -0.1063 C   0  0  0  0  0  0  0  0  0  0  0  0
    3.1139   -1.1895   -0.0413 C   0  0  0  0  0  0  0  0  0  0  0  0
    2.4210    0.0261    0.0127 C   0  0  0  0  0  0  0  0  0  0  0  0
    5.2407   -0.0309   -0.1738 C   0  0  0  0  0  0  0  0  0  0  0  0
    4.5110   -1.2428   -0.1128 C   0  0  0  0  0  0  0  0  0  0  0  0
    6.6661   -0.1112   -0.2699 N   0  0  0  0  0  0  0  0  0  0  0  0
    5.1906   -2.4584   -0.0707 N   0  0  0  0  0  0  0  0  0  0  0  0
    0.5202    1.0608    0.0555 H   0  0  0  0  0  0  0  0  0  0  0  0
    0.5672   -0.3943    1.0599 H   0  0  0  0  0  0  0  0  0  0  0  0
    0.4482   -0.5415   -0.6936 H   0  0  0  0  0  0  0  0  0  0  0  0
    2.6448    2.1714    0.0478 H   0  0  0  0  0  0  0  0  0  0  0  0
    5.1131    2.1079   -0.1533 H   0  0  0  0  0  0  0  0  0  0  0  0
    2.5600   -2.1260    0.0057 H   0  0  0  0  0  0  0  0  0  0  0  0
    7.0943    0.7947   -0.0994 H   0  0  0  0  0  0  0  0  0  0  0  0
    6.9596   -0.4124   -1.1996 H   0  0  0  0  0  0  0  0  0  0  0  0
    4.7526   -3.2486   -0.5217 H   0  0  0  0  0  0  0  0  0  0  0  0
    6.1910   -2.4018   -0.1965 H   0  0  0  0  0  0  0  0  0  0  0  0
  1 11  1  0  0  0  0
  2  5  1  0  0  0  0
  2 13  1  0  0  0  0
  3  2  2  0  0  0  0
  4 15  1  0  0  0  0
  4  5  2  0  0  0  0
  5  1  1  0  0  0  0
  6  7  2  0  0  0  0
  6  3  1  0  0  0  0
  7  9  1  0  0  0  0
  7  4  1  0  0  0  0
  8  6  1  0  0  0  0
  8 16  1  0  0  0  0
 10  1  1  0  0  0  0
 12  1  1  0  0  0  0
 14  3  1  0  0  0  0
 17  8  1  0  0  0  0
 18  9  1  0  0  0  0
 19  9  1  0  0  0  0
M  END
>  <HBA>
2

>  <HBD>
2

>  <TPSA>
52.04

>  <cid>
10332

>  <dipole>
2.24

>  <excitation_energy_1>
4.284

>  <excitation_energy_2>
4.488

>  <excitation_energy_3>
4.864

>  <excitation_energy_4>
5.056

>  <homo_energy>
-4.923

>  <homo_lumo_gap>
5.382

>  <logP>
2.322

>  <lumo_energy>
0.46

>  <melting_point>
107.47

>  <molecular_refractivity>
40.22

>  <oscillator_strength_1>
0.0157

>  <oscillator_strength_2>
0.0656

>  <oscillator_strength_3>
0.0026

>  <oscillator_strength_4>
0.0002

>  <open_babel_can_smiles>
Cc1ccc(c(c1)N)N

>  <mulliken_charges>
19
1   -0.530592
2   -0.203648
3   -0.17659
4   -0.241642
5   0.180508
6   0.223753
7   0.30768
8   -0.807466
9   -0.808401
10   0.150481
11   0.158899
12   0.153262
13   0.109558
14   0.108361
15   0.105294
16   0.314423
17   0.308464
18   0.3173
19   0.330357

>  <lowdin_charges>
19
1   -0.441946
2   -0.196435
3   -0.184297
4   -0.208243
5   -0.000551
6   -7.1e-05
7   0.046149
8   -0.52147
9   -0.49455
10   0.153568
11   0.157934
12   0.156368
13   0.150261
14   0.148809
15   0.148578
16   0.267631
17   0.263203
18   0.277057
19   0.278006

$$$$

