PCCDB-ID:  34726
public computational chemistry database (PCCDB) project, http://pccdb.org

 32 32  0  0  1  0  0  0  0  0999 V2000
    2.4542   -0.6269    1.1039 C   0  0  0  0  0  0  0  0  0  0  0  0
    1.8690   -5.7093   -2.1631 C   0  0  0  0  0  0  0  0  0  0  0  0
    5.2851   -4.1030   -2.4082 C   0  0  0  0  0  0  0  0  0  0  0  0
    1.7717   -0.6263   -0.2665 C   0  0  0  0  0  0  0  0  0  0  0  0
    2.3795   -4.5254   -1.3330 C   0  0  0  0  0  0  0  0  0  0  0  0
    4.0116   -3.6063   -3.1005 C   0  0  0  0  0  0  0  0  0  0  0  0
    1.6839   -2.6020   -2.8923 C   0  0  0  0  0  0  0  0  0  0  0  0
    2.0360   -1.1089   -2.7932 C   0  0  2  0  0  0  0  0  0  0  0  0
    2.7237   -1.0184   -1.4040 C   0  0  2  0  0  0  0  0  0  0  0  0
    2.8358   -3.2992   -2.1436 C   0  0  0  0  0  0  0  0  0  0  0  0
    0.9571   -0.2139   -3.0008 O   0  0  0  0  0  0  0  0  0  0  0  0
    3.2843   -2.3162   -1.1689 O   0  0  0  0  0  0  0  0  0  0  0  0
    1.7468   -0.3638    1.8982 H   0  0  0  0  0  0  0  0  0  0  0  0
    3.2762    0.0988    1.1328 H   0  0  0  0  0  0  0  0  0  0  0  0
    2.8711   -1.6139    1.3241 H   0  0  0  0  0  0  0  0  0  0  0  0
    1.4971   -6.5039   -1.5070 H   0  0  0  0  0  0  0  0  0  0  0  0
    2.6576   -6.1434   -2.7877 H   0  0  0  0  0  0  0  0  0  0  0  0
    1.0440   -5.4162   -2.8238 H   0  0  0  0  0  0  0  0  0  0  0  0
    6.1084   -4.1834   -3.1268 H   0  0  0  0  0  0  0  0  0  0  0  0
    5.1483   -5.0917   -1.9558 H   0  0  0  0  0  0  0  0  0  0  0  0
    5.5848   -3.4075   -1.6188 H   0  0  0  0  0  0  0  0  0  0  0  0
    1.3691    0.3714   -0.4845 H   0  0  0  0  0  0  0  0  0  0  0  0
    0.9207   -1.3236   -0.2485 H   0  0  0  0  0  0  0  0  0  0  0  0
    3.2096   -4.8503   -0.6953 H   0  0  0  0  0  0  0  0  0  0  0  0
    1.5917   -4.1826   -0.6506 H   0  0  0  0  0  0  0  0  0  0  0  0
    3.6801   -4.3370   -3.8502 H   0  0  0  0  0  0  0  0  0  0  0  0
    4.2442   -2.6884   -3.6560 H   0  0  0  0  0  0  0  0  0  0  0  0
    1.5740   -2.9362   -3.9278 H   0  0  0  0  0  0  0  0  0  0  0  0
    0.7286   -2.7843   -2.3802 H   0  0  0  0  0  0  0  0  0  0  0  0
    2.7589   -0.8439   -3.5706 H   0  0  0  0  0  0  0  0  0  0  0  0
    3.5527   -0.2975   -1.4265 H   0  0  0  0  0  0  0  0  0  0  0  0
    0.2524   -0.4534   -2.3784 H   0  0  0  0  0  0  0  0  0  0  0  0
  1 14  1  0  0  0  0
  1 15  1  0  0  0  0
  1 13  1  0  0  0  0
  2 16  1  0  0  0  0
  2  5  1  0  0  0  0
  3 20  1  0  0  0  0
  3 21  1  0  0  0  0
  4 23  1  0  0  0  0
  4  1  1  0  0  0  0
  5 24  1  0  0  0  0
  5 25  1  0  0  0  0
  6  3  1  0  0  0  0
  6 10  1  0  0  0  0
  7  8  1  0  0  0  0
  7 29  1  0  0  0  0
  7 10  1  0  0  0  0
  8 30  1  6  0  0  0
  8  9  1  0  0  0  0
  9 31  1  6  0  0  0
  9 12  1  0  0  0  0
  9  4  1  0  0  0  0
 10  5  1  0  0  0  0
 10 12  1  0  0  0  0
 11  8  1  0  0  0  0
 11 32  1  0  0  0  0
 17  2  1  0  0  0  0
 18  2  1  0  0  0  0
 19  3  1  0  0  0  0
 22  4  1  0  0  0  0
 26  6  1  0  0  0  0
 27  6  1  0  0  0  0
 28  7  1  0  0  0  0
M  END
>  <HBA>
2

>  <HBD>
1

>  <TPSA>
29.46

>  <cid>
34726

>  <dipole>
1.32

>  <excitation_energy_1>
6.066

>  <excitation_energy_2>
6.248

>  <excitation_energy_3>
6.403

>  <excitation_energy_4>
6.51

>  <homo_energy>
-6.574

>  <homo_lumo_gap>
8.417

>  <logP>
2.105

>  <lumo_energy>
1.842

>  <melting_point>
14.05

>  <molecular_refractivity>
50.35

>  <oscillator_strength_1>
0.0211

>  <oscillator_strength_2>
0.009

>  <oscillator_strength_3>
0.0096

>  <oscillator_strength_4>
0.0009

>  <open_babel_can_smiles>
CC[C@H]1OC(C[C@H]1O)(CC)CC

>  <mulliken_charges>
32
1   -0.445074
2   -0.460359
3   -0.454928
4   -0.284143
5   -0.273691
6   -0.270043
7   -0.341736
8   0.102891
9   0.152701
10   0.352792
11   -0.624826
12   -0.540701
13   0.139166
14   0.142066
15   0.165866
16   0.147859
17   0.150412
18   0.145875
19   0.139535
20   0.142647
21   0.167095
22   0.140786
23   0.118767
24   0.148203
25   0.132003
26   0.131606
27   0.13242
28   0.154484
29   0.127313
30   0.145223
31   0.12504
32   0.39075

>  <lowdin_charges>
32
1   -0.444985
2   -0.452594
3   -0.45022
4   -0.293551
5   -0.282898
6   -0.286225
7   -0.306293
8   -0.019404
9   -0.016314
10   0.123578
11   -0.448452
12   -0.281587
13   0.149191
14   0.148169
15   0.158217
16   0.154876
17   0.150745
18   0.148137
19   0.150241
20   0.145557
21   0.160541
22   0.146962
23   0.133304
24   0.152159
25   0.144795
26   0.143743
27   0.143315
28   0.157217
29   0.142209
30   0.149508
31   0.138351
32   0.341708

$$$$

