PCCDB-ID:  68478
public computational chemistry database (PCCDB) project, http://pccdb.org

 23 25  0  0  0  0  0  0  0  0999 V2000
   -3.6285   -0.6982    0.0011 C   0  0  0  0  0  0  0  0  0  0  0  0
   -3.5869    0.7132    0.0007 C   0  0  0  0  0  0  0  0  0  0  0  0
    3.5863    0.7367   -0.0008 C   0  0  0  0  0  0  0  0  0  0  0  0
    3.6018   -0.6927   -0.0008 C   0  0  0  0  0  0  0  0  0  0  0  0
   -2.4498   -1.4191    0.0009 C   0  0  0  0  0  0  0  0  0  0  0  0
   -2.3811    1.3874    0.0002 C   0  0  0  0  0  0  0  0  0  0  0  0
    2.3981    1.4027   -0.0006 C   0  0  0  0  0  0  0  0  0  0  0  0
    2.4254   -1.3687   -0.0003 C   0  0  0  0  0  0  0  0  0  0  0  0
   -1.2107   -0.7470    0.0005 C   0  0  0  0  0  0  0  0  0  0  0  0
   -1.1592    0.6720   -0.0000 C   0  0  0  0  0  0  0  0  0  0  0  0
    1.1419    0.7060   -0.0007 C   0  0  0  0  0  0  0  0  0  0  0  0
    0.0189   -1.5155    0.0004 C   0  0  0  0  0  0  0  0  0  0  0  0
    0.0155    1.3764   -0.0010 N   0  0  0  0  0  0  0  0  0  0  0  0
    1.2114   -0.7027   -0.0002 N   0  0  0  0  0  0  0  0  0  0  0  0
    0.1185   -2.7349    0.0008 O   0  0  0  0  0  0  0  0  0  0  0  0
   -4.5849   -1.2127    0.0019 H   0  0  0  0  0  0  0  0  0  0  0  0
   -4.5167    1.2762   -0.0000 H   0  0  0  0  0  0  0  0  0  0  0  0
    4.5226    1.2869   -0.0006 H   0  0  0  0  0  0  0  0  0  0  0  0
    4.5353   -1.2435   -0.0011 H   0  0  0  0  0  0  0  0  0  0  0  0
   -2.4452   -2.5043    0.0001 H   0  0  0  0  0  0  0  0  0  0  0  0
   -2.3327    2.4716    0.0002 H   0  0  0  0  0  0  0  0  0  0  0  0
    2.3330    2.4845   -0.0001 H   0  0  0  0  0  0  0  0  0  0  0  0
    2.3270   -2.4459    0.0001 H   0  0  0  0  0  0  0  0  0  0  0  0
  1 16  1  0  0  0  0
  2  1  2  0  0  0  0
  3  7  2  0  0  0  0
  3 18  1  0  0  0  0
  4  3  1  0  0  0  0
  4  8  2  0  0  0  0
  5  1  1  0  0  0  0
  6  2  1  0  0  0  0
  7 22  1  0  0  0  0
  8 14  1  0  0  0  0
  8 23  1  0  0  0  0
  9  5  2  0  0  0  0
 10  6  2  0  0  0  0
 10  9  1  0  0  0  0
 11  7  1  0  0  0  0
 11 14  1  0  0  0  0
 12  9  1  0  0  0  0
 12 15  2  0  0  0  0
 13 11  2  0  0  0  0
 13 10  1  0  0  0  0
 14 12  1  0  0  0  0
 17  2  1  0  0  0  0
 19  4  1  0  0  0  0
 20  5  1  0  0  0  0
 21  6  1  0  0  0  0
M  END
>  <HBA>
3

>  <HBD>
0

>  <TPSA>
34.37

>  <cid>
68478

>  <dipole>
2.06

>  <excitation_energy_1>
3.342

>  <excitation_energy_2>
3.833

>  <excitation_energy_3>
4.51

>  <excitation_energy_4>
4.51

>  <homo_energy>
-5.608

>  <homo_lumo_gap>
3.829

>  <logP>
1.848

>  <lumo_energy>
-1.78

>  <melting_point>
137.16

>  <molecular_refractivity>
58.97

>  <oscillator_strength_1>
0.0863

>  <oscillator_strength_2>
0.2048

>  <oscillator_strength_3>
0.005

>  <oscillator_strength_4>
0.0159

>  <open_babel_can_smiles>
O=c1c2ccccc2nc2n1cccc2

>  <mulliken_charges>
23
1   -0.142706
2   -0.124346
3   -0.092966
4   -0.197367
5   -0.16572
6   -0.163039
7   -0.181189
8   0.096769
9   0.033945
10   0.258316
11   0.553026
12   0.572979
13   -0.595488
14   -0.601668
15   -0.517089
16   0.136451
17   0.137509
18   0.153675
19   0.155683
20   0.162676
21   0.143865
22   0.164806
23   0.211879

>  <lowdin_charges>
23
1   -0.165065
2   -0.136543
3   -0.128342
4   -0.185048
5   -0.123821
6   -0.158863
7   -0.156631
8   -0.069471
9   -0.07478
10   0.053802
11   0.105181
12   0.163411
13   -0.205993
14   -0.01742
15   -0.288753
16   0.161764
17   0.162439
18   0.170691
19   0.174759
20   0.174676
21   0.167594
22   0.180855
23   0.195558

$$$$

