PCCDB-ID:  29448
public computational chemistry database (PCCDB) project, http://pccdb.org

 32 34  0  0  1  0  0  0  0  0999 V2000
    2.0378    0.4283    0.1087 C   0  0  0  0  0  0  0  0  0  0  0  0
    3.4542   -1.5192   -1.9261 C   0  0  0  0  0  0  0  0  0  0  0  0
    2.6894   -0.4730   -2.7772 C   0  0  0  0  0  0  0  0  0  0  0  0
    1.9319    6.0576   -1.1604 C   0  0  0  0  0  0  0  0  0  0  0  0
    1.0364    5.4922   -2.0622 C   0  0  0  0  0  0  0  0  0  0  0  0
    4.0322   -0.6886   -0.7378 C   0  0  0  0  0  0  0  0  0  0  0  0
    3.1358    3.9488   -0.9057 C   0  0  0  0  0  0  0  0  0  0  0  0
    1.0438    2.0568   -3.2131 C   0  0  0  0  0  0  0  0  0  0  0  0
    2.9707    5.2920   -0.5874 C   0  0  0  0  0  0  0  0  0  0  0  0
    2.2459    3.3622   -1.8202 C   0  0  0  0  0  0  0  0  0  0  0  0
    2.1235    2.0286   -2.3635 C   0  0  0  0  0  0  0  0  0  0  0  0
    1.2034    4.1449   -2.3861 C   0  0  0  0  0  0  0  0  0  0  0  0
    3.0522    0.8805   -2.1066 C   0  0  1  0  0  0  0  0  0  0  0  0
    0.4866    3.3198   -3.2354 N   0  0  0  0  0  0  0  0  0  0  0  0
    3.2704    0.5669   -0.6703 N   0  0  0  0  0  0  0  0  0  0  0  0
    3.8540    5.8453    0.3111 O   0  0  0  0  0  0  0  0  0  0  0  0
    2.3064    0.1868    1.1426 H   0  0  0  0  0  0  0  0  0  0  0  0
    1.3441   -0.3532   -0.2521 H   0  0  0  0  0  0  0  0  0  0  0  0
    1.5009    1.3796    0.1135 H   0  0  0  0  0  0  0  0  0  0  0  0
    4.2542   -2.0077   -2.4922 H   0  0  0  0  0  0  0  0  0  0  0  0
    2.7841   -2.3105   -1.5748 H   0  0  0  0  0  0  0  0  0  0  0  0
    1.6085   -0.6463   -2.7233 H   0  0  0  0  0  0  0  0  0  0  0  0
    2.9711   -0.4927   -3.8350 H   0  0  0  0  0  0  0  0  0  0  0  0
    1.8285    7.1065   -0.8876 H   0  0  0  0  0  0  0  0  0  0  0  0
    0.2386    6.0891   -2.4964 H   0  0  0  0  0  0  0  0  0  0  0  0
    5.0841   -0.4437   -0.9341 H   0  0  0  0  0  0  0  0  0  0  0  0
    3.9907   -1.2133    0.2211 H   0  0  0  0  0  0  0  0  0  0  0  0
    3.9239    3.3689   -0.4380 H   0  0  0  0  0  0  0  0  0  0  0  0
    0.6307    1.2704   -3.8292 H   0  0  0  0  0  0  0  0  0  0  0  0
    4.0496    1.1661   -2.4791 H   0  0  0  0  0  0  0  0  0  0  0  0
   -0.3152    3.5924   -3.7807 H   0  0  0  0  0  0  0  0  0  0  0  0
    3.6217    6.7772    0.4397 H   0  0  0  0  0  0  0  0  0  0  0  0
  1 19  1  0  0  0  0
  1 17  1  0  0  0  0
  2 21  1  0  0  0  0
  2  6  1  0  0  0  0
  3 22  1  0  0  0  0
  3 13  1  0  0  0  0
  3  2  1  0  0  0  0
  4 24  1  0  0  0  0
  4  9  2  0  0  0  0
  5  4  1  0  0  0  0
  6 15  1  0  0  0  0
  6 27  1  0  0  0  0
  7  9  1  0  0  0  0
  7 28  1  0  0  0  0
  8 11  2  0  0  0  0
  9 16  1  0  0  0  0
 10  7  2  0  0  0  0
 11 13  1  0  0  0  0
 11 10  1  0  0  0  0
 12  5  2  0  0  0  0
 12 10  1  0  0  0  0
 13 30  1  6  0  0  0
 13 15  1  0  0  0  0
 14  8  1  0  0  0  0
 14 12  1  0  0  0  0
 15  1  1  0  0  0  0
 16 32  1  0  0  0  0
 18  1  1  0  0  0  0
 20  2  1  0  0  0  0
 23  3  1  0  0  0  0
 25  5  1  0  0  0  0
 26  6  1  0  0  0  0
 29  8  1  0  0  0  0
 31 14  1  0  0  0  0
M  END
>  <HBA>
2

>  <HBD>
2

>  <TPSA>
39.26

>  <cid>
29448

>  <dipole>
3.29

>  <excitation_energy_1>
4.328

>  <excitation_energy_2>
4.54

>  <excitation_energy_3>
4.543

>  <excitation_energy_4>
4.711

>  <homo_energy>
-5.094

>  <homo_lumo_gap>
5.012

>  <logP>
2.578

>  <lumo_energy>
-0.082

>  <melting_point>
163.3

>  <molecular_refractivity>
69.21

>  <oscillator_strength_1>
0.0661

>  <oscillator_strength_2>
0.0001

>  <oscillator_strength_3>
0.0005

>  <oscillator_strength_4>
0.0006

>  <open_babel_can_smiles>
CN1CCC[C@H]1c1c[nH]c2c1cc(O)cc2

>  <mulliken_charges>
32
1   -0.309071
2   -0.293877
3   -0.286498
4   -0.217021
5   -0.168959
6   -0.132713
7   -0.253504
8   -0.002192
9   0.354112
10   0.077998
11   0.045054
12   0.314204
13   -0.039419
14   -0.704325
15   -0.380735
16   -0.654686
17   0.145404
18   0.114477
19   0.168146
20   0.13668
21   0.139593
22   0.135292
23   0.137412
24   0.109824
25   0.1216
26   0.141179
27   0.136627
28   0.153684
29   0.147612
30   0.139366
31   0.323724
32   0.401013

>  <lowdin_charges>
32
1   -0.364045
2   -0.304392
3   -0.295388
4   -0.215586
5   -0.180134
6   -0.208796
7   -0.1944
8   -0.13503
9   0.089119
10   -0.021755
11   -0.071322
12   0.016387
13   -0.058475
14   -0.204613
15   -0.191789
16   -0.389987
17   0.147498
18   0.119904
19   0.160925
20   0.147907
21   0.146565
22   0.139945
23   0.146287
24   0.148676
25   0.156745
26   0.140214
27   0.146148
28   0.177229
29   0.165577
30   0.144901
31   0.2903
32   0.351385

$$$$

