PCCDB-ID:  7681
public computational chemistry database (PCCDB) project, http://pccdb.org

 23 23  0  0  0  0  0  0  0  0999 V2000
    2.9591   -1.2849   -1.2434 C   0  0  0  0  0  0  0  0  0  0  0  0
    1.3189    0.2549   -0.3964 C   0  0  0  0  0  0  0  0  0  0  0  0
    7.6152   -0.2470    1.0623 C   0  0  0  0  0  0  0  0  0  0  0  0
    6.8839   -1.1488    1.8355 C   0  0  0  0  0  0  0  0  0  0  0  0
    6.9425    0.6458    0.2236 C   0  0  0  0  0  0  0  0  0  0  0  0
    5.4886   -1.1563    1.7688 C   0  0  0  0  0  0  0  0  0  0  0  0
    5.5495    0.6399    0.1642 C   0  0  0  0  0  0  0  0  0  0  0  0
    3.2883   -0.2288    0.9133 C   0  0  0  0  0  0  0  0  0  0  0  0
    4.8056   -0.2610    0.9387 C   0  0  0  0  0  0  0  0  0  0  0  0
    2.7319   -0.0945   -0.4325 N   0  0  0  0  0  0  0  0  0  0  0  0
    2.6074   -1.1049   -2.2651 H   0  0  0  0  0  0  0  0  0  0  0  0
    2.4339   -2.1789   -0.8515 H   0  0  0  0  0  0  0  0  0  0  0  0
    4.0286   -1.5085   -1.2841 H   0  0  0  0  0  0  0  0  0  0  0  0
    0.9554    0.4159   -1.4173 H   0  0  0  0  0  0  0  0  0  0  0  0
    1.1796    1.1851    0.1654 H   0  0  0  0  0  0  0  0  0  0  0  0
    0.6852   -0.5259    0.0700 H   0  0  0  0  0  0  0  0  0  0  0  0
    8.7010   -0.2402    1.1102 H   0  0  0  0  0  0  0  0  0  0  0  0
    7.3973   -1.8516    2.4867 H   0  0  0  0  0  0  0  0  0  0  0  0
    7.5054    1.3505   -0.3835 H   0  0  0  0  0  0  0  0  0  0  0  0
    4.9231   -1.8659    2.3693 H   0  0  0  0  0  0  0  0  0  0  0  0
    5.0212    1.3252   -0.4925 H   0  0  0  0  0  0  0  0  0  0  0  0
    2.9429    0.6397    1.4911 H   0  0  0  0  0  0  0  0  0  0  0  0
    2.8934   -1.1234    1.4369 H   0  0  0  0  0  0  0  0  0  0  0  0
  1 12  1  0  0  0  0
  1 10  1  0  0  0  0
  2 16  1  0  0  0  0
  2 15  1  0  0  0  0
  3 17  1  0  0  0  0
  3  4  2  0  0  0  0
  4 18  1  0  0  0  0
  5  3  1  0  0  0  0
  6  4  1  0  0  0  0
  6 20  1  0  0  0  0
  7  5  2  0  0  0  0
  7  9  1  0  0  0  0
  8  9  1  0  0  0  0
  8 23  1  0  0  0  0
  8 22  1  0  0  0  0
  9  6  2  0  0  0  0
 10  2  1  0  0  0  0
 10  8  1  0  0  0  0
 11  1  1  0  0  0  0
 13  1  1  0  0  0  0
 14  2  1  0  0  0  0
 19  5  1  0  0  0  0
 21  7  1  0  0  0  0
M  END
>  <HBA>
1

>  <HBD>
0

>  <TPSA>
3.24

>  <cid>
7681

>  <dipole>
0.62

>  <excitation_energy_1>
4.841

>  <excitation_energy_2>
4.994

>  <excitation_energy_3>
5.312

>  <excitation_energy_4>
5.398

>  <homo_energy>
-5.774

>  <homo_lumo_gap>
5.853

>  <logP>
1.748

>  <lumo_energy>
0.079

>  <melting_point>
8.46

>  <molecular_refractivity>
43.92

>  <oscillator_strength_1>
0.0004

>  <oscillator_strength_2>
0.0037

>  <oscillator_strength_3>
0.0008

>  <oscillator_strength_4>
0.0284

>  <open_babel_can_smiles>
CN(Cc1ccccc1)C

>  <mulliken_charges>
23
1   -0.302896
2   -0.29281
3   -0.129757
4   -0.128743
5   -0.131242
6   -0.185888
7   -0.163291
8   -0.191555
9   0.141254
10   -0.364782
11   0.147298
12   0.115413
13   0.16455
14   0.149147
15   0.148275
16   0.117299
17   0.12636
18   0.126632
19   0.127335
20   0.121668
21   0.140271
22   0.151147
23   0.114314

>  <lowdin_charges>
23
1   -0.358075
2   -0.356531
3   -0.158761
4   -0.158389
5   -0.157507
6   -0.170082
7   -0.159975
8   -0.19787
9   -0.013288
10   -0.180528
11   0.148451
12   0.120132
13   0.157035
14   0.14955
15   0.149209
16   0.121426
17   0.153995
18   0.157404
19   0.157533
20   0.15484
21   0.165447
22   0.154216
23   0.121766

$$$$

