PCCDB-ID:  7516
public computational chemistry database (PCCDB) project, http://pccdb.org

 16 16  0  0  0  0  0  0  0  0999 V2000
   -1.4130   -0.1131    0.2034 C   0  0  0  0  0  0  0  0  0  0  0  0
   -0.8241    1.1433    0.0264 C   0  0  0  0  0  0  0  0  0  0  0  0
   -0.6001   -1.2454    0.1943 C   0  0  0  0  0  0  0  0  0  0  0  0
    0.5482    1.2647   -0.1597 C   0  0  0  0  0  0  0  0  0  0  0  0
    0.7796   -1.1377    0.0107 C   0  0  0  0  0  0  0  0  0  0  0  0
    1.3718    0.1228   -0.1689 C   0  0  0  0  0  0  0  0  0  0  0  0
    3.5647   -0.7817   -0.7808 N   0  0  0  0  0  0  0  0  0  0  0  0
    2.7563    0.2770   -0.3119 N   0  0  0  0  0  0  0  0  0  0  0  0
   -2.4858   -0.2041    0.3453 H   0  0  0  0  0  0  0  0  0  0  0  0
   -1.4409    2.0386    0.0277 H   0  0  0  0  0  0  0  0  0  0  0  0
   -1.0385   -2.2308    0.3321 H   0  0  0  0  0  0  0  0  0  0  0  0
    0.9965    2.2467   -0.2978 H   0  0  0  0  0  0  0  0  0  0  0  0
    1.3973   -2.0302    0.0181 H   0  0  0  0  0  0  0  0  0  0  0  0
    3.0564   -1.3362   -1.4754 H   0  0  0  0  0  0  0  0  0  0  0  0
    3.7740   -1.3970    0.0032 H   0  0  0  0  0  0  0  0  0  0  0  0
    3.0328    1.1477   -0.7486 H   0  0  0  0  0  0  0  0  0  0  0  0
  1  9  1  0  0  0  0
  2 10  1  0  0  0  0
  2  1  2  0  0  0  0
  3  1  1  0  0  0  0
  3 11  1  0  0  0  0
  4  2  1  0  0  0  0
  5 13  1  0  0  0  0
  5  3  2  0  0  0  0
  6  4  2  0  0  0  0
  6  5  1  0  0  0  0
  7  8  1  0  0  0  0
  7 15  1  0  0  0  0
  8  6  1  0  0  0  0
 12  4  1  0  0  0  0
 14  7  1  0  0  0  0
 16  8  1  0  0  0  0
M  END
>  <HBA>
2

>  <HBD>
2

>  <TPSA>
38.05

>  <cid>
7516

>  <dipole>
0.7

>  <excitation_energy_1>
4.65

>  <excitation_energy_2>
4.905

>  <excitation_energy_3>
5.268

>  <excitation_energy_4>
5.431

>  <homo_energy>
-5.44

>  <homo_lumo_gap>
5.54

>  <logP>
1.746

>  <lumo_energy>
0.101

>  <melting_point>
92.78

>  <molecular_refractivity>
33.65

>  <oscillator_strength_1>
0.0386

>  <oscillator_strength_2>
0.0265

>  <oscillator_strength_3>
0.0257

>  <oscillator_strength_4>
0.1173

>  <open_babel_can_smiles>
NNc1ccccc1

>  <mulliken_charges>
16
1   -0.137283
2   -0.133411
3   -0.134218
4   -0.187009
5   -0.181395
6   0.3362
7   -0.57752
8   -0.536032
9   0.12231
10   0.127079
11   0.125751
12   0.118882
13   0.10538
14   0.302313
15   0.322519
16   0.326437

>  <lowdin_charges>
16
1   -0.183909
2   -0.145999
3   -0.144221
4   -0.197088
5   -0.214558
6   0.04712
7   -0.469876
8   -0.250618
9   0.153693
10   0.157288
11   0.155567
12   0.152927
13   0.1504
14   0.250392
15   0.263936
16   0.274948

$$$$

