PCCDB-ID:  16645
public computational chemistry database (PCCDB) project, http://pccdb.org

 22 21  0  0  0  0  0  0  0  0999 V2000
    2.8491   -0.5968    1.1706 C   0  0  0  0  0  0  0  0  0  0  0  0
    4.4993    0.8816   -0.0708 C   0  0  0  0  0  0  0  0  0  0  0  0
    1.5201    4.0851   -1.1943 C   0  0  0  0  0  0  0  0  0  0  0  0
    1.8739    3.9317    1.3287 C   0  0  0  0  0  0  0  0  0  0  0  0
    3.2416    0.8351    0.7932 C   0  0  0  0  0  0  0  0  0  0  0  0
    2.2441    3.3786   -0.0486 C   0  0  0  0  0  0  0  0  0  0  0  0
    1.9165    1.1175   -1.5844 O   0  0  0  0  0  0  0  0  0  0  0  0
    1.7775    1.5633   -0.1367 S   0  0  0  0  0  0  0  0  0  0  0  0
    3.6599   -1.0751    1.7322 H   0  0  0  0  0  0  0  0  0  0  0  0
    2.6630   -1.1918    0.2696 H   0  0  0  0  0  0  0  0  0  0  0  0
    1.9455   -0.6204    1.7890 H   0  0  0  0  0  0  0  0  0  0  0  0
    5.2906    0.2760    0.3858 H   0  0  0  0  0  0  0  0  0  0  0  0
    4.8871    1.8980   -0.1929 H   0  0  0  0  0  0  0  0  0  0  0  0
    4.2780    0.4806   -1.0653 H   0  0  0  0  0  0  0  0  0  0  0  0
    1.8389    5.1328   -1.2452 H   0  0  0  0  0  0  0  0  0  0  0  0
    0.4331    4.0690   -1.0481 H   0  0  0  0  0  0  0  0  0  0  0  0
    1.7442    3.6003   -2.1479 H   0  0  0  0  0  0  0  0  0  0  0  0
    2.1137    5.0003    1.3752 H   0  0  0  0  0  0  0  0  0  0  0  0
    2.4167    3.4373    2.1416 H   0  0  0  0  0  0  0  0  0  0  0  0
    0.8003    3.8215    1.5216 H   0  0  0  0  0  0  0  0  0  0  0  0
    3.3506    1.4438    1.6983 H   0  0  0  0  0  0  0  0  0  0  0  0
    3.3257    3.4408   -0.2123 H   0  0  0  0  0  0  0  0  0  0  0  0
  1  9  1  0  0  0  0
  1 11  1  0  0  0  0
  2 12  1  0  0  0  0
  2  5  1  0  0  0  0
  3 16  1  0  0  0  0
  3  6  1  0  0  0  0
  4 18  1  0  0  0  0
  4 20  1  0  0  0  0
  4 19  1  0  0  0  0
  5  1  1  0  0  0  0
  5 21  1  0  0  0  0
  6  4  1  0  0  0  0
  7  8  2  0  0  0  0
  8  6  1  0  0  0  0
  8  5  1  0  0  0  0
 10  1  1  0  0  0  0
 13  2  1  0  0  0  0
 14  2  1  0  0  0  0
 15  3  1  0  0  0  0
 17  3  1  0  0  0  0
 22  6  1  0  0  0  0
M  END
>  <HBA>
1

>  <HBD>
0

>  <TPSA>
36.28

>  <cid>
16645

>  <dipole>
3.78

>  <excitation_energy_1>
5.286

>  <excitation_energy_2>
5.425

>  <excitation_energy_3>
5.557

>  <excitation_energy_4>
6.0

>  <homo_energy>
-5.807

>  <homo_lumo_gap>
6.923

>  <logP>
2.418

>  <lumo_energy>
1.116

>  <melting_point>
-7.26

>  <molecular_refractivity>
39.23

>  <oscillator_strength_1>
0.002

>  <oscillator_strength_2>
0.014

>  <oscillator_strength_3>
0.0415

>  <oscillator_strength_4>
0.0234

>  <open_babel_can_smiles>
CC(S(=O)C(C)C)C

>  <mulliken_charges>
22
1   -0.456953
2   -0.454378
3   -0.457252
4   -0.460348
5   -0.284448
6   -0.287137
7   -0.651768
8   0.770114
9   0.15365
10   0.176886
11   0.15708
12   0.152127
13   0.148633
14   0.193826
15   0.149937
16   0.154011
17   0.192469
18   0.161049
19   0.152906
20   0.163072
21   0.157082
22   0.169444

>  <lowdin_charges>
22
1   -0.450298
2   -0.452268
3   -0.445398
4   -0.447141
5   -0.259499
6   -0.260917
7   -0.679089
8   0.771758
9   0.157251
10   0.166127
11   0.15704
12   0.157501
13   0.150121
14   0.173521
15   0.153819
16   0.152574
17   0.175495
18   0.159301
19   0.152926
20   0.156655
21   0.155821
22   0.154702

$$$$

