PCCDB-ID:  6908
public computational chemistry database (PCCDB) project, http://pccdb.org

 30 30  0  0  0  0  0  0  0  0999 V2000
    0.9170   -0.0562   -0.0619 C   0  0  0  0  0  0  0  0  0  0  0  0
    2.4830   -2.6486   -0.0705 C   0  0  0  0  0  0  0  0  0  0  0  0
    2.3606    2.4679   -0.0712 C   0  0  0  0  0  0  0  0  0  0  0  0
    5.3893   -2.5451   -0.0607 C   0  0  0  0  0  0  0  0  0  0  0  0
    5.2949    2.4877   -0.0596 C   0  0  0  0  0  0  0  0  0  0  0  0
    6.7723    0.0437   -0.0577 C   0  0  0  0  0  0  0  0  0  0  0  0
    2.4376   -0.0820   -0.0648 C   0  0  0  0  0  0  0  0  0  0  0  0
    3.1679   -1.2908   -0.0658 C   0  0  0  0  0  0  0  0  0  0  0  0
    3.1247    1.1541   -0.0661 C   0  0  0  0  0  0  0  0  0  0  0  0
    4.5819   -1.2576   -0.0630 C   0  0  0  0  0  0  0  0  0  0  0  0
    4.5298    1.1796   -0.0626 C   0  0  0  0  0  0  0  0  0  0  0  0
    5.2582   -0.0258   -0.0612 C   0  0  0  0  0  0  0  0  0  0  0  0
    0.4681   -1.0475   -0.0424 H   0  0  0  0  0  0  0  0  0  0  0  0
    0.5214    0.4510   -0.9507 H   0  0  0  0  0  0  0  0  0  0  0  0
    0.5271    0.4812    0.8113 H   0  0  0  0  0  0  0  0  0  0  0  0
    1.3966   -2.5842   -0.0865 H   0  0  0  0  0  0  0  0  0  0  0  0
    2.7500   -3.2374    0.8159 H   0  0  0  0  0  0  0  0  0  0  0  0
    2.7739   -3.2415   -0.9463 H   0  0  0  0  0  0  0  0  0  0  0  0
    1.2807    2.3279   -0.0926 H   0  0  0  0  0  0  0  0  0  0  0  0
    2.6196    3.0811   -0.9434 H   0  0  0  0  0  0  0  0  0  0  0  0
    2.5869    3.0704    0.8178 H   0  0  0  0  0  0  0  0  0  0  0  0
    4.7623   -3.4357   -0.0583 H   0  0  0  0  0  0  0  0  0  0  0  0
    6.0402   -2.6104    0.8202 H   0  0  0  0  0  0  0  0  0  0  0  0
    6.0402   -2.6145   -0.9414 H   0  0  0  0  0  0  0  0  0  0  0  0
    4.6419    3.3602   -0.0487 H   0  0  0  0  0  0  0  0  0  0  0  0
    5.9421    2.5763   -0.9423 H   0  0  0  0  0  0  0  0  0  0  0  0
    5.9545    2.5640    0.8147 H   0  0  0  0  0  0  0  0  0  0  0  0
    7.2427   -0.9395   -0.0629 H   0  0  0  0  0  0  0  0  0  0  0  0
    7.1471    0.5790    0.8248 H   0  0  0  0  0  0  0  0  0  0  0  0
    7.1504    0.5899   -0.9321 H   0  0  0  0  0  0  0  0  0  0  0  0
  1 13  1  0  0  0  0
  1 15  1  0  0  0  0
  2  8  1  0  0  0  0
  2 17  1  0  0  0  0
  3  9  1  0  0  0  0
  3 21  1  0  0  0  0
  4 22  1  0  0  0  0
  4 23  1  0  0  0  0
  5 25  1  0  0  0  0
  5 27  1  0  0  0  0
  6 29  1  0  0  0  0
  7  1  1  0  0  0  0
  8  7  1  0  0  0  0
  8 10  2  0  0  0  0
  9  7  2  0  0  0  0
  9 11  1  0  0  0  0
 10 12  1  0  0  0  0
 10  4  1  0  0  0  0
 11 12  2  0  0  0  0
 11  5  1  0  0  0  0
 12  6  1  0  0  0  0
 14  1  1  0  0  0  0
 16  2  1  0  0  0  0
 18  2  1  0  0  0  0
 19  3  1  0  0  0  0
 20  3  1  0  0  0  0
 24  4  1  0  0  0  0
 26  5  1  0  0  0  0
 28  6  1  0  0  0  0
 30  6  1  0  0  0  0
M  END
>  <HBA>
0

>  <HBD>
0

>  <TPSA>
0.0

>  <cid>
6908

>  <dipole>
0.08

>  <excitation_energy_1>
4.965

>  <excitation_energy_2>
5.36

>  <excitation_energy_3>
5.393

>  <excitation_energy_4>
5.564

>  <homo_energy>
-5.736

>  <homo_lumo_gap>
6.106

>  <logP>
3.537

>  <lumo_energy>
0.37

>  <melting_point>
31.35

>  <molecular_refractivity>
56.24

>  <oscillator_strength_1>
0.0006

>  <oscillator_strength_2>
0.0

>  <oscillator_strength_3>
0.0

>  <oscillator_strength_4>
0.005

>  <open_babel_can_smiles>
Cc1c(C)c(C)c(c(c1C)C)C

>  <mulliken_charges>
30
1   -0.551116
2   -0.551217
3   -0.545122
4   -0.544804
5   -0.536204
6   -0.536369
7   0.076299
8   0.077127
9   0.073769
10   0.073307
11   0.077028
12   0.076853
13   0.15328
14   0.158862
15   0.15888
16   0.153218
17   0.158764
18   0.158899
19   0.153987
20   0.158097
21   0.157982
22   0.153958
23   0.158039
24   0.15799
25   0.153769
26   0.155223
27   0.155141
28   0.153828
29   0.15532
30   0.155212

>  <lowdin_charges>
30
1   -0.451161
2   -0.448961
3   -0.449597
4   -0.451308
5   -0.447583
6   -0.448039
7   -0.022956
8   -0.023898
9   -0.022498
10   -0.022624
11   -0.020503
12   -0.019554
13   0.154902
14   0.157214
15   0.157432
16   0.153283
17   0.157083
18   0.157285
19   0.15749
20   0.157457
21   0.157224
22   0.159674
23   0.157246
24   0.157189
25   0.15937
26   0.15661
27   0.156693
28   0.158645
29   0.156908
30   0.156977

$$$$

