PCCDB-ID:  26107
public computational chemistry database (PCCDB) project, http://pccdb.org

 17 16  0  0  1  0  0  0  0  0999 V2000
    3.2811   -1.3895    0.2077 C   0  0  0  0  0  0  0  0  0  0  0  0
    2.4914   -0.0782    0.1951 C   0  0  0  0  0  0  0  0  0  0  0  0
    2.2127    2.2310   -0.8893 C   0  0  0  0  0  0  0  0  0  0  0  0
    3.0185    0.9190   -0.8518 C   0  0  1  0  0  0  0  0  0  0  0  0
    2.5327    3.0244    0.3103 N   0  0  0  0  0  0  0  0  0  0  0  0
    4.3875    1.2306   -0.6334 O   0  0  0  0  0  0  0  0  0  0  0  0
    2.9237   -2.0647    0.9933 H   0  0  0  0  0  0  0  0  0  0  0  0
    4.3430   -1.1891    0.3771 H   0  0  0  0  0  0  0  0  0  0  0  0
    3.1886   -1.9133   -0.7520 H   0  0  0  0  0  0  0  0  0  0  0  0
    2.5446    0.3877    1.1900 H   0  0  0  0  0  0  0  0  0  0  0  0
    1.4287   -0.2792   -0.0057 H   0  0  0  0  0  0  0  0  0  0  0  0
    1.1381    2.0217   -1.0154 H   0  0  0  0  0  0  0  0  0  0  0  0
    2.5430    2.8085   -1.7592 H   0  0  0  0  0  0  0  0  0  0  0  0
    2.9581    0.4470   -1.8424 H   0  0  0  0  0  0  0  0  0  0  0  0
    1.9707    2.7228    1.1033 H   0  0  0  0  0  0  0  0  0  0  0  0
    2.3218    4.0073    0.1597 H   0  0  0  0  0  0  0  0  0  0  0  0
    4.3553    1.9732    0.0031 H   0  0  0  0  0  0  0  0  0  0  0  0
  1  8  1  0  0  0  0
  1  7  1  0  0  0  0
  2  1  1  0  0  0  0
  2 10  1  0  0  0  0
  3  4  1  0  0  0  0
  3  5  1  0  0  0  0
  4 14  1  6  0  0  0
  4  6  1  0  0  0  0
  4  2  1  0  0  0  0
  5 15  1  0  0  0  0
  6 17  1  0  0  0  0
  9  1  1  0  0  0  0
 11  2  1  0  0  0  0
 12  3  1  0  0  0  0
 13  3  1  0  0  0  0
 16  5  1  0  0  0  0
M  END
>  <HBA>
2

>  <HBD>
2

>  <TPSA>
46.25

>  <cid>
26107

>  <dipole>
3.17

>  <excitation_energy_1>
5.881

>  <excitation_energy_2>
6.348

>  <excitation_energy_3>
6.632

>  <excitation_energy_4>
6.902

>  <homo_energy>
-6.585

>  <homo_lumo_gap>
8.359

>  <logP>
0.416

>  <lumo_energy>
1.774

>  <melting_point>
47.63

>  <molecular_refractivity>
25.21

>  <oscillator_strength_1>
0.0091

>  <oscillator_strength_2>
0.0206

>  <oscillator_strength_3>
0.0051

>  <oscillator_strength_4>
0.0023

>  <open_babel_can_smiles>
CC[C@@H](CN)O

>  <mulliken_charges>
17
1   -0.441642
2   -0.260648
3   -0.170879
4   0.16092
5   -0.74697
6   -0.643276
7   0.13484
8   0.168009
9   0.137184
10   0.121163
11   0.118697
12   0.123281
13   0.150965
14   0.121923
15   0.309414
16   0.311987
17   0.405031

>  <lowdin_charges>
17
1   -0.444298
2   -0.28958
3   -0.224446
4   -0.008807
5   -0.557234
6   -0.475346
7   0.147062
8   0.158822
9   0.14475
10   0.13546
11   0.135195
12   0.126922
13   0.151578
14   0.136219
15   0.260233
16   0.263056
17   0.340412

$$$$

