PCCDB-ID:  69714
public computational chemistry database (PCCDB) project, http://pccdb.org

 22 22  0  0  0  0  0  0  0  0999 V2000
    1.2832   -0.3654    1.5857 C   0  0  0  0  0  0  0  0  0  0  0  0
    6.0874   -0.7012   -2.9037 C   0  0  0  0  0  0  0  0  0  0  0  0
    4.1516   -3.5105   -1.6098 C   0  0  0  0  0  0  0  0  0  0  0  0
    3.1298   -3.7839   -0.7151 C   0  0  0  0  0  0  0  0  0  0  0  0
    4.0024   -1.1740   -1.0484 C   0  0  0  0  0  0  0  0  0  0  0  0
    2.4142   -0.2287    0.5862 C   0  0  0  0  0  0  0  0  0  0  0  0
    4.5996   -2.1911   -1.7829 C   0  0  0  0  0  0  0  0  0  0  0  0
    2.9607   -1.4315   -0.1344 C   0  0  0  0  0  0  0  0  0  0  0  0
    2.5251   -2.7591    0.0289 C   0  0  0  0  0  0  0  0  0  0  0  0
    2.8923    0.8753    0.3580 O   0  0  0  0  0  0  0  0  0  0  0  0
    1.5162   -3.0470    0.9113 O   0  0  0  0  0  0  0  0  0  0  0  0
    5.6116   -2.0207   -2.6858 O   0  0  0  0  0  0  0  0  0  0  0  0
    0.3988   -0.8147    1.1230 H   0  0  0  0  0  0  0  0  0  0  0  0
    1.0458    0.6300    1.9664 H   0  0  0  0  0  0  0  0  0  0  0  0
    1.5669   -1.0262    2.4114 H   0  0  0  0  0  0  0  0  0  0  0  0
    6.8778   -0.7881   -3.6515 H   0  0  0  0  0  0  0  0  0  0  0  0
    6.5015   -0.2647   -1.9853 H   0  0  0  0  0  0  0  0  0  0  0  0
    5.2946   -0.0446   -3.2855 H   0  0  0  0  0  0  0  0  0  0  0  0
    4.6171   -4.3037   -2.1864 H   0  0  0  0  0  0  0  0  0  0  0  0
    2.7869   -4.8094   -0.5867 H   0  0  0  0  0  0  0  0  0  0  0  0
    4.3077   -0.1393   -1.1418 H   0  0  0  0  0  0  0  0  0  0  0  0
    1.3535   -4.0029    0.8908 H   0  0  0  0  0  0  0  0  0  0  0  0
  1 14  1  0  0  0  0
  1 15  1  0  0  0  0
  2 12  1  0  0  0  0
  2 17  1  0  0  0  0
  3  4  1  0  0  0  0
  4 20  1  0  0  0  0
  4  9  2  0  0  0  0
  5  8  2  0  0  0  0
  6  1  1  0  0  0  0
  7  3  2  0  0  0  0
  7  5  1  0  0  0  0
  8  9  1  0  0  0  0
  8  6  1  0  0  0  0
  9 11  1  0  0  0  0
 10  6  2  0  0  0  0
 12  7  1  0  0  0  0
 13  1  1  0  0  0  0
 16  2  1  0  0  0  0
 18  2  1  0  0  0  0
 19  3  1  0  0  0  0
 21  5  1  0  0  0  0
 22 11  1  0  0  0  0
M  END
>  <HBA>
3

>  <HBD>
1

>  <TPSA>
46.53

>  <cid>
69714

>  <dipole>
3.23

>  <excitation_energy_1>
3.798

>  <excitation_energy_2>
3.838

>  <excitation_energy_3>
4.869

>  <excitation_energy_4>
5.141

>  <homo_energy>
-5.717

>  <homo_lumo_gap>
4.416

>  <logP>
1.603

>  <lumo_energy>
-1.301

>  <melting_point>
85.3

>  <molecular_refractivity>
45.15

>  <oscillator_strength_1>
0.0001

>  <oscillator_strength_2>
0.0871

>  <oscillator_strength_3>
0.0

>  <oscillator_strength_4>
0.095

>  <open_babel_can_smiles>
COc1ccc(c(c1)C(=O)C)O

>  <mulliken_charges>
22
1   -0.51507
2   -0.216434
3   -0.164932
4   -0.192618
5   -0.259105
6   0.409902
7   0.388822
8   0.049873
9   0.2779
10   -0.463037
11   -0.649369
12   -0.516739
13   0.174174
14   0.166353
15   0.174517
16   0.168001
17   0.156922
18   0.156751
19   0.147337
20   0.123938
21   0.170646
22   0.412167

>  <lowdin_charges>
22
1   -0.471707
2   -0.279444
3   -0.153115
4   -0.203332
5   -0.178294
6   0.169307
7   0.085806
8   -0.076056
9   0.096726
10   -0.256321
11   -0.371806
12   -0.204474
13   0.173938
14   0.166051
15   0.174439
16   0.162529
17   0.148466
18   0.149113
19   0.17256
20   0.155215
21   0.182761
22   0.357638

$$$$

