PCCDB-ID:  26872
public computational chemistry database (PCCDB) project, http://pccdb.org

 20 19  0  0  0  0  0  0  0  0999 V2000
    0.8573    0.1240    0.1125 C   0  0  0  0  0  0  0  0  0  0  0  0
    6.9640   -0.2088   -1.2178 C   0  0  0  0  0  0  0  0  0  0  0  0
    3.1475   -0.5485   -0.6220 C   0  0  0  0  0  0  0  0  0  0  0  0
    4.6521   -0.5384   -0.3333 C   0  0  0  0  0  0  0  0  0  0  0  0
    2.3103    0.2796    0.1388 N   0  0  0  0  0  0  0  0  0  0  0  0
    5.5189   -0.0050   -1.2976 N   0  0  0  0  0  0  0  0  0  0  0  0
    2.8148    1.4222    0.7690 N   0  0  0  0  0  0  0  0  0  0  0  0
    5.0604    0.9283   -2.2336 N   0  0  0  0  0  0  0  0  0  0  0  0
    2.6979   -1.4309   -1.3195 O   0  0  0  0  0  0  0  0  0  0  0  0
    5.0681   -1.1963    0.5947 O   0  0  0  0  0  0  0  0  0  0  0  0
    1.9968    2.1210    1.3449 O   0  0  0  0  0  0  0  0  0  0  0  0
    4.0250    1.6217    0.6923 O   0  0  0  0  0  0  0  0  0  0  0  0
    3.8602    1.1924   -2.2263 O   0  0  0  0  0  0  0  0  0  0  0  0
    5.9043    1.3962   -2.9805 O   0  0  0  0  0  0  0  0  0  0  0  0
    0.6637   -0.7958   -0.4371 H   0  0  0  0  0  0  0  0  0  0  0  0
    0.3930    0.9721   -0.3961 H   0  0  0  0  0  0  0  0  0  0  0  0
    0.4744    0.0525    1.1316 H   0  0  0  0  0  0  0  0  0  0  0  0
    7.1205   -0.9446   -0.4305 H   0  0  0  0  0  0  0  0  0  0  0  0
    7.4671    0.7272   -0.9640 H   0  0  0  0  0  0  0  0  0  0  0  0
    7.3380   -0.5798   -2.1730 H   0  0  0  0  0  0  0  0  0  0  0  0
  1  5  1  0  0  0  0
  1 17  1  0  0  0  0
  2 19  1  0  0  0  0
  2 18  1  0  0  0  0
  3  4  1  0  0  0  0
  3  5  1  0  0  0  0
  4 10  2  0  0  0  0
  5  7  1  0  0  0  0
  6  2  1  0  0  0  0
  6  4  1  0  0  0  0
  7 11  2  0  0  0  0
  8 13  2  0  0  0  0
  8  6  1  0  0  0  0
  9  3  2  0  0  0  0
 12  7  2  0  0  0  0
 14  8  2  0  0  0  0
 15  1  1  0  0  0  0
 16  1  1  0  0  0  0
 20  2  1  0  0  0  0
M  END
>  <HBA>
4

>  <HBD>
0

>  <TPSA>
132.26

>  <cid>
26872

>  <dipole>
1.07

>  <excitation_energy_1>
4.149

>  <excitation_energy_2>
4.241

>  <excitation_energy_3>
4.468

>  <excitation_energy_4>
4.471

>  <homo_energy>
-7.878

>  <homo_lumo_gap>
5.333

>  <logP>
-0.667

>  <lumo_energy>
-2.544

>  <melting_point>
84.33

>  <molecular_refractivity>
43.74

>  <oscillator_strength_1>
0.0011

>  <oscillator_strength_2>
0.0014

>  <oscillator_strength_3>
0.0007

>  <oscillator_strength_4>
0.0

>  <open_babel_can_smiles>
CN(C(=O)C(=O)N(N(=O)=O)C)N(=O)=O

>  <mulliken_charges>
20
1   -0.323321
2   -0.323157
3   0.595666
4   0.595574
5   -0.32773
6   -0.327955
7   0.682009
8   0.682119
9   -0.443777
10   -0.443699
11   -0.383941
12   -0.415237
13   -0.415193
14   -0.383873
15   0.216007
16   0.20052
17   0.199784
18   0.215893
19   0.200434
20   0.199876

>  <lowdin_charges>
20
1   -0.350636
2   -0.351237
3   0.166767
4   0.166392
5   -0.04378
6   -0.044207
7   0.350577
8   0.350632
9   -0.21809
10   -0.218018
11   -0.220558
12   -0.236396
13   -0.23639
14   -0.22014
15   0.194823
16   0.178784
17   0.178655
18   0.19522
19   0.178014
20   0.179589

$$$$

