PCCDB-ID:  68983
public computational chemistry database (PCCDB) project, http://pccdb.org

 13 12  0  0  0  0  0  0  0  0999 V2000
    1.1440    0.0204   -0.0445 C   0  0  0  0  0  0  0  0  0  0  0  0
    3.4676    0.4063    1.5531 C   0  0  0  0  0  0  0  0  0  0  0  0
    3.4679   -1.5558   -0.5109 C   0  0  0  0  0  0  0  0  0  0  0  0
    2.9891    0.2288   -0.2432 P   0  0  0  0  0  0  0  0  0  0  0  0
    0.6995    0.9702    0.2721 H   0  0  0  0  0  0  0  0  0  0  0  0
    0.8812   -0.7517    0.6898 H   0  0  0  0  0  0  0  0  0  0  0  0
    0.6987   -0.2477   -1.0088 H   0  0  0  0  0  0  0  0  0  0  0  0
    3.1152    1.3717    1.9323 H   0  0  0  0  0  0  0  0  0  0  0  0
    4.5590    0.3931    1.6460 H   0  0  0  0  0  0  0  0  0  0  0  0
    3.0521   -0.3906    2.1827 H   0  0  0  0  0  0  0  0  0  0  0  0
    3.1157   -1.8862   -1.4941 H   0  0  0  0  0  0  0  0  0  0  0  0
    3.0523   -2.2244    0.2534 H   0  0  0  0  0  0  0  0  0  0  0  0
    4.5593   -1.6489   -0.5021 H   0  0  0  0  0  0  0  0  0  0  0  0
  1  5  1  0  0  0  0
  1  6  1  0  0  0  0
  2  9  1  0  0  0  0
  2  8  1  0  0  0  0
  2 10  1  0  0  0  0
  3 13  1  0  0  0  0
  3  4  1  0  0  0  0
  3 12  1  0  0  0  0
  4  1  1  0  0  0  0
  4  2  1  0  0  0  0
  7  1  1  0  0  0  0
 11  3  1  0  0  0  0
M  END
>  <HBA>
0

>  <HBD>
0

>  <TPSA>
13.59

>  <cid>
68983

>  <dipole>
1.35

>  <excitation_energy_1>
5.407

>  <excitation_energy_2>
5.787

>  <excitation_energy_3>
5.787

>  <excitation_energy_4>
6.31

>  <homo_energy>
-5.981

>  <homo_lumo_gap>
7.734

>  <logP>
1.358

>  <lumo_energy>
1.752

>  <melting_point>
-35.86

>  <molecular_refractivity>
24.51

>  <oscillator_strength_1>
0.0203

>  <oscillator_strength_2>
0.0974

>  <oscillator_strength_3>
0.0974

>  <oscillator_strength_4>
0.2338

>  <open_babel_can_smiles>
CP(C)C

>  <mulliken_charges>
13
1   -0.62072
2   -0.621154
3   -0.620659
4   0.405122
5   0.165175
6   0.155241
7   0.165175
8   0.165357
9   0.16528
10   0.155404
11   0.165202
12   0.155364
13   0.165213

>  <lowdin_charges>
13
1   -0.615
2   -0.613232
3   -0.612849
4   0.374743
5   0.168079
6   0.153765
7   0.167906
8   0.168065
9   0.166302
10   0.154008
11   0.167806
12   0.154096
13   0.166312

$$$$

