PCCDB-ID:  70988
public computational chemistry database (PCCDB) project, http://pccdb.org

 26 26  0  0  0  0  0  0  0  0999 V2000
    0.7007   -0.6189    0.1450 C   0  0  0  0  0  0  0  0  0  0  0  0
    2.2208   -0.4555    0.2440 C   0  0  0  0  0  0  0  0  0  0  0  0
    2.9911   -1.6648   -0.3003 C   0  0  0  0  0  0  0  0  0  0  0  0
    4.5221   -1.5012   -0.1995 C   0  0  0  0  0  0  0  0  0  0  0  0
    5.6426   -2.7557   -2.0983 C   0  0  0  0  0  0  0  0  0  0  0  0
    5.5975   -3.7790    0.0868 C   0  0  0  0  0  0  0  0  0  0  0  0
    6.3016   -3.8645   -2.6130 C   0  0  0  0  0  0  0  0  0  0  0  0
    6.2578   -4.8939   -0.4227 C   0  0  0  0  0  0  0  0  0  0  0  0
    7.3207   -6.1296   -2.3106 C   0  0  0  0  0  0  0  0  0  0  0  0
    5.2776   -2.6936   -0.7419 C   0  0  0  0  0  0  0  0  0  0  0  0
    6.6153   -4.9464   -1.7760 C   0  0  0  0  0  0  0  0  0  0  0  0
    7.6728   -6.2666   -3.4675 O   0  0  0  0  0  0  0  0  0  0  0  0
    0.1789    0.2601    0.5397 H   0  0  0  0  0  0  0  0  0  0  0  0
    0.3579   -1.4927    0.7124 H   0  0  0  0  0  0  0  0  0  0  0  0
    0.3833   -0.7553   -0.8960 H   0  0  0  0  0  0  0  0  0  0  0  0
    2.5043   -0.2869    1.2927 H   0  0  0  0  0  0  0  0  0  0  0  0
    2.5294    0.4469   -0.3028 H   0  0  0  0  0  0  0  0  0  0  0  0
    2.7158   -1.8358   -1.3505 H   0  0  0  0  0  0  0  0  0  0  0  0
    2.6893   -2.5706    0.2441 H   0  0  0  0  0  0  0  0  0  0  0  0
    4.7956   -1.3379    0.8512 H   0  0  0  0  0  0  0  0  0  0  0  0
    4.8212   -0.5971   -0.7459 H   0  0  0  0  0  0  0  0  0  0  0  0
    5.4063   -1.9176   -2.7503 H   0  0  0  0  0  0  0  0  0  0  0  0
    5.3281   -3.7441    1.1400 H   0  0  0  0  0  0  0  0  0  0  0  0
    6.5895   -3.9164   -3.6587 H   0  0  0  0  0  0  0  0  0  0  0  0
    6.5043   -5.7289    0.2303 H   0  0  0  0  0  0  0  0  0  0  0  0
    7.5213   -6.9266   -1.5592 H   0  0  0  0  0  0  0  0  0  0  0  0
  1  2  1  0  0  0  0
  1 13  1  0  0  0  0
  1 14  1  0  0  0  0
  2 16  1  0  0  0  0
  3  4  1  0  0  0  0
  3  2  1  0  0  0  0
  3 19  1  0  0  0  0
  4 20  1  0  0  0  0
  5 10  1  0  0  0  0
  6 23  1  0  0  0  0
  7  5  2  0  0  0  0
  7 11  1  0  0  0  0
  8  6  1  0  0  0  0
  8 25  1  0  0  0  0
  9 11  1  0  0  0  0
  9 26  1  0  0  0  0
 10  4  1  0  0  0  0
 10  6  2  0  0  0  0
 11  8  2  0  0  0  0
 12  9  2  0  0  0  0
 15  1  1  0  0  0  0
 17  2  1  0  0  0  0
 18  3  1  0  0  0  0
 21  4  1  0  0  0  0
 22  5  1  0  0  0  0
 24  7  1  0  0  0  0
M  END
>  <HBA>
1

>  <HBD>
0

>  <TPSA>
17.07

>  <cid>
70988

>  <dipole>
3.94

>  <excitation_energy_1>
3.714

>  <excitation_energy_2>
4.675

>  <excitation_energy_3>
4.911

>  <excitation_energy_4>
5.59

>  <homo_energy>
-6.827

>  <homo_lumo_gap>
5.238

>  <logP>
2.842

>  <lumo_energy>
-1.589

>  <melting_point>
39.93

>  <molecular_refractivity>
51.22

>  <oscillator_strength_1>
0.0001

>  <oscillator_strength_2>
0.016

>  <oscillator_strength_3>
0.4102

>  <oscillator_strength_4>
0.0001

>  <open_babel_can_smiles>
CCCCc1ccc(cc1)C=O

>  <mulliken_charges>
26
1   -0.442381
2   -0.247129
3   -0.244777
4   -0.352054
5   -0.180354
6   -0.18323
7   -0.157422
8   -0.178145
9   0.191523
10   0.180549
11   0.095734
12   -0.410536
13   0.145136
14   0.143875
15   0.144539
16   0.132664
17   0.133271
18   0.138417
19   0.136981
20   0.144411
21   0.145259
22   0.13274
23   0.130957
24   0.161947
25   0.138682
26   0.099341

>  <lowdin_charges>
26
1   -0.444181
2   -0.271726
3   -0.270013
4   -0.273869
5   -0.165297
6   -0.166029
7   -0.122126
8   -0.141429
9   0.042638
10   0.022145
11   -0.059987
12   -0.231275
13   0.151961
14   0.148302
15   0.146963
16   0.138622
17   0.140589
18   0.14219
19   0.143113
20   0.148941
21   0.151051
22   0.159839
23   0.156822
24   0.173781
25   0.161945
26   0.11703

$$$$

