PCCDB-ID:  21493
public computational chemistry database (PCCDB) project, http://pccdb.org

 34 35  0  0  0  0  0  0  0  0999 V2000
   -2.7618    2.6928   -1.8491 C   0  0  0  0  0  0  0  0  0  0  0  0
   -4.1975   -0.8474    4.5853 C   0  0  0  0  0  0  0  0  0  0  0  0
   -3.5685    2.6032   -0.5456 C   0  0  0  0  0  0  0  0  0  0  0  0
   -2.0021    1.3833   -2.1078 C   0  0  0  0  0  0  0  0  0  0  0  0
   -4.8168   -1.4503    3.3161 C   0  0  0  0  0  0  0  0  0  0  0  0
   -3.4036    0.4231    4.2475 C   0  0  0  0  0  0  0  0  0  0  0  0
   -2.6852    2.1700    0.6378 C   0  0  0  0  0  0  0  0  0  0  0  0
   -1.1549    1.0017   -0.8867 C   0  0  0  0  0  0  0  0  0  0  0  0
   -3.7609   -1.6642    2.2263 C   0  0  0  0  0  0  0  0  0  0  0  0
   -2.3925    0.1493    3.1295 C   0  0  0  0  0  0  0  0  0  0  0  0
   -2.4548   -0.3212    0.6872 C   0  0  0  0  0  0  0  0  0  0  0  0
   -1.9518    0.9313    0.3436 N   0  0  0  0  0  0  0  0  0  0  0  0
   -3.0684   -0.4013    1.9438 N   0  0  0  0  0  0  0  0  0  0  0  0
   -2.3671   -1.2930   -0.0601 O   0  0  0  0  0  0  0  0  0  0  0  0
   -2.0416    3.5218   -1.7729 H   0  0  0  0  0  0  0  0  0  0  0  0
   -3.4237    2.9303   -2.6912 H   0  0  0  0  0  0  0  0  0  0  0  0
   -3.5190   -1.5835    5.0409 H   0  0  0  0  0  0  0  0  0  0  0  0
   -4.9733   -0.6306    5.3297 H   0  0  0  0  0  0  0  0  0  0  0  0
   -4.3791    1.8710   -0.6629 H   0  0  0  0  0  0  0  0  0  0  0  0
   -4.0377    3.5678   -0.3107 H   0  0  0  0  0  0  0  0  0  0  0  0
   -1.3554    1.4789   -2.9896 H   0  0  0  0  0  0  0  0  0  0  0  0
   -2.7075    0.5670   -2.3072 H   0  0  0  0  0  0  0  0  0  0  0  0
   -5.5937   -0.7775    2.9288 H   0  0  0  0  0  0  0  0  0  0  0  0
   -5.3014   -2.4084    3.5421 H   0  0  0  0  0  0  0  0  0  0  0  0
   -2.8738    0.7969    5.1328 H   0  0  0  0  0  0  0  0  0  0  0  0
   -4.0924    1.2146    3.9213 H   0  0  0  0  0  0  0  0  0  0  0  0
   -3.3009    2.0221    1.5247 H   0  0  0  0  0  0  0  0  0  0  0  0
   -1.9536    2.9601    0.8636 H   0  0  0  0  0  0  0  0  0  0  0  0
   -0.3708    1.7569   -0.7278 H   0  0  0  0  0  0  0  0  0  0  0  0
   -0.6762    0.0331   -1.0312 H   0  0  0  0  0  0  0  0  0  0  0  0
   -4.2105   -2.0192    1.2980 H   0  0  0  0  0  0  0  0  0  0  0  0
   -3.0380   -2.4344    2.5457 H   0  0  0  0  0  0  0  0  0  0  0  0
   -1.6409   -0.5762    3.4901 H   0  0  0  0  0  0  0  0  0  0  0  0
   -1.8513    1.0549    2.8539 H   0  0  0  0  0  0  0  0  0  0  0  0
  1 15  1  0  0  0  0
  1  3  1  0  0  0  0
  2 17  1  0  0  0  0
  2 18  1  0  0  0  0
  3 20  1  0  0  0  0
  3  7  1  0  0  0  0
  4  1  1  0  0  0  0
  4  8  1  0  0  0  0
  5 24  1  0  0  0  0
  5  2  1  0  0  0  0
  6  2  1  0  0  0  0
  6 25  1  0  0  0  0
  7 28  1  0  0  0  0
  7 27  1  0  0  0  0
  8 29  1  0  0  0  0
  8 12  1  0  0  0  0
  9 32  1  0  0  0  0
  9  5  1  0  0  0  0
 10 33  1  0  0  0  0
 10  6  1  0  0  0  0
 11 13  1  0  0  0  0
 12  7  1  0  0  0  0
 12 11  1  0  0  0  0
 13  9  1  0  0  0  0
 13 10  1  0  0  0  0
 14 11  2  0  0  0  0
 16  1  1  0  0  0  0
 19  3  1  0  0  0  0
 21  4  1  0  0  0  0
 22  4  1  0  0  0  0
 23  5  1  0  0  0  0
 26  6  1  0  0  0  0
 30  8  1  0  0  0  0
 31  9  1  0  0  0  0
 34 10  1  0  0  0  0
M  END
>  <HBA>
3

>  <HBD>
0

>  <TPSA>
23.55

>  <cid>
21493

>  <dipole>
3.03

>  <excitation_energy_1>
5.394

>  <excitation_energy_2>
5.616

>  <excitation_energy_3>
5.825

>  <excitation_energy_4>
5.861

>  <homo_energy>
-5.97

>  <homo_lumo_gap>
7.129

>  <logP>
1.954

>  <lumo_energy>
1.159

>  <melting_point>
52.27

>  <molecular_refractivity>
64.97

>  <oscillator_strength_1>
0.0465

>  <oscillator_strength_2>
0.0175

>  <oscillator_strength_3>
0.0168

>  <oscillator_strength_4>
0.0048

>  <open_babel_can_smiles>
O=C(N1CCCCC1)N1CCCCC1

>  <mulliken_charges>
34
1   -0.262761
2   -0.266266
3   -0.260514
4   -0.263411
5   -0.264554
6   -0.261745
7   -0.157634
8   -0.138313
9   -0.119431
10   -0.143489
11   0.731553
12   -0.445539
13   -0.464713
14   -0.539357
15   0.125988
16   0.136729
17   0.131793
18   0.136284
19   0.143615
20   0.132471
21   0.131445
22   0.158283
23   0.13678
24   0.135882
25   0.135084
26   0.138715
27   0.1675
28   0.136233
29   0.129197
30   0.17657
31   0.170697
32   0.131635
33   0.135996
34   0.165279

>  <lowdin_charges>
34
1   -0.281122
2   -0.282251
3   -0.287391
4   -0.288562
5   -0.283908
6   -0.284771
7   -0.203698
8   -0.198612
9   -0.195296
10   -0.198992
11   0.176286
12   -0.13934
13   -0.154892
14   -0.32929
15   0.136771
16   0.146934
17   0.140832
18   0.146816
19   0.146675
20   0.146169
21   0.14649
22   0.154469
23   0.144293
24   0.147889
25   0.147988
26   0.142867
27   0.161584
28   0.1396
29   0.137268
30   0.170427
31   0.167262
32   0.133595
33   0.133931
34   0.159979

$$$$

