PCCDB-ID:  62343
public computational chemistry database (PCCDB) project, http://pccdb.org

 30 29  0  0  1  0  0  0  0  0999 V2000
    5.3923    2.1366   -0.1619 C   0  0  0  0  0  0  0  0  0  0  0  0
    4.7634   -5.3391    1.6679 C   0  0  0  0  0  0  0  0  0  0  0  0
    9.0211   -3.9048   -1.4528 C   0  0  0  0  0  0  0  0  0  0  0  0
    4.8248    0.7575   -0.5123 C   0  0  0  0  0  0  0  0  0  0  0  0
    4.4533   -4.1954    0.6965 C   0  0  0  0  0  0  0  0  0  0  0  0
    8.5070   -3.5609   -0.2771 C   0  0  0  0  0  0  0  0  0  0  0  0
    5.2948   -0.3478    0.4424 C   0  0  0  0  0  0  0  0  0  0  0  0
    4.7261   -1.7280    0.0873 C   0  0  0  0  0  0  0  0  0  0  0  0
    5.1456   -2.8598    1.0520 C   0  0  2  0  0  0  0  0  0  0  0  0
    6.6554   -3.0189    1.0936 C   0  0  0  0  0  0  0  0  0  0  0  0
    7.3605   -2.8646    2.0629 O   0  0  0  0  0  0  0  0  0  0  0  0
    7.1423   -3.3727   -0.1426 O   0  0  0  0  0  0  0  0  0  0  0  0
    5.0366    2.9040   -0.8588 H   0  0  0  0  0  0  0  0  0  0  0  0
    6.4885    2.1347   -0.1991 H   0  0  0  0  0  0  0  0  0  0  0  0
    5.0971    2.4419    0.8495 H   0  0  0  0  0  0  0  0  0  0  0  0
    4.2276   -6.2499    1.3788 H   0  0  0  0  0  0  0  0  0  0  0  0
    4.4643   -5.0843    2.6915 H   0  0  0  0  0  0  0  0  0  0  0  0
    5.8332   -5.5772    1.6865 H   0  0  0  0  0  0  0  0  0  0  0  0
   10.0907   -4.0505   -1.5506 H   0  0  0  0  0  0  0  0  0  0  0  0
    8.3997   -4.0473   -2.3309 H   0  0  0  0  0  0  0  0  0  0  0  0
    5.1115    0.4934   -1.5401 H   0  0  0  0  0  0  0  0  0  0  0  0
    3.7262    0.7998   -0.5045 H   0  0  0  0  0  0  0  0  0  0  0  0
    3.3711   -4.0115    0.6807 H   0  0  0  0  0  0  0  0  0  0  0  0
    4.7367   -4.4824   -0.3233 H   0  0  0  0  0  0  0  0  0  0  0  0
    9.0715   -3.4036    0.6345 H   0  0  0  0  0  0  0  0  0  0  0  0
    5.0067   -0.0877    1.4714 H   0  0  0  0  0  0  0  0  0  0  0  0
    6.3935   -0.3839    0.4363 H   0  0  0  0  0  0  0  0  0  0  0  0
    5.0231   -2.0004   -0.9335 H   0  0  0  0  0  0  0  0  0  0  0  0
    3.6284   -1.6794    0.0908 H   0  0  0  0  0  0  0  0  0  0  0  0
    4.8668   -2.5778    2.0744 H   0  0  0  0  0  0  0  0  0  0  0  0
  1 15  1  0  0  0  0
  2 18  1  0  0  0  0
  2 17  1  0  0  0  0
  3  6  2  0  0  0  0
  4 22  1  0  0  0  0
  4  1  1  0  0  0  0
  4  7  1  0  0  0  0
  5  9  1  0  0  0  0
  5  2  1  0  0  0  0
  6 12  1  0  0  0  0
  6 25  1  0  0  0  0
  7 26  1  0  0  0  0
  8 29  1  0  0  0  0
  8  7  1  0  0  0  0
  8  9  1  0  0  0  0
  9 10  1  0  0  0  0
  9 30  1  1  0  0  0
 10 11  2  0  0  0  0
 12 10  1  0  0  0  0
 13  1  1  0  0  0  0
 14  1  1  0  0  0  0
 16  2  1  0  0  0  0
 19  3  1  0  0  0  0
 20  3  1  0  0  0  0
 21  4  1  0  0  0  0
 23  5  1  0  0  0  0
 24  5  1  0  0  0  0
 27  7  1  0  0  0  0
 28  8  1  0  0  0  0
M  END
>  <HBA>
2

>  <HBD>
0

>  <TPSA>
26.3

>  <cid>
62343

>  <dipole>
1.81

>  <excitation_energy_1>
5.497

>  <excitation_energy_2>
5.897

>  <excitation_energy_3>
6.477

>  <excitation_energy_4>
6.787

>  <homo_energy>
-6.746

>  <homo_lumo_gap>
6.501

>  <logP>
2.889

>  <lumo_energy>
-0.245

>  <melting_point>
-37.38

>  <molecular_refractivity>
50.99

>  <oscillator_strength_1>
0.0045

>  <oscillator_strength_2>
0.2901

>  <oscillator_strength_3>
0.0353

>  <oscillator_strength_4>
0.0266

>  <open_babel_can_smiles>
CCCC[C@H](C(=O)OC=C)CC

>  <mulliken_charges>
30
1   -0.442259
2   -0.453253
3   -0.389572
4   -0.248621
5   -0.264899
6   0.153933
7   -0.258516
8   -0.271145
9   -0.166315
10   0.627484
11   -0.472022
12   -0.461511
13   0.142653
14   0.144723
15   0.143059
16   0.147986
17   0.149767
18   0.156678
19   0.154305
20   0.153847
21   0.133104
22   0.130572
23   0.139488
24   0.153328
25   0.182801
26   0.134279
27   0.141762
28   0.150014
29   0.135586
30   0.152744

>  <lowdin_charges>
30
1   -0.44239
2   -0.445255
3   -0.363599
4   -0.268083
5   -0.267515
6   -0.035247
7   -0.274688
8   -0.269605
9   -0.145959
10   0.205675
11   -0.248764
12   -0.159228
13   0.150836
14   0.145916
15   0.146543
16   0.153982
17   0.150194
18   0.15161
19   0.170917
20   0.169337
21   0.139186
22   0.136442
23   0.144572
24   0.149859
25   0.174655
26   0.140518
27   0.141684
28   0.14858
29   0.142666
30   0.157159

$$$$

