PCCDB-ID:  23839
public computational chemistry database (PCCDB) project, http://pccdb.org

 24 26  0  0  0  0  0  0  0  0999 V2000
    1.0341    0.0437   -0.0387 C   0  0  0  0  0  0  0  0  0  0  0  0
    1.6635    4.5554   -0.0418 C   0  0  0  0  0  0  0  0  0  0  0  0
    2.8148    5.3540   -0.0416 C   0  0  0  0  0  0  0  0  0  0  0  0
    4.5467   -1.4413   -0.0446 C   0  0  0  0  0  0  0  0  0  0  0  0
    3.1548   -1.2880   -0.0431 C   0  0  0  0  0  0  0  0  0  0  0  0
    1.7578    3.1673   -0.0418 C   0  0  0  0  0  0  0  0  0  0  0  0
    4.0752    4.7644   -0.0410 C   0  0  0  0  0  0  0  0  0  0  0  0
    5.3741   -0.3259   -0.0436 C   0  0  0  0  0  0  0  0  0  0  0  0
    2.5423   -0.0334   -0.0407 C   0  0  0  0  0  0  0  0  0  0  0  0
    3.0174    2.5380   -0.0409 C   0  0  0  0  0  0  0  0  0  0  0  0
    4.1643    3.3714   -0.0409 C   0  0  0  0  0  0  0  0  0  0  0  0
    4.7766    0.9353   -0.0419 C   0  0  0  0  0  0  0  0  0  0  0  0
    3.3713    1.1172   -0.0406 C   0  0  0  0  0  0  0  0  0  0  0  0
    5.6693    2.4563   -0.0413 S   0  0  0  0  0  0  0  0  0  0  0  0
    0.6003   -0.9608   -0.0320 H   0  0  0  0  0  0  0  0  0  0  0  0
    0.6501    0.5639   -0.9249 H   0  0  0  0  0  0  0  0  0  0  0  0
    0.6530    0.5742    0.8424 H   0  0  0  0  0  0  0  0  0  0  0  0
    0.6828    5.0229   -0.0431 H   0  0  0  0  0  0  0  0  0  0  0  0
    2.7266    6.4368   -0.0413 H   0  0  0  0  0  0  0  0  0  0  0  0
    4.9798   -2.4378   -0.0460 H   0  0  0  0  0  0  0  0  0  0  0  0
    2.5249   -2.1739   -0.0432 H   0  0  0  0  0  0  0  0  0  0  0  0
    0.8494    2.5798   -0.0420 H   0  0  0  0  0  0  0  0  0  0  0  0
    4.9737    5.3747   -0.0413 H   0  0  0  0  0  0  0  0  0  0  0  0
    6.4552   -0.4291   -0.0448 H   0  0  0  0  0  0  0  0  0  0  0  0
  1 15  1  0  0  0  0
  1 17  1  0  0  0  0
  2  6  2  0  0  0  0
  2  3  1  0  0  0  0
  3 19  1  0  0  0  0
  3  7  2  0  0  0  0
  4  8  2  0  0  0  0
  4  5  1  0  0  0  0
  5  9  2  0  0  0  0
  6 10  1  0  0  0  0
  7 11  1  0  0  0  0
  8 12  1  0  0  0  0
  9 13  1  0  0  0  0
  9  1  1  0  0  0  0
 10 13  1  0  0  0  0
 11 10  2  0  0  0  0
 12 14  1  0  0  0  0
 12 13  2  0  0  0  0
 14 11  1  0  0  0  0
 16  1  1  0  0  0  0
 18  2  1  0  0  0  0
 20  4  1  0  0  0  0
 21  5  1  0  0  0  0
 22  6  1  0  0  0  0
 23  7  1  0  0  0  0
 24  8  1  0  0  0  0
M  END
>  <HBA>
1

>  <HBD>
0

>  <TPSA>
28.24

>  <cid>
23839

>  <dipole>
1.17

>  <excitation_energy_1>
4.093

>  <excitation_energy_2>
4.574

>  <excitation_energy_3>
4.805

>  <excitation_energy_4>
4.935

>  <homo_energy>
-5.723

>  <homo_lumo_gap>
4.833

>  <logP>
4.363

>  <lumo_energy>
-0.89

>  <melting_point>
97.06

>  <molecular_refractivity>
64.3

>  <oscillator_strength_1>
0.0368

>  <oscillator_strength_2>
0.0899

>  <oscillator_strength_3>
0.0001

>  <oscillator_strength_4>
0.0221

>  <open_babel_can_smiles>
Cc1cccc2c1c1ccccc1s2

>  <mulliken_charges>
24
1   -0.542427
2   -0.14689
3   -0.114811
4   -0.107705
5   -0.21092
6   -0.176387
7   -0.182851
8   -0.186614
9   0.162672
10   0.107329
11   -0.141144
12   -0.141087
13   0.04544
14   0.207436
15   0.157251
16   0.16869
17   0.168673
18   0.130316
19   0.132413
20   0.131915
21   0.123056
22   0.13402
23   0.141256
24   0.140368

>  <lowdin_charges>
24
1   -0.443597
2   -0.164035
3   -0.150354
4   -0.151115
5   -0.176484
6   -0.16299
7   -0.165293
8   -0.166876
9   0.00675
10   -0.017811
11   -0.125472
12   -0.123857
13   -0.02937
14   0.260793
15   0.158143
16   0.162519
17   0.162518
18   0.158548
19   0.158382
20   0.15999
21   0.156291
22   0.165149
23   0.165406
24   0.162764

$$$$

