PCCDB-ID:  22552
public computational chemistry database (PCCDB) project, http://pccdb.org

 23 24  0  0  0  0  0  0  0  0999 V2000
   -2.5506   -0.9979   -0.2808 C   0  0  0  0  0  0  0  0  0  0  0  0
   -2.7268    0.3706   -0.0759 C   0  0  0  0  0  0  0  0  0  0  0  0
    2.3153   -0.8762   -0.6495 C   0  0  0  0  0  0  0  0  0  0  0  0
    2.7999    0.5372   -0.3043 C   0  0  0  0  0  0  0  0  0  0  0  0
   -1.2737   -1.5522   -0.1806 C   0  0  0  0  0  0  0  0  0  0  0  0
    1.2135   -1.4049    0.2909 C   0  0  0  0  0  0  0  0  0  0  0  0
   -1.6231    1.1736    0.2095 C   0  0  0  0  0  0  0  0  0  0  0  0
    1.7188    1.6128   -0.3707 C   0  0  0  0  0  0  0  0  0  0  0  0
   -0.1505   -0.7704    0.1186 C   0  0  0  0  0  0  0  0  0  0  0  0
   -0.3482    0.6106    0.2992 C   0  0  0  0  0  0  0  0  0  0  0  0
    0.6950    1.4541    0.6225 O   0  0  0  0  0  0  0  0  0  0  0  0
   -3.4016   -1.6334   -0.5103 H   0  0  0  0  0  0  0  0  0  0  0  0
   -3.7161    0.8150   -0.1460 H   0  0  0  0  0  0  0  0  0  0  0  0
    3.1719   -1.5608   -0.5992 H   0  0  0  0  0  0  0  0  0  0  0  0
    1.9530   -0.9040   -1.6866 H   0  0  0  0  0  0  0  0  0  0  0  0
    3.6078    0.8285   -0.9904 H   0  0  0  0  0  0  0  0  0  0  0  0
    3.2273    0.5418    0.7077 H   0  0  0  0  0  0  0  0  0  0  0  0
   -1.1406   -2.6224   -0.3252 H   0  0  0  0  0  0  0  0  0  0  0  0
    1.5483   -1.2616    1.3290 H   0  0  0  0  0  0  0  0  0  0  0  0
    1.1104   -2.4867    0.1462 H   0  0  0  0  0  0  0  0  0  0  0  0
   -1.7257    2.2427    0.3691 H   0  0  0  0  0  0  0  0  0  0  0  0
    1.2574    1.6428   -1.3681 H   0  0  0  0  0  0  0  0  0  0  0  0
    2.1573    2.5958   -0.1697 H   0  0  0  0  0  0  0  0  0  0  0  0
  1  5  2  0  0  0  0
  1  2  1  0  0  0  0
  2  7  2  0  0  0  0
  3 14  1  0  0  0  0
  3  4  1  0  0  0  0
  3  6  1  0  0  0  0
  4 17  1  0  0  0  0
  5  9  1  0  0  0  0
  6 19  1  0  0  0  0
  7 10  1  0  0  0  0
  7 21  1  0  0  0  0
  8  4  1  0  0  0  0
  8 23  1  0  0  0  0
  8 11  1  0  0  0  0
  9  6  1  0  0  0  0
  9 10  2  0  0  0  0
 10 11  1  0  0  0  0
 12  1  1  0  0  0  0
 13  2  1  0  0  0  0
 15  3  1  0  0  0  0
 16  4  1  0  0  0  0
 18  5  1  0  0  0  0
 20  6  1  0  0  0  0
 22  8  1  0  0  0  0
M  END
>  <HBA>
1

>  <HBD>
0

>  <TPSA>
9.23

>  <cid>
22552

>  <dipole>
1.45

>  <excitation_energy_1>
5.125

>  <excitation_energy_2>
5.66

>  <excitation_energy_3>
5.783

>  <excitation_energy_4>
6.035

>  <homo_energy>
-6.098

>  <homo_lumo_gap>
6.221

>  <logP>
2.402

>  <lumo_energy>
0.122

>  <melting_point>
34.51

>  <molecular_refractivity>
45.4

>  <oscillator_strength_1>
0.0142

>  <oscillator_strength_2>
0.0295

>  <oscillator_strength_3>
0.0156

>  <oscillator_strength_4>
0.0515

>  <open_babel_can_smiles>
C1COc2c(CC1)cccc2

>  <mulliken_charges>
23
1   -0.121312
2   -0.143088
3   -0.2599
4   -0.266745
5   -0.209921
6   -0.342813
7   -0.162471
8   -0.039255
9   0.158487
10   0.282662
11   -0.530186
12   0.124882
13   0.128472
14   0.13634
15   0.136685
16   0.13289
17   0.144366
18   0.122321
19   0.155466
20   0.139148
21   0.133286
22   0.133512
23   0.147175

>  <lowdin_charges>
23
1   -0.169335
2   -0.15577
3   -0.275294
4   -0.291404
5   -0.161419
6   -0.26953
7   -0.174759
8   -0.125096
9   -0.03127
10   0.085151
11   -0.233464
12   0.157392
13   0.15706
14   0.14741
15   0.141013
16   0.149542
17   0.146735
18   0.152022
19   0.154197
20   0.148263
21   0.162568
22   0.136067
23   0.14992

$$$$

