PCCDB-ID:  72734
public computational chemistry database (PCCDB) project, http://pccdb.org

 30 32  0  0  0  0  0  0  0  0999 V2000
    0.9672   -0.0398   -0.0702 C   0  0  0  0  0  0  0  0  0  0  0  0
    3.1097   -0.0488   -1.4231 C   0  0  0  0  0  0  0  0  0  0  0  0
    6.5886    2.3341    5.8390 C   0  0  0  0  0  0  0  0  0  0  0  0
    6.1772    3.5352    5.2528 C   0  0  0  0  0  0  0  0  0  0  0  0
    6.1966    1.1143    5.2879 C   0  0  0  0  0  0  0  0  0  0  0  0
    5.3726    3.5171    4.1146 C   0  0  0  0  0  0  0  0  0  0  0  0
    3.6866   -1.4597    1.7619 C   0  0  0  0  0  0  0  0  0  0  0  0
    2.9239   -1.4385    0.6623 C   0  0  0  0  0  0  0  0  0  0  0  0
    5.3911    1.0882    4.1474 C   0  0  0  0  0  0  0  0  0  0  0  0
    4.9766    2.2971    3.5579 C   0  0  0  0  0  0  0  0  0  0  0  0
    4.1320   -0.2115    2.3639 C   0  0  0  0  0  0  0  0  0  0  0  0
    4.9778   -0.2275    3.5682 C   0  0  0  0  0  0  0  0  0  0  0  0
    4.1170    2.3009    2.3408 C   0  0  0  0  0  0  0  0  0  0  0  0
    3.7300    0.9611    1.7940 C   0  0  0  0  0  0  0  0  0  0  0  0
    2.4951   -0.1600   -0.0221 C   0  0  0  0  0  0  0  0  0  0  0  0
    5.3311   -1.2876    4.0814 O   0  0  0  0  0  0  0  0  0  0  0  0
    3.7396    3.3319    1.8038 O   0  0  0  0  0  0  0  0  0  0  0  0
    2.9551    1.0383    0.7097 O   0  0  0  0  0  0  0  0  0  0  0  0
    0.5404   -0.8571   -0.6622 H   0  0  0  0  0  0  0  0  0  0  0  0
    0.6780    0.9118   -0.5280 H   0  0  0  0  0  0  0  0  0  0  0  0
    0.5465   -0.0865    0.9386 H   0  0  0  0  0  0  0  0  0  0  0  0
    2.7612   -0.8717   -2.0573 H   0  0  0  0  0  0  0  0  0  0  0  0
    4.2015   -0.0943   -1.3675 H   0  0  0  0  0  0  0  0  0  0  0  0
    2.8206    0.8990   -1.8893 H   0  0  0  0  0  0  0  0  0  0  0  0
    7.2152    2.3498    6.7267 H   0  0  0  0  0  0  0  0  0  0  0  0
    6.4843    4.4841    5.6835 H   0  0  0  0  0  0  0  0  0  0  0  0
    6.5026    0.1692    5.7247 H   0  0  0  0  0  0  0  0  0  0  0  0
    5.0397    4.4350    3.6408 H   0  0  0  0  0  0  0  0  0  0  0  0
    3.9925   -2.3849    2.2383 H   0  0  0  0  0  0  0  0  0  0  0  0
    2.5768   -2.3585    0.1981 H   0  0  0  0  0  0  0  0  0  0  0  0
  1 15  1  0  0  0  0
  1 21  1  0  0  0  0
  2 23  1  0  0  0  0
  2 15  1  0  0  0  0
  3 25  1  0  0  0  0
  4 26  1  0  0  0  0
  4  3  2  0  0  0  0
  5 27  1  0  0  0  0
  5  3  1  0  0  0  0
  6  4  1  0  0  0  0
  7 29  1  0  0  0  0
  7 11  1  0  0  0  0
  8  7  2  0  0  0  0
  9  5  2  0  0  0  0
 10  6  2  0  0  0  0
 10  9  1  0  0  0  0
 11 12  1  0  0  0  0
 12 16  2  0  0  0  0
 12  9  1  0  0  0  0
 13 10  1  0  0  0  0
 14 13  1  0  0  0  0
 14 11  2  0  0  0  0
 15  8  1  0  0  0  0
 15 18  1  0  0  0  0
 17 13  2  0  0  0  0
 18 14  1  0  0  0  0
 19  1  1  0  0  0  0
 20  1  1  0  0  0  0
 22  2  1  0  0  0  0
 24  2  1  0  0  0  0
 28  6  1  0  0  0  0
 30  8  1  0  0  0  0
M  END
>  <HBA>
3

>  <HBD>
0

>  <TPSA>
43.37

>  <cid>
72734

>  <dipole>
0.9

>  <excitation_energy_1>
2.44

>  <excitation_energy_2>
2.864

>  <excitation_energy_3>
3.096

>  <excitation_energy_4>
3.667

>  <homo_energy>
-5.932

>  <homo_lumo_gap>
3.064

>  <logP>
2.685

>  <lumo_energy>
-2.868

>  <melting_point>
144.44

>  <molecular_refractivity>
66.81

>  <oscillator_strength_1>
0.022

>  <oscillator_strength_2>
0.0

>  <oscillator_strength_3>
0.0

>  <oscillator_strength_4>
0.0463

>  <open_babel_can_smiles>
O=C1C2=C(C=CC(O2)(C)C)C(=O)c2c1cccc2

>  <mulliken_charges>
30
1   -0.444908
2   -0.442678
3   -0.125228
4   -0.1255
5   -0.176547
6   -0.175004
7   -0.119091
8   -0.160494
9   0.055443
10   0.043441
11   0.034795
12   0.340864
13   0.361128
14   0.256426
15   0.269412
16   -0.489277
17   -0.459799
18   -0.532007
19   0.148027
20   0.167442
21   0.163255
22   0.148277
23   0.162627
24   0.166824
25   0.144559
26   0.144166
27   0.167782
28   0.167406
29   0.165613
30   0.143045

>  <lowdin_charges>
30
1   -0.44702
2   -0.44637
3   -0.137565
4   -0.142938
5   -0.130697
6   -0.128636
7   -0.149736
8   -0.169198
9   -0.034765
10   -0.040628
11   -0.090837
12   0.149945
13   0.141647
14   0.094686
15   0.145884
16   -0.251624
17   -0.213946
18   -0.150964
19   0.157885
20   0.164464
21   0.161363
22   0.15809
23   0.159793
24   0.164036
25   0.164934
26   0.165136
27   0.179612
28   0.179194
29   0.180689
30   0.167568

$$$$

