PCCDB-ID:  15389
public computational chemistry database (PCCDB) project, http://pccdb.org

 20 19  0  0  0  0  0  0  0  0999 V2000
    0.5221    0.3014   -1.6201 C   0  0  0  0  0  0  0  0  0  0  0  0
    1.7975   -0.0818   -0.8628 C   0  0  0  0  0  0  0  0  0  0  0  0
    2.8997    0.9794   -0.9841 C   0  0  0  0  0  0  0  0  0  0  0  0
    4.1596    0.5883   -0.2287 C   0  0  0  0  0  0  0  0  0  0  0  0
    6.3991    1.0986    1.6680 O   0  0  0  0  0  0  0  0  0  0  0  0
    7.2105    0.1429   -0.5078 O   0  0  0  0  0  0  0  0  0  0  0  0
    7.4745    2.7042   -0.1471 O   0  0  0  0  0  0  0  0  0  0  0  0
    5.1279    1.6575   -0.3885 O   0  0  0  0  0  0  0  0  0  0  0  0
    6.6303    1.5266    0.1265 P   0  0  0  0  0  0  0  0  0  0  0  0
   -0.2482   -0.4705   -1.5158 H   0  0  0  0  0  0  0  0  0  0  0  0
    0.7214    0.4332   -2.6904 H   0  0  0  0  0  0  0  0  0  0  0  0
    0.1054    1.2428   -1.2423 H   0  0  0  0  0  0  0  0  0  0  0  0
    2.1717   -1.0439   -1.2403 H   0  0  0  0  0  0  0  0  0  0  0  0
    1.5589   -0.2416    0.1981 H   0  0  0  0  0  0  0  0  0  0  0  0
    2.5405    1.9417   -0.5974 H   0  0  0  0  0  0  0  0  0  0  0  0
    3.1542    1.1398   -2.0397 H   0  0  0  0  0  0  0  0  0  0  0  0
    4.5884   -0.3405   -0.6221 H   0  0  0  0  0  0  0  0  0  0  0  0
    3.9609    0.4566    0.8403 H   0  0  0  0  0  0  0  0  0  0  0  0
    7.2382    1.0678    2.1559 H   0  0  0  0  0  0  0  0  0  0  0  0
    7.8044    0.3597   -1.2458 H   0  0  0  0  0  0  0  0  0  0  0  0
  1 10  1  0  0  0  0
  1 12  1  0  0  0  0
  1  2  1  0  0  0  0
  2 14  1  0  0  0  0
  3  2  1  0  0  0  0
  3 15  1  0  0  0  0
  3  4  1  0  0  0  0
  4 18  1  0  0  0  0
  5 19  1  0  0  0  0
  6  9  1  0  0  0  0
  7  9  2  0  0  0  0
  8  4  1  0  0  0  0
  8  9  1  0  0  0  0
  9  5  1  0  0  0  0
 11  1  1  0  0  0  0
 13  2  1  0  0  0  0
 16  3  1  0  0  0  0
 17  4  1  0  0  0  0
 20  6  1  0  0  0  0
M  END
>  <HBA>
4

>  <HBD>
2

>  <TPSA>
76.57

>  <cid>
15389

>  <dipole>
3.24

>  <excitation_energy_1>
6.779

>  <excitation_energy_2>
6.946

>  <excitation_energy_3>
7.337

>  <excitation_energy_4>
7.813

>  <homo_energy>
-7.927

>  <homo_lumo_gap>
8.787

>  <logP>
0.896

>  <lumo_energy>
0.86

>  <melting_point>
54.49

>  <molecular_refractivity>
33.41

>  <oscillator_strength_1>
0.0216

>  <oscillator_strength_2>
0.0182

>  <oscillator_strength_3>
0.0057

>  <oscillator_strength_4>
0.0059

>  <open_babel_can_smiles>
CCCCOP(=O)(O)O

>  <mulliken_charges>
20
1   -0.441059
2   -0.261432
3   -0.268983
4   -0.042148
5   -0.652229
6   -0.663122
7   -0.535679
8   -0.508069
9   1.150917
10   0.1466
11   0.146407
12   0.14749
13   0.136075
14   0.13761
15   0.154296
16   0.149518
17   0.158834
18   0.16468
19   0.441402
20   0.43889

>  <lowdin_charges>
20
1   -0.441238
2   -0.271014
3   -0.278933
4   -0.117122
5   -0.567928
6   -0.581564
7   -0.579479
8   -0.385997
9   1.113961
10   0.152643
11   0.14749
12   0.149769
13   0.141208
14   0.140692
15   0.152925
16   0.149293
17   0.151702
18   0.152247
19   0.385695
20   0.38565

$$$$

