PCCDB-ID:  12127
public computational chemistry database (PCCDB) project, http://pccdb.org

 19 19  0  0  0  0  0  0  0  0999 V2000
    3.0922    1.1636   -0.3874 C   0  0  0  0  0  0  0  0  0  0  0  0
    4.1392   -2.1712    2.8539 C   0  0  0  0  0  0  0  0  0  0  0  0
    3.4201   -1.6518    1.7826 C   0  0  0  0  0  0  0  0  0  0  0  0
    4.8221    0.0717    3.4553 C   0  0  0  0  0  0  0  0  0  0  0  0
    5.6338   -1.8427    4.8254 C   0  0  0  0  0  0  0  0  0  0  0  0
    4.8543   -1.3103    3.6937 C   0  0  0  0  0  0  0  0  0  0  0  0
    4.0889    0.5987    2.4008 C   0  0  0  0  0  0  0  0  0  0  0  0
    3.3883   -0.2754    1.5319 C   0  0  0  0  0  0  0  0  0  0  0  0
    6.2888   -1.1666    5.5989 O   0  0  0  0  0  0  0  0  0  0  0  0
    3.9971    1.9469    2.1732 O   0  0  0  0  0  0  0  0  0  0  0  0
    2.6154    0.1354    0.4901 O   0  0  0  0  0  0  0  0  0  0  0  0
    2.4657    1.0934   -1.2791 H   0  0  0  0  0  0  0  0  0  0  0  0
    4.1386    0.9871   -0.6632 H   0  0  0  0  0  0  0  0  0  0  0  0
    2.9975    2.1539    0.0612 H   0  0  0  0  0  0  0  0  0  0  0  0
    4.1561   -3.2433    3.0332 H   0  0  0  0  0  0  0  0  0  0  0  0
    2.8645   -2.2946    1.1074 H   0  0  0  0  0  0  0  0  0  0  0  0
    5.3725    0.7247    4.1298 H   0  0  0  0  0  0  0  0  0  0  0  0
    5.5872   -2.9488    4.9383 H   0  0  0  0  0  0  0  0  0  0  0  0
    4.5221    2.4077    2.8464 H   0  0  0  0  0  0  0  0  0  0  0  0
  1 14  1  0  0  0  0
  1 11  1  0  0  0  0
  2 15  1  0  0  0  0
  2  6  2  0  0  0  0
  3  2  1  0  0  0  0
  4  6  1  0  0  0  0
  4 17  1  0  0  0  0
  5 18  1  0  0  0  0
  5  9  2  0  0  0  0
  6  5  1  0  0  0  0
  7  4  2  0  0  0  0
  8  3  2  0  0  0  0
  8  7  1  0  0  0  0
 10  7  1  0  0  0  0
 10 19  1  0  0  0  0
 11  8  1  0  0  0  0
 12  1  1  0  0  0  0
 13  1  1  0  0  0  0
 16  3  1  0  0  0  0
M  END
>  <HBA>
3

>  <HBD>
1

>  <TPSA>
46.53

>  <cid>
12127

>  <dipole>
2.67

>  <excitation_energy_1>
3.76

>  <excitation_energy_2>
4.182

>  <excitation_energy_3>
4.606

>  <excitation_energy_4>
5.326

>  <homo_energy>
-6.161

>  <homo_lumo_gap>
4.618

>  <logP>
1.213

>  <lumo_energy>
-1.543

>  <melting_point>
84.17

>  <molecular_refractivity>
40.34

>  <oscillator_strength_1>
0.0001

>  <oscillator_strength_2>
0.1619

>  <oscillator_strength_3>
0.1799

>  <oscillator_strength_4>
0.0002

>  <open_babel_can_smiles>
O=Cc1ccc(c(c1)O)OC

>  <mulliken_charges>
19
1   -0.212296
2   -0.188834
3   -0.183384
4   -0.250308
5   0.187246
6   0.098134
7   0.328741
8   0.350235
9   -0.417824
10   -0.64906
11   -0.513157
12   0.163205
13   0.149577
14   0.179342
15   0.139655
16   0.147599
17   0.153206
18   0.10139
19   0.416532

>  <lowdin_charges>
19
1   -0.272831
2   -0.150892
3   -0.173399
4   -0.18239
5   0.047134
6   -0.060549
7   0.073093
8   0.091368
9   -0.240252
10   -0.379826
11   -0.202509
12   0.158631
13   0.145736
14   0.158793
15   0.161814
16   0.173222
17   0.173283
18   0.114549
19   0.365025

$$$$

