PCCDB-ID:  17685
public computational chemistry database (PCCDB) project, http://pccdb.org

 37 38  0  0  1  0  0  0  0  0999 V2000
    3.9287   -5.1408    1.4566 C   0  0  0  0  0  0  0  0  0  0  0  0
    7.6176   -5.1418   -3.5818 C   0  0  0  0  0  0  0  0  0  0  0  0
    8.4956   -3.4785   -5.1769 C   0  0  0  0  0  0  0  0  0  0  0  0
    5.7166   -4.8447   -6.1859 C   0  0  0  0  0  0  0  0  0  0  0  0
    5.0993   -4.8662    0.5147 C   0  0  0  0  0  0  0  0  0  0  0  0
    6.4410   -1.5431   -4.3613 C   0  0  0  0  0  0  0  0  0  0  0  0
    5.7884   -2.3460   -5.5302 C   0  0  0  0  0  0  0  0  0  0  0  0
    4.8857   -3.9837   -3.8995 C   0  0  0  0  0  0  0  0  0  0  0  0
    6.8377   -2.6545   -3.3549 C   0  0  1  0  0  0  0  0  0  0  0  0
    5.5038   -3.1364   -2.7535 C   0  0  2  0  0  0  0  0  0  0  0  0
    4.6900   -4.0898   -0.7239 C   0  0  0  0  0  0  0  0  0  0  0  0
    7.2764   -3.8210   -4.2980 C   0  0  0  0  0  0  0  0  0  0  0  0
    5.8996   -3.8267   -5.0675 C   0  0  1  0  0  0  0  0  0  0  0  0
    3.5726   -3.6800   -0.9569 O   0  0  0  0  0  0  0  0  0  0  0  0
    5.7497   -3.9031   -1.5450 O   0  0  0  0  0  0  0  0  0  0  0  0
    4.2697   -5.6917    2.3393 H   0  0  0  0  0  0  0  0  0  0  0  0
    3.1536   -5.7315    0.9590 H   0  0  0  0  0  0  0  0  0  0  0  0
    3.4654   -4.2071    1.7884 H   0  0  0  0  0  0  0  0  0  0  0  0
    8.5299   -5.0206   -2.9850 H   0  0  0  0  0  0  0  0  0  0  0  0
    7.8149   -5.9316   -4.3173 H   0  0  0  0  0  0  0  0  0  0  0  0
    6.8381   -5.4930   -2.9062 H   0  0  0  0  0  0  0  0  0  0  0  0
    9.3871   -3.3503   -4.5506 H   0  0  0  0  0  0  0  0  0  0  0  0
    8.3799   -2.5692   -5.7708 H   0  0  0  0  0  0  0  0  0  0  0  0
    8.7072   -4.2992   -5.8730 H   0  0  0  0  0  0  0  0  0  0  0  0
    4.7299   -4.7387   -6.6540 H   0  0  0  0  0  0  0  0  0  0  0  0
    5.7938   -5.8731   -5.8133 H   0  0  0  0  0  0  0  0  0  0  0  0
    6.4682   -4.7142   -6.9737 H   0  0  0  0  0  0  0  0  0  0  0  0
    5.5772   -5.7979    0.1858 H   0  0  0  0  0  0  0  0  0  0  0  0
    5.8903   -4.2951    1.0183 H   0  0  0  0  0  0  0  0  0  0  0  0
    5.7559   -0.8151   -3.9138 H   0  0  0  0  0  0  0  0  0  0  0  0
    7.3199   -0.9849   -4.6959 H   0  0  0  0  0  0  0  0  0  0  0  0
    6.3194   -2.1858   -6.4747 H   0  0  0  0  0  0  0  0  0  0  0  0
    4.7440   -2.0636   -5.7041 H   0  0  0  0  0  0  0  0  0  0  0  0
    3.8829   -3.6387   -4.1710 H   0  0  0  0  0  0  0  0  0  0  0  0
    4.7909   -5.0284   -3.5875 H   0  0  0  0  0  0  0  0  0  0  0  0
    7.5635   -2.3414   -2.5982 H   0  0  0  0  0  0  0  0  0  0  0  0
    4.8593   -2.3028   -2.4674 H   0  0  0  0  0  0  0  0  0  0  0  0
  1 18  1  0  0  0  0
  1 16  1  0  0  0  0
  2 19  1  0  0  0  0
  2 21  1  0  0  0  0
  3 22  1  0  0  0  0
  3 12  1  0  0  0  0
  4 26  1  0  0  0  0
  5 29  1  0  0  0  0
  5  1  1  0  0  0  0
  6 30  1  0  0  0  0
  6  9  1  0  0  0  0
  7 13  1  0  0  0  0
  7  6  1  0  0  0  0
  8 35  1  0  0  0  0
  8 10  1  0  0  0  0
  9 10  1  0  0  0  0
  9 36  1  1  0  0  0
 10 37  1  1  0  0  0
 10 15  1  0  0  0  0
 11  5  1  0  0  0  0
 12  2  1  0  0  0  0
 12  9  1  0  0  0  0
 13  4  1  6  0  0  0
 13 12  1  0  0  0  0
 13  8  1  0  0  0  0
 14 11  2  0  0  0  0
 15 11  1  0  0  0  0
 17  1  1  0  0  0  0
 20  2  1  0  0  0  0
 23  3  1  0  0  0  0
 24  3  1  0  0  0  0
 25  4  1  0  0  0  0
 27  4  1  0  0  0  0
 28  5  1  0  0  0  0
 31  6  1  0  0  0  0
 32  7  1  0  0  0  0
 33  7  1  0  0  0  0
 34  8  1  0  0  0  0
M  END
>  <HBA>
2

>  <HBD>
0

>  <TPSA>
26.3

>  <cid>
17685

>  <dipole>
1.81

>  <excitation_energy_1>
5.795

>  <excitation_energy_2>
6.797

>  <excitation_energy_3>
7.087

>  <excitation_energy_4>
7.148

>  <homo_energy>
-7.181

>  <homo_lumo_gap>
7.679

>  <logP>
3.154

>  <lumo_energy>
0.498

>  <melting_point>
63.76

>  <molecular_refractivity>
61.14

>  <oscillator_strength_1>
0.0008

>  <oscillator_strength_2>
0.0196

>  <oscillator_strength_3>
0.006

>  <oscillator_strength_4>
0.0152

>  <open_babel_can_smiles>
CCC(=O)O[C@@H]1C[C@@]2(C([C@H]1CC2)(C)C)C

>  <mulliken_charges>
37
1   -0.434916
2   -0.466555
3   -0.467283
4   -0.476556
5   -0.355958
6   -0.291155
7   -0.287667
8   -0.305502
9   -0.124097
10   0.14425
11   0.625431
12   0.095165
13   0.092958
14   -0.480305
15   -0.492351
16   0.141674
17   0.160669
18   0.162888
19   0.139402
20   0.1364
21   0.158336
22   0.141853
23   0.144499
24   0.143249
25   0.14403
26   0.143249
27   0.142304
28   0.169952
29   0.171609
30   0.137796
31   0.144203
32   0.13693
33   0.134298
34   0.1487
35   0.14707
36   0.121212
37   0.154221

>  <lowdin_charges>
37
1   -0.441498
2   -0.452893
3   -0.447805
4   -0.442756
5   -0.302069
6   -0.28724
7   -0.2863
8   -0.289916
9   -0.142172
10   0.00083
11   0.194404
12   0.00312
13   0.002442
14   -0.266683
15   -0.193991
16   0.151744
17   0.159677
18   0.160004
19   0.150069
20   0.146507
21   0.156801
22   0.150586
23   0.150775
24   0.15046
25   0.15142
26   0.148617
27   0.14987
28   0.167306
29   0.169321
30   0.146797
31   0.149384
32   0.143708
33   0.143276
34   0.152961
35   0.15244
36   0.146872
37   0.153934

$$$$

