PCCDB-ID:  66082
public computational chemistry database (PCCDB) project, http://pccdb.org

 17 16  0  0  0  0  0  0  0  0999 V2000
    3.3077   -0.7587   -0.1378 C   0  0  0  0  0  0  0  0  0  0  0  0
    2.3059   -0.9022   -4.2285 C   0  0  0  0  0  0  0  0  0  0  0  0
    2.6045   -0.0302   -3.0051 C   0  0  0  0  0  0  0  0  0  0  0  0
    4.2165   -0.6041   -1.3408 C   0  0  0  0  0  0  0  0  0  0  0  0
    2.3254   -2.3175   -3.8450 N   0  0  0  0  0  0  0  0  0  0  0  0
    3.9505   -0.2903   -2.5371 N   0  0  0  0  0  0  0  0  0  0  0  0
    5.5425   -0.8266   -1.0604 O   0  0  0  0  0  0  0  0  0  0  0  0
    2.2537   -0.6549   -0.3945 H   0  0  0  0  0  0  0  0  0  0  0  0
    3.5537   -0.0031    0.6192 H   0  0  0  0  0  0  0  0  0  0  0  0
    3.4472   -1.7473    0.3173 H   0  0  0  0  0  0  0  0  0  0  0  0
    3.0247   -0.6410   -5.0240 H   0  0  0  0  0  0  0  0  0  0  0  0
    1.3017   -0.6570   -4.5962 H   0  0  0  0  0  0  0  0  0  0  0  0
    1.8179   -0.2048   -2.2556 H   0  0  0  0  0  0  0  0  0  0  0  0
    2.5466    1.0247   -3.3081 H   0  0  0  0  0  0  0  0  0  0  0  0
    3.2800   -2.5565   -3.5769 H   0  0  0  0  0  0  0  0  0  0  0  0
    2.1083   -2.8951   -4.6558 H   0  0  0  0  0  0  0  0  0  0  0  0
    5.6313   -1.0749   -0.1277 H   0  0  0  0  0  0  0  0  0  0  0  0
  1 10  1  0  0  0  0
  1  9  1  0  0  0  0
  2  5  1  0  0  0  0
  2  3  1  0  0  0  0
  3  6  1  0  0  0  0
  3 13  1  0  0  0  0
  4  7  1  0  0  0  0
  4  1  1  0  0  0  0
  5 15  1  0  0  0  0
  6  4  2  0  0  0  0
  7 17  1  0  0  0  0
  8  1  1  0  0  0  0
 11  2  1  0  0  0  0
 12  2  1  0  0  0  0
 14  3  1  0  0  0  0
 16  5  1  0  0  0  0
M  END
>  <HBA>
3

>  <HBD>
2

>  <TPSA>
55.12

>  <cid>
66082

>  <dipole>
2.24

>  <excitation_energy_1>
5.573

>  <excitation_energy_2>
5.71

>  <excitation_energy_3>
5.828

>  <excitation_energy_4>
5.899

>  <homo_energy>
-6.106

>  <homo_lumo_gap>
6.871

>  <logP>
0.172

>  <lumo_energy>
0.765

>  <melting_point>
77.58

>  <molecular_refractivity>
27.05

>  <oscillator_strength_1>
0.0039

>  <oscillator_strength_2>
0.0071

>  <oscillator_strength_3>
0.0041

>  <oscillator_strength_4>
0.0056

>  <open_babel_can_smiles>
C/C(=N\CCN)/O

>  <mulliken_charges>
17
1   -0.554095
2   -0.129185
3   -0.139719
4   0.491475
5   -0.725714
6   -0.417348
7   -0.580061
8   0.189379
9   0.173372
10   0.169442
11   0.126651
12   0.131383
13   0.124005
14   0.140681
15   0.304136
16   0.293735
17   0.401863

>  <lowdin_charges>
17
1   -0.481163
2   -0.20756
3   -0.201543
4   0.129383
5   -0.564723
6   -0.207848
7   -0.375262
8   0.175216
9   0.168985
10   0.166272
11   0.126313
12   0.140031
13   0.128012
14   0.145555
15   0.2548
16   0.253556
17   0.349976

$$$$

