PCCDB-ID:  70506
public computational chemistry database (PCCDB) project, http://pccdb.org

 23 24  0  0  1  0  0  0  0  0999 V2000
    2.1011   -1.2254    0.1442 C   0  0  0  0  0  0  0  0  0  0  0  0
    7.0660    1.3123   -0.7430 C   0  0  0  0  0  0  0  0  0  0  0  0
    6.5761    0.0045   -0.8209 C   0  0  0  0  0  0  0  0  0  0  0  0
    6.1852    2.3954   -0.7393 C   0  0  0  0  0  0  0  0  0  0  0  0
    5.2010   -0.2317   -0.8804 C   0  0  0  0  0  0  0  0  0  0  0  0
    3.6968    3.1788   -0.8605 C   0  0  0  0  0  0  0  0  0  0  0  0
    2.3957    2.3365   -0.7993 C   0  0  0  0  0  0  0  0  0  0  0  0
    4.8110    2.1586   -0.7962 C   0  0  0  0  0  0  0  0  0  0  0  0
    4.3161    0.8503   -0.8456 C   0  0  0  0  0  0  0  0  0  0  0  0
    2.7944    0.8384   -0.8804 C   0  0  1  0  0  0  0  0  0  0  0  0
    2.1722    0.1816    0.2275 O   0  0  0  0  0  0  0  0  0  0  0  0
    1.4080   -1.5533    0.9247 H   0  0  0  0  0  0  0  0  0  0  0  0
    3.0721   -1.7104    0.3189 H   0  0  0  0  0  0  0  0  0  0  0  0
    1.7153   -1.5564   -0.8342 H   0  0  0  0  0  0  0  0  0  0  0  0
    8.1380    1.4862   -0.6968 H   0  0  0  0  0  0  0  0  0  0  0  0
    7.2690   -0.8327   -0.8396 H   0  0  0  0  0  0  0  0  0  0  0  0
    6.5685    3.4126   -0.6985 H   0  0  0  0  0  0  0  0  0  0  0  0
    4.8350   -1.2508   -0.9642 H   0  0  0  0  0  0  0  0  0  0  0  0
    3.7565    3.9087   -0.0437 H   0  0  0  0  0  0  0  0  0  0  0  0
    3.7579    3.7562   -1.7925 H   0  0  0  0  0  0  0  0  0  0  0  0
    1.6934    2.6069   -1.5932 H   0  0  0  0  0  0  0  0  0  0  0  0
    1.8782    2.4780    0.1535 H   0  0  0  0  0  0  0  0  0  0  0  0
    2.4287    0.3663   -1.8081 H   0  0  0  0  0  0  0  0  0  0  0  0
  1 11  1  0  0  0  0
  1 13  1  0  0  0  0
  1 12  1  0  0  0  0
  2  4  1  0  0  0  0
  2 15  1  0  0  0  0
  3  2  2  0  0  0  0
  4 17  1  0  0  0  0
  5  9  2  0  0  0  0
  5  3  1  0  0  0  0
  6  7  1  0  0  0  0
  6  8  1  0  0  0  0
  6 19  1  0  0  0  0
  7 22  1  0  0  0  0
  8  4  2  0  0  0  0
  9  8  1  0  0  0  0
 10 23  1  6  0  0  0
 10  9  1  0  0  0  0
 10  7  1  0  0  0  0
 10 11  1  0  0  0  0
 14  1  1  0  0  0  0
 16  3  1  0  0  0  0
 18  5  1  0  0  0  0
 20  6  1  0  0  0  0
 21  7  1  0  0  0  0
M  END
>  <HBA>
1

>  <HBD>
0

>  <TPSA>
9.23

>  <cid>
70506

>  <dipole>
0.96

>  <excitation_energy_1>
5.16

>  <excitation_energy_2>
5.638

>  <excitation_energy_3>
5.787

>  <excitation_energy_4>
5.965

>  <homo_energy>
-6.37

>  <homo_lumo_gap>
6.264

>  <logP>
2.32

>  <lumo_energy>
-0.106

>  <melting_point>
24.29

>  <molecular_refractivity>
44.96

>  <oscillator_strength_1>
0.0205

>  <oscillator_strength_2>
0.0068

>  <oscillator_strength_3>
0.0018

>  <oscillator_strength_4>
0.004

>  <open_babel_can_smiles>
CO[C@H]1CCc2c1cccc2

>  <mulliken_charges>
23
1   -0.19547
2   -0.129331
3   -0.134393
4   -0.187591
5   -0.186867
6   -0.35246
7   -0.315138
8   0.120638
9   0.115501
10   0.071585
11   -0.469809
12   0.15586
13   0.136508
14   0.124878
15   0.127178
16   0.12609
17   0.12382
18   0.126126
19   0.153733
20   0.153426
21   0.143701
22   0.172392
23   0.119621

>  <lowdin_charges>
23
1   -0.283134
2   -0.151578
3   -0.162504
4   -0.164619
5   -0.160667
6   -0.280062
7   -0.286288
8   -0.006738
9   -0.032713
10   0.003487
11   -0.26875
12   0.154854
13   0.1333
14   0.129622
15   0.154867
16   0.157148
17   0.154752
18   0.154802
19   0.154978
20   0.153457
21   0.151521
22   0.164907
23   0.129359

$$$$

