PCCDB-ID:  26062
public computational chemistry database (PCCDB) project, http://pccdb.org

 17 16  0  0  1  0  0  0  0  0999 V2000
    1.1639   -0.2017   -0.7169 C   0  0  0  0  0  0  0  0  0  0  0  0
    0.1056   -0.2520   -1.8241 C   0  0  0  0  0  0  0  0  0  0  0  0
    2.4644    0.4965   -1.1426 C   0  0  1  0  0  0  0  0  0  0  0  0
    3.1913   -0.2973   -2.2523 C   0  0  0  0  0  0  0  0  0  0  0  0
   -0.2713    1.1206   -2.2391 N   0  0  0  0  0  0  0  0  0  0  0  0
    2.2779    1.8508   -1.5577 O   0  0  0  0  0  0  0  0  0  0  0  0
    3.3189   -1.5005   -2.2399 O   0  0  0  0  0  0  0  0  0  0  0  0
    3.6845    0.4884   -3.2220 O   0  0  0  0  0  0  0  0  0  0  0  0
    1.4125   -1.2237   -0.4146 H   0  0  0  0  0  0  0  0  0  0  0  0
    0.7599    0.3157    0.1633 H   0  0  0  0  0  0  0  0  0  0  0  0
   -0.7576   -0.8466   -1.4891 H   0  0  0  0  0  0  0  0  0  0  0  0
    0.5219   -0.7610   -2.7002 H   0  0  0  0  0  0  0  0  0  0  0  0
    3.1494    0.5181   -0.2846 H   0  0  0  0  0  0  0  0  0  0  0  0
   -0.8934    1.5375   -1.5473 H   0  0  0  0  0  0  0  0  0  0  0  0
   -0.7853    1.1018   -3.1180 H   0  0  0  0  0  0  0  0  0  0  0  0
    1.3738    1.8754   -1.9707 H   0  0  0  0  0  0  0  0  0  0  0  0
    3.4001    1.3990   -2.9681 H   0  0  0  0  0  0  0  0  0  0  0  0
  1  9  1  0  0  0  0
  1 10  1  0  0  0  0
  2 11  1  0  0  0  0
  2  1  1  0  0  0  0
  3  1  1  0  0  0  0
  3 13  1  1  0  0  0
  4  7  2  0  0  0  0
  4  3  1  0  0  0  0
  5  2  1  0  0  0  0
  5 14  1  0  0  0  0
  6  3  1  0  0  0  0
  8 17  1  0  0  0  0
  8  4  1  0  0  0  0
 12  2  1  0  0  0  0
 15  5  1  0  0  0  0
 16  6  1  0  0  0  0
M  END
>  <HBA>
4

>  <HBD>
3

>  <TPSA>
83.55

>  <cid>
26062

>  <dipole>
5.49

>  <excitation_energy_1>
5.438

>  <excitation_energy_2>
6.071

>  <excitation_energy_3>
6.166

>  <excitation_energy_4>
6.727

>  <homo_energy>
-6.683

>  <homo_lumo_gap>
7.2

>  <logP>
-0.519

>  <lumo_energy>
0.517

>  <melting_point>
124.79

>  <molecular_refractivity>
26.98

>  <oscillator_strength_1>
0.0013

>  <oscillator_strength_2>
0.001

>  <oscillator_strength_3>
0.0133

>  <oscillator_strength_4>
0.0056

>  <open_babel_can_smiles>
NCC[C@@H](C(=O)O)O

>  <mulliken_charges>
17
1   -0.287575
2   -0.165033
3   0.039291
4   0.576124
5   -0.759134
6   -0.680809
7   -0.471382
8   -0.580004
9   0.179302
10   0.143896
11   0.143637
12   0.178629
13   0.172514
14   0.32018
15   0.324592
16   0.438828
17   0.426943

>  <lowdin_charges>
17
1   -0.292181
2   -0.211625
3   -0.04379
4   0.160141
5   -0.545141
6   -0.490242
7   -0.263208
8   -0.349831
9   0.173991
10   0.149926
11   0.139657
12   0.160511
13   0.166023
14   0.26786
15   0.270823
16   0.345114
17   0.361972

$$$$

