PCCDB-ID:  27376
public computational chemistry database (PCCDB) project, http://pccdb.org

 34 36  0  0  0  0  0  0  0  0999 V2000
    3.7297   -0.4414   -1.0506 C   0  0  0  0  0  0  0  0  0  0  0  0
    2.5441   -0.1080   -0.1260 C   0  0  0  0  0  0  0  0  0  0  0  0
    5.0166    4.7945    7.1051 C   0  0  0  0  0  0  0  0  0  0  0  0
    5.9716    3.5965    7.1538 C   0  0  0  0  0  0  0  0  0  0  0  0
    4.7178    5.1915    5.6546 C   0  0  0  0  0  0  0  0  0  0  0  0
    5.3519    2.3800    6.4555 C   0  0  0  0  0  0  0  0  0  0  0  0
    2.5832    2.3652    0.4455 C   0  0  0  0  0  0  0  0  0  0  0  0
    2.8959    3.4266    1.2903 C   0  0  0  0  0  0  0  0  0  0  0  0
    3.4323    0.8006    2.0661 C   0  0  0  0  0  0  0  0  0  0  0  0
    2.8459    1.0361    0.8174 C   0  0  0  0  0  0  0  0  0  0  0  0
    4.4224    4.0034    4.7702 C   0  0  0  0  0  0  0  0  0  0  0  0
    4.7059    2.7280    5.1353 C   0  0  0  0  0  0  0  0  0  0  0  0
    3.4825    3.1805    2.5350 C   0  0  0  0  0  0  0  0  0  0  0  0
    3.7512    1.8572    2.9217 C   0  0  0  0  0  0  0  0  0  0  0  0
    3.8088    4.3118    3.4440 C   0  0  0  0  0  0  0  0  0  0  0  0
    4.3781    1.5759    4.2443 C   0  0  0  0  0  0  0  0  0  0  0  0
    3.5830    5.4753    3.1222 O   0  0  0  0  0  0  0  0  0  0  0  0
    4.6250    0.4272    4.6011 O   0  0  0  0  0  0  0  0  0  0  0  0
    3.4773   -1.2718   -1.7195 H   0  0  0  0  0  0  0  0  0  0  0  0
    4.6126   -0.7288   -0.4691 H   0  0  0  0  0  0  0  0  0  0  0  0
    4.0031    0.4219   -1.6676 H   0  0  0  0  0  0  0  0  0  0  0  0
    2.2780   -0.9995    0.4548 H   0  0  0  0  0  0  0  0  0  0  0  0
    1.6683    0.1430   -0.7372 H   0  0  0  0  0  0  0  0  0  0  0  0
    5.4368    5.6516    7.6441 H   0  0  0  0  0  0  0  0  0  0  0  0
    4.0788    4.5307    7.6137 H   0  0  0  0  0  0  0  0  0  0  0  0
    6.2239    3.3398    8.1892 H   0  0  0  0  0  0  0  0  0  0  0  0
    6.9142    3.8640    6.6561 H   0  0  0  0  0  0  0  0  0  0  0  0
    5.5715    5.7362    5.2242 H   0  0  0  0  0  0  0  0  0  0  0  0
    3.8784    5.8928    5.5942 H   0  0  0  0  0  0  0  0  0  0  0  0
    4.5900    1.9170    7.1006 H   0  0  0  0  0  0  0  0  0  0  0  0
    6.0941    1.5920    6.2875 H   0  0  0  0  0  0  0  0  0  0  0  0
    2.1215    2.5657   -0.5189 H   0  0  0  0  0  0  0  0  0  0  0  0
    2.6895    4.4538    1.0074 H   0  0  0  0  0  0  0  0  0  0  0  0
    3.6485   -0.2110    2.3979 H   0  0  0  0  0  0  0  0  0  0  0  0
  1 20  1  0  0  0  0
  1  2  1  0  0  0  0
  2 22  1  0  0  0  0
  2 10  1  0  0  0  0
  3  4  1  0  0  0  0
  3 25  1  0  0  0  0
  3 24  1  0  0  0  0
  4 26  1  0  0  0  0
  5  3  1  0  0  0  0
  6 30  1  0  0  0  0
  6  4  1  0  0  0  0
  7 10  2  0  0  0  0
  7  8  1  0  0  0  0
  8 13  2  0  0  0  0
  9 34  1  0  0  0  0
  9 14  2  0  0  0  0
 10  9  1  0  0  0  0
 11 12  2  0  0  0  0
 11  5  1  0  0  0  0
 12  6  1  0  0  0  0
 13 14  1  0  0  0  0
 13 15  1  0  0  0  0
 14 16  1  0  0  0  0
 15 11  1  0  0  0  0
 16 18  2  0  0  0  0
 16 12  1  0  0  0  0
 17 15  2  0  0  0  0
 19  1  1  0  0  0  0
 21  1  1  0  0  0  0
 23  2  1  0  0  0  0
 27  4  1  0  0  0  0
 28  5  1  0  0  0  0
 29  5  1  0  0  0  0
 31  6  1  0  0  0  0
 32  7  1  0  0  0  0
 33  8  1  0  0  0  0
M  END
>  <HBA>
2

>  <HBD>
0

>  <TPSA>
34.14

>  <cid>
27376

>  <dipole>
0.91

>  <excitation_energy_1>
2.739

>  <excitation_energy_2>
3.081

>  <excitation_energy_3>
3.245

>  <excitation_energy_4>
3.624

>  <homo_energy>
-6.822

>  <homo_lumo_gap>
4.008

>  <logP>
3.499

>  <lumo_energy>
-2.814

>  <melting_point>
137.42

>  <molecular_refractivity>
71.13

>  <oscillator_strength_1>
0.0

>  <oscillator_strength_2>
0.0

>  <oscillator_strength_3>
0.0057

>  <oscillator_strength_4>
0.0706

>  <open_babel_can_smiles>
CCc1ccc2c(c1)C(=O)C1=C(C2=O)CCCC1

>  <mulliken_charges>
34
1   -0.437032
2   -0.342272
3   -0.271029
4   -0.270781
5   -0.327901
6   -0.3276
7   -0.17802
8   -0.174597
9   -0.241249
10   0.183616
11   0.037067
12   0.036083
13   0.051092
14   0.060648
15   0.351749
16   0.35282
17   -0.476472
18   -0.475498
19   0.150345
20   0.156048
21   0.151568
22   0.153259
23   0.14749
24   0.139499
25   0.139998
26   0.139377
27   0.139904
28   0.164325
29   0.172565
30   0.163928
31   0.172202
32   0.135492
33   0.164743
34   0.158632

>  <lowdin_charges>
34
1   -0.441073
2   -0.272598
3   -0.277336
4   -0.275374
5   -0.276404
6   -0.276769
7   -0.15098
8   -0.12628
9   -0.139262
10   0.014778
11   -0.024898
12   -0.026328
13   -0.04305
14   -0.035951
15   0.147027
16   0.14823
17   -0.237883
18   -0.236779
19   0.153934
20   0.154523
21   0.15247
22   0.155026
23   0.152117
24   0.149931
25   0.143551
26   0.148021
27   0.143388
28   0.163407
29   0.169842
30   0.163469
31   0.169879
32   0.160463
33   0.17683
34   0.174082

$$$$

