PCCDB-ID:  33059
public computational chemistry database (PCCDB) project, http://pccdb.org

 32 33  0  0  0  0  0  0  0  0999 V2000
    1.3846    4.0157    0.4250 C   0  0  0  0  0  0  0  0  0  0  0  0
   10.9728    3.3462   -1.1591 C   0  0  0  0  0  0  0  0  0  0  0  0
   11.1735    2.1732   -2.1394 C   0  0  0  0  0  0  0  0  0  0  0  0
    2.4807    1.7368    0.2458 C   0  0  0  0  0  0  0  0  0  0  0  0
    3.7087    3.6532   -0.5214 C   0  0  0  0  0  0  0  0  0  0  0  0
    3.5342    0.9121   -0.1293 C   0  0  0  0  0  0  0  0  0  0  0  0
    4.7744    2.8337   -0.8909 C   0  0  0  0  0  0  0  0  0  0  0  0
    9.4643    3.6122   -1.2362 C   0  0  0  0  0  0  0  0  0  0  0  0
    9.9159    1.3102   -1.9471 C   0  0  0  0  0  0  0  0  0  0  0  0
    7.1590    0.8385   -1.4061 C   0  0  0  0  0  0  0  0  0  0  0  0
    2.5456    3.1248    0.0518 C   0  0  0  0  0  0  0  0  0  0  0  0
    4.7035    1.4457   -0.6971 C   0  0  0  0  0  0  0  0  0  0  0  0
    5.7674    0.4624   -1.0921 C   0  0  0  0  0  0  0  0  0  0  0  0
    7.6463    2.0307   -1.2337 N   0  0  0  0  0  0  0  0  0  0  0  0
    8.9146    2.2785   -1.4911 N   0  0  0  0  0  0  0  0  0  0  0  0
    5.4942   -0.7388   -1.1566 O   0  0  0  0  0  0  0  0  0  0  0  0
    0.8520    3.6333    1.3025 H   0  0  0  0  0  0  0  0  0  0  0  0
    0.6551    4.0789   -0.3938 H   0  0  0  0  0  0  0  0  0  0  0  0
    1.7152    5.0363    0.6450 H   0  0  0  0  0  0  0  0  0  0  0  0
   11.5697    4.2251   -1.4183 H   0  0  0  0  0  0  0  0  0  0  0  0
   11.2448    3.0400   -0.1422 H   0  0  0  0  0  0  0  0  0  0  0  0
   12.0937    1.6119   -1.9549 H   0  0  0  0  0  0  0  0  0  0  0  0
   11.2122    2.5474   -3.1690 H   0  0  0  0  0  0  0  0  0  0  0  0
    1.5900    1.3005    0.6930 H   0  0  0  0  0  0  0  0  0  0  0  0
    3.7835    4.7269   -0.6814 H   0  0  0  0  0  0  0  0  0  0  0  0
    3.4772   -0.1623    0.0098 H   0  0  0  0  0  0  0  0  0  0  0  0
    5.6641    3.2718   -1.3235 H   0  0  0  0  0  0  0  0  0  0  0  0
    9.2174    4.2991   -2.0599 H   0  0  0  0  0  0  0  0  0  0  0  0
    9.0388    4.0196   -0.3150 H   0  0  0  0  0  0  0  0  0  0  0  0
   10.0547    0.5243   -1.1886 H   0  0  0  0  0  0  0  0  0  0  0  0
    9.5903    0.8186   -2.8730 H   0  0  0  0  0  0  0  0  0  0  0  0
    7.7582   -0.0070   -1.7486 H   0  0  0  0  0  0  0  0  0  0  0  0
  1 19  1  0  0  0  0
  1 17  1  0  0  0  0
  2 21  1  0  0  0  0
  3 22  1  0  0  0  0
  3  9  1  0  0  0  0
  3  2  1  0  0  0  0
  4 24  1  0  0  0  0
  5 11  2  0  0  0  0
  6 26  1  0  0  0  0
  6  4  2  0  0  0  0
  7 12  2  0  0  0  0
  7  5  1  0  0  0  0
  8  2  1  0  0  0  0
  8 29  1  0  0  0  0
  9 15  1  0  0  0  0
  9 30  1  0  0  0  0
 10 14  2  0  0  0  0
 10 13  1  0  0  0  0
 11  4  1  0  0  0  0
 11  1  1  0  0  0  0
 12  6  1  0  0  0  0
 13 12  1  0  0  0  0
 15  8  1  0  0  0  0
 15 14  1  0  0  0  0
 16 13  2  0  0  0  0
 18  1  1  0  0  0  0
 20  2  1  0  0  0  0
 23  3  1  0  0  0  0
 25  5  1  0  0  0  0
 27  7  1  0  0  0  0
 28  8  1  0  0  0  0
 31  9  1  0  0  0  0
 32 10  1  0  0  0  0
M  END
>  <HBA>
3

>  <HBD>
0

>  <TPSA>
32.67

>  <cid>
33059

>  <dipole>
5.38

>  <excitation_energy_1>
3.526

>  <excitation_energy_2>
4.015

>  <excitation_energy_3>
4.367

>  <excitation_energy_4>
4.54

>  <homo_energy>
-5.812

>  <homo_lumo_gap>
4.449

>  <logP>
2.197

>  <lumo_energy>
-1.363

>  <melting_point>
83.47

>  <molecular_refractivity>
69.21

>  <oscillator_strength_1>
0.0009

>  <oscillator_strength_2>
0.4361

>  <oscillator_strength_3>
0.0241

>  <oscillator_strength_4>
0.0949

>  <open_babel_can_smiles>
O=C(c1ccc(cc1)C)/C=N/N1CCCC1

>  <mulliken_charges>
32
1   -0.530753
2   -0.298516
3   -0.304514
4   -0.185986
5   -0.195042
6   -0.152343
7   -0.159997
8   -0.094177
9   -0.117889
10   -0.034053
11   0.187745
12   0.054634
13   0.391092
14   -0.245102
15   -0.243322
16   -0.504064
17   0.158386
18   0.167254
19   0.155829
20   0.153533
21   0.157652
22   0.156984
23   0.157144
24   0.121653
25   0.117412
26   0.156892
27   0.152548
28   0.151357
29   0.169063
30   0.161451
31   0.164696
32   0.130432

>  <lowdin_charges>
32
1   -0.442782
2   -0.282727
3   -0.280041
4   -0.17192
5   -0.173335
6   -0.128814
7   -0.147128
8   -0.192356
9   -0.209913
10   -0.199739
11   0.011582
12   -0.046217
13   0.142927
14   -0.062481
15   -0.04971
16   -0.274535
17   0.159566
18   0.163789
19   0.156605
20   0.156922
21   0.151921
22   0.158236
23   0.151645
24   0.154638
25   0.150168
26   0.171969
27   0.170642
28   0.144149
29   0.161489
30   0.150207
31   0.155163
32   0.150079

$$$$

