PCCDB-ID:  66353
public computational chemistry database (PCCDB) project, http://pccdb.org

 22 22  0  0  0  0  0  0  0  0999 V2000
    3.4042    0.5701   -1.2881 C   0  0  0  0  0  0  0  0  0  0  0  0
    4.0071   -2.9507    3.2785 C   0  0  0  0  0  0  0  0  0  0  0  0
    2.3258    0.5252   -0.1906 C   0  0  0  0  0  0  0  0  0  0  0  0
    3.7020    1.8384    3.1201 C   0  0  0  0  0  0  0  0  0  0  0  0
    3.1275    1.8024    1.8458 C   0  0  0  0  0  0  0  0  0  0  0  0
    4.0564    0.6635    3.7718 C   0  0  0  0  0  0  0  0  0  0  0  0
    3.2616   -0.6093    1.8667 C   0  0  0  0  0  0  0  0  0  0  0  0
    2.9057    0.5786    1.2084 C   0  0  0  0  0  0  0  0  0  0  0  0
    3.8348   -0.5697    3.1419 C   0  0  0  0  0  0  0  0  0  0  0  0
    4.2080   -1.6732    3.8582 O   0  0  0  0  0  0  0  0  0  0  0  0
    2.9506    0.5305   -2.2854 H   0  0  0  0  0  0  0  0  0  0  0  0
    4.0957   -0.2751   -1.1950 H   0  0  0  0  0  0  0  0  0  0  0  0
    3.9950    1.4902   -1.2187 H   0  0  0  0  0  0  0  0  0  0  0  0
    4.3714   -3.6732    4.0115 H   0  0  0  0  0  0  0  0  0  0  0  0
    4.5740   -3.0663    2.3448 H   0  0  0  0  0  0  0  0  0  0  0  0
    2.9444   -3.1431    3.0788 H   0  0  0  0  0  0  0  0  0  0  0  0
    1.7305   -0.3894   -0.3082 H   0  0  0  0  0  0  0  0  0  0  0  0
    1.6348    1.3658   -0.3314 H   0  0  0  0  0  0  0  0  0  0  0  0
    3.8687    2.7934    3.6119 H   0  0  0  0  0  0  0  0  0  0  0  0
    2.8493    2.7281    1.3479 H   0  0  0  0  0  0  0  0  0  0  0  0
    4.4977    0.6706    4.7634 H   0  0  0  0  0  0  0  0  0  0  0  0
    3.0815   -1.5576    1.3708 H   0  0  0  0  0  0  0  0  0  0  0  0
  1 13  1  0  0  0  0
  1 12  1  0  0  0  0
  1  3  1  0  0  0  0
  2 10  1  0  0  0  0
  2 14  1  0  0  0  0
  3  8  1  0  0  0  0
  4 19  1  0  0  0  0
  4  6  2  0  0  0  0
  5  4  1  0  0  0  0
  6 21  1  0  0  0  0
  7  9  2  0  0  0  0
  8  5  2  0  0  0  0
  8  7  1  0  0  0  0
  9  6  1  0  0  0  0
  9 10  1  0  0  0  0
 11  1  1  0  0  0  0
 15  2  1  0  0  0  0
 16  2  1  0  0  0  0
 17  3  1  0  0  0  0
 18  3  1  0  0  0  0
 20  5  1  0  0  0  0
 22  7  1  0  0  0  0
M  END
>  <HBA>
1

>  <HBD>
0

>  <TPSA>
9.23

>  <cid>
66353

>  <dipole>
1.44

>  <excitation_energy_1>
4.979

>  <excitation_energy_2>
5.363

>  <excitation_energy_3>
5.643

>  <excitation_energy_4>
5.772

>  <homo_energy>
-5.761

>  <homo_lumo_gap>
5.913

>  <logP>
2.258

>  <lumo_energy>
0.152

>  <melting_point>
12.6

>  <molecular_refractivity>
42.71

>  <oscillator_strength_1>
0.0416

>  <oscillator_strength_2>
0.0031

>  <oscillator_strength_3>
0.056

>  <oscillator_strength_4>
0.0108

>  <open_babel_can_smiles>
CCc1cccc(c1)OC

>  <mulliken_charges>
22
1   -0.432426
2   -0.211883
3   -0.339658
4   -0.131161
5   -0.189467
6   -0.174556
7   -0.254776
8   0.173128
9   0.379352
10   -0.50919
11   0.142184
12   0.147209
13   0.1507
14   0.167792
15   0.149974
16   0.150347
17   0.139547
18   0.143346
19   0.127426
20   0.11654
21   0.1339
22   0.121671

>  <lowdin_charges>
22
1   -0.44021
2   -0.276743
3   -0.271242
4   -0.146331
5   -0.191985
6   -0.186744
7   -0.22665
8   0.010542
9   0.102821
10   -0.201219
11   0.147962
12   0.149963
13   0.151473
14   0.162919
15   0.143836
16   0.142622
17   0.147001
18   0.149722
19   0.157316
20   0.153071
21   0.16413
22   0.157747

$$$$

