PCCDB-ID:  7418
public computational chemistry database (PCCDB) project, http://pccdb.org

 18 18  0  0  0  0  0  0  0  0999 V2000
    1.0062   -0.0932    0.0220 C   0  0  0  0  0  0  0  0  0  0  0  0
    4.6259    1.1036   -0.2601 C   0  0  0  0  0  0  0  0  0  0  0  0
    3.2355    1.1047   -0.1481 C   0  0  0  0  0  0  0  0  0  0  0  0
    5.3211   -0.1024   -0.3298 C   0  0  0  0  0  0  0  0  0  0  0  0
    3.2194   -1.2970   -0.2015 C   0  0  0  0  0  0  0  0  0  0  0  0
    2.5107   -0.0955   -0.1169 C   0  0  0  0  0  0  0  0  0  0  0  0
    4.6164   -1.3139   -0.2923 C   0  0  0  0  0  0  0  0  0  0  0  0
    5.2892   -2.6513   -0.3822 C   0  0  0  0  0  0  0  0  0  0  0  0
    4.7266   -3.6594   -0.7387 O   0  0  0  0  0  0  0  0  0  0  0  0
    6.6055   -2.6973   -0.0338 O   0  0  0  0  0  0  0  0  0  0  0  0
    0.5690    0.8305   -0.3710 H   0  0  0  0  0  0  0  0  0  0  0  0
    0.7062   -0.1750    1.0750 H   0  0  0  0  0  0  0  0  0  0  0  0
    0.5553   -0.9371   -0.5101 H   0  0  0  0  0  0  0  0  0  0  0  0
    5.1673    2.0443   -0.3056 H   0  0  0  0  0  0  0  0  0  0  0  0
    2.7027    2.0513   -0.0945 H   0  0  0  0  0  0  0  0  0  0  0  0
    6.4007   -0.0854   -0.4624 H   0  0  0  0  0  0  0  0  0  0  0  0
    2.6960   -2.2485   -0.1992 H   0  0  0  0  0  0  0  0  0  0  0  0
    6.8679   -1.8581    0.3778 H   0  0  0  0  0  0  0  0  0  0  0  0
  1 12  1  0  0  0  0
  2  3  2  0  0  0  0
  3  6  1  0  0  0  0
  3 15  1  0  0  0  0
  4  7  2  0  0  0  0
  4  2  1  0  0  0  0
  5 17  1  0  0  0  0
  5  6  2  0  0  0  0
  6  1  1  0  0  0  0
  7  5  1  0  0  0  0
  8  7  1  0  0  0  0
  8 10  1  0  0  0  0
  9  8  2  0  0  0  0
 10 18  1  0  0  0  0
 11  1  1  0  0  0  0
 13  1  1  0  0  0  0
 14  2  1  0  0  0  0
 16  4  1  0  0  0  0
M  END
>  <HBA>
2

>  <HBD>
1

>  <TPSA>
37.3

>  <cid>
7418

>  <dipole>
4.83

>  <excitation_energy_1>
4.721

>  <excitation_energy_2>
4.871

>  <excitation_energy_3>
5.436

>  <excitation_energy_4>
5.97

>  <homo_energy>
-7.075

>  <homo_lumo_gap>
5.772

>  <logP>
1.693

>  <lumo_energy>
-1.303

>  <melting_point>
99.48

>  <molecular_refractivity>
38.37

>  <oscillator_strength_1>
0.0095

>  <oscillator_strength_2>
0.0202

>  <oscillator_strength_3>
0.1143

>  <oscillator_strength_4>
0.0364

>  <open_babel_can_smiles>
Cc1cccc(c1)C(=O)O

>  <mulliken_charges>
18
1   -0.529324
2   -0.129232
3   -0.16763
4   -0.203444
5   -0.20691
6   0.171005
7   0.058541
8   0.54896
9   -0.44606
10   -0.575699
11   0.159821
12   0.172178
13   0.169024
14   0.140047
15   0.133655
16   0.132775
17   0.161982
18   0.41031

>  <lowdin_charges>
18
1   -0.442172
2   -0.150868
3   -0.151017
4   -0.168874
5   -0.138528
6   0.008178
7   -0.055946
8   0.197246
9   -0.241125
10   -0.359325
11   0.160377
12   0.164941
13   0.165727
14   0.163281
15   0.160396
16   0.154393
17   0.176665
18   0.356653

$$$$

