PCCDB-ID:  13843
public computational chemistry database (PCCDB) project, http://pccdb.org

 12 11  0  0  0  0  0  0  0  0999 V2000
    0.8150    0.0276   -0.0475 C   0  0  0  0  0  0  0  0  0  0  0  0
    4.8651    1.4075    1.0284 C   0  0  0  0  0  0  0  0  0  0  0  0
    4.2319    0.1183    1.3455 C   0  0  0  0  0  0  0  0  0  0  0  0
    2.3143   -0.1159   -0.0324 C   0  0  0  0  0  0  0  0  0  0  0  0
    5.3695    2.4247    0.7914 N   0  0  0  0  0  0  0  0  0  0  0  0
    3.0151   -0.4509   -0.9559 O   0  0  0  0  0  0  0  0  0  0  0  0
    2.8076    0.1903    1.2105 O   0  0  0  0  0  0  0  0  0  0  0  0
    0.4330   -0.2763   -1.0222 H   0  0  0  0  0  0  0  0  0  0  0  0
    0.5412    1.0693    0.1506 H   0  0  0  0  0  0  0  0  0  0  0  0
    0.3671   -0.5841    0.7418 H   0  0  0  0  0  0  0  0  0  0  0  0
    4.4257   -0.1368    2.3900 H   0  0  0  0  0  0  0  0  0  0  0  0
    4.6370   -0.6562    0.6887 H   0  0  0  0  0  0  0  0  0  0  0  0
  1  4  1  0  0  0  0
  1  9  1  0  0  0  0
  1 10  1  0  0  0  0
  2  3  1  0  0  0  0
  3 11  1  0  0  0  0
  4  7  1  0  0  0  0
  5  2  3  0  0  0  0
  6  4  2  0  0  0  0
  7  3  1  0  0  0  0
  8  1  1  0  0  0  0
 12  3  1  0  0  0  0
M  END
>  <HBA>
3

>  <HBD>
0

>  <TPSA>
50.09

>  <cid>
13843

>  <dipole>
4.01

>  <excitation_energy_1>
5.852

>  <excitation_energy_2>
6.931

>  <excitation_energy_3>
7.141

>  <excitation_energy_4>
7.476

>  <homo_energy>
-8.052

>  <homo_lumo_gap>
7.742

>  <logP>
0.073

>  <lumo_energy>
-0.31

>  <melting_point>
21.11

>  <molecular_refractivity>
22.38

>  <oscillator_strength_1>
0.0009

>  <oscillator_strength_2>
0.0332

>  <oscillator_strength_3>
0.0043

>  <oscillator_strength_4>
0.0031

>  <open_babel_can_smiles>
CC(=O)OCC#N

>  <mulliken_charges>
12
1   -0.525448
2   0.360416
3   -0.113419
4   0.603565
5   -0.448894
6   -0.443711
7   -0.44173
8   0.192242
9   0.196011
10   0.188791
11   0.20874
12   0.223436

>  <lowdin_charges>
12
1   -0.461684
2   -0.02338
3   -0.126282
4   0.212557
5   -0.096151
6   -0.242413
7   -0.195514
8   0.181405
9   0.185111
10   0.183128
11   0.187769
12   0.195451

$$$$

