PCCDB-ID:  25866
public computational chemistry database (PCCDB) project, http://pccdb.org

 24 25  0  0  0  0  0  0  0  0999 V2000
   -1.5650   -0.3960    0.7378 C   0  0  0  0  0  0  0  0  0  0  0  0
   -1.1656    0.6984   -0.0299 C   0  0  0  0  0  0  0  0  0  0  0  0
   -0.6171   -1.3429    1.1336 C   0  0  0  0  0  0  0  0  0  0  0  0
    0.1735    0.8422   -0.3987 C   0  0  0  0  0  0  0  0  0  0  0  0
    0.7206   -1.1939    0.7682 C   0  0  0  0  0  0  0  0  0  0  0  0
    5.4589   -2.3029   -0.9945 C   0  0  0  0  0  0  0  0  0  0  0  0
    5.6065   -1.2122    0.0399 C   0  0  0  0  0  0  0  0  0  0  0  0
    2.5912    0.0838   -0.3720 C   0  0  0  0  0  0  0  0  0  0  0  0
    1.1323   -0.0966   -0.0010 C   0  0  0  0  0  0  0  0  0  0  0  0
    4.6140   -1.0601   -1.0868 C   0  0  0  0  0  0  0  0  0  0  0  0
    3.2174   -1.1820   -0.7602 N   0  0  0  0  0  0  0  0  0  0  0  0
   -2.6074   -0.5134    1.0223 H   0  0  0  0  0  0  0  0  0  0  0  0
   -1.8963    1.4371   -0.3496 H   0  0  0  0  0  0  0  0  0  0  0  0
   -0.9211   -2.2003    1.7290 H   0  0  0  0  0  0  0  0  0  0  0  0
    0.4783    1.6937   -1.0038 H   0  0  0  0  0  0  0  0  0  0  0  0
    1.4599   -1.9319    1.0649 H   0  0  0  0  0  0  0  0  0  0  0  0
    4.9537   -3.2142   -0.6885 H   0  0  0  0  0  0  0  0  0  0  0  0
    6.2524   -2.4424   -1.7233 H   0  0  0  0  0  0  0  0  0  0  0  0
    6.5033   -0.5990    0.0264 H   0  0  0  0  0  0  0  0  0  0  0  0
    5.1978   -1.4058    1.0273 H   0  0  0  0  0  0  0  0  0  0  0  0
    3.1533    0.4626    0.4933 H   0  0  0  0  0  0  0  0  0  0  0  0
    2.6736    0.8633   -1.1527 H   0  0  0  0  0  0  0  0  0  0  0  0
    4.8855   -0.3429   -1.8706 H   0  0  0  0  0  0  0  0  0  0  0  0
    2.7089   -1.5828   -1.5476 H   0  0  0  0  0  0  0  0  0  0  0  0
  1 12  1  0  0  0  0
  1  3  2  0  0  0  0
  2  1  1  0  0  0  0
  3 14  1  0  0  0  0
  4  2  2  0  0  0  0
  4  9  1  0  0  0  0
  5 16  1  0  0  0  0
  5  3  1  0  0  0  0
  6 17  1  0  0  0  0
  6  7  1  0  0  0  0
  7 20  1  0  0  0  0
  8  9  1  0  0  0  0
  8 21  1  0  0  0  0
  9  5  2  0  0  0  0
 10  6  1  0  0  0  0
 10 11  1  0  0  0  0
 10  7  1  0  0  0  0
 11  8  1  0  0  0  0
 13  2  1  0  0  0  0
 15  4  1  0  0  0  0
 18  6  1  0  0  0  0
 19  7  1  0  0  0  0
 22  8  1  0  0  0  0
 23 10  1  0  0  0  0
 24 11  1  0  0  0  0
M  END
>  <HBA>
1

>  <HBD>
1

>  <TPSA>
12.03

>  <cid>
25866

>  <dipole>
0.88

>  <excitation_energy_1>
5.195

>  <excitation_energy_2>
5.22

>  <excitation_energy_3>
5.432

>  <excitation_energy_4>
5.687

>  <homo_energy>
-6.063

>  <homo_lumo_gap>
6.163

>  <logP>
2.329

>  <lumo_energy>
0.101

>  <melting_point>
54.92

>  <molecular_refractivity>
46.52

>  <oscillator_strength_1>
0.0025

>  <oscillator_strength_2>
0.002

>  <oscillator_strength_3>
0.0069

>  <oscillator_strength_4>
0.02

>  <open_babel_can_smiles>
N(C1CC1)Cc1ccccc1

>  <mulliken_charges>
24
1   -0.129165
2   -0.128907
3   -0.131258
4   -0.18619
5   -0.165266
6   -0.321966
7   -0.302974
8   -0.185105
9   0.129358
10   0.032206
11   -0.565137
12   0.126136
13   0.126485
14   0.127138
15   0.120743
16   0.141696
17   0.158862
18   0.147787
19   0.147514
20   0.159027
21   0.160323
22   0.117929
23   0.121225
24   0.299537

>  <lowdin_charges>
24
1   -0.159398
2   -0.15882
3   -0.156214
4   -0.168875
5   -0.161819
6   -0.318526
7   -0.318665
8   -0.19777
9   -0.014955
10   -0.097241
11   -0.346325
12   0.154664
13   0.157191
14   0.156525
15   0.153535
16   0.16578
17   0.164259
18   0.158122
19   0.1572
20   0.163317
21   0.155319
22   0.123748
23   0.130771
24   0.258176

$$$$

