PCCDB-ID:  24977
public computational chemistry database (PCCDB) project, http://pccdb.org

 29 30  0  0  0  0  0  0  0  0999 V2000
   -0.0760    0.1797    0.7903 C   0  0  0  0  0  0  0  0  0  0  0  0
    0.4441   -0.4500   -0.5354 C   0  0  0  0  0  0  0  0  0  0  0  0
   -0.2169    5.5825   -2.1281 C   0  0  0  0  0  0  0  0  0  0  0  0
    1.3040    5.7974   -2.1878 C   0  0  0  0  0  0  0  0  0  0  0  0
    0.9737    1.2432    1.1713 C   0  0  0  0  0  0  0  0  0  0  0  0
    1.6243    0.4473   -1.0008 C   0  0  0  0  0  0  0  0  0  0  0  0
   -0.3706    4.0784   -2.4255 C   0  0  0  0  0  0  0  0  0  0  0  0
    1.8599    4.5575   -1.4643 C   0  0  0  0  0  0  0  0  0  0  0  0
    1.4972    1.7453   -0.1780 C   0  0  0  0  0  0  0  0  0  0  0  0
    0.8922    3.3956   -1.8364 C   0  0  0  0  0  0  0  0  0  0  0  0
    0.4971    2.6203   -0.7069 O   0  0  0  0  0  0  0  0  0  0  0  0
   -0.2199   -0.5640    1.5811 H   0  0  0  0  0  0  0  0  0  0  0  0
   -1.0419    0.6659    0.6213 H   0  0  0  0  0  0  0  0  0  0  0  0
   -0.3503   -0.4777   -1.2877 H   0  0  0  0  0  0  0  0  0  0  0  0
    0.7761   -1.4836   -0.3895 H   0  0  0  0  0  0  0  0  0  0  0  0
   -0.7739    6.2169   -2.8261 H   0  0  0  0  0  0  0  0  0  0  0  0
   -0.5816    5.8063   -1.1171 H   0  0  0  0  0  0  0  0  0  0  0  0
    1.6316    6.7387   -1.7326 H   0  0  0  0  0  0  0  0  0  0  0  0
    1.6373    5.8087   -3.2349 H   0  0  0  0  0  0  0  0  0  0  0  0
    1.8036    0.7870    1.7263 H   0  0  0  0  0  0  0  0  0  0  0  0
    0.5695    2.0601    1.7769 H   0  0  0  0  0  0  0  0  0  0  0  0
    1.6183    0.6334   -2.0796 H   0  0  0  0  0  0  0  0  0  0  0  0
    2.5859   -0.0263   -0.7658 H   0  0  0  0  0  0  0  0  0  0  0  0
   -0.4081    3.9137   -3.5094 H   0  0  0  0  0  0  0  0  0  0  0  0
   -1.2720    3.6349   -1.9934 H   0  0  0  0  0  0  0  0  0  0  0  0
    1.7965    4.7057   -0.3791 H   0  0  0  0  0  0  0  0  0  0  0  0
    2.9064    4.3491   -1.7117 H   0  0  0  0  0  0  0  0  0  0  0  0
    2.4533    2.2809   -0.0863 H   0  0  0  0  0  0  0  0  0  0  0  0
    1.3540    2.7372   -2.5862 H   0  0  0  0  0  0  0  0  0  0  0  0
  1  5  1  0  0  0  0
  1 12  1  0  0  0  0
  2 15  1  0  0  0  0
  2  1  1  0  0  0  0
  3 17  1  0  0  0  0
  4  3  1  0  0  0  0
  4 18  1  0  0  0  0
  4  8  1  0  0  0  0
  5 20  1  0  0  0  0
  5 21  1  0  0  0  0
  6 23  1  0  0  0  0
  6  2  1  0  0  0  0
  6  9  1  0  0  0  0
  7  3  1  0  0  0  0
  7 25  1  0  0  0  0
  7 10  1  0  0  0  0
  8 26  1  0  0  0  0
  9 28  1  0  0  0  0
  9  5  1  0  0  0  0
 10  8  1  0  0  0  0
 10 11  1  0  0  0  0
 11  9  1  0  0  0  0
 13  1  1  0  0  0  0
 14  2  1  0  0  0  0
 16  3  1  0  0  0  0
 19  4  1  0  0  0  0
 22  6  1  0  0  0  0
 24  7  1  0  0  0  0
 27  8  1  0  0  0  0
 29 10  1  0  0  0  0
M  END
>  <HBA>
1

>  <HBD>
0

>  <TPSA>
9.23

>  <cid>
24977

>  <dipole>
0.96

>  <excitation_energy_1>
6.038

>  <excitation_energy_2>
6.394

>  <excitation_energy_3>
6.492

>  <excitation_energy_4>
6.635

>  <homo_energy>
-6.446

>  <homo_lumo_gap>
8.593

>  <logP>
2.888

>  <lumo_energy>
2.147

>  <melting_point>
6.99

>  <molecular_refractivity>
47.04

>  <oscillator_strength_1>
0.0013

>  <oscillator_strength_2>
0.0067

>  <oscillator_strength_3>
0.0013

>  <oscillator_strength_4>
0.0061

>  <open_babel_can_smiles>
C1CCC(C1)OC1CCCC1

>  <mulliken_charges>
29
1   -0.267241
2   -0.267701
3   -0.269911
4   -0.273305
5   -0.27858
6   -0.284419
7   -0.290841
8   -0.296356
9   0.136223
10   0.170592
11   -0.51505
12   0.130195
13   0.151085
14   0.141635
15   0.132635
16   0.13289
17   0.140643
18   0.135706
19   0.13201
20   0.129758
21   0.144305
22   0.140247
23   0.131209
24   0.133002
25   0.155236
26   0.148365
27   0.132578
28   0.114228
29   0.11086

>  <lowdin_charges>
29
1   -0.284894
2   -0.284508
3   -0.282189
4   -0.279278
5   -0.288104
6   -0.297448
7   -0.289241
8   -0.300695
9   -0.004616
10   -0.002347
11   -0.275021
12   0.143656
13   0.149997
14   0.148009
15   0.141962
16   0.145793
17   0.143098
18   0.145581
19   0.137577
20   0.143954
21   0.153081
22   0.146162
23   0.143773
24   0.142004
25   0.158601
26   0.148949
27   0.142791
28   0.12763
29   0.125723

$$$$

