PCCDB-ID:  18477
public computational chemistry database (PCCDB) project, http://pccdb.org

 11 10  0  0  0  0  0  0  0  0999 V2000
    1.0400   -0.0022    0.0262 C   0  0  0  0  0  0  0  0  0  0  0  0
    2.5286    0.1318    0.0356 C   0  0  0  0  0  0  0  0  0  0  0  0
    3.2647    0.2316    1.1418 C   0  0  0  0  0  0  0  0  0  0  0  0
    4.7156    0.3608    1.0736 N   0  0  0  0  0  0  0  0  0  0  0  0
    5.2964    0.4513    2.1573 O   0  0  0  0  0  0  0  0  0  0  0  0
    5.2668    0.3726   -0.0278 O   0  0  0  0  0  0  0  0  0  0  0  0
    0.7431   -0.9270   -0.4849 H   0  0  0  0  0  0  0  0  0  0  0  0
    0.5858    0.8248   -0.5345 H   0  0  0  0  0  0  0  0  0  0  0  0
    0.6175   -0.0115    1.0350 H   0  0  0  0  0  0  0  0  0  0  0  0
    3.0512    0.1501   -0.9181 H   0  0  0  0  0  0  0  0  0  0  0  0
    2.9038    0.2304    2.1618 H   0  0  0  0  0  0  0  0  0  0  0  0
  1  2  1  0  0  0  0
  1  9  1  0  0  0  0
  2  3  2  0  0  0  0
  3 11  1  0  0  0  0
  4  3  1  0  0  0  0
  4  5  2  0  0  0  0
  6  4  2  0  0  0  0
  7  1  1  0  0  0  0
  8  1  1  0  0  0  0
 10  2  1  0  0  0  0
M  END
>  <HBA>
0

>  <HBD>
0

>  <TPSA>
45.82

>  <cid>
18477

>  <dipole>
4.71

>  <excitation_energy_1>
3.733

>  <excitation_energy_2>
4.217

>  <excitation_energy_3>
5.201

>  <excitation_energy_4>
5.988

>  <homo_energy>
-7.818

>  <homo_lumo_gap>
5.478

>  <logP>
1.32

>  <lumo_energy>
-2.34

>  <melting_point>
15.98

>  <molecular_refractivity>
24.17

>  <oscillator_strength_1>
0.0

>  <oscillator_strength_2>
0.0004

>  <oscillator_strength_3>
0.2369

>  <oscillator_strength_4>
0.1268

>  <open_babel_can_smiles>
C/C=C/N(=O)=O

>  <mulliken_charges>
11
1   -0.50088
2   -0.070498
3   0.015874
4   0.438679
5   -0.387675
6   -0.402455
7   0.181945
8   0.18198
9   0.172084
10   0.193039
11   0.177908

>  <lowdin_charges>
11
1   -0.434985
2   -0.095409
3   -0.152786
4   0.307357
5   -0.249259
6   -0.258279
7   0.174659
8   0.175367
9   0.164701
10   0.18604
11   0.182594

$$$$

