PCCDB-ID:  8176
public computational chemistry database (PCCDB) project, http://pccdb.org

 29 28  0  0  0  0  0  0  0  0999 V2000
    0.8824    0.2775   -0.2693 C   0  0  0  0  0  0  0  0  0  0  0  0
    2.4087    0.1860   -0.1703 C   0  0  0  0  0  0  0  0  0  0  0  0
    2.9865    0.9715    1.0140 C   0  0  0  0  0  0  0  0  0  0  0  0
    4.5145    0.8861    1.1200 C   0  0  0  0  0  0  0  0  0  0  0  0
    5.0896    1.6680    2.3077 C   0  0  0  0  0  0  0  0  0  0  0  0
    6.6176    1.5773    2.4158 C   0  0  0  0  0  0  0  0  0  0  0  0
    7.1822    2.3545    3.6129 C   0  0  0  0  0  0  0  0  0  0  0  0
    8.7008    2.2490    3.6991 C   0  0  0  0  0  0  0  0  0  0  0  0
    9.2663    2.4955    5.9952 C   0  0  0  0  0  0  0  0  0  0  0  0
    8.9097    1.3776    6.2801 O   0  0  0  0  0  0  0  0  0  0  0  0
    9.2302    3.0622    4.7792 O   0  0  0  0  0  0  0  0  0  0  0  0
    0.5017   -0.2923   -1.1245 H   0  0  0  0  0  0  0  0  0  0  0  0
    0.5550    1.3176   -0.3893 H   0  0  0  0  0  0  0  0  0  0  0  0
    0.4024   -0.1173    0.6347 H   0  0  0  0  0  0  0  0  0  0  0  0
    2.8591    0.5543   -1.1031 H   0  0  0  0  0  0  0  0  0  0  0  0
    2.7076   -0.8685   -0.0851 H   0  0  0  0  0  0  0  0  0  0  0  0
    2.5363    0.6023    1.9476 H   0  0  0  0  0  0  0  0  0  0  0  0
    2.6863    2.0268    0.9301 H   0  0  0  0  0  0  0  0  0  0  0  0
    4.9644    1.2585    0.1875 H   0  0  0  0  0  0  0  0  0  0  0  0
    4.8142   -0.1694    1.2006 H   0  0  0  0  0  0  0  0  0  0  0  0
    4.6389    1.2980    3.2401 H   0  0  0  0  0  0  0  0  0  0  0  0
    4.7946    2.7245    2.2257 H   0  0  0  0  0  0  0  0  0  0  0  0
    7.0698    1.9539    1.4862 H   0  0  0  0  0  0  0  0  0  0  0  0
    6.9126    0.5208    2.4936 H   0  0  0  0  0  0  0  0  0  0  0  0
    6.7489    1.9702    4.5441 H   0  0  0  0  0  0  0  0  0  0  0  0
    6.9036    3.4139    3.5387 H   0  0  0  0  0  0  0  0  0  0  0  0
    9.1803    2.6472    2.8010 H   0  0  0  0  0  0  0  0  0  0  0  0
    9.0183    1.2137    3.8497 H   0  0  0  0  0  0  0  0  0  0  0  0
    9.6859    3.2200    6.7103 H   0  0  0  0  0  0  0  0  0  0  0  0
  1  2  1  0  0  0  0
  1 14  1  0  0  0  0
  2 16  1  0  0  0  0
  2  3  1  0  0  0  0
  3  4  1  0  0  0  0
  3 17  1  0  0  0  0
  4 20  1  0  0  0  0
  4  5  1  0  0  0  0
  5  6  1  0  0  0  0
  5 21  1  0  0  0  0
  6 24  1  0  0  0  0
  6  7  1  0  0  0  0
  7  8  1  0  0  0  0
  7 25  1  0  0  0  0
  8 28  1  0  0  0  0
  8 11  1  0  0  0  0
  9 10  2  0  0  0  0
  9 29  1  0  0  0  0
 11  9  1  0  0  0  0
 12  1  1  0  0  0  0
 13  1  1  0  0  0  0
 15  2  1  0  0  0  0
 18  3  1  0  0  0  0
 19  4  1  0  0  0  0
 22  5  1  0  0  0  0
 23  6  1  0  0  0  0
 26  7  1  0  0  0  0
 27  8  1  0  0  0  0
M  END
>  <HBA>
2

>  <HBD>
0

>  <TPSA>
26.3

>  <cid>
8176

>  <dipole>
1.96

>  <excitation_energy_1>
5.806

>  <excitation_energy_2>
7.362

>  <excitation_energy_3>
7.58

>  <excitation_energy_4>
7.822

>  <homo_energy>
-7.614

>  <homo_lumo_gap>
7.859

>  <logP>
3.156

>  <lumo_energy>
0.245

>  <melting_point>
-43.78

>  <molecular_refractivity>
47.05

>  <oscillator_strength_1>
0.0012

>  <oscillator_strength_2>
0.0741

>  <oscillator_strength_3>
0.019

>  <oscillator_strength_4>
0.0131

>  <open_babel_can_smiles>
CCCCCCCCOC=O

>  <mulliken_charges>
29
1   -0.441421
2   -0.247079
3   -0.246232
4   -0.253901
5   -0.253013
6   -0.264822
7   -0.278299
8   -0.053916
9   0.388722
10   -0.42259
11   -0.417672
12   0.14194
13   0.14119
14   0.141805
15   0.129825
16   0.13062
17   0.128
18   0.12668
19   0.127113
20   0.128965
21   0.133392
22   0.129637
23   0.130066
24   0.137505
25   0.16082
26   0.144142
27   0.15329
28   0.169494
29   0.135741

>  <lowdin_charges>
29
1   -0.444748
2   -0.270748
3   -0.273197
4   -0.273244
5   -0.271183
6   -0.272918
7   -0.284542
8   -0.133432
9   0.085568
10   -0.255725
11   -0.185093
12   0.150168
13   0.145137
14   0.146981
15   0.13874
16   0.137557
17   0.138163
18   0.135928
19   0.137752
20   0.137091
21   0.140978
22   0.137475
23   0.138978
24   0.141001
25   0.155914
26   0.145854
27   0.153689
28   0.156727
29   0.14113

$$$$

