PCCDB-ID:  14484
public computational chemistry database (PCCDB) project, http://pccdb.org

 16 15  0  0  0  0  0  0  0  0999 V2000
    3.5599   -0.9846   -1.2410 C   0  0  0  0  0  0  0  0  0  0  0  0
    2.5051    1.6324   -2.3495 C   0  0  0  0  0  0  0  0  0  0  0  0
    2.6052    2.5189   -3.5946 C   0  0  0  0  0  0  0  0  0  0  0  0
    4.2303    0.3731   -1.2929 C   0  0  0  0  0  0  0  0  0  0  0  0
    3.8081    1.4783   -1.7422 N   0  0  0  0  0  0  0  0  0  0  0  0
    5.4873    0.3908   -0.7472 O   0  0  0  0  0  0  0  0  0  0  0  0
    3.5861    1.7733   -4.9628 S   0  0  0  0  0  0  0  0  0  0  0  0
    2.5873   -0.9905   -1.7331 H   0  0  0  0  0  0  0  0  0  0  0  0
    3.4158   -1.2924   -0.1976 H   0  0  0  0  0  0  0  0  0  0  0  0
    4.1909   -1.7378   -1.7290 H   0  0  0  0  0  0  0  0  0  0  0  0
    2.0095    0.6891   -2.6245 H   0  0  0  0  0  0  0  0  0  0  0  0
    1.8494    2.1485   -1.6309 H   0  0  0  0  0  0  0  0  0  0  0  0
    3.0381    3.4878   -3.3323 H   0  0  0  0  0  0  0  0  0  0  0  0
    1.6093    2.6895   -4.0152 H   0  0  0  0  0  0  0  0  0  0  0  0
    5.7155   -0.5006   -0.4421 H   0  0  0  0  0  0  0  0  0  0  0  0
    4.7436    1.7003   -4.2710 H   0  0  0  0  0  0  0  0  0  0  0  0
  1  9  1  0  0  0  0
  2  5  1  0  0  0  0
  2 12  1  0  0  0  0
  3 13  1  0  0  0  0
  3  2  1  0  0  0  0
  4  1  1  0  0  0  0
  4  6  1  0  0  0  0
  5  4  2  0  0  0  0
  6 15  1  0  0  0  0
  7 16  1  0  0  0  0
  7  3  1  0  0  0  0
  8  1  1  0  0  0  0
 10  1  1  0  0  0  0
 11  2  1  0  0  0  0
 14  3  1  0  0  0  0
M  END
>  <HBA>
3

>  <HBD>
2

>  <TPSA>
67.9

>  <cid>
14484

>  <dipole>
3.92

>  <excitation_energy_1>
5.32

>  <excitation_energy_2>
5.471

>  <excitation_energy_3>
5.714

>  <excitation_energy_4>
5.835

>  <homo_energy>
-6.196

>  <homo_lumo_gap>
6.667

>  <logP>
0.443

>  <lumo_energy>
0.471

>  <melting_point>
43.59

>  <molecular_refractivity>
32.27

>  <oscillator_strength_1>
0.0084

>  <oscillator_strength_2>
0.0097

>  <oscillator_strength_3>
0.005

>  <oscillator_strength_4>
0.0007

>  <open_babel_can_smiles>
C/C(=N\CCS)/O

>  <mulliken_charges>
16
1   -0.556475
2   -0.134804
3   -0.40238
4   0.496617
5   -0.414125
6   -0.576294
7   -0.112197
8   0.186214
9   0.17674
10   0.174452
11   0.131905
12   0.150195
13   0.189177
14   0.170329
15   0.404633
16   0.116013

>  <lowdin_charges>
16
1   -0.482458
2   -0.203673
3   -0.371862
4   0.135386
5   -0.209294
6   -0.370631
7   -0.105583
8   0.174964
9   0.169317
10   0.170408
11   0.131094
12   0.151761
13   0.16696
14   0.165697
15   0.352709
16   0.125203

$$$$

