PCCDB-ID:  21506
public computational chemistry database (PCCDB) project, http://pccdb.org

 23 23  0  0  0  0  0  0  0  0999 V2000
    2.0054   -0.8772    1.1491 C   0  0  0  0  0  0  0  0  0  0  0  0
   -2.0145   -2.5793   -0.5619 C   0  0  0  0  0  0  0  0  0  0  0  0
   -3.3472   -2.9754   -0.8254 C   0  0  0  0  0  0  0  0  0  0  0  0
    0.1530   -2.9965   -1.9378 C   0  0  0  0  0  0  0  0  0  0  0  0
   -1.2482   -3.0555   -1.6083 C   0  0  0  0  0  0  0  0  0  0  0  0
   -3.2979   -3.6633   -2.0097 C   0  0  0  0  0  0  0  0  0  0  0  0
    3.2403   -1.6988   -0.7476 C   0  0  0  0  0  0  0  0  0  0  0  0
    3.2017   -1.0708    0.3485 N   0  0  0  0  0  0  0  0  0  0  0  0
    0.9733   -2.3772   -1.1580 N   0  0  0  0  0  0  0  0  0  0  0  0
    2.2660   -2.3521   -1.5038 N   0  0  0  0  0  0  0  0  0  0  0  0
   -4.3297   -4.2937   -2.7609 N   0  0  0  0  0  0  0  0  0  0  0  0
    4.4165   -1.8405   -1.4250 O   0  0  0  0  0  0  0  0  0  0  0  0
   -5.4677   -4.2165   -2.2831 O   0  0  0  0  0  0  0  0  0  0  0  0
   -4.0213   -4.8592   -3.8107 O   0  0  0  0  0  0  0  0  0  0  0  0
   -2.0372   -3.7231   -2.5006 O   0  0  0  0  0  0  0  0  0  0  0  0
    2.2894   -0.3318    2.0543 H   0  0  0  0  0  0  0  0  0  0  0  0
    1.5409   -1.8247    1.4497 H   0  0  0  0  0  0  0  0  0  0  0  0
    1.2408   -0.2917    0.6231 H   0  0  0  0  0  0  0  0  0  0  0  0
   -1.6456   -2.0165    0.2828 H   0  0  0  0  0  0  0  0  0  0  0  0
   -4.2345   -2.7909   -0.2393 H   0  0  0  0  0  0  0  0  0  0  0  0
    0.4661   -3.4947   -2.8616 H   0  0  0  0  0  0  0  0  0  0  0  0
    2.5800   -2.7960   -2.3664 H   0  0  0  0  0  0  0  0  0  0  0  0
    5.0755   -1.3869   -0.8709 H   0  0  0  0  0  0  0  0  0  0  0  0
  1 17  1  0  0  0  0
  1 16  1  0  0  0  0
  2 19  1  0  0  0  0
  3  2  1  0  0  0  0
  3 20  1  0  0  0  0
  4  5  1  0  0  0  0
  4  9  2  0  0  0  0
  5  2  2  0  0  0  0
  6  3  2  0  0  0  0
  7  8  2  0  0  0  0
  8  1  1  0  0  0  0
 10  9  1  0  0  0  0
 10  7  1  0  0  0  0
 11 13  2  0  0  0  0
 11  6  1  0  0  0  0
 12 23  1  0  0  0  0
 12  7  1  0  0  0  0
 14 11  2  0  0  0  0
 15  6  1  0  0  0  0
 15  5  1  0  0  0  0
 18  1  1  0  0  0  0
 21  4  1  0  0  0  0
 22 10  1  0  0  0  0
M  END
>  <HBA>
5

>  <HBD>
2

>  <TPSA>
112.45

>  <cid>
21506

>  <dipole>
4.56

>  <excitation_energy_1>
3.236

>  <excitation_energy_2>
3.696

>  <excitation_energy_3>
3.848

>  <excitation_energy_4>
4.157

>  <homo_energy>
-6.212

>  <homo_lumo_gap>
3.508

>  <logP>
1.756

>  <lumo_energy>
-2.705

>  <melting_point>
148.8

>  <molecular_refractivity>
51.99

>  <oscillator_strength_1>
0.5561

>  <oscillator_strength_2>
0.0

>  <oscillator_strength_3>
0.0001

>  <oscillator_strength_4>
0.1608

>  <open_babel_can_smiles>
C/N=C(\N/N=C/c1ccc(o1)N(=O)=O)/O

>  <mulliken_charges>
23
1   -0.309813
2   -0.197967
3   -0.142977
4   -0.013742
5   0.369276
6   0.53327
7   0.706601
8   -0.466333
9   -0.205071
10   -0.465578
11   0.327251
12   -0.615561
13   -0.407036
14   -0.394557
15   -0.460546
16   0.153173
17   0.152457
18   0.153332
19   0.175932
20   0.191003
21   0.152589
22   0.340514
23   0.423781

>  <lowdin_charges>
23
1   -0.353993
2   -0.186568
3   -0.149144
4   -0.138966
5   0.095506
6   0.066852
7   0.160504
8   -0.256155
9   -0.054803
10   -0.176511
11   0.301497
12   -0.384497
13   -0.258305
14   -0.242548
15   -0.065966
16   0.150471
17   0.148039
18   0.149814
19   0.187803
20   0.196848
21   0.154954
22   0.283431
23   0.371737

$$$$

