PCCDB-ID:  32486
public computational chemistry database (PCCDB) project, http://pccdb.org

 21 22  0  0  0  0  0  0  0  0999 V2000
    0.9244    0.6250    0.1422 C   0  0  0  0  0  0  0  0  0  0  0  0
    0.8727   -0.7920    0.1678 C   0  0  0  0  0  0  0  0  0  0  0  0
   -2.3078    2.6692   -0.0138 C   0  0  0  0  0  0  0  0  0  0  0  0
    0.9441    6.0754    0.0930 C   0  0  0  0  0  0  0  0  0  0  0  0
   -0.9628    2.3888    0.0466 C   0  0  0  0  0  0  0  0  0  0  0  0
   -0.3807    1.0646    0.0928 C   0  0  0  0  0  0  0  0  0  0  0  0
   -0.4583   -1.1084    0.1317 C   0  0  0  0  0  0  0  0  0  0  0  0
   -0.7977    4.5929    0.0115 C   0  0  0  0  0  0  0  0  0  0  0  0
   -0.3187    5.8890    0.0055 N   0  0  0  0  0  0  0  0  0  0  0  0
   -0.1183    3.4791    0.0599 N   0  0  0  0  0  0  0  0  0  0  0  0
   -1.1147   -2.3711    0.1344 N   0  0  0  0  0  0  0  0  0  0  0  0
    1.4684    7.3013    0.0862 O   0  0  0  0  0  0  0  0  0  0  0  0
   -0.3773   -3.3631    0.1770 O   0  0  0  0  0  0  0  0  0  0  0  0
   -2.3459   -2.3858    0.0947 O   0  0  0  0  0  0  0  0  0  0  0  0
   -1.2354    0.0021    0.0862 O   0  0  0  0  0  0  0  0  0  0  0  0
   -2.5488    4.3778   -0.0571 S   0  0  0  0  0  0  0  0  0  0  0  0
    1.7990    1.2577    0.1571 H   0  0  0  0  0  0  0  0  0  0  0  0
    1.6889   -1.4970    0.2069 H   0  0  0  0  0  0  0  0  0  0  0  0
   -3.1306    1.9692   -0.0348 H   0  0  0  0  0  0  0  0  0  0  0  0
    1.7037    5.2988    0.1798 H   0  0  0  0  0  0  0  0  0  0  0  0
    0.7259    7.9318    0.0042 H   0  0  0  0  0  0  0  0  0  0  0  0
  1 17  1  0  0  0  0
  1  2  1  0  0  0  0
  2 18  1  0  0  0  0
  3  5  2  0  0  0  0
  4 20  1  0  0  0  0
  5 10  1  0  0  0  0
  5  6  1  0  0  0  0
  6  1  2  0  0  0  0
  7 11  1  0  0  0  0
  7  2  2  0  0  0  0
  8 10  2  0  0  0  0
  9  8  1  0  0  0  0
  9  4  2  0  0  0  0
 11 13  2  0  0  0  0
 12  4  1  0  0  0  0
 14 11  2  0  0  0  0
 15  6  1  0  0  0  0
 15  7  1  0  0  0  0
 16  3  1  0  0  0  0
 16  8  1  0  0  0  0
 19  3  1  0  0  0  0
 21 12  1  0  0  0  0
M  END
>  <HBA>
5

>  <HBD>
1

>  <TPSA>
129.19

>  <cid>
32486

>  <dipole>
6.29

>  <excitation_energy_1>
3.273

>  <excitation_energy_2>
3.72

>  <excitation_energy_3>
3.983

>  <excitation_energy_4>
4.238

>  <homo_energy>
-6.202

>  <homo_lumo_gap>
3.682

>  <logP>
3.112

>  <lumo_energy>
-2.52

>  <melting_point>
151.3

>  <molecular_refractivity>
58.53

>  <oscillator_strength_1>
0.3564

>  <oscillator_strength_2>
0.0

>  <oscillator_strength_3>
0.0984

>  <oscillator_strength_4>
0.0003

>  <open_babel_can_smiles>
O/C=N/c1scc(n1)c1ccc(o1)N(=O)=O

>  <mulliken_charges>
21
1   -0.193036
2   -0.147111
3   -0.385099
4   0.315496
5   0.262514
6   0.335908
7   0.540542
8   0.274307
9   -0.494741
10   -0.497373
11   0.322763
12   -0.531558
13   -0.408224
14   -0.397481
15   -0.465353
16   0.284898
17   0.17193
18   0.188487
19   0.20717
20   0.193672
21   0.42229

>  <lowdin_charges>
21
1   -0.18926
2   -0.151146
3   -0.330184
4   0.058728
5   0.008533
6   0.101657
7   0.067323
8   -0.037702
9   -0.214209
10   -0.189511
11   0.30086
12   -0.317059
13   -0.261142
14   -0.2429
15   -0.067569
16   0.336971
17   0.18719
18   0.196055
19   0.203769
20   0.171027
21   0.368567

$$$$

