PCCDB-ID:  10566
public computational chemistry database (PCCDB) project, http://pccdb.org

 16 15  0  0  0  0  0  0  0  0999 V2000
    1.1692    0.5646   -0.3318 C   0  0  0  0  0  0  0  0  0  0  0  0
    3.0434    0.5700    1.2841 C   0  0  0  0  0  0  0  0  0  0  0  0
    4.3096   -1.3657   -0.4893 C   0  0  0  0  0  0  0  0  0  0  0  0
    2.4343   -1.3724   -2.1041 C   0  0  0  0  0  0  0  0  0  0  0  0
    2.3810    0.0937    0.0101 C   0  0  0  0  0  0  0  0  0  0  0  0
    3.0984   -0.8935   -0.8320 C   0  0  0  0  0  0  0  0  0  0  0  0
    0.6513    1.2875    0.2923 H   0  0  0  0  0  0  0  0  0  0  0  0
    0.6516    0.2558   -1.2336 H   0  0  0  0  0  0  0  0  0  0  0  0
    2.4109    1.2952    1.8036 H   0  0  0  0  0  0  0  0  0  0  0  0
    4.0094    1.0484    1.0804 H   0  0  0  0  0  0  0  0  0  0  0  0
    3.2373   -0.2631    1.9711 H   0  0  0  0  0  0  0  0  0  0  0  0
    4.8271   -2.0891   -1.1132 H   0  0  0  0  0  0  0  0  0  0  0  0
    4.8280   -1.0556    0.4115 H   0  0  0  0  0  0  0  0  0  0  0  0
    3.0683   -2.0950   -2.6255 H   0  0  0  0  0  0  0  0  0  0  0  0
    2.2346   -0.5404   -2.7907 H   0  0  0  0  0  0  0  0  0  0  0  0
    1.4710   -1.8549   -1.8972 H   0  0  0  0  0  0  0  0  0  0  0  0
  1  5  2  0  0  0  0
  1  7  1  0  0  0  0
  2  9  1  0  0  0  0
  2 11  1  0  0  0  0
  3 13  1  0  0  0  0
  4 16  1  0  0  0  0
  4  6  1  0  0  0  0
  5  2  1  0  0  0  0
  6  3  2  0  0  0  0
  6  5  1  0  0  0  0
  8  1  1  0  0  0  0
 10  2  1  0  0  0  0
 12  3  1  0  0  0  0
 14  4  1  0  0  0  0
 15  4  1  0  0  0  0
M  END
>  <HBA>
0

>  <HBD>
0

>  <TPSA>
0.0

>  <cid>
10566

>  <dipole>
0.0

>  <excitation_energy_1>
5.392

>  <excitation_energy_2>
5.853

>  <excitation_energy_3>
6.259

>  <excitation_energy_4>
6.302

>  <homo_energy>
-6.117

>  <homo_lumo_gap>
5.644

>  <logP>
2.139

>  <lumo_energy>
-0.473

>  <melting_point>
-60.92

>  <molecular_refractivity>
30.01

>  <oscillator_strength_1>
0.486

>  <oscillator_strength_2>
0.0

>  <oscillator_strength_3>
0.0048

>  <oscillator_strength_4>
0.0339

>  <open_babel_can_smiles>
CC(=C)C(=C)C

>  <mulliken_charges>
16
1   -0.410985
2   -0.528506
3   -0.411097
4   -0.528548
5   0.194101
6   0.194201
7   0.135898
8   0.139528
9   0.15129
10   0.15925
11   0.159429
12   0.135911
13   0.139534
14   0.151294
15   0.159308
16   0.159389

>  <lowdin_charges>
16
1   -0.354636
2   -0.443547
3   -0.354652
4   -0.443595
5   0.005802
6   0.005809
7   0.157986
8   0.159282
9   0.158242
10   0.157955
11   0.158916
12   0.15799
13   0.159289
14   0.158246
15   0.158845
16   0.158067

$$$$

