PCCDB-ID:  17587
public computational chemistry database (PCCDB) project, http://pccdb.org

 16 15  0  0  0  0  0  0  0  0999 V2000
    2.4980   -0.7684    0.5343 C   0  0  0  0  0  0  0  0  0  0  0  0
    2.8937    1.1278   -3.9494 C   0  0  0  0  0  0  0  0  0  0  0  0
    0.7309    0.2041   -3.2859 C   0  0  0  0  0  0  0  0  0  0  0  0
    1.9301   -0.5140   -0.6470 C   0  0  0  0  0  0  0  0  0  0  0  0
    2.7296    0.1630   -1.7190 C   0  0  0  0  0  0  0  0  0  0  0  0
    2.1176    0.4430   -2.9249 N   0  0  0  0  0  0  0  0  0  0  0  0
    3.9085    0.4552   -1.5198 O   0  0  0  0  0  0  0  0  0  0  0  0
    1.9509   -1.2564    1.3355 H   0  0  0  0  0  0  0  0  0  0  0  0
    3.5313   -0.4876    0.7133 H   0  0  0  0  0  0  0  0  0  0  0  0
    2.9157    0.5327   -4.8720 H   0  0  0  0  0  0  0  0  0  0  0  0
    3.9074    1.2683   -3.5787 H   0  0  0  0  0  0  0  0  0  0  0  0
    2.4481    2.1051   -4.1809 H   0  0  0  0  0  0  0  0  0  0  0  0
    0.6817   -0.3453   -4.2355 H   0  0  0  0  0  0  0  0  0  0  0  0
    0.1921    1.1533   -3.4196 H   0  0  0  0  0  0  0  0  0  0  0  0
    0.2067   -0.3822   -2.5351 H   0  0  0  0  0  0  0  0  0  0  0  0
    0.8972   -0.7971   -0.8149 H   0  0  0  0  0  0  0  0  0  0  0  0
  1  9  1  0  0  0  0
  1  8  1  0  0  0  0
  2 11  1  0  0  0  0
  2  6  1  0  0  0  0
  3  6  1  0  0  0  0
  3 15  1  0  0  0  0
  4  1  2  0  0  0  0
  5  7  2  0  0  0  0
  5  4  1  0  0  0  0
  6  5  1  0  0  0  0
 10  2  1  0  0  0  0
 12  2  1  0  0  0  0
 13  3  1  0  0  0  0
 14  3  1  0  0  0  0
 16  4  1  0  0  0  0
M  END
>  <HBA>
2

>  <HBD>
0

>  <TPSA>
20.31

>  <cid>
17587

>  <dipole>
3.43

>  <excitation_energy_1>
4.417

>  <excitation_energy_2>
4.948

>  <excitation_energy_3>
5.847

>  <excitation_energy_4>
6.18

>  <homo_energy>
-6.397

>  <homo_lumo_gap>
5.614

>  <logP>
0.261

>  <lumo_energy>
-0.784

>  <melting_point>
-22.47

>  <molecular_refractivity>
28.77

>  <oscillator_strength_1>
0.0002

>  <oscillator_strength_2>
0.0977

>  <oscillator_strength_3>
0.0202

>  <oscillator_strength_4>
0.3503

>  <open_babel_can_smiles>
C=CC(=O)N(C)C

>  <mulliken_charges>
16
1   -0.305574
2   -0.322827
3   -0.313419
4   -0.145539
5   0.587367
6   -0.425373
7   -0.532391
8   0.146051
9   0.183426
10   0.14977
11   0.21029
12   0.14962
13   0.159775
14   0.158807
15   0.169443
16   0.130575

>  <lowdin_charges>
16
1   -0.271971
2   -0.356735
3   -0.351409
4   -0.197191
5   0.157843
6   -0.104267
7   -0.322528
8   0.163843
9   0.180122
10   0.148067
11   0.18676
12   0.146763
13   0.15207
14   0.149613
15   0.164346
16   0.154674

$$$$

