PCCDB-ID:  73098
public computational chemistry database (PCCDB) project, http://pccdb.org

 15 15  0  0  0  0  0  0  0  0999 V2000
   -1.4545   -0.0185    0.0546 C   0  0  0  0  0  0  0  0  0  0  0  0
   -0.4320   -1.0068    0.0932 C   0  0  0  0  0  0  0  0  0  0  0  0
   -0.9709    1.2319   -0.2262 C   0  0  0  0  0  0  0  0  0  0  0  0
    0.8197   -0.5034   -0.1644 C   0  0  0  0  0  0  0  0  0  0  0  0
    2.0585   -1.3166   -0.1954 C   0  0  0  0  0  0  0  0  0  0  0  0
    4.3593   -1.4533   -0.9196 N   0  0  0  0  0  0  0  0  0  0  0  0
    3.1797   -0.7053   -0.7103 N   0  0  0  0  0  0  0  0  0  0  0  0
    2.0867   -2.4712    0.2209 O   0  0  0  0  0  0  0  0  0  0  0  0
    0.7480    1.2248   -0.4401 S   0  0  0  0  0  0  0  0  0  0  0  0
   -2.5042   -0.2250    0.2319 H   0  0  0  0  0  0  0  0  0  0  0  0
   -0.5886   -2.0591    0.2985 H   0  0  0  0  0  0  0  0  0  0  0  0
   -1.5188    2.1617   -0.3036 H   0  0  0  0  0  0  0  0  0  0  0  0
    4.0656   -2.4119   -1.1220 H   0  0  0  0  0  0  0  0  0  0  0  0
    4.8414   -1.5075   -0.0215 H   0  0  0  0  0  0  0  0  0  0  0  0
    3.0747    0.0659   -1.3568 H   0  0  0  0  0  0  0  0  0  0  0  0
  1  2  1  0  0  0  0
  1 10  1  0  0  0  0
  2 11  1  0  0  0  0
  3  1  2  0  0  0  0
  4  2  2  0  0  0  0
  5  4  1  0  0  0  0
  5  8  2  0  0  0  0
  6  7  1  0  0  0  0
  6 14  1  0  0  0  0
  7  5  1  0  0  0  0
  9  3  1  0  0  0  0
  9  4  1  0  0  0  0
 12  3  1  0  0  0  0
 13  6  1  0  0  0  0
 15  7  1  0  0  0  0
M  END
>  <HBA>
4

>  <HBD>
2

>  <TPSA>
83.36

>  <cid>
73098

>  <dipole>
2.35

>  <excitation_energy_1>
4.61

>  <excitation_energy_2>
4.815

>  <excitation_energy_3>
5.119

>  <excitation_energy_4>
5.244

>  <homo_energy>
-6.683

>  <homo_lumo_gap>
5.328

>  <logP>
1.443

>  <lumo_energy>
-1.355

>  <melting_point>
119.53

>  <molecular_refractivity>
35.22

>  <oscillator_strength_1>
0.0074

>  <oscillator_strength_2>
0.1537

>  <oscillator_strength_3>
0.0942

>  <oscillator_strength_4>
0.0886

>  <open_babel_can_smiles>
NNC(=O)c1cccs1

>  <mulliken_charges>
15
1   -0.100135
2   -0.100291
3   -0.338191
4   -0.225629
5   0.590435
6   -0.562353
7   -0.515549
8   -0.51657
9   0.259882
10   0.151932
11   0.172366
12   0.182014
13   0.327105
14   0.327739
15   0.347243

>  <lowdin_charges>
15
1   -0.175211
2   -0.144642
3   -0.305368
4   -0.199251
5   0.149867
6   -0.453675
7   -0.237946
8   -0.306857
9   0.313272
10   0.169671
11   0.182798
12   0.186797
13   0.265152
14   0.266768
15   0.288624

$$$$

