PCCDB-ID:  70920
public computational chemistry database (PCCDB) project, http://pccdb.org

 27 26  0  0  0  0  0  0  0  0999 V2000
    4.3606   -3.4355   -1.4603 C   0  0  0  0  0  0  0  0  0  0  0  0
    6.4717   -0.3056    2.2439 C   0  0  0  0  0  0  0  0  0  0  0  0
    7.0759   -1.8819    0.3639 C   0  0  0  0  0  0  0  0  0  0  0  0
    7.2109    0.5996    0.0436 C   0  0  0  0  0  0  0  0  0  0  0  0
    2.6748   -0.6844   -0.2201 C   0  0  0  0  0  0  0  0  0  0  0  0
    3.7150   -1.9456    1.6770 C   0  0  0  0  0  0  0  0  0  0  0  0
    4.2105   -2.5321   -0.6706 C   0  0  0  0  0  0  0  0  0  0  0  0
    6.4133   -0.5344    0.7187 C   0  0  0  0  0  0  0  0  0  0  0  0
    3.9638   -1.3973    0.2580 C   0  0  0  0  0  0  0  0  0  0  0  0
    5.0171   -0.3576    0.2294 N   0  0  0  0  0  0  0  0  0  0  0  0
    4.5166   -4.2349   -2.1485 H   0  0  0  0  0  0  0  0  0  0  0  0
    7.5144   -0.2501    2.5792 H   0  0  0  0  0  0  0  0  0  0  0  0
    5.9928   -1.1117    2.8049 H   0  0  0  0  0  0  0  0  0  0  0  0
    5.9718    0.6333    2.5023 H   0  0  0  0  0  0  0  0  0  0  0  0
    8.1133   -1.8930    0.7208 H   0  0  0  0  0  0  0  0  0  0  0  0
    7.0846   -2.0484   -0.7179 H   0  0  0  0  0  0  0  0  0  0  0  0
    6.5591   -2.7298    0.8232 H   0  0  0  0  0  0  0  0  0  0  0  0
    8.2451    0.6125    0.4034 H   0  0  0  0  0  0  0  0  0  0  0  0
    6.7566    1.5724    0.2614 H   0  0  0  0  0  0  0  0  0  0  0  0
    7.2393    0.4677   -1.0459 H   0  0  0  0  0  0  0  0  0  0  0  0
    1.8369   -1.3874   -0.2625 H   0  0  0  0  0  0  0  0  0  0  0  0
    2.8123   -0.2650   -1.2230 H   0  0  0  0  0  0  0  0  0  0  0  0
    2.4332    0.1310    0.4684 H   0  0  0  0  0  0  0  0  0  0  0  0
    2.8274   -2.5859    1.6679 H   0  0  0  0  0  0  0  0  0  0  0  0
    3.5435   -1.1150    2.3691 H   0  0  0  0  0  0  0  0  0  0  0  0
    4.5515   -2.5456    2.0418 H   0  0  0  0  0  0  0  0  0  0  0  0
    5.0646   -0.0250   -0.7312 H   0  0  0  0  0  0  0  0  0  0  0  0
  1  7  3  0  0  0  0
  2 14  1  0  0  0  0
  2 12  1  0  0  0  0
  2 13  1  0  0  0  0
  3  8  1  0  0  0  0
  3 15  1  0  0  0  0
  3 17  1  0  0  0  0
  4 19  1  0  0  0  0
  4 18  1  0  0  0  0
  4  8  1  0  0  0  0
  5  9  1  0  0  0  0
  5 23  1  0  0  0  0
  6 26  1  0  0  0  0
  6 25  1  0  0  0  0
  7  9  1  0  0  0  0
  8  2  1  0  0  0  0
  9  6  1  0  0  0  0
 10  9  1  0  0  0  0
 10  8  1  0  0  0  0
 11  1  1  0  0  0  0
 16  3  1  0  0  0  0
 20  4  1  0  0  0  0
 21  5  1  0  0  0  0
 22  5  1  0  0  0  0
 24  6  1  0  0  0  0
 27 10  1  0  0  0  0
M  END
>  <HBA>
1

>  <HBD>
1

>  <TPSA>
12.03

>  <cid>
70920

>  <dipole>
0.36

>  <excitation_energy_1>
5.474

>  <excitation_energy_2>
5.939

>  <excitation_energy_3>
6.018

>  <excitation_energy_4>
6.099

>  <homo_energy>
-5.897

>  <homo_lumo_gap>
7.388

>  <logP>
2.177

>  <lumo_energy>
1.491

>  <melting_point>
38.02

>  <molecular_refractivity>
46.42

>  <oscillator_strength_1>
0.0148

>  <oscillator_strength_2>
0.0191

>  <oscillator_strength_3>
0.0069

>  <oscillator_strength_4>
0.0034

>  <open_babel_can_smiles>
C#CC(NC(C)(C)C)(C)C

>  <mulliken_charges>
27
1   -0.517478
2   -0.433077
3   -0.444778
4   -0.465138
5   -0.431156
6   -0.446332
7   0.349458
8   0.22697
9   0.057221
10   -0.571306
11   0.183552
12   0.13236
13   0.140999
14   0.147206
15   0.132435
16   0.145797
17   0.148504
18   0.14521
19   0.153704
20   0.13652
21   0.149879
22   0.143692
23   0.155643
24   0.151684
25   0.156681
26   0.15845
27   0.2933

>  <lowdin_charges>
27
1   -0.275235
2   -0.449563
3   -0.453943
4   -0.442867
5   -0.433326
6   -0.439727
7   -0.047901
8   0.075681
9   0.080963
10   -0.353625
11   0.202584
12   0.144645
13   0.150699
14   0.153193
15   0.145886
16   0.15099
17   0.152849
18   0.151464
19   0.153724
20   0.142636
21   0.155445
22   0.150518
23   0.157838
24   0.15813
25   0.158334
26   0.155986
27   0.254623

$$$$

