PCCDB-ID:  19208
public computational chemistry database (PCCDB) project, http://pccdb.org

 12 12  0  0  0  0  0  0  0  0999 V2000
    1.0536    0.0210    0.0884 C   0  0  0  0  0  0  0  0  0  0  0  0
    4.5202   -1.0935    0.0876 C   0  0  0  0  0  0  0  0  0  0  0  0
    4.5105    1.1417    0.0795 C   0  0  0  0  0  0  0  0  0  0  0  0
    2.5547    0.0157    0.0864 C   0  0  0  0  0  0  0  0  0  0  0  0
    5.2491    0.0256    0.0826 N   0  0  0  0  0  0  0  0  0  0  0  0
    3.1864   -1.1693    0.0901 N   0  0  0  0  0  0  0  0  0  0  0  0
    3.1796    1.2074    0.0808 N   0  0  0  0  0  0  0  0  0  0  0  0
    0.6685   -0.9998    0.0881 H   0  0  0  0  0  0  0  0  0  0  0  0
    0.6798    0.5580   -0.7904 H   0  0  0  0  0  0  0  0  0  0  0  0
    0.6823    0.5559    0.9697 H   0  0  0  0  0  0  0  0  0  0  0  0
    5.0644   -2.0367    0.0897 H   0  0  0  0  0  0  0  0  0  0  0  0
    5.0498    2.0878    0.0754 H   0  0  0  0  0  0  0  0  0  0  0  0
  1 10  1  0  0  0  0
  2 11  1  0  0  0  0
  2  6  1  0  0  0  0
  3  7  1  0  0  0  0
  3  5  2  0  0  0  0
  4  1  1  0  0  0  0
  4  6  2  0  0  0  0
  5  2  2  0  0  0  0
  7  4  1  0  0  0  0
  8  1  1  0  0  0  0
  9  1  1  0  0  0  0
 12  3  1  0  0  0  0
M  RAD  1   7   2
M  END
>  <HBA>
3

>  <HBD>
0

>  <TPSA>
38.67

>  <cid>
19208

>  <dipole>
0.8

>  <excitation_energy_1>
4.504

>  <excitation_energy_2>
4.564

>  <excitation_energy_3>
4.643

>  <excitation_energy_4>
4.765

>  <homo_energy>
-7.331

>  <homo_lumo_gap>
5.929

>  <logP>
0.18

>  <lumo_energy>
-1.401

>  <melting_point>
53.67

>  <molecular_refractivity>
24.79

>  <oscillator_strength_1>
0.0026

>  <oscillator_strength_2>
0.0038

>  <oscillator_strength_3>
0.0

>  <oscillator_strength_4>
0.0075

>  <open_babel_can_smiles>
CC1=NC=[N]=C[N]1

>  <mulliken_charges>
12
1   -0.503845
2   0.180992
3   0.179526
4   0.424275
5   -0.365734
6   -0.399332
7   -0.396043
8   0.180169
9   0.182384
10   0.182415
11   0.167764
12   0.16743

>  <lowdin_charges>
12
1   -0.447424
2   -0.012056
3   -0.01286
4   0.121206
5   -0.168455
6   -0.172181
7   -0.171266
8   0.172065
9   0.178302
10   0.178321
11   0.167289
12   0.167059

$$$$

