PCCDB-ID:  61160
public computational chemistry database (PCCDB) project, http://pccdb.org

 21 20  0  0  1  0  0  0  0  0999 V2000
    2.2117    0.9771   -1.2726 C   0  0  0  0  0  0  0  0  0  0  0  0
    1.4702   -0.0746    0.9304 C   0  0  0  0  0  0  0  0  0  0  0  0
    3.9411   -3.1183   -2.4745 C   0  0  0  0  0  0  0  0  0  0  0  0
    2.6165    0.1823   -0.0365 C   0  0  0  0  0  0  0  0  0  0  0  0
    4.7475   -2.6664   -1.2491 C   0  0  2  0  0  0  0  0  0  0  0  0
    4.3721   -1.2444   -0.8339 C   0  0  0  0  0  0  0  0  0  0  0  0
    6.1327   -2.7203   -1.5106 O   0  0  0  0  0  0  0  0  0  0  0  0
    5.1723   -0.3265   -0.8673 O   0  0  0  0  0  0  0  0  0  0  0  0
    3.0959   -1.1400   -0.4471 O   0  0  0  0  0  0  0  0  0  0  0  0
    1.8375    1.9635   -0.9766 H   0  0  0  0  0  0  0  0  0  0  0  0
    1.4185    0.4588   -1.8228 H   0  0  0  0  0  0  0  0  0  0  0  0
    3.0686    1.1227   -1.9360 H   0  0  0  0  0  0  0  0  0  0  0  0
    1.0797    0.8768    1.3072 H   0  0  0  0  0  0  0  0  0  0  0  0
    1.8062   -0.6718    1.7836 H   0  0  0  0  0  0  0  0  0  0  0  0
    0.6538   -0.6096    0.4334 H   0  0  0  0  0  0  0  0  0  0  0  0
    2.8690   -3.1412   -2.2567 H   0  0  0  0  0  0  0  0  0  0  0  0
    4.2677   -4.1210   -2.7647 H   0  0  0  0  0  0  0  0  0  0  0  0
    4.1222   -2.4436   -3.3182 H   0  0  0  0  0  0  0  0  0  0  0  0
    3.4471    0.6820    0.4697 H   0  0  0  0  0  0  0  0  0  0  0  0
    4.5094   -3.3284   -0.4027 H   0  0  0  0  0  0  0  0  0  0  0  0
    6.4510   -1.8004   -1.4414 H   0  0  0  0  0  0  0  0  0  0  0  0
  1 10  1  0  0  0  0
  1  4  1  0  0  0  0
  2 13  1  0  0  0  0
  2 14  1  0  0  0  0
  3 16  1  0  0  0  0
  3  5  1  0  0  0  0
  4 19  1  0  0  0  0
  4  2  1  0  0  0  0
  5  6  1  0  0  0  0
  5 20  1  1  0  0  0
  6  9  1  0  0  0  0
  7 21  1  0  0  0  0
  7  5  1  0  0  0  0
  8  6  2  0  0  0  0
  9  4  1  0  0  0  0
 11  1  1  0  0  0  0
 12  1  1  0  0  0  0
 15  2  1  0  0  0  0
 17  3  1  0  0  0  0
 18  3  1  0  0  0  0
M  END
>  <HBA>
3

>  <HBD>
1

>  <TPSA>
46.53

>  <cid>
61160

>  <dipole>
3.27

>  <excitation_energy_1>
5.984

>  <excitation_energy_2>
6.193

>  <excitation_energy_3>
6.912

>  <excitation_energy_4>
7.386

>  <homo_energy>
-7.157

>  <homo_lumo_gap>
7.225

>  <logP>
0.319

>  <lumo_energy>
0.068

>  <melting_point>
4.5

>  <molecular_refractivity>
33.4

>  <oscillator_strength_1>
0.0012

>  <oscillator_strength_2>
0.0304

>  <oscillator_strength_3>
0.0077

>  <oscillator_strength_4>
0.0205

>  <open_babel_can_smiles>
CC(OC(=O)[C@H](O)C)C

>  <mulliken_charges>
21
1   -0.459622
2   -0.453318
3   -0.4495
4   0.122518
5   0.086728
6   0.599634
7   -0.638208
8   -0.499303
9   -0.465256
10   0.152876
11   0.154672
12   0.174926
13   0.153668
14   0.161444
15   0.158321
16   0.153263
17   0.16783
18   0.152342
19   0.16675
20   0.151197
21   0.409037

>  <lowdin_charges>
21
1   -0.454895
2   -0.448808
3   -0.447827
4   0.013738
5   -0.021315
6   0.186411
7   -0.462054
8   -0.279188
9   -0.183435
10   0.159559
11   0.15686
12   0.167374
13   0.159643
14   0.161513
15   0.158794
16   0.155826
17   0.163806
18   0.155832
19   0.157981
20   0.152003
21   0.348183

$$$$

