PCCDB-ID:  69609
public computational chemistry database (PCCDB) project, http://pccdb.org

 14 13  0  0  0  0  0  0  0  0999 V2000
    1.0626    0.3478   -0.1297 C   0  0  0  0  0  0  0  0  0  0  0  0
    2.8527   -0.4883    1.9889 C   0  0  0  0  0  0  0  0  0  0  0  0
    2.8490   -1.8963   -0.5449 C   0  0  0  0  0  0  0  0  0  0  0  0
    3.8369    0.7239   -0.3446 O   0  0  0  0  0  0  0  0  0  0  0  0
    2.7837   -0.2106    0.1764 P   0  0  0  0  0  0  0  0  0  0  0  0
    0.3237   -0.3598    0.2617 H   0  0  0  0  0  0  0  0  0  0  0  0
    0.9083    0.4666   -1.2067 H   0  0  0  0  0  0  0  0  0  0  0  0
    0.9109    1.3222    0.3451 H   0  0  0  0  0  0  0  0  0  0  0  0
    2.0606   -1.1621    2.3332 H   0  0  0  0  0  0  0  0  0  0  0  0
    2.7527    0.4728    2.5029 H   0  0  0  0  0  0  0  0  0  0  0  0
    3.8250   -0.9159    2.2526 H   0  0  0  0  0  0  0  0  0  0  0  0
    2.0783   -2.5533   -0.1272 H   0  0  0  0  0  0  0  0  0  0  0  0
    3.8339   -2.3321   -0.3510 H   0  0  0  0  0  0  0  0  0  0  0  0
    2.7128   -1.8300   -1.6288 H   0  0  0  0  0  0  0  0  0  0  0  0
  1  5  1  0  0  0  0
  1  6  1  0  0  0  0
  1  8  1  0  0  0  0
  2 11  1  0  0  0  0
  2  9  1  0  0  0  0
  2 10  1  0  0  0  0
  3 13  1  0  0  0  0
  3 12  1  0  0  0  0
  3  5  1  0  0  0  0
  4  5  2  0  0  0  0
  5  2  1  0  0  0  0
  7  1  1  0  0  0  0
 14  3  1  0  0  0  0
M  END
>  <HBA>
1

>  <HBD>
0

>  <TPSA>
26.88

>  <cid>
69609

>  <dipole>
4.29

>  <excitation_energy_1>
5.974

>  <excitation_energy_2>
5.974

>  <excitation_energy_3>
6.976

>  <excitation_energy_4>
6.976

>  <homo_energy>
-6.865

>  <homo_lumo_gap>
8.566

>  <logP>
1.239

>  <lumo_energy>
1.701

>  <melting_point>
-13.83

>  <molecular_refractivity>
25.2

>  <oscillator_strength_1>
0.0332

>  <oscillator_strength_2>
0.0333

>  <oscillator_strength_3>
0.0077

>  <oscillator_strength_4>
0.007

>  <open_babel_can_smiles>
CP(=O)(C)C

>  <mulliken_charges>
14
1   -0.650937
2   -0.650738
3   -0.650338
4   -0.560101
5   0.883016
6   0.165607
7   0.188782
8   0.188736
9   0.165513
10   0.189075
11   0.188415
12   0.165535
13   0.189102
14   0.188333

>  <lowdin_charges>
14
1   -0.642593
2   -0.644183
3   -0.641656
4   -0.630374
5   0.939141
6   0.172939
7   0.182607
8   0.183963
9   0.172804
10   0.184123
11   0.183776
12   0.172998
13   0.18403
14   0.182426

$$$$

