PCCDB-ID:  19251
public computational chemistry database (PCCDB) project, http://pccdb.org

 35 35  0  0  1  0  0  0  0  0999 V2000
    0.8073    0.1962    0.0916 C   0  0  0  0  0  0  0  0  0  0  0  0
    6.2743    2.8869   -1.7399 C   0  0  0  0  0  0  0  0  0  0  0  0
    6.6568    2.6057    0.7434 C   0  0  0  0  0  0  0  0  0  0  0  0
    5.0496    0.1462   -2.8963 C   0  0  0  0  0  0  0  0  0  0  0  0
    2.3370    0.1504    0.0074 C   0  0  0  0  0  0  0  0  0  0  0  0
    5.2191    0.9618   -0.4144 C   0  0  0  0  0  0  0  0  0  0  0  0
    5.9808    2.0731   -0.5013 C   0  0  0  0  0  0  0  0  0  0  0  0
    4.4975    0.1169   -1.4586 C   0  0  1  0  0  0  0  0  0  0  0  0
    2.5254    1.6712   -1.9965 C   0  0  0  0  0  0  0  0  0  0  0  0
    2.2812   -0.7475   -2.3435 C   0  0  0  0  0  0  0  0  0  0  0  0
    1.3097    0.8003   -3.7777 C   0  0  0  0  0  0  0  0  0  0  0  0
    2.9151    0.3043   -1.4375 C   0  0  2  0  0  0  0  0  0  0  0  0
    1.8103    1.8941   -3.0282 N   0  0  0  0  0  0  0  0  0  0  0  0
    1.5715   -0.5380   -3.3776 N   0  0  0  0  0  0  0  0  0  0  0  0
    2.9602    2.7441   -1.3064 O   0  0  0  0  0  0  0  0  0  0  0  0
    2.4923   -2.0436   -2.0073 O   0  0  0  0  0  0  0  0  0  0  0  0
    0.6509    1.0057   -4.7723 O   0  0  0  0  0  0  0  0  0  0  0  0
    0.4880    0.0996    1.1343 H   0  0  0  0  0  0  0  0  0  0  0  0
    0.3441   -0.6160   -0.4779 H   0  0  0  0  0  0  0  0  0  0  0  0
    0.4153    1.1437   -0.2921 H   0  0  0  0  0  0  0  0  0  0  0  0
    7.3248    2.7591   -2.0352 H   0  0  0  0  0  0  0  0  0  0  0  0
    6.1410    3.9539   -1.5234 H   0  0  0  0  0  0  0  0  0  0  0  0
    5.6459    2.6430   -2.5932 H   0  0  0  0  0  0  0  0  0  0  0  0
    6.3489    3.6396    0.9477 H   0  0  0  0  0  0  0  0  0  0  0  0
    7.7463    2.6292    0.6058 H   0  0  0  0  0  0  0  0  0  0  0  0
    6.4403    1.9996    1.6280 H   0  0  0  0  0  0  0  0  0  0  0  0
    6.1431    0.1357   -2.8864 H   0  0  0  0  0  0  0  0  0  0  0  0
    4.7188    1.0207   -3.4631 H   0  0  0  0  0  0  0  0  0  0  0  0
    4.7102   -0.7383   -3.4442 H   0  0  0  0  0  0  0  0  0  0  0  0
    2.7027   -0.7938    0.4369 H   0  0  0  0  0  0  0  0  0  0  0  0
    2.7581    0.9381    0.6398 H   0  0  0  0  0  0  0  0  0  0  0  0
    5.1380    0.5367    0.5863 H   0  0  0  0  0  0  0  0  0  0  0  0
    4.6572   -0.9110   -1.0991 H   0  0  0  0  0  0  0  0  0  0  0  0
    3.6495    2.4671   -0.6703 H   0  0  0  0  0  0  0  0  0  0  0  0
    3.0048   -2.0982   -1.1857 H   0  0  0  0  0  0  0  0  0  0  0  0
  1 18  1  0  0  0  0
  2 22  1  0  0  0  0
  2  7  1  0  0  0  0
  3 24  1  0  0  0  0
  3 26  1  0  0  0  0
  4 27  1  0  0  0  0
  4  8  1  0  0  0  0
  5  1  1  0  0  0  0
  5 30  1  0  0  0  0
  5 31  1  0  0  0  0
  6 32  1  0  0  0  0
  7  6  2  0  0  0  0
  7  3  1  0  0  0  0
  8 12  1  0  0  0  0
  8 33  1  1  0  0  0
  8  6  1  0  0  0  0
  9 12  1  0  0  0  0
  9 15  1  0  0  0  0
 10 16  1  0  0  0  0
 10 12  1  0  0  0  0
 11 14  1  0  0  0  0
 11 13  2  0  0  0  0
 12  5  1  1  0  0  0
 13  9  2  0  0  0  0
 14 10  2  0  0  0  0
 15 34  1  0  0  0  0
 16 35  1  0  0  0  0
 17 11  2  0  0  0  0
 19  1  1  0  0  0  0
 20  1  1  0  0  0  0
 21  2  1  0  0  0  0
 23  2  1  0  0  0  0
 25  3  1  0  0  0  0
 28  4  1  0  0  0  0
 29  4  1  0  0  0  0
M  END
>  <HBA>
5

>  <HBD>
2

>  <TPSA>
75.27

>  <cid>
19251

>  <dipole>
10.69

>  <excitation_energy_1>
3.966

>  <excitation_energy_2>
4.129

>  <excitation_energy_3>
5.082

>  <excitation_energy_4>
5.255

>  <homo_energy>
-6.735

>  <homo_lumo_gap>
5.301

>  <logP>
2.009

>  <lumo_energy>
-1.434

>  <melting_point>
152.79

>  <molecular_refractivity>
71.37

>  <oscillator_strength_1>
0.0001

>  <oscillator_strength_2>
0.0

>  <oscillator_strength_3>
0.072

>  <oscillator_strength_4>
0.0493

>  <open_babel_can_smiles>
CC[C@@]1([C@H](C=C(C)C)C)C(=N[C](=[N]=C1O)=O)O

>  <mulliken_charges>
35
1   -0.46926
2   -0.515007
3   -0.509068
4   -0.486074
5   -0.280113
6   -0.250983
7   0.178741
8   -0.109556
9   0.537832
10   0.553411
11   0.617401
12   -0.132593
13   -0.475048
14   -0.476877
15   -0.596131
16   -0.585764
17   -0.435893
18   0.158618
19   0.178722
20   0.182174
21   0.16818
22   0.170073
23   0.179275
24   0.165279
25   0.167626
26   0.159108
27   0.164408
28   0.180973
29   0.180216
30   0.128853
31   0.15554
32   0.132246
33   0.128488
34   0.419079
35   0.416127

>  <lowdin_charges>
35
1   -0.452589
2   -0.449279
3   -0.438256
4   -0.4536
5   -0.274494
6   -0.226864
7   0.008719
8   -0.118751
9   0.144535
10   0.145122
11   0.167663
12   -0.062644
13   -0.190188
14   -0.184667
15   -0.33905
16   -0.335603
17   -0.212722
18   0.159795
19   0.165967
20   0.167551
21   0.165724
22   0.165599
23   0.170611
24   0.160795
25   0.162163
26   0.158045
27   0.16122
28   0.164539
29   0.169369
30   0.138647
31   0.155216
32   0.153398
33   0.144071
34   0.354755
35   0.355202

$$$$

