PCCDB-ID:  41234
public computational chemistry database (PCCDB) project, http://pccdb.org

 37 37  0  0  0  0  0  0  0  0999 V2000
    3.3522   -1.3379   -0.2405 C   0  0  0  0  0  0  0  0  0  0  0  0
    2.7356    0.6957   -1.5488 C   0  0  0  0  0  0  0  0  0  0  0  0
    0.9866   -0.5657   -0.3028 C   0  0  0  0  0  0  0  0  0  0  0  0
    2.0181    2.2058    0.8879 C   0  0  0  0  0  0  0  0  0  0  0  0
    2.1221    0.1690    2.3153 C   0  0  0  0  0  0  0  0  0  0  0  0
    4.9375    1.6014    3.6409 C   0  0  0  0  0  0  0  0  0  0  0  0
    4.8950    3.3750    2.0333 C   0  0  0  0  0  0  0  0  0  0  0  0
    5.3588    2.4955    4.6264 C   0  0  0  0  0  0  0  0  0  0  0  0
    5.3151    4.2819    3.0015 C   0  0  0  0  0  0  0  0  0  0  0  0
    4.2480    1.0361    1.2555 C   0  0  0  0  0  0  0  0  0  0  0  0
    4.6852    2.0176    2.3269 C   0  0  0  0  0  0  0  0  0  0  0  0
    5.5456    3.8433    4.3091 C   0  0  0  0  0  0  0  0  0  0  0  0
    2.4540   -0.0788   -0.2401 C   0  0  0  0  0  0  0  0  0  0  0  0
    2.7045    0.8318    1.0478 C   0  0  0  0  0  0  0  0  0  0  0  0
    5.9606    4.7721    5.2262 O   0  0  0  0  0  0  0  0  0  0  0  0
    3.0526   -2.0048   -1.0580 H   0  0  0  0  0  0  0  0  0  0  0  0
    3.2694   -1.9108    0.6902 H   0  0  0  0  0  0  0  0  0  0  0  0
    4.4085   -1.0951   -0.3937 H   0  0  0  0  0  0  0  0  0  0  0  0
    2.6544    0.0161   -2.4056 H   0  0  0  0  0  0  0  0  0  0  0  0
    3.7424    1.1272   -1.5738 H   0  0  0  0  0  0  0  0  0  0  0  0
    2.0183    1.5071   -1.7089 H   0  0  0  0  0  0  0  0  0  0  0  0
    0.8106   -1.0845   -1.2530 H   0  0  0  0  0  0  0  0  0  0  0  0
    0.2689    0.2597   -0.2467 H   0  0  0  0  0  0  0  0  0  0  0  0
    0.7524   -1.2716    0.5002 H   0  0  0  0  0  0  0  0  0  0  0  0
    2.0822    2.7761    1.8200 H   0  0  0  0  0  0  0  0  0  0  0  0
    0.9558    2.0981    0.6440 H   0  0  0  0  0  0  0  0  0  0  0  0
    2.4799    2.8143    0.1034 H   0  0  0  0  0  0  0  0  0  0  0  0
    2.3894    0.7532    3.2016 H   0  0  0  0  0  0  0  0  0  0  0  0
    2.4993   -0.8494    2.4644 H   0  0  0  0  0  0  0  0  0  0  0  0
    1.0293    0.1201    2.2793 H   0  0  0  0  0  0  0  0  0  0  0  0
    4.8141    0.5532    3.9021 H   0  0  0  0  0  0  0  0  0  0  0  0
    4.7329    3.7310    1.0187 H   0  0  0  0  0  0  0  0  0  0  0  0
    5.5515    2.1415    5.6381 H   0  0  0  0  0  0  0  0  0  0  0  0
    5.4775    5.3280    2.7607 H   0  0  0  0  0  0  0  0  0  0  0  0
    4.6919    0.0622    1.4892 H   0  0  0  0  0  0  0  0  0  0  0  0
    4.6899    1.3539    0.3040 H   0  0  0  0  0  0  0  0  0  0  0  0
    6.0887    4.3318    6.0807 H   0  0  0  0  0  0  0  0  0  0  0  0
  1 13  1  0  0  0  0
  1 17  1  0  0  0  0
  2 13  1  0  0  0  0
  3 23  1  0  0  0  0
  3 13  1  0  0  0  0
  3 24  1  0  0  0  0
  4 14  1  0  0  0  0
  4 25  1  0  0  0  0
  5 29  1  0  0  0  0
  5 28  1  0  0  0  0
  6 31  1  0  0  0  0
  6  8  2  0  0  0  0
  7 11  2  0  0  0  0
  7  9  1  0  0  0  0
  8 33  1  0  0  0  0
  9 12  2  0  0  0  0
 10 35  1  0  0  0  0
 10 11  1  0  0  0  0
 11  6  1  0  0  0  0
 12  8  1  0  0  0  0
 12 15  1  0  0  0  0
 13 14  1  0  0  0  0
 14 10  1  0  0  0  0
 14  5  1  0  0  0  0
 15 37  1  0  0  0  0
 16  1  1  0  0  0  0
 18  1  1  0  0  0  0
 19  2  1  0  0  0  0
 20  2  1  0  0  0  0
 21  2  1  0  0  0  0
 22  3  1  0  0  0  0
 26  4  1  0  0  0  0
 27  4  1  0  0  0  0
 30  5  1  0  0  0  0
 32  7  1  0  0  0  0
 34  9  1  0  0  0  0
 36 10  1  0  0  0  0
M  END
>  <HBA>
1

>  <HBD>
1

>  <TPSA>
20.23

>  <cid>
41234

>  <dipole>
1.32

>  <excitation_energy_1>
4.922

>  <excitation_energy_2>
5.043

>  <excitation_energy_3>
5.392

>  <excitation_energy_4>
5.618

>  <homo_energy>
-5.742

>  <homo_lumo_gap>
5.788

>  <logP>
4.007

>  <lumo_energy>
0.046

>  <melting_point>
80.85

>  <molecular_refractivity>
66.56

>  <oscillator_strength_1>
0.0271

>  <oscillator_strength_2>
0.0007

>  <oscillator_strength_3>
0.0401

>  <oscillator_strength_4>
0.0783

>  <open_babel_can_smiles>
CC(C(C)(C)C)(Cc1ccc(cc1)O)C

>  <mulliken_charges>
37
1   -0.459818
2   -0.459526
3   -0.459186
4   -0.471974
5   -0.472995
6   -0.191532
7   -0.186588
8   -0.195427
9   -0.158924
10   -0.375766
11   0.171474
12   0.347275
13   0.114969
14   0.12252
15   -0.644742
16   0.136748
17   0.140076
18   0.144728
19   0.136882
20   0.140207
21   0.144936
22   0.13628
23   0.14116
24   0.144087
25   0.154794
26   0.139311
27   0.139611
28   0.151055
29   0.134506
30   0.144032
31   0.126277
32   0.125623
33   0.115752
34   0.137401
35   0.142066
36   0.138837
37   0.405872

>  <lowdin_charges>
37
1   -0.446686
2   -0.446894
3   -0.447468
4   -0.449262
5   -0.449242
6   -0.15677
7   -0.15251
8   -0.215012
9   -0.185154
10   -0.278557
11   -0.021707
12   0.097912
13   0.014044
14   0.015847
15   -0.380658
16   0.148368
17   0.145845
18   0.147044
19   0.147869
20   0.144403
21   0.150018
22   0.146976
23   0.146967
24   0.149709
25   0.156471
26   0.145199
27   0.147216
28   0.155242
29   0.142238
30   0.147745
31   0.154505
32   0.154835
33   0.151001
34   0.164897
35   0.150618
36   0.148261
37   0.356688

$$$$

