PCCDB-ID:  39389
public computational chemistry database (PCCDB) project, http://pccdb.org

 18 18  0  0  0  0  0  0  0  0999 V2000
    1.9627   -1.1154    0.5074 C   0  0  0  0  0  0  0  0  0  0  0  0
    2.2701    0.0902    0.0114 C   0  0  0  0  0  0  0  0  0  0  0  0
    3.2975   -0.6085   -2.1948 C   0  0  0  0  0  0  0  0  0  0  0  0
    3.1167    1.7365   -1.6359 C   0  0  0  0  0  0  0  0  0  0  0  0
    3.8861   -0.2673   -3.4051 C   0  0  0  0  0  0  0  0  0  0  0  0
    3.7046    2.0804   -2.8451 C   0  0  0  0  0  0  0  0  0  0  0  0
    4.7221    1.4289   -5.0357 C   0  0  0  0  0  0  0  0  0  0  0  0
    2.8997    0.3888   -1.2836 C   0  0  0  0  0  0  0  0  0  0  0  0
    4.0959    1.0779   -3.7441 C   0  0  0  0  0  0  0  0  0  0  0  0
    4.9435    2.5642   -5.4141 O   0  0  0  0  0  0  0  0  0  0  0  0
    1.4969   -1.2134    1.4831 H   0  0  0  0  0  0  0  0  0  0  0  0
    2.1563   -2.0417   -0.0262 H   0  0  0  0  0  0  0  0  0  0  0  0
    2.0368    0.9676    0.6140 H   0  0  0  0  0  0  0  0  0  0  0  0
    3.1464   -1.6559   -1.9525 H   0  0  0  0  0  0  0  0  0  0  0  0
    2.8155    2.5174   -0.9417 H   0  0  0  0  0  0  0  0  0  0  0  0
    4.1887   -1.0474   -4.1008 H   0  0  0  0  0  0  0  0  0  0  0  0
    3.8720    3.1181   -3.1167 H   0  0  0  0  0  0  0  0  0  0  0  0
    4.9923    0.5562   -5.6717 H   0  0  0  0  0  0  0  0  0  0  0  0
  1 11  1  0  0  0  0
  2  1  2  0  0  0  0
  2 13  1  0  0  0  0
  3 14  1  0  0  0  0
  3  8  2  0  0  0  0
  4  8  1  0  0  0  0
  4 15  1  0  0  0  0
  5  3  1  0  0  0  0
  6  4  2  0  0  0  0
  7  9  1  0  0  0  0
  8  2  1  0  0  0  0
  9  5  2  0  0  0  0
  9  6  1  0  0  0  0
 10  7  2  0  0  0  0
 12  1  1  0  0  0  0
 16  5  1  0  0  0  0
 17  6  1  0  0  0  0
 18  7  1  0  0  0  0
M  END
>  <HBA>
1

>  <HBD>
0

>  <TPSA>
17.07

>  <cid>
39389

>  <dipole>
3.58

>  <excitation_energy_1>
3.561

>  <excitation_energy_2>
4.244

>  <excitation_energy_3>
4.427

>  <excitation_energy_4>
5.474

>  <homo_energy>
-6.49

>  <homo_lumo_gap>
4.487

>  <logP>
2.142

>  <lumo_energy>
-2.003

>  <melting_point>
31.22

>  <molecular_refractivity>
41.92

>  <oscillator_strength_1>
0.0001

>  <oscillator_strength_2>
0.5477

>  <oscillator_strength_3>
0.0236

>  <oscillator_strength_4>
0.0508

>  <open_babel_can_smiles>
C=Cc1ccc(cc1)C=O

>  <mulliken_charges>
18
1   -0.342801
2   -0.117239
3   -0.184393
4   -0.196808
5   -0.180272
6   -0.1577
7   0.192178
8   0.178704
9   0.097453
10   -0.408622
11   0.153212
12   0.148313
13   0.135407
14   0.135765
15   0.139644
16   0.141117
17   0.164701
18   0.101342

>  <lowdin_charges>
18
1   -0.316049
2   -0.148407
3   -0.153086
4   -0.158345
5   -0.141405
6   -0.12221
7   0.0434
8   0.016153
9   -0.055842
10   -0.229647
11   0.167021
12   0.1597
13   0.159066
14   0.160195
15   0.162579
16   0.163422
17   0.175577
18   0.117878

$$$$

