PCCDB-ID:  33970
public computational chemistry database (PCCDB) project, http://pccdb.org

 38 37  0  0  1  0  0  0  0  0999 V2000
    7.6369   -0.9636   -4.3688 C   0  0  0  0  0  0  0  0  0  0  0  0
    4.2991   -8.3013   -3.4928 C   0  0  0  0  0  0  0  0  0  0  0  0
    7.1324    0.1435   -3.4333 C   0  0  0  0  0  0  0  0  0  0  0  0
    3.6746   -6.9727   -3.0550 C   0  0  0  0  0  0  0  0  0  0  0  0
    5.9519   -0.2438   -2.5156 C   0  0  0  0  0  0  0  0  0  0  0  0
    4.6541   -6.0734   -2.2885 C   0  0  0  0  0  0  0  0  0  0  0  0
    6.3195   -0.8606   -1.1511 C   0  0  0  0  0  0  0  0  0  0  0  0
    7.0155   -2.2344   -1.1477 C   0  0  0  0  0  0  0  0  0  0  0  0
    4.0273   -4.7332   -1.8797 C   0  0  0  0  0  0  0  0  0  0  0  0
    6.2333   -3.3989   -1.7823 C   0  0  0  0  0  0  0  0  0  0  0  0
    4.9433   -3.7939   -1.0440 C   0  0  2  0  0  0  0  0  0  0  0  0
    5.2566   -4.4530    0.3027 C   0  0  0  0  0  0  0  0  0  0  0  0
    6.3007   -4.9856    0.5885 O   0  0  0  0  0  0  0  0  0  0  0  0
    4.2323   -4.4595    1.2047 O   0  0  0  0  0  0  0  0  0  0  0  0
    8.4443   -0.5935   -5.0116 H   0  0  0  0  0  0  0  0  0  0  0  0
    6.8311   -1.3173   -5.0243 H   0  0  0  0  0  0  0  0  0  0  0  0
    8.0229   -1.8300   -3.8227 H   0  0  0  0  0  0  0  0  0  0  0  0
    3.5772   -8.9225   -4.0349 H   0  0  0  0  0  0  0  0  0  0  0  0
    4.6521   -8.8765   -2.6284 H   0  0  0  0  0  0  0  0  0  0  0  0
    5.1593   -8.1358   -4.1528 H   0  0  0  0  0  0  0  0  0  0  0  0
    6.8208    0.9925   -4.0564 H   0  0  0  0  0  0  0  0  0  0  0  0
    7.9639    0.5165   -2.8182 H   0  0  0  0  0  0  0  0  0  0  0  0
    2.7951   -7.1706   -2.4257 H   0  0  0  0  0  0  0  0  0  0  0  0
    3.3012   -6.4343   -3.9381 H   0  0  0  0  0  0  0  0  0  0  0  0
    5.2699   -0.9089   -3.0650 H   0  0  0  0  0  0  0  0  0  0  0  0
    5.3686    0.6626   -2.3049 H   0  0  0  0  0  0  0  0  0  0  0  0
    5.5384   -5.8921   -2.9135 H   0  0  0  0  0  0  0  0  0  0  0  0
    5.0148   -6.6034   -1.3968 H   0  0  0  0  0  0  0  0  0  0  0  0
    5.4025   -0.9161   -0.5466 H   0  0  0  0  0  0  0  0  0  0  0  0
    6.9717   -0.1522   -0.6206 H   0  0  0  0  0  0  0  0  0  0  0  0
    7.2574   -2.5017   -0.1113 H   0  0  0  0  0  0  0  0  0  0  0  0
    7.9818   -2.1525   -1.6604 H   0  0  0  0  0  0  0  0  0  0  0  0
    3.1030   -4.9307   -1.3165 H   0  0  0  0  0  0  0  0  0  0  0  0
    3.7203   -4.1832   -2.7794 H   0  0  0  0  0  0  0  0  0  0  0  0
    6.8897   -4.2743   -1.8145 H   0  0  0  0  0  0  0  0  0  0  0  0
    5.9749   -3.1569   -2.8210 H   0  0  0  0  0  0  0  0  0  0  0  0
    4.3577   -2.8854   -0.8383 H   0  0  0  0  0  0  0  0  0  0  0  0
    3.4687   -3.9836    0.8386 H   0  0  0  0  0  0  0  0  0  0  0  0
  1 17  1  0  0  0  0
  1  3  1  0  0  0  0
  2  4  1  0  0  0  0
  2 19  1  0  0  0  0
  3 22  1  0  0  0  0
  3  5  1  0  0  0  0
  4 23  1  0  0  0  0
  4  6  1  0  0  0  0
  5 26  1  0  0  0  0
  5  7  1  0  0  0  0
  6  9  1  0  0  0  0
  6 28  1  0  0  0  0
  7  8  1  0  0  0  0
  7 30  1  0  0  0  0
  7 29  1  0  0  0  0
  8 31  1  0  0  0  0
  9 33  1  0  0  0  0
  9 11  1  0  0  0  0
 10  8  1  0  0  0  0
 10 11  1  0  0  0  0
 11 37  1  1  0  0  0
 11 12  1  0  0  0  0
 12 13  2  0  0  0  0
 12 14  1  0  0  0  0
 15  1  1  0  0  0  0
 16  1  1  0  0  0  0
 18  2  1  0  0  0  0
 20  2  1  0  0  0  0
 21  3  1  0  0  0  0
 24  4  1  0  0  0  0
 25  5  1  0  0  0  0
 27  6  1  0  0  0  0
 32  8  1  0  0  0  0
 34  9  1  0  0  0  0
 35 10  1  0  0  0  0
 36 10  1  0  0  0  0
 38 14  1  0  0  0  0
M  END
>  <HBA>
2

>  <HBD>
1

>  <TPSA>
37.3

>  <cid>
33970

>  <dipole>
3.98

>  <excitation_energy_1>
5.579

>  <excitation_energy_2>
6.318

>  <excitation_energy_3>
7.144

>  <excitation_energy_4>
7.152

>  <homo_energy>
-7.217

>  <homo_lumo_gap>
7.494

>  <logP>
3.848

>  <lumo_energy>
0.278

>  <melting_point>
46.61

>  <molecular_refractivity>
61.57

>  <oscillator_strength_1>
0.0025

>  <oscillator_strength_2>
0.0083

>  <oscillator_strength_3>
0.0029

>  <oscillator_strength_4>
0.0031

>  <open_babel_can_smiles>
CCCCCC[C@H](C(=O)O)CCCC

>  <mulliken_charges>
38
1   -0.448307
2   -0.442803
3   -0.248281
4   -0.250179
5   -0.254439
6   -0.257527
7   -0.262117
8   -0.276303
9   -0.273691
10   -0.265759
11   -0.20944
12   0.616031
13   -0.452181
14   -0.574101
15   0.1426
16   0.139282
17   0.152751
18   0.143102
19   0.147954
20   0.143423
21   0.132434
22   0.132862
23   0.131587
24   0.129735
25   0.125352
26   0.129732
27   0.141798
28   0.155793
29   0.121228
30   0.133697
31   0.153295
32   0.139191
33   0.121707
34   0.143798
35   0.165001
36   0.133298
37   0.131113
38   0.408361

>  <lowdin_charges>
38
1   -0.451001
2   -0.446443
3   -0.276546
4   -0.272583
5   -0.283006
6   -0.281924
7   -0.280997
8   -0.282293
9   -0.272565
10   -0.278123
11   -0.170923
12   0.193961
13   -0.241797
14   -0.36046
15   0.150657
16   0.145487
17   0.149741
18   0.151537
19   0.15047
20   0.147903
21   0.143417
22   0.141324
23   0.139354
24   0.138757
25   0.137158
26   0.144096
27   0.145818
28   0.152105
29   0.134106
30   0.145002
31   0.152085
32   0.145611
33   0.135356
34   0.147648
35   0.162276
36   0.141831
37   0.145705
38   0.357253

$$$$

