PCCDB-ID:  6377
public computational chemistry database (PCCDB) project, http://pccdb.org

 11 11  0  0  1  0  0  0  0  0999 V2000
    0.9479    0.0258    0.1351 C   0  0  0  0  0  0  0  0  0  0  0  0
    3.2781   -0.7876    1.0268 C   0  0  0  0  0  0  0  0  0  0  0  0
    2.4575    0.0253    0.0917 C   0  0  2  0  0  0  0  0  0  0  0  0
    3.1469    0.6695    1.2248 N   0  0  0  0  0  0  0  0  0  0  0  0
    0.5369   -0.7645   -0.5048 H   0  0  0  0  0  0  0  0  0  0  0  0
    0.5456    0.9865   -0.2082 H   0  0  0  0  0  0  0  0  0  0  0  0
    0.5971   -0.1380    1.1591 H   0  0  0  0  0  0  0  0  0  0  0  0
    4.2256   -1.1908    0.6717 H   0  0  0  0  0  0  0  0  0  0  0  0
    2.7901   -1.3939    1.7876 H   0  0  0  0  0  0  0  0  0  0  0  0
    2.8869    0.1812   -0.8997 H   0  0  0  0  0  0  0  0  0  0  0  0
    3.9921    1.1414    0.9030 H   0  0  0  0  0  0  0  0  0  0  0  0
  1  7  1  0  0  0  0
  2  4  1  0  0  0  0
  2  9  1  0  0  0  0
  3 10  1  6  0  0  0
  3  1  1  0  0  0  0
  3  2  1  0  0  0  0
  3  4  1  0  0  0  0
  5  1  1  0  0  0  0
  6  1  1  0  0  0  0
  8  2  1  0  0  0  0
 11  4  1  0  0  0  0
M  END
>  <HBA>
1

>  <HBD>
1

>  <TPSA>
21.94

>  <cid>
6377

>  <dipole>
1.67

>  <excitation_energy_1>
5.967

>  <excitation_energy_2>
6.629

>  <excitation_energy_3>
6.833

>  <excitation_energy_4>
6.904

>  <homo_energy>
-6.563

>  <homo_lumo_gap>
8.759

>  <logP>
0.307

>  <lumo_energy>
2.196

>  <melting_point>
30.16

>  <molecular_refractivity>
21.14

>  <oscillator_strength_1>
0.0025

>  <oscillator_strength_2>
0.0428

>  <oscillator_strength_3>
0.0061

>  <oscillator_strength_4>
0.0458

>  <open_babel_can_smiles>
C[C@@H]1CN1

>  <mulliken_charges>
11
1   -0.437597
2   -0.210714
3   -0.004817
4   -0.528894
5   0.142121
6   0.149465
7   0.156972
8   0.142763
9   0.154925
10   0.133309
11   0.302466

>  <lowdin_charges>
11
1   -0.439008
2   -0.252708
3   -0.09392
4   -0.382528
5   0.151822
6   0.154137
7   0.158791
8   0.148287
9   0.157067
10   0.141038
11   0.257022

$$$$

