PCCDB-ID:  49610
public computational chemistry database (PCCDB) project, http://pccdb.org

 33 33  0  0  0  0  0  0  0  0999 V2000
    2.1891    2.8328    0.5187 C   0  0  0  0  0  0  0  0  0  0  0  0
    6.0202   -0.3529   -0.5795 C   0  0  0  0  0  0  0  0  0  0  0  0
    5.9539    3.3541    0.2962 C   0  0  0  0  0  0  0  0  0  0  0  0
    4.5889    3.5799    0.4499 C   0  0  0  0  0  0  0  0  0  0  0  0
    6.4012    2.0752   -0.0274 C   0  0  0  0  0  0  0  0  0  0  0  0
    2.3238    0.1985   -1.4235 C   0  0  0  0  0  0  0  0  0  0  0  0
    1.3442   -0.9702   -1.3632 C   0  0  0  0  0  0  0  0  0  0  0  0
    3.6542    2.5521    0.2816 C   0  0  0  0  0  0  0  0  0  0  0  0
    5.5014    1.0233   -0.2217 C   0  0  0  0  0  0  0  0  0  0  0  0
    4.1160    1.2651   -0.0731 C   0  0  0  0  0  0  0  0  0  0  0  0
   -0.4163   -1.8483    0.0903 C   0  0  0  0  0  0  0  0  0  0  0  0
   -0.6910   -2.7365   -0.7961 N   0  0  0  0  0  0  0  0  0  0  0  0
   -0.9625   -1.7329    1.3816 N   0  0  0  0  0  0  0  0  0  0  0  0
    3.1841    0.1962   -0.2250 N   0  0  0  0  0  0  0  0  0  0  0  0
    0.5345   -0.8696   -0.1581 N   0  0  0  0  0  0  0  0  0  0  0  0
    2.0656    3.6802    1.2010 H   0  0  0  0  0  0  0  0  0  0  0  0
    1.6852    1.9619    0.9494 H   0  0  0  0  0  0  0  0  0  0  0  0
    1.6563    3.0872   -0.4075 H   0  0  0  0  0  0  0  0  0  0  0  0
    7.1009   -0.3246   -0.7468 H   0  0  0  0  0  0  0  0  0  0  0  0
    5.5580   -0.7467   -1.4939 H   0  0  0  0  0  0  0  0  0  0  0  0
    5.8412   -1.0890    0.2175 H   0  0  0  0  0  0  0  0  0  0  0  0
    6.6639    4.1642    0.4384 H   0  0  0  0  0  0  0  0  0  0  0  0
    4.2324    4.5698    0.7262 H   0  0  0  0  0  0  0  0  0  0  0  0
    7.4659    1.8857   -0.1431 H   0  0  0  0  0  0  0  0  0  0  0  0
    1.7687    1.1391   -1.4515 H   0  0  0  0  0  0  0  0  0  0  0  0
    2.9080    0.1351   -2.3563 H   0  0  0  0  0  0  0  0  0  0  0  0
    1.8874   -1.9293   -1.4069 H   0  0  0  0  0  0  0  0  0  0  0  0
    0.6855   -0.9547   -2.2360 H   0  0  0  0  0  0  0  0  0  0  0  0
   -1.4777   -3.3163   -0.4978 H   0  0  0  0  0  0  0  0  0  0  0  0
   -1.7989   -2.2886    1.5148 H   0  0  0  0  0  0  0  0  0  0  0  0
   -1.1125   -0.7730    1.6760 H   0  0  0  0  0  0  0  0  0  0  0  0
    3.6692   -0.6958   -0.1828 H   0  0  0  0  0  0  0  0  0  0  0  0
    1.0876   -0.6009    0.6500 H   0  0  0  0  0  0  0  0  0  0  0  0
  1 17  1  0  0  0  0
  1 16  1  0  0  0  0
  2  9  1  0  0  0  0
  2 21  1  0  0  0  0
  3 22  1  0  0  0  0
  3  4  1  0  0  0  0
  4 23  1  0  0  0  0
  5  3  2  0  0  0  0
  6  7  1  0  0  0  0
  6 14  1  0  0  0  0
  7 15  1  0  0  0  0
  8  4  2  0  0  0  0
  8  1  1  0  0  0  0
  9 10  2  0  0  0  0
  9  5  1  0  0  0  0
 10  8  1  0  0  0  0
 11 13  2  0  0  0  0
 12 29  1  0  0  0  0
 12 11  1  0  0  0  0
 13 30  1  0  0  0  0
 13 31  1  0  0  0  0
 14 32  1  0  0  0  0
 14 10  1  0  0  0  0
 15 11  1  0  0  0  0
 15 33  1  0  0  0  0
 18  1  1  0  0  0  0
 19  2  1  0  0  0  0
 20  2  1  0  0  0  0
 24  5  1  0  0  0  0
 25  6  1  0  0  0  0
 26  6  1  0  0  0  0
 27  7  1  0  0  0  0
 28  7  1  0  0  0  0
M  RAD  1  12   2
M  END
>  <HBA>
4

>  <HBD>
3

>  <TPSA>
76.43

>  <cid>
49610

>  <dipole>
1.56

>  <excitation_energy_1>
4.849

>  <excitation_energy_2>
5.021

>  <excitation_energy_3>
5.181

>  <excitation_energy_4>
5.291

>  <homo_energy>
-5.633

>  <homo_lumo_gap>
5.848

>  <logP>
2.462

>  <lumo_energy>
0.215

>  <melting_point>
172.58

>  <molecular_refractivity>
64.39

>  <oscillator_strength_1>
0.0196

>  <oscillator_strength_2>
0.0334

>  <oscillator_strength_3>
0.0635

>  <oscillator_strength_4>
0.0114

>  <open_babel_can_smiles>
[NH]C(=[NH2])NCCNc1c(C)cccc1C

>  <mulliken_charges>
33
1   -0.537189
2   -0.560306
3   -0.117865
4   -0.204153
5   -0.206618
6   -0.151892
7   -0.113344
8   0.178192
9   0.170586
10   0.159655
11   0.584625
12   -0.649636
13   -0.754753
14   -0.666814
15   -0.607337
16   0.151661
17   0.165665
18   0.160896
19   0.162459
20   0.160151
21   0.160375
22   0.12259
23   0.118057
24   0.11809
25   0.163625
26   0.135014
27   0.140756
28   0.172014
29   0.261525
30   0.316711
31   0.320836
32   0.312103
33   0.33432

>  <lowdin_charges>
33
1   -0.446287
2   -0.448861
3   -0.17014
4   -0.166113
5   -0.167092
6   -0.202908
7   -0.194132
8   -0.015625
9   -0.028603
10   0.024442
11   0.124742
12   -0.484401
13   -0.513003
14   -0.332136
15   -0.315366
16   0.156667
17   0.161893
18   0.156805
19   0.160288
20   0.156798
21   0.15635
22   0.156616
23   0.152352
24   0.150961
25   0.15502
26   0.133794
27   0.135907
28   0.166171
29   0.245453
30   0.274055
31   0.27583
32   0.264098
33   0.276426

$$$$

