PCCDB-ID:  827
public computational chemistry database (PCCDB) project, http://pccdb.org

 22 21  0  0  1  0  0  0  0  0999 V2000
    0.9057   -0.0506    0.1992 C   0  0  0  0  0  0  0  0  0  0  0  0
    0.3605    4.3540   -0.9003 C   0  0  0  0  0  0  0  0  0  0  0  0
    0.4174    1.3679   -0.1084 C   0  0  1  0  0  0  0  0  0  0  0  0
    0.3137    3.2131   -1.9240 C   0  0  2  0  0  0  0  0  0  0  0  0
    0.9613    1.9011   -1.4311 C   0  0  1  0  0  0  0  0  0  0  0  0
    0.2054   -0.5689    1.3360 O   0  0  0  0  0  0  0  0  0  0  0  0
    1.6988    4.8397   -0.7646 O   0  0  0  0  0  0  0  0  0  0  0  0
   -0.9992    1.3743   -0.1819 O   0  0  0  0  0  0  0  0  0  0  0  0
    1.0317    3.6182   -3.0971 O   0  0  0  0  0  0  0  0  0  0  0  0
    2.3730    2.0983   -1.2484 O   0  0  0  0  0  0  0  0  0  0  0  0
    1.9928   -0.0724    0.3408 H   0  0  0  0  0  0  0  0  0  0  0  0
    0.6464   -0.7153   -0.6309 H   0  0  0  0  0  0  0  0  0  0  0  0
   -0.0650    4.0382    0.0608 H   0  0  0  0  0  0  0  0  0  0  0  0
   -0.2296    5.2004   -1.2660 H   0  0  0  0  0  0  0  0  0  0  0  0
    0.7662    2.0337    0.7034 H   0  0  0  0  0  0  0  0  0  0  0  0
   -0.7249    3.0084   -2.2020 H   0  0  0  0  0  0  0  0  0  0  0  0
    0.7952    1.1438   -2.2125 H   0  0  0  0  0  0  0  0  0  0  0  0
    0.5776   -0.1527    2.1299 H   0  0  0  0  0  0  0  0  0  0  0  0
    2.2416    4.0594   -0.5415 H   0  0  0  0  0  0  0  0  0  0  0  0
   -1.2883    0.7395    0.4991 H   0  0  0  0  0  0  0  0  0  0  0  0
    1.5837    4.3663   -2.7995 H   0  0  0  0  0  0  0  0  0  0  0  0
    2.6833    2.4019   -2.1205 H   0  0  0  0  0  0  0  0  0  0  0  0
  1 11  1  0  0  0  0
  1  6  1  0  0  0  0
  2  7  1  0  0  0  0
  2 13  1  0  0  0  0
  3  1  1  0  0  0  0
  3 15  1  1  0  0  0
  4 16  1  6  0  0  0
  4  5  1  0  0  0  0
  4  2  1  0  0  0  0
  5 17  1  6  0  0  0
  5 10  1  0  0  0  0
  5  3  1  0  0  0  0
  6 18  1  0  0  0  0
  7 19  1  0  0  0  0
  8  3  1  0  0  0  0
  8 20  1  0  0  0  0
  9 21  1  0  0  0  0
  9  4  1  0  0  0  0
 12  1  1  0  0  0  0
 14  2  1  0  0  0  0
 22 10  1  0  0  0  0
M  END
>  <HBA>
5

>  <HBD>
5

>  <TPSA>
101.15

>  <cid>
827

>  <dipole>
2.08

>  <excitation_energy_1>
6.257

>  <excitation_energy_2>
6.38

>  <excitation_energy_3>
6.607

>  <excitation_energy_4>
6.941

>  <homo_energy>
-7.072

>  <homo_lumo_gap>
8.294

>  <logP>
-2.946

>  <lumo_energy>
1.222

>  <melting_point>
67.19

>  <molecular_refractivity>
31.96

>  <oscillator_strength_1>
0.003

>  <oscillator_strength_2>
0.0066

>  <oscillator_strength_3>
0.003

>  <oscillator_strength_4>
0.0107

>  <open_babel_can_smiles>
OC[C@H]([C@H]([C@H](CO)O)O)O

>  <mulliken_charges>
22
1   -0.071473
2   -0.086196
3   0.126443
4   0.106328
5   0.09975
6   -0.621753
7   -0.643658
8   -0.647884
9   -0.657415
10   -0.653555
11   0.155357
12   0.158609
13   0.153796
14   0.159454
15   0.106698
16   0.157566
17   0.137325
18   0.397853
19   0.405082
20   0.408345
21   0.405093
22   0.404238

>  <lowdin_charges>
22
1   -0.153233
2   -0.15486
3   -0.029181
4   -0.036043
5   -0.024627
6   -0.464999
7   -0.481396
8   -0.468993
9   -0.474108
10   -0.469285
11   0.147081
12   0.155016
13   0.146175
14   0.155717
15   0.121011
16   0.158344
17   0.142873
18   0.348605
19   0.339947
20   0.349442
21   0.344976
22   0.347537

$$$$

