PCCDB-ID:  38478
public computational chemistry database (PCCDB) project, http://pccdb.org

 32 32  0  0  0  0  0  0  0  0999 V2000
    1.0113    0.0039   -0.0374 C   0  0  0  0  0  0  0  0  0  0  0  0
    4.2783    2.2733    2.1245 C   0  0  0  0  0  0  0  0  0  0  0  0
    3.2807   -1.3167    2.6594 C   0  0  0  0  0  0  0  0  0  0  0  0
    5.0134   -2.4900    1.2743 C   0  0  0  0  0  0  0  0  0  0  0  0
    3.9659    1.4626   -1.2930 C   0  0  0  0  0  0  0  0  0  0  0  0
    2.2505    2.6015    0.1022 C   0  0  0  0  0  0  0  0  0  0  0  0
    3.1563   -1.2246    0.1273 C   0  0  0  0  0  0  0  0  0  0  0  0
    4.9638    0.0313    1.3227 C   0  0  0  0  0  0  0  0  0  0  0  0
    2.3463    0.0526    0.0320 C   0  0  0  0  0  0  0  0  0  0  0  0
    4.1397    1.2987    1.2187 C   0  0  0  0  0  0  0  0  0  0  0  0
    4.1002   -1.2563    1.3576 C   0  0  0  0  0  0  0  0  0  0  0  0
    3.1565    1.3630    0.0342 C   0  0  0  0  0  0  0  0  0  0  0  0
    0.4898   -0.9505   -0.0377 H   0  0  0  0  0  0  0  0  0  0  0  0
    0.3849    0.8870   -0.0990 H   0  0  0  0  0  0  0  0  0  0  0  0
    4.9903    2.1752    2.9407 H   0  0  0  0  0  0  0  0  0  0  0  0
    3.7080    3.1954    2.1007 H   0  0  0  0  0  0  0  0  0  0  0  0
    2.6631   -2.2229    2.6869 H   0  0  0  0  0  0  0  0  0  0  0  0
    2.6157   -0.4539    2.7606 H   0  0  0  0  0  0  0  0  0  0  0  0
    3.9424   -1.3362    3.5341 H   0  0  0  0  0  0  0  0  0  0  0  0
    4.4258   -3.4164    1.2838 H   0  0  0  0  0  0  0  0  0  0  0  0
    5.7047   -2.5256    2.1254 H   0  0  0  0  0  0  0  0  0  0  0  0
    5.6132   -2.4827    0.3555 H   0  0  0  0  0  0  0  0  0  0  0  0
    3.2803    1.4910   -2.1474 H   0  0  0  0  0  0  0  0  0  0  0  0
    4.6475    0.6211   -1.4414 H   0  0  0  0  0  0  0  0  0  0  0  0
    4.5639    2.3808   -1.2977 H   0  0  0  0  0  0  0  0  0  0  0  0
    1.5782    2.6321   -0.7611 H   0  0  0  0  0  0  0  0  0  0  0  0
    2.8499    3.5171    0.0792 H   0  0  0  0  0  0  0  0  0  0  0  0
    1.6419    2.6119    1.0120 H   0  0  0  0  0  0  0  0  0  0  0  0
    3.7725   -1.3436   -0.7768 H   0  0  0  0  0  0  0  0  0  0  0  0
    2.4803   -2.0880    0.1556 H   0  0  0  0  0  0  0  0  0  0  0  0
    5.5980    0.0764    2.2166 H   0  0  0  0  0  0  0  0  0  0  0  0
    5.6465   -0.0401    0.4626 H   0  0  0  0  0  0  0  0  0  0  0  0
  1  9  2  0  0  0  0
  2 15  1  0  0  0  0
  3 17  1  0  0  0  0
  3 18  1  0  0  0  0
  3 19  1  0  0  0  0
  4 20  1  0  0  0  0
  4 11  1  0  0  0  0
  4 21  1  0  0  0  0
  5 12  1  0  0  0  0
  6 28  1  0  0  0  0
  7 30  1  0  0  0  0
  7 11  1  0  0  0  0
  8 11  1  0  0  0  0
  8 31  1  0  0  0  0
  9 12  1  0  0  0  0
  9  7  1  0  0  0  0
 10  8  1  0  0  0  0
 10  2  2  0  0  0  0
 11  3  1  0  0  0  0
 12  6  1  0  0  0  0
 12 10  1  0  0  0  0
 13  1  1  0  0  0  0
 14  1  1  0  0  0  0
 16  2  1  0  0  0  0
 22  4  1  0  0  0  0
 23  5  1  0  0  0  0
 24  5  1  0  0  0  0
 25  5  1  0  0  0  0
 26  6  1  0  0  0  0
 27  6  1  0  0  0  0
 29  7  1  0  0  0  0
 32  8  1  0  0  0  0
M  END
>  <HBA>
0

>  <HBD>
0

>  <TPSA>
0.0

>  <cid>
38478

>  <dipole>
0.49

>  <excitation_energy_1>
5.895

>  <excitation_energy_2>
6.012

>  <excitation_energy_3>
6.062

>  <excitation_energy_4>
6.183

>  <homo_energy>
-6.465

>  <homo_lumo_gap>
6.814

>  <logP>
3.945

>  <lumo_energy>
0.348

>  <melting_point>
-4.95

>  <molecular_refractivity>
56.22

>  <oscillator_strength_1>
0.0953

>  <oscillator_strength_2>
0.0305

>  <oscillator_strength_3>
0.0

>  <oscillator_strength_4>
0.0207

>  <open_babel_can_smiles>
C=C1CC(C)(C)CC(=C)C1(C)C

>  <mulliken_charges>
32
1   -0.424435
2   -0.424518
3   -0.448171
4   -0.446018
5   -0.450509
6   -0.475574
7   -0.338378
8   -0.338239
9   0.233557
10   0.233489
11   0.092434
12   -0.024318
13   0.130926
14   0.137164
15   0.130932
16   0.137172
17   0.135146
18   0.158304
19   0.135146
20   0.139982
21   0.139956
22   0.13532
23   0.148964
24   0.14618
25   0.148971
26   0.145159
27   0.14513
28   0.152673
29   0.137609
30   0.134183
31   0.134114
32   0.137649

>  <lowdin_charges>
32
1   -0.368082
2   -0.367317
3   -0.447
4   -0.441934
5   -0.44077
6   -0.442928
7   -0.275217
8   -0.275644
9   0.006138
10   0.007136
11   0.011922
12   0.013142
13   0.154022
14   0.15819
15   0.154149
16   0.157402
17   0.146359
18   0.158256
19   0.146507
20   0.148249
21   0.148653
22   0.144911
23   0.153523
24   0.148988
25   0.153232
26   0.152158
27   0.15186
28   0.154207
29   0.146489
30   0.148446
31   0.148263
32   0.146689

$$$$

