PCCDB-ID:  69962
public computational chemistry database (PCCDB) project, http://pccdb.org

 18 17  0  0  0  0  0  0  0  0999 V2000
    1.4131    0.0062    1.5289 C   0  0  0  0  0  0  0  0  0  0  0  0
    2.4280   -2.2501    1.1564 C   0  0  0  0  0  0  0  0  0  0  0  0
    6.1355   -0.5562   -1.7416 C   0  0  0  0  0  0  0  0  0  0  0  0
    2.6163   -0.3848   -0.5877 C   0  0  0  0  0  0  0  0  0  0  0  0
    2.1202   -0.8284    0.7618 C   0  0  0  0  0  0  0  0  0  0  0  0
    4.6406   -0.3504   -1.8285 C   0  0  0  0  0  0  0  0  0  0  0  0
    4.0297   -0.0291   -2.8240 O   0  0  0  0  0  0  0  0  0  0  0  0
    4.0555   -0.5646   -0.6266 O   0  0  0  0  0  0  0  0  0  0  0  0
    1.0040   -0.3072    2.4860 H   0  0  0  0  0  0  0  0  0  0  0  0
    1.2102    1.0303    1.2259 H   0  0  0  0  0  0  0  0  0  0  0  0
    2.0057   -2.4944    2.1354 H   0  0  0  0  0  0  0  0  0  0  0  0
    3.5108   -2.4174    1.1925 H   0  0  0  0  0  0  0  0  0  0  0  0
    2.0232   -2.9591    0.4209 H   0  0  0  0  0  0  0  0  0  0  0  0
    6.5754   -0.4428   -2.7330 H   0  0  0  0  0  0  0  0  0  0  0  0
    6.3606   -1.5502   -1.3424 H   0  0  0  0  0  0  0  0  0  0  0  0
    6.5738    0.1776   -1.0568 H   0  0  0  0  0  0  0  0  0  0  0  0
    2.3818    0.6653   -0.7845 H   0  0  0  0  0  0  0  0  0  0  0  0
    2.1772   -0.9829   -1.3954 H   0  0  0  0  0  0  0  0  0  0  0  0
  1  9  1  0  0  0  0
  2 12  1  0  0  0  0
  2 11  1  0  0  0  0
  3 15  1  0  0  0  0
  3 16  1  0  0  0  0
  4  5  1  0  0  0  0
  5  2  1  0  0  0  0
  5  1  2  0  0  0  0
  6  3  1  0  0  0  0
  6  8  1  0  0  0  0
  7  6  2  0  0  0  0
  8  4  1  0  0  0  0
 10  1  1  0  0  0  0
 13  2  1  0  0  0  0
 14  3  1  0  0  0  0
 17  4  1  0  0  0  0
 18  4  1  0  0  0  0
M  END
>  <HBA>
2

>  <HBD>
0

>  <TPSA>
26.3

>  <cid>
69962

>  <dipole>
1.96

>  <excitation_energy_1>
5.773

>  <excitation_energy_2>
6.486

>  <excitation_energy_3>
6.569

>  <excitation_energy_4>
6.694

>  <homo_energy>
-6.953

>  <homo_lumo_gap>
7.236

>  <logP>
1.126

>  <lumo_energy>
0.283

>  <melting_point>
-31.3

>  <molecular_refractivity>
31.77

>  <oscillator_strength_1>
0.0012

>  <oscillator_strength_2>
0.0633

>  <oscillator_strength_3>
0.0019

>  <oscillator_strength_4>
0.1671

>  <open_babel_can_smiles>
CC(=O)OCC(=C)C

>  <mulliken_charges>
18
1   -0.391697
2   -0.509381
3   -0.523608
4   -0.105129
5   0.212272
6   0.606201
7   -0.467777
8   -0.455507
9   0.140557
10   0.140996
11   0.154613
12   0.172469
13   0.154005
14   0.182788
15   0.179427
16   0.183381
17   0.16029
18   0.166097

>  <lowdin_charges>
18
1   -0.343822
2   -0.44088
3   -0.465652
4   -0.121524
5   1e-06
6   0.200062
7   -0.263988
8   -0.204362
9   0.158183
10   0.157077
11   0.157917
12   0.163705
13   0.158244
14   0.175485
15   0.175718
16   0.179787
17   0.155189
18   0.158858

$$$$

