PCCDB-ID:  30845
public computational chemistry database (PCCDB) project, http://pccdb.org

 28 30  0  0  0  0  0  0  0  0999 V2000
    2.1009   -0.6378    0.1615 C   0  0  0  0  0  0  0  0  0  0  0  0
    2.0504    0.7698    0.1024 C   0  0  0  0  0  0  0  0  0  0  0  0
    0.9457   -1.4032    0.0605 C   0  0  0  0  0  0  0  0  0  0  0  0
    0.8429    1.4400   -0.0679 C   0  0  0  0  0  0  0  0  0  0  0  0
   -4.4904    1.1231   -1.1803 C   0  0  0  0  0  0  0  0  0  0  0  0
   -4.7591   -0.9630   -0.0197 C   0  0  0  0  0  0  0  0  0  0  0  0
   -5.8690    1.2237   -1.3292 C   0  0  0  0  0  0  0  0  0  0  0  0
   -6.1360   -0.8750   -0.1719 C   0  0  0  0  0  0  0  0  0  0  0  0
   -1.6495   -1.1987   -0.2215 C   0  0  0  0  0  0  0  0  0  0  0  0
   -3.8992    0.0307   -0.5214 C   0  0  0  0  0  0  0  0  0  0  0  0
   -0.2923   -0.7555   -0.0994 C   0  0  0  0  0  0  0  0  0  0  0  0
   -6.7193    0.2240   -0.8281 C   0  0  0  0  0  0  0  0  0  0  0  0
   -0.3160    0.6662   -0.1714 C   0  0  0  0  0  0  0  0  0  0  0  0
   -2.4497   -0.0834   -0.3621 C   0  0  0  0  0  0  0  0  0  0  0  0
   -8.1071    0.3469   -0.9228 N   0  0  0  0  0  0  0  0  0  0  0  0
   -1.6314    1.0437   -0.3606 N   0  0  0  0  0  0  0  0  0  0  0  0
    3.0616   -1.1294    0.2894 H   0  0  0  0  0  0  0  0  0  0  0  0
    2.9703    1.3419    0.1870 H   0  0  0  0  0  0  0  0  0  0  0  0
    0.9958   -2.4881    0.1092 H   0  0  0  0  0  0  0  0  0  0  0  0
    0.8050    2.5252   -0.1199 H   0  0  0  0  0  0  0  0  0  0  0  0
   -3.8611    1.8940   -1.6184 H   0  0  0  0  0  0  0  0  0  0  0  0
   -4.3366   -1.8100    0.5131 H   0  0  0  0  0  0  0  0  0  0  0  0
   -6.2950    2.0801   -1.8474 H   0  0  0  0  0  0  0  0  0  0  0  0
   -6.7751   -1.6553    0.2357 H   0  0  0  0  0  0  0  0  0  0  0  0
   -1.9915   -2.2241   -0.2561 H   0  0  0  0  0  0  0  0  0  0  0  0
   -8.4346    0.9360   -1.6784 H   0  0  0  0  0  0  0  0  0  0  0  0
   -8.6176   -0.5269   -0.8869 H   0  0  0  0  0  0  0  0  0  0  0  0
   -1.9788    1.9841   -0.2497 H   0  0  0  0  0  0  0  0  0  0  0  0
  1 17  1  0  0  0  0
  2  1  1  0  0  0  0
  2 18  1  0  0  0  0
  3 19  1  0  0  0  0
  3  1  2  0  0  0  0
  4  2  2  0  0  0  0
  5 10  1  0  0  0  0
  6 22  1  0  0  0  0
  7  5  2  0  0  0  0
  7 12  1  0  0  0  0
  8  6  1  0  0  0  0
  8 24  1  0  0  0  0
  9 11  1  0  0  0  0
 10 14  1  0  0  0  0
 10  6  2  0  0  0  0
 11  3  1  0  0  0  0
 12  8  2  0  0  0  0
 13 11  2  0  0  0  0
 13  4  1  0  0  0  0
 14 16  1  0  0  0  0
 14  9  2  0  0  0  0
 15 27  1  0  0  0  0
 15 12  1  0  0  0  0
 16 28  1  0  0  0  0
 16 13  1  0  0  0  0
 20  4  1  0  0  0  0
 21  5  1  0  0  0  0
 23  7  1  0  0  0  0
 25  9  1  0  0  0  0
 26 15  1  0  0  0  0
M  END
>  <HBA>
1

>  <HBD>
2

>  <TPSA>
41.81

>  <cid>
30845

>  <dipole>
3.79

>  <excitation_energy_1>
3.953

>  <excitation_energy_2>
4.023

>  <excitation_energy_3>
4.33

>  <excitation_energy_4>
4.372

>  <homo_energy>
-4.871

>  <homo_lumo_gap>
4.329

>  <logP>
3.998

>  <lumo_energy>
-0.542

>  <melting_point>
183.36

>  <molecular_refractivity>
68.14

>  <oscillator_strength_1>
0.7351

>  <oscillator_strength_2>
0.0326

>  <oscillator_strength_3>
0.005

>  <oscillator_strength_4>
0.055

>  <open_babel_can_smiles>
Nc1ccc(cc1)c1cc2c([nH]1)cccc2

>  <mulliken_charges>
28
1   -0.13789
2   -0.151282
3   -0.212888
4   -0.17513
5   -0.194712
6   -0.177753
7   -0.175983
8   -0.18035
9   -0.265284
10   0.111213
11   0.115232
12   0.3165
13   0.337591
14   0.271994
15   -0.78801
16   -0.760971
17   0.117297
18   0.119354
19   0.121491
20   0.117909
21   0.123004
22   0.135991
23   0.119238
24   0.121259
25   0.126111
26   0.321594
27   0.322155
28   0.322322

>  <lowdin_charges>
28
1   -0.176498
2   -0.168112
3   -0.162082
4   -0.186926
5   -0.158913
6   -0.142357
7   -0.19779
8   -0.196986
9   -0.234144
10   -0.033774
11   -0.02388
12   0.062179
13   0.032916
14   0.037486
15   -0.486155
16   -0.207817
17   0.153128
18   0.154484
19   0.152781
20   0.151783
21   0.155388
22   0.16326
23   0.154554
24   0.155934
25   0.160424
26   0.277195
27   0.276791
28   0.28713

$$$$

