PCCDB-ID:  70106
public computational chemistry database (PCCDB) project, http://pccdb.org

 17 17  0  0  0  0  0  0  0  0999 V2000
   -0.6895   -1.2176    0.1550 C   0  0  0  0  0  0  0  0  0  0  0  0
    0.7909   -0.9789    0.5019 C   0  0  0  0  0  0  0  0  0  0  0  0
   -1.2621    0.1876   -0.1814 C   0  0  0  0  0  0  0  0  0  0  0  0
    1.1888    0.1859   -0.4171 C   0  0  0  0  0  0  0  0  0  0  0  0
   -0.1452    2.0058   -1.5787 C   0  0  0  0  0  0  0  0  0  0  0  0
   -0.0326    1.1389   -0.3485 C   0  0  0  0  0  0  0  0  0  0  0  0
   -0.0835    3.2148   -1.5978 O   0  0  0  0  0  0  0  0  0  0  0  0
   -1.2409   -1.7079    0.9639 H   0  0  0  0  0  0  0  0  0  0  0  0
   -0.7614   -1.8720   -0.7222 H   0  0  0  0  0  0  0  0  0  0  0  0
    1.4139   -1.8683    0.3571 H   0  0  0  0  0  0  0  0  0  0  0  0
    0.8934   -0.6732    1.5514 H   0  0  0  0  0  0  0  0  0  0  0  0
   -1.9172    0.5645    0.6099 H   0  0  0  0  0  0  0  0  0  0  0  0
   -1.8679    0.1549   -1.0957 H   0  0  0  0  0  0  0  0  0  0  0  0
    1.3188   -0.1826   -1.4453 H   0  0  0  0  0  0  0  0  0  0  0  0
    2.1197    0.6834   -0.1269 H   0  0  0  0  0  0  0  0  0  0  0  0
   -0.2941    1.4289   -2.5246 H   0  0  0  0  0  0  0  0  0  0  0  0
    0.0618    1.8035    0.5165 H   0  0  0  0  0  0  0  0  0  0  0  0
  1  2  1  0  0  0  0
  1  8  1  0  0  0  0
  2 11  1  0  0  0  0
  3  1  1  0  0  0  0
  3 12  1  0  0  0  0
  4  6  1  0  0  0  0
  4 15  1  0  0  0  0
  4  2  1  0  0  0  0
  5  6  1  0  0  0  0
  6  3  1  0  0  0  0
  6 17  1  0  0  0  0
  7  5  2  0  0  0  0
  9  1  1  0  0  0  0
 10  2  1  0  0  0  0
 13  3  1  0  0  0  0
 14  4  1  0  0  0  0
 16  5  1  0  0  0  0
M  END
>  <HBA>
1

>  <HBD>
0

>  <TPSA>
17.07

>  <cid>
70106

>  <dipole>
3.04

>  <excitation_energy_1>
4.272

>  <excitation_energy_2>
6.459

>  <excitation_energy_3>
6.692

>  <excitation_energy_4>
6.945

>  <homo_energy>
-6.713

>  <homo_lumo_gap>
6.221

>  <logP>
1.375

>  <lumo_energy>
-0.493

>  <melting_point>
27.74

>  <molecular_refractivity>
29.04

>  <oscillator_strength_1>
0.0

>  <oscillator_strength_2>
0.0108

>  <oscillator_strength_3>
0.0369

>  <oscillator_strength_4>
0.0088

>  <open_babel_can_smiles>
O=CC1CCCC1

>  <mulliken_charges>
17
1   -0.271336
2   -0.26599
3   -0.295065
4   -0.285832
5   0.250387
6   -0.1446
7   -0.390039
8   0.143218
9   0.140957
10   0.140944
11   0.140551
12   0.155122
13   0.145073
14   0.138883
15   0.153581
16   0.092038
17   0.152106

>  <lowdin_charges>
17
1   -0.284523
2   -0.27835
3   -0.28455
4   -0.275417
5   0.048485
6   -0.162671
7   -0.218729
8   0.15114
9   0.145172
10   0.149243
11   0.142693
12   0.156236
13   0.148465
14   0.141776
15   0.154514
16   0.109382
17   0.157134

$$$$

