PCCDB-ID:  17576
public computational chemistry database (PCCDB) project, http://pccdb.org

  9  8  0  0  0  0  0  0  0  0999 V2000
    1.0931   -0.0833    0.2081 C   0  0  0  0  0  0  0  0  0  0  0  0
    3.0169    1.3305   -0.3271 C   0  0  0  0  0  0  0  0  0  0  0  0
    2.4714    0.1278   -0.1195 O   0  0  0  0  0  0  0  0  0  0  0  0
    4.6095    1.4674   -0.7022 S   0  0  0  0  0  0  0  0  0  0  0  0
    2.0581    2.8303   -0.2088 S   0  0  0  0  0  0  0  0  0  0  0  0
    0.9899   -1.1641    0.3059 H   0  0  0  0  0  0  0  0  0  0  0  0
    0.4379    0.2739   -0.5935 H   0  0  0  0  0  0  0  0  0  0  0  0
    0.8356    0.3945    1.1593 H   0  0  0  0  0  0  0  0  0  0  0  0
    0.8328    2.3476    0.1046 H   0  0  0  0  0  0  0  0  0  0  0  0
  1  6  1  0  0  0  0
  1  8  1  0  0  0  0
  2  5  1  0  0  0  0
  2  3  1  0  0  0  0
  3  1  1  0  0  0  0
  4  2  2  0  0  0  0
  5  9  1  0  0  0  0
  7  1  1  0  0  0  0
M  END
>  <HBA>
3

>  <HBD>
1

>  <TPSA>
80.12

>  <cid>
17576

>  <dipole>
5.27

>  <excitation_energy_1>
3.322

>  <excitation_energy_2>
4.68

>  <excitation_energy_3>
5.308

>  <excitation_energy_4>
5.336

>  <homo_energy>
-6.248

>  <homo_lumo_gap>
4.757

>  <logP>
0.848

>  <lumo_energy>
-1.491

>  <melting_point>
17.76

>  <molecular_refractivity>
28.53

>  <oscillator_strength_1>
0.0

>  <oscillator_strength_2>
0.0696

>  <oscillator_strength_3>
0.0094

>  <oscillator_strength_4>
0.1699

>  <open_babel_can_smiles>
COC(=S)S

>  <mulliken_charges>
9
1   -0.253774
2   0.052577
3   -0.356836
4   -0.139058
5   0.064742
6   0.199171
7   0.177524
8   0.177373
9   0.07828

>  <lowdin_charges>
9
1   -0.28181
2   -0.119352
3   -0.148314
4   -0.101753
5   0.045144
6   0.177435
7   0.161409
8   0.160131
9   0.10711

$$$$

