PCCDB-ID:  41855
public computational chemistry database (PCCDB) project, http://pccdb.org

 17 16  0  0  0  0  0  0  0  0999 V2000
    1.8164   -0.6940    0.8765 C   0  0  0  0  0  0  0  0  0  0  0  0
    3.1485   -0.4503    0.1609 C   0  0  0  0  0  0  0  0  0  0  0  0
    3.1680    0.8668   -0.6246 C   0  0  0  0  0  0  0  0  0  0  0  0
    4.4958    1.1377   -1.3439 C   0  0  0  0  0  0  0  0  0  0  0  0
    4.6948    0.1647   -2.4278 N   0  0  0  0  0  0  0  0  0  0  0  0
    5.7497   -0.4553   -2.2978 N   0  0  0  0  0  0  0  0  0  0  0  0
    5.8793   -1.3697   -3.3583 O   0  0  0  0  0  0  0  0  0  0  0  0
    1.8285   -1.6401    1.4292 H   0  0  0  0  0  0  0  0  0  0  0  0
    0.9853   -0.7365    0.1621 H   0  0  0  0  0  0  0  0  0  0  0  0
    1.5967    0.1074    1.5929 H   0  0  0  0  0  0  0  0  0  0  0  0
    3.3568   -1.2815   -0.5246 H   0  0  0  0  0  0  0  0  0  0  0  0
    3.9666   -0.4456    0.8954 H   0  0  0  0  0  0  0  0  0  0  0  0
    2.9754    1.7081    0.0552 H   0  0  0  0  0  0  0  0  0  0  0  0
    2.3591    0.8686   -1.3669 H   0  0  0  0  0  0  0  0  0  0  0  0
    5.3410    1.1249   -0.6420 H   0  0  0  0  0  0  0  0  0  0  0  0
    4.4580    2.1233   -1.8242 H   0  0  0  0  0  0  0  0  0  0  0  0
    6.7325   -1.7891   -3.1538 H   0  0  0  0  0  0  0  0  0  0  0  0
  1  8  1  0  0  0  0
  1 10  1  0  0  0  0
  2  1  1  0  0  0  0
  2 12  1  0  0  0  0
  3 13  1  0  0  0  0
  3  2  1  0  0  0  0
  4 15  1  0  0  0  0
  4  3  1  0  0  0  0
  5  6  1  0  0  0  0
  5  4  1  0  0  0  0
  7 17  1  0  0  0  0
  7  6  1  0  0  0  0
  9  1  1  0  0  0  0
 11  2  1  0  0  0  0
 14  3  1  0  0  0  0
 16  4  1  0  0  0  0
M  RAD  2   5   2   6   2
M  END
>  <HBA>
3

>  <HBD>
1

>  <TPSA>
41.46

>  <cid>
41855

>  <dipole>
1.69

>  <excitation_energy_1>
4.451

>  <excitation_energy_2>
6.343

>  <excitation_energy_3>
6.891

>  <excitation_energy_4>
6.957

>  <homo_energy>
-6.874

>  <homo_lumo_gap>
6.15

>  <logP>
1.448

>  <lumo_energy>
-0.724

>  <melting_point>
21.0

>  <molecular_refractivity>
28.88

>  <oscillator_strength_1>
0.0001

>  <oscillator_strength_2>
0.0949

>  <oscillator_strength_3>
0.1061

>  <oscillator_strength_4>
0.0221

>  <open_babel_can_smiles>
CCCC[N][N]O

>  <mulliken_charges>
17
1   -0.44287
2   -0.251153
3   -0.257683
4   -0.15138
5   -0.157312
6   0.018162
7   -0.470824
8   0.144875
9   0.145769
10   0.14089
11   0.14922
12   0.131578
13   0.13622
14   0.150822
15   0.1455
16   0.160275
17   0.407911

>  <lowdin_charges>
17
1   -0.444582
2   -0.27723
3   -0.279679
4   -0.213859
5   -0.105929
6   0.005173
7   -0.364817
8   0.151013
9   0.149097
10   0.146536
11   0.148174
12   0.140299
13   0.147046
14   0.15137
15   0.141585
16   0.158107
17   0.347696

$$$$

