PCCDB-ID:  65081
public computational chemistry database (PCCDB) project, http://pccdb.org

 28 27  0  0  0  0  0  0  0  0999 V2000
    2.1546    0.3812   -0.1183 C   0  0  0  0  0  0  0  0  0  0  0  0
    9.5229   -1.7414   -1.2150 C   0  0  0  0  0  0  0  0  0  0  0  0
    4.8067   -5.7535   -2.9910 C   0  0  0  0  0  0  0  0  0  0  0  0
    2.5761   -1.0180    0.3019 C   0  0  0  0  0  0  0  0  0  0  0  0
    8.1342   -1.1618   -1.4045 C   0  0  0  0  0  0  0  0  0  0  0  0
    5.6697   -4.5080   -3.0420 C   0  0  0  0  0  0  0  0  0  0  0  0
    4.7471   -1.3302   -0.6232 C   0  0  0  0  0  0  0  0  0  0  0  0
    5.2706   -0.6195    0.2080 O   0  0  0  0  0  0  0  0  0  0  0  0
    5.6215   -1.2702   -3.2901 O   0  0  0  0  0  0  0  0  0  0  0  0
    3.4453   -1.6246   -0.6978 O   0  0  0  0  0  0  0  0  0  0  0  0
    7.1890   -2.2675   -1.4333 O   0  0  0  0  0  0  0  0  0  0  0  0
    5.1608   -3.5715   -2.0524 O   0  0  0  0  0  0  0  0  0  0  0  0
    5.7103   -2.0645   -2.0391 P   0  0  0  0  0  0  0  0  0  0  0  0
    1.4391    0.7836    0.6079 H   0  0  0  0  0  0  0  0  0  0  0  0
    1.6756    0.3630   -1.1021 H   0  0  0  0  0  0  0  0  0  0  0  0
    3.0182    1.0507   -0.1568 H   0  0  0  0  0  0  0  0  0  0  0  0
   10.2590   -0.9314   -1.1628 H   0  0  0  0  0  0  0  0  0  0  0  0
    9.7882   -2.3967   -2.0511 H   0  0  0  0  0  0  0  0  0  0  0  0
    9.5797   -2.3203   -0.2878 H   0  0  0  0  0  0  0  0  0  0  0  0
    5.1743   -6.4891   -3.7151 H   0  0  0  0  0  0  0  0  0  0  0  0
    3.7673   -5.5139   -3.2355 H   0  0  0  0  0  0  0  0  0  0  0  0
    4.8340   -6.2046   -1.9941 H   0  0  0  0  0  0  0  0  0  0  0  0
    1.7246   -1.6992    0.3569 H   0  0  0  0  0  0  0  0  0  0  0  0
    3.1010   -1.0106    1.2598 H   0  0  0  0  0  0  0  0  0  0  0  0
    8.0526   -0.6050   -2.3432 H   0  0  0  0  0  0  0  0  0  0  0  0
    7.8506   -0.5072   -0.5756 H   0  0  0  0  0  0  0  0  0  0  0  0
    5.6314   -4.0340   -4.0282 H   0  0  0  0  0  0  0  0  0  0  0  0
    6.7138   -4.7300   -2.7967 H   0  0  0  0  0  0  0  0  0  0  0  0
  1  4  1  0  0  0  0
  1 14  1  0  0  0  0
  2 17  1  0  0  0  0
  2 19  1  0  0  0  0
  3 22  1  0  0  0  0
  4 23  1  0  0  0  0
  4 24  1  0  0  0  0
  5  2  1  0  0  0  0
  5 26  1  0  0  0  0
  6  3  1  0  0  0  0
  6 28  1  0  0  0  0
  6 12  1  0  0  0  0
  7  8  2  0  0  0  0
  9 13  2  0  0  0  0
 10  7  1  0  0  0  0
 10  4  1  0  0  0  0
 11  5  1  0  0  0  0
 12 13  1  0  0  0  0
 13 11  1  0  0  0  0
 13  7  1  0  0  0  0
 15  1  1  0  0  0  0
 16  1  1  0  0  0  0
 18  2  1  0  0  0  0
 20  3  1  0  0  0  0
 21  3  1  0  0  0  0
 25  5  1  0  0  0  0
 27  6  1  0  0  0  0
M  END
>  <HBA>
5

>  <HBD>
0

>  <TPSA>
71.64

>  <cid>
65081

>  <dipole>
2.0

>  <excitation_energy_1>
5.149

>  <excitation_energy_2>
6.116

>  <excitation_energy_3>
6.463

>  <excitation_energy_4>
6.754

>  <homo_energy>
-7.282

>  <homo_lumo_gap>
6.7

>  <logP>
2.409

>  <lumo_energy>
-0.582

>  <melting_point>
-6.92

>  <molecular_refractivity>
48.27

>  <oscillator_strength_1>
0.0056

>  <oscillator_strength_2>
0.0094

>  <oscillator_strength_3>
0.0438

>  <oscillator_strength_4>
0.0073

>  <open_babel_can_smiles>
CCOC(=O)P(=O)(OCC)OCC

>  <mulliken_charges>
28
1   -0.462895
2   -0.456155
3   -0.455647
4   -0.059921
5   -0.045251
6   -0.038501
7   0.412898
8   -0.447991
9   -0.541622
10   -0.423369
11   -0.528001
12   -0.514647
13   1.073659
14   0.15412
15   0.168675
16   0.179935
17   0.152011
18   0.159936
19   0.164463
20   0.151507
21   0.168913
22   0.165062
23   0.163864
24   0.174482
25   0.173096
26   0.175315
27   0.173805
28   0.162258

>  <lowdin_charges>
28
1   -0.454451
2   -0.449384
3   -0.445842
4   -0.12756
5   -0.120064
6   -0.113784
7   0.061983
8   -0.245563
9   -0.579991
10   -0.164617
11   -0.40063
12   -0.391501
13   1.028494
14   0.162308
15   0.161934
16   0.167987
17   0.160186
18   0.158492
19   0.160182
20   0.160427
21   0.161575
22   0.160173
23   0.159143
24   0.160633
25   0.160363
26   0.159154
27   0.159508
28   0.150846

$$$$

