PCCDB-ID:  41425
public computational chemistry database (PCCDB) project, http://pccdb.org

 35 37  0  0  0  0  0  0  0  0999 V2000
    2.4684    1.5141    0.7603 C   0  0  0  0  0  0  0  0  0  0  0  0
    3.9103    0.9616   -3.2259 C   0  0  0  0  0  0  0  0  0  0  0  0
    4.1961   -0.3147   -3.6816 C   0  0  0  0  0  0  0  0  0  0  0  0
    3.4331    1.2023   -1.9152 C   0  0  0  0  0  0  0  0  0  0  0  0
    8.6513   -5.3529   -6.5080 C   0  0  0  0  0  0  0  0  0  0  0  0
    8.8862   -5.3045   -5.0164 C   0  0  0  0  0  0  0  0  0  0  0  0
    4.6820   -3.5959   -4.1069 C   0  0  0  0  0  0  0  0  0  0  0  0
    6.2043   -3.4905   -4.2991 C   0  0  0  0  0  0  0  0  0  0  0  0
    3.7989   -3.3630   -1.7040 C   0  0  0  0  0  0  0  0  0  0  0  0
    4.1734   -2.8339   -2.9164 C   0  0  0  0  0  0  0  0  0  0  0  0
    8.0560   -4.2388   -5.6880 C   0  0  0  0  0  0  0  0  0  0  0  0
    4.0016   -1.4039   -2.8057 C   0  0  0  0  0  0  0  0  0  0  0  0
    3.2328    0.1441   -1.0364 C   0  0  0  0  0  0  0  0  0  0  0  0
    3.5220   -1.1497   -1.4988 C   0  0  0  0  0  0  0  0  0  0  0  0
    6.6341   -4.2669   -5.4634 N   0  0  0  0  0  0  0  0  0  0  0  0
    3.4065   -2.3549   -0.8453 N   0  0  0  0  0  0  0  0  0  0  0  0
    2.7734    0.2251    0.2530 O   0  0  0  0  0  0  0  0  0  0  0  0
    2.1231    1.3624    1.7849 H   0  0  0  0  0  0  0  0  0  0  0  0
    1.6739    1.9972    0.1764 H   0  0  0  0  0  0  0  0  0  0  0  0
    3.3543    2.1627    0.7671 H   0  0  0  0  0  0  0  0  0  0  0  0
    4.0537    1.8131   -3.8857 H   0  0  0  0  0  0  0  0  0  0  0  0
    4.5611   -0.4713   -4.6928 H   0  0  0  0  0  0  0  0  0  0  0  0
    3.2256    2.2209   -1.6074 H   0  0  0  0  0  0  0  0  0  0  0  0
    7.9630   -6.1065   -6.8792 H   0  0  0  0  0  0  0  0  0  0  0  0
    9.4774   -5.1196   -7.1743 H   0  0  0  0  0  0  0  0  0  0  0  0
    9.8750   -5.0390   -4.6527 H   0  0  0  0  0  0  0  0  0  0  0  0
    8.3501   -6.0248   -4.4056 H   0  0  0  0  0  0  0  0  0  0  0  0
    4.4208   -4.6572   -4.0199 H   0  0  0  0  0  0  0  0  0  0  0  0
    4.1853   -3.2311   -5.0192 H   0  0  0  0  0  0  0  0  0  0  0  0
    6.7102   -3.9004   -3.4170 H   0  0  0  0  0  0  0  0  0  0  0  0
    6.4971   -2.4253   -4.3590 H   0  0  0  0  0  0  0  0  0  0  0  0
    3.7771   -4.3963   -1.3841 H   0  0  0  0  0  0  0  0  0  0  0  0
    8.5311   -3.2551   -5.7855 H   0  0  0  0  0  0  0  0  0  0  0  0
    6.1548   -3.9207   -6.2947 H   0  0  0  0  0  0  0  0  0  0  0  0
    3.0792   -2.4647    0.1009 H   0  0  0  0  0  0  0  0  0  0  0  0
  1 20  1  0  0  0  0
  1 18  1  0  0  0  0
  2  4  1  0  0  0  0
  3  2  2  0  0  0  0
  3 12  1  0  0  0  0
  4 23  1  0  0  0  0
  4 13  2  0  0  0  0
  5 11  1  0  0  0  0
  5  6  1  0  0  0  0
  6 26  1  0  0  0  0
  6 27  1  0  0  0  0
  7 28  1  0  0  0  0
  7 10  1  0  0  0  0
  8  7  1  0  0  0  0
  8 30  1  0  0  0  0
  9 32  1  0  0  0  0
  9 16  1  0  0  0  0
 10 12  1  0  0  0  0
 10  9  2  0  0  0  0
 11 15  1  0  0  0  0
 11  6  1  0  0  0  0
 12 14  2  0  0  0  0
 13 17  1  0  0  0  0
 14 13  1  0  0  0  0
 14 16  1  0  0  0  0
 15  8  1  0  0  0  0
 16 35  1  0  0  0  0
 17  1  1  0  0  0  0
 19  1  1  0  0  0  0
 21  2  1  0  0  0  0
 22  3  1  0  0  0  0
 24  5  1  0  0  0  0
 25  5  1  0  0  0  0
 29  7  1  0  0  0  0
 31  8  1  0  0  0  0
 33 11  1  0  0  0  0
 34 15  1  0  0  0  0
M  END
>  <HBA>
2

>  <HBD>
2

>  <TPSA>
37.05

>  <cid>
41425

>  <dipole>
2.18

>  <excitation_energy_1>
4.648

>  <excitation_energy_2>
4.689

>  <excitation_energy_3>
4.835

>  <excitation_energy_4>
4.876

>  <homo_energy>
-5.048

>  <homo_lumo_gap>
5.268

>  <logP>
2.862

>  <lumo_energy>
0.22

>  <melting_point>
152.97

>  <molecular_refractivity>
69.67

>  <oscillator_strength_1>
0.0976

>  <oscillator_strength_2>
0.0003

>  <oscillator_strength_3>
0.0024

>  <oscillator_strength_4>
0.0018

>  <open_babel_can_smiles>
COc1cccc2c1[nH]cc2CCNC1CC1

>  <mulliken_charges>
35
1   -0.212061
2   -0.143735
3   -0.211729
4   -0.229081
5   -0.323023
6   -0.301563
7   -0.356784
8   -0.108501
9   0.000378
10   0.061213
11   0.032283
12   0.091119
13   0.366792
14   0.254707
15   -0.565429
16   -0.687939
17   -0.536079
18   0.164747
19   0.153746
20   0.153775
21   0.117562
22   0.115857
23   0.123175
24   0.15675
25   0.145034
26   0.144981
27   0.15675
28   0.147982
29   0.134212
30   0.144476
31   0.119838
32   0.144612
33   0.120139
34   0.29163
35   0.334166

>  <lowdin_charges>
35
1   -0.276639
2   -0.168511
3   -0.182856
4   -0.228603
5   -0.321062
6   -0.319721
7   -0.270728
8   -0.198616
9   -0.13648
10   -0.061166
11   -0.096079
12   -0.031788
13   0.081655
14   0.006514
15   -0.351773
16   -0.188022
17   -0.214551
18   0.158987
19   0.147316
20   0.146722
21   0.154194
22   0.152311
23   0.158175
24   0.163926
25   0.156746
26   0.155259
27   0.164238
28   0.152666
29   0.143992
30   0.146094
31   0.119141
32   0.162088
33   0.128738
34   0.252659
35   0.295175

$$$$

