PCCDB-ID:  25640
public computational chemistry database (PCCDB) project, http://pccdb.org

 23 23  0  0  0  0  0  0  0  0999 V2000
    1.0691    0.1138   -0.0082 C   0  0  0  0  0  0  0  0  0  0  0  0
    2.5214   -0.2585    0.0881 C   0  0  0  0  0  0  0  0  0  0  0  0
    3.3065   -0.5756   -0.9454 C   0  0  0  0  0  0  0  0  0  0  0  0
    4.7660   -0.9413   -0.8440 C   0  0  0  0  0  0  0  0  0  0  0  0
    4.3770   -3.4518   -0.9873 C   0  0  0  0  0  0  0  0  0  0  0  0
    6.1205   -2.5038   -2.3330 C   0  0  0  0  0  0  0  0  0  0  0  0
    4.6811   -4.7205   -1.4782 C   0  0  0  0  0  0  0  0  0  0  0  0
    6.4377   -3.7639   -2.8353 C   0  0  0  0  0  0  0  0  0  0  0  0
    5.0912   -2.3205   -1.4005 C   0  0  0  0  0  0  0  0  0  0  0  0
    5.7154   -4.8806   -2.4063 C   0  0  0  0  0  0  0  0  0  0  0  0
    6.0605   -6.0990   -2.9284 O   0  0  0  0  0  0  0  0  0  0  0  0
    0.8906    1.1268    0.3776 H   0  0  0  0  0  0  0  0  0  0  0  0
    0.4424   -0.5632    0.5882 H   0  0  0  0  0  0  0  0  0  0  0  0
    0.7133    0.0793   -1.0436 H   0  0  0  0  0  0  0  0  0  0  0  0
    2.9518   -0.2579    1.0918 H   0  0  0  0  0  0  0  0  0  0  0  0
    2.8834   -0.5858   -1.9516 H   0  0  0  0  0  0  0  0  0  0  0  0
    5.0799   -0.8752    0.2075 H   0  0  0  0  0  0  0  0  0  0  0  0
    5.3681   -0.1992   -1.3878 H   0  0  0  0  0  0  0  0  0  0  0  0
    3.5647   -3.3381   -0.2738 H   0  0  0  0  0  0  0  0  0  0  0  0
    6.6900   -1.6420   -2.6748 H   0  0  0  0  0  0  0  0  0  0  0  0
    4.1101   -5.5862   -1.1454 H   0  0  0  0  0  0  0  0  0  0  0  0
    7.2351   -3.8985   -3.5595 H   0  0  0  0  0  0  0  0  0  0  0  0
    5.4858   -6.7781   -2.5428 H   0  0  0  0  0  0  0  0  0  0  0  0
  1  2  1  0  0  0  0
  1 12  1  0  0  0  0
  1 13  1  0  0  0  0
  2 15  1  0  0  0  0
  3  4  1  0  0  0  0
  3  2  2  0  0  0  0
  4 17  1  0  0  0  0
  5 19  1  0  0  0  0
  6  9  2  0  0  0  0
  7 21  1  0  0  0  0
  7  5  2  0  0  0  0
  8 10  2  0  0  0  0
  8  6  1  0  0  0  0
  9  5  1  0  0  0  0
  9  4  1  0  0  0  0
 10  7  1  0  0  0  0
 11 23  1  0  0  0  0
 11 10  1  0  0  0  0
 14  1  1  0  0  0  0
 16  3  1  0  0  0  0
 18  4  1  0  0  0  0
 20  6  1  0  0  0  0
 22  8  1  0  0  0  0
M  END
>  <HBA>
1

>  <HBD>
1

>  <TPSA>
20.23

>  <cid>
25640

>  <dipole>
1.52

>  <excitation_energy_1>
4.876

>  <excitation_energy_2>
5.087

>  <excitation_energy_3>
5.468

>  <excitation_energy_4>
5.639

>  <homo_energy>
-5.736

>  <homo_lumo_gap>
5.772

>  <logP>
2.511

>  <lumo_energy>
0.035

>  <melting_point>
55.92

>  <molecular_refractivity>
47.38

>  <oscillator_strength_1>
0.0434

>  <oscillator_strength_2>
0.0006

>  <oscillator_strength_3>
0.0952

>  <oscillator_strength_4>
0.0041

>  <open_babel_can_smiles>
C/C=C/Cc1ccc(cc1)O

>  <mulliken_charges>
23
1   -0.486494
2   -0.099223
3   -0.074046
4   -0.392865
5   -0.179712
6   -0.199492
7   -0.193628
8   -0.15616
9   0.168713
10   0.347724
11   -0.644957
12   0.154582
13   0.153163
14   0.152928
15   0.11769
16   0.121099
17   0.151093
18   0.147007
19   0.13086
20   0.123281
21   0.115672
22   0.137014
23   0.405752

>  <lowdin_charges>
23
1   -0.438945
2   -0.168901
3   -0.166335
4   -0.267435
5   -0.150452
6   -0.157635
7   -0.214698
8   -0.18614
9   -0.024827
10   0.100315
11   -0.38408
12   0.155602
13   0.15689
14   0.153873
15   0.144593
16   0.147824
17   0.152872
18   0.154704
19   0.160366
20   0.155761
21   0.15223
22   0.166442
23   0.357976

$$$$

