PCCDB-ID:  20490
public computational chemistry database (PCCDB) project, http://pccdb.org

 34 35  0  0  0  0  0  0  0  0999 V2000
   -2.9443   -1.3400   -1.4739 C   0  0  0  0  0  0  0  0  0  0  0  0
   -2.1475   -0.2398   -0.7559 C   0  0  0  0  0  0  0  0  0  0  0  0
   -2.6008   -2.7325   -0.9221 C   0  0  0  0  0  0  0  0  0  0  0  0
    2.2346   -2.2841    3.0956 C   0  0  0  0  0  0  0  0  0  0  0  0
    1.0741   -2.3168    4.1340 C   0  0  0  0  0  0  0  0  0  0  0  0
   -0.6366   -0.5216   -0.8071 C   0  0  0  0  0  0  0  0  0  0  0  0
   -1.0863   -2.9990   -0.9660 C   0  0  0  0  0  0  0  0  0  0  0  0
    1.7896   -3.2157    1.9432 C   0  0  0  0  0  0  0  0  0  0  0  0
   -0.0273   -3.2088    3.5052 C   0  0  0  0  0  0  0  0  0  0  0  0
   -0.3762   -1.9581    1.2971 C   0  0  0  0  0  0  0  0  0  0  0  0
   -0.2563   -1.9111   -0.2437 C   0  0  0  0  0  0  0  0  0  0  0  0
    0.2444   -3.1941    1.9828 C   0  0  0  0  0  0  0  0  0  0  0  0
   -2.7071   -1.3112   -2.5483 H   0  0  0  0  0  0  0  0  0  0  0  0
   -4.0221   -1.1504   -1.3876 H   0  0  0  0  0  0  0  0  0  0  0  0
   -2.4807   -0.1711    0.2892 H   0  0  0  0  0  0  0  0  0  0  0  0
   -2.3576    0.7376   -1.2095 H   0  0  0  0  0  0  0  0  0  0  0  0
   -3.1289   -3.5071   -1.4932 H   0  0  0  0  0  0  0  0  0  0  0  0
   -2.9655   -2.8132    0.1115 H   0  0  0  0  0  0  0  0  0  0  0  0
    3.1893   -2.6033    3.5272 H   0  0  0  0  0  0  0  0  0  0  0  0
    2.3876   -1.2637    2.7263 H   0  0  0  0  0  0  0  0  0  0  0  0
    0.6970   -1.3055    4.3220 H   0  0  0  0  0  0  0  0  0  0  0  0
    1.4002   -2.7108    5.1025 H   0  0  0  0  0  0  0  0  0  0  0  0
   -0.0860    0.2624   -0.2698 H   0  0  0  0  0  0  0  0  0  0  0  0
   -0.3081   -0.4680   -1.8557 H   0  0  0  0  0  0  0  0  0  0  0  0
   -0.7681   -3.0305   -2.0185 H   0  0  0  0  0  0  0  0  0  0  0  0
   -0.8664   -3.9914   -0.5534 H   0  0  0  0  0  0  0  0  0  0  0  0
    2.1361   -4.2394    2.1372 H   0  0  0  0  0  0  0  0  0  0  0  0
    2.2088   -2.9187    0.9755 H   0  0  0  0  0  0  0  0  0  0  0  0
   -1.0399   -2.8729    3.7578 H   0  0  0  0  0  0  0  0  0  0  0  0
    0.0702   -4.2367    3.8771 H   0  0  0  0  0  0  0  0  0  0  0  0
   -1.4329   -1.9019    1.5896 H   0  0  0  0  0  0  0  0  0  0  0  0
    0.0908   -1.0497    1.7048 H   0  0  0  0  0  0  0  0  0  0  0  0
    0.8003   -2.0818   -0.4947 H   0  0  0  0  0  0  0  0  0  0  0  0
   -0.1678   -4.0985    1.5179 H   0  0  0  0  0  0  0  0  0  0  0  0
  1 14  1  0  0  0  0
  1  3  1  0  0  0  0
  1  2  1  0  0  0  0
  2 15  1  0  0  0  0
  3 18  1  0  0  0  0
  4 19  1  0  0  0  0
  4  5  1  0  0  0  0
  5 21  1  0  0  0  0
  5 22  1  0  0  0  0
  6  2  1  0  0  0  0
  6 23  1  0  0  0  0
  6 11  1  0  0  0  0
  7  3  1  0  0  0  0
  7 26  1  0  0  0  0
  7 11  1  0  0  0  0
  8 12  1  0  0  0  0
  8 27  1  0  0  0  0
  8  4  1  0  0  0  0
  9 29  1  0  0  0  0
  9 30  1  0  0  0  0
  9  5  1  0  0  0  0
 10 31  1  0  0  0  0
 10 32  1  0  0  0  0
 10 12  1  0  0  0  0
 11 10  1  0  0  0  0
 12  9  1  0  0  0  0
 13  1  1  0  0  0  0
 16  2  1  0  0  0  0
 17  3  1  0  0  0  0
 20  4  1  0  0  0  0
 24  6  1  0  0  0  0
 25  7  1  0  0  0  0
 28  8  1  0  0  0  0
 33 11  1  0  0  0  0
 34 12  1  0  0  0  0
M  END
>  <HBA>
0

>  <HBD>
0

>  <TPSA>
0.0

>  <cid>
20490

>  <dipole>
0.06

>  <excitation_energy_1>
7.083

>  <excitation_energy_2>
7.184

>  <excitation_energy_3>
7.313

>  <excitation_energy_4>
7.384

>  <homo_energy>
-7.668

>  <homo_lumo_gap>
9.619

>  <logP>
4.147

>  <lumo_energy>
1.951

>  <melting_point>
14.61

>  <molecular_refractivity>
55.57

>  <oscillator_strength_1>
0.0068

>  <oscillator_strength_2>
0.0049

>  <oscillator_strength_3>
0.0043

>  <oscillator_strength_4>
0.0069

>  <open_babel_can_smiles>
C1CCC(CC1)CC1CCCC1

>  <mulliken_charges>
34
1   -0.253651
2   -0.259492
3   -0.260323
4   -0.272278
5   -0.270776
6   -0.264723
7   -0.268178
8   -0.2729
9   -0.271418
10   -0.267643
11   -0.078788
12   -0.095747
13   0.125072
14   0.127229
15   0.131361
16   0.12809
17   0.128324
18   0.130948
19   0.133912
20   0.136368
21   0.136358
22   0.134409
23   0.124542
24   0.123571
25   0.124748
26   0.131856
27   0.130314
28   0.135019
29   0.128817
30   0.130418
31   0.129794
32   0.125999
33   0.11778
34   0.120988

>  <lowdin_charges>
34
1   -0.273812
2   -0.27861
3   -0.280606
4   -0.286652
5   -0.287111
6   -0.278798
7   -0.279664
8   -0.284584
9   -0.281582
10   -0.281574
11   -0.129237
12   -0.133752
13   0.134116
14   0.139757
15   0.136835
16   0.142081
17   0.143967
18   0.136512
19   0.144677
20   0.140884
21   0.142029
22   0.144282
23   0.140943
24   0.136057
25   0.137146
26   0.141064
27   0.140036
28   0.142657
29   0.141034
30   0.13989
31   0.138024
32   0.140552
33   0.135644
34   0.137795

$$$$

