PCCDB-ID:  14020
public computational chemistry database (PCCDB) project, http://pccdb.org

 29 28  0  0  0  0  0  0  0  0999 V2000
    2.8530   -0.3986   -1.3842 C   0  0  0  0  0  0  0  0  0  0  0  0
    2.9292   -1.3928    3.7695 C   0  0  0  0  0  0  0  0  0  0  0  0
    1.0470   -2.8083    0.8946 C   0  0  0  0  0  0  0  0  0  0  0  0
    5.3331    0.1900    1.3352 C   0  0  0  0  0  0  0  0  0  0  0  0
    2.4741   -0.1283    0.0777 C   0  0  0  0  0  0  0  0  0  0  0  0
    2.5333   -0.5839    2.5273 C   0  0  0  0  0  0  0  0  0  0  0  0
    2.5609   -2.5577    0.8896 C   0  0  0  0  0  0  0  0  0  0  0  0
    4.5955   -1.1360    1.1083 C   0  0  0  0  0  0  0  0  0  0  0  0
    3.0408   -1.1012    1.1509 C   0  0  0  0  0  0  0  0  0  0  0  0
    2.3841    0.3448   -2.0394 H   0  0  0  0  0  0  0  0  0  0  0  0
    2.5198   -1.3861   -1.7229 H   0  0  0  0  0  0  0  0  0  0  0  0
    3.9348   -0.3398   -1.5475 H   0  0  0  0  0  0  0  0  0  0  0  0
    2.5192   -0.9247    4.6719 H   0  0  0  0  0  0  0  0  0  0  0  0
    4.0161   -1.4483    3.8972 H   0  0  0  0  0  0  0  0  0  0  0  0
    2.5473   -2.4191    3.7332 H   0  0  0  0  0  0  0  0  0  0  0  0
    0.8391   -3.8705    0.7211 H   0  0  0  0  0  0  0  0  0  0  0  0
    0.5322   -2.2436    0.1093 H   0  0  0  0  0  0  0  0  0  0  0  0
    0.5869   -2.5386    1.8517 H   0  0  0  0  0  0  0  0  0  0  0  0
    6.4167    0.0341    1.2786 H   0  0  0  0  0  0  0  0  0  0  0  0
    5.1175    0.6193    2.3199 H   0  0  0  0  0  0  0  0  0  0  0  0
    5.0730    0.9418    0.5816 H   0  0  0  0  0  0  0  0  0  0  0  0
    1.3794   -0.1224    0.1609 H   0  0  0  0  0  0  0  0  0  0  0  0
    2.7859    0.8923    0.3366 H   0  0  0  0  0  0  0  0  0  0  0  0
    2.8821    0.4490    2.6570 H   0  0  0  0  0  0  0  0  0  0  0  0
    1.4382   -0.5137    2.4892 H   0  0  0  0  0  0  0  0  0  0  0  0
    2.9673   -2.8878   -0.0755 H   0  0  0  0  0  0  0  0  0  0  0  0
    3.0272   -3.2140    1.6361 H   0  0  0  0  0  0  0  0  0  0  0  0
    4.9446   -1.8636    1.8529 H   0  0  0  0  0  0  0  0  0  0  0  0
    4.9049   -1.5481    0.1387 H   0  0  0  0  0  0  0  0  0  0  0  0
  1  5  1  0  0  0  0
  2 14  1  0  0  0  0
  2 13  1  0  0  0  0
  3 18  1  0  0  0  0
  4 20  1  0  0  0  0
  5 22  1  0  0  0  0
  5 23  1  0  0  0  0
  5  9  1  0  0  0  0
  6 24  1  0  0  0  0
  6  2  1  0  0  0  0
  7  3  1  0  0  0  0
  7  9  1  0  0  0  0
  7 27  1  0  0  0  0
  8  9  1  0  0  0  0
  8  4  1  0  0  0  0
  8 28  1  0  0  0  0
  9  6  1  0  0  0  0
 10  1  1  0  0  0  0
 11  1  1  0  0  0  0
 12  1  1  0  0  0  0
 15  2  1  0  0  0  0
 16  3  1  0  0  0  0
 17  3  1  0  0  0  0
 19  4  1  0  0  0  0
 21  4  1  0  0  0  0
 25  6  1  0  0  0  0
 26  7  1  0  0  0  0
 29  8  1  0  0  0  0
M  END
>  <HBA>
0

>  <HBD>
0

>  <TPSA>
0.0

>  <cid>
14020

>  <dipole>
0.0

>  <excitation_energy_1>
7.336

>  <excitation_energy_2>
7.477

>  <excitation_energy_3>
7.484

>  <excitation_energy_4>
7.744

>  <homo_energy>
-7.878

>  <homo_lumo_gap>
9.769

>  <logP>
3.613

>  <lumo_energy>
1.891

>  <melting_point>
-9.87

>  <molecular_refractivity>
45.12

>  <oscillator_strength_1>
0.0082

>  <oscillator_strength_2>
0.0016

>  <oscillator_strength_3>
0.002

>  <oscillator_strength_4>
0.0

>  <open_babel_can_smiles>
CCC(CC)(CC)CC

>  <mulliken_charges>
29
1   -0.457866
2   -0.457714
3   -0.457995
4   -0.457882
5   -0.264304
6   -0.264687
7   -0.264389
8   -0.26452
9   0.116234
10   0.141026
11   0.14601
12   0.146414
13   0.140988
14   0.145978
15   0.146401
16   0.141057
17   0.146028
18   0.146455
19   0.141045
20   0.146241
21   0.146255
22   0.130045
23   0.129764
24   0.130058
25   0.129729
26   0.129768
27   0.130014
28   0.129728
29   0.130117

>  <lowdin_charges>
29
1   -0.44942
2   -0.447715
3   -0.450344
4   -0.448904
5   -0.27474
6   -0.27486
7   -0.279217
8   -0.27922
9   0.003687
10   0.151666
11   0.147104
12   0.145919
13   0.15085
14   0.145625
15   0.146704
16   0.149095
17   0.148649
18   0.147718
19   0.148634
20   0.147259
21   0.148426
22   0.138856
23   0.139882
24   0.139887
25   0.138638
26   0.14085
27   0.142205
28   0.141858
29   0.140908

$$$$

