PCCDB-ID:  16249
public computational chemistry database (PCCDB) project, http://pccdb.org

 18 18  0  0  0  0  0  0  0  0999 V2000
    0.8259    0.0860    0.0400 C   0  0  0  0  0  0  0  0  0  0  0  0
    2.9442    0.2779   -1.3521 C   0  0  0  0  0  0  0  0  0  0  0  0
    2.6438   -0.2552    2.7665 C   0  0  0  0  0  0  0  0  0  0  0  0
    2.9473   -1.4237    1.8470 C   0  0  0  0  0  0  0  0  0  0  0  0
    2.9317    1.1120    2.1739 C   0  0  0  0  0  0  0  0  0  0  0  0
    2.3536    0.0952    0.0357 C   0  0  0  0  0  0  0  0  0  0  0  0
    3.2662   -2.5173    2.2314 O   0  0  0  0  0  0  0  0  0  0  0  0
    3.2375    2.0762    2.8238 O   0  0  0  0  0  0  0  0  0  0  0  0
    2.8598   -1.1648    0.5132 O   0  0  0  0  0  0  0  0  0  0  0  0
    2.8461    1.1988    0.8179 O   0  0  0  0  0  0  0  0  0  0  0  0
    0.4610   -0.7350   -0.5834 H   0  0  0  0  0  0  0  0  0  0  0  0
    0.4510    1.0320   -0.3600 H   0  0  0  0  0  0  0  0  0  0  0  0
    0.4228   -0.0438    1.0486 H   0  0  0  0  0  0  0  0  0  0  0  0
    2.6222   -0.5385   -2.0037 H   0  0  0  0  0  0  0  0  0  0  0  0
    4.0350    0.2750   -1.2882 H   0  0  0  0  0  0  0  0  0  0  0  0
    2.6134    1.2304   -1.7743 H   0  0  0  0  0  0  0  0  0  0  0  0
    3.2112   -0.3708    3.6912 H   0  0  0  0  0  0  0  0  0  0  0  0
    1.5816   -0.2974    3.0435 H   0  0  0  0  0  0  0  0  0  0  0  0
  1 13  1  0  0  0  0
  2 15  1  0  0  0  0
  2  6  1  0  0  0  0
  3 18  1  0  0  0  0
  3 17  1  0  0  0  0
  4  7  2  0  0  0  0
  4  3  1  0  0  0  0
  5  3  1  0  0  0  0
  5  8  2  0  0  0  0
  6  1  1  0  0  0  0
  6  9  1  0  0  0  0
  6 10  1  0  0  0  0
  9  4  1  0  0  0  0
 10  5  1  0  0  0  0
 11  1  1  0  0  0  0
 12  1  1  0  0  0  0
 14  2  1  0  0  0  0
 16  2  1  0  0  0  0
M  END
>  <HBA>
4

>  <HBD>
0

>  <TPSA>
52.6

>  <cid>
16249

>  <dipole>
3.49

>  <excitation_energy_1>
5.466

>  <excitation_energy_2>
5.659

>  <excitation_energy_3>
6.626

>  <excitation_energy_4>
6.798

>  <homo_energy>
-7.611

>  <homo_lumo_gap>
7.075

>  <logP>
0.213

>  <lumo_energy>
-0.536

>  <melting_point>
31.92

>  <molecular_refractivity>
31.45

>  <oscillator_strength_1>
0.0012

>  <oscillator_strength_2>
0.0008

>  <oscillator_strength_3>
0.0051

>  <oscillator_strength_4>
0.0051

>  <open_babel_can_smiles>
O=C1CC(=O)OC(O1)(C)C

>  <mulliken_charges>
18
1   -0.459157
2   -0.45342
3   -0.506733
4   0.620453
5   0.620378
6   0.475743
7   -0.433097
8   -0.433156
9   -0.45649
10   -0.456398
11   0.177698
12   0.177633
13   0.154888
14   0.170183
15   0.180798
16   0.170223
17   0.22942
18   0.221035

>  <lowdin_charges>
18
1   -0.45873
2   -0.441112
3   -0.343063
4   0.195702
5   0.199537
6   0.227341
7   -0.21931
8   -0.220718
9   -0.180251
10   -0.181109
11   0.173656
12   0.172868
13   0.158284
14   0.170286
15   0.172296
16   0.169503
17   0.206124
18   0.198696

$$$$

