PCCDB-ID:  62451
public computational chemistry database (PCCDB) project, http://pccdb.org

 35 34  0  0  0  0  0  0  0  0999 V2000
    2.0681   -2.5784   -2.9229 C   0  0  0  0  0  0  0  0  0  0  0  0
    7.8045   -0.7029    4.6172 C   0  0  0  0  0  0  0  0  0  0  0  0
    6.9103   -2.6782    5.7643 C   0  0  0  0  0  0  0  0  0  0  0  0
    3.3595   -2.6067   -2.0983 C   0  0  0  0  0  0  0  0  0  0  0  0
    3.6489   -3.9870   -1.4908 C   0  0  0  0  0  0  0  0  0  0  0  0
    4.9707   -4.0857   -0.7109 C   0  0  0  0  0  0  0  0  0  0  0  0
    5.0058   -3.2829    0.5974 C   0  0  0  0  0  0  0  0  0  0  0  0
    6.3217   -3.4528    1.3680 C   0  0  0  0  0  0  0  0  0  0  0  0
    6.3568   -2.6770    2.6954 C   0  0  0  0  0  0  0  0  0  0  0  0
    7.6943   -2.8767    3.4102 C   0  0  0  0  0  0  0  0  0  0  0  0
    7.9093   -2.1949    4.7529 N   0  0  0  0  0  0  0  0  0  0  0  0
    9.1598   -2.5106    5.1850 O   0  0  0  0  0  0  0  0  0  0  0  0
    1.8889   -1.5869   -3.3539 H   0  0  0  0  0  0  0  0  0  0  0  0
    1.1981   -2.8355   -2.3061 H   0  0  0  0  0  0  0  0  0  0  0  0
    2.1106   -3.2988   -3.7491 H   0  0  0  0  0  0  0  0  0  0  0  0
    6.8032   -0.3761    4.3162 H   0  0  0  0  0  0  0  0  0  0  0  0
    8.5528   -0.4021    3.8839 H   0  0  0  0  0  0  0  0  0  0  0  0
    8.0728   -0.2927    5.5905 H   0  0  0  0  0  0  0  0  0  0  0  0
    7.0408   -3.7577    5.8407 H   0  0  0  0  0  0  0  0  0  0  0  0
    5.8799   -2.4231    5.4944 H   0  0  0  0  0  0  0  0  0  0  0  0
    7.1913   -2.2167    6.7106 H   0  0  0  0  0  0  0  0  0  0  0  0
    3.2959   -1.8517   -1.3033 H   0  0  0  0  0  0  0  0  0  0  0  0
    4.2061   -2.3095   -2.7340 H   0  0  0  0  0  0  0  0  0  0  0  0
    3.6627   -4.7295   -2.3013 H   0  0  0  0  0  0  0  0  0  0  0  0
    2.8160   -4.2750   -0.8318 H   0  0  0  0  0  0  0  0  0  0  0  0
    5.7983   -3.7593   -1.3584 H   0  0  0  0  0  0  0  0  0  0  0  0
    5.1670   -5.1421   -0.4791 H   0  0  0  0  0  0  0  0  0  0  0  0
    4.1664   -3.5962    1.2363 H   0  0  0  0  0  0  0  0  0  0  0  0
    4.8481   -2.2160    0.3882 H   0  0  0  0  0  0  0  0  0  0  0  0
    7.1588   -3.1259    0.7344 H   0  0  0  0  0  0  0  0  0  0  0  0
    6.4915   -4.5206    1.5680 H   0  0  0  0  0  0  0  0  0  0  0  0
    5.5261   -3.0168    3.3277 H   0  0  0  0  0  0  0  0  0  0  0  0
    6.1847   -1.6120    2.4912 H   0  0  0  0  0  0  0  0  0  0  0  0
    8.5328   -2.5175    2.8087 H   0  0  0  0  0  0  0  0  0  0  0  0
    7.8847   -3.9303    3.6288 H   0  0  0  0  0  0  0  0  0  0  0  0
  1 14  1  0  0  0  0
  1  4  1  0  0  0  0
  2 11  1  0  0  0  0
  2 18  1  0  0  0  0
  3 19  1  0  0  0  0
  3 21  1  0  0  0  0
  4  5  1  0  0  0  0
  4 22  1  0  0  0  0
  5 25  1  0  0  0  0
  5  6  1  0  0  0  0
  6 27  1  0  0  0  0
  6  7  1  0  0  0  0
  7 28  1  0  0  0  0
  7  8  1  0  0  0  0
  8 31  1  0  0  0  0
  8  9  1  0  0  0  0
  9 32  1  0  0  0  0
  9 10  1  0  0  0  0
 10 35  1  0  0  0  0
 10 11  1  0  0  0  0
 11 12  1  0  0  0  0
 11  3  1  0  0  0  0
 13  1  1  0  0  0  0
 15  1  1  0  0  0  0
 16  2  1  0  0  0  0
 17  2  1  0  0  0  0
 20  3  1  0  0  0  0
 23  4  1  0  0  0  0
 24  5  1  0  0  0  0
 26  6  1  0  0  0  0
 29  7  1  0  0  0  0
 30  8  1  0  0  0  0
 33  9  1  0  0  0  0
 34 10  1  0  0  0  0
M  RAD  1  12   2
M  END
>  <HBA>
1

>  <HBD>
0

>  <TPSA>
29.43

>  <cid>
62451

>  <dipole>
4.71

>  <excitation_energy_1>
4.733

>  <excitation_energy_2>
4.739

>  <excitation_energy_3>
5.184

>  <excitation_energy_4>
5.216

>  <homo_energy>
-4.827

>  <homo_lumo_gap>
6.738

>  <logP>
2.942

>  <lumo_energy>
1.91

>  <melting_point>
-32.75

>  <molecular_refractivity>
56.45

>  <oscillator_strength_1>
0.0186

>  <oscillator_strength_2>
0.0123

>  <oscillator_strength_3>
0.0011

>  <oscillator_strength_4>
0.0019

>  <open_babel_can_smiles>
CCCCCCCC[N]([O])(C)C

>  <mulliken_charges>
35
1   -0.441542
2   -0.283166
3   -0.282854
4   -0.249085
5   -0.248345
6   -0.256281
7   -0.254916
8   -0.258544
9   -0.290407
10   -0.107833
11   -0.094984
12   -0.581511
13   0.142251
14   0.141631
15   0.142396
16   0.140027
17   0.177401
18   0.180266
19   0.177735
20   0.139787
21   0.179897
22   0.133461
23   0.130279
24   0.129232
25   0.126149
26   0.128956
27   0.129508
28   0.127981
29   0.134132
30   0.137645
31   0.137
32   0.140578
33   0.140563
34   0.166477
35   0.166115

>  <lowdin_charges>
35
1   -0.44465
2   -0.365185
3   -0.363076
4   -0.276028
5   -0.27675
6   -0.274687
7   -0.275079
8   -0.269957
9   -0.292408
10   -0.210451
11   0.198615
12   -0.57528
13   0.14912
14   0.146954
15   0.147087
16   0.144145
17   0.171136
18   0.171717
19   0.168463
20   0.143531
21   0.171702
22   0.139552
23   0.139401
24   0.141991
25   0.138099
26   0.139556
27   0.139989
28   0.138588
29   0.13821
30   0.143582
31   0.140679
32   0.144684
33   0.142232
34   0.163605
35   0.160912

$$$$

