PCCDB-ID:  33829
public computational chemistry database (PCCDB) project, http://pccdb.org

 34 34  0  0  0  0  0  0  0  0999 V2000
    0.8286   -0.1014    2.8539 C   0  0  0  0  0  0  0  0  0  0  0  0
    8.9001   -2.8429    4.8031 C   0  0  0  0  0  0  0  0  0  0  0  0
   10.7321   -0.4794    0.8005 C   0  0  0  0  0  0  0  0  0  0  0  0
    8.6722    0.3172   -0.3653 C   0  0  0  0  0  0  0  0  0  0  0  0
    2.3509   -0.0143    2.7089 C   0  0  0  0  0  0  0  0  0  0  0  0
    2.8808   -0.7633    1.4817 C   0  0  0  0  0  0  0  0  0  0  0  0
    4.4100   -0.7365    1.3718 C   0  0  0  0  0  0  0  0  0  0  0  0
    8.2250   -2.1373    3.6587 C   0  0  0  0  0  0  0  0  0  0  0  0
    6.2919   -1.4765    2.5865 C   0  0  0  0  0  0  0  0  0  0  0  0
    8.5220   -0.9543    1.7360 C   0  0  0  0  0  0  0  0  0  0  0  0
    5.0160   -1.4231    2.4967 N   0  0  0  0  0  0  0  0  0  0  0  0
    6.9191   -2.1208    3.6342 N   0  0  0  0  0  0  0  0  0  0  0  0
    9.0895   -1.5770    2.7479 N   0  0  0  0  0  0  0  0  0  0  0  0
    7.1609   -0.8854    1.6180 N   0  0  0  0  0  0  0  0  0  0  0  0
    9.2783   -0.3503    0.7764 N   0  0  0  0  0  0  0  0  0  0  0  0
    0.4789    0.4474    3.7362 H   0  0  0  0  0  0  0  0  0  0  0  0
    0.5010   -1.1429    2.9599 H   0  0  0  0  0  0  0  0  0  0  0  0
    0.3173    0.3176    1.9776 H   0  0  0  0  0  0  0  0  0  0  0  0
    8.1562   -3.2629    5.4813 H   0  0  0  0  0  0  0  0  0  0  0  0
    9.5448   -2.1427    5.3472 H   0  0  0  0  0  0  0  0  0  0  0  0
    9.5484   -3.6407    4.4222 H   0  0  0  0  0  0  0  0  0  0  0  0
   11.1972    0.5120    0.7521 H   0  0  0  0  0  0  0  0  0  0  0  0
   11.0836   -1.0763   -0.0512 H   0  0  0  0  0  0  0  0  0  0  0  0
   11.0179   -0.9717    1.7279 H   0  0  0  0  0  0  0  0  0  0  0  0
    9.4609    0.8121   -0.9342 H   0  0  0  0  0  0  0  0  0  0  0  0
    7.9613    1.0917   -0.0503 H   0  0  0  0  0  0  0  0  0  0  0  0
    8.1607   -0.3846   -1.0402 H   0  0  0  0  0  0  0  0  0  0  0  0
    2.8396   -0.4228    3.6008 H   0  0  0  0  0  0  0  0  0  0  0  0
    2.6521    1.0424    2.6449 H   0  0  0  0  0  0  0  0  0  0  0  0
    2.4495   -0.3348    0.5651 H   0  0  0  0  0  0  0  0  0  0  0  0
    2.5598   -1.8125    1.5259 H   0  0  0  0  0  0  0  0  0  0  0  0
    4.7374    0.3215    1.3138 H   0  0  0  0  0  0  0  0  0  0  0  0
    4.6996   -1.2041    0.4101 H   0  0  0  0  0  0  0  0  0  0  0  0
    6.7338   -0.4366    0.8218 H   0  0  0  0  0  0  0  0  0  0  0  0
  1 17  1  0  0  0  0
  1 16  1  0  0  0  0
  2 20  1  0  0  0  0
  2 19  1  0  0  0  0
  3 24  1  0  0  0  0
  4 26  1  0  0  0  0
  4 15  1  0  0  0  0
  5  1  1  0  0  0  0
  5 28  1  0  0  0  0
  6 31  1  0  0  0  0
  6  5  1  0  0  0  0
  7  6  1  0  0  0  0
  7 11  1  0  0  0  0
  8  2  1  0  0  0  0
  9 12  2  0  0  0  0
 10 13  2  0  0  0  0
 11  9  1  0  0  0  0
 12  8  2  0  0  0  0
 13  8  1  0  0  0  0
 14 10  1  0  0  0  0
 14  9  1  0  0  0  0
 15  3  1  0  0  0  0
 15 10  1  0  0  0  0
 18  1  1  0  0  0  0
 21  2  1  0  0  0  0
 22  3  1  0  0  0  0
 23  3  1  0  0  0  0
 25  4  1  0  0  0  0
 27  4  1  0  0  0  0
 29  5  1  0  0  0  0
 30  6  1  0  0  0  0
 32  7  1  0  0  0  0
 33  7  1  0  0  0  0
 34 14  1  0  0  0  0
M  RAD  1  11   2
M  END
>  <HBA>
5

>  <HBD>
1

>  <TPSA>
53.94

>  <cid>
33829

>  <dipole>
6.94

>  <excitation_energy_1>
4.42

>  <excitation_energy_2>
4.622

>  <excitation_energy_3>
4.778

>  <excitation_energy_4>
5.089

>  <homo_energy>
-5.567

>  <homo_lumo_gap>
5.184

>  <logP>
1.531

>  <lumo_energy>
-0.384

>  <melting_point>
97.58

>  <molecular_refractivity>
62.73

>  <oscillator_strength_1>
0.0985

>  <oscillator_strength_2>
0.0011

>  <oscillator_strength_3>
0.0008

>  <oscillator_strength_4>
0.0004

>  <open_babel_can_smiles>
CCCC[N]C1=[N]=C(N=C(N1)N(C)C)C

>  <mulliken_charges>
34
1   -0.44147
2   -0.501342
3   -0.327236
4   -0.347116
5   -0.246945
6   -0.241357
7   -0.164523
8   0.43015
9   0.660613
10   0.80339
11   -0.472101
12   -0.485117
13   -0.566463
14   -0.736741
15   -0.460742
16   0.138712
17   0.142775
18   0.132744
19   0.176417
20   0.164202
21   0.163779
22   0.158921
23   0.159532
24   0.222209
25   0.1835
26   0.174412
27   0.172737
28   0.167736
29   0.115577
30   0.112554
31   0.141345
32   0.108904
33   0.112874
34   0.348073

>  <lowdin_charges>
34
1   -0.444523
2   -0.447503
3   -0.352672
4   -0.362136
5   -0.273715
6   -0.27409
7   -0.209253
8   0.112606
9   0.116807
10   0.166422
11   -0.236727
12   -0.201115
13   -0.275679
14   -0.255639
15   -0.097148
16   0.148206
17   0.145751
18   0.142003
19   0.17157
20   0.168047
21   0.16744
22   0.152689
23   0.151965
24   0.193577
25   0.175763
26   0.159657
27   0.156404
28   0.158142
29   0.130616
30   0.133499
31   0.145693
32   0.116261
33   0.122254
34   0.294827

$$$$

