PCCDB-ID:  69629
public computational chemistry database (PCCDB) project, http://pccdb.org

 23 22  0  0  0  0  0  0  0  0999 V2000
    1.1238   -1.4964    2.0547 C   0  0  0  0  0  0  0  0  0  0  0  0
    8.0188   -1.4327    0.9738 C   0  0  0  0  0  0  0  0  0  0  0  0
    5.4091    0.4093   -1.5300 C   0  0  0  0  0  0  0  0  0  0  0  0
    2.6069   -1.2656    2.2766 C   0  0  0  0  0  0  0  0  0  0  0  0
    6.7113   -1.7174    1.6933 C   0  0  0  0  0  0  0  0  0  0  0  0
    4.6953    0.7896   -0.4688 C   0  0  0  0  0  0  0  0  0  0  0  0
    5.0397    0.6871    2.3031 O   0  0  0  0  0  0  0  0  0  0  0  0
    3.1494   -0.6598    1.0786 O   0  0  0  0  0  0  0  0  0  0  0  0
    5.5793   -1.4143    0.8386 O   0  0  0  0  0  0  0  0  0  0  0  0
    4.6662   -0.0970    1.0944 P   0  0  0  0  0  0  0  0  0  0  0  0
    0.6825   -1.9657    2.9414 H   0  0  0  0  0  0  0  0  0  0  0  0
    0.9566   -2.1533    1.1952 H   0  0  0  0  0  0  0  0  0  0  0  0
    0.6082   -0.5483    1.8722 H   0  0  0  0  0  0  0  0  0  0  0  0
    8.8635   -1.7257    1.6086 H   0  0  0  0  0  0  0  0  0  0  0  0
    8.1159   -0.3656    0.7484 H   0  0  0  0  0  0  0  0  0  0  0  0
    8.0839   -1.9966    0.0370 H   0  0  0  0  0  0  0  0  0  0  0  0
    5.4202    0.9954   -2.4459 H   0  0  0  0  0  0  0  0  0  0  0  0
    5.9989   -0.5020   -1.5215 H   0  0  0  0  0  0  0  0  0  0  0  0
    3.1323   -2.2112    2.4603 H   0  0  0  0  0  0  0  0  0  0  0  0
    2.7870   -0.5985    3.1259 H   0  0  0  0  0  0  0  0  0  0  0  0
    6.6300   -1.1323    2.6132 H   0  0  0  0  0  0  0  0  0  0  0  0
    6.6188   -2.7804    1.9375 H   0  0  0  0  0  0  0  0  0  0  0  0
    4.1014    1.7016   -0.4907 H   0  0  0  0  0  0  0  0  0  0  0  0
  1  4  1  0  0  0  0
  1 11  1  0  0  0  0
  2 14  1  0  0  0  0
  2  5  1  0  0  0  0
  3 18  1  0  0  0  0
  3  6  2  0  0  0  0
  4 19  1  0  0  0  0
  4 20  1  0  0  0  0
  5 22  1  0  0  0  0
  5 21  1  0  0  0  0
  6 10  1  0  0  0  0
  8 10  1  0  0  0  0
  8  4  1  0  0  0  0
  9 10  1  0  0  0  0
  9  5  1  0  0  0  0
 10  7  2  0  0  0  0
 12  1  1  0  0  0  0
 13  1  1  0  0  0  0
 15  2  1  0  0  0  0
 16  2  1  0  0  0  0
 17  3  1  0  0  0  0
 23  6  1  0  0  0  0
M  END
>  <HBA>
3

>  <HBD>
0

>  <TPSA>
45.34

>  <cid>
69629

>  <dipole>
2.14

>  <excitation_energy_1>
5.957

>  <excitation_energy_2>
6.06

>  <excitation_energy_3>
6.534

>  <excitation_energy_4>
6.928

>  <homo_energy>
-7.391

>  <homo_lumo_gap>
6.876

>  <logP>
2.396

>  <lumo_energy>
-0.514

>  <melting_point>
-49.63

>  <molecular_refractivity>
41.32

>  <oscillator_strength_1>
0.0069

>  <oscillator_strength_2>
0.0631

>  <oscillator_strength_3>
0.0039

>  <oscillator_strength_4>
0.0095

>  <open_babel_can_smiles>
CCOP(=O)(OCC)C=C

>  <mulliken_charges>
23
1   -0.455494
2   -0.457482
3   -0.307809
4   -0.033486
5   -0.044494
6   -0.270751
7   -0.575359
8   -0.51914
9   -0.547897
10   1.097246
11   0.148448
12   0.162943
13   0.164152
14   0.150419
15   0.169148
16   0.155902
17   0.157796
18   0.176453
19   0.147992
20   0.172066
21   0.181903
22   0.149743
23   0.1777

>  <lowdin_charges>
23
1   -0.447914
2   -0.453302
3   -0.277581
4   -0.119445
5   -0.118125
6   -0.320016
7   -0.602404
8   -0.400861
9   -0.412043
10   1.056633
11   0.158061
12   0.159857
13   0.160186
14   0.159451
15   0.159808
16   0.154877
17   0.166184
18   0.174242
19   0.144627
20   0.159137
21   0.166267
22   0.146186
23   0.186176

$$$$

