PCCDB-ID:  25913
public computational chemistry database (PCCDB) project, http://pccdb.org

 45 44  0  0  0  0  0  0  0  0999 V2000
    4.3954    5.3975   -2.3230 C   0  0  0  0  0  0  0  0  0  0  0  0
    8.9559    6.1308    3.5180 C   0  0  0  0  0  0  0  0  0  0  0  0
    5.5367    4.8405   -2.7308 C   0  0  0  0  0  0  0  0  0  0  0  0
    9.9771    5.3383    4.3427 C   0  0  0  0  0  0  0  0  0  0  0  0
    6.1214    3.5282   -2.2717 C   0  0  0  0  0  0  0  0  0  0  0  0
   10.7277    4.2547    3.5475 C   0  0  0  0  0  0  0  0  0  0  0  0
    5.3018    2.7545   -1.2327 C   0  0  0  0  0  0  0  0  0  0  0  0
    9.8597    3.1270    2.9580 C   0  0  0  0  0  0  0  0  0  0  0  0
    5.9137    1.4015   -0.8317 C   0  0  0  0  0  0  0  0  0  0  0  0
    9.1753    2.2469    4.0145 C   0  0  0  0  0  0  0  0  0  0  0  0
    7.2304    1.4935   -0.0470 C   0  0  0  0  0  0  0  0  0  0  0  0
    8.2719    1.1167    3.4848 C   0  0  0  0  0  0  0  0  0  0  0  0
    7.7713    0.1187    0.3771 C   0  0  0  0  0  0  0  0  0  0  0  0
    8.9741   -0.0100    2.6926 C   0  0  0  0  0  0  0  0  0  0  0  0
    9.1054    0.1493    1.1635 C   0  0  0  0  0  0  0  0  0  0  0  0
    4.0623    6.3535   -2.7182 H   0  0  0  0  0  0  0  0  0  0  0  0
    3.7488    4.9311   -1.5847 H   0  0  0  0  0  0  0  0  0  0  0  0
    8.1414    5.4940    3.1545 H   0  0  0  0  0  0  0  0  0  0  0  0
    9.4291    6.5940    2.6429 H   0  0  0  0  0  0  0  0  0  0  0  0
    8.5036    6.9319    4.1140 H   0  0  0  0  0  0  0  0  0  0  0  0
    6.1344    5.3695   -3.4754 H   0  0  0  0  0  0  0  0  0  0  0  0
    9.4769    4.8884    5.2106 H   0  0  0  0  0  0  0  0  0  0  0  0
   10.7184    6.0353    4.7562 H   0  0  0  0  0  0  0  0  0  0  0  0
    7.1326    3.7225   -1.8839 H   0  0  0  0  0  0  0  0  0  0  0  0
    6.2776    2.8898   -3.1567 H   0  0  0  0  0  0  0  0  0  0  0  0
   11.4926    3.8058    4.1979 H   0  0  0  0  0  0  0  0  0  0  0  0
   11.2758    4.7405    2.7274 H   0  0  0  0  0  0  0  0  0  0  0  0
    4.2946    2.5815   -1.6345 H   0  0  0  0  0  0  0  0  0  0  0  0
    5.1710    3.3746   -0.3344 H   0  0  0  0  0  0  0  0  0  0  0  0
   10.5038    2.5032    2.3260 H   0  0  0  0  0  0  0  0  0  0  0  0
    9.1007    3.5522    2.2862 H   0  0  0  0  0  0  0  0  0  0  0  0
    6.0694    0.7911   -1.7342 H   0  0  0  0  0  0  0  0  0  0  0  0
    5.1808    0.8543   -0.2218 H   0  0  0  0  0  0  0  0  0  0  0  0
    8.5643    2.8818    4.6702 H   0  0  0  0  0  0  0  0  0  0  0  0
    9.9492    1.8046    4.6607 H   0  0  0  0  0  0  0  0  0  0  0  0
    7.0762    2.1297    0.8358 H   0  0  0  0  0  0  0  0  0  0  0  0
    7.9964    1.9976   -0.6526 H   0  0  0  0  0  0  0  0  0  0  0  0
    7.4584    1.5487    2.8870 H   0  0  0  0  0  0  0  0  0  0  0  0
    7.7844    0.6621    4.3577 H   0  0  0  0  0  0  0  0  0  0  0  0
    7.9028   -0.4830   -0.5330 H   0  0  0  0  0  0  0  0  0  0  0  0
    7.0073   -0.4071    0.9686 H   0  0  0  0  0  0  0  0  0  0  0  0
    8.4319   -0.9491    2.8724 H   0  0  0  0  0  0  0  0  0  0  0  0
    9.9767   -0.1642    3.1179 H   0  0  0  0  0  0  0  0  0  0  0  0
    9.6514    1.0677    0.9154 H   0  0  0  0  0  0  0  0  0  0  0  0
    9.7404   -0.6745    0.8117 H   0  0  0  0  0  0  0  0  0  0  0  0
  1 17  1  0  0  0  0
  2 20  1  0  0  0  0
  2  4  1  0  0  0  0
  3  1  2  0  0  0  0
  3  5  1  0  0  0  0
  4 23  1  0  0  0  0
  4 22  1  0  0  0  0
  5 24  1  0  0  0  0
  5  7  1  0  0  0  0
  6 26  1  0  0  0  0
  6  4  1  0  0  0  0
  7  9  1  0  0  0  0
  7 29  1  0  0  0  0
  8  6  1  0  0  0  0
  8 10  1  0  0  0  0
  9 33  1  0  0  0  0
  9 11  1  0  0  0  0
 10 35  1  0  0  0  0
 10 34  1  0  0  0  0
 11 13  1  0  0  0  0
 11 36  1  0  0  0  0
 12 10  1  0  0  0  0
 12 39  1  0  0  0  0
 13 41  1  0  0  0  0
 13 15  1  0  0  0  0
 14 42  1  0  0  0  0
 14 43  1  0  0  0  0
 14 12  1  0  0  0  0
 15 14  1  0  0  0  0
 16  1  1  0  0  0  0
 18  2  1  0  0  0  0
 19  2  1  0  0  0  0
 21  3  1  0  0  0  0
 25  5  1  0  0  0  0
 27  6  1  0  0  0  0
 28  7  1  0  0  0  0
 30  8  1  0  0  0  0
 31  8  1  0  0  0  0
 32  9  1  0  0  0  0
 37 11  1  0  0  0  0
 38 12  1  0  0  0  0
 40 13  1  0  0  0  0
 44 15  1  0  0  0  0
 45 15  1  0  0  0  0
M  END
>  <HBA>
0

>  <HBD>
0

>  <TPSA>
0.0

>  <cid>
25913

>  <dipole>
0.48

>  <excitation_energy_1>
6.351

>  <excitation_energy_2>
6.599

>  <excitation_energy_3>
6.727

>  <excitation_energy_4>
6.788

>  <homo_energy>
-6.743

>  <homo_lumo_gap>
7.584

>  <logP>
5.873

>  <lumo_energy>
0.841

>  <melting_point>
-53.14

>  <molecular_refractivity>
73.75

>  <oscillator_strength_1>
0.0208

>  <oscillator_strength_2>
0.0033

>  <oscillator_strength_3>
0.0296

>  <oscillator_strength_4>
0.0291

>  <open_babel_can_smiles>
CCCCCCCCCCCCCC=C

>  <mulliken_charges>
45
1   -0.337992
2   -0.443018
3   -0.058158
4   -0.250823
5   -0.296167
6   -0.252442
7   -0.26272
8   -0.260274
9   -0.25753
10   -0.256314
11   -0.266259
12   -0.262483
13   -0.254695
14   -0.260016
15   -0.265057
16   0.134002
17   0.137292
18   0.145471
19   0.14056
20   0.141203
21   0.120791
22   0.134505
23   0.130115
24   0.147564
25   0.141369
26   0.125778
27   0.125213
28   0.13604
29   0.134647
30   0.135007
31   0.131716
32   0.126393
33   0.128533
34   0.130872
35   0.12488
36   0.137889
37   0.13254
38   0.135727
39   0.127447
40   0.128663
41   0.128881
42   0.128567
43   0.12626
44   0.138343
45   0.127683

>  <lowdin_charges>
45
1   -0.353616
2   -0.449901
3   -0.147998
4   -0.278517
5   -0.275659
6   -0.279271
7   -0.275242
8   -0.28542
9   -0.276873
10   -0.279194
11   -0.281969
12   -0.283027
13   -0.279984
14   -0.277282
15   -0.283258
16   0.156969
17   0.156544
18   0.147679
19   0.146541
20   0.150435
21   0.149798
22   0.140129
23   0.14302
24   0.150149
25   0.149313
26   0.140419
27   0.140286
28   0.143896
29   0.141766
30   0.144177
31   0.139789
32   0.137533
33   0.142436
34   0.141878
35   0.136984
36   0.138134
37   0.13914
38   0.142038
39   0.143592
40   0.140897
41   0.139561
42   0.139973
43   0.138536
44   0.142096
45   0.143506

$$$$

