PCCDB-ID:  10354
public computational chemistry database (PCCDB) project, http://pccdb.org

 26 26  0  0  1  0  0  0  0  0999 V2000
    0.8751    0.3500   -0.2619 C   0  0  0  0  0  0  0  0  0  0  0  0
    2.7146   -1.3150   -0.0917 C   0  0  0  0  0  0  0  0  0  0  0  0
    2.5941    5.0137   -0.5274 C   0  0  0  0  0  0  0  0  0  0  0  0
    4.4039    2.5692    1.9187 C   0  0  0  0  0  0  0  0  0  0  0  0
    3.6938    3.8574    1.4804 C   0  0  0  0  0  0  0  0  0  0  0  0
    3.5231    1.3431    1.6573 C   0  0  0  0  0  0  0  0  0  0  0  0
    2.8152    2.5328   -0.4463 C   0  0  0  0  0  0  0  0  0  0  0  0
    2.1765    0.0959   -0.0890 C   0  0  0  0  0  0  0  0  0  0  0  0
    3.0198    3.7256    0.1296 C   0  0  0  0  0  0  0  0  0  0  0  0
    3.2063    1.1969    0.1489 C   0  0  2  0  0  0  0  0  0  0  0  0
    0.1537   -0.4515   -0.4016 H   0  0  0  0  0  0  0  0  0  0  0  0
    0.4836    1.3634   -0.2630 H   0  0  0  0  0  0  0  0  0  0  0  0
    1.9139   -2.0529   -0.2011 H   0  0  0  0  0  0  0  0  0  0  0  0
    3.2585   -1.5420    0.8349 H   0  0  0  0  0  0  0  0  0  0  0  0
    3.4280   -1.4615   -0.9148 H   0  0  0  0  0  0  0  0  0  0  0  0
    1.9109    5.5812    0.1206 H   0  0  0  0  0  0  0  0  0  0  0  0
    2.0865    4.8367   -1.4811 H   0  0  0  0  0  0  0  0  0  0  0  0
    3.4569    5.6682   -0.7158 H   0  0  0  0  0  0  0  0  0  0  0  0
    4.6721    2.6284    2.9809 H   0  0  0  0  0  0  0  0  0  0  0  0
    5.3454    2.4649    1.3615 H   0  0  0  0  0  0  0  0  0  0  0  0
    4.4096    4.6918    1.4507 H   0  0  0  0  0  0  0  0  0  0  0  0
    2.9411    4.1484    2.2312 H   0  0  0  0  0  0  0  0  0  0  0  0
    2.5760    1.4484    2.2031 H   0  0  0  0  0  0  0  0  0  0  0  0
    4.0079    0.4337    2.0324 H   0  0  0  0  0  0  0  0  0  0  0  0
    2.3432    2.4952   -1.4278 H   0  0  0  0  0  0  0  0  0  0  0  0
    4.1371    0.8707   -0.3490 H   0  0  0  0  0  0  0  0  0  0  0  0
  1  8  2  0  0  0  0
  2  8  1  0  0  0  0
  2 14  1  0  0  0  0
  3 16  1  0  0  0  0
  3  9  1  0  0  0  0
  4 19  1  0  0  0  0
  5  4  1  0  0  0  0
  5 22  1  0  0  0  0
  6  4  1  0  0  0  0
  6 24  1  0  0  0  0
  6 23  1  0  0  0  0
  7  9  2  0  0  0  0
  7 10  1  0  0  0  0
  8 10  1  0  0  0  0
  9  5  1  0  0  0  0
 10 26  1  6  0  0  0
 10  6  1  0  0  0  0
 11  1  1  0  0  0  0
 12  1  1  0  0  0  0
 13  2  1  0  0  0  0
 15  2  1  0  0  0  0
 17  3  1  0  0  0  0
 18  3  1  0  0  0  0
 20  4  1  0  0  0  0
 21  5  1  0  0  0  0
 25  7  1  0  0  0  0
M  END
>  <HBA>
0

>  <HBD>
0

>  <TPSA>
0.0

>  <cid>
10354

>  <dipole>
0.67

>  <excitation_energy_1>
5.62

>  <excitation_energy_2>
5.737

>  <excitation_energy_3>
5.968

>  <excitation_energy_4>
6.104

>  <homo_energy>
-6.095

>  <homo_lumo_gap>
6.925

>  <logP>
3.309

>  <lumo_energy>
0.83

>  <melting_point>
-10.61

>  <molecular_refractivity>
47.12

>  <oscillator_strength_1>
0.0146

>  <oscillator_strength_2>
0.0267

>  <oscillator_strength_3>
0.0108

>  <oscillator_strength_4>
0.0006

>  <open_babel_can_smiles>
CC1=C[C@@H](CCC1)C(=C)C

>  <mulliken_charges>
26
1   -0.401729
2   -0.516861
3   -0.513046
4   -0.267444
5   -0.320558
6   -0.266221
7   -0.174177
8   0.218788
9   0.17124
10   -0.167935
11   0.126991
12   0.137784
13   0.151838
14   0.153851
15   0.152568
16   0.150074
17   0.151858
18   0.149341
19   0.130723
20   0.135128
21   0.136494
22   0.142623
23   0.141003
24   0.129311
25   0.117692
26   0.130665

>  <lowdin_charges>
26
1   -0.368282
2   -0.443117
3   -0.440727
4   -0.273024
5   -0.278882
6   -0.271982
7   -0.192917
8   0.006831
9   -0.015393
10   -0.125576
11   0.153649
12   0.157564
13   0.156621
14   0.154483
15   0.155217
16   0.154651
17   0.154859
18   0.153249
19   0.142915
20   0.14123
21   0.147393
22   0.148186
23   0.145568
24   0.142915
25   0.149986
26   0.144582

$$$$

