PCCDB-ID:  17100
public computational chemistry database (PCCDB) project, http://pccdb.org

 29 29  0  0  1  0  0  0  0  0999 V2000
    1.0597   -0.0914    0.2363 C   0  0  0  0  0  0  0  0  0  0  0  0
    6.8014    1.3774    1.6368 C   0  0  0  0  0  0  0  0  0  0  0  0
    5.0428   -0.2225    2.4707 C   0  0  0  0  0  0  0  0  0  0  0  0
    3.2485   -1.2083   -0.2014 C   0  0  0  0  0  0  0  0  0  0  0  0
    3.2250    1.2688    0.0197 C   0  0  0  0  0  0  0  0  0  0  0  0
    4.7390   -1.2806   -0.4249 C   0  0  0  0  0  0  0  0  0  0  0  0
    4.6526    1.2345   -0.5480 C   0  0  0  0  0  0  0  0  0  0  0  0
    2.5485   -0.0842    0.0024 C   0  0  0  0  0  0  0  0  0  0  0  0
    5.4987    0.0254   -0.0969 C   0  0  1  0  0  0  0  0  0  0  0  0
    6.0623    0.0584    1.3560 C   0  0  0  0  0  0  0  0  0  0  0  0
    7.0339   -1.0117    1.3442 O   0  0  0  0  0  0  0  0  0  0  0  0
    0.6526   -1.1078    0.2321 H   0  0  0  0  0  0  0  0  0  0  0  0
    0.5319    0.4909   -0.5324 H   0  0  0  0  0  0  0  0  0  0  0  0
    0.8061    0.3703    1.2018 H   0  0  0  0  0  0  0  0  0  0  0  0
    6.1172    2.2290    1.7170 H   0  0  0  0  0  0  0  0  0  0  0  0
    7.5308    1.5871    0.8471 H   0  0  0  0  0  0  0  0  0  0  0  0
    7.3458    1.3056    2.5872 H   0  0  0  0  0  0  0  0  0  0  0  0
    4.2915    0.5679    2.5540 H   0  0  0  0  0  0  0  0  0  0  0  0
    5.5627   -0.2770    3.4375 H   0  0  0  0  0  0  0  0  0  0  0  0
    4.5267   -1.1716    2.3090 H   0  0  0  0  0  0  0  0  0  0  0  0
    2.7157   -2.1601   -0.2212 H   0  0  0  0  0  0  0  0  0  0  0  0
    2.6240    1.9839   -0.5618 H   0  0  0  0  0  0  0  0  0  0  0  0
    3.2179    1.6683    1.0460 H   0  0  0  0  0  0  0  0  0  0  0  0
    4.9237   -1.5446   -1.4782 H   0  0  0  0  0  0  0  0  0  0  0  0
    5.1697   -2.1066    0.1530 H   0  0  0  0  0  0  0  0  0  0  0  0
    5.1662    2.1790   -0.3368 H   0  0  0  0  0  0  0  0  0  0  0  0
    4.5769    1.1713   -1.6419 H   0  0  0  0  0  0  0  0  0  0  0  0
    6.4095    0.0320   -0.7095 H   0  0  0  0  0  0  0  0  0  0  0  0
    7.3772   -1.0984    2.2479 H   0  0  0  0  0  0  0  0  0  0  0  0
  1 14  1  0  0  0  0
  2 15  1  0  0  0  0
  2 17  1  0  0  0  0
  3 18  1  0  0  0  0
  3 19  1  0  0  0  0
  4  8  2  0  0  0  0
  5 23  1  0  0  0  0
  6  4  1  0  0  0  0
  6  9  1  0  0  0  0
  6 25  1  0  0  0  0
  7 26  1  0  0  0  0
  7  9  1  0  0  0  0
  7  5  1  0  0  0  0
  8  5  1  0  0  0  0
  8  1  1  0  0  0  0
  9 28  1  6  0  0  0
  9 10  1  0  0  0  0
 10  2  1  0  0  0  0
 10  3  1  0  0  0  0
 11 10  1  0  0  0  0
 11 29  1  0  0  0  0
 12  1  1  0  0  0  0
 13  1  1  0  0  0  0
 16  2  1  0  0  0  0
 20  3  1  0  0  0  0
 21  4  1  0  0  0  0
 22  5  1  0  0  0  0
 24  6  1  0  0  0  0
 27  7  1  0  0  0  0
M  END
>  <HBA>
1

>  <HBD>
1

>  <TPSA>
20.23

>  <cid>
17100

>  <dipole>
1.42

>  <excitation_energy_1>
5.48

>  <excitation_energy_2>
5.897

>  <excitation_energy_3>
6.041

>  <excitation_energy_4>
6.157

>  <homo_energy>
-6.065

>  <homo_lumo_gap>
7.053

>  <logP>
2.504

>  <lumo_energy>
0.988

>  <melting_point>
36.21

>  <molecular_refractivity>
48.8

>  <oscillator_strength_1>
0.0055

>  <oscillator_strength_2>
0.0083

>  <oscillator_strength_3>
0.0009

>  <oscillator_strength_4>
0.0051

>  <open_babel_can_smiles>
CC1=CC[C@@H](CC1)C(O)(C)C

>  <mulliken_charges>
29
1   -0.513102
2   -0.457176
3   -0.463827
4   -0.174026
5   -0.329864
6   -0.317785
7   -0.2839
8   0.18978
9   -0.081549
10   0.303036
11   -0.643805
12   0.150257
13   0.147984
14   0.146928
15   0.142398
16   0.152042
17   0.126704
18   0.147458
19   0.120993
20   0.164613
21   0.108163
22   0.135761
23   0.139899
24   0.140223
25   0.163408
26   0.132194
27   0.138645
28   0.13322
29   0.381327

>  <lowdin_charges>
29
1   -0.439863
2   -0.457599
3   -0.459459
4   -0.193779
5   -0.279948
6   -0.28065
7   -0.275833
8   -0.022118
9   -0.131575
10   0.123836
11   -0.466098
12   0.15354
13   0.152888
14   0.151193
15   0.150578
16   0.155793
17   0.143713
18   0.154129
19   0.139628
20   0.161967
21   0.145531
22   0.148254
23   0.141184
24   0.148837
25   0.160765
26   0.144546
27   0.145006
28   0.150529
29   0.335007

$$$$

