PCCDB-ID:  8137
public computational chemistry database (PCCDB) project, http://pccdb.org

 28 27  0  0  0  0  0  0  0  0999 V2000
    4.1209    1.9210   -1.7171 C   0  0  0  0  0  0  0  0  0  0  0  0
    3.0246   -8.8816    3.0635 C   0  0  0  0  0  0  0  0  0  0  0  0
    5.1099    0.8261   -1.3029 C   0  0  0  0  0  0  0  0  0  0  0  0
    4.4247   -0.4994   -0.9473 C   0  0  0  0  0  0  0  0  0  0  0  0
    5.4036   -1.6009   -0.5195 C   0  0  0  0  0  0  0  0  0  0  0  0
    4.7031   -2.9131   -0.1493 C   0  0  0  0  0  0  0  0  0  0  0  0
    5.7003   -4.0169    0.2731 C   0  0  0  0  0  0  0  0  0  0  0  0
    5.0313   -5.2564    0.6599 C   0  0  0  0  0  0  0  0  0  0  0  0
    4.4500   -6.2652    0.9933 C   0  0  0  0  0  0  0  0  0  0  0  0
    3.7344   -7.4775    1.3162 C   0  0  0  0  0  0  0  0  0  0  0  0
    3.2090   -8.2100    0.5027 O   0  0  0  0  0  0  0  0  0  0  0  0
    3.7211   -7.6938    2.6512 O   0  0  0  0  0  0  0  0  0  0  0  0
    4.6374    2.8584   -1.9527 H   0  0  0  0  0  0  0  0  0  0  0  0
    3.4023    2.1283   -0.9147 H   0  0  0  0  0  0  0  0  0  0  0  0
    3.5491    1.6235   -2.6046 H   0  0  0  0  0  0  0  0  0  0  0  0
    3.1359   -8.9197    4.1475 H   0  0  0  0  0  0  0  0  0  0  0  0
    3.4653   -9.7676    2.5989 H   0  0  0  0  0  0  0  0  0  0  0  0
    1.9683   -8.8236    2.7870 H   0  0  0  0  0  0  0  0  0  0  0  0
    5.6990    1.1720   -0.4418 H   0  0  0  0  0  0  0  0  0  0  0  0
    5.8303    0.6569   -2.1157 H   0  0  0  0  0  0  0  0  0  0  0  0
    3.8390   -0.8487   -1.8102 H   0  0  0  0  0  0  0  0  0  0  0  0
    3.6991   -0.3270   -0.1388 H   0  0  0  0  0  0  0  0  0  0  0  0
    5.9938   -1.2487    0.3393 H   0  0  0  0  0  0  0  0  0  0  0  0
    6.1242   -1.7842   -1.3302 H   0  0  0  0  0  0  0  0  0  0  0  0
    4.1104   -3.2762   -0.9982 H   0  0  0  0  0  0  0  0  0  0  0  0
    3.9964   -2.7406    0.6721 H   0  0  0  0  0  0  0  0  0  0  0  0
    6.3141   -3.6559    1.1099 H   0  0  0  0  0  0  0  0  0  0  0  0
    6.3929   -4.2196   -0.5554 H   0  0  0  0  0  0  0  0  0  0  0  0
  1  3  1  0  0  0  0
  1 14  1  0  0  0  0
  2 16  1  0  0  0  0
  3  4  1  0  0  0  0
  3 19  1  0  0  0  0
  4  5  1  0  0  0  0
  4 22  1  0  0  0  0
  5  6  1  0  0  0  0
  5 23  1  0  0  0  0
  6  7  1  0  0  0  0
  6 26  1  0  0  0  0
  7  8  1  0  0  0  0
  7 27  1  0  0  0  0
  8  9  3  0  0  0  0
  9 10  1  0  0  0  0
 10 12  1  0  0  0  0
 11 10  2  0  0  0  0
 12  2  1  0  0  0  0
 13  1  1  0  0  0  0
 15  1  1  0  0  0  0
 17  2  1  0  0  0  0
 18  2  1  0  0  0  0
 20  3  1  0  0  0  0
 21  4  1  0  0  0  0
 24  5  1  0  0  0  0
 25  6  1  0  0  0  0
 28  7  1  0  0  0  0
M  END
>  <HBA>
2

>  <HBD>
0

>  <TPSA>
26.3

>  <cid>
8137

>  <dipole>
2.44

>  <excitation_energy_1>
4.705

>  <excitation_energy_2>
5.551

>  <excitation_energy_3>
5.71

>  <excitation_energy_4>
6.787

>  <homo_energy>
-7.113

>  <homo_lumo_gap>
6.27

>  <logP>
2.133

>  <lumo_energy>
-0.844

>  <melting_point>
0.57

>  <molecular_refractivity>
49.63

>  <oscillator_strength_1>
0.0003

>  <oscillator_strength_2>
0.0006

>  <oscillator_strength_3>
0.2194

>  <oscillator_strength_4>
0.1019

>  <open_babel_can_smiles>
CCCCCCC#CC(=O)OC

>  <mulliken_charges>
28
1   -0.442169
2   -0.215069
3   -0.248409
4   -0.247956
5   -0.252244
6   -0.262627
7   -0.40656
8   0.025775
9   0.139869
10   0.42904
11   -0.464924
12   -0.438548
13   0.143554
14   0.142646
15   0.143098
16   0.167349
17   0.172379
18   0.170845
19   0.131326
20   0.131817
21   0.131662
22   0.130665
23   0.131342
24   0.131861
25   0.152852
26   0.150208
27   0.175406
28   0.176811

>  <lowdin_charges>
28
1   -0.445483
2   -0.27599
3   -0.273576
4   -0.275376
5   -0.276691
6   -0.267498
7   -0.262303
8   -0.00852
9   -0.10348
10   0.207709
11   -0.248343
12   -0.18181
13   0.150368
14   0.147718
15   0.147673
16   0.1596
17   0.161294
18   0.158177
19   0.140032
20   0.140223
21   0.140718
22   0.140103
23   0.140455
24   0.140691
25   0.152211
26   0.150652
27   0.169802
28   0.171643

$$$$

