PCCDB-ID:  61123
public computational chemistry database (PCCDB) project, http://pccdb.org

 29 30  0  0  1  0  0  0  0  0999 V2000
    1.0015    0.1311    0.0943 C   0  0  0  0  0  0  0  0  0  0  0  0
    2.9326    0.5450   -1.4116 C   0  0  0  0  0  0  0  0  0  0  0  0
    4.3185   -2.5324    2.2554 C   0  0  0  0  0  0  0  0  0  0  0  0
    4.7058    1.0444    0.9465 C   0  0  0  0  0  0  0  0  0  0  0  0
    5.2366   -0.4114    1.1063 C   0  0  0  0  0  0  0  0  0  0  0  0
    3.1878   -0.1549    2.3175 C   0  0  0  0  0  0  0  0  0  0  0  0
    3.1868    0.8738    1.1651 C   0  0  2  0  0  0  0  0  0  0  0  0
    3.0925   -1.4012    0.2712 C   0  0  1  0  0  0  0  0  0  0  0  0
    2.5384    0.0600   -0.0060 C   0  0  0  0  0  0  0  0  0  0  0  0
    3.9862   -1.2307    1.5383 C   0  0  2  0  0  0  0  0  0  0  0  0
    2.0889   -2.4034    0.4072 O   0  0  0  0  0  0  0  0  0  0  0  0
    0.6611    1.1396   -0.1680 H   0  0  0  0  0  0  0  0  0  0  0  0
    0.6259   -0.0765    1.1036 H   0  0  0  0  0  0  0  0  0  0  0  0
    0.5285   -0.5781   -0.5912 H   0  0  0  0  0  0  0  0  0  0  0  0
    2.6922    1.6068   -1.5510 H   0  0  0  0  0  0  0  0  0  0  0  0
    2.3848   -0.0217   -2.1742 H   0  0  0  0  0  0  0  0  0  0  0  0
    4.0000    0.4138   -1.6165 H   0  0  0  0  0  0  0  0  0  0  0  0
    4.8941   -2.3365    3.1683 H   0  0  0  0  0  0  0  0  0  0  0  0
    4.9188   -3.1915    1.6159 H   0  0  0  0  0  0  0  0  0  0  0  0
    3.4155   -3.0863    2.5304 H   0  0  0  0  0  0  0  0  0  0  0  0
    4.9595    1.4971   -0.0157 H   0  0  0  0  0  0  0  0  0  0  0  0
    5.1199    1.6983    1.7228 H   0  0  0  0  0  0  0  0  0  0  0  0
    6.0105   -0.4706    1.8807 H   0  0  0  0  0  0  0  0  0  0  0  0
    5.6791   -0.8081    0.1844 H   0  0  0  0  0  0  0  0  0  0  0  0
    2.1896   -0.4890    2.6267 H   0  0  0  0  0  0  0  0  0  0  0  0
    3.7100    0.2018    3.2137 H   0  0  0  0  0  0  0  0  0  0  0  0
    2.6645    1.8169    1.3594 H   0  0  0  0  0  0  0  0  0  0  0  0
    3.6925   -1.7557   -0.5741 H   0  0  0  0  0  0  0  0  0  0  0  0
    1.5153   -2.1568    1.1494 H   0  0  0  0  0  0  0  0  0  0  0  0
  1 13  1  0  0  0  0
  2  9  1  0  0  0  0
  3 20  1  0  0  0  0
  3 18  1  0  0  0  0
  4  5  1  0  0  0  0
  4  7  1  0  0  0  0
  4 22  1  0  0  0  0
  5 10  1  0  0  0  0
  5 23  1  0  0  0  0
  6 25  1  0  0  0  0
  6 26  1  0  0  0  0
  7 27  1  1  0  0  0
  7  6  1  0  0  0  0
  8 28  1  6  0  0  0
  8 11  1  0  0  0  0
  8 10  1  0  0  0  0
  9  1  1  0  0  0  0
  9  8  1  0  0  0  0
  9  7  1  0  0  0  0
 10  3  1  1  0  0  0
 10  6  1  0  0  0  0
 11 29  1  0  0  0  0
 12  1  1  0  0  0  0
 14  1  1  0  0  0  0
 15  2  1  0  0  0  0
 16  2  1  0  0  0  0
 17  2  1  0  0  0  0
 19  3  1  0  0  0  0
 21  4  1  0  0  0  0
 24  5  1  0  0  0  0
M  END
>  <HBA>
1

>  <HBD>
1

>  <TPSA>
20.23

>  <cid>
61123

>  <dipole>
1.56

>  <excitation_energy_1>
6.128

>  <excitation_energy_2>
6.627

>  <excitation_energy_3>
6.812

>  <excitation_energy_4>
6.86

>  <homo_energy>
-6.762

>  <homo_lumo_gap>
8.441

>  <logP>
2.193

>  <lumo_energy>
1.679

>  <melting_point>
71.93

>  <molecular_refractivity>
46.6

>  <oscillator_strength_1>
0.0

>  <oscillator_strength_2>
0.0194

>  <oscillator_strength_3>
0.0107

>  <oscillator_strength_4>
0.0048

>  <open_babel_can_smiles>
O[C@@H]1[C@@]2(C)CC[C@@H](C1(C)C)C2

>  <mulliken_charges>
29
1   -0.475136
2   -0.470977
3   -0.456174
4   -0.279834
5   -0.285073
6   -0.298813
7   -0.099157
8   0.119514
9   0.105286
10   0.074536
11   -0.628645
12   0.142501
13   0.127273
14   0.162041
15   0.138642
16   0.148327
17   0.144047
18   0.134241
19   0.144188
20   0.13988
21   0.138314
22   0.133778
23   0.135512
24   0.132555
25   0.115994
26   0.133355
27   0.10967
28   0.126942
29   0.38721

>  <lowdin_charges>
29
1   -0.448577
2   -0.442787
3   -0.443761
4   -0.288064
5   -0.285521
6   -0.290519
7   -0.134608
8   -0.012806
9   -0.009112
10   -0.013016
11   -0.451161
12   0.149971
13   0.138345
14   0.159062
15   0.145227
16   0.153827
17   0.14618
18   0.146531
19   0.153458
20   0.150157
21   0.145954
22   0.145509
23   0.146265
24   0.14249
25   0.132673
26   0.145529
27   0.138618
28   0.141891
29   0.338244

$$$$

