PCCDB-ID:  46416
public computational chemistry database (PCCDB) project, http://pccdb.org

 32 31  0  0  1  0  0  0  0  0999 V2000
    1.7530    0.0238   -1.8406 C   0  0  0  0  0  0  0  0  0  0  0  0
    2.8956    1.0280   -3.8603 C   0  0  0  0  0  0  0  0  0  0  0  0
    6.3390   -1.1078   -4.0520 C   0  0  0  0  0  0  0  0  0  0  0  0
    6.2511   -1.0921   -1.0016 C   0  0  0  0  0  0  0  0  0  0  0  0
    4.0800   -2.3191   -1.0669 C   0  0  0  0  0  0  0  0  0  0  0  0
    4.3715    0.9879   -1.0497 C   0  0  0  0  0  0  0  0  0  0  0  0
    2.9803   -0.0591   -2.7747 C   0  0  0  0  0  0  0  0  0  0  0  0
    5.3834   -1.9567   -3.2131 C   0  0  2  0  0  0  0  0  0  0  0  0
    4.9743   -1.3169   -1.8358 C   0  0  0  0  0  0  0  0  0  0  0  0
    4.3053   -0.0118   -2.1088 N   0  0  0  0  0  0  0  0  0  0  0  0
    5.9016   -3.2814   -3.0407 O   0  0  0  0  0  0  0  0  0  0  0  0
    0.8369   -0.1388   -2.4206 H   0  0  0  0  0  0  0  0  0  0  0  0
    1.6671    1.0084   -1.3677 H   0  0  0  0  0  0  0  0  0  0  0  0
    1.7850   -0.7291   -1.0481 H   0  0  0  0  0  0  0  0  0  0  0  0
    1.9398    0.9708   -4.3955 H   0  0  0  0  0  0  0  0  0  0  0  0
    3.7063    0.9135   -4.5859 H   0  0  0  0  0  0  0  0  0  0  0  0
    2.9699    2.0336   -3.4291 H   0  0  0  0  0  0  0  0  0  0  0  0
    5.9598   -0.0894   -4.1656 H   0  0  0  0  0  0  0  0  0  0  0  0
    6.4663   -1.5604   -5.0408 H   0  0  0  0  0  0  0  0  0  0  0  0
    7.3305   -1.0443   -3.5842 H   0  0  0  0  0  0  0  0  0  0  0  0
    6.8177   -2.0278   -0.9500 H   0  0  0  0  0  0  0  0  0  0  0  0
    6.0187   -0.8084    0.0290 H   0  0  0  0  0  0  0  0  0  0  0  0
    6.8981   -0.3211   -1.4310 H   0  0  0  0  0  0  0  0  0  0  0  0
    4.6286   -3.2418   -0.8613 H   0  0  0  0  0  0  0  0  0  0  0  0
    3.1913   -2.5941   -1.6444 H   0  0  0  0  0  0  0  0  0  0  0  0
    3.7509   -1.8908   -0.1132 H   0  0  0  0  0  0  0  0  0  0  0  0
    3.8785    1.9025   -1.3927 H   0  0  0  0  0  0  0  0  0  0  0  0
    5.4076    1.2562   -0.8305 H   0  0  0  0  0  0  0  0  0  0  0  0
    3.8894    0.6933   -0.0993 H   0  0  0  0  0  0  0  0  0  0  0  0
    2.9177   -1.0232   -3.2866 H   0  0  0  0  0  0  0  0  0  0  0  0
    4.4689   -2.1183   -3.7925 H   0  0  0  0  0  0  0  0  0  0  0  0
    6.8329   -3.1973   -2.7833 H   0  0  0  0  0  0  0  0  0  0  0  0
  1 13  1  0  0  0  0
  1 14  1  0  0  0  0
  2 17  1  0  0  0  0
  2  7  1  0  0  0  0
  3 20  1  0  0  0  0
  3  8  1  0  0  0  0
  4 21  1  0  0  0  0
  4 22  1  0  0  0  0
  5 24  1  0  0  0  0
  5 26  1  0  0  0  0
  6 28  1  0  0  0  0
  6 29  1  0  0  0  0
  7 10  1  0  0  0  0
  7  1  1  0  0  0  0
  8 31  1  6  0  0  0
  8 11  1  0  0  0  0
  8  9  1  0  0  0  0
  9  5  1  0  0  0  0
  9  4  1  0  0  0  0
 10  9  1  0  0  0  0
 10  6  1  0  0  0  0
 11 32  1  0  0  0  0
 12  1  1  0  0  0  0
 15  2  1  0  0  0  0
 16  2  1  0  0  0  0
 18  3  1  0  0  0  0
 19  3  1  0  0  0  0
 23  4  1  0  0  0  0
 25  5  1  0  0  0  0
 27  6  1  0  0  0  0
 30  7  1  0  0  0  0
M  END
>  <HBA>
2

>  <HBD>
1

>  <TPSA>
23.47

>  <cid>
46416

>  <dipole>
1.35

>  <excitation_energy_1>
4.697

>  <excitation_energy_2>
5.102

>  <excitation_energy_3>
5.236

>  <excitation_energy_4>
5.296

>  <homo_energy>
-5.263

>  <homo_lumo_gap>
7.056

>  <logP>
1.486

>  <lumo_energy>
1.793

>  <melting_point>
3.72

>  <molecular_refractivity>
49.47

>  <oscillator_strength_1>
0.0018

>  <oscillator_strength_2>
0.0003

>  <oscillator_strength_3>
0.0066

>  <oscillator_strength_4>
0.0041

>  <open_babel_can_smiles>
CC(N(C([C@H](O)C)(C)C)C)C

>  <mulliken_charges>
32
1   -0.453307
2   -0.435272
3   -0.475483
4   -0.495016
5   -0.449509
6   -0.3059
7   0.03544
8   0.139977
9   0.221585
10   -0.405361
11   -0.630516
12   0.140623
13   0.140637
14   0.151421
15   0.134433
16   0.149747
17   0.139838
18   0.170883
19   0.150921
20   0.128697
21   0.131539
22   0.153285
23   0.155813
24   0.157244
25   0.139224
26   0.135284
27   0.147434
28   0.150121
29   0.12261
30   0.133817
31   0.133701
32   0.386089

>  <lowdin_charges>
32
1   -0.461198
2   -0.448244
3   -0.463173
4   -0.452856
5   -0.458831
6   -0.356679
7   -0.057538
8   -0.008333
9   0.057327
10   -0.194014
11   -0.461078
12   0.151587
13   0.147214
14   0.153795
15   0.145947
16   0.15218
17   0.145337
18   0.164235
19   0.154514
20   0.141222
21   0.146704
22   0.154431
23   0.154229
24   0.159654
25   0.148645
26   0.145087
27   0.149335
28   0.14943
29   0.120984
30   0.142319
31   0.142491
32   0.335275

$$$$

