PCCDB-ID:  12184
public computational chemistry database (PCCDB) project, http://pccdb.org

 15 14  0  0  0  0  0  0  0  0999 V2000
    6.0942   -0.8708    0.2568 C   0  0  0  0  0  0  0  0  0  0  0  0
    4.7156   -0.7508    0.8863 C   0  0  0  0  0  0  0  0  0  0  0  0
    3.3479    2.6482    0.1714 C   0  0  0  0  0  0  0  0  0  0  0  0
    4.1803    1.5690    0.8460 C   0  0  0  0  0  0  0  0  0  0  0  0
    3.6061    3.9045    0.7407 O   0  0  0  0  0  0  0  0  0  0  0  0
    4.9359    1.8127    1.7677 O   0  0  0  0  0  0  0  0  0  0  0  0
    3.9703    0.3587    0.3146 O   0  0  0  0  0  0  0  0  0  0  0  0
    6.6031   -1.7582    0.6502 H   0  0  0  0  0  0  0  0  0  0  0  0
    6.7045    0.0058    0.4916 H   0  0  0  0  0  0  0  0  0  0  0  0
    6.0191   -0.9715   -0.8307 H   0  0  0  0  0  0  0  0  0  0  0  0
    4.7800   -0.6070    1.9674 H   0  0  0  0  0  0  0  0  0  0  0  0
    4.0961   -1.6243    0.6712 H   0  0  0  0  0  0  0  0  0  0  0  0
    2.2859    2.3744    0.2683 H   0  0  0  0  0  0  0  0  0  0  0  0
    3.5804    2.6451   -0.9039 H   0  0  0  0  0  0  0  0  0  0  0  0
    4.2439    3.7413    1.4606 H   0  0  0  0  0  0  0  0  0  0  0  0
  1  9  1  0  0  0  0
  1  8  1  0  0  0  0
  1  2  1  0  0  0  0
  2 11  1  0  0  0  0
  3 13  1  0  0  0  0
  3  5  1  0  0  0  0
  3  4  1  0  0  0  0
  4  6  2  0  0  0  0
  5 15  1  0  0  0  0
  7  4  1  0  0  0  0
  7  2  1  0  0  0  0
 10  1  1  0  0  0  0
 12  2  1  0  0  0  0
 14  3  1  0  0  0  0
M  END
>  <HBA>
3

>  <HBD>
1

>  <TPSA>
46.53

>  <cid>
12184

>  <dipole>
3.14

>  <excitation_energy_1>
6.109

>  <excitation_energy_2>
6.336

>  <excitation_energy_3>
6.922

>  <excitation_energy_4>
7.518

>  <homo_energy>
-7.287

>  <homo_lumo_gap>
7.306

>  <logP>
-0.458

>  <lumo_energy>
0.019

>  <melting_point>
5.82

>  <molecular_refractivity>
23.79

>  <oscillator_strength_1>
0.0011

>  <oscillator_strength_2>
0.0302

>  <oscillator_strength_3>
0.0001

>  <oscillator_strength_4>
0.0136

>  <open_babel_can_smiles>
CCOC(=O)CO

>  <mulliken_charges>
15
1   -0.463453
2   -0.050069
3   -0.074134
4   0.576648
5   -0.624205
6   -0.487683
7   -0.448549
8   0.156026
9   0.178693
10   0.161988
11   0.175553
12   0.160446
13   0.163704
14   0.164649
15   0.410388

>  <lowdin_charges>
15
1   -0.453605
2   -0.123546
3   -0.152593
4   0.181822
5   -0.462565
6   -0.274787
7   -0.181942
8   0.162695
9   0.167176
10   0.156844
11   0.159024
12   0.157128
13   0.15654
14   0.156943
15   0.350864

$$$$

