PCCDB-ID:  66965
public computational chemistry database (PCCDB) project, http://pccdb.org

 17 16  0  0  0  0  0  0  0  0999 V2000
    0.7170    0.2431   -0.4690 C   0  0  0  0  0  0  0  0  0  0  0  0
    1.6348   -1.3180    1.3878 C   0  0  0  0  0  0  0  0  0  0  0  0
    1.8830   -0.2571    0.3383 C   0  0  0  0  0  0  0  0  0  0  0  0
    5.3695    0.2826    0.4413 C   0  0  0  0  0  0  0  0  0  0  0  0
    5.6953    1.1759   -0.4001 N   0  0  0  0  0  0  0  0  0  0  0  0
    3.0347    0.2563    0.0890 N   0  0  0  0  0  0  0  0  0  0  0  0
    4.1091   -0.1664    0.8153 N   0  0  0  0  0  0  0  0  0  0  0  0
    6.3026   -0.3872    1.1693 O   0  0  0  0  0  0  0  0  0  0  0  0
   -0.0574    0.6692    0.1834 H   0  0  0  0  0  0  0  0  0  0  0  0
    0.2454   -0.5761   -1.0285 H   0  0  0  0  0  0  0  0  0  0  0  0
    1.0449    1.0098   -1.1744 H   0  0  0  0  0  0  0  0  0  0  0  0
    0.5742   -1.5747    1.4463 H   0  0  0  0  0  0  0  0  0  0  0  0
    1.9548   -0.9763    2.3816 H   0  0  0  0  0  0  0  0  0  0  0  0
    2.1845   -2.2446    1.1668 H   0  0  0  0  0  0  0  0  0  0  0  0
    4.8598    1.5545   -0.8470 H   0  0  0  0  0  0  0  0  0  0  0  0
    4.0710   -1.0134    1.3733 H   0  0  0  0  0  0  0  0  0  0  0  0
    7.1548   -0.0184    0.8785 H   0  0  0  0  0  0  0  0  0  0  0  0
  1  9  1  0  0  0  0
  1  3  1  0  0  0  0
  2 12  1  0  0  0  0
  2 13  1  0  0  0  0
  3  2  1  0  0  0  0
  4  7  1  0  0  0  0
  4  8  1  0  0  0  0
  5  4  2  0  0  0  0
  6  3  2  0  0  0  0
  6  7  1  0  0  0  0
  7 16  1  0  0  0  0
 10  1  1  0  0  0  0
 11  1  1  0  0  0  0
 14  2  1  0  0  0  0
 15  5  1  0  0  0  0
 17  8  1  0  0  0  0
M  END
>  <HBA>
4

>  <HBD>
2

>  <TPSA>
67.48

>  <cid>
66965

>  <dipole>
3.71

>  <excitation_energy_1>
5.337

>  <excitation_energy_2>
5.448

>  <excitation_energy_3>
5.911

>  <excitation_energy_4>
6.097

>  <homo_energy>
-5.984

>  <homo_lumo_gap>
5.948

>  <logP>
1.142

>  <lumo_energy>
-0.035

>  <melting_point>
105.78

>  <molecular_refractivity>
31.13

>  <oscillator_strength_1>
0.0017

>  <oscillator_strength_2>
0.3332

>  <oscillator_strength_3>
0.002

>  <oscillator_strength_4>
0.0115

>  <open_babel_can_smiles>
OC(=N)NN=C(C)C

>  <mulliken_charges>
17
1   -0.506578
2   -0.549028
3   0.324319
4   0.667592
5   -0.654434
6   -0.267629
7   -0.478239
8   -0.615071
9   0.159006
10   0.158795
11   0.177538
12   0.171718
13   0.17834
14   0.169921
15   0.306699
16   0.334
17   0.423051

>  <lowdin_charges>
17
1   -0.444738
2   -0.469924
3   0.024622
4   0.15526
5   -0.469473
6   -0.107976
7   -0.216901
8   -0.383308
9   0.16051
10   0.16043
11   0.171796
12   0.16823
13   0.168077
14   0.164407
15   0.270064
16   0.278542
17   0.370383

$$$$

