PCCDB-ID:  26237
public computational chemistry database (PCCDB) project, http://pccdb.org

 30 30  0  0  0  0  0  0  0  0999 V2000
    3.1048   -0.8427   -0.3938 C   0  0  0  0  0  0  0  0  0  0  0  0
    2.9633   -0.5642    1.1069 C   0  0  0  0  0  0  0  0  0  0  0  0
    3.0144   -1.8205    1.9934 C   0  0  0  0  0  0  0  0  0  0  0  0
    8.4803   -3.5937    2.0116 C   0  0  0  0  0  0  0  0  0  0  0  0
    7.1193   -3.3023    2.0763 C   0  0  0  0  0  0  0  0  0  0  0  0
    4.3462   -2.5625    1.9831 C   0  0  0  0  0  0  0  0  0  0  0  0
    8.9922   -1.3337    2.6364 C   0  0  0  0  0  0  0  0  0  0  0  0
    9.4432   -2.6127    2.2909 C   0  0  0  0  0  0  0  0  0  0  0  0
    7.6330   -1.0163    2.7081 C   0  0  0  0  0  0  0  0  0  0  0  0
    6.6837   -2.0219    2.4229 C   0  0  0  0  0  0  0  0  0  0  0  0
    7.3124    0.4123    3.0778 C   0  0  0  0  0  0  0  0  0  0  0  0
   10.8097   -2.9185    2.2883 N   0  0  0  0  0  0  0  0  0  0  0  0
    8.1799    1.2471    3.2204 O   0  0  0  0  0  0  0  0  0  0  0  0
    6.0166    0.7414    3.2542 O   0  0  0  0  0  0  0  0  0  0  0  0
    5.3488   -1.6818    2.5065 O   0  0  0  0  0  0  0  0  0  0  0  0
    3.0000    0.0821   -0.9714 H   0  0  0  0  0  0  0  0  0  0  0  0
    2.3355   -1.5427   -0.7435 H   0  0  0  0  0  0  0  0  0  0  0  0
    4.0832   -1.2698   -0.6427 H   0  0  0  0  0  0  0  0  0  0  0  0
    2.0057   -0.0606    1.2906 H   0  0  0  0  0  0  0  0  0  0  0  0
    3.7416    0.1401    1.4250 H   0  0  0  0  0  0  0  0  0  0  0  0
    2.2424   -2.5338    1.6724 H   0  0  0  0  0  0  0  0  0  0  0  0
    2.7774   -1.5523    3.0310 H   0  0  0  0  0  0  0  0  0  0  0  0
    8.7961   -4.6007    1.7490 H   0  0  0  0  0  0  0  0  0  0  0  0
    6.4035   -4.0868    1.8595 H   0  0  0  0  0  0  0  0  0  0  0  0
    4.6316   -2.8663    0.9681 H   0  0  0  0  0  0  0  0  0  0  0  0
    4.2911   -3.4637    2.6082 H   0  0  0  0  0  0  0  0  0  0  0  0
    9.6952   -0.5364    2.8577 H   0  0  0  0  0  0  0  0  0  0  0  0
   11.0740   -3.6704    1.6634 H   0  0  0  0  0  0  0  0  0  0  0  0
   11.4169   -2.1166    2.1688 H   0  0  0  0  0  0  0  0  0  0  0  0
    5.4573   -0.0486    3.1049 H   0  0  0  0  0  0  0  0  0  0  0  0
  1  2  1  0  0  0  0
  2 19  1  0  0  0  0
  2 20  1  0  0  0  0
  2  3  1  0  0  0  0
  3 22  1  0  0  0  0
  4  5  2  0  0  0  0
  4  8  1  0  0  0  0
  5 10  1  0  0  0  0
  6  3  1  0  0  0  0
  6 15  1  0  0  0  0
  6 26  1  0  0  0  0
  7  9  1  0  0  0  0
  7 27  1  0  0  0  0
  8  7  2  0  0  0  0
  9 11  1  0  0  0  0
 10 15  1  0  0  0  0
 10  9  2  0  0  0  0
 11 13  2  0  0  0  0
 11 14  1  0  0  0  0
 12  8  1  0  0  0  0
 16  1  1  0  0  0  0
 17  1  1  0  0  0  0
 18  1  1  0  0  0  0
 21  3  1  0  0  0  0
 23  4  1  0  0  0  0
 24  5  1  0  0  0  0
 25  6  1  0  0  0  0
 28 12  1  0  0  0  0
 29 12  1  0  0  0  0
 30 14  1  0  0  0  0
M  END
>  <HBA>
4

>  <HBD>
2

>  <TPSA>
72.55

>  <cid>
26237

>  <dipole>
6.45

>  <excitation_energy_1>
3.818

>  <excitation_energy_2>
4.674

>  <excitation_energy_3>
4.773

>  <excitation_energy_4>
5.07

>  <homo_energy>
-5.519

>  <homo_lumo_gap>
4.476

>  <logP>
2.727

>  <lumo_energy>
-1.042

>  <melting_point>
148.92

>  <molecular_refractivity>
58.72

>  <oscillator_strength_1>
0.0694

>  <oscillator_strength_2>
0.0008

>  <oscillator_strength_3>
0.0047

>  <oscillator_strength_4>
0.0143

>  <open_babel_can_smiles>
CCCCOc1ccc(cc1C(=O)O)N

>  <mulliken_charges>
30
1   -0.449938
2   -0.258372
3   -0.288114
4   -0.173288
5   -0.193063
6   -0.033439
7   -0.23075
8   0.321364
9   -0.01005
10   0.337171
11   0.570795
12   -0.790749
13   -0.466955
14   -0.610464
15   -0.586424
16   0.154661
17   0.141252
18   0.148057
19   0.142861
20   0.155645
21   0.143046
22   0.153351
23   0.127539
24   0.139794
25   0.150872
26   0.149207
27   0.163982
28   0.319034
29   0.325551
30   0.447425

>  <lowdin_charges>
30
1   -0.448924
2   -0.278103
3   -0.284586
4   -0.173974
5   -0.19744
6   -0.125744
7   -0.16209
8   0.048886
9   -0.076901
10   0.084591
11   0.199332
12   -0.491851
13   -0.263862
14   -0.368877
15   -0.225154
16   0.157119
17   0.146929
18   0.147595
19   0.148737
20   0.15143
21   0.153021
22   0.152768
23   0.157467
24   0.166945
25   0.143888
26   0.14509
27   0.180464
28   0.275987
29   0.279328
30   0.357926

$$$$

