PCCDB-ID:  35175
public computational chemistry database (PCCDB) project, http://pccdb.org

 16 16  0  0  0  0  0  0  0  0999 V2000
    1.0019   -0.3566    0.2081 C   0  0  0  0  0  0  0  0  0  0  0  0
    0.3028   -1.0329   -0.9746 C   0  0  0  0  0  0  0  0  0  0  0  0
   -0.6800   -0.8709   -3.0723 C   0  0  0  0  0  0  0  0  0  0  0  0
   -0.4809   -2.9374   -1.8565 C   0  0  0  0  0  0  0  0  0  0  0  0
    1.1737    0.9780    0.0325 N   0  0  0  0  0  0  0  0  0  0  0  0
   -1.0906   -0.3080   -4.1399 N   0  0  0  0  0  0  0  0  0  0  0  0
   -0.0436   -0.2794   -1.9845 N   0  0  0  0  0  0  0  0  0  0  0  0
    0.1159   -2.3802   -0.8362 N   0  0  0  0  0  0  0  0  0  0  0  0
   -0.8838   -2.2711   -2.9516 N   0  0  0  0  0  0  0  0  0  0  0  0
    1.3545   -0.9866    1.1911 O   0  0  0  0  0  0  0  0  0  0  0  0
   -0.7316   -4.2462   -1.8667 O   0  0  0  0  0  0  0  0  0  0  0  0
    0.8481    1.4206   -0.8149 H   0  0  0  0  0  0  0  0  0  0  0  0
    1.6249    1.5110    0.7604 H   0  0  0  0  0  0  0  0  0  0  0  0
   -0.8795    0.6895   -4.0895 H   0  0  0  0  0  0  0  0  0  0  0  0
   -1.3439   -2.7475   -3.7190 H   0  0  0  0  0  0  0  0  0  0  0  0
   -0.3892   -4.5918   -1.0203 H   0  0  0  0  0  0  0  0  0  0  0  0
  1 10  2  0  0  0  0
  2  8  1  0  0  0  0
  2  1  1  0  0  0  0
  3  9  1  0  0  0  0
  3  7  2  0  0  0  0
  4  8  2  0  0  0  0
  5  1  1  0  0  0  0
  5 13  1  0  0  0  0
  6 14  1  0  0  0  0
  6  3  1  0  0  0  0
  7  2  2  0  0  0  0
  9  4  1  0  0  0  0
 11  4  1  0  0  0  0
 11 16  1  0  0  0  0
 12  5  1  0  0  0  0
 15  9  1  0  0  0  0
M  RAD  1   6   2
M  END
>  <HBA>
6

>  <HBD>
3

>  <TPSA>
127.75

>  <cid>
35175

>  <dipole>
1.22

>  <excitation_energy_1>
3.705

>  <excitation_energy_2>
3.917

>  <excitation_energy_3>
4.517

>  <excitation_energy_4>
4.755

>  <homo_energy>
-6.626

>  <homo_lumo_gap>
4.659

>  <logP>
-0.873

>  <lumo_energy>
-1.967

>  <melting_point>
257.01

>  <molecular_refractivity>
35.15

>  <oscillator_strength_1>
0.0004

>  <oscillator_strength_2>
0.0363

>  <oscillator_strength_3>
0.0

>  <oscillator_strength_4>
0.028

>  <open_babel_can_smiles>
OC1=NC(=[N]=C(N1)[NH])C(=O)N

>  <mulliken_charges>
16
1   0.576568
2   0.41919
3   0.612649
4   0.751848
5   -0.755602
6   -0.646181
7   -0.549898
8   -0.518005
9   -0.628116
10   -0.490257
11   -0.588942
12   0.362745
13   0.344834
14   0.298587
15   0.367699
16   0.44288

>  <lowdin_charges>
16
1   0.150823
2   0.09407
3   0.119917
4   0.202109
5   -0.452288
6   -0.425104
7   -0.223044
8   -0.230731
9   -0.203764
10   -0.274856
11   -0.323746
12   0.30143
13   0.296516
14   0.265279
15   0.318369
16   0.385021

$$$$

