PCCDB-ID:  21564
public computational chemistry database (PCCDB) project, http://pccdb.org

 28 29  0  0  0  0  0  0  0  0999 V2000
    9.4467   -1.7308    0.3300 C   0  0  0  0  0  0  0  0  0  0  0  0
    8.3918   -1.4123   -0.7180 C   0  0  0  0  0  0  0  0  0  0  0  0
    9.0856    0.7059    6.5484 C   0  0  0  0  0  0  0  0  0  0  0  0
    9.0054    2.0837    6.8245 C   0  0  0  0  0  0  0  0  0  0  0  0
    8.4433    0.1477    5.4458 C   0  0  0  0  0  0  0  0  0  0  0  0
    8.2777    2.9486    6.0076 C   0  0  0  0  0  0  0  0  0  0  0  0
    5.6644    0.5211    0.8703 C   0  0  0  0  0  0  0  0  0  0  0  0
    7.7100    0.9983    4.6118 C   0  0  0  0  0  0  0  0  0  0  0  0
    7.6388    2.3807    4.9067 C   0  0  0  0  0  0  0  0  0  0  0  0
    7.0364    0.2957    0.2384 C   0  0  0  0  0  0  0  0  0  0  0  0
    6.4982    1.8616    3.0747 C   0  0  0  0  0  0  0  0  0  0  0  0
    6.9813    0.7081    3.4616 N   0  0  0  0  0  0  0  0  0  0  0  0
    6.8440    2.9104    3.8985 N   0  0  0  0  0  0  0  0  0  0  0  0
    7.8799    1.1366    0.0377 O   0  0  0  0  0  0  0  0  0  0  0  0
    7.1443   -1.0053   -0.0993 O   0  0  0  0  0  0  0  0  0  0  0  0
    5.4671    2.1428    1.6703 S   0  0  0  0  0  0  0  0  0  0  0  0
   10.3561   -2.0975   -0.1602 H   0  0  0  0  0  0  0  0  0  0  0  0
    9.0900   -2.5033    1.0188 H   0  0  0  0  0  0  0  0  0  0  0  0
    9.7012   -0.8365    0.9052 H   0  0  0  0  0  0  0  0  0  0  0  0
    8.1248   -2.2957   -1.3030 H   0  0  0  0  0  0  0  0  0  0  0  0
    8.7248   -0.6180   -1.3906 H   0  0  0  0  0  0  0  0  0  0  0  0
    9.6610    0.0664    7.2120 H   0  0  0  0  0  0  0  0  0  0  0  0
    9.5206    2.4839    7.6931 H   0  0  0  0  0  0  0  0  0  0  0  0
    8.5021   -0.9143    5.2284 H   0  0  0  0  0  0  0  0  0  0  0  0
    8.2172    4.0117    6.2231 H   0  0  0  0  0  0  0  0  0  0  0  0
    5.4687   -0.2686    1.5974 H   0  0  0  0  0  0  0  0  0  0  0  0
    4.8954    0.4730    0.0924 H   0  0  0  0  0  0  0  0  0  0  0  0
    6.6426    3.8857    3.7343 H   0  0  0  0  0  0  0  0  0  0  0  0
  1 19  1  0  0  0  0
  1 18  1  0  0  0  0
  2 15  1  0  0  0  0
  2  1  1  0  0  0  0
  3  4  1  0  0  0  0
  3 22  1  0  0  0  0
  4 23  1  0  0  0  0
  5  3  2  0  0  0  0
  6 25  1  0  0  0  0
  6  4  2  0  0  0  0
  7 26  1  0  0  0  0
  7 16  1  0  0  0  0
  8  9  2  0  0  0  0
  8  5  1  0  0  0  0
  9  6  1  0  0  0  0
 10  7  1  0  0  0  0
 11 12  2  0  0  0  0
 11 13  1  0  0  0  0
 12  8  1  0  0  0  0
 13  9  1  0  0  0  0
 14 10  2  0  0  0  0
 15 10  1  0  0  0  0
 16 11  1  0  0  0  0
 17  1  1  0  0  0  0
 20  2  1  0  0  0  0
 21  2  1  0  0  0  0
 24  5  1  0  0  0  0
 27  7  1  0  0  0  0
 28 13  1  0  0  0  0
M  END
>  <HBA>
4

>  <HBD>
1

>  <TPSA>
80.28

>  <cid>
21564

>  <dipole>
0.51

>  <excitation_energy_1>
4.649

>  <excitation_energy_2>
4.817

>  <excitation_energy_3>
5.043

>  <excitation_energy_4>
5.137

>  <homo_energy>
-5.69

>  <homo_lumo_gap>
5.377

>  <logP>
2.218

>  <lumo_energy>
-0.313

>  <melting_point>
134.7

>  <molecular_refractivity>
63.52

>  <oscillator_strength_1>
0.1109

>  <oscillator_strength_2>
0.1286

>  <oscillator_strength_3>
0.0135

>  <oscillator_strength_4>
0.0577

>  <open_babel_can_smiles>
CCOC(=O)CSc1nc2c([nH]1)cccc2

>  <mulliken_charges>
28
1   -0.460653
2   -0.047659
3   -0.143187
4   -0.149928
5   -0.17512
6   -0.170008
7   -0.516099
8   0.232976
9   0.348318
10   0.646379
11   0.315357
12   -0.539229
13   -0.721094
14   -0.457349
15   -0.455023
16   0.173216
17   0.148761
18   0.160763
19   0.184701
20   0.153435
21   0.170401
22   0.125422
23   0.126841
24   0.136009
25   0.128384
26   0.236729
27   0.206491
28   0.341166

>  <lowdin_charges>
28
1   -0.455779
2   -0.128274
3   -0.171286
4   -0.162784
5   -0.159265
6   -0.184277
7   -0.399189
8   0.016324
9   0.021285
10   0.200437
11   -0.035844
12   -0.220858
13   -0.205006
14   -0.251845
15   -0.192885
16   0.196163
17   0.158682
18   0.159243
19   0.170407
20   0.15337
21   0.159661
22   0.158727
23   0.158253
24   0.163437
25   0.157159
26   0.201625
27   0.192917
28   0.299604

$$$$

