PCCDB-ID:  47799
public computational chemistry database (PCCDB) project, http://pccdb.org

 30 30  0  0  1  0  0  0  0  0999 V2000
    2.9583   -1.6390    3.0886 C   0  0  0  0  0  0  0  0  0  0  0  0
    4.1076   -2.6399    3.2574 C   0  0  0  0  0  0  0  0  0  0  0  0
    5.5110   -2.0278    3.1011 C   0  0  0  0  0  0  0  0  0  0  0  0
    5.8311   -1.4224    1.7212 C   0  0  0  0  0  0  0  0  0  0  0  0
    5.7744   -2.3971    0.5311 C   0  0  0  0  0  0  0  0  0  0  0  0
    8.2779   -3.1357    0.3708 C   0  0  0  0  0  0  0  0  0  0  0  0
    6.8553   -4.4218   -0.7022 C   0  0  0  0  0  0  0  0  0  0  0  0
    6.7866   -3.5447    0.5847 C   0  0  2  0  0  0  0  0  0  0  0  0
    8.2601   -3.8594   -1.0208 C   0  0  2  0  0  0  0  0  0  0  0  0
    9.3643   -4.8737   -1.2488 C   0  0  0  0  0  0  0  0  0  0  0  0
    9.2173   -6.0693   -1.2942 O   0  0  0  0  0  0  0  0  0  0  0  0
   10.6130   -4.3378   -1.3818 O   0  0  0  0  0  0  0  0  0  0  0  0
    1.9900   -2.1167    3.2764 H   0  0  0  0  0  0  0  0  0  0  0  0
    2.9247   -1.2188    2.0769 H   0  0  0  0  0  0  0  0  0  0  0  0
    3.0580   -0.8020    3.7912 H   0  0  0  0  0  0  0  0  0  0  0  0
    3.9780   -3.4680    2.5474 H   0  0  0  0  0  0  0  0  0  0  0  0
    4.0410   -3.0920    4.2560 H   0  0  0  0  0  0  0  0  0  0  0  0
    6.2591   -2.7938    3.3458 H   0  0  0  0  0  0  0  0  0  0  0  0
    5.6349   -1.2387    3.8565 H   0  0  0  0  0  0  0  0  0  0  0  0
    6.8336   -0.9737    1.7675 H   0  0  0  0  0  0  0  0  0  0  0  0
    5.1447   -0.5893    1.5211 H   0  0  0  0  0  0  0  0  0  0  0  0
    5.9341   -1.8257   -0.3958 H   0  0  0  0  0  0  0  0  0  0  0  0
    4.7661   -2.8260    0.4449 H   0  0  0  0  0  0  0  0  0  0  0  0
    8.9696   -3.5898    1.0874 H   0  0  0  0  0  0  0  0  0  0  0  0
    8.4749   -2.0586    0.3370 H   0  0  0  0  0  0  0  0  0  0  0  0
    6.0858   -4.2184   -1.4540 H   0  0  0  0  0  0  0  0  0  0  0  0
    6.8872   -5.4978   -0.5149 H   0  0  0  0  0  0  0  0  0  0  0  0
    6.6320   -4.1332    1.4952 H   0  0  0  0  0  0  0  0  0  0  0  0
    8.2634   -3.1462   -1.8549 H   0  0  0  0  0  0  0  0  0  0  0  0
   10.5631   -3.3703   -1.3042 H   0  0  0  0  0  0  0  0  0  0  0  0
  1  2  1  0  0  0  0
  1 13  1  0  0  0  0
  1 15  1  0  0  0  0
  2 17  1  0  0  0  0
  3  2  1  0  0  0  0
  3 18  1  0  0  0  0
  3 19  1  0  0  0  0
  4 20  1  0  0  0  0
  4  3  1  0  0  0  0
  5  8  1  0  0  0  0
  5  4  1  0  0  0  0
  6  8  1  0  0  0  0
  6 24  1  0  0  0  0
  7 27  1  0  0  0  0
  7  8  1  0  0  0  0
  8 28  1  1  0  0  0
  9 29  1  6  0  0  0
  9  7  1  0  0  0  0
  9  6  1  0  0  0  0
 10  9  1  0  0  0  0
 11 10  2  0  0  0  0
 12 30  1  0  0  0  0
 12 10  1  0  0  0  0
 14  1  1  0  0  0  0
 16  2  1  0  0  0  0
 21  4  1  0  0  0  0
 22  5  1  0  0  0  0
 23  5  1  0  0  0  0
 25  6  1  0  0  0  0
 26  7  1  0  0  0  0
M  END
>  <HBA>
2

>  <HBD>
1

>  <TPSA>
37.3

>  <cid>
47799

>  <dipole>
4.38

>  <excitation_energy_1>
5.625

>  <excitation_energy_2>
6.363

>  <excitation_energy_3>
7.016

>  <excitation_energy_4>
7.076

>  <homo_energy>
-7.23

>  <homo_lumo_gap>
7.505

>  <logP>
2.678

>  <lumo_energy>
0.275

>  <melting_point>
70.52

>  <molecular_refractivity>
49.84

>  <oscillator_strength_1>
0.0021

>  <oscillator_strength_2>
0.0102

>  <oscillator_strength_3>
0.0018

>  <oscillator_strength_4>
0.0085

>  <open_babel_can_smiles>
CCCCC[C@@H]1C[C@H](C1)C(=O)O

>  <mulliken_charges>
30
1   -0.444088
2   -0.251824
3   -0.255508
4   -0.262471
5   -0.272648
6   -0.299673
7   -0.283435
8   -0.085731
9   -0.231147
10   0.59096
11   -0.437512
12   -0.568943
13   0.143965
14   0.14509
15   0.141626
16   0.134667
17   0.133392
18   0.131927
19   0.128885
20   0.128002
21   0.135538
22   0.122567
23   0.140383
24   0.156156
25   0.142178
26   0.141922
27   0.173998
28   0.138136
29   0.15426
30   0.409326

>  <lowdin_charges>
30
1   -0.446943
2   -0.276242
3   -0.281383
4   -0.280853
5   -0.277685
6   -0.291585
7   -0.280829
8   -0.126901
9   -0.176523
10   0.188217
11   -0.236206
12   -0.359188
13   0.150597
14   0.145763
15   0.146888
16   0.139923
17   0.143054
18   0.14136
19   0.142235
20   0.139464
21   0.144371
22   0.138019
23   0.143987
24   0.155796
25   0.143552
26   0.148925
27   0.16506
28   0.143816
29   0.157548
30   0.355763

$$$$

