PCCDB-ID:  29655
public computational chemistry database (PCCDB) project, http://pccdb.org

 30 29  0  0  1  0  0  0  0  0999 V2000
    0.7689   -1.8582   -0.2391 C   0  0  0  0  0  0  0  0  0  0  0  0
    4.6742    2.1956   -0.2547 C   0  0  0  0  0  0  0  0  0  0  0  0
    1.6327   -0.2631    2.3209 C   0  0  0  0  0  0  0  0  0  0  0  0
    6.0762    0.8192    2.2470 C   0  0  0  0  0  0  0  0  0  0  0  0
    2.1839   -1.7900    0.3468 C   0  0  0  0  0  0  0  0  0  0  0  0
    4.1714    2.1543    1.1955 C   0  0  0  0  0  0  0  0  0  0  0  0
    2.5198   -0.4746    1.0820 C   0  0  2  0  0  0  0  0  0  0  0  0
    4.5576    0.8987    2.0131 C   0  0  1  0  0  0  0  0  0  0  0  0
    4.0322   -0.4333    1.4226 C   0  0  1  0  0  0  0  0  0  0  0  0
    4.3914   -1.5326    2.2739 O   0  0  0  0  0  0  0  0  0  0  0  0
    0.6334   -2.7789   -0.8183 H   0  0  0  0  0  0  0  0  0  0  0  0
    0.5736   -1.0130   -0.9116 H   0  0  0  0  0  0  0  0  0  0  0  0
   -0.0033   -1.8480    0.5381 H   0  0  0  0  0  0  0  0  0  0  0  0
    4.3749    3.1334   -0.7365 H   0  0  0  0  0  0  0  0  0  0  0  0
    4.2652    1.3755   -0.8563 H   0  0  0  0  0  0  0  0  0  0  0  0
    5.7663    2.1334   -0.3099 H   0  0  0  0  0  0  0  0  0  0  0  0
    0.5717   -0.2587    2.0533 H   0  0  0  0  0  0  0  0  0  0  0  0
    1.8430    0.6892    2.8199 H   0  0  0  0  0  0  0  0  0  0  0  0
    1.7749   -1.0694    3.0526 H   0  0  0  0  0  0  0  0  0  0  0  0
    6.4416    1.7263    2.7431 H   0  0  0  0  0  0  0  0  0  0  0  0
    6.6232    0.7108    1.3029 H   0  0  0  0  0  0  0  0  0  0  0  0
    6.3289   -0.0433    2.8687 H   0  0  0  0  0  0  0  0  0  0  0  0
    2.9088   -1.9221   -0.4690 H   0  0  0  0  0  0  0  0  0  0  0  0
    2.3490   -2.6308    1.0309 H   0  0  0  0  0  0  0  0  0  0  0  0
    3.0804    2.2717    1.1976 H   0  0  0  0  0  0  0  0  0  0  0  0
    4.5638    3.0308    1.7290 H   0  0  0  0  0  0  0  0  0  0  0  0
    2.3219    0.3495    0.3813 H   0  0  0  0  0  0  0  0  0  0  0  0
    4.0861    1.0189    3.0023 H   0  0  0  0  0  0  0  0  0  0  0  0
    4.5835   -0.6377    0.4963 H   0  0  0  0  0  0  0  0  0  0  0  0
    4.0119   -1.3534    3.1493 H   0  0  0  0  0  0  0  0  0  0  0  0
  1  5  1  0  0  0  0
  1 13  1  0  0  0  0
  2  6  1  0  0  0  0
  3 18  1  0  0  0  0
  3 19  1  0  0  0  0
  4 20  1  0  0  0  0
  4 22  1  0  0  0  0
  5 24  1  0  0  0  0
  5  7  1  0  0  0  0
  6 25  1  0  0  0  0
  6 26  1  0  0  0  0
  6  8  1  0  0  0  0
  7 27  1  6  0  0  0
  7  9  1  0  0  0  0
  7  3  1  0  0  0  0
  8  4  1  0  0  0  0
  8 28  1  1  0  0  0
  9 29  1  6  0  0  0
  9  8  1  0  0  0  0
  9 10  1  0  0  0  0
 10 30  1  0  0  0  0
 11  1  1  0  0  0  0
 12  1  1  0  0  0  0
 14  2  1  0  0  0  0
 15  2  1  0  0  0  0
 16  2  1  0  0  0  0
 17  3  1  0  0  0  0
 21  4  1  0  0  0  0
 23  5  1  0  0  0  0
M  END
>  <HBA>
1

>  <HBD>
1

>  <TPSA>
20.23

>  <cid>
29655

>  <dipole>
1.57

>  <excitation_energy_1>
6.342

>  <excitation_energy_2>
6.795

>  <excitation_energy_3>
6.991

>  <excitation_energy_4>
7.086

>  <homo_energy>
-6.958

>  <homo_lumo_gap>
8.768

>  <logP>
2.439

>  <lumo_energy>
1.81

>  <melting_point>
-9.94

>  <molecular_refractivity>
46.54

>  <oscillator_strength_1>
0.0012

>  <oscillator_strength_2>
0.0026

>  <oscillator_strength_3>
0.0307

>  <oscillator_strength_4>
0.0014

>  <open_babel_can_smiles>
CC[C@H]([C@@H]([C@H](CC)C)O)C

>  <mulliken_charges>
30
1   -0.4504
2   -0.453256
3   -0.478707
4   -0.446928
5   -0.245398
6   -0.262589
7   -0.082358
8   -0.10192
9   0.137443
10   -0.633581
11   0.143551
12   0.137779
13   0.143129
14   0.144054
15   0.147407
16   0.149867
17   0.153608
18   0.14761
19   0.133106
20   0.1343
21   0.142098
22   0.156862
23   0.126679
24   0.145899
25   0.135855
26   0.13131
27   0.122863
28   0.107297
29   0.128318
30   0.386104

>  <lowdin_charges>
30
1   -0.448963
2   -0.449568
3   -0.454711
4   -0.449732
5   -0.274593
6   -0.276092
7   -0.143645
8   -0.142832
9   -0.006191
10   -0.461085
11   0.151042
12   0.144518
13   0.146415
14   0.151833
15   0.147668
16   0.147974
17   0.154233
18   0.148875
19   0.142398
20   0.145776
21   0.146924
22   0.157838
23   0.141144
24   0.148223
25   0.139411
26   0.143989
27   0.140673
28   0.130657
29   0.141133
30   0.336688

$$$$

