PCCDB-ID:  27621
public computational chemistry database (PCCDB) project, http://pccdb.org

 26 25  0  0  0  0  0  0  0  0999 V2000
    0.8174   -2.2404   -0.0797 C   0  0  0  0  0  0  0  0  0  0  0  0
    2.3041   -1.9882   -0.3486 C   0  0  0  0  0  0  0  0  0  0  0  0
    2.5578   -0.7053   -1.1500 C   0  0  0  0  0  0  0  0  0  0  0  0
    4.0310   -0.4446   -1.4398 C   0  0  0  0  0  0  0  0  0  0  0  0
    5.9053   -1.3555   -2.5622 C   0  0  0  0  0  0  0  0  0  0  0  0
    6.2660   -2.5225   -3.4745 C   0  0  0  0  0  0  0  0  0  0  0  0
    8.1665   -1.8126   -4.7039 C   0  0  0  0  0  0  0  0  0  0  0  0
    7.4477   -1.0366   -5.4127 N   0  0  0  0  0  0  0  0  0  0  0  0
    9.5030   -2.0536   -4.7682 O   0  0  0  0  0  0  0  0  0  0  0  0
    4.5329   -1.4949   -2.2518 O   0  0  0  0  0  0  0  0  0  0  0  0
    7.6842   -2.5722   -3.7126 O   0  0  0  0  0  0  0  0  0  0  0  0
    0.6666   -3.1622    0.4936 H   0  0  0  0  0  0  0  0  0  0  0  0
    0.2562   -2.3363   -1.0174 H   0  0  0  0  0  0  0  0  0  0  0  0
    0.3695   -1.4166    0.4902 H   0  0  0  0  0  0  0  0  0  0  0  0
    2.7355   -2.8366   -0.8921 H   0  0  0  0  0  0  0  0  0  0  0  0
    2.8451   -1.9275    0.6070 H   0  0  0  0  0  0  0  0  0  0  0  0
    2.1595    0.1616   -0.6037 H   0  0  0  0  0  0  0  0  0  0  0  0
    2.0180   -0.7499   -2.1056 H   0  0  0  0  0  0  0  0  0  0  0  0
    4.6052   -0.3899   -0.4978 H   0  0  0  0  0  0  0  0  0  0  0  0
    4.1575    0.5221   -1.9559 H   0  0  0  0  0  0  0  0  0  0  0  0
    6.1018   -0.4028   -3.0751 H   0  0  0  0  0  0  0  0  0  0  0  0
    6.5239   -1.3910   -1.6500 H   0  0  0  0  0  0  0  0  0  0  0  0
    5.7300   -2.4496   -4.4226 H   0  0  0  0  0  0  0  0  0  0  0  0
    6.0294   -3.4681   -2.9819 H   0  0  0  0  0  0  0  0  0  0  0  0
    7.9835   -0.5545   -6.1332 H   0  0  0  0  0  0  0  0  0  0  0  0
    9.8782   -1.5020   -5.4714 H   0  0  0  0  0  0  0  0  0  0  0  0
  1 14  1  0  0  0  0
  1 12  1  0  0  0  0
  2  1  1  0  0  0  0
  2 16  1  0  0  0  0
  3 17  1  0  0  0  0
  3  2  1  0  0  0  0
  4  3  1  0  0  0  0
  4 19  1  0  0  0  0
  5 10  1  0  0  0  0
  5 22  1  0  0  0  0
  6 24  1  0  0  0  0
  6  5  1  0  0  0  0
  7 11  1  0  0  0  0
  8  7  2  0  0  0  0
  9  7  1  0  0  0  0
 10  4  1  0  0  0  0
 11  6  1  0  0  0  0
 13  1  1  0  0  0  0
 15  2  1  0  0  0  0
 18  3  1  0  0  0  0
 20  4  1  0  0  0  0
 21  5  1  0  0  0  0
 23  6  1  0  0  0  0
 25  8  1  0  0  0  0
 26  9  1  0  0  0  0
M  END
>  <HBA>
4

>  <HBD>
1

>  <TPSA>
61.55

>  <cid>
27621

>  <dipole>
2.04

>  <excitation_energy_1>
5.856

>  <excitation_energy_2>
6.152

>  <excitation_energy_3>
6.484

>  <excitation_energy_4>
6.635

>  <homo_energy>
-6.817

>  <homo_lumo_gap>
8.0

>  <logP>
1.599

>  <lumo_energy>
1.184

>  <melting_point>
40.85

>  <molecular_refractivity>
41.23

>  <oscillator_strength_1>
0.005

>  <oscillator_strength_2>
0.0048

>  <oscillator_strength_3>
0.0438

>  <oscillator_strength_4>
0.0148

>  <open_babel_can_smiles>
CCCCOCCOC(=N)O

>  <mulliken_charges>
26
1   -0.442408
2   -0.246127
3   -0.267879
4   -0.007806
5   -0.024482
6   -0.051421
7   0.643034
8   -0.625866
9   -0.566741
10   -0.483311
11   -0.449019
12   0.142173
13   0.142805
14   0.138405
15   0.153371
16   0.12559
17   0.128974
18   0.143785
19   0.115509
20   0.121153
21   0.149278
22   0.126893
23   0.184373
24   0.163947
25   0.27723
26   0.408541

>  <lowdin_charges>
26
1   -0.445624
2   -0.274651
3   -0.281972
4   -0.126053
5   -0.140284
6   -0.127829
7   0.191313
8   -0.474789
9   -0.364606
10   -0.275042
11   -0.176375
12   0.149694
13   0.147045
14   0.145443
15   0.151061
16   0.137047
17   0.144906
18   0.147681
19   0.123781
20   0.128394
21   0.14269
22   0.130467
23   0.166954
24   0.159094
25   0.259038
26   0.362618

$$$$

