PCCDB-ID:  15820
public computational chemistry database (PCCDB) project, http://pccdb.org

 17 17  0  0  1  0  0  0  0  0999 V2000
    1.0745    0.0098    0.0270 C   0  0  0  0  0  0  0  0  0  0  0  0
    5.3687   -2.3196    0.0955 C   0  0  0  0  0  0  0  0  0  0  0  0
    2.5765   -0.0066    0.0428 C   0  0  2  0  0  0  0  0  0  0  0  0
    4.6143   -1.0160    0.0795 C   0  0  0  0  0  0  0  0  0  0  0  0
    4.6407    1.3035    0.0627 C   0  0  0  0  0  0  0  0  0  0  0  0
    5.2777    2.4123    0.0700 N   0  0  0  0  0  0  0  0  0  0  0  0
    3.2270   -1.1353    0.0655 N   0  0  0  0  0  0  0  0  0  0  0  0
    3.2163    1.1937    0.0370 N   0  0  0  0  0  0  0  0  0  0  0  0
    5.3045    0.0862    0.0790 N   0  0  0  0  0  0  0  0  0  0  0  0
    0.7091   -1.0170   -0.0008 H   0  0  0  0  0  0  0  0  0  0  0  0
    0.6968    0.5509   -0.8489 H   0  0  0  0  0  0  0  0  0  0  0  0
    0.6807    0.5061    0.9224 H   0  0  0  0  0  0  0  0  0  0  0  0
    4.6785   -3.1644    0.1192 H   0  0  0  0  0  0  0  0  0  0  0  0
    6.0302   -2.3584    0.9672 H   0  0  0  0  0  0  0  0  0  0  0  0
    6.0065   -2.3927   -0.7920 H   0  0  0  0  0  0  0  0  0  0  0  0
    4.6357    3.2097    0.0567 H   0  0  0  0  0  0  0  0  0  0  0  0
    2.6711    2.0475    0.0178 H   0  0  0  0  0  0  0  0  0  0  0  0
  1 12  1  0  0  0  0
  2 13  1  0  0  0  0
  2 14  1  0  0  0  0
  3  1  1  1  0  0  0
  3  7  1  0  0  0  0
  4  2  1  0  0  0  0
  5  6  1  0  0  0  0
  5  9  2  0  0  0  0
  7  4  2  0  0  0  0
  8  3  1  0  0  0  0
  8  5  1  0  0  0  0
  9  4  1  0  0  0  0
 10  1  1  0  0  0  0
 11  1  1  0  0  0  0
 15  2  1  0  0  0  0
 16  6  1  0  0  0  0
 17  8  1  0  0  0  0
M  RAD  2   3   2   6   2
M  END
>  <HBA>
4

>  <HBD>
1

>  <TPSA>
64.69

>  <cid>
15820

>  <dipole>
5.33

>  <excitation_energy_1>
4.057

>  <excitation_energy_2>
4.119

>  <excitation_energy_3>
4.996

>  <excitation_energy_4>
5.101

>  <homo_energy>
-6.196

>  <homo_lumo_gap>
4.855

>  <logP>
0.652

>  <lumo_energy>
-1.342

>  <melting_point>
108.67

>  <molecular_refractivity>
34.16

>  <oscillator_strength_1>
0.0289

>  <oscillator_strength_2>
0.0025

>  <oscillator_strength_3>
0.0004

>  <oscillator_strength_4>
0.0011

>  <open_babel_can_smiles>
C[C]1NC(=NC(=N1)C)[NH]

>  <mulliken_charges>
17
1   -0.539214
2   -0.504036
3   0.538173
4   0.413828
5   0.593465
6   -0.612347
7   -0.495755
8   -0.642282
9   -0.437751
10   0.205617
11   0.177668
12   0.180509
13   0.170138
14   0.180719
15   0.180473
16   0.258514
17   0.332283

>  <lowdin_charges>
17
1   -0.453568
2   -0.448076
3   0.136855
4   0.118691
5   0.12091
6   -0.419797
7   -0.231119
8   -0.235271
9   -0.178675
10   0.187998
11   0.172915
12   0.174483
13   0.167187
14   0.176865
15   0.176806
16   0.24222
17   0.291575

$$$$

