PCCDB-ID:  23597
public computational chemistry database (PCCDB) project, http://pccdb.org

 20 21  0  0  0  0  0  0  0  0999 V2000
    0.9554    0.0087    0.0742 C   0  0  0  0  0  0  0  0  0  0  0  0
    7.1765    0.7280    0.1920 C   0  0  0  0  0  0  0  0  0  0  0  0
    8.0294    1.8593    0.1234 C   0  0  0  0  0  0  0  0  0  0  0  0
    3.3040    1.1779    0.0474 C   0  0  0  0  0  0  0  0  0  0  0  0
    2.4393    0.1272    0.1070 C   0  0  0  0  0  0  0  0  0  0  0  0
    4.5885    0.5638    0.1324 C   0  0  0  0  0  0  0  0  0  0  0  0
    5.8878    1.2050    0.1165 C   0  0  0  0  0  0  0  0  0  0  0  0
    7.1935    2.9372    0.0112 C   0  0  0  0  0  0  0  0  0  0  0  0
    4.5037   -0.7514    0.2351 N   0  0  0  0  0  0  0  0  0  0  0  0
    7.4794    4.3304   -0.0951 N   0  0  0  0  0  0  0  0  0  0  0  0
    8.6764    4.6359   -0.0844 O   0  0  0  0  0  0  0  0  0  0  0  0
    6.5320    5.1108   -0.1879 O   0  0  0  0  0  0  0  0  0  0  0  0
    5.8924    2.5642    0.0043 O   0  0  0  0  0  0  0  0  0  0  0  0
    3.1416   -1.0263    0.2192 O   0  0  0  0  0  0  0  0  0  0  0  0
    0.5016    0.9980   -0.0185 H   0  0  0  0  0  0  0  0  0  0  0  0
    0.5806   -0.4639    0.9890 H   0  0  0  0  0  0  0  0  0  0  0  0
    0.6311   -0.6055   -0.7734 H   0  0  0  0  0  0  0  0  0  0  0  0
    7.4581   -0.3107    0.2845 H   0  0  0  0  0  0  0  0  0  0  0  0
    9.1077    1.8941    0.1508 H   0  0  0  0  0  0  0  0  0  0  0  0
    3.0783    2.2292   -0.0414 H   0  0  0  0  0  0  0  0  0  0  0  0
  1  5  1  0  0  0  0
  1 16  1  0  0  0  0
  2 18  1  0  0  0  0
  3 19  1  0  0  0  0
  3  2  1  0  0  0  0
  4  5  2  0  0  0  0
  4  6  1  0  0  0  0
  5 14  1  0  0  0  0
  6  9  2  0  0  0  0
  7  6  1  0  0  0  0
  7  2  2  0  0  0  0
  8  3  2  0  0  0  0
 10 11  2  0  0  0  0
 10  8  1  0  0  0  0
 12 10  2  0  0  0  0
 13  8  1  0  0  0  0
 13  7  1  0  0  0  0
 14  9  1  0  0  0  0
 15  1  1  0  0  0  0
 17  1  1  0  0  0  0
 20  4  1  0  0  0  0
M  END
>  <HBA>
3

>  <HBD>
0

>  <TPSA>
84.99

>  <cid>
23597

>  <dipole>
4.03

>  <excitation_energy_1>
3.729

>  <excitation_energy_2>
3.84

>  <excitation_energy_3>
4.123

>  <excitation_energy_4>
4.239

>  <homo_energy>
-6.865

>  <homo_lumo_gap>
4.182

>  <logP>
2.674

>  <lumo_energy>
-2.683

>  <melting_point>
99.19

>  <molecular_refractivity>
47.99

>  <oscillator_strength_1>
0.0

>  <oscillator_strength_2>
0.4255

>  <oscillator_strength_3>
0.0371

>  <oscillator_strength_4>
0.0003

>  <open_babel_can_smiles>
Cc1onc(c1)c1ccc(o1)N(=O)=O

>  <mulliken_charges>
20
1   -0.531788
2   -0.188999
3   -0.152601
4   -0.289868
5   0.431595
6   0.236952
7   0.358769
8   0.545102
9   -0.237806
10   0.325661
11   -0.402643
12   -0.392456
13   -0.459359
14   -0.356831
15   0.180857
16   0.190436
17   0.190443
18   0.184712
19   0.192554
20   0.175269

>  <lowdin_charges>
20
1   -0.441163
2   -0.175923
3   -0.146394
4   -0.234023
5   0.103149
6   0.007933
7   0.100931
8   0.070344
9   -0.076323
10   0.303339
11   -0.252871
12   -0.241216
13   -0.065559
14   -0.063237
15   0.176358
16   0.179882
17   0.18021
18   0.190775
19   0.195445
20   0.188342

$$$$

