PCCDB-ID:  45476
public computational chemistry database (PCCDB) project, http://pccdb.org

 37 37  0  0  1  0  0  0  0  0999 V2000
    0.7000    0.7338   -2.1430 C   0  0  0  0  0  0  0  0  0  0  0  0
   13.7306    0.3669   -6.0755 C   0  0  0  0  0  0  0  0  0  0  0  0
    2.1830    1.1107   -2.2103 C   0  0  0  0  0  0  0  0  0  0  0  0
   12.7599   -0.1554   -5.0113 C   0  0  0  0  0  0  0  0  0  0  0  0
    3.0699   -0.0423   -2.6973 C   0  0  0  0  0  0  0  0  0  0  0  0
   11.2910    0.1232   -5.3582 C   0  0  0  0  0  0  0  0  0  0  0  0
    4.5483    0.3147   -2.7823 C   0  0  0  0  0  0  0  0  0  0  0  0
   10.3379   -0.4052   -4.2911 C   0  0  0  0  0  0  0  0  0  0  0  0
    6.4175    2.4292   -5.1399 C   0  0  0  0  0  0  0  0  0  0  0  0
    6.9890    1.0585   -4.7825 C   0  0  2  0  0  0  0  0  0  0  0  0
    6.0182    1.8079   -3.8590 C   0  0  2  0  0  0  0  0  0  0  0  0
    8.4062    0.9870   -4.3601 C   0  0  0  0  0  0  0  0  0  0  0  0
    8.9999    1.8824   -3.7866 O   0  0  0  0  0  0  0  0  0  0  0  0
    4.7137    1.3456   -3.7575 O   0  0  0  0  0  0  0  0  0  0  0  0
    8.9548   -0.2118   -4.6689 O   0  0  0  0  0  0  0  0  0  0  0  0
    0.0907    1.5745   -1.7923 H   0  0  0  0  0  0  0  0  0  0  0  0
    0.5324   -0.1073   -1.4585 H   0  0  0  0  0  0  0  0  0  0  0  0
    0.3212    0.4375   -3.1290 H   0  0  0  0  0  0  0  0  0  0  0  0
   14.7709    0.1592   -5.8013 H   0  0  0  0  0  0  0  0  0  0  0  0
   13.6289    1.4511   -6.2045 H   0  0  0  0  0  0  0  0  0  0  0  0
   13.5415   -0.1020   -7.0488 H   0  0  0  0  0  0  0  0  0  0  0  0
    2.5260    1.4328   -1.2164 H   0  0  0  0  0  0  0  0  0  0  0  0
    2.3204    1.9698   -2.8770 H   0  0  0  0  0  0  0  0  0  0  0  0
   12.9981    0.3050   -4.0424 H   0  0  0  0  0  0  0  0  0  0  0  0
   12.9074   -1.2372   -4.8818 H   0  0  0  0  0  0  0  0  0  0  0  0
    2.7340   -0.3781   -3.6878 H   0  0  0  0  0  0  0  0  0  0  0  0
    2.9682   -0.9037   -2.0220 H   0  0  0  0  0  0  0  0  0  0  0  0
   11.0391   -0.3398   -6.3216 H   0  0  0  0  0  0  0  0  0  0  0  0
   11.1330    1.2030   -5.4664 H   0  0  0  0  0  0  0  0  0  0  0  0
    5.1476   -0.5639   -3.0663 H   0  0  0  0  0  0  0  0  0  0  0  0
    4.9184    0.6667   -1.8052 H   0  0  0  0  0  0  0  0  0  0  0  0
   10.5149    0.0844   -3.3297 H   0  0  0  0  0  0  0  0  0  0  0  0
   10.4388   -1.4877   -4.1706 H   0  0  0  0  0  0  0  0  0  0  0  0
    5.6800    2.4465   -5.9361 H   0  0  0  0  0  0  0  0  0  0  0  0
    7.1079    3.2660   -5.1052 H   0  0  0  0  0  0  0  0  0  0  0  0
    6.5909    0.1986   -5.3097 H   0  0  0  0  0  0  0  0  0  0  0  0
    6.4543    2.1995   -2.9383 H   0  0  0  0  0  0  0  0  0  0  0  0
  1 16  1  0  0  0  0
  1 17  1  0  0  0  0
  2 19  1  0  0  0  0
  2  4  1  0  0  0  0
  3  1  1  0  0  0  0
  3 22  1  0  0  0  0
  4 25  1  0  0  0  0
  4 24  1  0  0  0  0
  5  3  1  0  0  0  0
  5 27  1  0  0  0  0
  6  4  1  0  0  0  0
  6  8  1  0  0  0  0
  7  5  1  0  0  0  0
  7 31  1  0  0  0  0
  8 33  1  0  0  0  0
  8 32  1  0  0  0  0
  9 35  1  0  0  0  0
  9 10  1  0  0  0  0
  9 11  1  0  0  0  0
 10 36  1  6  0  0  0
 10 12  1  0  0  0  0
 10 11  1  0  0  0  0
 11 14  1  0  0  0  0
 11 37  1  1  0  0  0
 12 13  2  0  0  0  0
 14  7  1  0  0  0  0
 15 12  1  0  0  0  0
 15  8  1  0  0  0  0
 18  1  1  0  0  0  0
 20  2  1  0  0  0  0
 21  2  1  0  0  0  0
 23  3  1  0  0  0  0
 26  5  1  0  0  0  0
 28  6  1  0  0  0  0
 29  6  1  0  0  0  0
 30  7  1  0  0  0  0
 34  9  1  0  0  0  0
M  END
>  <HBA>
3

>  <HBD>
0

>  <TPSA>
35.53

>  <cid>
45476

>  <dipole>
1.64

>  <excitation_energy_1>
5.831

>  <excitation_energy_2>
6.364

>  <excitation_energy_3>
6.495

>  <excitation_energy_4>
6.7

>  <homo_energy>
-6.773

>  <homo_lumo_gap>
7.165

>  <logP>
2.535

>  <lumo_energy>
0.392

>  <melting_point>
-4.48

>  <molecular_refractivity>
60.05

>  <oscillator_strength_1>
0.018

>  <oscillator_strength_2>
0.2078

>  <oscillator_strength_3>
0.0281

>  <oscillator_strength_4>
0.0131

>  <open_babel_can_smiles>
CCCCO[C@@H]1C[C@H]1C(=O)OCCCC

>  <mulliken_charges>
37
1   -0.442727
2   -0.440923
3   -0.247407
4   -0.258434
5   -0.269709
6   -0.271651
7   -0.020944
8   -0.044773
9   -0.333828
10   -0.240923
11   0.155984
12   0.643763
13   -0.508386
14   -0.477066
15   -0.480086
16   0.143679
17   0.139076
18   0.142797
19   0.144443
20   0.147445
21   0.143562
22   0.127202
23   0.155962
24   0.140064
25   0.131687
26   0.143247
27   0.132011
28   0.140551
29   0.159824
30   0.129458
31   0.123574
32   0.165939
33   0.146383
34   0.172808
35   0.181508
36   0.166358
37   0.15953

>  <lowdin_charges>
37
1   -0.44535
2   -0.439075
3   -0.274279
4   -0.269382
5   -0.281227
6   -0.28557
7   -0.126654
8   -0.129092
9   -0.296259
10   -0.208135
11   -0.014306
12   0.201211
13   -0.294722
14   -0.243498
15   -0.194935
16   0.151206
17   0.145323
18   0.146703
19   0.149677
20   0.147686
21   0.147181
22   0.137602
23   0.151852
24   0.143062
25   0.137292
26   0.147234
27   0.146167
28   0.145301
29   0.153544
30   0.134046
31   0.129063
32   0.156371
33   0.147551
34   0.1749
35   0.177924
36   0.176108
37   0.15548

$$$$

