PCCDB-ID:  18687
public computational chemistry database (PCCDB) project, http://pccdb.org

 22 22  0  0  0  0  0  0  0  0999 V2000
    1.6829   -0.6328    1.4992 C   0  0  0  0  0  0  0  0  0  0  0  0
    2.5340   -2.0969   -0.3311 C   0  0  0  0  0  0  0  0  0  0  0  0
    7.5775   -0.3746    0.0090 C   0  0  0  0  0  0  0  0  0  0  0  0
    6.8118   -0.4521    1.1752 C   0  0  0  0  0  0  0  0  0  0  0  0
    6.9556   -0.0715   -1.2021 C   0  0  0  0  0  0  0  0  0  0  0  0
    5.4367   -0.2269    1.1277 C   0  0  0  0  0  0  0  0  0  0  0  0
    5.5775    0.1529   -1.2447 C   0  0  0  0  0  0  0  0  0  0  0  0
    3.3013    0.3480   -0.1216 C   0  0  0  0  0  0  0  0  0  0  0  0
    2.4556   -0.7911    0.4195 C   0  0  0  0  0  0  0  0  0  0  0  0
    4.8001    0.0814   -0.0831 C   0  0  0  0  0  0  0  0  0  0  0  0
    1.0723   -1.4439    1.8887 H   0  0  0  0  0  0  0  0  0  0  0  0
    1.6272    0.3146    2.0302 H   0  0  0  0  0  0  0  0  0  0  0  0
    1.9055   -2.8655    0.1287 H   0  0  0  0  0  0  0  0  0  0  0  0
    3.5649   -2.4702   -0.3669 H   0  0  0  0  0  0  0  0  0  0  0  0
    2.2098   -1.9698   -1.3736 H   0  0  0  0  0  0  0  0  0  0  0  0
    8.6494   -0.5505    0.0454 H   0  0  0  0  0  0  0  0  0  0  0  0
    7.2873   -0.6887    2.1238 H   0  0  0  0  0  0  0  0  0  0  0  0
    7.5407   -0.0111   -2.1163 H   0  0  0  0  0  0  0  0  0  0  0  0
    4.8435   -0.2956    2.0366 H   0  0  0  0  0  0  0  0  0  0  0  0
    5.0997    0.3906   -2.1929 H   0  0  0  0  0  0  0  0  0  0  0  0
    3.0773    1.2595    0.4474 H   0  0  0  0  0  0  0  0  0  0  0  0
    3.0099    0.5517   -1.1619 H   0  0  0  0  0  0  0  0  0  0  0  0
  1 11  1  0  0  0  0
  1 12  1  0  0  0  0
  2 13  1  0  0  0  0
  2  9  1  0  0  0  0
  3 16  1  0  0  0  0
  3  4  2  0  0  0  0
  4 17  1  0  0  0  0
  5  3  1  0  0  0  0
  6  4  1  0  0  0  0
  6 19  1  0  0  0  0
  7  5  2  0  0  0  0
  7 10  1  0  0  0  0
  8 10  1  0  0  0  0
  8  9  1  0  0  0  0
  8 21  1  0  0  0  0
  9  1  2  0  0  0  0
 10  6  2  0  0  0  0
 14  2  1  0  0  0  0
 15  2  1  0  0  0  0
 18  5  1  0  0  0  0
 20  7  1  0  0  0  0
 22  8  1  0  0  0  0
M  END
>  <HBA>
0

>  <HBD>
0

>  <TPSA>
0.0

>  <cid>
18687

>  <dipole>
0.31

>  <excitation_energy_1>
5.265

>  <excitation_energy_2>
5.672

>  <excitation_energy_3>
5.836

>  <excitation_energy_4>
5.869

>  <homo_energy>
-6.444

>  <homo_lumo_gap>
6.479

>  <logP>
2.805

>  <lumo_energy>
0.035

>  <melting_point>
-12.02

>  <molecular_refractivity>
45.35

>  <oscillator_strength_1>
0.0017

>  <oscillator_strength_2>
0.0284

>  <oscillator_strength_3>
0.0489

>  <oscillator_strength_4>
0.0315

>  <open_babel_can_smiles>
CC(=C)Cc1ccccc1

>  <mulliken_charges>
22
1   -0.408104
2   -0.512111
3   -0.131621
4   -0.128685
5   -0.125836
6   -0.175951
7   -0.193093
8   -0.416971
9   0.249046
10   0.173103
11   0.132747
12   0.131772
13   0.151619
14   0.167919
15   0.149938
16   0.127292
17   0.128225
18   0.127493
19   0.131705
20   0.121681
21   0.154897
22   0.144934

>  <lowdin_charges>
22
1   -0.367932
2   -0.441919
3   -0.158796
4   -0.15485
5   -0.156738
6   -0.164582
7   -0.170586
8   -0.269851
9   0.013234
10   -0.002519
11   0.155385
12   0.15324
13   0.157397
14   0.162716
15   0.15363
16   0.154745
17   0.156843
18   0.157026
19   0.160042
20   0.153486
21   0.158921
22   0.151108

$$$$

