PCCDB-ID:  55710
public computational chemistry database (PCCDB) project, http://pccdb.org

 17 18  0  0  0  0  0  0  0  0999 V2000
    0.8567   -1.4108   -0.0255 C   0  0  0  0  0  0  0  0  0  0  0  0
   -2.3512   -0.0379   -0.0484 C   0  0  0  0  0  0  0  0  0  0  0  0
   -0.2995   -0.6769   -0.0280 C   0  0  0  0  0  0  0  0  0  0  0  0
    2.1349   -0.7307    0.0227 C   0  0  0  0  0  0  0  0  0  0  0  0
   -0.2934    0.7611    0.0027 C   0  0  0  0  0  0  0  0  0  0  0  0
    0.8972    1.4262   -0.0269 C   0  0  0  0  0  0  0  0  0  0  0  0
    3.3404   -1.1948    0.0635 N   0  0  0  0  0  0  0  0  0  0  0  0
   -1.6311   -1.1199   -0.0643 N   0  0  0  0  0  0  0  0  0  0  0  0
   -1.6461    1.1528   -0.0719 N   0  0  0  0  0  0  0  0  0  0  0  0
    2.0373    0.6890    0.0062 N   0  0  0  0  0  0  0  0  0  0  0  0
    1.1059    2.7694   -0.0525 O   0  0  0  0  0  0  0  0  0  0  0  0
    0.8353   -2.4934   -0.0624 H   0  0  0  0  0  0  0  0  0  0  0  0
   -3.4355   -0.0254   -0.0417 H   0  0  0  0  0  0  0  0  0  0  0  0
    3.3141   -2.2150    0.0673 H   0  0  0  0  0  0  0  0  0  0  0  0
   -2.0215    1.9966    0.3414 H   0  0  0  0  0  0  0  0  0  0  0  0
    2.9275    1.1738    0.0004 H   0  0  0  0  0  0  0  0  0  0  0  0
    0.3090    3.2090   -0.3869 H   0  0  0  0  0  0  0  0  0  0  0  0
  1  4  1  0  0  0  0
  2 13  1  0  0  0  0
  3  1  2  0  0  0  0
  3  5  1  0  0  0  0
  4  7  2  0  0  0  0
  6  5  2  0  0  0  0
  6 10  1  0  0  0  0
  7 14  1  0  0  0  0
  8  2  2  0  0  0  0
  8  3  1  0  0  0  0
  9  2  1  0  0  0  0
  9  5  1  0  0  0  0
  9 15  1  0  0  0  0
 10  4  1  0  0  0  0
 11  6  1  0  0  0  0
 12  1  1  0  0  0  0
 16 10  1  0  0  0  0
 17 11  1  0  0  0  0
M  END
>  <HBA>
3

>  <HBD>
3

>  <TPSA>
87.56

>  <cid>
55710

>  <dipole>
6.63

>  <excitation_energy_1>
3.074

>  <excitation_energy_2>
3.183

>  <excitation_energy_3>
4.348

>  <excitation_energy_4>
4.625

>  <homo_energy>
-4.599

>  <homo_lumo_gap>
3.576

>  <logP>
0.415

>  <lumo_energy>
-1.023

>  <melting_point>
243.31

>  <molecular_refractivity>
41.12

>  <oscillator_strength_1>
0.0625

>  <oscillator_strength_2>
0.0083

>  <oscillator_strength_3>
0.0018

>  <oscillator_strength_4>
0.0011

>  <open_babel_can_smiles>
N=c1cc2nc[nH]c2c([nH]1)O

>  <mulliken_charges>
17
1   -0.295476
2   0.235865
3   0.307491
4   0.501196
5   0.215602
6   0.526265
7   -0.702394
8   -0.483386
9   -0.685589
10   -0.685614
11   -0.619521
12   0.139485
13   0.168218
14   0.274866
15   0.331428
16   0.349981
17   0.421581

>  <lowdin_charges>
17
1   -0.244632
2   -0.031464
3   0.050859
4   0.094841
5   -0.086422
6   0.141802
7   -0.491369
8   -0.185141
9   -0.244926
10   -0.197114
11   -0.363884
12   0.170914
13   0.169378
14   0.248092
15   0.29115
16   0.306838
17   0.371079

$$$$

