PCCDB-ID:  26329
public computational chemistry database (PCCDB) project, http://pccdb.org

 39 39  0  0  1  0  0  0  0  0999 V2000
    1.9284   -0.5694    1.3736 C   0  0  0  0  0  0  0  0  0  0  0  0
    0.5538    3.2820    0.6911 C   0  0  0  0  0  0  0  0  0  0  0  0
    4.4909    2.4037   -0.2786 C   0  0  0  0  0  0  0  0  0  0  0  0
    1.9926    0.8106    2.0344 C   0  0  0  0  0  0  0  0  0  0  0  0
    1.9300    3.1675    1.3521 C   0  0  0  0  0  0  0  0  0  0  0  0
    6.8236    7.2147    1.7070 C   0  0  0  0  0  0  0  0  0  0  0  0
    7.2709    6.4151    0.6516 C   0  0  0  0  0  0  0  0  0  0  0  0
    6.4775    6.6139    2.9181 C   0  0  0  0  0  0  0  0  0  0  0  0
    7.3710    5.0336    0.8015 C   0  0  0  0  0  0  0  0  0  0  0  0
    6.5656    5.2300    3.0735 C   0  0  0  0  0  0  0  0  0  0  0  0
    4.7176    2.5100    2.2713 C   0  0  0  0  0  0  0  0  0  0  0  0
    4.0038    1.8285    1.0569 C   0  0  1  0  0  0  0  0  0  0  0  0
    7.0030    4.4197    2.0111 C   0  0  0  0  0  0  0  0  0  0  0  0
    6.2060    2.2310    2.3194 C   0  0  0  0  0  0  0  0  0  0  0  0
    7.1754    3.0354    2.1614 N   0  0  0  0  0  0  0  0  0  0  0  0
    2.5375    1.8457    1.1514 N   0  0  0  0  0  0  0  0  0  0  0  0
    6.5434    0.9197    2.5061 O   0  0  0  0  0  0  0  0  0  0  0  0
    1.4982   -1.3049    2.0637 H   0  0  0  0  0  0  0  0  0  0  0  0
    2.9192   -0.9344    1.0795 H   0  0  0  0  0  0  0  0  0  0  0  0
    1.3086   -0.5296    0.4723 H   0  0  0  0  0  0  0  0  0  0  0  0
    0.1410    4.2866    0.8409 H   0  0  0  0  0  0  0  0  0  0  0  0
   -0.1632    2.5657    1.1079 H   0  0  0  0  0  0  0  0  0  0  0  0
    0.6321    3.0913   -0.3840 H   0  0  0  0  0  0  0  0  0  0  0  0
    5.5696    2.2550   -0.3937 H   0  0  0  0  0  0  0  0  0  0  0  0
    4.3007    3.4797   -0.3553 H   0  0  0  0  0  0  0  0  0  0  0  0
    3.9766    1.9037   -1.1045 H   0  0  0  0  0  0  0  0  0  0  0  0
    2.5547    0.7431    2.9872 H   0  0  0  0  0  0  0  0  0  0  0  0
    0.9773    1.1078    2.3145 H   0  0  0  0  0  0  0  0  0  0  0  0
    1.8498    3.4259    2.4243 H   0  0  0  0  0  0  0  0  0  0  0  0
    2.5878    3.9189    0.9052 H   0  0  0  0  0  0  0  0  0  0  0  0
    6.7553    8.2924    1.5889 H   0  0  0  0  0  0  0  0  0  0  0  0
    7.5519    6.8712   -0.2945 H   0  0  0  0  0  0  0  0  0  0  0  0
    6.1385    7.2238    3.7520 H   0  0  0  0  0  0  0  0  0  0  0  0
    7.7348    4.4105   -0.0102 H   0  0  0  0  0  0  0  0  0  0  0  0
    6.3168    4.7659    4.0241 H   0  0  0  0  0  0  0  0  0  0  0  0
    4.2646    2.1463    3.2048 H   0  0  0  0  0  0  0  0  0  0  0  0
    4.5607    3.5900    2.2361 H   0  0  0  0  0  0  0  0  0  0  0  0
    4.2819    0.7670    1.0597 H   0  0  0  0  0  0  0  0  0  0  0  0
    5.7363    0.4011    2.6457 H   0  0  0  0  0  0  0  0  0  0  0  0
  1  4  1  0  0  0  0
  1 18  1  0  0  0  0
  2 21  1  0  0  0  0
  2 22  1  0  0  0  0
  2  5  1  0  0  0  0
  3 12  1  0  0  0  0
  4 28  1  0  0  0  0
  4 27  1  0  0  0  0
  5 29  1  0  0  0  0
  6  8  2  0  0  0  0
  7  9  2  0  0  0  0
  7  6  1  0  0  0  0
  8 10  1  0  0  0  0
  8 33  1  0  0  0  0
  9 13  1  0  0  0  0
 10 35  1  0  0  0  0
 11 14  1  0  0  0  0
 11 36  1  0  0  0  0
 12 38  1  1  0  0  0
 12 16  1  0  0  0  0
 12 11  1  0  0  0  0
 13 15  1  0  0  0  0
 13 10  2  0  0  0  0
 14 17  1  0  0  0  0
 15 14  2  0  0  0  0
 16  5  1  0  0  0  0
 16  4  1  0  0  0  0
 17 39  1  0  0  0  0
 19  1  1  0  0  0  0
 20  1  1  0  0  0  0
 23  2  1  0  0  0  0
 24  3  1  0  0  0  0
 25  3  1  0  0  0  0
 26  3  1  0  0  0  0
 30  5  1  0  0  0  0
 31  6  1  0  0  0  0
 32  7  1  0  0  0  0
 34  9  1  0  0  0  0
 37 11  1  0  0  0  0
M  END
>  <HBA>
3

>  <HBD>
1

>  <TPSA>
32.34

>  <cid>
26329

>  <dipole>
4.03

>  <excitation_energy_1>
4.679

>  <excitation_energy_2>
4.832

>  <excitation_energy_3>
4.944

>  <excitation_energy_4>
4.993

>  <homo_energy>
-5.671

>  <homo_lumo_gap>
5.668

>  <logP>
2.818

>  <lumo_energy>
-0.003

>  <melting_point>
57.25

>  <molecular_refractivity>
72.49

>  <oscillator_strength_1>
0.0458

>  <oscillator_strength_2>
0.0069

>  <oscillator_strength_3>
0.015

>  <oscillator_strength_4>
0.0341

>  <open_babel_can_smiles>
CCN([C@H](C/C(=N\c1ccccc1)/O)C)CC

>  <mulliken_charges>
39
1   -0.437527
2   -0.439462
3   -0.452965
4   -0.131119
5   -0.133914
6   -0.132424
7   -0.138936
8   -0.139005
9   -0.15261
10   -0.15523
11   -0.377538
12   0.021999
13   0.238001
14   0.489377
15   -0.479089
16   -0.368334
17   -0.580428
18   0.14126
19   0.142786
20   0.159104
21   0.141701
22   0.145277
23   0.155284
24   0.161618
25   0.154559
26   0.157748
27   0.106094
28   0.14604
29   0.119478
30   0.14824
31   0.122973
32   0.12693
33   0.125914
34   0.130549
35   0.123397
36   0.153354
37   0.17767
38   0.120209
39   0.409017

>  <lowdin_charges>
39
1   -0.451473
2   -0.447761
3   -0.449108
4   -0.197496
5   -0.199038
6   -0.174067
7   -0.152257
8   -0.154811
9   -0.179871
10   -0.190619
11   -0.329909
12   -0.056983
13   0.050202
14   0.145142
15   -0.173886
16   -0.186059
17   -0.363445
18   0.151948
19   0.145027
20   0.156893
21   0.15048
22   0.14848
23   0.152991
24   0.158726
25   0.151607
26   0.160151
27   0.113833
28   0.149018
29   0.120855
30   0.150282
31   0.153384
32   0.15643
33   0.156821
34   0.162123
35   0.156382
36   0.156849
37   0.170807
38   0.133922
39   0.35443

$$$$

