PCCDB-ID:  15656
public computational chemistry database (PCCDB) project, http://pccdb.org

 21 21  0  0  1  0  0  0  0  0999 V2000
    1.1987    0.2703   -0.5737 C   0  0  0  0  0  0  0  0  0  0  0  0
    4.4299    1.1855    3.2541 C   0  0  0  0  0  0  0  0  0  0  0  0
    2.5408   -1.2683    1.0149 C   0  0  0  0  0  0  0  0  0  0  0  0
    3.5365   -0.9919    2.1782 C   0  0  0  0  0  0  0  0  0  0  0  0
    2.9534    1.1160    1.1300 C   0  0  0  0  0  0  0  0  0  0  0  0
    2.5245    0.0156    0.1439 C   0  0  2  0  0  0  0  0  0  0  0  0
    4.0637    0.4523    1.9635 C   0  0  1  0  0  0  0  0  0  0  0  0
    0.9431   -0.5563   -1.2480 H   0  0  0  0  0  0  0  0  0  0  0  0
    0.3781    0.3765    0.1477 H   0  0  0  0  0  0  0  0  0  0  0  0
    1.2364    1.1875   -1.1740 H   0  0  0  0  0  0  0  0  0  0  0  0
    5.2132    0.6539    3.8082 H   0  0  0  0  0  0  0  0  0  0  0  0
    3.5574    1.2737    3.9145 H   0  0  0  0  0  0  0  0  0  0  0  0
    4.7981    2.1984    3.0501 H   0  0  0  0  0  0  0  0  0  0  0  0
    1.5350   -1.4563    1.4121 H   0  0  0  0  0  0  0  0  0  0  0  0
    2.8124   -2.1518    0.4263 H   0  0  0  0  0  0  0  0  0  0  0  0
    4.3559   -1.7185    2.2139 H   0  0  0  0  0  0  0  0  0  0  0  0
    3.0212   -1.0574    3.1451 H   0  0  0  0  0  0  0  0  0  0  0  0
    2.1065    1.3815    1.7825 H   0  0  0  0  0  0  0  0  0  0  0  0
    3.2809    2.0370    0.6319 H   0  0  0  0  0  0  0  0  0  0  0  0
    3.3169   -0.0742   -0.6148 H   0  0  0  0  0  0  0  0  0  0  0  0
    4.9625    0.3982    1.3306 H   0  0  0  0  0  0  0  0  0  0  0  0
  1  6  1  0  0  0  0
  1  9  1  0  0  0  0
  2 11  1  0  0  0  0
  2 12  1  0  0  0  0
  3 14  1  0  0  0  0
  3  4  1  0  0  0  0
  4 16  1  0  0  0  0
  4 17  1  0  0  0  0
  5 18  1  0  0  0  0
  5  7  1  0  0  0  0
  6 20  1  6  0  0  0
  6  3  1  0  0  0  0
  6  5  1  0  0  0  0
  7 21  1  6  0  0  0
  7  4  1  0  0  0  0
  7  2  1  0  0  0  0
  8  1  1  0  0  0  0
 10  1  1  0  0  0  0
 13  2  1  0  0  0  0
 15  3  1  0  0  0  0
 19  5  1  0  0  0  0
M  END
>  <HBA>
0

>  <HBD>
0

>  <TPSA>
0.0

>  <cid>
15656

>  <dipole>
0.14

>  <excitation_energy_1>
7.666

>  <excitation_energy_2>
7.748

>  <excitation_energy_3>
7.99

>  <excitation_energy_4>
7.995

>  <homo_energy>
-8.144

>  <homo_lumo_gap>
10.395

>  <logP>
2.442

>  <lumo_energy>
2.25

>  <melting_point>
-4.65

>  <molecular_refractivity>
33.65

>  <oscillator_strength_1>
0.017

>  <oscillator_strength_2>
0.0069

>  <oscillator_strength_3>
0.0036

>  <oscillator_strength_4>
0.0413

>  <open_babel_can_smiles>
C[C@@H]1CC[C@@H](C1)C

>  <mulliken_charges>
21
1   -0.448908
2   -0.449024
3   -0.274928
4   -0.275785
5   -0.26375
6   -0.068655
7   -0.068398
8   0.14033
9   0.137443
10   0.139315
11   0.140295
12   0.137401
13   0.139269
14   0.131172
15   0.131914
16   0.132182
17   0.13135
18   0.121554
19   0.127534
20   0.119788
21   0.119901

>  <lowdin_charges>
21
1   -0.444763
2   -0.444113
3   -0.286787
4   -0.287779
5   -0.284487
6   -0.126217
7   -0.126041
8   0.148719
9   0.145036
10   0.147704
11   0.149088
12   0.144875
13   0.146777
14   0.140449
15   0.144124
16   0.14428
17   0.140952
18   0.136125
19   0.141947
20   0.135202
21   0.134909

$$$$

