PCCDB-ID:  13159
public computational chemistry database (PCCDB) project, http://pccdb.org

 21 20  0  0  0  0  0  0  0  0999 V2000
    1.4222    0.4511   -1.0471 C   0  0  0  0  0  0  0  0  0  0  0  0
    1.6459    0.5419    2.8261 C   0  0  0  0  0  0  0  0  0  0  0  0
    4.7310   -2.1444    1.2848 C   0  0  0  0  0  0  0  0  0  0  0  0
    2.7372    0.1192   -0.3979 C   0  0  0  0  0  0  0  0  0  0  0  0
    1.8635   -0.6306    1.8506 C   0  0  0  0  0  0  0  0  0  0  0  0
    4.3762   -0.6461    1.3004 C   0  0  0  0  0  0  0  0  0  0  0  0
    2.9593   -0.3577    0.8370 C   0  0  0  0  0  0  0  0  0  0  0  0
    1.3765    1.5156   -1.3162 H   0  0  0  0  0  0  0  0  0  0  0  0
    0.5612    0.2357   -0.4083 H   0  0  0  0  0  0  0  0  0  0  0  0
    1.2938   -0.1110   -1.9825 H   0  0  0  0  0  0  0  0  0  0  0  0
    0.8797    0.2954    3.5705 H   0  0  0  0  0  0  0  0  0  0  0  0
    1.3238    1.4411    2.2895 H   0  0  0  0  0  0  0  0  0  0  0  0
    2.5668    0.7909    3.3659 H   0  0  0  0  0  0  0  0  0  0  0  0
    5.7521   -2.3084    1.6489 H   0  0  0  0  0  0  0  0  0  0  0  0
    4.6620   -2.5476    0.2684 H   0  0  0  0  0  0  0  0  0  0  0  0
    4.0556   -2.7286    1.9206 H   0  0  0  0  0  0  0  0  0  0  0  0
    3.6103    0.3021   -1.0277 H   0  0  0  0  0  0  0  0  0  0  0  0
    0.9161   -0.8578    1.3500 H   0  0  0  0  0  0  0  0  0  0  0  0
    2.1200   -1.5275    2.4305 H   0  0  0  0  0  0  0  0  0  0  0  0
    5.0885   -0.1052    0.6656 H   0  0  0  0  0  0  0  0  0  0  0  0
    4.5180   -0.2613    2.3209 H   0  0  0  0  0  0  0  0  0  0  0  0
  1  9  1  0  0  0  0
  1  4  1  0  0  0  0
  2 13  1  0  0  0  0
  2 11  1  0  0  0  0
  3  6  1  0  0  0  0
  3 14  1  0  0  0  0
  3 16  1  0  0  0  0
  4  7  2  0  0  0  0
  5 19  1  0  0  0  0
  5  2  1  0  0  0  0
  6 21  1  0  0  0  0
  7  6  1  0  0  0  0
  7  5  1  0  0  0  0
  8  1  1  0  0  0  0
 10  1  1  0  0  0  0
 12  2  1  0  0  0  0
 15  3  1  0  0  0  0
 17  4  1  0  0  0  0
 18  5  1  0  0  0  0
 20  6  1  0  0  0  0
M  END
>  <HBA>
0

>  <HBD>
0

>  <TPSA>
0.0

>  <cid>
13159

>  <dipole>
0.14

>  <excitation_energy_1>
5.688

>  <excitation_energy_2>
6.04

>  <excitation_energy_3>
6.196

>  <excitation_energy_4>
6.272

>  <homo_energy>
-6.114

>  <homo_lumo_gap>
7.018

>  <logP>
2.753

>  <lumo_energy>
0.903

>  <melting_point>
-14.02

>  <molecular_refractivity>
35.29

>  <oscillator_strength_1>
0.0133

>  <oscillator_strength_2>
0.0719

>  <oscillator_strength_3>
0.0099

>  <oscillator_strength_4>
0.0105

>  <open_babel_can_smiles>
CCC(=CC)CC

>  <mulliken_charges>
21
1   -0.485962
2   -0.438697
3   -0.438773
4   -0.164524
5   -0.331692
6   -0.325701
7   0.195961
8   0.153147
9   0.151045
10   0.151979
11   0.140867
12   0.149323
13   0.146119
14   0.141021
15   0.147957
16   0.144715
17   0.111494
18   0.141182
19   0.13744
20   0.13804
21   0.135059

>  <lowdin_charges>
21
1   -0.442672
2   -0.442555
3   -0.443422
4   -0.188686
5   -0.275654
6   -0.270875
7   -0.017792
8   0.154402
9   0.15373
10   0.155187
11   0.148771
12   0.150466
13   0.147875
14   0.147546
15   0.148963
16   0.147823
17   0.145012
18   0.147534
19   0.145239
20   0.147549
21   0.141558

$$$$

