PCCDB-ID:  7220
public computational chemistry database (PCCDB) project, http://pccdb.org

 14 15  0  0  0  0  0  0  0  0999 V2000
    2.1036   -0.6956   -0.0161 C   0  0  0  0  0  0  0  0  0  0  0  0
    2.1158    0.7207    0.0083 C   0  0  0  0  0  0  0  0  0  0  0  0
    0.9148   -1.4073   -0.0160 C   0  0  0  0  0  0  0  0  0  0  0  0
    0.9463    1.4666    0.0335 C   0  0  0  0  0  0  0  0  0  0  0  0
   -0.2801   -0.6701    0.0100 C   0  0  0  0  0  0  0  0  0  0  0  0
   -0.2534    0.7401    0.0343 C   0  0  0  0  0  0  0  0  0  0  0  0
   -1.5965   -1.0898    0.0184 N   0  0  0  0  0  0  0  0  0  0  0  0
   -1.5780    1.0688    0.0552 N   0  0  0  0  0  0  0  0  0  0  0  0
   -2.3614   -0.0495    0.0452 N   0  0  0  0  0  0  0  0  0  0  0  0
    3.0499   -1.2280   -0.0360 H   0  0  0  0  0  0  0  0  0  0  0  0
    3.0715    1.2375    0.0070 H   0  0  0  0  0  0  0  0  0  0  0  0
    0.8924   -2.4921   -0.0353 H   0  0  0  0  0  0  0  0  0  0  0  0
    0.9651    2.5519    0.0504 H   0  0  0  0  0  0  0  0  0  0  0  0
   -2.0239    1.9743    0.0759 H   0  0  0  0  0  0  0  0  0  0  0  0
  1  3  2  0  0  0  0
  1  2  1  0  0  0  0
  2  4  2  0  0  0  0
  3  5  1  0  0  0  0
  4  6  1  0  0  0  0
  4 13  1  0  0  0  0
  5  7  1  0  0  0  0
  5  6  2  0  0  0  0
  6  8  1  0  0  0  0
  7  9  2  0  0  0  0
  8 14  1  0  0  0  0
  9  8  1  0  0  0  0
 10  1  1  0  0  0  0
 11  2  1  0  0  0  0
 12  3  1  0  0  0  0
M  END
>  <HBA>
2

>  <HBD>
1

>  <TPSA>
41.57

>  <cid>
7220

>  <dipole>
4.0

>  <excitation_energy_1>
4.808

>  <excitation_energy_2>
4.961

>  <excitation_energy_3>
5.187

>  <excitation_energy_4>
5.912

>  <homo_energy>
-6.588

>  <homo_lumo_gap>
5.391

>  <logP>
0.958

>  <lumo_energy>
-1.197

>  <melting_point>
125.94

>  <molecular_refractivity>
33.89

>  <oscillator_strength_1>
0.066

>  <oscillator_strength_2>
0.0041

>  <oscillator_strength_3>
0.0995

>  <oscillator_strength_4>
0.0002

>  <open_babel_can_smiles>
c1ccc2c(c1)[nH]nn2

>  <mulliken_charges>
14
1   -0.14626
2   -0.143083
3   -0.14781
4   -0.156664
5   0.241427
6   0.37966
7   -0.358394
8   -0.556932
9   -0.028766
10   0.137045
11   0.138333
12   0.153518
13   0.140031
14   0.347894

>  <lowdin_charges>
14
1   -0.166072
2   -0.145309
3   -0.138502
4   -0.176676
5   -0.014364
6   0.015794
7   -0.125562
8   -0.15063
9   -0.059909
10   0.162799
11   0.162969
12   0.17146
13   0.162276
14   0.301725

$$$$

