PCCDB-ID:  13610
public computational chemistry database (PCCDB) project, http://pccdb.org

 20 20  0  0  0  0  0  0  0  0999 V2000
    0.7450    1.2869   -0.2468 C   0  0  0  0  0  0  0  0  0  0  0  0
    1.4728    0.0168    0.2197 C   0  0  0  0  0  0  0  0  0  0  0  0
   -0.7144    1.3012    0.2334 C   0  0  0  0  0  0  0  0  0  0  0  0
    0.7300   -1.2557   -0.2182 C   0  0  0  0  0  0  0  0  0  0  0  0
   -1.4689    0.0349   -0.2032 C   0  0  0  0  0  0  0  0  0  0  0  0
   -1.4403   -2.4335   -0.2877 C   0  0  0  0  0  0  0  0  0  0  0  0
   -0.7433   -1.2527    0.2662 C   0  0  0  0  0  0  0  0  0  0  0  0
   -1.9767   -3.3416   -0.7708 N   0  0  0  0  0  0  0  0  0  0  0  0
   -0.8222   -1.4038    1.6869 O   0  0  0  0  0  0  0  0  0  0  0  0
    0.7626    1.3278   -1.3455 H   0  0  0  0  0  0  0  0  0  0  0  0
    1.2719    2.1805    0.1090 H   0  0  0  0  0  0  0  0  0  0  0  0
    1.5773    0.0309    1.3154 H   0  0  0  0  0  0  0  0  0  0  0  0
    2.4951   -0.0087   -0.1750 H   0  0  0  0  0  0  0  0  0  0  0  0
   -1.2384    2.1838   -0.1513 H   0  0  0  0  0  0  0  0  0  0  0  0
   -0.7423    1.3928    1.3300 H   0  0  0  0  0  0  0  0  0  0  0  0
    1.2214   -2.1535    0.1707 H   0  0  0  0  0  0  0  0  0  0  0  0
    0.7386   -1.3254   -1.3134 H   0  0  0  0  0  0  0  0  0  0  0  0
   -1.5472    0.0141   -1.2976 H   0  0  0  0  0  0  0  0  0  0  0  0
   -2.4877    0.0247    0.1977 H   0  0  0  0  0  0  0  0  0  0  0  0
   -0.3679   -0.6436    2.0822 H   0  0  0  0  0  0  0  0  0  0  0  0
  1 11  1  0  0  0  0
  1  2  1  0  0  0  0
  1  3  1  0  0  0  0
  2 12  1  0  0  0  0
  3 15  1  0  0  0  0
  4 16  1  0  0  0  0
  4  2  1  0  0  0  0
  4  7  1  0  0  0  0
  5 19  1  0  0  0  0
  5  3  1  0  0  0  0
  5  7  1  0  0  0  0
  6  7  1  0  0  0  0
  7  9  1  0  0  0  0
  8  6  3  0  0  0  0
  9 20  1  0  0  0  0
 10  1  1  0  0  0  0
 13  2  1  0  0  0  0
 14  3  1  0  0  0  0
 17  4  1  0  0  0  0
 18  5  1  0  0  0  0
M  END
>  <HBA>
2

>  <HBD>
1

>  <TPSA>
44.02

>  <cid>
13610

>  <dipole>
5.39

>  <excitation_energy_1>
6.47

>  <excitation_energy_2>
7.285

>  <excitation_energy_3>
7.364

>  <excitation_energy_4>
7.531

>  <homo_energy>
-7.701

>  <homo_lumo_gap>
8.136

>  <logP>
1.205

>  <lumo_energy>
0.435

>  <melting_point>
58.89

>  <molecular_refractivity>
34.6

>  <oscillator_strength_1>
0.0038

>  <oscillator_strength_2>
0.0056

>  <oscillator_strength_3>
0.0001

>  <oscillator_strength_4>
0.012

>  <open_babel_can_smiles>
N#CC1(O)CCCCC1

>  <mulliken_charges>
20
1   -0.258442
2   -0.285008
3   -0.284424
4   -0.273301
5   -0.273522
6   0.353431
7   0.250279
8   -0.477502
9   -0.634373
10   0.140284
11   0.142806
12   0.127352
13   0.152906
14   0.152766
15   0.127387
16   0.16588
17   0.152022
18   0.152029
19   0.165961
20   0.403468

>  <lowdin_charges>
20
1   -0.277762
2   -0.27971
3   -0.281432
4   -0.283211
5   -0.281882
6   -0.007917
7   0.119383
8   -0.117152
9   -0.443291
10   0.142009
11   0.150449
12   0.133753
13   0.155651
14   0.157209
15   0.133808
16   0.163848
17   0.154255
18   0.154222
19   0.162443
20   0.345326

$$$$

