PCCDB-ID:  28005
public computational chemistry database (PCCDB) project, http://pccdb.org

 28 28  0  0  0  0  0  0  0  0999 V2000
    4.8999   -2.3114   -1.4854 C   0  0  0  0  0  0  0  0  0  0  0  0
    7.0386    1.9885    2.1572 C   0  0  0  0  0  0  0  0  0  0  0  0
    5.6560   -1.3132   -1.1095 C   0  0  0  0  0  0  0  0  0  0  0  0
    6.4133   -0.3134   -0.7334 C   0  0  0  0  0  0  0  0  0  0  0  0
   11.2594   -0.5171    4.1135 C   0  0  0  0  0  0  0  0  0  0  0  0
   10.0980   -0.8139    4.8266 C   0  0  0  0  0  0  0  0  0  0  0  0
   11.1692   -0.1672    2.7631 C   0  0  0  0  0  0  0  0  0  0  0  0
    8.8544   -0.7598    4.1923 C   0  0  0  0  0  0  0  0  0  0  0  0
    9.9274   -0.1199    2.1321 C   0  0  0  0  0  0  0  0  0  0  0  0
    6.0838    0.6479    0.3884 C   0  0  0  0  0  0  0  0  0  0  0  0
    7.4109   -0.4040    2.1343 C   0  0  0  0  0  0  0  0  0  0  0  0
    8.7540   -0.4177    2.8394 C   0  0  0  0  0  0  0  0  0  0  0  0
    7.1993    0.8000    1.3260 N   0  0  0  0  0  0  0  0  0  0  0  0
    4.1180   -2.1858   -2.2324 H   0  0  0  0  0  0  0  0  0  0  0  0
    5.0215   -3.3091   -1.0671 H   0  0  0  0  0  0  0  0  0  0  0  0
    6.9619    2.8765    1.5206 H   0  0  0  0  0  0  0  0  0  0  0  0
    7.9131    2.1053    2.8031 H   0  0  0  0  0  0  0  0  0  0  0  0
    6.1393    1.9476    2.8030 H   0  0  0  0  0  0  0  0  0  0  0  0
    7.3498   -0.1211   -1.2588 H   0  0  0  0  0  0  0  0  0  0  0  0
   12.2280   -0.5534    4.6051 H   0  0  0  0  0  0  0  0  0  0  0  0
   10.1573   -1.0813    5.8786 H   0  0  0  0  0  0  0  0  0  0  0  0
   12.0698    0.0687    2.2016 H   0  0  0  0  0  0  0  0  0  0  0  0
    7.9502   -0.9831    4.7549 H   0  0  0  0  0  0  0  0  0  0  0  0
    9.8490    0.1660    1.0872 H   0  0  0  0  0  0  0  0  0  0  0  0
    5.1471    0.3357    0.8872 H   0  0  0  0  0  0  0  0  0  0  0  0
    5.8956    1.6385   -0.0472 H   0  0  0  0  0  0  0  0  0  0  0  0
    6.6016   -0.5422    2.8792 H   0  0  0  0  0  0  0  0  0  0  0  0
    7.3540   -1.2621    1.4532 H   0  0  0  0  0  0  0  0  0  0  0  0
  1  3  2  0  0  0  0
  1 15  1  0  0  0  0
  2 18  1  0  0  0  0
  2 17  1  0  0  0  0
  3  4  2  0  0  0  0
  4 10  1  0  0  0  0
  5 20  1  0  0  0  0
  5  6  2  0  0  0  0
  6 21  1  0  0  0  0
  7  5  1  0  0  0  0
  8 23  1  0  0  0  0
  8  6  1  0  0  0  0
  9  7  2  0  0  0  0
  9 12  1  0  0  0  0
 10 25  1  0  0  0  0
 10 13  1  0  0  0  0
 11 12  1  0  0  0  0
 11 27  1  0  0  0  0
 12  8  2  0  0  0  0
 13 11  1  0  0  0  0
 13  2  1  0  0  0  0
 14  1  1  0  0  0  0
 16  2  1  0  0  0  0
 19  4  1  0  0  0  0
 22  7  1  0  0  0  0
 24  9  1  0  0  0  0
 26 10  1  0  0  0  0
 28 11  1  0  0  0  0
M  END
>  <HBA>
1

>  <HBD>
0

>  <TPSA>
3.24

>  <cid>
28005

>  <dipole>
0.64

>  <excitation_energy_1>
4.931

>  <excitation_energy_2>
5.093

>  <excitation_energy_3>
5.254

>  <excitation_energy_4>
5.318

>  <homo_energy>
-5.872

>  <homo_lumo_gap>
5.916

>  <logP>
2.459

>  <lumo_energy>
0.044

>  <melting_point>
-13.47

>  <molecular_refractivity>
56.57

>  <oscillator_strength_1>
0.0015

>  <oscillator_strength_2>
0.0055

>  <oscillator_strength_3>
0.0006

>  <oscillator_strength_4>
0.0027

>  <open_babel_can_smiles>
CN(Cc1ccccc1)CC=C=C

>  <mulliken_charges>
28
1   -0.530925
2   -0.304641
3   0.346313
4   -0.309775
5   -0.130028
6   -0.128457
7   -0.131222
8   -0.18721
9   -0.161406
10   -0.144471
11   -0.201609
12   0.14507
13   -0.379875
14   0.166011
15   0.166652
16   0.147759
17   0.166926
18   0.117573
19   0.160741
20   0.126228
21   0.126564
22   0.127081
23   0.121957
24   0.135612
25   0.126229
26   0.150013
27   0.114731
28   0.16416

>  <lowdin_charges>
28
1   -0.363458
2   -0.361372
3   -0.003983
4   -0.196795
5   -0.161174
6   -0.155115
7   -0.157096
8   -0.170336
9   -0.156296
10   -0.184527
11   -0.202049
12   -0.011953
13   -0.183886
14   0.177208
15   0.176628
16   0.149611
17   0.160547
18   0.121287
19   0.174497
20   0.155897
21   0.154531
22   0.156655
23   0.154152
24   0.160454
25   0.128895
26   0.152982
27   0.122836
28   0.161862

$$$$

