PCCDB-ID:  69056
public computational chemistry database (PCCDB) project, http://pccdb.org

 30 32  0  0  0  0  0  0  0  0999 V2000
    0.9057    0.0278    0.0825 C   0  0  0  0  0  0  0  0  0  0  0  0
    2.3882   -2.6204    0.0831 C   0  0  0  0  0  0  0  0  0  0  0  0
    3.1664    3.6232    0.0797 C   0  0  0  0  0  0  0  0  0  0  0  0
    6.6362   -2.5709    0.0804 C   0  0  0  0  0  0  0  0  0  0  0  0
    4.5699    3.6242    0.0789 C   0  0  0  0  0  0  0  0  0  0  0  0
    7.3701   -1.3747    0.0803 C   0  0  0  0  0  0  0  0  0  0  0  0
    2.4812    2.4228    0.0798 C   0  0  0  0  0  0  0  0  0  0  0  0
    5.2546   -2.5283    0.0812 C   0  0  0  0  0  0  0  0  0  0  0  0
    5.2556    2.4242    0.0785 C   0  0  0  0  0  0  0  0  0  0  0  0
    6.7050   -0.1630    0.0807 C   0  0  0  0  0  0  0  0  0  0  0  0
    2.4166   -0.0773    0.0814 C   0  0  0  0  0  0  0  0  0  0  0  0
    3.0891   -1.2777    0.0820 C   0  0  0  0  0  0  0  0  0  0  0  0
    3.1568    1.1762    0.0802 C   0  0  0  0  0  0  0  0  0  0  0  0
    4.5446   -1.3011    0.0813 C   0  0  0  0  0  0  0  0  0  0  0  0
    4.5816    1.1810    0.0798 C   0  0  0  0  0  0  0  0  0  0  0  0
    5.2928   -0.0886    0.0807 C   0  0  0  0  0  0  0  0  0  0  0  0
    0.4053   -0.9388    0.0837 H   0  0  0  0  0  0  0  0  0  0  0  0
    0.5484    0.5751   -0.7988 H   0  0  0  0  0  0  0  0  0  0  0  0
    0.5498    0.5769    0.9632 H   0  0  0  0  0  0  0  0  0  0  0  0
    1.3028   -2.5399    0.0871 H   0  0  0  0  0  0  0  0  0  0  0  0
    2.6711   -3.2124    0.9624 H   0  0  0  0  0  0  0  0  0  0  0  0
    2.6649   -3.2106   -0.7996 H   0  0  0  0  0  0  0  0  0  0  0  0
    2.6175    4.5611    0.0808 H   0  0  0  0  0  0  0  0  0  0  0  0
    7.1494   -3.5289    0.0805 H   0  0  0  0  0  0  0  0  0  0  0  0
    5.1183    4.5623    0.0778 H   0  0  0  0  0  0  0  0  0  0  0  0
    8.4565   -1.3970    0.0796 H   0  0  0  0  0  0  0  0  0  0  0  0
    1.3982    2.4446    0.0787 H   0  0  0  0  0  0  0  0  0  0  0  0
    4.7069   -3.4630    0.0817 H   0  0  0  0  0  0  0  0  0  0  0  0
    6.3393    2.4500    0.0765 H   0  0  0  0  0  0  0  0  0  0  0  0
    7.2932    0.7475    0.0816 H   0  0  0  0  0  0  0  0  0  0  0  0
  1 17  1  0  0  0  0
  1 19  1  0  0  0  0
  2 20  1  0  0  0  0
  2 21  1  0  0  0  0
  3  7  2  0  0  0  0
  3 23  1  0  0  0  0
  4 24  1  0  0  0  0
  4  8  1  0  0  0  0
  5  3  1  0  0  0  0
  6  4  2  0  0  0  0
  6 10  1  0  0  0  0
  7 13  1  0  0  0  0
  8 14  2  0  0  0  0
  8 28  1  0  0  0  0
  9  5  2  0  0  0  0
  9 15  1  0  0  0  0
 10 16  2  0  0  0  0
 10 30  1  0  0  0  0
 11 12  2  0  0  0  0
 11  1  1  0  0  0  0
 12  2  1  0  0  0  0
 13 11  1  0  0  0  0
 14 12  1  0  0  0  0
 15 13  2  0  0  0  0
 15 16  1  0  0  0  0
 16 14  1  0  0  0  0
 18  1  1  0  0  0  0
 22  2  1  0  0  0  0
 25  5  1  0  0  0  0
 26  6  1  0  0  0  0
 27  7  1  0  0  0  0
 29  9  1  0  0  0  0
M  END
>  <HBA>
0

>  <HBD>
0

>  <TPSA>
0.0

>  <cid>
69056

>  <dipole>
0.51

>  <excitation_energy_1>
3.904

>  <excitation_energy_2>
4.152

>  <excitation_energy_3>
4.618

>  <excitation_energy_4>
4.843

>  <homo_energy>
-5.589

>  <homo_lumo_gap>
4.702

>  <logP>
4.61

>  <lumo_energy>
-0.887

>  <melting_point>
102.67

>  <molecular_refractivity>
71.39

>  <oscillator_strength_1>
0.0048

>  <oscillator_strength_2>
0.0751

>  <oscillator_strength_3>
0.1283

>  <oscillator_strength_4>
0.7006

>  <open_babel_can_smiles>
Cc1c(C)c2ccccc2c2c1cccc2

>  <mulliken_charges>
30
1   -0.548028
2   -0.548105
3   -0.123681
4   -0.123692
5   -0.138656
6   -0.13867
7   -0.218397
8   -0.218326
9   -0.189565
10   -0.189759
11   0.063515
12   0.063584
13   0.093982
14   0.093908
15   0.060368
16   0.060592
17   0.158753
18   0.164021
19   0.164036
20   0.158728
21   0.163962
22   0.163999
23   0.126649
24   0.126644
25   0.127366
26   0.127409
27   0.127465
28   0.127435
29   0.132213
30   0.132248

>  <lowdin_charges>
30
1   -0.44935
2   -0.447204
3   -0.157702
4   -0.157661
5   -0.159503
6   -0.156349
7   -0.163731
8   -0.166757
9   -0.154963
10   -0.158346
11   -0.012742
12   -0.01321
13   -0.007563
14   -0.006985
15   -0.002974
16   -0.002593
17   0.158276
18   0.160883
19   0.160902
20   0.156502
21   0.160774
22   0.160781
23   0.157348
24   0.15717
25   0.157491
26   0.155179
27   0.158317
28   0.160719
29   0.155363
30   0.15793

$$$$

