PCCDB-ID:  8083
public computational chemistry database (PCCDB) project, http://pccdb.org

 15 15  0  0  0  0  0  0  0  0999 V2000
    0.6786    1.2461   -0.2626 C   0  0  0  0  0  0  0  0  0  0  0  0
   -1.4078    0.0391   -0.2617 C   0  0  0  0  0  0  0  0  0  0  0  0
    1.3702   -0.0103    0.2634 C   0  0  0  0  0  0  0  0  0  0  0  0
   -0.6624   -1.1866    0.2637 C   0  0  0  0  0  0  0  0  0  0  0  0
   -0.7101    1.2401    0.2051 N   0  0  0  0  0  0  0  0  0  0  0  0
    0.6938   -1.1857   -0.1688 O   0  0  0  0  0  0  0  0  0  0  0  0
    0.7618    1.2558   -1.3662 H   0  0  0  0  0  0  0  0  0  0  0  0
    1.1852    2.1389    0.1237 H   0  0  0  0  0  0  0  0  0  0  0  0
   -2.4337    0.0446    0.1260 H   0  0  0  0  0  0  0  0  0  0  0  0
   -1.4593   -0.0283   -1.3652 H   0  0  0  0  0  0  0  0  0  0  0  0
    1.4025    0.0250    1.3647 H   0  0  0  0  0  0  0  0  0  0  0  0
    2.3929   -0.0853   -0.1187 H   0  0  0  0  0  0  0  0  0  0  0  0
   -1.1071   -2.1107   -0.1181 H   0  0  0  0  0  0  0  0  0  0  0  0
   -0.7084   -1.1968    1.3650 H   0  0  0  0  0  0  0  0  0  0  0  0
   -1.1922    2.0732   -0.1247 H   0  0  0  0  0  0  0  0  0  0  0  0
  1  8  1  0  0  0  0
  1  5  1  0  0  0  0
  1  3  1  0  0  0  0
  2  9  1  0  0  0  0
  2  5  1  0  0  0  0
  2  4  1  0  0  0  0
  3 11  1  0  0  0  0
  4 14  1  0  0  0  0
  6  3  1  0  0  0  0
  6  4  1  0  0  0  0
  7  1  1  0  0  0  0
 10  2  1  0  0  0  0
 12  3  1  0  0  0  0
 13  4  1  0  0  0  0
 15  5  1  0  0  0  0
M  END
>  <HBA>
2

>  <HBD>
1

>  <TPSA>
21.26

>  <cid>
8083

>  <dipole>
1.54

>  <excitation_energy_1>
5.42

>  <excitation_energy_2>
6.197

>  <excitation_energy_3>
6.246

>  <excitation_energy_4>
6.363

>  <homo_energy>
-6.055

>  <homo_lumo_gap>
8.289

>  <logP>
-0.065

>  <lumo_energy>
2.234

>  <melting_point>
15.57

>  <molecular_refractivity>
27.03

>  <oscillator_strength_1>
0.0022

>  <oscillator_strength_2>
0.036

>  <oscillator_strength_3>
0.0145

>  <oscillator_strength_4>
0.0538

>  <open_babel_can_smiles>
C1CNCCO1

>  <mulliken_charges>
15
1   -0.143162
2   -0.143312
3   -0.023168
4   -0.023126
5   -0.554401
6   -0.470575
7   0.120838
8   0.137511
9   0.137567
10   0.120864
11   0.129054
12   0.141763
13   0.141763
14   0.129069
15   0.299315

>  <lowdin_charges>
15
1   -0.217832
2   -0.21631
3   -0.132961
4   -0.133949
5   -0.371526
6   -0.277632
7   0.119782
8   0.149154
9   0.147526
10   0.119778
11   0.129428
12   0.148399
13   0.149991
14   0.129443
15   0.256709

$$$$

