PCCDB-ID:  16266
public computational chemistry database (PCCDB) project, http://pccdb.org

 22 22  0  0  0  0  0  0  0  0999 V2000
    1.7678    0.3342    1.2704 C   0  0  0  0  0  0  0  0  0  0  0  0
    4.7197    0.1194   -1.4860 C   0  0  0  0  0  0  0  0  0  0  0  0
    1.1488   -2.7064    0.8771 C   0  0  0  0  0  0  0  0  0  0  0  0
    2.3038    0.0010    0.0898 C   0  0  0  0  0  0  0  0  0  0  0  0
    4.2558   -3.6339   -1.0980 C   0  0  0  0  0  0  0  0  0  0  0  0
    4.7688   -2.3901   -1.4603 C   0  0  0  0  0  0  0  0  0  0  0  0
    3.0896   -3.6994   -0.3433 C   0  0  0  0  0  0  0  0  0  0  0  0
    4.1278   -1.2114   -1.0745 C   0  0  0  0  0  0  0  0  0  0  0  0
    2.4220   -2.5406    0.0755 C   0  0  0  0  0  0  0  0  0  0  0  0
    2.9498   -1.2769   -0.2858 C   0  0  0  0  0  0  0  0  0  0  0  0
    1.3291    1.3164    1.4249 H   0  0  0  0  0  0  0  0  0  0  0  0
    1.7602   -0.3376    2.1229 H   0  0  0  0  0  0  0  0  0  0  0  0
    5.6717   -0.0253   -2.0056 H   0  0  0  0  0  0  0  0  0  0  0  0
    4.9021    0.7697   -0.6225 H   0  0  0  0  0  0  0  0  0  0  0  0
    4.0569    0.6721   -2.1654 H   0  0  0  0  0  0  0  0  0  0  0  0
    0.7028   -3.6872    0.6817 H   0  0  0  0  0  0  0  0  0  0  0  0
    0.4098   -1.9358    0.6391 H   0  0  0  0  0  0  0  0  0  0  0  0
    1.3337   -2.6488    1.9576 H   0  0  0  0  0  0  0  0  0  0  0  0
    2.3038    0.7642   -0.6886 H   0  0  0  0  0  0  0  0  0  0  0  0
    4.7591   -4.5459   -1.4083 H   0  0  0  0  0  0  0  0  0  0  0  0
    5.6780   -2.3298   -2.0539 H   0  0  0  0  0  0  0  0  0  0  0  0
    2.6764   -4.6685   -0.0730 H   0  0  0  0  0  0  0  0  0  0  0  0
  1 11  1  0  0  0  0
  1 12  1  0  0  0  0
  2  8  1  0  0  0  0
  2 14  1  0  0  0  0
  3 18  1  0  0  0  0
  4  1  2  0  0  0  0
  5  7  1  0  0  0  0
  6  5  2  0  0  0  0
  6  8  1  0  0  0  0
  7 22  1  0  0  0  0
  7  9  2  0  0  0  0
  8 10  2  0  0  0  0
  9  3  1  0  0  0  0
 10  9  1  0  0  0  0
 10  4  1  0  0  0  0
 13  2  1  0  0  0  0
 15  2  1  0  0  0  0
 16  3  1  0  0  0  0
 17  3  1  0  0  0  0
 19  4  1  0  0  0  0
 20  5  1  0  0  0  0
 21  6  1  0  0  0  0
M  END
>  <HBA>
0

>  <HBD>
0

>  <TPSA>
0.0

>  <cid>
16266

>  <dipole>
0.26

>  <excitation_energy_1>
4.759

>  <excitation_energy_2>
4.993

>  <excitation_energy_3>
5.673

>  <excitation_energy_4>
5.696

>  <homo_energy>
-6.016

>  <homo_lumo_gap>
5.472

>  <logP>
2.946

>  <lumo_energy>
-0.544

>  <melting_point>
6.13

>  <molecular_refractivity>
46.47

>  <oscillator_strength_1>
0.0083

>  <oscillator_strength_2>
0.2673

>  <oscillator_strength_3>
0.0719

>  <oscillator_strength_4>
0.092

>  <open_babel_can_smiles>
C=Cc1c(C)cccc1C

>  <mulliken_charges>
22
1   -0.332563
2   -0.536164
3   -0.533069
4   -0.142035
5   -0.118051
6   -0.192784
7   -0.187778
8   0.134321
9   0.131913
10   0.036001
11   0.140664
12   0.145753
13   0.154015
14   0.166687
15   0.159586
16   0.150825
17   0.166555
18   0.159401
19   0.132484
20   0.125658
21   0.119596
22   0.118988

>  <lowdin_charges>
22
1   -0.331109
2   -0.445576
3   -0.443618
4   -0.147916
5   -0.155924
6   -0.172782
7   -0.172268
8   0.000241
9   0.004366
10   -0.027038
11   0.159285
12   0.15991
13   0.156368
14   0.162758
15   0.158612
16   0.154268
17   0.165194
18   0.155208
19   0.157255
20   0.15693
21   0.152902
22   0.152936

$$$$

