PCCDB-ID:  9264
public computational chemistry database (PCCDB) project, http://pccdb.org

 12 12  0  0  0  0  0  0  0  0999 V2000
    0.8096    1.3888   -0.3115 C   0  0  0  0  0  0  0  0  0  0  0  0
    0.8087   -1.3904   -0.3102 C   0  0  0  0  0  0  0  0  0  0  0  0
   -1.5976    0.0000   -0.2932 C   0  0  0  0  0  0  0  0  0  0  0  0
    1.8115   -0.0009    0.3364 S   0  0  0  0  0  0  0  0  0  0  0  0
   -0.8875    1.5584    0.3561 S   0  0  0  0  0  0  0  0  0  0  0  0
   -0.8886   -1.5582    0.3576 S   0  0  0  0  0  0  0  0  0  0  0  0
    0.7706    1.3349   -1.4049 H   0  0  0  0  0  0  0  0  0  0  0  0
    1.3398    2.3030   -0.0355 H   0  0  0  0  0  0  0  0  0  0  0  0
    1.3382   -2.3047   -0.0333 H   0  0  0  0  0  0  0  0  0  0  0  0
    0.7696   -1.3376   -1.4037 H   0  0  0  0  0  0  0  0  0  0  0  0
   -1.5439   -0.0005   -1.3874 H   0  0  0  0  0  0  0  0  0  0  0  0
   -2.6513    0.0005   -0.0055 H   0  0  0  0  0  0  0  0  0  0  0  0
  1  8  1  0  0  0  0
  1  4  1  0  0  0  0
  1  5  1  0  0  0  0
  2  9  1  0  0  0  0
  2  4  1  0  0  0  0
  2  6  1  0  0  0  0
  3 12  1  0  0  0  0
  3  5  1  0  0  0  0
  3  6  1  0  0  0  0
  7  1  1  0  0  0  0
 10  2  1  0  0  0  0
 11  3  1  0  0  0  0
M  END
>  <HBA>
3

>  <HBD>
0

>  <TPSA>
75.9

>  <cid>
9264

>  <dipole>
2.36

>  <excitation_energy_1>
4.786

>  <excitation_energy_2>
4.957

>  <excitation_energy_3>
4.957

>  <excitation_energy_4>
5.108

>  <homo_energy>
-6.27

>  <homo_lumo_gap>
6.286

>  <logP>
2.072

>  <lumo_energy>
0.016

>  <melting_point>
24.92

>  <molecular_refractivity>
37.19

>  <oscillator_strength_1>
0.0

>  <oscillator_strength_2>
0.0127

>  <oscillator_strength_3>
0.0127

>  <oscillator_strength_4>
0.0001

>  <open_babel_can_smiles>
S1CSCSC1

>  <mulliken_charges>
12
1   -0.561497
2   -0.561531
3   -0.561628
4   0.14948
5   0.149588
6   0.149595
7   0.196645
8   0.215342
9   0.21535
10   0.19665
11   0.196652
12   0.215353

>  <lowdin_charges>
12
1   -0.488597
2   -0.488604
3   -0.486892
4   0.129173
5   0.130129
6   0.130132
7   0.16528
8   0.193504
9   0.193505
10   0.16528
11   0.16522
12   0.19187

$$$$

