PCCDB-ID:  11841
public computational chemistry database (PCCDB) project, http://pccdb.org

 22 23  0  0  0  0  0  0  0  0999 V2000
    1.8697    1.3877   -0.8062 C   0  0  0  0  0  0  0  0  0  0  0  0
    7.0809    2.2041    3.1721 C   0  0  0  0  0  0  0  0  0  0  0  0
    8.4070    1.9198    2.7809 C   0  0  0  0  0  0  0  0  0  0  0  0
    6.0195    2.0163    2.2976 C   0  0  0  0  0  0  0  0  0  0  0  0
    8.6986    1.4432    1.5088 C   0  0  0  0  0  0  0  0  0  0  0  0
    6.2989    0.7786   -1.1457 C   0  0  0  0  0  0  0  0  0  0  0  0
    3.3126    1.1051   -1.1482 C   0  0  0  0  0  0  0  0  0  0  0  0
    6.2879    1.5346    1.0056 C   0  0  0  0  0  0  0  0  0  0  0  0
    7.6283    1.2531    0.6270 C   0  0  0  0  0  0  0  0  0  0  0  0
    5.4798    1.2236   -0.1367 C   0  0  0  0  0  0  0  0  0  0  0  0
    7.6024    0.7999   -0.6744 N   0  0  0  0  0  0  0  0  0  0  0  0
    3.7189    0.6839   -2.2070 O   0  0  0  0  0  0  0  0  0  0  0  0
    4.1076    1.3950   -0.0837 O   0  0  0  0  0  0  0  0  0  0  0  0
    1.2415    1.1362   -1.6612 H   0  0  0  0  0  0  0  0  0  0  0  0
    1.7419    2.4447   -0.5501 H   0  0  0  0  0  0  0  0  0  0  0  0
    1.5646    0.8006    0.0661 H   0  0  0  0  0  0  0  0  0  0  0  0
    6.8915    2.5745    4.1757 H   0  0  0  0  0  0  0  0  0  0  0  0
    9.2163    2.0765    3.4887 H   0  0  0  0  0  0  0  0  0  0  0  0
    4.9995    2.2358    2.5991 H   0  0  0  0  0  0  0  0  0  0  0  0
    9.7207    1.2267    1.2091 H   0  0  0  0  0  0  0  0  0  0  0  0
    6.0614    0.4555   -2.1437 H   0  0  0  0  0  0  0  0  0  0  0  0
    8.4073    0.5213   -1.2128 H   0  0  0  0  0  0  0  0  0  0  0  0
  1 15  1  0  0  0  0
  1 16  1  0  0  0  0
  2 17  1  0  0  0  0
  3  2  1  0  0  0  0
  3 18  1  0  0  0  0
  4 19  1  0  0  0  0
  4  2  2  0  0  0  0
  5  3  2  0  0  0  0
  6 11  1  0  0  0  0
  6 10  2  0  0  0  0
  7  1  1  0  0  0  0
  7 13  1  0  0  0  0
  8  4  1  0  0  0  0
  9  8  2  0  0  0  0
  9  5  1  0  0  0  0
 10 13  1  0  0  0  0
 10  8  1  0  0  0  0
 11  9  1  0  0  0  0
 12  7  2  0  0  0  0
 14  1  1  0  0  0  0
 20  5  1  0  0  0  0
 21  6  1  0  0  0  0
 22 11  1  0  0  0  0
M  END
>  <HBA>
2

>  <HBD>
1

>  <TPSA>
42.09

>  <cid>
11841

>  <dipole>
0.63

>  <excitation_energy_1>
4.482

>  <excitation_energy_2>
4.763

>  <excitation_energy_3>
4.793

>  <excitation_energy_4>
4.85

>  <homo_energy>
-5.35

>  <homo_lumo_gap>
5.061

>  <logP>
2.093

>  <lumo_energy>
-0.288

>  <melting_point>
121.76

>  <molecular_refractivity>
49.8

>  <oscillator_strength_1>
0.0726

>  <oscillator_strength_2>
0.0572

>  <oscillator_strength_3>
0.0006

>  <oscillator_strength_4>
0.0797

>  <open_babel_can_smiles>
CC(=O)Oc1c[nH]c2c1cccc2

>  <mulliken_charges>
22
1   -0.532502
2   -0.143621
3   -0.149635
4   -0.194713
5   -0.163251
6   0.043187
7   0.603916
8   0.081051
9   0.329156
10   0.218214
11   -0.708442
12   -0.459794
13   -0.502029
14   0.184216
15   0.185595
16   0.185248
17   0.122265
18   0.124139
19   0.13224
20   0.122894
21   0.191369
22   0.330499

>  <lowdin_charges>
22
1   -0.463141
2   -0.173643
3   -0.164068
4   -0.155764
5   -0.185411
6   -0.149566
7   0.208057
8   -0.042149
9   0.035898
10   0.039756
11   -0.201177
12   -0.252515
13   -0.141894
14   0.17748
15   0.178435
16   0.179964
17   0.15465
18   0.157348
19   0.160348
20   0.155509
21   0.187664
22   0.29422

$$$$

