PCCDB-ID:  42612
public computational chemistry database (PCCDB) project, http://pccdb.org

 29 30  0  0  0  0  0  0  0  0999 V2000
    1.0600   -0.3898   -1.3766 C   0  0  0  0  0  0  0  0  0  0  0  0
    2.4435    0.3247    0.6360 C   0  0  0  0  0  0  0  0  0  0  0  0
    9.5722   -2.6279   -1.9286 C   0  0  0  0  0  0  0  0  0  0  0  0
    8.8067   -3.7968   -2.0024 C   0  0  0  0  0  0  0  0  0  0  0  0
    8.9576   -1.3959   -1.7026 C   0  0  0  0  0  0  0  0  0  0  0  0
    7.4239   -3.7331   -1.8495 C   0  0  0  0  0  0  0  0  0  0  0  0
    5.4804    0.0436   -1.1492 C   0  0  0  0  0  0  0  0  0  0  0  0
    2.4570   -0.0376   -0.8584 C   0  0  0  0  0  0  0  0  0  0  0  0
    7.5729   -1.3221   -1.5487 C   0  0  0  0  0  0  0  0  0  0  0  0
    6.8037   -2.4980   -1.6231 C   0  0  0  0  0  0  0  0  0  0  0  0
    4.7045   -1.0831   -1.2304 C   0  0  0  0  0  0  0  0  0  0  0  0
    6.9225    0.0119   -1.3039 C   0  0  0  0  0  0  0  0  0  0  0  0
    5.3356   -2.4370   -1.4620 C   0  0  0  0  0  0  0  0  0  0  0  0
    3.3590   -1.1509   -1.1354 N   0  0  0  0  0  0  0  0  0  0  0  0
    7.6116    1.0322   -1.2396 O   0  0  0  0  0  0  0  0  0  0  0  0
    4.6173   -3.4318   -1.5079 O   0  0  0  0  0  0  0  0  0  0  0  0
    0.3685    0.4401   -1.2006 H   0  0  0  0  0  0  0  0  0  0  0  0
    0.6613   -1.2699   -0.8559 H   0  0  0  0  0  0  0  0  0  0  0  0
    1.0790   -0.6026   -2.4503 H   0  0  0  0  0  0  0  0  0  0  0  0
    1.8083    1.2003    0.8121 H   0  0  0  0  0  0  0  0  0  0  0  0
    3.4511    0.5560    0.9950 H   0  0  0  0  0  0  0  0  0  0  0  0
    2.0517   -0.5092    1.2297 H   0  0  0  0  0  0  0  0  0  0  0  0
   10.6511   -2.6791   -2.0486 H   0  0  0  0  0  0  0  0  0  0  0  0
    9.2893   -4.7540   -2.1787 H   0  0  0  0  0  0  0  0  0  0  0  0
    9.5294   -0.4759   -1.6403 H   0  0  0  0  0  0  0  0  0  0  0  0
    6.8072   -4.6245   -1.9023 H   0  0  0  0  0  0  0  0  0  0  0  0
    5.0491    1.0225   -0.9691 H   0  0  0  0  0  0  0  0  0  0  0  0
    2.8297    0.8253   -1.4264 H   0  0  0  0  0  0  0  0  0  0  0  0
    2.9877   -2.0948   -1.1801 H   0  0  0  0  0  0  0  0  0  0  0  0
  1 17  1  0  0  0  0
  1  8  1  0  0  0  0
  1 18  1  0  0  0  0
  2 20  1  0  0  0  0
  2 21  1  0  0  0  0
  2 22  1  0  0  0  0
  3  5  1  0  0  0  0
  4  3  2  0  0  0  0
  4  6  1  0  0  0  0
  5 25  1  0  0  0  0
  5  9  2  0  0  0  0
  6 10  2  0  0  0  0
  7 27  1  0  0  0  0
  8  2  1  0  0  0  0
  9 12  1  0  0  0  0
 10  9  1  0  0  0  0
 10 13  1  0  0  0  0
 11  7  2  0  0  0  0
 11 14  1  0  0  0  0
 12 15  2  0  0  0  0
 12  7  1  0  0  0  0
 13 11  1  0  0  0  0
 14  8  1  0  0  0  0
 16 13  2  0  0  0  0
 19  1  1  0  0  0  0
 23  3  1  0  0  0  0
 24  4  1  0  0  0  0
 26  6  1  0  0  0  0
 28  8  1  0  0  0  0
 29 14  1  0  0  0  0
M  END
>  <HBA>
3

>  <HBD>
1

>  <TPSA>
46.17

>  <cid>
42612

>  <dipole>
2.66

>  <excitation_energy_1>
2.664

>  <excitation_energy_2>
2.77

>  <excitation_energy_3>
3.418

>  <excitation_energy_4>
3.762

>  <homo_energy>
-5.943

>  <homo_lumo_gap>
3.279

>  <logP>
2.338

>  <lumo_energy>
-2.664

>  <melting_point>
135.09

>  <molecular_refractivity>
61.47

>  <oscillator_strength_1>
0.0319

>  <oscillator_strength_2>
0.0003

>  <oscillator_strength_3>
0.0

>  <oscillator_strength_4>
0.053

>  <open_babel_can_smiles>
CC(NC1=CC(=O)c2c(C1=O)cccc2)C

>  <mulliken_charges>
29
1   -0.465519
2   -0.440689
3   -0.120214
4   -0.130336
5   -0.180676
6   -0.16986
7   -0.302281
8   0.056355
9   0.044364
10   0.050098
11   0.370969
12   0.407921
13   0.347423
14   -0.660723
15   -0.509414
16   -0.494958
17   0.15965
18   0.15032
19   0.163599
20   0.14961
21   0.166416
22   0.149
23   0.143702
24   0.142183
25   0.168918
26   0.163346
27   0.140342
28   0.153696
29   0.346758

>  <lowdin_charges>
29
1   -0.447532
2   -0.453263
3   -0.132234
4   -0.148054
5   -0.133833
6   -0.127818
7   -0.268299
8   -0.048909
9   -0.024529
10   -0.046016
11   0.042389
12   0.14241
13   0.158759
14   -0.236981
15   -0.269106
16   -0.246853
17   0.161897
18   0.15252
19   0.15819
20   0.155657
21   0.160916
22   0.153866
23   0.162523
24   0.164012
25   0.180682
26   0.17703
27   0.16976
28   0.150453
29   0.292365

$$$$

