PCCDB-ID:  12252
public computational chemistry database (PCCDB) project, http://pccdb.org

 11 10  0  0  0  0  0  0  0  0999 V2000
    1.1459   -0.0786   -0.0203 C   0  0  0  0  0  0  0  0  0  0  0  0
    0.5855   -1.4450    0.4150 C   0  0  0  0  0  0  0  0  0  0  0  0
    2.6453   -0.1169    0.0339 N   0  0  0  0  0  0  0  0  0  0  0  0
   -0.8274   -1.4395    0.3583 O   0  0  0  0  0  0  0  0  0  0  0  0
    3.2352   -0.4714   -0.9831 O   0  0  0  0  0  0  0  0  0  0  0  0
    3.1706    0.1504    1.1125 O   0  0  0  0  0  0  0  0  0  0  0  0
    0.8300    0.7144    0.6598 H   0  0  0  0  0  0  0  0  0  0  0  0
    0.8622    0.1462   -1.0479 H   0  0  0  0  0  0  0  0  0  0  0  0
    0.9664   -1.6957    1.4146 H   0  0  0  0  0  0  0  0  0  0  0  0
    0.9259   -2.2133   -0.2844 H   0  0  0  0  0  0  0  0  0  0  0  0
   -1.1614   -0.9594    1.1318 H   0  0  0  0  0  0  0  0  0  0  0  0
  1  3  1  0  0  0  0
  1  2  1  0  0  0  0
  1  7  1  0  0  0  0
  2  9  1  0  0  0  0
  3  6  2  0  0  0  0
  4  2  1  0  0  0  0
  4 11  1  0  0  0  0
  5  3  2  0  0  0  0
  8  1  1  0  0  0  0
 10  2  1  0  0  0  0
M  END
>  <HBA>
1

>  <HBD>
1

>  <TPSA>
66.05

>  <cid>
12252

>  <dipole>
3.22

>  <excitation_energy_1>
4.06

>  <excitation_energy_2>
4.371

>  <excitation_energy_3>
5.472

>  <excitation_energy_4>
6.581

>  <homo_energy>
-8.003

>  <homo_lumo_gap>
6.027

>  <logP>
-0.221

>  <lumo_energy>
-1.976

>  <melting_point>
25.47

>  <molecular_refractivity>
20.99

>  <oscillator_strength_1>
0.0

>  <oscillator_strength_2>
0.003

>  <oscillator_strength_3>
0.0398

>  <oscillator_strength_4>
0.042

>  <open_babel_can_smiles>
OCCN(=O)=O

>  <mulliken_charges>
11
1   -0.174413
2   -0.049499
3   0.446165
4   -0.596236
5   -0.372767
6   -0.377581
7   0.180939
8   0.200844
9   0.159473
10   0.182901
11   0.400173

>  <lowdin_charges>
11
1   -0.236446
2   -0.134494
3   0.296601
4   -0.448158
5   -0.242583
6   -0.248645
7   0.171488
8   0.180346
9   0.145605
10   0.165707
11   0.350581

$$$$

