PCCDB-ID:  22168
public computational chemistry database (PCCDB) project, http://pccdb.org

 36 36  0  0  1  0  0  0  0  0999 V2000
    6.4056   -3.6804   -3.1325 C   0  0  0  0  0  0  0  0  0  0  0  0
    4.5707   -4.0642   -1.4264 C   0  0  0  0  0  0  0  0  0  0  0  0
    2.4944    4.5408   -2.0158 C   0  0  0  0  0  0  0  0  0  0  0  0
    0.7751   -0.9438   -3.1834 C   0  0  0  0  0  0  0  0  0  0  0  0
    0.7082    2.7580   -2.2646 C   0  0  0  0  0  0  0  0  0  0  0  0
    0.3202    1.4505   -2.5520 C   0  0  0  0  0  0  0  0  0  0  0  0
    2.9971    2.1245   -2.5828 C   0  0  0  0  0  0  0  0  0  0  0  0
    4.1294   -0.9388   -1.8290 C   0  0  0  0  0  0  0  0  0  0  0  0
    5.1042   -3.1385   -2.5331 C   0  0  0  0  0  0  0  0  0  0  0  0
    2.0592    3.1180   -2.2820 C   0  0  0  0  0  0  0  0  0  0  0  0
    1.2552    0.4551   -2.8595 C   0  0  0  0  0  0  0  0  0  0  0  0
    2.6209    0.8079   -2.8667 C   0  0  0  0  0  0  0  0  0  0  0  0
    3.7050   -0.2204   -3.1351 C   0  0  1  0  0  0  0  0  0  0  0  0
    5.3268   -1.7513   -2.0818 N   0  0  0  0  0  0  0  0  0  0  0  0
    4.8523    0.3987   -3.6914 O   0  0  0  0  0  0  0  0  0  0  0  0
    6.2681   -4.6951   -3.5228 H   0  0  0  0  0  0  0  0  0  0  0  0
    7.1959   -3.7222   -2.3712 H   0  0  0  0  0  0  0  0  0  0  0  0
    6.7540   -3.0361   -3.9454 H   0  0  0  0  0  0  0  0  0  0  0  0
    4.3667   -5.0683   -1.8161 H   0  0  0  0  0  0  0  0  0  0  0  0
    3.6419   -3.6824   -0.9889 H   0  0  0  0  0  0  0  0  0  0  0  0
    5.3090   -4.1632   -0.6196 H   0  0  0  0  0  0  0  0  0  0  0  0
    1.8047    5.0511   -1.3342 H   0  0  0  0  0  0  0  0  0  0  0  0
    2.5281    5.1285   -2.9431 H   0  0  0  0  0  0  0  0  0  0  0  0
    3.4962    4.5776   -1.5745 H   0  0  0  0  0  0  0  0  0  0  0  0
   -0.3166   -0.9981   -3.1276 H   0  0  0  0  0  0  0  0  0  0  0  0
    1.1746   -1.6976   -2.4935 H   0  0  0  0  0  0  0  0  0  0  0  0
    1.0688   -1.2514   -4.1954 H   0  0  0  0  0  0  0  0  0  0  0  0
   -0.0481    3.5043   -2.0303 H   0  0  0  0  0  0  0  0  0  0  0  0
   -0.7370    1.1934   -2.5398 H   0  0  0  0  0  0  0  0  0  0  0  0
    4.0542    2.3694   -2.6199 H   0  0  0  0  0  0  0  0  0  0  0  0
    3.2871   -1.5103   -1.4107 H   0  0  0  0  0  0  0  0  0  0  0  0
    4.3944   -0.1658   -1.1000 H   0  0  0  0  0  0  0  0  0  0  0  0
    4.3547   -3.0859   -3.3336 H   0  0  0  0  0  0  0  0  0  0  0  0
    3.3173   -0.9768   -3.8385 H   0  0  0  0  0  0  0  0  0  0  0  0
    5.9250   -1.7604   -1.2583 H   0  0  0  0  0  0  0  0  0  0  0  0
    5.5737   -0.2242   -3.4623 H   0  0  0  0  0  0  0  0  0  0  0  0
  1  9  1  0  0  0  0
  1 17  1  0  0  0  0
  2 20  1  0  0  0  0
  2 21  1  0  0  0  0
  3 24  1  0  0  0  0
  3 22  1  0  0  0  0
  4 25  1  0  0  0  0
  4 11  1  0  0  0  0
  4 26  1  0  0  0  0
  5 28  1  0  0  0  0
  6 29  1  0  0  0  0
  6  5  2  0  0  0  0
  7 10  2  0  0  0  0
  8 31  1  0  0  0  0
  8 32  1  0  0  0  0
  9 14  1  0  0  0  0
  9  2  1  0  0  0  0
 10  5  1  0  0  0  0
 10  3  1  0  0  0  0
 11  6  1  0  0  0  0
 12 11  2  0  0  0  0
 12  7  1  0  0  0  0
 13 34  1  6  0  0  0
 13 12  1  0  0  0  0
 13  8  1  0  0  0  0
 14  8  1  0  0  0  0
 14 35  1  0  0  0  0
 15 36  1  0  0  0  0
 15 13  1  0  0  0  0
 16  1  1  0  0  0  0
 18  1  1  0  0  0  0
 19  2  1  0  0  0  0
 23  3  1  0  0  0  0
 27  4  1  0  0  0  0
 30  7  1  0  0  0  0
 33  9  1  0  0  0  0
M  END
>  <HBA>
2

>  <HBD>
2

>  <TPSA>
32.26

>  <cid>
22168

>  <dipole>
3.03

>  <excitation_energy_1>
5.091

>  <excitation_energy_2>
5.497

>  <excitation_energy_3>
5.537

>  <excitation_energy_4>
5.698

>  <homo_energy>
-5.919

>  <homo_lumo_gap>
6.161

>  <logP>
2.726

>  <lumo_energy>
0.242

>  <melting_point>
59.97

>  <molecular_refractivity>
64.53

>  <oscillator_strength_1>
0.0037

>  <oscillator_strength_2>
0.0114

>  <oscillator_strength_3>
0.0381

>  <oscillator_strength_4>
0.018

>  <open_babel_can_smiles>
CC(NC[C@@H](c1cc(C)ccc1C)O)C

>  <mulliken_charges>
36
1   -0.436555
2   -0.449551
3   -0.527446
4   -0.54234
5   -0.174724
6   -0.189317
7   -0.233727
8   -0.162554
9   0.037842
10   0.179833
11   0.132621
12   0.082908
13   0.095087
14   -0.580605
15   -0.652346
16   0.144351
17   0.136499
18   0.15611
19   0.147678
20   0.149484
21   0.137146
22   0.150781
23   0.16417
24   0.154706
25   0.154036
26   0.152718
27   0.163806
28   0.11484
29   0.115341
30   0.14062
31   0.133755
32   0.148349
33   0.1413
34   0.11337
35   0.30063
36   0.401182

>  <lowdin_charges>
36
1   -0.447039
2   -0.460211
3   -0.442669
4   -0.445015
5   -0.172988
6   -0.166481
7   -0.165739
8   -0.228464
9   -0.060078
10   -0.002463
11   -0.014751
12   -0.021006
13   -0.008107
14   -0.35972
15   -0.471498
16   0.15105
17   0.146171
18   0.157616
19   0.1533
20   0.151172
21   0.146052
22   0.155993
23   0.160991
24   0.156185
25   0.154708
26   0.153042
27   0.157959
28   0.152598
29   0.149394
30   0.163626
31   0.135
32   0.153668
33   0.143215
34   0.128663
35   0.257927
36   0.337899

$$$$

