PCCDB-ID:  66114
public computational chemistry database (PCCDB) project, http://pccdb.org

 23 22  0  0  0  0  0  0  0  0999 V2000
    4.1871   -0.1832   -4.1962 C   0  0  0  0  0  0  0  0  0  0  0  0
    5.6076    0.0382   -3.7022 C   0  0  0  0  0  0  0  0  0  0  0  0
    4.1714    0.1928    0.7129 C   0  0  0  0  0  0  0  0  0  0  0  0
    3.6071   -1.2346    0.8856 C   0  0  0  0  0  0  0  0  0  0  0  0
    5.5541    0.2979    0.0227 C   0  0  0  0  0  0  0  0  0  0  0  0
    4.5337   -2.1434    1.6945 C   0  0  0  0  0  0  0  0  0  0  0  0
    5.5706   -0.3441   -1.3461 C   0  0  0  0  0  0  0  0  0  0  0  0
    4.4147   -2.3118    2.8858 O   0  0  0  0  0  0  0  0  0  0  0  0
    5.5365   -2.7290    1.0050 O   0  0  0  0  0  0  0  0  0  0  0  0
    5.5256   -1.5551   -1.5331 O   0  0  0  0  0  0  0  0  0  0  0  0
    5.6156    0.5493   -2.3391 O   0  0  0  0  0  0  0  0  0  0  0  0
    4.2079   -0.4922   -5.2473 H   0  0  0  0  0  0  0  0  0  0  0  0
    3.5995    0.7373   -4.1208 H   0  0  0  0  0  0  0  0  0  0  0  0
    3.6929   -0.9702   -3.6196 H   0  0  0  0  0  0  0  0  0  0  0  0
    6.1178    0.8152   -4.2754 H   0  0  0  0  0  0  0  0  0  0  0  0
    6.1930   -0.8831   -3.7323 H   0  0  0  0  0  0  0  0  0  0  0  0
    4.2643    0.6569    1.7012 H   0  0  0  0  0  0  0  0  0  0  0  0
    3.4432    0.7893    0.1500 H   0  0  0  0  0  0  0  0  0  0  0  0
    3.4000   -1.6804   -0.0933 H   0  0  0  0  0  0  0  0  0  0  0  0
    2.6644   -1.1710    1.4350 H   0  0  0  0  0  0  0  0  0  0  0  0
    6.3078   -0.2139    0.6305 H   0  0  0  0  0  0  0  0  0  0  0  0
    5.8394    1.3491   -0.0639 H   0  0  0  0  0  0  0  0  0  0  0  0
    5.5068   -2.4682    0.0547 H   0  0  0  0  0  0  0  0  0  0  0  0
  1 13  1  0  0  0  0
  1  2  1  0  0  0  0
  1 14  1  0  0  0  0
  2 11  1  0  0  0  0
  3  4  1  0  0  0  0
  3 17  1  0  0  0  0
  4 20  1  0  0  0  0
  4  6  1  0  0  0  0
  5 21  1  0  0  0  0
  5  3  1  0  0  0  0
  6  8  2  0  0  0  0
  7  5  1  0  0  0  0
  9  6  1  0  0  0  0
 10  7  2  0  0  0  0
 11  7  1  0  0  0  0
 12  1  1  0  0  0  0
 15  2  1  0  0  0  0
 16  2  1  0  0  0  0
 18  3  1  0  0  0  0
 19  4  1  0  0  0  0
 22  5  1  0  0  0  0
 23  9  1  0  0  0  0
M  END
>  <HBA>
4

>  <HBD>
1

>  <TPSA>
63.6

>  <cid>
66114

>  <dipole>
6.8

>  <excitation_energy_1>
5.53

>  <excitation_energy_2>
5.661

>  <excitation_energy_3>
5.885

>  <excitation_energy_4>
6.526

>  <homo_energy>
-6.827

>  <homo_lumo_gap>
6.294

>  <logP>
0.804

>  <lumo_energy>
-0.533

>  <melting_point>
62.37

>  <molecular_refractivity>
38.82

>  <oscillator_strength_1>
0.0009

>  <oscillator_strength_2>
0.0005

>  <oscillator_strength_3>
0.0012

>  <oscillator_strength_4>
0.005

>  <open_babel_can_smiles>
CCOC(=O)CCCC(=O)O

>  <mulliken_charges>
23
1   -0.464468
2   -0.055311
3   -0.278384
4   -0.370474
5   -0.374431
6   0.575645
7   0.643771
8   -0.453504
9   -0.598929
10   -0.507614
11   -0.443751
12   0.160886
13   0.16348
14   0.175355
15   0.164652
16   0.180356
17   0.175165
18   0.156708
19   0.160136
20   0.176089
21   0.195115
22   0.175422
23   0.444086

>  <lowdin_charges>
23
1   -0.453853
2   -0.127094
3   -0.262566
4   -0.3211
5   -0.307489
6   0.183715
7   0.209886
8   -0.256417
9   -0.370949
10   -0.293067
11   -0.170955
12   0.163566
13   0.159654
14   0.166026
15   0.160309
16   0.163913
17   0.163681
18   0.154859
19   0.157774
20   0.173431
21   0.180509
22   0.170627
23   0.355539

$$$$

