PCCDB-ID:  12874
public computational chemistry database (PCCDB) project, http://pccdb.org

 29 30  0  0  0  0  0  0  0  0999 V2000
    4.0705   -5.4236   -2.8302 C   0  0  0  0  0  0  0  0  0  0  0  0
    4.1536   -3.5421   -1.1338 C   0  0  0  0  0  0  0  0  0  0  0  0
    5.8085   -3.5776   -2.8819 C   0  0  0  0  0  0  0  0  0  0  0  0
    7.9702    2.7670    1.0700 C   0  0  0  0  0  0  0  0  0  0  0  0
    9.6227    2.7250   -0.7047 C   0  0  0  0  0  0  0  0  0  0  0  0
    4.7358   -2.3908   -0.6077 C   0  0  0  0  0  0  0  0  0  0  0  0
    6.3967   -2.4308   -2.3674 C   0  0  0  0  0  0  0  0  0  0  0  0
    7.3870    1.6217    0.5596 C   0  0  0  0  0  0  0  0  0  0  0  0
    9.0330    1.5755   -1.2126 C   0  0  0  0  0  0  0  0  0  0  0  0
    4.6797   -4.1579   -2.2762 C   0  0  0  0  0  0  0  0  0  0  0  0
    9.1002    3.3413    0.4473 C   0  0  0  0  0  0  0  0  0  0  0  0
    5.8622   -1.8231   -1.2176 C   0  0  0  0  0  0  0  0  0  0  0  0
    7.9098    1.0051   -0.5938 C   0  0  0  0  0  0  0  0  0  0  0  0
    9.7135    4.4605    0.9954 N   0  0  0  0  0  0  0  0  0  0  0  0
    6.3782   -0.6535   -0.6092 N   0  0  0  0  0  0  0  0  0  0  0  0
    7.3866   -0.1572   -1.1912 N   0  0  0  0  0  0  0  0  0  0  0  0
    3.0208   -5.5269   -2.5360 H   0  0  0  0  0  0  0  0  0  0  0  0
    4.6009   -6.3133   -2.4639 H   0  0  0  0  0  0  0  0  0  0  0  0
    4.1205   -5.4478   -3.9245 H   0  0  0  0  0  0  0  0  0  0  0  0
    3.2773   -3.9700   -0.6523 H   0  0  0  0  0  0  0  0  0  0  0  0
    6.2276   -4.0384   -3.7741 H   0  0  0  0  0  0  0  0  0  0  0  0
    7.5615    3.2330    1.9643 H   0  0  0  0  0  0  0  0  0  0  0  0
   10.4954    3.1537   -1.1917 H   0  0  0  0  0  0  0  0  0  0  0  0
    4.3305   -1.9091    0.2774 H   0  0  0  0  0  0  0  0  0  0  0  0
    7.2657   -1.9841   -2.8371 H   0  0  0  0  0  0  0  0  0  0  0  0
    6.5182    1.1801    1.0345 H   0  0  0  0  0  0  0  0  0  0  0  0
    9.4287    1.0953   -2.1028 H   0  0  0  0  0  0  0  0  0  0  0  0
    9.1337    5.0374    1.5907 H   0  0  0  0  0  0  0  0  0  0  0  0
   10.2879    5.0067    0.3668 H   0  0  0  0  0  0  0  0  0  0  0  0
  1 17  1  0  0  0  0
  1 18  1  0  0  0  0
  1 10  1  0  0  0  0
  2 20  1  0  0  0  0
  2  6  1  0  0  0  0
  3  7  2  0  0  0  0
  3 10  1  0  0  0  0
  4 22  1  0  0  0  0
  5 11  1  0  0  0  0
  6 24  1  0  0  0  0
  7 12  1  0  0  0  0
  8 26  1  0  0  0  0
  8  4  1  0  0  0  0
  9  5  2  0  0  0  0
  9 13  1  0  0  0  0
 10  2  2  0  0  0  0
 11 14  1  0  0  0  0
 11  4  2  0  0  0  0
 12 15  1  0  0  0  0
 12  6  2  0  0  0  0
 13  8  2  0  0  0  0
 14 28  1  0  0  0  0
 16 15  1  0  0  0  0
 16 13  1  0  0  0  0
 19  1  1  0  0  0  0
 21  3  1  0  0  0  0
 23  5  1  0  0  0  0
 25  7  1  0  0  0  0
 27  9  1  0  0  0  0
 29 14  1  0  0  0  0
M  RAD  2  15   2  16   2
M  END
>  <HBA>
3

>  <HBD>
1

>  <TPSA>
50.74

>  <cid>
12874

>  <dipole>
2.5

>  <excitation_energy_1>
2.691

>  <excitation_energy_2>
3.267

>  <excitation_energy_3>
4.114

>  <excitation_energy_4>
4.213

>  <homo_energy>
-5.282

>  <homo_lumo_gap>
3.524

>  <logP>
4.574

>  <lumo_energy>
-1.758

>  <melting_point>
115.81

>  <molecular_refractivity>
66.43

>  <oscillator_strength_1>
0.0

>  <oscillator_strength_2>
0.925

>  <oscillator_strength_3>
0.0061

>  <oscillator_strength_4>
0.0005

>  <open_babel_can_smiles>
Cc1ccc(cc1)[N][N]c1ccc(cc1)N

>  <mulliken_charges>
29
1   -0.530697
2   -0.191013
3   -0.195591
4   -0.18838
5   -0.185044
6   -0.140631
7   -0.123794
8   -0.129759
9   -0.14528
10   0.185908
11   0.333804
12   0.269573
13   0.266008
14   -0.78918
15   -0.325321
16   -0.316685
17   0.156663
18   0.166929
19   0.158611
20   0.122735
21   0.123563
22   0.123416
23   0.121567
24   0.134768
25   0.149933
26   0.154903
27   0.138899
28   0.327116
29   0.32698

>  <lowdin_charges>
29
1   -0.439807
2   -0.170624
3   -0.165082
4   -0.19586
5   -0.205179
6   -0.149411
7   -0.153061
8   -0.137773
9   -0.134187
10   0.007279
11   0.073158
12   0.007999
13   -0.015516
14   -0.47742
15   -0.09951
16   -0.084266
17   0.156607
18   0.163263
19   0.157044
20   0.155526
21   0.154883
22   0.155113
23   0.155546
24   0.164777
25   0.171688
26   0.174505
27   0.167096
28   0.281653
29   0.28156

$$$$

