PCCDB-ID:  13183
public computational chemistry database (PCCDB) project, http://pccdb.org

 16 15  0  0  0  0  0  0  0  0999 V2000
    2.6350   -0.5814   -0.8361 C   0  0  0  0  0  0  0  0  0  0  0  0
    4.5005    1.6631    4.0782 C   0  0  0  0  0  0  0  0  0  0  0  0
    3.8404   -0.0287   -0.0723 C   0  0  0  0  0  0  0  0  0  0  0  0
    3.2950    1.1113    3.3140 C   0  0  0  0  0  0  0  0  0  0  0  0
    3.3724    0.7676    1.0754 N   0  0  0  0  0  0  0  0  0  0  0  0
    3.7633    0.3150    2.1661 N   0  0  0  0  0  0  0  0  0  0  0  0
    2.9634   -1.0987   -1.7437 H   0  0  0  0  0  0  0  0  0  0  0  0
    1.9539    0.2261   -1.1241 H   0  0  0  0  0  0  0  0  0  0  0  0
    2.0779   -1.2937   -0.2180 H   0  0  0  0  0  0  0  0  0  0  0  0
    4.1723    2.1814    4.9853 H   0  0  0  0  0  0  0  0  0  0  0  0
    5.0586    2.3745    3.4599 H   0  0  0  0  0  0  0  0  0  0  0  0
    5.1805    0.8550    4.3669 H   0  0  0  0  0  0  0  0  0  0  0  0
    4.4008    0.6616   -0.7163 H   0  0  0  0  0  0  0  0  0  0  0  0
    4.5123   -0.8292    0.2624 H   0  0  0  0  0  0  0  0  0  0  0  0
    2.6237    1.9121    2.9785 H   0  0  0  0  0  0  0  0  0  0  0  0
    2.7341    0.4206    3.9571 H   0  0  0  0  0  0  0  0  0  0  0  0
  1  9  1  0  0  0  0
  1  3  1  0  0  0  0
  2 12  1  0  0  0  0
  2 10  1  0  0  0  0
  3 14  1  0  0  0  0
  3  5  1  0  0  0  0
  4 16  1  0  0  0  0
  4  2  1  0  0  0  0
  5  6  1  0  0  0  0
  6  4  1  0  0  0  0
  7  1  1  0  0  0  0
  8  1  1  0  0  0  0
 11  2  1  0  0  0  0
 13  3  1  0  0  0  0
 15  4  1  0  0  0  0
M  RAD  2   5   2   6   2
M  END
>  <HBA>
2

>  <HBD>
0

>  <TPSA>
24.72

>  <cid>
13183

>  <dipole>
0.0

>  <excitation_energy_1>
3.441

>  <excitation_energy_2>
6.127

>  <excitation_energy_3>
6.241

>  <excitation_energy_4>
6.259

>  <homo_energy>
-5.927

>  <homo_lumo_gap>
5.165

>  <logP>
1.478

>  <lumo_energy>
-0.762

>  <melting_point>
-9.71

>  <molecular_refractivity>
26.2

>  <oscillator_strength_1>
0.0

>  <oscillator_strength_2>
0.0

>  <oscillator_strength_3>
0.0185

>  <oscillator_strength_4>
0.049

>  <open_babel_can_smiles>
CC[N][N]CC

>  <mulliken_charges>
16
1   -0.448631
2   -0.448629
3   -0.129914
4   -0.129915
5   -0.184038
6   -0.184097
7   0.150282
8   0.16078
9   0.155711
10   0.150289
11   0.155708
12   0.160787
13   0.151571
14   0.144229
15   0.14427
16   0.151599

>  <lowdin_charges>
16
1   -0.448686
2   -0.448696
3   -0.221624
4   -0.221595
5   -0.09612
6   -0.09614
7   0.156374
8   0.158448
9   0.155449
10   0.156374
11   0.155453
12   0.15846
13   0.153819
14   0.142299
15   0.142342
16   0.153845

$$$$

