PCCDB-ID:  8174
public computational chemistry database (PCCDB) project, http://pccdb.org

 33 32  0  0  0  0  0  0  0  0999 V2000
    1.3048    1.8229   -3.1768 C   0  0  0  0  0  0  0  0  0  0  0  0
    2.6774    1.8137   -3.8604 C   0  0  0  0  0  0  0  0  0  0  0  0
    2.9630    0.5516   -4.6936 C   0  0  0  0  0  0  0  0  0  0  0  0
    2.9939   -0.7758   -3.9128 C   0  0  0  0  0  0  0  0  0  0  0  0
    4.0509   -0.8766   -2.7968 C   0  0  0  0  0  0  0  0  0  0  0  0
    5.5172   -0.6996   -3.2408 C   0  0  0  0  0  0  0  0  0  0  0  0
    6.0804   -1.7095   -4.2646 C   0  0  0  0  0  0  0  0  0  0  0  0
    6.6061   -3.0445   -3.7035 C   0  0  0  0  0  0  0  0  0  0  0  0
    5.5504   -4.0178   -3.1610 C   0  0  0  0  0  0  0  0  0  0  0  0
    6.1363   -5.3841   -2.8260 C   0  0  0  0  0  0  0  0  0  0  0  0
    5.0880   -6.1983   -2.3083 O   0  0  0  0  0  0  0  0  0  0  0  0
    1.1313    2.7707   -2.6544 H   0  0  0  0  0  0  0  0  0  0  0  0
    1.2100    1.0192   -2.4378 H   0  0  0  0  0  0  0  0  0  0  0  0
    0.4982    1.6946   -3.9098 H   0  0  0  0  0  0  0  0  0  0  0  0
    3.4621    1.9476   -3.1034 H   0  0  0  0  0  0  0  0  0  0  0  0
    2.7506    2.6869   -4.5229 H   0  0  0  0  0  0  0  0  0  0  0  0
    3.9171    0.6868   -5.2208 H   0  0  0  0  0  0  0  0  0  0  0  0
    2.1977    0.4697   -5.4790 H   0  0  0  0  0  0  0  0  0  0  0  0
    3.1417   -1.5928   -4.6316 H   0  0  0  0  0  0  0  0  0  0  0  0
    2.0075   -0.9581   -3.4662 H   0  0  0  0  0  0  0  0  0  0  0  0
    3.9242   -1.8421   -2.2935 H   0  0  0  0  0  0  0  0  0  0  0  0
    3.8397   -0.1173   -2.0310 H   0  0  0  0  0  0  0  0  0  0  0  0
    6.1566   -0.7136   -2.3462 H   0  0  0  0  0  0  0  0  0  0  0  0
    5.6279    0.3090   -3.6610 H   0  0  0  0  0  0  0  0  0  0  0  0
    6.9208   -1.2258   -4.7803 H   0  0  0  0  0  0  0  0  0  0  0  0
    5.3350   -1.9136   -5.0454 H   0  0  0  0  0  0  0  0  0  0  0  0
    7.3460   -2.8334   -2.9169 H   0  0  0  0  0  0  0  0  0  0  0  0
    7.1603   -3.5496   -4.5087 H   0  0  0  0  0  0  0  0  0  0  0  0
    4.7481   -4.1574   -3.8979 H   0  0  0  0  0  0  0  0  0  0  0  0
    5.0801   -3.6230   -2.2537 H   0  0  0  0  0  0  0  0  0  0  0  0
    6.9505   -5.2706   -2.0901 H   0  0  0  0  0  0  0  0  0  0  0  0
    6.5768   -5.8331   -3.7325 H   0  0  0  0  0  0  0  0  0  0  0  0
    5.4621   -7.0672   -2.0987 H   0  0  0  0  0  0  0  0  0  0  0  0
  1 12  1  0  0  0  0
  1 13  1  0  0  0  0
  2  1  1  0  0  0  0
  2 15  1  0  0  0  0
  3  4  1  0  0  0  0
  3  2  1  0  0  0  0
  4 20  1  0  0  0  0
  4  5  1  0  0  0  0
  5 21  1  0  0  0  0
  5 22  1  0  0  0  0
  6  5  1  0  0  0  0
  6 23  1  0  0  0  0
  7  8  1  0  0  0  0
  7  6  1  0  0  0  0
  8  9  1  0  0  0  0
  8 27  1  0  0  0  0
  9 10  1  0  0  0  0
  9 30  1  0  0  0  0
 10 11  1  0  0  0  0
 10 31  1  0  0  0  0
 11 33  1  0  0  0  0
 14  1  1  0  0  0  0
 16  2  1  0  0  0  0
 17  3  1  0  0  0  0
 18  3  1  0  0  0  0
 19  4  1  0  0  0  0
 24  6  1  0  0  0  0
 25  7  1  0  0  0  0
 26  7  1  0  0  0  0
 28  8  1  0  0  0  0
 29  9  1  0  0  0  0
 32 10  1  0  0  0  0
M  END
>  <HBA>
1

>  <HBD>
1

>  <TPSA>
20.23

>  <cid>
8174

>  <dipole>
1.5

>  <excitation_energy_1>
6.32

>  <excitation_energy_2>
7.118

>  <excitation_energy_3>
7.36

>  <excitation_energy_4>
7.42

>  <homo_energy>
-7.105

>  <homo_lumo_gap>
9.108

>  <logP>
3.119

>  <lumo_energy>
2.003

>  <melting_point>
-10.6

>  <molecular_refractivity>
51.35

>  <oscillator_strength_1>
0.0007

>  <oscillator_strength_2>
0.0032

>  <oscillator_strength_3>
0.0104

>  <oscillator_strength_4>
0.0081

>  <open_babel_can_smiles>
CCCCCCCCCCO

>  <mulliken_charges>
33
1   -0.443611
2   -0.250794
3   -0.254789
4   -0.261167
5   -0.265258
6   -0.261866
7   -0.259326
8   -0.262063
9   -0.262846
10   -0.028536
11   -0.620509
12   0.14067
13   0.146994
14   0.140209
15   0.134299
16   0.129306
17   0.130307
18   0.12552
19   0.131534
20   0.132347
21   0.139218
22   0.130248
23   0.125924
24   0.133434
25   0.127798
26   0.134779
27   0.127757
28   0.125904
29   0.142355
30   0.15354
31   0.114614
32   0.11444
33   0.389569

>  <lowdin_charges>
33
1   -0.448631
2   -0.277298
3   -0.280503
4   -0.28253
5   -0.283994
6   -0.280611
7   -0.280066
8   -0.276746
9   -0.285362
10   -0.13594
11   -0.473777
12   0.149112
13   0.147914
14   0.146283
15   0.139806
16   0.141822
17   0.139704
18   0.140452
19   0.141186
20   0.142195
21   0.144727
22   0.14118
23   0.140668
24   0.140736
25   0.144334
26   0.141624
27   0.137914
28   0.139943
29   0.147311
30   0.150224
31   0.12296
32   0.122461
33   0.342904

$$$$

