PCCDB-ID:  50869
public computational chemistry database (PCCDB) project, http://pccdb.org

 35 35  0  0  0  0  0  0  0  0999 V2000
    1.0074   -0.1140    0.4247 C   0  0  0  0  0  0  0  0  0  0  0  0
    0.6842    0.7447   -0.8094 C   0  0  0  0  0  0  0  0  0  0  0  0
   -4.1788    4.3233   -5.4178 C   0  0  0  0  0  0  0  0  0  0  0  0
   -2.7938    4.3070   -5.2732 C   0  0  0  0  0  0  0  0  0  0  0  0
   -4.9620    3.5323   -4.5695 C   0  0  0  0  0  0  0  0  0  0  0  0
    0.5361   -1.5783    0.3638 C   0  0  0  0  0  0  0  0  0  0  0  0
   -0.8144    0.8920   -1.1077 C   0  0  0  0  0  0  0  0  0  0  0  0
   -2.1808    3.5151   -4.2964 C   0  0  0  0  0  0  0  0  0  0  0  0
   -4.3682    2.7398   -3.5940 C   0  0  0  0  0  0  0  0  0  0  0  0
    1.1139   -2.4064   -0.7894 C   0  0  0  0  0  0  0  0  0  0  0  0
   -1.0773    1.8517   -2.2605 C   0  0  0  0  0  0  0  0  0  0  0  0
   -2.9720    2.7268   -3.4520 C   0  0  0  0  0  0  0  0  0  0  0  0
    3.0648   -3.4020   -1.7352 N   0  0  0  0  0  0  0  0  0  0  0  0
    2.5799   -2.4006   -0.7592 N   0  0  0  0  0  0  0  0  0  0  0  0
   -2.4866    1.9158   -2.4658 O   0  0  0  0  0  0  0  0  0  0  0  0
    0.5596    0.3554    1.3120 H   0  0  0  0  0  0  0  0  0  0  0  0
    2.0925   -0.1003    0.5752 H   0  0  0  0  0  0  0  0  0  0  0  0
    1.1991    0.3320   -1.6875 H   0  0  0  0  0  0  0  0  0  0  0  0
    1.1165    1.7430   -0.6516 H   0  0  0  0  0  0  0  0  0  0  0  0
   -4.6455    4.9407   -6.1798 H   0  0  0  0  0  0  0  0  0  0  0  0
   -2.1710    4.9155   -5.9241 H   0  0  0  0  0  0  0  0  0  0  0  0
   -6.0445    3.5338   -4.6686 H   0  0  0  0  0  0  0  0  0  0  0  0
   -0.5584   -1.6265    0.2996 H   0  0  0  0  0  0  0  0  0  0  0  0
    0.7976   -2.0675    1.3138 H   0  0  0  0  0  0  0  0  0  0  0  0
   -1.3425    1.2602   -0.2181 H   0  0  0  0  0  0  0  0  0  0  0  0
   -1.2601   -0.0783   -1.3587 H   0  0  0  0  0  0  0  0  0  0  0  0
   -1.1009    3.5212   -4.2033 H   0  0  0  0  0  0  0  0  0  0  0  0
   -4.9609    2.1207   -2.9275 H   0  0  0  0  0  0  0  0  0  0  0  0
    0.8021   -1.9764   -1.7523 H   0  0  0  0  0  0  0  0  0  0  0  0
    0.7055   -3.4314   -0.7559 H   0  0  0  0  0  0  0  0  0  0  0  0
   -0.5797    1.5034   -3.1782 H   0  0  0  0  0  0  0  0  0  0  0  0
   -0.6853    2.8531   -2.0276 H   0  0  0  0  0  0  0  0  0  0  0  0
    4.0616   -3.1870   -1.8254 H   0  0  0  0  0  0  0  0  0  0  0  0
    2.6816   -3.0784   -2.6279 H   0  0  0  0  0  0  0  0  0  0  0  0
    2.8422   -2.8161    0.1379 H   0  0  0  0  0  0  0  0  0  0  0  0
  1 17  1  0  0  0  0
  1 16  1  0  0  0  0
  2 19  1  0  0  0  0
  2  1  1  0  0  0  0
  3  4  2  0  0  0  0
  3  5  1  0  0  0  0
  4  8  1  0  0  0  0
  5  9  2  0  0  0  0
  6  1  1  0  0  0  0
  6 24  1  0  0  0  0
  7  2  1  0  0  0  0
  7 25  1  0  0  0  0
  8 27  1  0  0  0  0
  8 12  2  0  0  0  0
  9 12  1  0  0  0  0
  9 28  1  0  0  0  0
 10 14  1  0  0  0  0
 10 30  1  0  0  0  0
 10  6  1  0  0  0  0
 11 32  1  0  0  0  0
 11  7  1  0  0  0  0
 12 15  1  0  0  0  0
 13 14  1  0  0  0  0
 14 35  1  0  0  0  0
 15 11  1  0  0  0  0
 18  2  1  0  0  0  0
 20  3  1  0  0  0  0
 21  4  1  0  0  0  0
 22  5  1  0  0  0  0
 23  6  1  0  0  0  0
 26  7  1  0  0  0  0
 29 10  1  0  0  0  0
 31 11  1  0  0  0  0
 33 13  1  0  0  0  0
 34 13  1  0  0  0  0
M  END
>  <HBA>
3

>  <HBD>
2

>  <TPSA>
47.28

>  <cid>
50869

>  <dipole>
1.46

>  <excitation_energy_1>
4.768

>  <excitation_energy_2>
5.041

>  <excitation_energy_3>
5.132

>  <excitation_energy_4>
5.162

>  <homo_energy>
-5.369

>  <homo_lumo_gap>
5.519

>  <logP>
3.18

>  <lumo_energy>
0.15

>  <melting_point>
86.53

>  <molecular_refractivity>
62.48

>  <oscillator_strength_1>
0.0049

>  <oscillator_strength_2>
0.0327

>  <oscillator_strength_3>
0.0006

>  <oscillator_strength_4>
0.0068

>  <open_babel_can_smiles>
NNCCCCCCOc1ccccc1

>  <mulliken_charges>
35
1   -0.244425
2   -0.270922
3   -0.134085
4   -0.137833
5   -0.132684
6   -0.287689
7   -0.278123
8   -0.195609
9   -0.17628
10   -0.119709
11   -0.02793
12   0.37926
13   -0.593704
14   -0.465795
15   -0.525658
16   0.126475
17   0.147983
18   0.141895
19   0.130791
20   0.123519
21   0.127308
22   0.12817
23   0.143076
24   0.130873
25   0.14669
26   0.14979
27   0.131376
28   0.134233
29   0.132838
30   0.13168
31   0.1352
32   0.13681
33   0.304938
34   0.30127
35   0.306272

>  <lowdin_charges>
35
1   -0.275328
2   -0.277794
3   -0.181585
4   -0.148872
5   -0.145508
6   -0.281236
7   -0.283392
8   -0.214816
9   -0.186035
10   -0.211709
11   -0.125458
12   0.10361
13   -0.494614
14   -0.323665
15   -0.203695
16   0.140428
17   0.149487
18   0.144324
19   0.142052
20   0.156911
21   0.15788
22   0.155388
23   0.146393
24   0.14199
25   0.149787
26   0.148979
27   0.159364
28   0.16606
29   0.134072
30   0.129158
31   0.136096
32   0.135751
33   0.25225
34   0.251823
35   0.251905

$$$$

