PCCDB-ID:  66117
public computational chemistry database (PCCDB) project, http://pccdb.org

 26 25  0  0  0  0  0  0  0  0999 V2000
    0.8709   -0.2193   -0.5200 C   0  0  0  0  0  0  0  0  0  0  0  0
    1.4343   -1.5071    0.1089 C   0  0  0  0  0  0  0  0  0  0  0  0
    1.4679    0.2493   -1.8698 C   0  0  0  0  0  0  0  0  0  0  0  0
    2.9287   -1.5012    0.5061 C   0  0  0  0  0  0  0  0  0  0  0  0
    2.7977    0.9825   -1.7645 C   0  0  0  0  0  0  0  0  0  0  0  0
    3.9247   -2.0873   -0.4727 C   0  0  0  0  0  0  0  0  0  0  0  0
    1.8599    2.7587   -0.6470 N   0  0  0  0  0  0  0  0  0  0  0  0
    5.5915   -2.0954    1.0715 N   0  0  0  0  0  0  0  0  0  0  0  0
    2.9843    2.1241   -1.2192 N   0  0  0  0  0  0  0  0  0  0  0  0
    5.1407   -2.3623   -0.2266 N   0  0  0  0  0  0  0  0  0  0  0  0
    3.8911    0.4147   -2.3428 O   0  0  0  0  0  0  0  0  0  0  0  0
    3.5308   -2.3125   -1.7874 O   0  0  0  0  0  0  0  0  0  0  0  0
    0.9680    0.6015    0.1990 H   0  0  0  0  0  0  0  0  0  0  0  0
   -0.2057   -0.3765   -0.6660 H   0  0  0  0  0  0  0  0  0  0  0  0
    1.1994   -2.3726   -0.5321 H   0  0  0  0  0  0  0  0  0  0  0  0
    0.8547   -1.6877    1.0219 H   0  0  0  0  0  0  0  0  0  0  0  0
    0.7428    0.9338   -2.3354 H   0  0  0  0  0  0  0  0  0  0  0  0
    1.5594   -0.5873   -2.5721 H   0  0  0  0  0  0  0  0  0  0  0  0
    3.0677   -2.0602    1.4414 H   0  0  0  0  0  0  0  0  0  0  0  0
    3.2289   -0.4669    0.7373 H   0  0  0  0  0  0  0  0  0  0  0  0
    1.0455    2.7345   -1.2685 H   0  0  0  0  0  0  0  0  0  0  0  0
    2.1208    3.7358   -0.5441 H   0  0  0  0  0  0  0  0  0  0  0  0
    6.6059   -2.1275    1.0373 H   0  0  0  0  0  0  0  0  0  0  0  0
    5.3199   -1.1662    1.3989 H   0  0  0  0  0  0  0  0  0  0  0  0
    3.7496   -0.5476   -2.4348 H   0  0  0  0  0  0  0  0  0  0  0  0
    2.6095   -2.6162   -1.7892 H   0  0  0  0  0  0  0  0  0  0  0  0
  1  2  1  0  0  0  0
  1 13  1  0  0  0  0
  2  4  1  0  0  0  0
  2 16  1  0  0  0  0
  3  5  1  0  0  0  0
  3  1  1  0  0  0  0
  4 20  1  0  0  0  0
  4 19  1  0  0  0  0
  5  9  2  0  0  0  0
  6 10  2  0  0  0  0
  6  4  1  0  0  0  0
  7 22  1  0  0  0  0
  8 24  1  0  0  0  0
  9  7  1  0  0  0  0
 10  8  1  0  0  0  0
 11  5  1  0  0  0  0
 12  6  1  0  0  0  0
 14  1  1  0  0  0  0
 15  2  1  0  0  0  0
 17  3  1  0  0  0  0
 18  3  1  0  0  0  0
 21  7  1  0  0  0  0
 23  8  1  0  0  0  0
 25 11  1  0  0  0  0
 26 12  1  0  0  0  0
M  END
>  <HBA>
6

>  <HBD>
4

>  <TPSA>
110.24

>  <cid>
66117

>  <dipole>
4.42

>  <excitation_energy_1>
4.643

>  <excitation_energy_2>
5.012

>  <excitation_energy_3>
5.048

>  <excitation_energy_4>
5.333

>  <homo_energy>
-5.45

>  <homo_lumo_gap>
6.036

>  <logP>
0.709

>  <lumo_energy>
0.585

>  <melting_point>
179.07

>  <molecular_refractivity>
42.37

>  <oscillator_strength_1>
0.0108

>  <oscillator_strength_2>
0.0048

>  <oscillator_strength_3>
0.0034

>  <oscillator_strength_4>
0.0032

>  <open_babel_can_smiles>
N/N=C(\CCCC/C(=N\N)/O)/O

>  <mulliken_charges>
26
1   -0.26592
2   -0.294519
3   -0.370444
4   -0.370751
5   0.48135
6   0.458842
7   -0.585837
8   -0.57687
9   -0.325149
10   -0.294163
11   -0.62184
12   -0.62496
13   0.192004
14   0.136194
15   0.116671
16   0.158048
17   0.154735
18   0.132212
19   0.187054
20   0.191075
21   0.291577
22   0.326089
23   0.332995
24   0.311099
25   0.444848
26   0.415662

>  <lowdin_charges>
26
1   -0.279707
2   -0.278819
3   -0.312524
4   -0.315154
5   0.083778
6   0.076328
7   -0.458504
8   -0.443303
9   -0.167672
10   -0.128088
11   -0.381373
12   -0.392706
13   0.168956
14   0.145177
15   0.130079
16   0.160243
17   0.159218
18   0.148389
19   0.173189
20   0.172772
21   0.242418
22   0.266147
23   0.270789
24   0.254373
25   0.354141
26   0.351854

$$$$

