PCCDB-ID:  40274
public computational chemistry database (PCCDB) project, http://pccdb.org

 27 26  0  0  0  0  0  0  0  0999 V2000
    3.5013    1.3606   -1.2468 C   0  0  0  0  0  0  0  0  0  0  0  0
    1.3796    0.1554   -0.6374 C   0  0  0  0  0  0  0  0  0  0  0  0
    3.4447   -1.1621   -1.1661 C   0  0  0  0  0  0  0  0  0  0  0  0
    4.6896    0.1260    2.8865 C   0  0  0  0  0  0  0  0  0  0  0  0
    6.1250    0.1351    3.4152 C   0  0  0  0  0  0  0  0  0  0  0  0
    4.6074    0.1446    1.3574 C   0  0  0  0  0  0  0  0  0  0  0  0
    2.9132    0.1296   -0.5198 C   0  0  0  0  0  0  0  0  0  0  0  0
    6.1319    0.0811    4.8827 N   0  0  0  0  0  0  0  0  0  0  0  0
    3.2089    0.1065    0.9311 N   0  0  0  0  0  0  0  0  0  0  0  0
    3.2155    1.3666   -2.3057 H   0  0  0  0  0  0  0  0  0  0  0  0
    4.5959    1.3740   -1.2020 H   0  0  0  0  0  0  0  0  0  0  0  0
    3.1331    2.2918   -0.7970 H   0  0  0  0  0  0  0  0  0  0  0  0
    1.0642    0.1352   -1.6865 H   0  0  0  0  0  0  0  0  0  0  0  0
    0.9669    1.0667   -0.1845 H   0  0  0  0  0  0  0  0  0  0  0  0
    0.9429   -0.7062   -0.1220 H   0  0  0  0  0  0  0  0  0  0  0  0
    3.1190   -1.2273   -2.2105 H   0  0  0  0  0  0  0  0  0  0  0  0
    3.0680   -2.0382   -0.6280 H   0  0  0  0  0  0  0  0  0  0  0  0
    4.5396   -1.2021   -1.1626 H   0  0  0  0  0  0  0  0  0  0  0  0
    4.1570    1.0043    3.2865 H   0  0  0  0  0  0  0  0  0  0  0  0
    4.1679   -0.7571    3.2708 H   0  0  0  0  0  0  0  0  0  0  0  0
    6.6632    1.0069    2.9969 H   0  0  0  0  0  0  0  0  0  0  0  0
    6.6506   -0.7573    3.0503 H   0  0  0  0  0  0  0  0  0  0  0  0
    5.1149   -0.7444    0.9635 H   0  0  0  0  0  0  0  0  0  0  0  0
    5.1680    1.0187    0.9745 H   0  0  0  0  0  0  0  0  0  0  0  0
    5.7285    0.9412    5.2537 H   0  0  0  0  0  0  0  0  0  0  0  0
    7.0929    0.0572    5.2211 H   0  0  0  0  0  0  0  0  0  0  0  0
    2.7217    0.8917    1.3638 H   0  0  0  0  0  0  0  0  0  0  0  0
  1 11  1  0  0  0  0
  1 12  1  0  0  0  0
  1  7  1  0  0  0  0
  2  7  1  0  0  0  0
  2 14  1  0  0  0  0
  2 15  1  0  0  0  0
  3 18  1  0  0  0  0
  3 17  1  0  0  0  0
  3  7  1  0  0  0  0
  4 20  1  0  0  0  0
  4 19  1  0  0  0  0
  4  5  1  0  0  0  0
  5  8  1  0  0  0  0
  6  4  1  0  0  0  0
  7  9  1  0  0  0  0
  8 26  1  0  0  0  0
  8 25  1  0  0  0  0
  9  6  1  0  0  0  0
  9 27  1  0  0  0  0
 10  1  1  0  0  0  0
 13  2  1  0  0  0  0
 16  3  1  0  0  0  0
 21  5  1  0  0  0  0
 22  5  1  0  0  0  0
 23  6  1  0  0  0  0
 24  6  1  0  0  0  0
M  END
>  <HBA>
2

>  <HBD>
2

>  <TPSA>
38.05

>  <cid>
40274

>  <dipole>
2.11

>  <excitation_energy_1>
5.231

>  <excitation_energy_2>
5.481

>  <excitation_energy_3>
5.651

>  <excitation_energy_4>
5.688

>  <homo_energy>
-5.704

>  <homo_lumo_gap>
7.777

>  <logP>
1.815

>  <lumo_energy>
2.074

>  <melting_point>
65.22

>  <molecular_refractivity>
41.31

>  <oscillator_strength_1>
0.0064

>  <oscillator_strength_2>
0.0167

>  <oscillator_strength_3>
0.002

>  <oscillator_strength_4>
0.0009

>  <open_babel_can_smiles>
NCCCNC(C)(C)C

>  <mulliken_charges>
27
1   -0.445446
2   -0.446839
3   -0.442227
4   -0.25782
5   -0.136354
6   -0.114846
7   0.219688
8   -0.713821
9   -0.563886
10   0.138093
11   0.143011
12   0.129797
13   0.138244
14   0.129552
15   0.15531
16   0.136779
17   0.153192
18   0.139382
19   0.114508
20   0.163021
21   0.109095
22   0.138823
23   0.139183
24   0.10781
25   0.28992
26   0.294045
27   0.281787

>  <lowdin_charges>
27
1   -0.455202
2   -0.44463
3   -0.443676
4   -0.281794
5   -0.205399
6   -0.205771
7   0.070566
8   -0.556866
9   -0.363543
10   0.147772
11   0.14621
12   0.143425
13   0.147304
14   0.142939
15   0.156952
16   0.147687
17   0.156309
18   0.144694
19   0.131826
20   0.157895
21   0.115037
22   0.141591
23   0.14227
24   0.115061
25   0.24983
26   0.25221
27   0.247303

$$$$

