PCCDB-ID:  16316
public computational chemistry database (PCCDB) project, http://pccdb.org

 34 33  0  0  0  0  0  0  0  0999 V2000
    1.9616    1.6956    0.0141 C   0  0  0  0  0  0  0  0  0  0  0  0
    9.1383   -0.9584   -6.4587 C   0  0  0  0  0  0  0  0  0  0  0  0
    2.6479    2.4685   -1.1183 C   0  0  0  0  0  0  0  0  0  0  0  0
    7.6757   -1.3909   -6.6163 C   0  0  0  0  0  0  0  0  0  0  0  0
    4.1463    2.7369   -0.8858 C   0  0  0  0  0  0  0  0  0  0  0  0
    7.0213   -1.9065   -5.3237 C   0  0  0  0  0  0  0  0  0  0  0  0
    5.0498    1.4972   -0.7729 C   0  0  0  0  0  0  0  0  0  0  0  0
    6.8822   -0.8545   -4.2148 C   0  0  0  0  0  0  0  0  0  0  0  0
    5.1167    0.6366   -2.0375 C   0  0  0  0  0  0  0  0  0  0  0  0
    6.1421   -1.3941   -2.9849 C   0  0  0  0  0  0  0  0  0  0  0  0
    6.1033   -0.4329   -1.8798 N   0  0  0  0  0  0  0  0  0  0  0  0
    0.8868    1.5928   -0.1742 H   0  0  0  0  0  0  0  0  0  0  0  0
    2.0830    2.2116    0.9750 H   0  0  0  0  0  0  0  0  0  0  0  0
    2.3719    0.6855    0.1274 H   0  0  0  0  0  0  0  0  0  0  0  0
    9.5680   -0.6652   -7.4235 H   0  0  0  0  0  0  0  0  0  0  0  0
    9.7500   -1.7765   -6.0575 H   0  0  0  0  0  0  0  0  0  0  0  0
    9.2418   -0.1045   -5.7800 H   0  0  0  0  0  0  0  0  0  0  0  0
    2.1434    3.4357   -1.2464 H   0  0  0  0  0  0  0  0  0  0  0  0
    2.5065    1.9302   -2.0649 H   0  0  0  0  0  0  0  0  0  0  0  0
    7.6179   -2.1807   -7.3775 H   0  0  0  0  0  0  0  0  0  0  0  0
    7.0858   -0.5491   -7.0069 H   0  0  0  0  0  0  0  0  0  0  0  0
    4.2561    3.3294    0.0336 H   0  0  0  0  0  0  0  0  0  0  0  0
    4.5209    3.3721   -1.7013 H   0  0  0  0  0  0  0  0  0  0  0  0
    7.6003   -2.7619   -4.9435 H   0  0  0  0  0  0  0  0  0  0  0  0
    6.0242   -2.3005   -5.5681 H   0  0  0  0  0  0  0  0  0  0  0  0
    4.7229    0.8718    0.0712 H   0  0  0  0  0  0  0  0  0  0  0  0
    6.0708    1.8197   -0.5331 H   0  0  0  0  0  0  0  0  0  0  0  0
    6.3511    0.0198   -4.6173 H   0  0  0  0  0  0  0  0  0  0  0  0
    7.8667   -0.4987   -3.8885 H   0  0  0  0  0  0  0  0  0  0  0  0
    5.4192    1.2669   -2.8839 H   0  0  0  0  0  0  0  0  0  0  0  0
    4.1120    0.2421   -2.2882 H   0  0  0  0  0  0  0  0  0  0  0  0
    6.6699   -2.2865   -2.6238 H   0  0  0  0  0  0  0  0  0  0  0  0
    5.1290   -1.7277   -3.2892 H   0  0  0  0  0  0  0  0  0  0  0  0
    5.8880   -0.9373   -1.0211 H   0  0  0  0  0  0  0  0  0  0  0  0
  1 14  1  0  0  0  0
  1 13  1  0  0  0  0
  2 16  1  0  0  0  0
  2 17  1  0  0  0  0
  3  5  1  0  0  0  0
  3  1  1  0  0  0  0
  4  2  1  0  0  0  0
  4  6  1  0  0  0  0
  5  7  1  0  0  0  0
  5 22  1  0  0  0  0
  6 24  1  0  0  0  0
  6  8  1  0  0  0  0
  7 27  1  0  0  0  0
  7 26  1  0  0  0  0
  8 29  1  0  0  0  0
  8 10  1  0  0  0  0
  9 11  1  0  0  0  0
  9  7  1  0  0  0  0
 10 32  1  0  0  0  0
 10 11  1  0  0  0  0
 11 34  1  0  0  0  0
 12  1  1  0  0  0  0
 15  2  1  0  0  0  0
 18  3  1  0  0  0  0
 19  3  1  0  0  0  0
 20  4  1  0  0  0  0
 21  4  1  0  0  0  0
 23  5  1  0  0  0  0
 25  6  1  0  0  0  0
 28  8  1  0  0  0  0
 30  9  1  0  0  0  0
 31  9  1  0  0  0  0
 33 10  1  0  0  0  0
M  END
>  <HBA>
1

>  <HBD>
1

>  <TPSA>
12.03

>  <cid>
16316

>  <dipole>
0.88

>  <excitation_energy_1>
5.289

>  <excitation_energy_2>
5.706

>  <excitation_energy_3>
5.832

>  <excitation_energy_4>
5.952

>  <homo_energy>
-5.812

>  <homo_lumo_gap>
8.027

>  <logP>
3.347

>  <lumo_energy>
2.215

>  <melting_point>
-2.04

>  <molecular_refractivity>
52.99

>  <oscillator_strength_1>
0.0008

>  <oscillator_strength_2>
0.0092

>  <oscillator_strength_3>
0.0299

>  <oscillator_strength_4>
0.0402

>  <open_babel_can_smiles>
CCCCCNCCCCC

>  <mulliken_charges>
34
1   -0.442553
2   -0.442757
3   -0.25113
4   -0.247901
5   -0.255473
6   -0.25286
7   -0.271871
8   -0.25058
9   -0.115188
10   -0.121895
11   -0.556911
12   0.142258
13   0.141009
14   0.143252
15   0.140615
16   0.140035
17   0.148489
18   0.131097
19   0.135389
20   0.129231
21   0.128935
22   0.128922
23   0.129016
24   0.125342
25   0.12634
26   0.124974
27   0.146411
28   0.129097
29   0.146394
30   0.139188
31   0.109914
32   0.128159
33   0.105601
34   0.289452

>  <lowdin_charges>
34
1   -0.444452
2   -0.448819
3   -0.276569
4   -0.273594
5   -0.276868
6   -0.275882
7   -0.282683
8   -0.283379
9   -0.204014
10   -0.203369
11   -0.36511
12   0.148254
13   0.145795
14   0.144938
15   0.14893
16   0.14659
17   0.148964
18   0.141965
19   0.139476
20   0.141422
21   0.13905
22   0.141441
23   0.141742
24   0.137087
25   0.138548
26   0.136071
27   0.149851
28   0.13864
29   0.147365
30   0.140319
31   0.113774
32   0.140585
33   0.112898
34   0.251038

$$$$

