PCCDB-ID:  43026
public computational chemistry database (PCCDB) project, http://pccdb.org

 23 23  0  0  1  0  0  0  0  0999 V2000
    3.2802    0.0534   -0.9530 C   0  0  0  0  0  0  0  0  0  0  0  0
    3.6451    0.0382    2.6461 C   0  0  0  0  0  0  0  0  0  0  0  0
    2.8151    1.9916    1.5303 C   0  0  0  0  0  0  0  0  0  0  0  0
    4.0860    0.8225    3.7094 C   0  0  0  0  0  0  0  0  0  0  0  0
    3.2475    2.7854    2.5856 C   0  0  0  0  0  0  0  0  0  0  0  0
    2.5523   -0.2637    0.3625 C   0  0  1  0  0  0  0  0  0  0  0  0
    3.0049    0.5987    1.5320 C   0  0  0  0  0  0  0  0  0  0  0  0
    3.8955    2.2138    3.6966 C   0  0  0  0  0  0  0  0  0  0  0  0
    1.0237   -0.2378    0.1503 C   0  0  0  0  0  0  0  0  0  0  0  0
    4.2791    3.0011    4.7811 N   0  0  0  0  0  0  0  0  0  0  0  0
    0.4914   -0.3617   -0.9254 O   0  0  0  0  0  0  0  0  0  0  0  0
    0.2770   -0.1259    1.2768 O   0  0  0  0  0  0  0  0  0  0  0  0
    4.3581   -0.0935   -0.8327 H   0  0  0  0  0  0  0  0  0  0  0  0
    3.1084    1.0908   -1.2579 H   0  0  0  0  0  0  0  0  0  0  0  0
    2.9147   -0.5937   -1.7536 H   0  0  0  0  0  0  0  0  0  0  0  0
    3.8147   -1.0361    2.6806 H   0  0  0  0  0  0  0  0  0  0  0  0
    2.3180    2.4663    0.6873 H   0  0  0  0  0  0  0  0  0  0  0  0
    4.5779    0.3545    4.5592 H   0  0  0  0  0  0  0  0  0  0  0  0
    3.0783    3.8595    2.5587 H   0  0  0  0  0  0  0  0  0  0  0  0
    2.7711   -1.3102    0.6252 H   0  0  0  0  0  0  0  0  0  0  0  0
    5.0141    2.6139    5.3593 H   0  0  0  0  0  0  0  0  0  0  0  0
    4.4412    3.9781    4.5719 H   0  0  0  0  0  0  0  0  0  0  0  0
    0.8709    0.0452    2.0308 H   0  0  0  0  0  0  0  0  0  0  0  0
  1 13  1  0  0  0  0
  1  6  1  0  0  0  0
  2 16  1  0  0  0  0
  2  4  2  0  0  0  0
  3  7  2  0  0  0  0
  3  5  1  0  0  0  0
  4 18  1  0  0  0  0
  5  8  2  0  0  0  0
  6 20  1  1  0  0  0
  6  7  1  0  0  0  0
  7  2  1  0  0  0  0
  8  4  1  0  0  0  0
  8 10  1  0  0  0  0
  9  6  1  0  0  0  0
  9 12  1  0  0  0  0
 10 21  1  0  0  0  0
 11  9  2  0  0  0  0
 12 23  1  0  0  0  0
 14  1  1  0  0  0  0
 15  1  1  0  0  0  0
 17  3  1  0  0  0  0
 19  5  1  0  0  0  0
 22 10  1  0  0  0  0
M  END
>  <HBA>
3

>  <HBD>
2

>  <TPSA>
63.32

>  <cid>
43026

>  <dipole>
6.54

>  <excitation_energy_1>
4.579

>  <excitation_energy_2>
4.873

>  <excitation_energy_3>
5.12

>  <excitation_energy_4>
5.262

>  <homo_energy>
-5.802

>  <homo_lumo_gap>
5.429

>  <logP>
2.038

>  <lumo_energy>
-0.373

>  <melting_point>
133.14

>  <molecular_refractivity>
47.2

>  <oscillator_strength_1>
0.027

>  <oscillator_strength_2>
0.014

>  <oscillator_strength_3>
0.0006

>  <oscillator_strength_4>
0.2105

>  <open_babel_can_smiles>
C[C@@H](c1ccc(cc1)N)C(=O)O

>  <mulliken_charges>
23
1   -0.432519
2   -0.199535
3   -0.177008
4   -0.168702
5   -0.171653
6   -0.274898
7   0.089753
8   0.316038
9   0.602466
10   -0.787551
11   -0.452087
12   -0.572309
13   0.144827
14   0.153801
15   0.17437
16   0.13163
17   0.143173
18   0.12404
19   0.126873
20   0.166724
21   0.324429
22   0.324941
23   0.413196

>  <lowdin_charges>
23
1   -0.433733
2   -0.158841
3   -0.151675
4   -0.200052
5   -0.191806
6   -0.160429
7   -0.058367
8   0.06379
9   0.187652
10   -0.48152
11   -0.245326
12   -0.357074
13   0.150757
14   0.153554
15   0.16861
16   0.155766
17   0.164009
18   0.157018
19   0.155464
20   0.165167
21   0.279196
22   0.277442
23   0.360396

$$$$

