PCCDB-ID:  21406
public computational chemistry database (PCCDB) project, http://pccdb.org

 21 21  0  0  1  0  0  0  0  0999 V2000
    0.7511    1.2457   -0.2551 C   0  0  0  0  0  0  0  0  0  0  0  0
    1.5250    0.0007    0.2030 C   0  0  0  0  0  0  0  0  0  0  0  0
   -0.7010    1.2303    0.2472 C   0  0  0  0  0  0  0  0  0  0  0  0
    0.7959   -1.3015   -0.1996 C   0  0  0  0  0  0  0  0  0  0  0  0
   -2.9086   -0.0900    0.2771 C   0  0  0  0  0  0  0  0  0  0  0  0
   -1.4503   -0.0550   -0.1898 C   0  0  2  0  0  0  0  0  0  0  0  0
   -0.6420   -1.2625    0.3015 C   0  0  0  0  0  0  0  0  0  0  0  0
   -3.6846   -1.0730   -0.3950 O   0  0  0  0  0  0  0  0  0  0  0  0
   -1.0783   -2.0701    1.0977 O   0  0  0  0  0  0  0  0  0  0  0  0
    0.7525    1.2932   -1.3539 H   0  0  0  0  0  0  0  0  0  0  0  0
    1.2584    2.1523    0.0974 H   0  0  0  0  0  0  0  0  0  0  0  0
    1.6338    0.0213    1.2961 H   0  0  0  0  0  0  0  0  0  0  0  0
    2.5394    0.0022   -0.2134 H   0  0  0  0  0  0  0  0  0  0  0  0
   -1.2426    2.1098   -0.1237 H   0  0  0  0  0  0  0  0  0  0  0  0
   -0.7117    1.2953    1.3448 H   0  0  0  0  0  0  0  0  0  0  0  0
    1.2892   -2.1857    0.2138 H   0  0  0  0  0  0  0  0  0  0  0  0
    0.7908   -1.3892   -1.2959 H   0  0  0  0  0  0  0  0  0  0  0  0
   -3.3535    0.9125    0.1651 H   0  0  0  0  0  0  0  0  0  0  0  0
   -2.9465   -0.3597    1.3356 H   0  0  0  0  0  0  0  0  0  0  0  0
   -1.4357   -0.0774   -1.2926 H   0  0  0  0  0  0  0  0  0  0  0  0
   -3.7801   -0.7899   -1.3175 H   0  0  0  0  0  0  0  0  0  0  0  0
  1 11  1  0  0  0  0
  1  2  1  0  0  0  0
  1  3  1  0  0  0  0
  2 12  1  0  0  0  0
  3 15  1  0  0  0  0
  4  2  1  0  0  0  0
  4 16  1  0  0  0  0
  4  7  1  0  0  0  0
  5 19  1  0  0  0  0
  6 20  1  6  0  0  0
  6  3  1  0  0  0  0
  6  5  1  0  0  0  0
  6  7  1  0  0  0  0
  7  9  2  0  0  0  0
  8  5  1  0  0  0  0
 10  1  1  0  0  0  0
 13  2  1  0  0  0  0
 14  3  1  0  0  0  0
 17  4  1  0  0  0  0
 18  5  1  0  0  0  0
 21  8  1  0  0  0  0
M  END
>  <HBA>
2

>  <HBD>
1

>  <TPSA>
37.3

>  <cid>
21406

>  <dipole>
4.48

>  <excitation_energy_1>
4.198

>  <excitation_energy_2>
5.763

>  <excitation_energy_3>
5.899

>  <excitation_energy_4>
6.142

>  <homo_energy>
-6.378

>  <homo_lumo_gap>
6.027

>  <logP>
0.738

>  <lumo_energy>
-0.351

>  <melting_point>
35.36

>  <molecular_refractivity>
35.01

>  <oscillator_strength_1>
0.0

>  <oscillator_strength_2>
0.0021

>  <oscillator_strength_3>
0.0009

>  <oscillator_strength_4>
0.0004

>  <open_babel_can_smiles>
OC[C@H]1CCCCC1=O

>  <mulliken_charges>
21
1   -0.263913
2   -0.272826
3   -0.280219
4   -0.336954
5   -0.027098
6   -0.189199
7   0.455915
8   -0.609417
9   -0.437156
10   0.13356
11   0.142476
12   0.148793
13   0.14544
14   0.142024
15   0.147483
16   0.16345
17   0.148337
18   0.114456
19   0.166904
20   0.125422
21   0.382521

>  <lowdin_charges>
21
1   -0.276574
2   -0.270117
3   -0.27387
4   -0.305238
5   -0.133304
6   -0.178434
7   0.160544
8   -0.456126
9   -0.223851
10   0.13801
11   0.150881
12   0.145152
13   0.149944
14   0.14916
15   0.144738
16   0.164598
17   0.153337
18   0.124479
19   0.158452
20   0.142095
21   0.336124

$$$$

