PCCDB-ID:  11160
public computational chemistry database (PCCDB) project, http://pccdb.org

 20 19  0  0  0  0  0  0  0  0999 V2000
    1.5742    0.2190   -1.0027 C   0  0  0  0  0  0  0  0  0  0  0  0
    3.9893   -0.4713   -1.3288 C   0  0  0  0  0  0  0  0  0  0  0  0
    5.8956    0.5090    3.4242 C   0  0  0  0  0  0  0  0  0  0  0  0
    3.2422    0.6000    0.8495 C   0  0  0  0  0  0  0  0  0  0  0  0
    2.8421   -0.3133   -0.3202 C   0  0  0  0  0  0  0  0  0  0  0  0
    4.3118    0.0096    1.7494 C   0  0  0  0  0  0  0  0  0  0  0  0
    4.6019   -1.1651    1.8318 O   0  0  0  0  0  0  0  0  0  0  0  0
    4.9008    0.9723    2.4968 O   0  0  0  0  0  0  0  0  0  0  0  0
    1.2642   -0.4408   -1.8212 H   0  0  0  0  0  0  0  0  0  0  0  0
    1.7423    1.2171   -1.4282 H   0  0  0  0  0  0  0  0  0  0  0  0
    0.7373    0.2937   -0.2976 H   0  0  0  0  0  0  0  0  0  0  0  0
    3.7005   -1.1438   -2.1449 H   0  0  0  0  0  0  0  0  0  0  0  0
    4.8812   -0.8892   -0.8518 H   0  0  0  0  0  0  0  0  0  0  0  0
    4.2567    0.4963   -1.7746 H   0  0  0  0  0  0  0  0  0  0  0  0
    6.2591    1.4019    3.9340 H   0  0  0  0  0  0  0  0  0  0  0  0
    6.7117    0.0094    2.8953 H   0  0  0  0  0  0  0  0  0  0  0  0
    5.4585   -0.1913    4.1413 H   0  0  0  0  0  0  0  0  0  0  0  0
    2.3709    0.8005    1.4901 H   0  0  0  0  0  0  0  0  0  0  0  0
    3.5822    1.5804    0.4935 H   0  0  0  0  0  0  0  0  0  0  0  0
    2.6240   -1.3028    0.1010 H   0  0  0  0  0  0  0  0  0  0  0  0
  1  5  1  0  0  0  0
  1 11  1  0  0  0  0
  2 13  1  0  0  0  0
  2  5  1  0  0  0  0
  3 15  1  0  0  0  0
  3 17  1  0  0  0  0
  4 18  1  0  0  0  0
  4  6  1  0  0  0  0
  5 20  1  0  0  0  0
  5  4  1  0  0  0  0
  6  7  2  0  0  0  0
  6  8  1  0  0  0  0
  8  3  1  0  0  0  0
  9  1  1  0  0  0  0
 10  1  1  0  0  0  0
 12  2  1  0  0  0  0
 14  2  1  0  0  0  0
 16  3  1  0  0  0  0
 19  4  1  0  0  0  0
M  END
>  <HBA>
2

>  <HBD>
0

>  <TPSA>
26.3

>  <cid>
11160

>  <dipole>
1.51

>  <excitation_energy_1>
5.821

>  <excitation_energy_2>
6.963

>  <excitation_energy_3>
7.443

>  <excitation_energy_4>
7.66

>  <homo_energy>
-7.317

>  <homo_lumo_gap>
7.72

>  <logP>
1.206

>  <lumo_energy>
0.403

>  <melting_point>
-14.12

>  <molecular_refractivity>
32.24

>  <oscillator_strength_1>
0.0008

>  <oscillator_strength_2>
0.0216

>  <oscillator_strength_3>
0.0117

>  <oscillator_strength_4>
0.026

>  <open_babel_can_smiles>
COC(=O)CC(C)C

>  <mulliken_charges>
20
1   -0.447184
2   -0.452032
3   -0.217726
4   -0.353313
5   -0.062255
6   0.619378
7   -0.481418
8   -0.452223
9   0.145302
10   0.138881
11   0.139678
12   0.142918
13   0.162066
14   0.133683
15   0.163396
16   0.169794
17   0.168795
18   0.169893
19   0.16281
20   0.149557

>  <lowdin_charges>
20
1   -0.444846
2   -0.449291
3   -0.28227
4   -0.302228
5   -0.116994
6   0.194571
7   -0.26653
8   -0.19362
9   0.151905
10   0.144776
11   0.147577
12   0.151132
13   0.158593
14   0.142397
15   0.160678
16   0.160062
17   0.159598
18   0.170706
19   0.163242
20   0.150543

$$$$

