PCCDB-ID:  10890
public computational chemistry database (PCCDB) project, http://pccdb.org

 29 28  0  0  0  0  0  0  0  0999 V2000
    0.0366    0.3803    3.8423 C   0  0  0  0  0  0  0  0  0  0  0  0
    7.4125    1.2522   -3.9597 C   0  0  0  0  0  0  0  0  0  0  0  0
    0.6117    0.3091    2.4246 C   0  0  0  0  0  0  0  0  0  0  0  0
    6.7850    1.5570   -2.5965 C   0  0  0  0  0  0  0  0  0  0  0  0
    2.1115    0.6275    2.3651 C   0  0  0  0  0  0  0  0  0  0  0  0
    2.6844    0.5553    0.9436 C   0  0  0  0  0  0  0  0  0  0  0  0
    5.2506    1.4059   -2.6173 C   0  0  0  0  0  0  0  0  0  0  0  0
    4.1765    0.8656    0.8996 C   0  0  0  0  0  0  0  0  0  0  0  0
    4.6306    1.7410   -1.2760 C   0  0  0  0  0  0  0  0  0  0  0  0
    4.1572    2.8151   -0.9717 O   0  0  0  0  0  0  0  0  0  0  0  0
    4.7092    0.6823   -0.4333 O   0  0  0  0  0  0  0  0  0  0  0  0
   -1.0327    0.1407    3.8527 H   0  0  0  0  0  0  0  0  0  0  0  0
    0.1576    1.3832    4.2696 H   0  0  0  0  0  0  0  0  0  0  0  0
    0.5422   -0.3268    4.5117 H   0  0  0  0  0  0  0  0  0  0  0  0
    8.5022    1.3618   -3.9263 H   0  0  0  0  0  0  0  0  0  0  0  0
    7.0316    1.9317   -4.7316 H   0  0  0  0  0  0  0  0  0  0  0  0
    7.1894    0.2267   -4.2783 H   0  0  0  0  0  0  0  0  0  0  0  0
    0.0688    1.0065    1.7715 H   0  0  0  0  0  0  0  0  0  0  0  0
    0.4411   -0.6934    2.0073 H   0  0  0  0  0  0  0  0  0  0  0  0
    7.0398    2.5796   -2.2905 H   0  0  0  0  0  0  0  0  0  0  0  0
    7.1989    0.8855   -1.8344 H   0  0  0  0  0  0  0  0  0  0  0  0
    2.6550   -0.0748    3.0150 H   0  0  0  0  0  0  0  0  0  0  0  0
    2.2848    1.6290    2.7850 H   0  0  0  0  0  0  0  0  0  0  0  0
    2.1601    1.2634    0.2904 H   0  0  0  0  0  0  0  0  0  0  0  0
    2.5249   -0.4478    0.5260 H   0  0  0  0  0  0  0  0  0  0  0  0
    4.9875    0.3765   -2.8855 H   0  0  0  0  0  0  0  0  0  0  0  0
    4.8160    2.0831   -3.3592 H   0  0  0  0  0  0  0  0  0  0  0  0
    4.7455    0.1645    1.5172 H   0  0  0  0  0  0  0  0  0  0  0  0
    4.3817    1.8878    1.2290 H   0  0  0  0  0  0  0  0  0  0  0  0
  1 12  1  0  0  0  0
  1 13  1  0  0  0  0
  1 14  1  0  0  0  0
  2 15  1  0  0  0  0
  2  4  1  0  0  0  0
  3  1  1  0  0  0  0
  4 20  1  0  0  0  0
  4 21  1  0  0  0  0
  5  3  1  0  0  0  0
  5 23  1  0  0  0  0
  5 22  1  0  0  0  0
  6  5  1  0  0  0  0
  7  4  1  0  0  0  0
  7  9  1  0  0  0  0
  8  6  1  0  0  0  0
  8 29  1  0  0  0  0
  8 28  1  0  0  0  0
  9 10  2  0  0  0  0
  9 11  1  0  0  0  0
 11  8  1  0  0  0  0
 16  2  1  0  0  0  0
 17  2  1  0  0  0  0
 18  3  1  0  0  0  0
 19  3  1  0  0  0  0
 24  6  1  0  0  0  0
 25  6  1  0  0  0  0
 26  7  1  0  0  0  0
 27  7  1  0  0  0  0
M  END
>  <HBA>
2

>  <HBD>
0

>  <TPSA>
26.3

>  <cid>
10890

>  <dipole>
1.72

>  <excitation_energy_1>
5.727

>  <excitation_energy_2>
7.032

>  <excitation_energy_3>
7.327

>  <excitation_energy_4>
7.382

>  <homo_energy>
-7.146

>  <homo_lumo_gap>
7.589

>  <logP>
2.52

>  <lumo_energy>
0.444

>  <melting_point>
-16.11

>  <molecular_refractivity>
46.66

>  <oscillator_strength_1>
0.0017

>  <oscillator_strength_2>
0.0224

>  <oscillator_strength_3>
0.0264

>  <oscillator_strength_4>
0.0236

>  <open_babel_can_smiles>
CCCCCOC(=O)CCC

>  <mulliken_charges>
29
1   -0.44284
2   -0.442297
3   -0.246707
4   -0.262522
5   -0.257587
6   -0.277775
7   -0.323347
8   -0.045337
9   0.599642
10   -0.478579
11   -0.4626
12   0.143925
13   0.143701
14   0.141466
15   0.148675
16   0.147605
17   0.14561
18   0.13619
19   0.132019
20   0.152136
21   0.151423
22   0.128102
23   0.136499
24   0.159163
25   0.140617
26   0.157355
27   0.162972
28   0.146134
29   0.166356

>  <lowdin_charges>
29
1   -0.443615
2   -0.441573
3   -0.271306
4   -0.266165
5   -0.275391
6   -0.287129
7   -0.296651
8   -0.132952
9   0.196824
10   -0.271286
11   -0.198556
12   0.148953
13   0.146925
14   0.147575
15   0.151435
16   0.150527
17   0.147663
18   0.143253
19   0.139125
20   0.1487
21   0.150173
22   0.139151
23   0.14134
24   0.156366
25   0.144952
26   0.16004
27   0.164777
28   0.150934
29   0.155914

$$$$

