PCCDB-ID:  22122
public computational chemistry database (PCCDB) project, http://pccdb.org

 27 28  0  0  0  0  0  0  0  0999 V2000
    2.7712   -0.3295   -2.6826 C   0  0  0  0  0  0  0  0  0  0  0  0
    3.2559    0.2075   -1.3323 C   0  0  0  0  0  0  0  0  0  0  0  0
    3.9773    1.5555   -1.4485 C   0  0  0  0  0  0  0  0  0  0  0  0
    7.8301    7.0056   -0.6918 C   0  0  0  0  0  0  0  0  0  0  0  0
    6.5963    7.6818   -0.6175 C   0  0  0  0  0  0  0  0  0  0  0  0
    7.9025    5.6181   -0.6081 C   0  0  0  0  0  0  0  0  0  0  0  0
    5.3967    6.9913   -0.4580 C   0  0  0  0  0  0  0  0  0  0  0  0
    4.4749    2.0887   -0.0885 C   0  0  0  0  0  0  0  0  0  0  0  0
    6.7094    4.9027   -0.4489 C   0  0  0  0  0  0  0  0  0  0  0  0
    5.4786    5.6006   -0.3787 C   0  0  0  0  0  0  0  0  0  0  0  0
    5.2002    3.3941   -0.1990 C   0  0  0  0  0  0  0  0  0  0  0  0
    6.4982    3.5343   -0.3341 N   0  0  0  0  0  0  0  0  0  0  0  0
    4.5304    4.6045   -0.2195 N   0  0  0  0  0  0  0  0  0  0  0  0
    2.2618   -1.2931   -2.5691 H   0  0  0  0  0  0  0  0  0  0  0  0
    3.6096   -0.4749   -3.3747 H   0  0  0  0  0  0  0  0  0  0  0  0
    2.0677    0.3655   -3.1573 H   0  0  0  0  0  0  0  0  0  0  0  0
    3.9312   -0.5239   -0.8668 H   0  0  0  0  0  0  0  0  0  0  0  0
    2.4001    0.3092   -0.6488 H   0  0  0  0  0  0  0  0  0  0  0  0
    3.3043    2.2930   -1.9089 H   0  0  0  0  0  0  0  0  0  0  0  0
    4.8384    1.4609   -2.1228 H   0  0  0  0  0  0  0  0  0  0  0  0
    8.7420    7.5831   -0.8163 H   0  0  0  0  0  0  0  0  0  0  0  0
    6.5787    8.7662   -0.6855 H   0  0  0  0  0  0  0  0  0  0  0  0
    8.8509    5.0924   -0.6636 H   0  0  0  0  0  0  0  0  0  0  0  0
    4.4471    7.5163   -0.4002 H   0  0  0  0  0  0  0  0  0  0  0  0
    5.1664    1.3666    0.3572 H   0  0  0  0  0  0  0  0  0  0  0  0
    3.6243    2.1900    0.6008 H   0  0  0  0  0  0  0  0  0  0  0  0
    3.5339    4.7322   -0.1240 H   0  0  0  0  0  0  0  0  0  0  0  0
  1 14  1  0  0  0  0
  1  2  1  0  0  0  0
  2 17  1  0  0  0  0
  2 18  1  0  0  0  0
  3  2  1  0  0  0  0
  3  8  1  0  0  0  0
  4  5  2  0  0  0  0
  4  6  1  0  0  0  0
  5  7  1  0  0  0  0
  6  9  2  0  0  0  0
  7 24  1  0  0  0  0
  7 10  2  0  0  0  0
  8 25  1  0  0  0  0
  8 26  1  0  0  0  0
  9 10  1  0  0  0  0
  9 12  1  0  0  0  0
 10 13  1  0  0  0  0
 11  8  1  0  0  0  0
 12 11  2  0  0  0  0
 13 11  1  0  0  0  0
 13 27  1  0  0  0  0
 15  1  1  0  0  0  0
 16  1  1  0  0  0  0
 19  3  1  0  0  0  0
 20  3  1  0  0  0  0
 21  4  1  0  0  0  0
 22  5  1  0  0  0  0
 23  6  1  0  0  0  0
M  END
>  <HBA>
1

>  <HBD>
1

>  <TPSA>
28.68

>  <cid>
22122

>  <dipole>
3.47

>  <excitation_energy_1>
4.938

>  <excitation_energy_2>
5.159

>  <excitation_energy_3>
5.276

>  <excitation_energy_4>
5.38

>  <homo_energy>
-5.842

>  <homo_lumo_gap>
5.633

>  <logP>
2.905

>  <lumo_energy>
-0.21

>  <melting_point>
113.28

>  <molecular_refractivity>
55.48

>  <oscillator_strength_1>
0.1083

>  <oscillator_strength_2>
0.1155

>  <oscillator_strength_3>
0.0048

>  <oscillator_strength_4>
0.0012

>  <open_babel_can_smiles>
CCCCc1nc2c([nH]1)cccc2

>  <mulliken_charges>
27
1   -0.442614
2   -0.247677
3   -0.248907
4   -0.143056
5   -0.150544
6   -0.183633
7   -0.173025
8   -0.344986
9   0.227609
10   0.347892
11   0.503204
12   -0.541719
13   -0.731809
14   0.145109
15   0.147436
16   0.141787
17   0.138222
18   0.129161
19   0.126472
20   0.156698
21   0.123203
22   0.12402
23   0.136285
24   0.123138
25   0.175048
26   0.13665
27   0.326035

>  <lowdin_charges>
27
1   -0.445262
2   -0.274365
3   -0.273161
4   -0.173021
5   -0.160872
6   -0.159407
7   -0.188396
8   -0.281673
9   0.009974
10   0.016052
11   0.079357
12   -0.207286
13   -0.208018
14   0.151053
15   0.150112
16   0.147876
17   0.144076
18   0.138418
19   0.138395
20   0.15345
21   0.156546
22   0.154079
23   0.165158
24   0.156089
25   0.172388
26   0.148081
27   0.290357

$$$$

