PCCDB-ID:  69131
public computational chemistry database (PCCDB) project, http://pccdb.org

 20 20  0  0  0  0  0  0  0  0999 V2000
   -0.8076    1.1175    0.0138 C   0  0  0  0  0  0  0  0  0  0  0  0
    0.8159   -1.1218   -0.0385 C   0  0  0  0  0  0  0  0  0  0  0  0
   -1.4049   -0.1461    0.0225 C   0  0  0  0  0  0  0  0  0  0  0  0
    1.4131    0.1418   -0.0498 C   0  0  0  0  0  0  0  0  0  0  0  0
    0.5731    1.2707   -0.0216 C   0  0  0  0  0  0  0  0  0  0  0  0
   -0.5649   -1.2750   -0.0044 C   0  0  0  0  0  0  0  0  0  0  0  0
   -2.9158   -0.1660    0.0608 C   0  0  0  0  0  0  0  0  0  0  0  0
    2.9238    0.1617   -0.0928 C   0  0  0  0  0  0  0  0  0  0  0  0
    1.1544    2.5187   -0.0292 O   0  0  0  0  0  0  0  0  0  0  0  0
   -1.1462   -2.5230    0.0034 O   0  0  0  0  0  0  0  0  0  0  0  0
   -3.5561    0.8622    0.0793 O   0  0  0  0  0  0  0  0  0  0  0  0
   -3.5319   -1.3601    0.0750 O   0  0  0  0  0  0  0  0  0  0  0  0
    3.5641   -0.8665   -0.1147 O   0  0  0  0  0  0  0  0  0  0  0  0
    3.5399    1.3558   -0.1061 O   0  0  0  0  0  0  0  0  0  0  0  0
   -1.4709    1.9782    0.0354 H   0  0  0  0  0  0  0  0  0  0  0  0
    1.4792   -1.9825   -0.0579 H   0  0  0  0  0  0  0  0  0  0  0  0
    0.4739    3.2097   -0.0149 H   0  0  0  0  0  0  0  0  0  0  0  0
   -0.4659   -3.2140   -0.0177 H   0  0  0  0  0  0  0  0  0  0  0  0
   -2.8795   -2.0880    0.0538 H   0  0  0  0  0  0  0  0  0  0  0  0
    2.8874    2.0837   -0.0893 H   0  0  0  0  0  0  0  0  0  0  0  0
  1  3  1  0  0  0  0
  1 15  1  0  0  0  0
  2  6  1  0  0  0  0
  3  7  1  0  0  0  0
  4  2  2  0  0  0  0
  4  5  1  0  0  0  0
  5  1  2  0  0  0  0
  6 10  1  0  0  0  0
  6  3  2  0  0  0  0
  7 12  1  0  0  0  0
  7 11  2  0  0  0  0
  8  4  1  0  0  0  0
  9  5  1  0  0  0  0
  9 17  1  0  0  0  0
 13  8  2  0  0  0  0
 14  8  1  0  0  0  0
 14 20  1  0  0  0  0
 16  2  1  0  0  0  0
 18 10  1  0  0  0  0
 19 12  1  0  0  0  0
M  END
>  <HBA>
6

>  <HBD>
4

>  <TPSA>
115.06

>  <cid>
69131

>  <dipole>
0.01

>  <excitation_energy_1>
3.97

>  <excitation_energy_2>
4.241

>  <excitation_energy_3>
4.387

>  <excitation_energy_4>
5.076

>  <homo_energy>
-6.846

>  <homo_lumo_gap>
4.55

>  <logP>
0.494

>  <lumo_energy>
-2.297

>  <melting_point>
268.93

>  <molecular_refractivity>
44.41

>  <oscillator_strength_1>
0.0973

>  <oscillator_strength_2>
0.0

>  <oscillator_strength_3>
0.0001

>  <oscillator_strength_4>
0.203

>  <open_babel_can_smiles>
OC(=O)c1cc(O)c(cc1O)C(=O)O

>  <mulliken_charges>
20
1   -0.246714
2   -0.246809
3   0.02065
4   0.020684
5   0.324864
6   0.324941
7   0.587915
8   0.587925
9   -0.692991
10   -0.693001
11   -0.458406
12   -0.592992
13   -0.458404
14   -0.592989
15   0.176202
16   0.176214
17   0.43509
18   0.435093
19   0.446367
20   0.44636

>  <lowdin_charges>
20
1   -0.168794
2   -0.168799
3   -0.061874
4   -0.061873
5   0.093402
6   0.093407
7   0.199404
8   0.199403
9   -0.386372
10   -0.386374
11   -0.253626
12   -0.350281
13   -0.253624
14   -0.350279
15   0.186701
16   0.186702
17   0.376868
18   0.376872
19   0.364571
20   0.364568

$$$$

