PCCDB-ID:  22409
public computational chemistry database (PCCDB) project, http://pccdb.org

 28 29  0  0  0  0  0  0  0  0999 V2000
    2.4811    0.8518   -0.0535 C   0  0  0  0  0  0  0  0  0  0  0  0
    2.4757   -0.5629   -0.0331 C   0  0  0  0  0  0  0  0  0  0  0  0
   -2.3783    0.8861    0.1046 C   0  0  0  0  0  0  0  0  0  0  0  0
    1.2916    1.5430   -0.0298 C   0  0  0  0  0  0  0  0  0  0  0  0
   -1.1848    1.5643    0.0491 C   0  0  0  0  0  0  0  0  0  0  0  0
   -2.3879   -0.5289    0.1324 C   0  0  0  0  0  0  0  0  0  0  0  0
    1.2873   -1.2588    0.0097 C   0  0  0  0  0  0  0  0  0  0  0  0
   -1.2931   -2.7754    0.1454 C   0  0  0  0  0  0  0  0  0  0  0  0
    0.0479    0.8575    0.0181 C   0  0  0  0  0  0  0  0  0  0  0  0
   -1.2193   -1.2643    0.1030 C   0  0  0  0  0  0  0  0  0  0  0  0
    0.0388   -0.5773    0.0398 C   0  0  0  0  0  0  0  0  0  0  0  0
   -0.8772   -4.7435   -1.2591 C   0  0  0  0  0  0  0  0  0  0  0  0
   -1.0813   -5.4934   -0.2375 N   0  0  0  0  0  0  0  0  0  0  0  0
   -0.6588   -5.1460   -2.5888 N   0  0  0  0  0  0  0  0  0  0  0  0
   -0.8807   -3.3595   -1.1338 N   0  0  0  0  0  0  0  0  0  0  0  0
    3.4253    1.3886   -0.0884 H   0  0  0  0  0  0  0  0  0  0  0  0
    3.4180   -1.1040   -0.0530 H   0  0  0  0  0  0  0  0  0  0  0  0
   -3.3190    1.4294    0.1305 H   0  0  0  0  0  0  0  0  0  0  0  0
    1.2852    2.6305   -0.0453 H   0  0  0  0  0  0  0  0  0  0  0  0
   -1.1652    2.6515    0.0304 H   0  0  0  0  0  0  0  0  0  0  0  0
   -3.3403   -1.0514    0.1856 H   0  0  0  0  0  0  0  0  0  0  0  0
    1.2967   -2.3429    0.0042 H   0  0  0  0  0  0  0  0  0  0  0  0
   -2.3106   -3.0903    0.4150 H   0  0  0  0  0  0  0  0  0  0  0  0
   -0.6365   -3.1869    0.9181 H   0  0  0  0  0  0  0  0  0  0  0  0
   -0.9403   -6.4775   -0.4732 H   0  0  0  0  0  0  0  0  0  0  0  0
   -0.4595   -6.1347   -2.6828 H   0  0  0  0  0  0  0  0  0  0  0  0
    0.0320   -4.5855   -3.0779 H   0  0  0  0  0  0  0  0  0  0  0  0
   -1.2622   -2.8777   -1.9406 H   0  0  0  0  0  0  0  0  0  0  0  0
  1  2  2  0  0  0  0
  1  4  1  0  0  0  0
  2  7  1  0  0  0  0
  3 18  1  0  0  0  0
  3  6  1  0  0  0  0
  4  9  2  0  0  0  0
  5  3  2  0  0  0  0
  6 21  1  0  0  0  0
  7 11  2  0  0  0  0
  8 23  1  0  0  0  0
  8 24  1  0  0  0  0
  9 11  1  0  0  0  0
  9  5  1  0  0  0  0
 10  6  2  0  0  0  0
 10  8  1  0  0  0  0
 11 10  1  0  0  0  0
 12 15  1  0  0  0  0
 12 13  1  0  0  0  0
 14 12  2  0  0  0  0
 15  8  1  0  0  0  0
 16  1  1  0  0  0  0
 17  2  1  0  0  0  0
 19  4  1  0  0  0  0
 20  5  1  0  0  0  0
 22  7  1  0  0  0  0
 25 13  1  0  0  0  0
 26 14  1  0  0  0  0
 27 14  1  0  0  0  0
 28 15  1  0  0  0  0
M  RAD  1  13   2
M  END
>  <HBA>
3

>  <HBD>
2

>  <TPSA>
64.4

>  <cid>
22409

>  <dipole>
2.74

>  <excitation_energy_1>
4.286

>  <excitation_energy_2>
4.397

>  <excitation_energy_3>
4.549

>  <excitation_energy_4>
5.17

>  <homo_energy>
-5.758

>  <homo_lumo_gap>
4.757

>  <logP>
3.014

>  <lumo_energy>
-1.001

>  <melting_point>
178.19

>  <molecular_refractivity>
62.82

>  <oscillator_strength_1>
0.0966

>  <oscillator_strength_2>
0.0023

>  <oscillator_strength_3>
0.0032

>  <oscillator_strength_4>
0.0154

>  <open_babel_can_smiles>
[NH]C(=[NH2])NCc1cccc2c1cccc2

>  <mulliken_charges>
28
1   -0.131734
2   -0.13752
3   -0.131199
4   -0.196025
5   -0.190173
6   -0.203741
7   -0.189909
8   -0.190193
9   0.137796
10   0.079513
11   0.081192
12   0.58566
13   -0.645159
14   -0.756372
15   -0.59916
16   0.128633
17   0.128088
18   0.130121
19   0.128432
20   0.128954
21   0.129239
22   0.151551
23   0.156659
24   0.179248
25   0.264164
26   0.318355
27   0.32307
28   0.320508

>  <lowdin_charges>
28
1   -0.159187
2   -0.159232
3   -0.161245
4   -0.155207
5   -0.152967
6   -0.168208
7   -0.154645
8   -0.187245
9   -0.000338
10   -0.016771
11   -0.00515
12   0.123131
13   -0.476745
14   -0.513548
15   -0.313317
16   0.158067
17   0.157703
18   0.15903
19   0.154642
20   0.155257
21   0.157447
22   0.167218
23   0.148163
24   0.16847
25   0.245187
26   0.273593
27   0.27936
28   0.276536

$$$$

