PCCDB-ID:  62351
public computational chemistry database (PCCDB) project, http://pccdb.org

 17 16  0  0  0  0  0  0  0  0999 V2000
    0.8764   -0.2965   -0.4353 C   0  0  0  0  0  0  0  0  0  0  0  0
    4.9537   -1.1095   -0.9585 C   0  0  0  0  0  0  0  0  0  0  0  0
    5.6974   -2.1836   -1.7610 C   0  0  0  0  0  0  0  0  0  0  0  0
    3.4324   -1.2336   -1.0675 C   0  0  0  0  0  0  0  0  0  0  0  0
    5.5568   -2.4873   -4.2863 C   0  0  0  0  0  0  0  0  0  0  0  0
    5.4119   -2.1041   -3.1663 N   0  0  0  0  0  0  0  0  0  0  0  0
    5.6754   -2.9165   -5.8162 S   0  0  0  0  0  0  0  0  0  0  0  0
    2.6235    0.0444   -0.0269 S   0  0  0  0  0  0  0  0  0  0  0  0
    0.2711    0.4148    0.1325 H   0  0  0  0  0  0  0  0  0  0  0  0
    0.5910   -1.3122   -0.1444 H   0  0  0  0  0  0  0  0  0  0  0  0
    0.6832   -0.1506   -1.5025 H   0  0  0  0  0  0  0  0  0  0  0  0
    5.2730   -0.1184   -1.3001 H   0  0  0  0  0  0  0  0  0  0  0  0
    5.2642   -1.2064    0.0891 H   0  0  0  0  0  0  0  0  0  0  0  0
    5.4189   -3.1850   -1.4058 H   0  0  0  0  0  0  0  0  0  0  0  0
    6.7796   -2.0706   -1.6181 H   0  0  0  0  0  0  0  0  0  0  0  0
    3.1062   -2.2278   -0.7367 H   0  0  0  0  0  0  0  0  0  0  0  0
    3.1185   -1.1020   -2.1088 H   0  0  0  0  0  0  0  0  0  0  0  0
  1 10  1  0  0  0  0
  1  8  1  0  0  0  0
  1  9  1  0  0  0  0
  2 13  1  0  0  0  0
  3 15  1  0  0  0  0
  3 14  1  0  0  0  0
  3  2  1  0  0  0  0
  4  2  1  0  0  0  0
  4 16  1  0  0  0  0
  4  8  1  0  0  0  0
  5  6  2  0  0  0  0
  6  3  1  0  0  0  0
  7  5  2  0  0  0  0
 11  1  1  0  0  0  0
 12  2  1  0  0  0  0
 17  4  1  0  0  0  0
M  END
>  <HBA>
3

>  <HBD>
0

>  <TPSA>
69.75

>  <cid>
62351

>  <dipole>
2.73

>  <excitation_energy_1>
4.632

>  <excitation_energy_2>
4.736

>  <excitation_energy_3>
5.127

>  <excitation_energy_4>
5.159

>  <homo_energy>
-6.12

>  <homo_lumo_gap>
5.638

>  <logP>
1.842

>  <lumo_energy>
-0.482

>  <melting_point>
32.48

>  <molecular_refractivity>
42.9

>  <oscillator_strength_1>
0.0007

>  <oscillator_strength_2>
0.0013

>  <oscillator_strength_3>
0.0125

>  <oscillator_strength_4>
0.0038

>  <open_babel_can_smiles>
CSCCCN=C=S

>  <mulliken_charges>
17
1   -0.585016
2   -0.279345
3   -0.156288
4   -0.403505
5   0.207423
6   -0.335948
7   -0.126286
8   0.091519
9   0.186214
10   0.177036
11   0.180072
12   0.173877
13   0.16364
14   0.176712
15   0.181789
16   0.163318
17   0.184789

>  <lowdin_charges>
17
1   -0.543814
2   -0.278104
3   -0.164797
4   -0.373448
5   -0.046528
6   -0.107942
7   -0.044394
8   0.094246
9   0.179115
10   0.160982
11   0.161753
12   0.162564
13   0.159564
14   0.162274
15   0.16619
16   0.151443
17   0.160894

$$$$

