PCCDB-ID:  7054
public computational chemistry database (PCCDB) project, http://pccdb.org

 16 17  0  0  0  0  0  0  0  0999 V2000
    1.9979    1.0682   -0.0006 C   0  0  0  0  0  0  0  0  0  0  0  0
    2.2222   -0.3142   -0.0019 C   0  0  0  0  0  0  0  0  0  0  0  0
    0.6914    1.5624    0.0008 C   0  0  0  0  0  0  0  0  0  0  0  0
    1.1677   -1.2373   -0.0022 C   0  0  0  0  0  0  0  0  0  0  0  0
   -0.3652    0.6563    0.0009 C   0  0  0  0  0  0  0  0  0  0  0  0
   -0.1266   -0.7330   -0.0007 C   0  0  0  0  0  0  0  0  0  0  0  0
   -1.8224    0.8630    0.0009 C   0  0  0  0  0  0  0  0  0  0  0  0
   -2.4377   -0.5833   -0.0001 C   0  0  0  0  0  0  0  0  0  0  0  0
   -1.3415   -1.4336   -0.0010 N   0  0  0  0  0  0  0  0  0  0  0  0
   -2.4733    1.8844    0.0010 O   0  0  0  0  0  0  0  0  0  0  0  0
   -3.6058   -0.8961    0.0000 O   0  0  0  0  0  0  0  0  0  0  0  0
    2.8411    1.7517   -0.0006 H   0  0  0  0  0  0  0  0  0  0  0  0
    3.2427   -0.6875   -0.0023 H   0  0  0  0  0  0  0  0  0  0  0  0
    0.4858    2.6289    0.0014 H   0  0  0  0  0  0  0  0  0  0  0  0
    1.3613   -2.3059   -0.0024 H   0  0  0  0  0  0  0  0  0  0  0  0
   -1.4313   -2.4403   -0.0015 H   0  0  0  0  0  0  0  0  0  0  0  0
  1  3  2  0  0  0  0
  2  1  1  0  0  0  0
  3  5  1  0  0  0  0
  3 14  1  0  0  0  0
  4  2  2  0  0  0  0
  4  6  1  0  0  0  0
  6  5  2  0  0  0  0
  7  5  1  0  0  0  0
  7 10  2  0  0  0  0
  8 11  2  0  0  0  0
  8  7  1  0  0  0  0
  9  6  1  0  0  0  0
  9  8  1  0  0  0  0
 12  1  1  0  0  0  0
 13  2  1  0  0  0  0
 15  4  1  0  0  0  0
 16  9  1  0  0  0  0
M  END
>  <HBA>
3

>  <HBD>
1

>  <TPSA>
46.17

>  <cid>
7054

>  <dipole>
5.93

>  <excitation_energy_1>
2.675

>  <excitation_energy_2>
3.073

>  <excitation_energy_3>
4.352

>  <excitation_energy_4>
4.36

>  <homo_energy>
-6.55

>  <homo_lumo_gap>
3.899

>  <logP>
0.959

>  <lumo_energy>
-2.65

>  <melting_point>
118.4

>  <molecular_refractivity>
42.16

>  <oscillator_strength_1>
0.0

>  <oscillator_strength_2>
0.0232

>  <oscillator_strength_3>
0.0002

>  <oscillator_strength_4>
0.0759

>  <open_babel_can_smiles>
O=C1C(=O)Nc2c1cccc2

>  <mulliken_charges>
16
1   -0.140987
2   -0.126493
3   -0.168339
4   -0.176914
5   0.062402
6   0.342194
7   0.317991
8   0.574799
9   -0.742849
10   -0.428437
11   -0.452268
12   0.14353
13   0.147382
14   0.165499
15   0.142908
16   0.339581

>  <lowdin_charges>
16
1   -0.173406
2   -0.117639
3   -0.106703
4   -0.18846
5   -0.082102
6   0.072475
7   0.126864
8   0.137012
9   -0.240401
10   -0.179628
11   -0.217425
12   0.166547
13   0.166167
14   0.175674
15   0.164126
16   0.296899

$$$$

