PCCDB-ID:  66086
public computational chemistry database (PCCDB) project, http://pccdb.org

 21 21  0  0  0  0  0  0  0  0999 V2000
    3.1012   -1.4877   -0.3042 C   0  0  0  0  0  0  0  0  0  0  0  0
    1.1216   -0.0029    2.6943 C   0  0  0  0  0  0  0  0  0  0  0  0
    2.3446   -0.1541   -0.2440 C   0  0  0  0  0  0  0  0  0  0  0  0
    2.5868    0.2485    2.3137 C   0  0  0  0  0  0  0  0  0  0  0  0
    2.6249    2.2562    0.6754 C   0  0  0  0  0  0  0  0  0  0  0  0
    4.0020    1.6326    0.6374 C   0  0  0  0  0  0  0  0  0  0  0  0
    2.7866    0.7671    0.8911 C   0  0  0  0  0  0  0  0  0  0  0  0
    2.7821   -2.0804   -1.1691 H   0  0  0  0  0  0  0  0  0  0  0  0
    2.9261   -2.0948    0.5914 H   0  0  0  0  0  0  0  0  0  0  0  0
    4.1822   -1.3240   -0.3876 H   0  0  0  0  0  0  0  0  0  0  0  0
    1.0377   -0.3151    3.7415 H   0  0  0  0  0  0  0  0  0  0  0  0
    0.6706   -0.7911    2.0807 H   0  0  0  0  0  0  0  0  0  0  0  0
    0.5198    0.9043    2.5637 H   0  0  0  0  0  0  0  0  0  0  0  0
    1.2660   -0.3486   -0.1638 H   0  0  0  0  0  0  0  0  0  0  0  0
    2.4817    0.3766   -1.1957 H   0  0  0  0  0  0  0  0  0  0  0  0
    3.1661   -0.6743    2.4559 H   0  0  0  0  0  0  0  0  0  0  0  0
    3.0151    0.9797    3.0124 H   0  0  0  0  0  0  0  0  0  0  0  0
    2.1918    2.5995   -0.2612 H   0  0  0  0  0  0  0  0  0  0  0  0
    2.3684    2.8760    1.5316 H   0  0  0  0  0  0  0  0  0  0  0  0
    4.6775    1.8306    1.4663 H   0  0  0  0  0  0  0  0  0  0  0  0
    4.4998    1.5519   -0.3263 H   0  0  0  0  0  0  0  0  0  0  0  0
  1  3  1  0  0  0  0
  1  9  1  0  0  0  0
  2 11  1  0  0  0  0
  3 14  1  0  0  0  0
  3  7  1  0  0  0  0
  4 16  1  0  0  0  0
  4  2  1  0  0  0  0
  4 17  1  0  0  0  0
  5  7  1  0  0  0  0
  5 19  1  0  0  0  0
  6  5  1  0  0  0  0
  6  7  1  0  0  0  0
  6 20  1  0  0  0  0
  7  4  1  0  0  0  0
  8  1  1  0  0  0  0
 10  1  1  0  0  0  0
 12  2  1  0  0  0  0
 13  2  1  0  0  0  0
 15  3  1  0  0  0  0
 18  5  1  0  0  0  0
 21  6  1  0  0  0  0
M  END
>  <HBA>
0

>  <HBD>
0

>  <TPSA>
0.0

>  <cid>
66086

>  <dipole>
0.11

>  <excitation_energy_1>
6.712

>  <excitation_energy_2>
6.934

>  <excitation_energy_3>
7.091

>  <excitation_energy_4>
7.102

>  <homo_energy>
-7.108

>  <homo_lumo_gap>
9.374

>  <logP>
2.587

>  <lumo_energy>
2.267

>  <melting_point>
14.04

>  <molecular_refractivity>
33.39

>  <oscillator_strength_1>
0.0132

>  <oscillator_strength_2>
0.0076

>  <oscillator_strength_3>
0.002

>  <oscillator_strength_4>
0.0119

>  <open_babel_can_smiles>
CCC1(CC)CC1

>  <mulliken_charges>
21
1   -0.446331
2   -0.446322
3   -0.279016
4   -0.279303
5   -0.333245
6   -0.333261
7   0.156061
8   0.140323
9   0.145268
10   0.145848
11   0.140331
12   0.145231
13   0.145852
14   0.135615
15   0.125698
16   0.135696
17   0.125749
18   0.14396
19   0.143962
20   0.143992
21   0.143891

>  <lowdin_charges>
21
1   -0.446243
2   -0.447346
3   -0.26421
4   -0.267588
5   -0.322722
6   -0.323077
7   -0.006633
8   0.149843
9   0.147449
10   0.146993
11   0.147984
12   0.148163
13   0.149114
14   0.140253
15   0.141761
16   0.142376
17   0.143099
18   0.155127
19   0.155431
20   0.155651
21   0.154576

$$$$

