PCCDB-ID:  11521
public computational chemistry database (PCCDB) project, http://pccdb.org

 17 16  0  0  0  0  0  0  0  0999 V2000
    0.8278   -1.0828   -0.3972 C   0  0  0  0  0  0  0  0  0  0  0  0
    2.0985   -0.2380   -0.2569 C   0  0  0  0  0  0  0  0  0  0  0  0
    3.0247   -0.7830    0.8192 C   0  0  0  0  0  0  0  0  0  0  0  0
    5.1568   -0.1836    1.7292 C   0  0  0  0  0  0  0  0  0  0  0  0
    6.2345    0.4929    1.8720 N   0  0  0  0  0  0  0  0  0  0  0  0
    4.9614   -1.2741    2.5129 O   0  0  0  0  0  0  0  0  0  0  0  0
    6.2746    1.5954    0.9736 O   0  0  0  0  0  0  0  0  0  0  0  0
    4.1798    0.0834    0.8627 O   0  0  0  0  0  0  0  0  0  0  0  0
    0.1771   -0.6782   -1.1792 H   0  0  0  0  0  0  0  0  0  0  0  0
    0.2526   -1.1016    0.5364 H   0  0  0  0  0  0  0  0  0  0  0  0
    1.0628   -2.1201   -0.6647 H   0  0  0  0  0  0  0  0  0  0  0  0
    1.8416    0.7986   -0.0080 H   0  0  0  0  0  0  0  0  0  0  0  0
    2.6435   -0.2081   -1.2080 H   0  0  0  0  0  0  0  0  0  0  0  0
    3.3444   -1.8062    0.5917 H   0  0  0  0  0  0  0  0  0  0  0  0
    2.5372   -0.7907    1.8007 H   0  0  0  0  0  0  0  0  0  0  0  0
    5.7487   -1.3339    3.0823 H   0  0  0  0  0  0  0  0  0  0  0  0
    7.1252    1.9940    1.2113 H   0  0  0  0  0  0  0  0  0  0  0  0
  1  2  1  0  0  0  0
  1 10  1  0  0  0  0
  2 12  1  0  0  0  0
  2  3  1  0  0  0  0
  3  8  1  0  0  0  0
  3 15  1  0  0  0  0
  4  5  2  0  0  0  0
  4  6  1  0  0  0  0
  6 16  1  0  0  0  0
  7 17  1  0  0  0  0
  7  5  1  0  0  0  0
  8  4  1  0  0  0  0
  9  1  1  0  0  0  0
 11  1  1  0  0  0  0
 13  2  1  0  0  0  0
 14  3  1  0  0  0  0
M  END
>  <HBA>
4

>  <HBD>
2

>  <TPSA>
58.56

>  <cid>
11521

>  <dipole>
1.61

>  <excitation_energy_1>
5.179

>  <excitation_energy_2>
5.488

>  <excitation_energy_3>
5.894

>  <excitation_energy_4>
6.441

>  <homo_energy>
-5.655

>  <homo_lumo_gap>
7.285

>  <logP>
0.903

>  <lumo_energy>
1.63

>  <melting_point>
78.63

>  <molecular_refractivity>
26.55

>  <oscillator_strength_1>
0.0013

>  <oscillator_strength_2>
0.0006

>  <oscillator_strength_3>
0.0

>  <oscillator_strength_4>
0.0205

>  <open_babel_can_smiles>
CCCO/C(=N\O)/O

>  <mulliken_charges>
17
1   -0.455174
2   -0.272606
3   -0.022311
4   0.781061
5   -0.353657
6   -0.609025
7   -0.513252
8   -0.464084
9   0.155685
10   0.147937
11   0.147844
12   0.156529
13   0.156571
14   0.154153
15   0.15401
16   0.425449
17   0.410869

>  <lowdin_charges>
17
1   -0.444688
2   -0.277286
3   -0.117415
4   0.171547
5   -0.180623
6   -0.368673
7   -0.391061
8   -0.17468
9   0.158644
10   0.149661
11   0.148463
12   0.152852
13   0.153923
14   0.146831
15   0.147483
16   0.373166
17   0.351856

$$$$

