PCCDB-ID:  34227
public computational chemistry database (PCCDB) project, http://pccdb.org

 22 22  0  0  0  0  0  0  0  0999 V2000
    2.8008    1.6618   -0.0815 C   0  0  0  0  0  0  0  0  0  0  0  0
    4.6860   -1.5674    3.3153 C   0  0  0  0  0  0  0  0  0  0  0  0
    4.9055   -0.2133    3.1002 C   0  0  0  0  0  0  0  0  0  0  0  0
    3.7851   -2.2738    2.5087 C   0  0  0  0  0  0  0  0  0  0  0  0
    4.2248    0.4487    2.0680 C   0  0  0  0  0  0  0  0  0  0  0  0
    1.1646   -4.1444   -0.4422 C   0  0  0  0  0  0  0  0  0  0  0  0
    2.1376   -3.7025    0.5651 C   0  0  0  0  0  0  0  0  0  0  0  0
    3.0866   -1.6287    1.4844 C   0  0  0  0  0  0  0  0  0  0  0  0
    3.3266   -0.2472    1.2675 C   0  0  0  0  0  0  0  0  0  0  0  0
    0.4105   -4.4977   -1.2495 N   0  0  0  0  0  0  0  0  0  0  0  0
    2.1383   -2.2560    0.6732 N   0  0  0  0  0  0  0  0  0  0  0  0
    2.6171    0.2882    0.2211 O   0  0  0  0  0  0  0  0  0  0  0  0
    2.1559    1.8705   -0.9370 H   0  0  0  0  0  0  0  0  0  0  0  0
    3.8434    1.8778   -0.3495 H   0  0  0  0  0  0  0  0  0  0  0  0
    2.5045    2.2991    0.7615 H   0  0  0  0  0  0  0  0  0  0  0  0
    5.2124   -2.0903    4.1085 H   0  0  0  0  0  0  0  0  0  0  0  0
    5.6032    0.3398    3.7217 H   0  0  0  0  0  0  0  0  0  0  0  0
    3.6264   -3.3320    2.6908 H   0  0  0  0  0  0  0  0  0  0  0  0
    4.4042    1.5043    1.8970 H   0  0  0  0  0  0  0  0  0  0  0  0
    3.1250   -4.1227    0.3014 H   0  0  0  0  0  0  0  0  0  0  0  0
    1.8529   -4.1496    1.5269 H   0  0  0  0  0  0  0  0  0  0  0  0
    1.9651   -1.7601   -0.1922 H   0  0  0  0  0  0  0  0  0  0  0  0
  1 12  1  0  0  0  0
  1 15  1  0  0  0  0
  2 16  1  0  0  0  0
  3  2  1  0  0  0  0
  3 17  1  0  0  0  0
  4 18  1  0  0  0  0
  4  2  2  0  0  0  0
  5  3  2  0  0  0  0
  6  7  1  0  0  0  0
  7 11  1  0  0  0  0
  7 21  1  0  0  0  0
  8  4  1  0  0  0  0
  9  8  2  0  0  0  0
  9  5  1  0  0  0  0
 10  6  3  0  0  0  0
 11  8  1  0  0  0  0
 12  9  1  0  0  0  0
 13  1  1  0  0  0  0
 14  1  1  0  0  0  0
 19  5  1  0  0  0  0
 20  7  1  0  0  0  0
 22 11  1  0  0  0  0
M  END
>  <HBA>
3

>  <HBD>
1

>  <TPSA>
45.05

>  <cid>
34227

>  <dipole>
3.7

>  <excitation_energy_1>
4.697

>  <excitation_energy_2>
4.755

>  <excitation_energy_3>
4.985

>  <excitation_energy_4>
5.153

>  <homo_energy>
-5.418

>  <homo_lumo_gap>
5.581

>  <logP>
1.704

>  <lumo_energy>
0.163

>  <melting_point>
77.21

>  <molecular_refractivity>
46.8

>  <oscillator_strength_1>
0.0053

>  <oscillator_strength_2>
0.0526

>  <oscillator_strength_3>
0.0088

>  <oscillator_strength_4>
0.1395

>  <open_babel_can_smiles>
N#CCNc1ccccc1OC

>  <mulliken_charges>
22
1   -0.214689
2   -0.139421
3   -0.142564
4   -0.197852
5   -0.201637
6   0.335918
7   -0.152863
8   0.309731
9   0.342245
10   -0.465773
11   -0.670372
12   -0.535685
13   0.172123
14   0.154937
15   0.157566
16   0.125871
17   0.125791
18   0.124886
19   0.13235
20   0.187692
21   0.20299
22   0.348755

>  <lowdin_charges>
22
1   -0.274797
2   -0.164683
3   -0.174126
4   -0.204171
5   -0.203471
6   -0.016205
7   -0.185431
8   0.03427
9   0.074369
10   -0.109406
11   -0.295003
12   -0.212291
13   0.164699
14   0.145648
15   0.149369
16   0.15862
17   0.158837
18   0.155206
19   0.161309
20   0.165519
21   0.180906
22   0.290832

$$$$

