PCCDB-ID:  46494
public computational chemistry database (PCCDB) project, http://pccdb.org

 37 37  0  0  1  0  0  0  0  0999 V2000
    1.1628   -0.6930    0.3845 C   0  0  0  0  0  0  0  0  0  0  0  0
    5.9146    3.9169   -3.5965 C   0  0  0  0  0  0  0  0  0  0  0  0
    6.9919    2.1818   -2.1091 C   0  0  0  0  0  0  0  0  0  0  0  0
    2.0093    3.7370    1.8458 C   0  0  0  0  0  0  0  0  0  0  0  0
    2.4847   -0.4471   -0.3492 C   0  0  0  0  0  0  0  0  0  0  0  0
    4.4503    2.5005   -2.1054 C   0  0  0  0  0  0  0  0  0  0  0  0
    4.0951    1.1120   -1.5555 C   0  0  0  0  0  0  0  0  0  0  0  0
    5.7486    2.5390   -2.9383 C   0  0  0  0  0  0  0  0  0  0  0  0
    1.5960    1.5028   -1.6810 C   0  0  0  0  0  0  0  0  0  0  0  0
    2.8539    1.8834    0.4706 C   0  0  0  0  0  0  0  0  0  0  0  0
    0.8971    3.2072   -0.2787 C   0  0  0  0  0  0  0  0  0  0  0  0
    2.7327    1.0284   -0.7993 C   0  0  1  0  0  0  0  0  0  0  0  0
    0.7819    2.4611   -1.4522 N   0  0  0  0  0  0  0  0  0  0  0  0
    1.9374    2.9009    0.6413 N   0  0  0  0  0  0  0  0  0  0  0  0
    1.4097    0.8384   -2.8386 O   0  0  0  0  0  0  0  0  0  0  0  0
    3.7344    1.6417    1.2832 O   0  0  0  0  0  0  0  0  0  0  0  0
    0.1366    4.1162   -0.0186 O   0  0  0  0  0  0  0  0  0  0  0  0
    1.0847   -1.7464    0.6728 H   0  0  0  0  0  0  0  0  0  0  0  0
    0.2954   -0.4537   -0.2407 H   0  0  0  0  0  0  0  0  0  0  0  0
    1.0961   -0.0971    1.3011 H   0  0  0  0  0  0  0  0  0  0  0  0
    6.8098    3.9467   -4.2282 H   0  0  0  0  0  0  0  0  0  0  0  0
    6.0174    4.7037   -2.8381 H   0  0  0  0  0  0  0  0  0  0  0  0
    5.0508    4.1687   -4.2231 H   0  0  0  0  0  0  0  0  0  0  0  0
    7.8975    2.2349   -2.7242 H   0  0  0  0  0  0  0  0  0  0  0  0
    6.9383    1.1707   -1.6909 H   0  0  0  0  0  0  0  0  0  0  0  0
    7.1168    2.8819   -1.2728 H   0  0  0  0  0  0  0  0  0  0  0  0
    2.8563    3.3949    2.4368 H   0  0  0  0  0  0  0  0  0  0  0  0
    1.0813    3.6462    2.4148 H   0  0  0  0  0  0  0  0  0  0  0  0
    2.1361    4.7834    1.5601 H   0  0  0  0  0  0  0  0  0  0  0  0
    2.5445   -1.1002   -1.2309 H   0  0  0  0  0  0  0  0  0  0  0  0
    3.3273   -0.7168    0.2950 H   0  0  0  0  0  0  0  0  0  0  0  0
    4.5465    3.2085   -1.2696 H   0  0  0  0  0  0  0  0  0  0  0  0
    3.6262    2.8686   -2.7317 H   0  0  0  0  0  0  0  0  0  0  0  0
    4.8536    0.7759   -0.8431 H   0  0  0  0  0  0  0  0  0  0  0  0
    4.0960    0.3801   -2.3774 H   0  0  0  0  0  0  0  0  0  0  0  0
    5.6510    1.7932   -3.7434 H   0  0  0  0  0  0  0  0  0  0  0  0
    2.0775    0.1398   -2.9288 H   0  0  0  0  0  0  0  0  0  0  0  0
  1 18  1  0  0  0  0
  1 20  1  0  0  0  0
  2  8  1  0  0  0  0
  2 22  1  0  0  0  0
  3 25  1  0  0  0  0
  3 26  1  0  0  0  0
  4 28  1  0  0  0  0
  4 27  1  0  0  0  0
  5 31  1  0  0  0  0
  5  1  1  0  0  0  0
  6  7  1  0  0  0  0
  6 32  1  0  0  0  0
  7 34  1  0  0  0  0
  8  3  1  0  0  0  0
  8  6  1  0  0  0  0
  9 13  2  0  0  0  0
  9 12  1  0  0  0  0
 10 14  1  0  0  0  0
 10 16  2  0  0  0  0
 11 17  2  0  0  0  0
 11 14  1  0  0  0  0
 12  7  1  6  0  0  0
 12  5  1  0  0  0  0
 12 10  1  0  0  0  0
 13 11  1  0  0  0  0
 14  4  1  0  0  0  0
 15  9  1  0  0  0  0
 19  1  1  0  0  0  0
 21  2  1  0  0  0  0
 23  2  1  0  0  0  0
 24  3  1  0  0  0  0
 29  4  1  0  0  0  0
 30  5  1  0  0  0  0
 33  6  1  0  0  0  0
 35  7  1  0  0  0  0
 36  8  1  0  0  0  0
 37 15  1  0  0  0  0
M  END
>  <HBA>
5

>  <HBD>
1

>  <TPSA>
66.48

>  <cid>
46494

>  <dipole>
5.01

>  <excitation_energy_1>
4.509

>  <excitation_energy_2>
4.84

>  <excitation_energy_3>
5.157

>  <excitation_energy_4>
5.272

>  <homo_energy>
-7.211

>  <homo_lumo_gap>
5.793

>  <logP>
1.794

>  <lumo_energy>
-1.418

>  <melting_point>
115.04

>  <molecular_refractivity>
71.94

>  <oscillator_strength_1>
0.0004

>  <oscillator_strength_2>
0.0004

>  <oscillator_strength_3>
0.0021

>  <oscillator_strength_4>
0.0453

>  <open_babel_can_smiles>
CC[C@@]1(CCC(C)C)C(=NC(=O)N(C1=O)C)O

>  <mulliken_charges>
37
1   -0.470695
2   -0.445031
3   -0.446552
4   -0.322751
5   -0.26747
6   -0.275733
7   -0.286212
8   -0.070225
9   0.558673
10   0.650561
11   0.704091
12   -0.141239
13   -0.497797
14   -0.517468
15   -0.572874
16   -0.517093
17   -0.46625
18   0.160851
19   0.168782
20   0.167703
21   0.14433
22   0.144195
23   0.146479
24   0.145429
25   0.144129
26   0.147481
27   0.195747
28   0.18175
29   0.182128
30   0.124477
31   0.184467
32   0.148665
33   0.150186
34   0.187038
35   0.117535
36   0.11961
37   0.423083

>  <lowdin_charges>
37
1   -0.452558
2   -0.445273
3   -0.446969
4   -0.35068
5   -0.265736
6   -0.28746
7   -0.271365
8   -0.118994
9   0.161572
10   0.165959
11   0.183557
12   -0.056856
13   -0.185029
14   -0.089927
15   -0.321972
16   -0.284772
17   -0.243829
18   0.160607
19   0.159755
20   0.159989
21   0.150868
22   0.149132
23   0.151249
24   0.15174
25   0.147482
26   0.150686
27   0.180652
28   0.169077
29   0.168139
30   0.137633
31   0.170579
32   0.149869
33   0.150493
34   0.171591
35   0.134538
36   0.133958
37   0.362297

$$$$

