PCCDB-ID:  1672
public computational chemistry database (PCCDB) project, http://pccdb.org

 17 16  0  0  0  0  0  0  0  0999 V2000
    1.0804   -2.1812   -0.6905 C   0  0  0  0  0  0  0  0  0  0  0  0
    4.3189   -1.1910    0.7578 C   0  0  0  0  0  0  0  0  0  0  0  0
    4.8765   -2.5323    1.2385 C   0  0  0  0  0  0  0  0  0  0  0  0
    2.8075   -1.1922    0.5700 C   0  0  0  0  0  0  0  0  0  0  0  0
    6.3306   -2.4353    1.4330 N   0  0  0  0  0  0  0  0  0  0  0  0
    2.4693   -2.1057   -0.4610 O   0  0  0  0  0  0  0  0  0  0  0  0
    0.9231   -2.9018   -1.4977 H   0  0  0  0  0  0  0  0  0  0  0  0
    0.6626   -1.2073   -0.9953 H   0  0  0  0  0  0  0  0  0  0  0  0
    0.5350   -2.5231    0.2046 H   0  0  0  0  0  0  0  0  0  0  0  0
    4.7877   -0.9161   -0.1974 H   0  0  0  0  0  0  0  0  0  0  0  0
    4.5901   -0.4126    1.4816 H   0  0  0  0  0  0  0  0  0  0  0  0
    4.5649   -3.3224    0.5364 H   0  0  0  0  0  0  0  0  0  0  0  0
    4.4281   -2.7778    2.2107 H   0  0  0  0  0  0  0  0  0  0  0  0
    2.4541   -0.1798    0.3081 H   0  0  0  0  0  0  0  0  0  0  0  0
    2.3024   -1.4782    1.5103 H   0  0  0  0  0  0  0  0  0  0  0  0
    6.7793   -2.2960    0.5274 H   0  0  0  0  0  0  0  0  0  0  0  0
    6.6872   -3.3247    1.7805 H   0  0  0  0  0  0  0  0  0  0  0  0
  1  6  1  0  0  0  0
  1  9  1  0  0  0  0
  2  3  1  0  0  0  0
  2 11  1  0  0  0  0
  3  5  1  0  0  0  0
  3 13  1  0  0  0  0
  4  2  1  0  0  0  0
  4 15  1  0  0  0  0
  5 17  1  0  0  0  0
  6  4  1  0  0  0  0
  7  1  1  0  0  0  0
  8  1  1  0  0  0  0
 10  2  1  0  0  0  0
 12  3  1  0  0  0  0
 14  4  1  0  0  0  0
 16  5  1  0  0  0  0
M  END
>  <HBA>
2

>  <HBD>
1

>  <TPSA>
35.25

>  <cid>
1672

>  <dipole>
1.13

>  <excitation_energy_1>
5.613

>  <excitation_energy_2>
6.206

>  <excitation_energy_3>
6.412

>  <excitation_energy_4>
6.575

>  <homo_energy>
-6.144

>  <homo_lumo_gap>
8.523

>  <logP>
0.682

>  <lumo_energy>
2.378

>  <melting_point>
20.06

>  <molecular_refractivity>
25.13

>  <oscillator_strength_1>
0.016

>  <oscillator_strength_2>
0.0048

>  <oscillator_strength_3>
0.0088

>  <oscillator_strength_4>
0.0254

>  <open_babel_can_smiles>
COCCCN

>  <mulliken_charges>
17
1   -0.189279
2   -0.265075
3   -0.134864
4   -0.016715
5   -0.719183
6   -0.459522
7   0.156372
8   0.128028
9   0.128317
10   0.137622
11   0.147682
12   0.136871
13   0.131765
14   0.118662
15   0.114826
16   0.290781
17   0.293712

>  <lowdin_charges>
17
1   -0.28014
2   -0.285109
3   -0.207336
4   -0.127863
5   -0.560368
6   -0.275395
7   0.154677
8   0.130369
9   0.131221
10   0.145045
11   0.155159
12   0.129818
13   0.137996
14   0.126243
15   0.123105
16   0.249775
17   0.252803

$$$$

