PCCDB-ID:  24152
public computational chemistry database (PCCDB) project, http://pccdb.org

 28 28  0  0  1  0  0  0  0  0999 V2000
    0.8556    0.1680   -0.4939 C   0  0  0  0  0  0  0  0  0  0  0  0
    2.4275   -0.0062    1.4506 C   0  0  0  0  0  0  0  0  0  0  0  0
    4.4142    0.1443   -2.8173 C   0  0  0  0  0  0  0  0  0  0  0  0
    5.5583   -0.0289   -0.6009 C   0  0  0  0  0  0  0  0  0  0  0  0
    3.2487    1.1724   -0.7374 C   0  0  2  0  0  0  0  0  0  0  0  0
    3.1895   -1.0352   -0.8019 C   0  0  2  0  0  0  0  0  0  0  0  0
    2.3234    0.0769   -0.0745 C   0  0  0  0  0  0  0  0  0  0  0  0
    4.1975    0.0620   -1.3035 C   0  0  0  0  0  0  0  0  0  0  0  0
    3.8695    2.2518    0.0162 N   0  0  0  0  0  0  0  0  0  0  0  0
    2.6206   -1.8932   -1.8335 N   0  0  0  0  0  0  0  0  0  0  0  0
    0.3896    1.0671   -0.0698 H   0  0  0  0  0  0  0  0  0  0  0  0
    0.2760   -0.6974   -0.1459 H   0  0  0  0  0  0  0  0  0  0  0  0
    0.7379    0.2274   -1.5826 H   0  0  0  0  0  0  0  0  0  0  0  0
    2.0021    0.8826    1.9346 H   0  0  0  0  0  0  0  0  0  0  0  0
    3.4643   -0.1048    1.7940 H   0  0  0  0  0  0  0  0  0  0  0  0
    1.8808   -0.8808    1.8261 H   0  0  0  0  0  0  0  0  0  0  0  0
    5.0098    1.0331   -3.0596 H   0  0  0  0  0  0  0  0  0  0  0  0
    3.4705    0.2266   -3.3698 H   0  0  0  0  0  0  0  0  0  0  0  0
    4.9405   -0.7392   -3.1944 H   0  0  0  0  0  0  0  0  0  0  0  0
    6.1613    0.8651   -0.7946 H   0  0  0  0  0  0  0  0  0  0  0  0
    6.1113   -0.9037   -0.9645 H   0  0  0  0  0  0  0  0  0  0  0  0
    5.4627   -0.1377    0.4865 H   0  0  0  0  0  0  0  0  0  0  0  0
    2.7070    1.6510   -1.5634 H   0  0  0  0  0  0  0  0  0  0  0  0
    3.6565   -1.7091   -0.0726 H   0  0  0  0  0  0  0  0  0  0  0  0
    4.2938    1.9018    0.8726 H   0  0  0  0  0  0  0  0  0  0  0  0
    3.1684    2.9340    0.3000 H   0  0  0  0  0  0  0  0  0  0  0  0
    2.0783   -1.3533   -2.5046 H   0  0  0  0  0  0  0  0  0  0  0  0
    1.9714   -2.5576   -1.4142 H   0  0  0  0  0  0  0  0  0  0  0  0
  1 12  1  0  0  0  0
  1  7  1  0  0  0  0
  1 11  1  0  0  0  0
  2 15  1  0  0  0  0
  2 16  1  0  0  0  0
  2 14  1  0  0  0  0
  3  8  1  0  0  0  0
  4 22  1  0  0  0  0
  5 23  1  6  0  0  0
  5  7  1  0  0  0  0
  5  9  1  0  0  0  0
  6  7  1  0  0  0  0
  6 24  1  1  0  0  0
  7  2  1  0  0  0  0
  8  6  1  0  0  0  0
  8  5  1  0  0  0  0
  8  4  1  0  0  0  0
  9 26  1  0  0  0  0
  9 25  1  0  0  0  0
 10 28  1  0  0  0  0
 10  6  1  0  0  0  0
 13  1  1  0  0  0  0
 17  3  1  0  0  0  0
 18  3  1  0  0  0  0
 19  3  1  0  0  0  0
 20  4  1  0  0  0  0
 21  4  1  0  0  0  0
 27 10  1  0  0  0  0
M  END
>  <HBA>
2

>  <HBD>
2

>  <TPSA>
52.04

>  <cid>
24152

>  <dipole>
2.2

>  <excitation_energy_1>
5.162

>  <excitation_energy_2>
5.347

>  <excitation_energy_3>
5.645

>  <excitation_energy_4>
5.826

>  <homo_energy>
-5.802

>  <homo_lumo_gap>
7.497

>  <logP>
2.108

>  <lumo_energy>
1.695

>  <melting_point>
140.56

>  <molecular_refractivity>
43.35

>  <oscillator_strength_1>
0.0002

>  <oscillator_strength_2>
0.0202

>  <oscillator_strength_3>
0.012

>  <oscillator_strength_4>
0.008

>  <open_babel_can_smiles>
N[C@@H]1C(C)(C)[C@H](C1(C)C)N

>  <mulliken_charges>
28
1   -0.470654
2   -0.477958
3   -0.457639
4   -0.476214
5   -0.016598
6   -0.027994
7   0.121135
8   0.135861
9   -0.713046
10   -0.711472
11   0.14004
12   0.135321
13   0.129727
14   0.133954
15   0.138051
16   0.141835
17   0.147518
18   0.122601
19   0.154141
20   0.158536
21   0.14722
22   0.127734
23   0.116603
24   0.121227
25   0.295699
26   0.29507
27   0.293736
28   0.295563

>  <lowdin_charges>
28
1   -0.445979
2   -0.447328
3   -0.441623
4   -0.443139
5   -0.085564
6   -0.085168
7   -0.032676
8   0.002942
9   -0.541947
10   -0.541167
11   0.149296
12   0.145131
13   0.138433
14   0.144477
15   0.142159
16   0.150481
17   0.153422
18   0.138596
19   0.155972
20   0.156693
21   0.153506
22   0.136659
23   0.138951
24   0.139103
25   0.252708
26   0.257166
27   0.251672
28   0.257224

$$$$

