PCCDB-ID:  60187
public computational chemistry database (PCCDB) project, http://pccdb.org

 36 36  0  0  1  0  0  0  0  0999 V2000
    2.3719   -1.5879    0.9384 C   0  0  0  0  0  0  0  0  0  0  0  0
    9.7091   -2.1730    9.1546 C   0  0  0  0  0  0  0  0  0  0  0  0
    3.4954   -0.5514    0.8374 C   0  0  0  0  0  0  0  0  0  0  0  0
    4.2370   -0.3367    2.1625 C   0  0  0  0  0  0  0  0  0  0  0  0
    5.3554    0.7086    2.0657 C   0  0  0  0  0  0  0  0  0  0  0  0
    8.4877    0.4929    6.8729 C   0  0  0  0  0  0  0  0  0  0  0  0
    8.9563   -1.7585    6.2074 C   0  0  0  0  0  0  0  0  0  0  0  0
    7.6993    0.6826    5.7347 C   0  0  0  0  0  0  0  0  0  0  0  0
    8.1797   -1.5908    5.0676 C   0  0  0  0  0  0  0  0  0  0  0  0
    6.1202    0.9148    3.3670 C   0  0  0  0  0  0  0  0  0  0  0  0
   10.0048   -0.8803    8.3705 C   0  0  2  0  0  0  0  0  0  0  0  0
    9.1270   -0.7199    7.1372 C   0  0  0  0  0  0  0  0  0  0  0  0
    7.5422   -0.3663    4.8221 C   0  0  0  0  0  0  0  0  0  0  0  0
   11.4225   -0.7250    7.9813 N   0  0  0  0  0  0  0  0  0  0  0  0
    6.8002   -0.3006    3.6773 O   0  0  0  0  0  0  0  0  0  0  0  0
    1.8619   -1.7213   -0.0225 H   0  0  0  0  0  0  0  0  0  0  0  0
    1.6187   -1.2851    1.6763 H   0  0  0  0  0  0  0  0  0  0  0  0
    2.7619   -2.5654    1.2477 H   0  0  0  0  0  0  0  0  0  0  0  0
    8.6550   -2.2322    9.4505 H   0  0  0  0  0  0  0  0  0  0  0  0
   10.3191   -2.2116   10.0658 H   0  0  0  0  0  0  0  0  0  0  0  0
    9.9437   -3.0667    8.5637 H   0  0  0  0  0  0  0  0  0  0  0  0
    3.0798    0.4064    0.4923 H   0  0  0  0  0  0  0  0  0  0  0  0
    4.2148   -0.8648    0.0675 H   0  0  0  0  0  0  0  0  0  0  0  0
    4.6646   -1.2876    2.5044 H   0  0  0  0  0  0  0  0  0  0  0  0
    3.5180   -0.0260    2.9357 H   0  0  0  0  0  0  0  0  0  0  0  0
    4.9350    1.6795    1.7678 H   0  0  0  0  0  0  0  0  0  0  0  0
    6.0698    0.4218    1.2828 H   0  0  0  0  0  0  0  0  0  0  0  0
    8.6083    1.3191    7.5697 H   0  0  0  0  0  0  0  0  0  0  0  0
    9.4327   -2.7220    6.3725 H   0  0  0  0  0  0  0  0  0  0  0  0
    7.2197    1.6411    5.5726 H   0  0  0  0  0  0  0  0  0  0  0  0
    8.0481   -2.3965    4.3517 H   0  0  0  0  0  0  0  0  0  0  0  0
    5.4314    1.1763    4.1844 H   0  0  0  0  0  0  0  0  0  0  0  0
    6.8493    1.7314    3.2632 H   0  0  0  0  0  0  0  0  0  0  0  0
    9.7827   -0.0365    9.0374 H   0  0  0  0  0  0  0  0  0  0  0  0
   11.6548   -1.4300    7.2811 H   0  0  0  0  0  0  0  0  0  0  0  0
   12.0155   -0.9243    8.7883 H   0  0  0  0  0  0  0  0  0  0  0  0
  1 18  1  0  0  0  0
  1 17  1  0  0  0  0
  2 19  1  0  0  0  0
  2 20  1  0  0  0  0
  3  1  1  0  0  0  0
  3  4  1  0  0  0  0
  4 24  1  0  0  0  0
  4 25  1  0  0  0  0
  5  4  1  0  0  0  0
  5 10  1  0  0  0  0
  6 12  1  0  0  0  0
  6 28  1  0  0  0  0
  7 29  1  0  0  0  0
  7 12  2  0  0  0  0
  8  6  2  0  0  0  0
  9  7  1  0  0  0  0
 10 15  1  0  0  0  0
 10 32  1  0  0  0  0
 11 34  1  1  0  0  0
 11  2  1  0  0  0  0
 12 11  1  0  0  0  0
 13  9  2  0  0  0  0
 13  8  1  0  0  0  0
 14 11  1  0  0  0  0
 14 36  1  0  0  0  0
 15 13  1  0  0  0  0
 16  1  1  0  0  0  0
 21  2  1  0  0  0  0
 22  3  1  0  0  0  0
 23  3  1  0  0  0  0
 26  5  1  0  0  0  0
 27  5  1  0  0  0  0
 30  8  1  0  0  0  0
 31  9  1  0  0  0  0
 33 10  1  0  0  0  0
 35 14  1  0  0  0  0
M  END
>  <HBA>
2

>  <HBD>
1

>  <TPSA>
35.25

>  <cid>
60187

>  <dipole>
0.81

>  <excitation_energy_1>
4.96

>  <excitation_energy_2>
5.356

>  <excitation_energy_3>
5.497

>  <excitation_energy_4>
5.578

>  <homo_energy>
-5.72

>  <homo_lumo_gap>
5.845

>  <logP>
3.976

>  <lumo_energy>
0.125

>  <melting_point>
64.19

>  <molecular_refractivity>
64.64

>  <oscillator_strength_1>
0.0278

>  <oscillator_strength_2>
0.0112

>  <oscillator_strength_3>
0.0087

>  <oscillator_strength_4>
0.0315

>  <open_babel_can_smiles>
CCCCCOc1ccc(cc1)[C@H](N)C

>  <mulliken_charges>
36
1   -0.441582
2   -0.450609
3   -0.247741
4   -0.247517
5   -0.277834
6   -0.194094
7   -0.192585
8   -0.192715
9   -0.178102
10   -0.03441
11   -0.060336
12   0.192606
13   0.381181
14   -0.699735
15   -0.523483
16   0.141848
17   0.141336
18   0.1436
19   0.149181
20   0.134689
21   0.138808
22   0.128142
23   0.132527
24   0.15218
25   0.124702
26   0.133682
27   0.147864
28   0.127236
29   0.120611
30   0.131776
31   0.13315
32   0.135573
33   0.139197
34   0.132984
35   0.289893
36   0.287978

>  <lowdin_charges>
36
1   -0.444443
2   -0.4605
3   -0.272743
4   -0.277837
5   -0.281149
6   -0.14909
7   -0.159159
8   -0.213696
9   -0.184596
10   -0.128015
11   -0.060529
12   -0.021282
13   0.102686
14   -0.552116
15   -0.204019
16   0.14928
17   0.147107
18   0.147168
19   0.152628
20   0.145173
21   0.14484
22   0.137404
23   0.14083
24   0.1497
25   0.137896
26   0.14648
27   0.150996
28   0.157705
29   0.152721
30   0.161541
31   0.164785
32   0.136927
33   0.140254
34   0.142468
35   0.251141
36   0.249444

$$$$

