PCCDB-ID:  34471
public computational chemistry database (PCCDB) project, http://pccdb.org

 28 29  0  0  0  0  0  0  0  0999 V2000
   -0.9166   -2.5739   -0.5027 C   0  0  0  0  0  0  0  0  0  0  0  0
   -0.4946   -0.9537   -2.3146 C   0  0  0  0  0  0  0  0  0  0  0  0
    2.6783   -6.5320   -3.8290 C   0  0  0  0  0  0  0  0  0  0  0  0
    3.6220   -6.6703   -4.8646 C   0  0  0  0  0  0  0  0  0  0  0  0
    2.4071   -5.2985   -3.2480 C   0  0  0  0  0  0  0  0  0  0  0  0
    4.3206   -5.5677   -5.3409 C   0  0  0  0  0  0  0  0  0  0  0  0
    4.0178   -2.1456   -4.2287 C   0  0  0  0  0  0  0  0  0  0  0  0
    3.0858   -4.1592   -3.7165 C   0  0  0  0  0  0  0  0  0  0  0  0
    3.0840   -2.7388   -3.3933 C   0  0  0  0  0  0  0  0  0  0  0  0
    4.0385   -4.3313   -4.7564 C   0  0  0  0  0  0  0  0  0  0  0  0
    2.2877   -1.9045   -2.4955 C   0  0  0  0  0  0  0  0  0  0  0  0
    1.2640   -2.5753   -1.5659 C   0  0  0  0  0  0  0  0  0  0  0  0
    4.5837   -3.0833   -5.0343 N   0  0  0  0  0  0  0  0  0  0  0  0
    0.0069   -2.0528   -1.5014 N   0  0  0  0  0  0  0  0  0  0  0  0
    2.4619   -0.6898   -2.4009 O   0  0  0  0  0  0  0  0  0  0  0  0
    1.6523   -3.5101   -0.8640 O   0  0  0  0  0  0  0  0  0  0  0  0
   -1.8272   -2.9499   -0.9858 H   0  0  0  0  0  0  0  0  0  0  0  0
   -1.1997   -1.7829    0.2042 H   0  0  0  0  0  0  0  0  0  0  0  0
   -0.4248   -3.3832    0.0355 H   0  0  0  0  0  0  0  0  0  0  0  0
   -1.4707   -1.2308   -2.7321 H   0  0  0  0  0  0  0  0  0  0  0  0
    0.1884   -0.7252   -3.1289 H   0  0  0  0  0  0  0  0  0  0  0  0
   -0.6205   -0.0465   -1.7096 H   0  0  0  0  0  0  0  0  0  0  0  0
    2.1559   -7.4136   -3.4675 H   0  0  0  0  0  0  0  0  0  0  0  0
    3.8115   -7.6506   -5.2928 H   0  0  0  0  0  0  0  0  0  0  0  0
    1.7041   -5.2161   -2.4288 H   0  0  0  0  0  0  0  0  0  0  0  0
    5.0573   -5.6626   -6.1344 H   0  0  0  0  0  0  0  0  0  0  0  0
    4.2904   -1.1018   -4.2848 H   0  0  0  0  0  0  0  0  0  0  0  0
    5.2973   -2.9025   -5.7246 H   0  0  0  0  0  0  0  0  0  0  0  0
  1 19  1  0  0  0  0
  1 18  1  0  0  0  0
  2 22  1  0  0  0  0
  2 14  1  0  0  0  0
  3 23  1  0  0  0  0
  3  5  2  0  0  0  0
  4  3  1  0  0  0  0
  5 25  1  0  0  0  0
  6  4  2  0  0  0  0
  6 10  1  0  0  0  0
  7  9  2  0  0  0  0
  8  9  1  0  0  0  0
  8  5  1  0  0  0  0
  9 11  1  0  0  0  0
 10  8  2  0  0  0  0
 11 15  2  0  0  0  0
 11 12  1  0  0  0  0
 12 14  1  0  0  0  0
 12 16  2  0  0  0  0
 13 10  1  0  0  0  0
 13  7  1  0  0  0  0
 14  1  1  0  0  0  0
 17  1  1  0  0  0  0
 20  2  1  0  0  0  0
 21  2  1  0  0  0  0
 24  4  1  0  0  0  0
 26  6  1  0  0  0  0
 27  7  1  0  0  0  0
 28 13  1  0  0  0  0
M  END
>  <HBA>
3

>  <HBD>
1

>  <TPSA>
53.17

>  <cid>
34471

>  <dipole>
3.72

>  <excitation_energy_1>
3.411

>  <excitation_energy_2>
3.884

>  <excitation_energy_3>
4.137

>  <excitation_energy_4>
4.309

>  <homo_energy>
-5.785

>  <homo_lumo_gap>
4.422

>  <logP>
1.439

>  <lumo_energy>
-1.363

>  <melting_point>
153.52

>  <molecular_refractivity>
61.2

>  <oscillator_strength_1>
0.0033

>  <oscillator_strength_2>
0.144

>  <oscillator_strength_3>
0.0369

>  <oscillator_strength_4>
0.0269

>  <open_babel_can_smiles>
O=C(C(=O)c1c[nH]c2c1cccc2)N(C)C

>  <mulliken_charges>
28
1   -0.324121
2   -0.307325
3   -0.142626
4   -0.146313
5   -0.200084
6   -0.162949
7   0.061054
8   0.07189
9   -0.01873
10   0.305921
11   0.327922
12   0.548355
13   -0.680558
14   -0.403053
15   -0.501998
16   -0.515037
17   0.153395
18   0.15875
19   0.204585
20   0.149702
21   0.18886
22   0.165163
23   0.126938
24   0.12728
25   0.167454
26   0.124973
27   0.184424
28   0.336128

>  <lowdin_charges>
28
1   -0.358311
2   -0.350133
3   -0.169766
4   -0.159107
5   -0.153117
6   -0.185361
7   -0.074007
8   -0.020094
9   -0.101392
10   0.028453
11   0.135382
12   0.135915
13   -0.170549
14   -0.084224
15   -0.268265
16   -0.306178
17   0.150854
18   0.153577
19   0.18527
20   0.14813
21   0.176624
22   0.155349
23   0.158371
24   0.157498
25   0.177508
26   0.157372
27   0.183022
28   0.29718

$$$$

