PCCDB-ID:  34185
public computational chemistry database (PCCDB) project, http://pccdb.org

 20 21  0  0  0  0  0  0  0  0999 V2000
    0.6740    1.5054   -0.0260 C   0  0  0  0  0  0  0  0  0  0  0  0
    1.9866    1.0201   -0.0218 C   0  0  0  0  0  0  0  0  0  0  0  0
   -1.8912    0.8385    0.1111 C   0  0  0  0  0  0  0  0  0  0  0  0
   -2.4297   -0.5832   -0.1849 C   0  0  0  0  0  0  0  0  0  0  0  0
    1.1580   -1.2615    0.1648 C   0  0  0  0  0  0  0  0  0  0  0  0
   -0.3930    0.6234    0.0516 C   0  0  0  0  0  0  0  0  0  0  0  0
    2.2356   -0.3598    0.0767 C   0  0  0  0  0  0  0  0  0  0  0  0
   -0.1385   -0.7554    0.1545 C   0  0  0  0  0  0  0  0  0  0  0  0
    3.5530   -0.8375    0.1420 N   0  0  0  0  0  0  0  0  0  0  0  0
   -1.3406   -1.4673    0.2743 N   0  0  0  0  0  0  0  0  0  0  0  0
    0.5009    2.5766   -0.1057 H   0  0  0  0  0  0  0  0  0  0  0  0
    2.8235    1.7111   -0.0877 H   0  0  0  0  0  0  0  0  0  0  0  0
   -2.2045    1.1656    1.1131 H   0  0  0  0  0  0  0  0  0  0  0  0
   -2.2693    1.5758   -0.6052 H   0  0  0  0  0  0  0  0  0  0  0  0
   -2.6109   -0.6988   -1.2662 H   0  0  0  0  0  0  0  0  0  0  0  0
   -3.3616   -0.8081    0.3431 H   0  0  0  0  0  0  0  0  0  0  0  0
    1.3444   -2.3300    0.2503 H   0  0  0  0  0  0  0  0  0  0  0  0
    4.2375   -0.2266   -0.2873 H   0  0  0  0  0  0  0  0  0  0  0  0
    3.6691   -1.7907   -0.1809 H   0  0  0  0  0  0  0  0  0  0  0  0
   -1.3461   -2.4054   -0.1100 H   0  0  0  0  0  0  0  0  0  0  0  0
  1  2  2  0  0  0  0
  1  6  1  0  0  0  0
  2  7  1  0  0  0  0
  3 13  1  0  0  0  0
  4  3  1  0  0  0  0
  4 10  1  0  0  0  0
  4 16  1  0  0  0  0
  5 17  1  0  0  0  0
  6  3  1  0  0  0  0
  6  8  2  0  0  0  0
  7  9  1  0  0  0  0
  7  5  2  0  0  0  0
  8  5  1  0  0  0  0
  8 10  1  0  0  0  0
 11  1  1  0  0  0  0
 12  2  1  0  0  0  0
 14  3  1  0  0  0  0
 15  4  1  0  0  0  0
 18  9  1  0  0  0  0
 19  9  1  0  0  0  0
 20 10  1  0  0  0  0
M  END
>  <HBA>
2

>  <HBD>
2

>  <TPSA>
38.05

>  <cid>
34185

>  <dipole>
2.27

>  <excitation_energy_1>
4.267

>  <excitation_energy_2>
4.392

>  <excitation_energy_3>
4.55

>  <excitation_energy_4>
4.906

>  <homo_energy>
-4.762

>  <homo_lumo_gap>
5.287

>  <logP>
1.956

>  <lumo_energy>
0.525

>  <melting_point>
115.44

>  <molecular_refractivity>
45.94

>  <oscillator_strength_1>
0.031

>  <oscillator_strength_2>
0.0504

>  <oscillator_strength_3>
0.005

>  <oscillator_strength_4>
0.0034

>  <open_babel_can_smiles>
Nc1ccc2c(c1)NCC2

>  <mulliken_charges>
20
1   -0.218347
2   -0.187242
3   -0.345618
4   -0.132207
5   -0.243588
6   0.112755
7   0.304254
8   0.303819
9   -0.788702
10   -0.649097
11   0.117079
12   0.105042
13   0.155996
14   0.145831
15   0.133346
16   0.144897
17   0.105247
18   0.315508
19   0.314135
20   0.30689

>  <lowdin_charges>
20
1   -0.146791
2   -0.231147
3   -0.2767
4   -0.1901
5   -0.244283
6   -0.067551
7   0.068563
8   0.054901
9   -0.493454
10   -0.312047
11   0.151243
12   0.149398
13   0.151592
14   0.153552
15   0.128032
16   0.146258
17   0.147315
18   0.273801
19   0.270502
20   0.266916

$$$$

