PCCDB-ID:  49749
public computational chemistry database (PCCDB) project, http://pccdb.org

 31 33  0  0  0  0  0  0  0  0999 V2000
    5.8523    2.3544    0.1248 C   0  0  0  0  0  0  0  0  0  0  0  0
    8.4820   -8.2294   -0.0516 C   0  0  0  0  0  0  0  0  0  0  0  0
    2.5019    0.5491    0.2370 C   0  0  0  0  0  0  0  0  0  0  0  0
    3.4352    1.5834    0.2003 C   0  0  0  0  0  0  0  0  0  0  0  0
    2.9462   -0.7689    0.2134 C   0  0  0  0  0  0  0  0  0  0  0  0
    6.1241   -6.6610    0.0466 C   0  0  0  0  0  0  0  0  0  0  0  0
    4.9846   -5.8638    0.0964 C   0  0  0  0  0  0  0  0  0  0  0  0
    7.5918   -4.6972    0.0016 C   0  0  0  0  0  0  0  0  0  0  0  0
    4.8018    1.2704    0.1443 C   0  0  0  0  0  0  0  0  0  0  0  0
    7.4151   -6.0838    0.0002 C   0  0  0  0  0  0  0  0  0  0  0  0
    5.1327   -4.4734    0.0992 C   0  0  0  0  0  0  0  0  0  0  0  0
    4.3262   -0.9916    0.1528 C   0  0  0  0  0  0  0  0  0  0  0  0
    6.4407   -3.9160    0.0514 C   0  0  0  0  0  0  0  0  0  0  0  0
    4.8697   -2.3505    0.1222 C   0  0  0  0  0  0  0  0  0  0  0  0
    5.2355    0.0030    0.1192 N   0  0  0  0  0  0  0  0  0  0  0  0
    4.1790   -3.4713    0.1426 N   0  0  0  0  0  0  0  0  0  0  0  0
    6.2328   -2.5553    0.0665 N   0  0  0  0  0  0  0  0  0  0  0  0
    8.5719   -6.8153   -0.0495 O   0  0  0  0  0  0  0  0  0  0  0  0
    5.5897    3.1558   -0.5746 H   0  0  0  0  0  0  0  0  0  0  0  0
    6.8181    1.9324   -0.1624 H   0  0  0  0  0  0  0  0  0  0  0  0
    5.9630    2.8110    1.1170 H   0  0  0  0  0  0  0  0  0  0  0  0
    9.5106   -8.5934   -0.0921 H   0  0  0  0  0  0  0  0  0  0  0  0
    7.9331   -8.6010   -0.9273 H   0  0  0  0  0  0  0  0  0  0  0  0
    8.0010   -8.6078    0.8604 H   0  0  0  0  0  0  0  0  0  0  0  0
    1.4386    0.7695    0.2814 H   0  0  0  0  0  0  0  0  0  0  0  0
    3.1163    2.6218    0.2145 H   0  0  0  0  0  0  0  0  0  0  0  0
    2.2691   -1.6150    0.2376 H   0  0  0  0  0  0  0  0  0  0  0  0
    6.0117   -7.7387    0.0443 H   0  0  0  0  0  0  0  0  0  0  0  0
    3.9951   -6.3090    0.1324 H   0  0  0  0  0  0  0  0  0  0  0  0
    8.5936   -4.2826   -0.0350 H   0  0  0  0  0  0  0  0  0  0  0  0
    6.9020   -1.7989    0.0471 H   0  0  0  0  0  0  0  0  0  0  0  0
  1  9  1  0  0  0  0
  1 21  1  0  0  0  0
  2 18  1  0  0  0  0
  2 24  1  0  0  0  0
  3 25  1  0  0  0  0
  4 26  1  0  0  0  0
  4  3  2  0  0  0  0
  5  3  1  0  0  0  0
  5 27  1  0  0  0  0
  6  7  2  0  0  0  0
  7 11  1  0  0  0  0
  7 29  1  0  0  0  0
  8 13  1  0  0  0  0
  9  4  1  0  0  0  0
 10  8  2  0  0  0  0
 10  6  1  0  0  0  0
 11 16  1  0  0  0  0
 12  5  2  0  0  0  0
 13 17  1  0  0  0  0
 13 11  2  0  0  0  0
 14 16  2  0  0  0  0
 14 12  1  0  0  0  0
 15  9  2  0  0  0  0
 15 12  1  0  0  0  0
 17 14  1  0  0  0  0
 18 10  1  0  0  0  0
 19  1  1  0  0  0  0
 20  1  1  0  0  0  0
 22  2  1  0  0  0  0
 23  2  1  0  0  0  0
 28  6  1  0  0  0  0
 30  8  1  0  0  0  0
 31 17  1  0  0  0  0
M  END
>  <HBA>
3

>  <HBD>
1

>  <TPSA>
50.8

>  <cid>
49749

>  <dipole>
1.42

>  <excitation_energy_1>
3.616

>  <excitation_energy_2>
4.119

>  <excitation_energy_3>
4.172

>  <excitation_energy_4>
4.708

>  <homo_energy>
-5.263

>  <homo_lumo_gap>
3.973

>  <logP>
2.942

>  <lumo_energy>
-1.29

>  <melting_point>
175.16

>  <molecular_refractivity>
70.78

>  <oscillator_strength_1>
0.5544

>  <oscillator_strength_2>
0.1156

>  <oscillator_strength_3>
0.0147

>  <oscillator_strength_4>
0.0016

>  <open_babel_can_smiles>
COc1ccc2c(c1)[nH]c(n2)c1cccc(n1)C

>  <mulliken_charges>
31
1   -0.52095
2   -0.2124
3   -0.105118
4   -0.174279
5   -0.155966
6   -0.210806
7   -0.192185
8   -0.240739
9   0.326258
10   0.372285
11   0.241205
12   0.280571
13   0.385904
14   0.481841
15   -0.584068
16   -0.580267
17   -0.761497
18   -0.513513
19   0.160373
20   0.169706
21   0.168463
22   0.167082
23   0.151005
24   0.151038
25   0.144867
26   0.133946
27   0.171622
28   0.127892
29   0.139658
30   0.135066
31   0.343007

>  <lowdin_charges>
31
1   -0.447858
2   -0.276889
3   -0.121621
4   -0.183091
5   -0.162824
6   -0.220052
7   -0.14853
8   -0.217495
9   0.060915
10   0.10316
11   -0.001095
12   0.043549
13   0.035187
14   0.066269
15   -0.180534
16   -0.198861
17   -0.1969
18   -0.204139
19   0.162129
20   0.167186
21   0.165449
22   0.160514
23   0.145009
24   0.144816
25   0.16332
26   0.161502
27   0.183827
28   0.160277
29   0.166121
30   0.167173
31   0.303489

$$$$

