PCCDB-ID:  13594
public computational chemistry database (PCCDB) project, http://pccdb.org

 15 15  0  0  0  0  0  0  0  0999 V2000
   -1.0229    1.0457   -0.2259 C   0  0  0  0  0  0  0  0  0  0  0  0
   -1.3524   -0.4064   -0.0033 C   0  0  0  0  0  0  0  0  0  0  0  0
    0.3946    1.3893    0.2549 C   0  0  0  0  0  0  0  0  0  0  0  0
   -0.4199   -1.3582    0.1734 C   0  0  0  0  0  0  0  0  0  0  0  0
    1.4169    0.3641   -0.2553 C   0  0  0  0  0  0  0  0  0  0  0  0
    1.0305   -1.0674    0.1077 C   0  0  0  0  0  0  0  0  0  0  0  0
    1.8673   -1.9385    0.2934 O   0  0  0  0  0  0  0  0  0  0  0  0
   -1.7658    1.6759    0.2797 H   0  0  0  0  0  0  0  0  0  0  0  0
   -1.1266    1.2721   -1.3000 H   0  0  0  0  0  0  0  0  0  0  0  0
   -2.4065   -0.6824    0.0088 H   0  0  0  0  0  0  0  0  0  0  0  0
    0.4039    1.3888    1.3529 H   0  0  0  0  0  0  0  0  0  0  0  0
    0.6723    2.4003   -0.0645 H   0  0  0  0  0  0  0  0  0  0  0  0
   -0.6873   -2.3970    0.3496 H   0  0  0  0  0  0  0  0  0  0  0  0
    2.4243    0.5552    0.1267 H   0  0  0  0  0  0  0  0  0  0  0  0
    1.4771    0.4137   -1.3539 H   0  0  0  0  0  0  0  0  0  0  0  0
  1  2  1  0  0  0  0
  1  3  1  0  0  0  0
  1  8  1  0  0  0  0
  2 10  1  0  0  0  0
  2  4  2  0  0  0  0
  3 11  1  0  0  0  0
  4 13  1  0  0  0  0
  5  6  1  0  0  0  0
  5 14  1  0  0  0  0
  5  3  1  0  0  0  0
  6  4  1  0  0  0  0
  6  7  2  0  0  0  0
  9  1  1  0  0  0  0
 12  3  1  0  0  0  0
 15  5  1  0  0  0  0
M  END
>  <HBA>
1

>  <HBD>
0

>  <TPSA>
17.07

>  <cid>
13594

>  <dipole>
3.75

>  <excitation_energy_1>
3.603

>  <excitation_energy_2>
5.758

>  <excitation_energy_3>
5.974

>  <excitation_energy_4>
6.434

>  <homo_energy>
-6.43

>  <homo_lumo_gap>
5.116

>  <logP>
1.296

>  <lumo_energy>
-1.314

>  <melting_point>
27.2

>  <molecular_refractivity>
28.57

>  <oscillator_strength_1>
0.0002

>  <oscillator_strength_2>
0.2575

>  <oscillator_strength_3>
0.0198

>  <oscillator_strength_4>
0.0036

>  <open_babel_can_smiles>
O=C1CCCC=C1

>  <mulliken_charges>
15
1   -0.306256
2   -0.101113
3   -0.278893
4   -0.157197
5   -0.353757
6   0.440062
7   -0.471852
8   0.154418
9   0.160038
10   0.144831
11   0.151566
12   0.143034
13   0.145589
14   0.166958
15   0.162571

>  <lowdin_charges>
15
1   -0.278803
2   -0.116811
3   -0.270811
4   -0.20276
5   -0.303926
6   0.152001
7   -0.246222
8   0.158686
9   0.157116
10   0.159872
11   0.146792
12   0.149704
13   0.168211
14   0.165763
15   0.161189

$$$$

