PCCDB-ID:  11386
public computational chemistry database (PCCDB) project, http://pccdb.org

 24 25  0  0  0  0  0  0  0  0999 V2000
    0.8038    0.1111    0.0743 C   0  0  0  0  0  0  0  0  0  0  0  0
    2.2271   -2.4838   -0.0085 C   0  0  0  0  0  0  0  0  0  0  0  0
    6.5921    2.4142   -0.1927 C   0  0  0  0  0  0  0  0  0  0  0  0
    7.2732    1.1728   -0.2320 C   0  0  0  0  0  0  0  0  0  0  0  0
    5.2168    2.4496   -0.1266 C   0  0  0  0  0  0  0  0  0  0  0  0
    6.5657   -0.0086   -0.2047 C   0  0  0  0  0  0  0  0  0  0  0  0
    3.0415    1.2392   -0.0277 C   0  0  0  0  0  0  0  0  0  0  0  0
    4.3789   -1.1981   -0.1051 C   0  0  0  0  0  0  0  0  0  0  0  0
    2.3116    0.0695    0.0019 C   0  0  0  0  0  0  0  0  0  0  0  0
    3.0014   -1.1879   -0.0380 C   0  0  0  0  0  0  0  0  0  0  0  0
    4.4595    1.2485   -0.0962 C   0  0  0  0  0  0  0  0  0  0  0  0
    5.1470   -0.0046   -0.1359 C   0  0  0  0  0  0  0  0  0  0  0  0
    0.4408    1.1429    0.1003 H   0  0  0  0  0  0  0  0  0  0  0  0
    0.4245   -0.3991    0.9693 H   0  0  0  0  0  0  0  0  0  0  0  0
    0.3408   -0.3842   -0.7893 H   0  0  0  0  0  0  0  0  0  0  0  0
    2.9020   -3.3448   -0.0296 H   0  0  0  0  0  0  0  0  0  0  0  0
    1.5476   -2.5717   -0.8664 H   0  0  0  0  0  0  0  0  0  0  0  0
    1.6069   -2.5677    0.8934 H   0  0  0  0  0  0  0  0  0  0  0  0
    7.1610    3.3399   -0.2151 H   0  0  0  0  0  0  0  0  0  0  0  0
    8.3586    1.1572   -0.2845 H   0  0  0  0  0  0  0  0  0  0  0  0
    4.6908    3.4013   -0.0958 H   0  0  0  0  0  0  0  0  0  0  0  0
    7.0861   -0.9633   -0.2349 H   0  0  0  0  0  0  0  0  0  0  0  0
    2.5204    2.1945    0.0033 H   0  0  0  0  0  0  0  0  0  0  0  0
    4.9049   -2.1507   -0.1351 H   0  0  0  0  0  0  0  0  0  0  0  0
  1 13  1  0  0  0  0
  1 14  1  0  0  0  0
  2 18  1  0  0  0  0
  3  5  2  0  0  0  0
  4  6  2  0  0  0  0
  4  3  1  0  0  0  0
  5 11  1  0  0  0  0
  5 21  1  0  0  0  0
  6 12  1  0  0  0  0
  7  9  1  0  0  0  0
  7 23  1  0  0  0  0
  8 10  1  0  0  0  0
  9  1  1  0  0  0  0
 10  2  1  0  0  0  0
 10  9  2  0  0  0  0
 11  7  2  0  0  0  0
 12  8  2  0  0  0  0
 12 11  1  0  0  0  0
 15  1  1  0  0  0  0
 16  2  1  0  0  0  0
 17  2  1  0  0  0  0
 19  3  1  0  0  0  0
 20  4  1  0  0  0  0
 22  6  1  0  0  0  0
 24  8  1  0  0  0  0
M  END
>  <HBA>
0

>  <HBD>
0

>  <TPSA>
0.0

>  <cid>
11386

>  <dipole>
0.77

>  <excitation_energy_1>
4.35

>  <excitation_energy_2>
4.375

>  <excitation_energy_3>
5.38

>  <excitation_energy_4>
5.43

>  <homo_energy>
-5.611

>  <homo_lumo_gap>
4.819

>  <logP>
3.457

>  <lumo_energy>
-0.792

>  <melting_point>
57.33

>  <molecular_refractivity>
53.88

>  <oscillator_strength_1>
0.0482

>  <oscillator_strength_2>
0.001

>  <oscillator_strength_3>
0.0

>  <oscillator_strength_4>
0.0

>  <open_babel_can_smiles>
Cc1cc2ccccc2cc1C

>  <mulliken_charges>
24
1   -0.534834
2   -0.534787
3   -0.137314
4   -0.137366
5   -0.193707
6   -0.193741
7   -0.270375
8   -0.270503
9   0.140446
10   0.140766
11   0.148224
12   0.148366
13   0.156358
14   0.159005
15   0.159111
16   0.156305
17   0.159235
18   0.158848
19   0.12666
20   0.126684
21   0.126218
22   0.126236
23   0.120083
24   0.120083

>  <lowdin_charges>
24
1   -0.441268
2   -0.441295
3   -0.162116
4   -0.158748
5   -0.158467
6   -0.158501
7   -0.170408
8   -0.170522
9   -0.006537
10   -0.007668
11   -0.002014
12   -0.002034
13   0.156828
14   0.158616
15   0.158955
16   0.158105
17   0.158661
18   0.158317
19   0.157393
20   0.154944
21   0.155975
22   0.155881
23   0.152903
24   0.153002

$$$$

