PCCDB-ID:  10128
public computational chemistry database (PCCDB) project, http://pccdb.org

 29 30  0  0  1  0  0  0  0  0999 V2000
    0.9750    0.1955    0.1759 C   0  0  0  0  0  0  0  0  0  0  0  0
    2.7151    0.2625   -1.5861 C   0  0  0  0  0  0  0  0  0  0  0  0
    5.4359    2.1071    1.6753 C   0  0  0  0  0  0  0  0  0  0  0  0
    4.5828   -1.3231    0.1596 C   0  0  0  0  0  0  0  0  0  0  0  0
    5.4896   -0.0694    0.3537 C   0  0  0  0  0  0  0  0  0  0  0  0
    3.2218   -0.1821    1.9396 C   0  0  0  0  0  0  0  0  0  0  0  0
    3.1557   -1.0802    0.6749 C   0  0  1  0  0  0  0  0  0  0  0  0
    3.2698    1.0251    0.9557 C   0  0  2  0  0  0  0  0  0  0  0  0
    2.4924    0.1243   -0.0764 C   0  0  0  0  0  0  0  0  0  0  0  0
    4.7376    1.2883    0.5767 C   0  0  1  0  0  0  0  0  0  0  0  0
    4.7113    2.0890   -0.6187 O   0  0  0  0  0  0  0  0  0  0  0  0
    0.4601   -0.6043   -0.3714 H   0  0  0  0  0  0  0  0  0  0  0  0
    0.5746    1.1517   -0.1832 H   0  0  0  0  0  0  0  0  0  0  0  0
    0.7032    0.1000    1.2313 H   0  0  0  0  0  0  0  0  0  0  0  0
    2.1782   -0.5396   -2.1116 H   0  0  0  0  0  0  0  0  0  0  0  0
    3.7640    0.2272   -1.8779 H   0  0  0  0  0  0  0  0  0  0  0  0
    2.3194    1.2190   -1.9455 H   0  0  0  0  0  0  0  0  0  0  0  0
    5.4075    1.6012    2.6462 H   0  0  0  0  0  0  0  0  0  0  0  0
    4.9552    3.0858    1.7766 H   0  0  0  0  0  0  0  0  0  0  0  0
    6.4927    2.2692    1.4207 H   0  0  0  0  0  0  0  0  0  0  0  0
    5.0254   -2.1683    0.7022 H   0  0  0  0  0  0  0  0  0  0  0  0
    4.5496   -1.6215   -0.8941 H   0  0  0  0  0  0  0  0  0  0  0  0
    6.1613    0.0515   -0.5044 H   0  0  0  0  0  0  0  0  0  0  0  0
    6.1401   -0.2445    1.2182 H   0  0  0  0  0  0  0  0  0  0  0  0
    4.0737   -0.3245    2.6138 H   0  0  0  0  0  0  0  0  0  0  0  0
    2.3082   -0.2066    2.5362 H   0  0  0  0  0  0  0  0  0  0  0  0
    2.5838   -2.0152    0.7285 H   0  0  0  0  0  0  0  0  0  0  0  0
    2.7853    1.9633    1.2516 H   0  0  0  0  0  0  0  0  0  0  0  0
    5.6237    2.3675   -0.7981 H   0  0  0  0  0  0  0  0  0  0  0  0
  1 14  1  0  0  0  0
  2  9  1  0  0  0  0
  3 19  1  0  0  0  0
  3 18  1  0  0  0  0
  4  5  1  0  0  0  0
  4  7  1  0  0  0  0
  4 21  1  0  0  0  0
  5 10  1  0  0  0  0
  5 24  1  0  0  0  0
  6 26  1  0  0  0  0
  6 25  1  0  0  0  0
  7 27  1  1  0  0  0
  7  6  1  0  0  0  0
  8 28  1  1  0  0  0
  8  6  1  0  0  0  0
  9  1  1  0  0  0  0
  9  7  1  0  0  0  0
  9  8  1  0  0  0  0
 10 11  1  6  0  0  0
 10  8  1  0  0  0  0
 10  3  1  0  0  0  0
 12  1  1  0  0  0  0
 13  1  1  0  0  0  0
 15  2  1  0  0  0  0
 16  2  1  0  0  0  0
 17  2  1  0  0  0  0
 20  3  1  0  0  0  0
 22  4  1  0  0  0  0
 23  5  1  0  0  0  0
 29 11  1  0  0  0  0
M  END
>  <HBA>
1

>  <HBD>
1

>  <TPSA>
20.23

>  <cid>
10128

>  <dipole>
1.52

>  <excitation_energy_1>
6.243

>  <excitation_energy_2>
6.674

>  <excitation_energy_3>
6.883

>  <excitation_energy_4>
6.97

>  <homo_energy>
-6.833

>  <homo_lumo_gap>
8.71

>  <logP>
2.193

>  <lumo_energy>
1.878

>  <melting_point>
64.26

>  <molecular_refractivity>
46.9

>  <oscillator_strength_1>
0.0204

>  <oscillator_strength_2>
0.0053

>  <oscillator_strength_3>
0.0033

>  <oscillator_strength_4>
0.0472

>  <open_babel_can_smiles>
C[C@@]1(O)CC[C@H]2C[C@@H]1C2(C)C

>  <mulliken_charges>
29
1   -0.466137
2   -0.446153
3   -0.476955
4   -0.264727
5   -0.318039
6   -0.298053
7   -0.111111
8   -0.120788
9   0.127137
10   0.341145
11   -0.644613
12   0.138311
13   0.142696
14   0.138496
15   0.122146
16   0.15071
17   0.144182
18   0.14663
19   0.153803
20   0.12868
21   0.130512
22   0.140192
23   0.129461
24   0.138803
25   0.126282
26   0.141554
27   0.110015
28   0.115096
29   0.380727

>  <lowdin_charges>
29
1   -0.441394
2   -0.448861
3   -0.455942
4   -0.27881
5   -0.302311
6   -0.293474
7   -0.133129
8   -0.134317
9   0.010494
10   0.119801
11   -0.456877
12   0.147777
13   0.148929
14   0.145167
15   0.140556
16   0.153521
17   0.153527
18   0.152489
19   0.154157
20   0.141098
21   0.144233
22   0.14402
23   0.147605
24   0.147297
25   0.137998
26   0.149898
27   0.133111
28   0.138619
29   0.334818

$$$$

