PCCDB-ID:  28457
public computational chemistry database (PCCDB) project, http://pccdb.org

 35 34  0  0  1  0  0  0  0  0999 V2000
    2.7538   -0.8062   -1.7565 C   0  0  0  0  0  0  0  0  0  0  0  0
    8.0309   -0.0972    5.9014 C   0  0  0  0  0  0  0  0  0  0  0  0
    9.3013    0.6663    3.8588 C   0  0  0  0  0  0  0  0  0  0  0  0
    4.7450    3.1122    0.7452 C   0  0  0  0  0  0  0  0  0  0  0  0
    3.9513   -0.3513   -0.9146 C   0  0  0  0  0  0  0  0  0  0  0  0
    6.5010    1.2152    2.5270 C   0  0  0  0  0  0  0  0  0  0  0  0
    3.7551    1.0475   -0.3129 C   0  0  0  0  0  0  0  0  0  0  0  0
    6.7660    0.3275    3.7521 C   0  0  0  0  0  0  0  0  0  0  0  0
    5.2191    0.8250    1.7752 C   0  0  0  0  0  0  0  0  0  0  0  0
    7.9688    0.7476    4.6199 C   0  0  0  0  0  0  0  0  0  0  0  0
    4.9567    1.6135    0.4749 C   0  0  2  0  0  0  0  0  0  0  0  0
    2.9184   -1.8028   -2.1820 H   0  0  0  0  0  0  0  0  0  0  0  0
    2.5683   -0.1148   -2.5877 H   0  0  0  0  0  0  0  0  0  0  0  0
    1.8385   -0.8490   -1.1532 H   0  0  0  0  0  0  0  0  0  0  0  0
    8.8533    0.2249    6.5514 H   0  0  0  0  0  0  0  0  0  0  0  0
    8.1916   -1.1573    5.6644 H   0  0  0  0  0  0  0  0  0  0  0  0
    7.0995   -0.0225    6.4755 H   0  0  0  0  0  0  0  0  0  0  0  0
    9.4864   -0.3571    3.5056 H   0  0  0  0  0  0  0  0  0  0  0  0
   10.1400    0.9498    4.5059 H   0  0  0  0  0  0  0  0  0  0  0  0
    9.3197    1.3280    2.9862 H   0  0  0  0  0  0  0  0  0  0  0  0
    4.5716    3.6584   -0.1896 H   0  0  0  0  0  0  0  0  0  0  0  0
    5.6093    3.5693    1.2380 H   0  0  0  0  0  0  0  0  0  0  0  0
    3.8707    3.2730    1.3902 H   0  0  0  0  0  0  0  0  0  0  0  0
    4.8566   -0.3510   -1.5388 H   0  0  0  0  0  0  0  0  0  0  0  0
    4.1289   -1.0867   -0.1196 H   0  0  0  0  0  0  0  0  0  0  0  0
    7.3498    1.1567    1.8317 H   0  0  0  0  0  0  0  0  0  0  0  0
    6.4436    2.2622    2.8542 H   0  0  0  0  0  0  0  0  0  0  0  0
    2.8675    1.0429    0.3390 H   0  0  0  0  0  0  0  0  0  0  0  0
    3.5202    1.7431   -1.1321 H   0  0  0  0  0  0  0  0  0  0  0  0
    6.9094   -0.7140    3.4243 H   0  0  0  0  0  0  0  0  0  0  0  0
    5.8657    0.3230    4.3844 H   0  0  0  0  0  0  0  0  0  0  0  0
    4.3527    0.9442    2.4444 H   0  0  0  0  0  0  0  0  0  0  0  0
    5.2749   -0.2466    1.5413 H   0  0  0  0  0  0  0  0  0  0  0  0
    7.8136    1.7968    4.9171 H   0  0  0  0  0  0  0  0  0  0  0  0
    5.8487    1.5106   -0.1645 H   0  0  0  0  0  0  0  0  0  0  0  0
  1 14  1  0  0  0  0
  1  5  1  0  0  0  0
  2 17  1  0  0  0  0
  2 15  1  0  0  0  0
  3 19  1  0  0  0  0
  3 10  1  0  0  0  0
  4 22  1  0  0  0  0
  4 23  1  0  0  0  0
  5  7  1  0  0  0  0
  5 25  1  0  0  0  0
  6 27  1  0  0  0  0
  6  8  1  0  0  0  0
  7 28  1  0  0  0  0
  7 11  1  0  0  0  0
  8 31  1  0  0  0  0
  8 10  1  0  0  0  0
  9 32  1  0  0  0  0
  9  6  1  0  0  0  0
 10 34  1  0  0  0  0
 10  2  1  0  0  0  0
 11 35  1  6  0  0  0
 11  4  1  0  0  0  0
 11  9  1  0  0  0  0
 12  1  1  0  0  0  0
 13  1  1  0  0  0  0
 16  2  1  0  0  0  0
 18  3  1  0  0  0  0
 20  3  1  0  0  0  0
 21  4  1  0  0  0  0
 24  5  1  0  0  0  0
 26  6  1  0  0  0  0
 29  7  1  0  0  0  0
 30  8  1  0  0  0  0
 33  9  1  0  0  0  0
M  END
>  <HBA>
0

>  <HBD>
0

>  <TPSA>
0.0

>  <cid>
28457

>  <dipole>
0.05

>  <excitation_energy_1>
7.504

>  <excitation_energy_2>
7.727

>  <excitation_energy_3>
7.765

>  <excitation_energy_4>
7.788

>  <homo_energy>
-7.894

>  <homo_lumo_gap>
10.283

>  <logP>
4.249

>  <lumo_energy>
2.389

>  <melting_point>
-29.88

>  <molecular_refractivity>
54.99

>  <oscillator_strength_1>
0.0282

>  <oscillator_strength_2>
0.0066

>  <oscillator_strength_3>
0.0096

>  <oscillator_strength_4>
0.0072

>  <open_babel_can_smiles>
CCC[C@H](CCCC(C)C)C

>  <mulliken_charges>
35
1   -0.441506
2   -0.441625
3   -0.444603
4   -0.451592
5   -0.254309
6   -0.265198
7   -0.245243
8   -0.246961
9   -0.257142
10   -0.064996
11   -0.068991
12   0.140658
13   0.140724
14   0.141233
15   0.138182
16   0.137631
17   0.138413
18   0.136745
19   0.138639
20   0.144591
21   0.138564
22   0.144392
23   0.137204
24   0.129048
25   0.135714
26   0.131096
27   0.130992
28   0.122621
29   0.123272
30   0.12228
31   0.124227
32   0.122246
33   0.130859
34   0.118618
35   0.114215

>  <lowdin_charges>
35
1   -0.443953
2   -0.443677
3   -0.447216
4   -0.448337
5   -0.275915
6   -0.277584
7   -0.276545
8   -0.274076
9   -0.275585
10   -0.118832
11   -0.12373
12   0.148054
13   0.146228
14   0.146267
15   0.147683
16   0.1434
17   0.146642
18   0.143707
19   0.148323
20   0.148806
21   0.147342
22   0.149298
23   0.145156
24   0.138319
25   0.14074
26   0.139539
27   0.13738
28   0.13667
29   0.139226
30   0.134397
31   0.138701
32   0.136202
33   0.138812
34   0.132163
35   0.132397

$$$$

