PCCDB-ID:  31529
public computational chemistry database (PCCDB) project, http://pccdb.org

 30 29  0  0  0  0  0  0  0  0999 V2000
    3.0481    1.6966   -0.1743 C   0  0  0  0  0  0  0  0  0  0  0  0
    5.0108    0.3751    0.6778 C   0  0  0  0  0  0  0  0  0  0  0  0
    2.7098   -0.0667    1.5885 C   0  0  0  0  0  0  0  0  0  0  0  0
    4.2337   -3.9223   -1.9746 C   0  0  0  0  0  0  0  0  0  0  0  0
    2.2715   -2.6019   -2.8288 C   0  0  0  0  0  0  0  0  0  0  0  0
    4.5730   -2.1622   -3.7404 C   0  0  0  0  0  0  0  0  0  0  0  0
    3.2100   -0.7141   -0.7581 C   0  0  0  0  0  0  0  0  0  0  0  0
    4.0725   -1.5113   -1.3942 C   0  0  0  0  0  0  0  0  0  0  0  0
    3.5164    0.3093    0.3236 C   0  0  0  0  0  0  0  0  0  0  0  0
    3.7660   -2.5355   -2.4750 C   0  0  0  0  0  0  0  0  0  0  0  0
    3.1947    2.4587    0.6014 H   0  0  0  0  0  0  0  0  0  0  0  0
    1.9829    1.6857   -0.4357 H   0  0  0  0  0  0  0  0  0  0  0  0
    3.6083    2.0038   -1.0648 H   0  0  0  0  0  0  0  0  0  0  0  0
    5.1827    1.1223    1.4615 H   0  0  0  0  0  0  0  0  0  0  0  0
    5.6175    0.6569   -0.1904 H   0  0  0  0  0  0  0  0  0  0  0  0
    5.3771   -0.5888    1.0494 H   0  0  0  0  0  0  0  0  0  0  0  0
    2.8530    0.6813    2.3784 H   0  0  0  0  0  0  0  0  0  0  0  0
    3.0252   -1.0407    1.9798 H   0  0  0  0  0  0  0  0  0  0  0  0
    1.6360   -0.1238    1.3719 H   0  0  0  0  0  0  0  0  0  0  0  0
    4.0870   -4.6857   -2.7490 H   0  0  0  0  0  0  0  0  0  0  0  0
    3.6730   -4.2276   -1.0838 H   0  0  0  0  0  0  0  0  0  0  0  0
    5.2988   -3.9113   -1.7128 H   0  0  0  0  0  0  0  0  0  0  0  0
    2.0997   -3.3492   -3.6123 H   0  0  0  0  0  0  0  0  0  0  0  0
    1.9047   -1.6383   -3.2006 H   0  0  0  0  0  0  0  0  0  0  0  0
    1.6652   -2.8837   -1.9603 H   0  0  0  0  0  0  0  0  0  0  0  0
    4.4295   -2.9115   -4.5290 H   0  0  0  0  0  0  0  0  0  0  0  0
    5.6467   -2.1052   -3.5237 H   0  0  0  0  0  0  0  0  0  0  0  0
    4.2582   -1.1887   -4.1335 H   0  0  0  0  0  0  0  0  0  0  0  0
    2.1513   -0.7690   -1.0162 H   0  0  0  0  0  0  0  0  0  0  0  0
    5.1317   -1.4542   -1.1382 H   0  0  0  0  0  0  0  0  0  0  0  0
  1  9  1  0  0  0  0
  1 11  1  0  0  0  0
  2 16  1  0  0  0  0
  2 14  1  0  0  0  0
  3 18  1  0  0  0  0
  3 17  1  0  0  0  0
  4 22  1  0  0  0  0
  4 21  1  0  0  0  0
  5 10  1  0  0  0  0
  5 25  1  0  0  0  0
  6 27  1  0  0  0  0
  6 10  1  0  0  0  0
  7  9  1  0  0  0  0
  8 30  1  0  0  0  0
  8  7  2  0  0  0  0
  9  2  1  0  0  0  0
  9  3  1  0  0  0  0
 10  4  1  0  0  0  0
 10  8  1  0  0  0  0
 12  1  1  0  0  0  0
 13  1  1  0  0  0  0
 15  2  1  0  0  0  0
 19  3  1  0  0  0  0
 20  4  1  0  0  0  0
 23  5  1  0  0  0  0
 24  5  1  0  0  0  0
 26  6  1  0  0  0  0
 28  6  1  0  0  0  0
 29  7  1  0  0  0  0
M  END
>  <HBA>
0

>  <HBD>
0

>  <TPSA>
0.0

>  <cid>
31529

>  <dipole>
0.0

>  <excitation_energy_1>
5.97

>  <excitation_energy_2>
6.346

>  <excitation_energy_3>
6.458

>  <excitation_energy_4>
6.69

>  <homo_energy>
-6.408

>  <homo_lumo_gap>
7.323

>  <logP>
3.635

>  <lumo_energy>
0.914

>  <melting_point>
17.94

>  <molecular_refractivity>
49.19

>  <oscillator_strength_1>
0.0402

>  <oscillator_strength_2>
0.0

>  <oscillator_strength_3>
0.0

>  <oscillator_strength_4>
0.4038

>  <open_babel_can_smiles>
CC(/C=C/C(C)(C)C)(C)C

>  <mulliken_charges>
30
1   -0.439758
2   -0.452786
3   -0.439686
4   -0.439698
5   -0.452802
6   -0.439762
7   -0.110232
8   -0.110264
9   0.068997
10   0.069023
11   0.13718
12   0.137124
13   0.144822
14   0.137223
15   0.142997
16   0.143049
17   0.137125
18   0.144799
19   0.137091
20   0.137147
21   0.144824
22   0.137113
23   0.137226
24   0.14302
25   0.14303
26   0.137157
27   0.137108
28   0.144799
29   0.112065
30   0.112069

>  <lowdin_charges>
30
1   -0.439354
2   -0.444616
3   -0.438309
4   -0.439359
5   -0.44462
6   -0.438311
7   -0.171412
8   -0.171405
9   0.01789
10   0.017892
11   0.146612
12   0.144786
13   0.150472
14   0.149012
15   0.149539
16   0.148942
17   0.146537
18   0.149768
19   0.144577
20   0.146583
21   0.150475
22   0.144779
23   0.149013
24   0.148911
25   0.149574
26   0.146565
27   0.144589
28   0.149767
29   0.145553
30   0.145549

$$$$

