PCCDB-ID:  27809
public computational chemistry database (PCCDB) project, http://pccdb.org

 22 22  0  0  0  0  0  0  0  0999 V2000
    0.8667    0.0335    0.0685 C   0  0  0  0  0  0  0  0  0  0  0  0
    5.1701   -2.5618   -0.4440 C   0  0  0  0  0  0  0  0  0  0  0  0
    3.0905    1.2199   -0.1981 C   0  0  0  0  0  0  0  0  0  0  0  0
    4.4781    1.1917   -0.3411 C   0  0  0  0  0  0  0  0  0  0  0  0
    3.0743   -1.1796   -0.1992 C   0  0  0  0  0  0  0  0  0  0  0  0
    6.6883    0.0030   -0.5450 C   0  0  0  0  0  0  0  0  0  0  0  0
    2.3661    0.0279   -0.1199 C   0  0  0  0  0  0  0  0  0  0  0  0
    4.4628   -1.2294   -0.3462 C   0  0  0  0  0  0  0  0  0  0  0  0
    5.1807   -0.0144   -0.4168 C   0  0  0  0  0  0  0  0  0  0  0  0
    7.3620   -0.5120    0.6089 O   0  0  0  0  0  0  0  0  0  0  0  0
    0.4155    0.9458   -0.3359 H   0  0  0  0  0  0  0  0  0  0  0  0
    0.5982   -0.0182    1.1324 H   0  0  0  0  0  0  0  0  0  0  0  0
    0.3966   -0.8242   -0.4247 H   0  0  0  0  0  0  0  0  0  0  0  0
    4.4794   -3.3895   -0.2562 H   0  0  0  0  0  0  0  0  0  0  0  0
    5.9985   -2.6221    0.2679 H   0  0  0  0  0  0  0  0  0  0  0  0
    5.6007   -2.7117   -1.4437 H   0  0  0  0  0  0  0  0  0  0  0  0
    2.5706    2.1740   -0.1475 H   0  0  0  0  0  0  0  0  0  0  0  0
    5.0283    2.1290   -0.4023 H   0  0  0  0  0  0  0  0  0  0  0  0
    2.5217   -2.1165   -0.1475 H   0  0  0  0  0  0  0  0  0  0  0  0
    7.0255    1.0278   -0.7648 H   0  0  0  0  0  0  0  0  0  0  0  0
    7.0243   -0.6327   -1.3711 H   0  0  0  0  0  0  0  0  0  0  0  0
    6.9983   -0.0448    1.3776 H   0  0  0  0  0  0  0  0  0  0  0  0
  1 12  1  0  0  0  0
  2  8  1  0  0  0  0
  2 14  1  0  0  0  0
  2 15  1  0  0  0  0
  3 17  1  0  0  0  0
  3  7  1  0  0  0  0
  4  3  2  0  0  0  0
  5 19  1  0  0  0  0
  5  7  2  0  0  0  0
  6  9  1  0  0  0  0
  6 10  1  0  0  0  0
  7  1  1  0  0  0  0
  8  5  1  0  0  0  0
  9  8  2  0  0  0  0
  9  4  1  0  0  0  0
 10 22  1  0  0  0  0
 11  1  1  0  0  0  0
 13  1  1  0  0  0  0
 16  2  1  0  0  0  0
 18  4  1  0  0  0  0
 20  6  1  0  0  0  0
 21  6  1  0  0  0  0
M  END
>  <HBA>
1

>  <HBD>
1

>  <TPSA>
20.23

>  <cid>
27809

>  <dipole>
1.64

>  <excitation_energy_1>
5.109

>  <excitation_energy_2>
5.566

>  <excitation_energy_3>
5.95

>  <excitation_energy_4>
6.116

>  <homo_energy>
-6.28

>  <homo_lumo_gap>
6.155

>  <logP>
1.796

>  <lumo_energy>
-0.125

>  <melting_point>
35.45

>  <molecular_refractivity>
42.5

>  <oscillator_strength_1>
0.0005

>  <oscillator_strength_2>
0.0921

>  <oscillator_strength_3>
0.0015

>  <oscillator_strength_4>
0.0591

>  <open_babel_can_smiles>
OCc1ccc(cc1C)C

>  <mulliken_charges>
22
1   -0.53065
2   -0.5408
3   -0.183277
4   -0.187051
5   -0.244476
6   -0.104692
7   0.18979
8   0.149379
9   0.066319
10   -0.609121
11   0.156206
12   0.16524
13   0.157731
14   0.149108
15   0.186792
16   0.157756
17   0.11932
18   0.122449
19   0.114715
20   0.127357
21   0.151169
22   0.386735

>  <lowdin_charges>
22
1   -0.442283
2   -0.449104
3   -0.175905
4   -0.165115
5   -0.178898
6   -0.132151
7   0.005547
8   0.006753
9   -0.048915
10   -0.46905
11   0.158103
12   0.160405
13   0.159191
14   0.155092
15   0.17316
16   0.158072
17   0.153665
18   0.153269
19   0.151366
20   0.132052
21   0.152691
22   0.342057

$$$$

