PCCDB-ID:  7853
public computational chemistry database (PCCDB) project, http://pccdb.org

 11 10  0  0  0  0  0  0  0  0999 V2000
    1.7132    0.5810   -1.1243 C   0  0  0  0  0  0  0  0  0  0  0  0
    2.4384    0.0274   -0.1521 C   0  0  0  0  0  0  0  0  0  0  0  0
    3.0965   -1.3224   -0.2358 C   0  0  0  0  0  0  0  0  0  0  0  0
    4.5241   -1.2106    0.0981 N   0  0  0  0  0  0  0  0  0  0  0  0
    1.2516    1.5583   -1.0109 H   0  0  0  0  0  0  0  0  0  0  0  0
    1.5462    0.0731   -2.0726 H   0  0  0  0  0  0  0  0  0  0  0  0
    2.6023    0.5624    0.7832 H   0  0  0  0  0  0  0  0  0  0  0  0
    2.8883   -1.7693   -1.2246 H   0  0  0  0  0  0  0  0  0  0  0  0
    2.6452   -1.9902    0.5123 H   0  0  0  0  0  0  0  0  0  0  0  0
    4.9988   -0.6782   -0.6297 H   0  0  0  0  0  0  0  0  0  0  0  0
    4.9511   -2.1356    0.1033 H   0  0  0  0  0  0  0  0  0  0  0  0
  1  5  1  0  0  0  0
  1  2  2  0  0  0  0
  2  7  1  0  0  0  0
  3  2  1  0  0  0  0
  3  4  1  0  0  0  0
  3  9  1  0  0  0  0
  4 11  1  0  0  0  0
  6  1  1  0  0  0  0
  8  3  1  0  0  0  0
 10  4  1  0  0  0  0
M  END
>  <HBA>
1

>  <HBD>
1

>  <TPSA>
26.02

>  <cid>
7853

>  <dipole>
1.35

>  <excitation_energy_1>
5.533

>  <excitation_energy_2>
6.063

>  <excitation_energy_3>
6.604

>  <excitation_energy_4>
6.714

>  <homo_energy>
-6.362

>  <homo_lumo_gap>
6.895

>  <logP>
0.831

>  <lumo_energy>
0.533

>  <melting_point>
9.08

>  <molecular_refractivity>
18.77

>  <oscillator_strength_1>
0.0157

>  <oscillator_strength_2>
0.0082

>  <oscillator_strength_3>
0.1

>  <oscillator_strength_4>
0.0195

>  <open_babel_can_smiles>
NCC=C

>  <mulliken_charges>
11
1   -0.340742
2   -0.036925
3   -0.18297
4   -0.713574
5   0.140545
6   0.133825
7   0.138446
8   0.118813
9   0.150277
10   0.296319
11   0.295984

>  <lowdin_charges>
11
1   -0.341084
2   -0.148392
3   -0.201499
4   -0.559818
5   0.158375
6   0.152661
7   0.15745
8   0.122003
9   0.151246
10   0.255223
11   0.253834

$$$$

