PCCDB-ID:  35790
public computational chemistry database (PCCDB) project, http://pccdb.org

 18 19  0  0  0  0  0  0  0  0999 V2000
    0.9754    0.0303    0.0393 C   0  0  0  0  0  0  0  0  0  0  0  0
    3.2380   -1.1264    0.0299 C   0  0  0  0  0  0  0  0  0  0  0  0
    4.6261   -1.1186    0.0262 C   0  0  0  0  0  0  0  0  0  0  0  0
    6.7348    0.3635    0.0190 C   0  0  0  0  0  0  0  0  0  0  0  0
    7.0321    1.6877    0.0173 C   0  0  0  0  0  0  0  0  0  0  0  0
    3.1624    1.2905    0.0286 C   0  0  0  0  0  0  0  0  0  0  0  0
    2.4874    0.0679    0.0319 C   0  0  0  0  0  0  0  0  0  0  0  0
    5.3167    0.1051    0.0242 C   0  0  0  0  0  0  0  0  0  0  0  0
    4.5585    1.3027    0.0255 C   0  0  0  0  0  0  0  0  0  0  0  0
    5.6100    2.7138    0.0196 S   0  0  0  0  0  0  0  0  0  0  0  0
    0.6031   -0.9983    0.0073 H   0  0  0  0  0  0  0  0  0  0  0  0
    0.5555    0.5632   -0.8228 H   0  0  0  0  0  0  0  0  0  0  0  0
    0.5658    0.5036    0.9406 H   0  0  0  0  0  0  0  0  0  0  0  0
    2.7102   -2.0770    0.0320 H   0  0  0  0  0  0  0  0  0  0  0  0
    5.1796   -2.0543    0.0256 H   0  0  0  0  0  0  0  0  0  0  0  0
    7.4860   -0.4193    0.0186 H   0  0  0  0  0  0  0  0  0  0  0  0
    8.0124    2.1461    0.0142 H   0  0  0  0  0  0  0  0  0  0  0  0
    2.6021    2.2225    0.0298 H   0  0  0  0  0  0  0  0  0  0  0  0
  1 13  1  0  0  0  0
  2  7  1  0  0  0  0
  2 14  1  0  0  0  0
  3  2  2  0  0  0  0
  4  8  1  0  0  0  0
  5  4  2  0  0  0  0
  5 10  1  0  0  0  0
  6 18  1  0  0  0  0
  6  7  2  0  0  0  0
  7  1  1  0  0  0  0
  8  9  2  0  0  0  0
  8  3  1  0  0  0  0
  9  6  1  0  0  0  0
 10  9  1  0  0  0  0
 11  1  1  0  0  0  0
 12  1  1  0  0  0  0
 15  3  1  0  0  0  0
 16  4  1  0  0  0  0
 17  5  1  0  0  0  0
M  END
>  <HBA>
1

>  <HBD>
0

>  <TPSA>
28.24

>  <cid>
35790

>  <dipole>
0.74

>  <excitation_energy_1>
4.588

>  <excitation_energy_2>
4.716

>  <excitation_energy_3>
4.999

>  <excitation_energy_4>
5.36

>  <homo_energy>
-5.744

>  <homo_lumo_gap>
5.146

>  <logP>
3.21

>  <lumo_energy>
-0.599

>  <melting_point>
51.72

>  <molecular_refractivity>
46.79

>  <oscillator_strength_1>
0.0683

>  <oscillator_strength_2>
0.0309

>  <oscillator_strength_3>
0.0001

>  <oscillator_strength_4>
0.2956

>  <open_babel_can_smiles>
Cc1ccc2c(c1)scc2

>  <mulliken_charges>
18
1   -0.531349
2   -0.193077
3   -0.177944
4   -0.123503
5   -0.351844
6   -0.216999
7   0.184606
8   0.148801
9   -0.145527
10   0.222818
11   0.155683
12   0.16324
13   0.163979
14   0.122717
15   0.129665
16   0.142963
17   0.17313
18   0.13264

>  <lowdin_charges>
18
1   -0.442523
2   -0.172957
3   -0.157908
4   -0.18464
5   -0.301046
6   -0.171574
7   0.001317
8   -0.020205
9   -0.132667
10   0.276589
11   0.15634
12   0.1617
13   0.161711
14   0.155503
15   0.159529
16   0.167843
17   0.181827
18   0.161159

$$$$

