PCCDB-ID:  7777
public computational chemistry database (PCCDB) project, http://pccdb.org

 29 28  0  0  0  0  0  0  0  0999 V2000
    1.7854   -1.5010    0.1179 C   0  0  0  0  0  0  0  0  0  0  0  0
    2.1509    1.9575   -1.3247 C   0  0  0  0  0  0  0  0  0  0  0  0
    2.8897    0.1518    2.5277 C   0  0  0  0  0  0  0  0  0  0  0  0
    1.5001    2.6327   -2.5344 C   0  0  0  0  0  0  0  0  0  0  0  0
    4.3090    0.6301    2.2158 C   0  0  0  0  0  0  0  0  0  0  0  0
    1.4767    0.6300   -0.9618 C   0  0  0  0  0  0  0  0  0  0  0  0
    1.8659    0.5183    1.4454 C   0  0  0  0  0  0  0  0  0  0  0  0
    2.1479    3.9208   -2.8110 N   0  0  0  0  0  0  0  0  0  0  0  0
    5.2172    0.2891    3.3218 N   0  0  0  0  0  0  0  0  0  0  0  0
    2.1386   -0.0859    0.1340 N   0  0  0  0  0  0  0  0  0  0  0  0
    2.0751   -1.9444   -0.8409 H   0  0  0  0  0  0  0  0  0  0  0  0
    0.7015   -1.6801    0.2667 H   0  0  0  0  0  0  0  0  0  0  0  0
    2.3226   -2.0362    0.9062 H   0  0  0  0  0  0  0  0  0  0  0  0
    2.1227    2.6656   -0.4889 H   0  0  0  0  0  0  0  0  0  0  0  0
    3.2113    1.7591   -1.5340 H   0  0  0  0  0  0  0  0  0  0  0  0
    2.5684    0.5964    3.4778 H   0  0  0  0  0  0  0  0  0  0  0  0
    2.9004   -0.9351    2.6928 H   0  0  0  0  0  0  0  0  0  0  0  0
    0.4439    2.8356   -2.3138 H   0  0  0  0  0  0  0  0  0  0  0  0
    1.5106    1.9325   -3.3914 H   0  0  0  0  0  0  0  0  0  0  0  0
    4.3042    1.7242    2.1195 H   0  0  0  0  0  0  0  0  0  0  0  0
    4.6151    0.2293    1.2361 H   0  0  0  0  0  0  0  0  0  0  0  0
    1.5093   -0.0238   -1.8427 H   0  0  0  0  0  0  0  0  0  0  0  0
    0.4016    0.7998   -0.7453 H   0  0  0  0  0  0  0  0  0  0  0  0
    1.8754    1.6065    1.3244 H   0  0  0  0  0  0  0  0  0  0  0  0
    0.8476    0.2536    1.7960 H   0  0  0  0  0  0  0  0  0  0  0  0
    3.1080    3.7582   -3.1138 H   0  0  0  0  0  0  0  0  0  0  0  0
    1.6830    4.3789   -3.5935 H   0  0  0  0  0  0  0  0  0  0  0  0
    5.3281   -0.7243    3.3636 H   0  0  0  0  0  0  0  0  0  0  0  0
    6.1468    0.6570    3.1230 H   0  0  0  0  0  0  0  0  0  0  0  0
  1 10  1  0  0  0  0
  1 12  1  0  0  0  0
  1 13  1  0  0  0  0
  2  6  1  0  0  0  0
  2 14  1  0  0  0  0
  3 17  1  0  0  0  0
  3 16  1  0  0  0  0
  4 18  1  0  0  0  0
  4  2  1  0  0  0  0
  5  3  1  0  0  0  0
  5  9  1  0  0  0  0
  6 23  1  0  0  0  0
  6 10  1  0  0  0  0
  7 25  1  0  0  0  0
  7  3  1  0  0  0  0
  8  4  1  0  0  0  0
  9 28  1  0  0  0  0
 10  7  1  0  0  0  0
 11  1  1  0  0  0  0
 15  2  1  0  0  0  0
 19  4  1  0  0  0  0
 20  5  1  0  0  0  0
 21  5  1  0  0  0  0
 22  6  1  0  0  0  0
 24  7  1  0  0  0  0
 26  8  1  0  0  0  0
 27  8  1  0  0  0  0
 29  9  1  0  0  0  0
M  END
>  <HBA>
3

>  <HBD>
2

>  <TPSA>
55.28

>  <cid>
7777

>  <dipole>
2.65

>  <excitation_energy_1>
5.196

>  <excitation_energy_2>
5.328

>  <excitation_energy_3>
5.413

>  <excitation_energy_4>
5.596

>  <homo_energy>
-5.57

>  <homo_lumo_gap>
7.821

>  <logP>
1.016

>  <lumo_energy>
2.25

>  <melting_point>
83.91

>  <molecular_refractivity>
44.07

>  <oscillator_strength_1>
0.0006

>  <oscillator_strength_2>
0.0108

>  <oscillator_strength_3>
0.0677

>  <oscillator_strength_4>
0.0119

>  <open_babel_can_smiles>
NCCCN(CCCN)C

>  <mulliken_charges>
29
1   -0.301343
2   -0.255903
3   -0.257272
4   -0.137041
5   -0.132224
6   -0.114843
7   -0.131487
8   -0.715269
9   -0.71881
10   -0.376345
11   0.14691
12   0.116559
13   0.149452
14   0.153656
15   0.135115
16   0.146609
17   0.12429
18   0.138795
19   0.109488
20   0.132735
21   0.132615
22   0.128691
23   0.108258
24   0.14076
25   0.110137
26   0.291533
27   0.294657
28   0.28774
29   0.292538

>  <lowdin_charges>
29
1   -0.357479
2   -0.284508
3   -0.281909
4   -0.203437
5   -0.205393
6   -0.197252
7   -0.198745
8   -0.55752
9   -0.558275
10   -0.188105
11   0.148322
12   0.117842
13   0.15032
14   0.150475
15   0.141202
16   0.152513
17   0.133592
18   0.139084
19   0.114969
20   0.13658
21   0.126229
22   0.141568
23   0.114496
24   0.144303
25   0.118447
26   0.250224
27   0.254574
28   0.246175
29   0.251709

$$$$

