PCCDB-ID:  69391
public computational chemistry database (PCCDB) project, http://pccdb.org

 14 13  0  0  0  0  0  0  0  0999 V2000
    1.6770    0.1072    1.3194 C   0  0  0  0  0  0  0  0  0  0  0  0
    5.2855    1.2355   -1.6416 C   0  0  0  0  0  0  0  0  0  0  0  0
    2.4059   -0.2549    0.2634 C   0  0  0  0  0  0  0  0  0  0  0  0
    3.1260    0.7009   -0.6471 C   0  0  0  0  0  0  0  0  0  0  0  0
    4.5426    0.3504   -0.7524 N   0  0  0  0  0  0  0  0  0  0  0  0
    1.1681   -0.6228    1.9433 H   0  0  0  0  0  0  0  0  0  0  0  0
    1.5547    1.1526    1.5971 H   0  0  0  0  0  0  0  0  0  0  0  0
    6.3445    0.9572   -1.6329 H   0  0  0  0  0  0  0  0  0  0  0  0
    5.2076    2.3101   -1.3887 H   0  0  0  0  0  0  0  0  0  0  0  0
    4.9169    1.1112   -2.6671 H   0  0  0  0  0  0  0  0  0  0  0  0
    2.5216   -1.3093    0.0134 H   0  0  0  0  0  0  0  0  0  0  0  0
    2.9535    1.7420   -0.3097 H   0  0  0  0  0  0  0  0  0  0  0  0
    2.7012    0.6303   -1.6605 H   0  0  0  0  0  0  0  0  0  0  0  0
    4.9537    0.3820    0.1792 H   0  0  0  0  0  0  0  0  0  0  0  0
  1  7  1  0  0  0  0
  1  6  1  0  0  0  0
  2  8  1  0  0  0  0
  2  9  1  0  0  0  0
  2  5  1  0  0  0  0
  3  1  2  0  0  0  0
  4 12  1  0  0  0  0
  4  3  1  0  0  0  0
  5  4  1  0  0  0  0
  5 14  1  0  0  0  0
 10  2  1  0  0  0  0
 11  3  1  0  0  0  0
 13  4  1  0  0  0  0
M  END
>  <HBA>
1

>  <HBD>
1

>  <TPSA>
12.03

>  <cid>
69391

>  <dipole>
0.9

>  <excitation_energy_1>
5.279

>  <excitation_energy_2>
5.595

>  <excitation_energy_3>
6.156

>  <excitation_energy_4>
6.231

>  <homo_energy>
-5.97

>  <homo_lumo_gap>
6.493

>  <logP>
0.783

>  <lumo_energy>
0.522

>  <melting_point>
-18.65

>  <molecular_refractivity>
23.67

>  <oscillator_strength_1>
0.0053

>  <oscillator_strength_2>
0.0063

>  <oscillator_strength_3>
0.0181

>  <oscillator_strength_4>
0.0135

>  <open_babel_can_smiles>
CNCC=C

>  <mulliken_charges>
14
1   -0.339174
2   -0.298865
3   -0.053786
4   -0.161994
5   -0.538805
6   0.141208
7   0.136135
8   0.149396
9   0.119107
10   0.151202
11   0.138058
12   0.114189
13   0.147821
14   0.295507

>  <lowdin_charges>
14
1   -0.339599
2   -0.355568
3   -0.148499
4   -0.195434
5   -0.36356
6   0.160582
7   0.152811
8   0.149699
9   0.118404
10   0.146839
11   0.155626
12   0.118535
13   0.147584
14   0.252581

$$$$

