PCCDB-ID:  53645
public computational chemistry database (PCCDB) project, http://pccdb.org

 28 30  0  0  0  0  0  0  0  0999 V2000
   -1.3877    0.1189    0.4256 C   0  0  0  0  0  0  0  0  0  0  0  0
   -0.6645    1.2622    0.0830 C   0  0  0  0  0  0  0  0  0  0  0  0
   -0.7213   -1.0995    0.5781 C   0  0  0  0  0  0  0  0  0  0  0  0
    7.4643    1.6810   -0.9325 C   0  0  0  0  0  0  0  0  0  0  0  0
    0.7134    1.1922   -0.1111 C   0  0  0  0  0  0  0  0  0  0  0  0
    0.6550   -1.1753    0.3862 C   0  0  0  0  0  0  0  0  0  0  0  0
    6.9749    0.3882   -0.8437 C   0  0  0  0  0  0  0  0  0  0  0  0
    6.5990    2.7794   -0.8020 C   0  0  0  0  0  0  0  0  0  0  0  0
    3.5973   -1.2281   -0.3173 C   0  0  0  0  0  0  0  0  0  0  0  0
    1.3910   -0.0312    0.0324 C   0  0  0  0  0  0  0  0  0  0  0  0
    5.6049    0.1750   -0.6205 C   0  0  0  0  0  0  0  0  0  0  0  0
    5.2390    2.5906   -0.5806 C   0  0  0  0  0  0  0  0  0  0  0  0
    5.0384   -1.1931   -0.5292 C   0  0  0  0  0  0  0  0  0  0  0  0
    2.8484   -0.1012   -0.1876 C   0  0  0  0  0  0  0  0  0  0  0  0
    4.7498    1.2723   -0.4903 C   0  0  0  0  0  0  0  0  0  0  0  0
    4.3354    3.6042   -0.4455 O   0  0  0  0  0  0  0  0  0  0  0  0
    5.7321   -2.2047   -0.6328 O   0  0  0  0  0  0  0  0  0  0  0  0
    3.4075    1.1387   -0.2666 O   0  0  0  0  0  0  0  0  0  0  0  0
   -2.4620    0.1759    0.5773 H   0  0  0  0  0  0  0  0  0  0  0  0
   -1.1737    2.2148   -0.0341 H   0  0  0  0  0  0  0  0  0  0  0  0
   -1.2739   -1.9932    0.8540 H   0  0  0  0  0  0  0  0  0  0  0  0
    8.5219    1.8580   -1.1047 H   0  0  0  0  0  0  0  0  0  0  0  0
    1.2731    2.0820   -0.3755 H   0  0  0  0  0  0  0  0  0  0  0  0
    1.1592   -2.1254    0.5289 H   0  0  0  0  0  0  0  0  0  0  0  0
    7.6144   -0.4822   -0.9413 H   0  0  0  0  0  0  0  0  0  0  0  0
    6.9883    3.7933   -0.8741 H   0  0  0  0  0  0  0  0  0  0  0  0
    3.1321   -2.2048   -0.2769 H   0  0  0  0  0  0  0  0  0  0  0  0
    4.8040    4.4496   -0.5258 H   0  0  0  0  0  0  0  0  0  0  0  0
  1 19  1  0  0  0  0
  1  3  1  0  0  0  0
  2  1  2  0  0  0  0
  3 21  1  0  0  0  0
  4  7  2  0  0  0  0
  4  8  1  0  0  0  0
  5 10  2  0  0  0  0
  5  2  1  0  0  0  0
  6 24  1  0  0  0  0
  6  3  2  0  0  0  0
  7 11  1  0  0  0  0
  8 12  2  0  0  0  0
  9 27  1  0  0  0  0
  9 14  2  0  0  0  0
 10  6  1  0  0  0  0
 11 13  1  0  0  0  0
 11 15  2  0  0  0  0
 12 15  1  0  0  0  0
 12 16  1  0  0  0  0
 13  9  1  0  0  0  0
 14 10  1  0  0  0  0
 15 18  1  0  0  0  0
 17 13  2  0  0  0  0
 18 14  1  0  0  0  0
 20  2  1  0  0  0  0
 22  4  1  0  0  0  0
 23  5  1  0  0  0  0
 25  7  1  0  0  0  0
 26  8  1  0  0  0  0
 28 16  1  0  0  0  0
M  END
>  <HBA>
3

>  <HBD>
1

>  <TPSA>
50.44

>  <cid>
53645

>  <dipole>
4.69

>  <excitation_energy_1>
3.551

>  <excitation_energy_2>
3.83

>  <excitation_energy_3>
4.334

>  <excitation_energy_4>
4.501

>  <homo_energy>
-6.093

>  <homo_lumo_gap>
4.381

>  <logP>
3.166

>  <lumo_energy>
-1.712

>  <melting_point>
161.57

>  <molecular_refractivity>
69.94

>  <oscillator_strength_1>
0.0003

>  <oscillator_strength_2>
0.0429

>  <oscillator_strength_3>
0.4406

>  <oscillator_strength_4>
0.0336

>  <open_babel_can_smiles>
O=c1cc(oc2c1cccc2O)c1ccccc1

>  <mulliken_charges>
28
1   -0.118663
2   -0.133792
3   -0.138702
4   -0.134823
5   -0.163735
6   -0.164683
7   -0.179553
8   -0.191269
9   -0.273097
10   0.063758
11   0.057739
12   0.296935
13   0.426071
14   0.341876
15   0.274142
16   -0.635273
17   -0.521817
18   -0.534649
19   0.137261
20   0.13785
21   0.138852
22   0.139927
23   0.168762
24   0.146206
25   0.163808
26   0.127271
27   0.155829
28   0.413768

>  <lowdin_charges>
28
1   -0.14268
2   -0.152388
3   -0.15346
4   -0.147782
5   -0.146641
6   -0.146368
7   -0.148439
8   -0.199008
9   -0.239693
10   -0.018335
11   -0.054635
12   0.083354
13   0.139155
14   0.128761
15   0.081261
16   -0.367149
17   -0.285892
18   -0.101215
19   0.159835
20   0.161878
21   0.163036
22   0.162475
23   0.177366
24   0.165208
25   0.180523
26   0.157965
27   0.179507
28   0.363362

$$$$

