PCCDB-ID:  17000
public computational chemistry database (PCCDB) project, http://pccdb.org

 26 26  0  0  1  0  0  0  0  0999 V2000
    0.9175   -0.0868   -0.0513 C   0  0  0  0  0  0  0  0  0  0  0  0
    5.1931    1.3459   -0.8037 C   0  0  0  0  0  0  0  0  0  0  0  0
    4.9956    2.4733    1.4308 C   0  0  0  0  0  0  0  0  0  0  0  0
    4.5376   -1.3573    0.7578 C   0  0  0  0  0  0  0  0  0  0  0  0
    3.0049   -1.3398    0.7476 C   0  0  0  0  0  0  0  0  0  0  0  0
    5.1002   -0.0505    1.3320 C   0  0  0  0  0  0  0  0  0  0  0  0
    2.4463   -0.1327   -0.0423 C   0  0  2  0  0  0  0  0  0  0  0  0
    3.0530    1.1680    0.4997 C   0  0  0  0  0  0  0  0  0  0  0  0
    4.5910    1.2339    0.6190 C   0  0  0  0  0  0  0  0  0  0  0  0
    2.3489    2.1072    0.8253 O   0  0  0  0  0  0  0  0  0  0  0  0
    0.5106   -1.0062   -0.4873 H   0  0  0  0  0  0  0  0  0  0  0  0
    0.5505    0.7658   -0.6293 H   0  0  0  0  0  0  0  0  0  0  0  0
    0.5242    0.0164    0.9655 H   0  0  0  0  0  0  0  0  0  0  0  0
    6.2846    1.4276   -0.7351 H   0  0  0  0  0  0  0  0  0  0  0  0
    4.8209    2.2421   -1.3130 H   0  0  0  0  0  0  0  0  0  0  0  0
    4.9643    0.4815   -1.4345 H   0  0  0  0  0  0  0  0  0  0  0  0
    6.0864    2.5161    1.5341 H   0  0  0  0  0  0  0  0  0  0  0  0
    4.5548    2.4506    2.4327 H   0  0  0  0  0  0  0  0  0  0  0  0
    4.6557    3.3924    0.9453 H   0  0  0  0  0  0  0  0  0  0  0  0
    4.9102   -1.5184   -0.2629 H   0  0  0  0  0  0  0  0  0  0  0  0
    4.9003   -2.2044    1.3536 H   0  0  0  0  0  0  0  0  0  0  0  0
    2.6305   -1.2922    1.7809 H   0  0  0  0  0  0  0  0  0  0  0  0
    2.6087   -2.2671    0.3147 H   0  0  0  0  0  0  0  0  0  0  0  0
    6.1982   -0.0581    1.3017 H   0  0  0  0  0  0  0  0  0  0  0  0
    4.8210    0.0131    2.3937 H   0  0  0  0  0  0  0  0  0  0  0  0
    2.8045   -0.2363   -1.0792 H   0  0  0  0  0  0  0  0  0  0  0  0
  1  7  1  0  0  0  0
  1 13  1  0  0  0  0
  2 14  1  0  0  0  0
  2  9  1  0  0  0  0
  3 17  1  0  0  0  0
  3 18  1  0  0  0  0
  4  6  1  0  0  0  0
  4 21  1  0  0  0  0
  5  4  1  0  0  0  0
  5 22  1  0  0  0  0
  6 25  1  0  0  0  0
  7 26  1  6  0  0  0
  7  8  1  0  0  0  0
  7  5  1  0  0  0  0
  8  9  1  0  0  0  0
  8 10  2  0  0  0  0
  9  6  1  0  0  0  0
  9  3  1  0  0  0  0
 11  1  1  0  0  0  0
 12  1  1  0  0  0  0
 15  2  1  0  0  0  0
 16  2  1  0  0  0  0
 19  3  1  0  0  0  0
 20  4  1  0  0  0  0
 23  5  1  0  0  0  0
 24  6  1  0  0  0  0
M  END
>  <HBA>
1

>  <HBD>
0

>  <TPSA>
17.07

>  <cid>
17000

>  <dipole>
2.74

>  <excitation_energy_1>
4.197

>  <excitation_energy_2>
5.894

>  <excitation_energy_3>
6.287

>  <excitation_energy_4>
6.386

>  <homo_energy>
-6.313

>  <homo_lumo_gap>
6.027

>  <logP>
2.402

>  <lumo_energy>
-0.286

>  <melting_point>
34.1

>  <molecular_refractivity>
43.2

>  <oscillator_strength_1>
0.0002

>  <oscillator_strength_2>
0.0063

>  <oscillator_strength_3>
0.008

>  <oscillator_strength_4>
0.0042

>  <open_babel_can_smiles>
C[C@@H]1CCCC(C1=O)(C)C

>  <mulliken_charges>
26
1   -0.436098
2   -0.463341
3   -0.43788
4   -0.273654
5   -0.263572
6   -0.268489
7   -0.172214
8   0.45042
9   0.013792
10   -0.457319
11   0.134145
12   0.15897
13   0.153115
14   0.150386
15   0.157392
16   0.147888
17   0.131491
18   0.148846
19   0.157528
20   0.134828
21   0.138889
22   0.138506
23   0.139284
24   0.134707
25   0.13718
26   0.1452

>  <lowdin_charges>
26
1   -0.439853
2   -0.44131
3   -0.435038
4   -0.281069
5   -0.272615
6   -0.271687
7   -0.157631
8   0.159728
9   -0.020381
10   -0.23464
11   0.147154
12   0.161098
13   0.154556
14   0.152092
15   0.157013
16   0.149034
17   0.14321
18   0.153536
19   0.159177
20   0.139623
21   0.150109
22   0.141629
23   0.147976
24   0.143747
25   0.142511
26   0.152028

$$$$

