PCCDB-ID:  70488
public computational chemistry database (PCCDB) project, http://pccdb.org

 17 17  0  0  0  0  0  0  0  0999 V2000
   -0.6902    1.2491   -0.0356 C   0  0  0  0  0  0  0  0  0  0  0  0
   -1.3906    0.0706    0.0393 C   0  0  0  0  0  0  0  0  0  0  0  0
    0.7485    1.1235   -0.0954 C   0  0  0  0  0  0  0  0  0  0  0  0
    0.7429   -1.1844   -0.0306 C   0  0  0  0  0  0  0  0  0  0  0  0
   -1.2532    2.5647   -0.0496 N   0  0  0  0  0  0  0  0  0  0  0  0
   -2.7633   -0.0091    0.1790 N   0  0  0  0  0  0  0  0  0  0  0  0
    1.3639   -2.3073   -0.0181 N   0  0  0  0  0  0  0  0  0  0  0  0
   -0.6954   -1.1050    0.0234 N   0  0  0  0  0  0  0  0  0  0  0  0
    1.4193    0.0119   -0.1000 N   0  0  0  0  0  0  0  0  0  0  0  0
    1.4366    2.2752   -0.1611 O   0  0  0  0  0  0  0  0  0  0  0  0
   -1.8055    2.7883   -0.8746 H   0  0  0  0  0  0  0  0  0  0  0  0
   -1.7731    2.8141    0.7882 H   0  0  0  0  0  0  0  0  0  0  0  0
   -3.2444    0.8595   -0.0178 H   0  0  0  0  0  0  0  0  0  0  0  0
   -3.2099   -0.8033   -0.2647 H   0  0  0  0  0  0  0  0  0  0  0  0
    0.7092   -3.0925    0.0293 H   0  0  0  0  0  0  0  0  0  0  0  0
   -1.1941   -1.9636    0.2192 H   0  0  0  0  0  0  0  0  0  0  0  0
    0.7526    2.9797   -0.1366 H   0  0  0  0  0  0  0  0  0  0  0  0
  1  2  2  0  0  0  0
  2  6  1  0  0  0  0
  3  1  1  0  0  0  0
  4  7  1  0  0  0  0
  4  8  1  0  0  0  0
  5  1  1  0  0  0  0
  5 12  1  0  0  0  0
  7 15  1  0  0  0  0
  8  2  1  0  0  0  0
  8 16  1  0  0  0  0
  9  3  2  0  0  0  0
  9  4  2  0  0  0  0
 10 17  1  0  0  0  0
 10  3  1  0  0  0  0
 11  5  1  0  0  0  0
 13  6  1  0  0  0  0
 14  6  1  0  0  0  0
M  RAD  1   7   2
M  END
>  <HBA>
5

>  <HBD>
4

>  <TPSA>
123.81

>  <cid>
70488

>  <dipole>
10.29

>  <excitation_energy_1>
3.82

>  <excitation_energy_2>
4.213

>  <excitation_energy_3>
4.487

>  <excitation_energy_4>
5.068

>  <homo_energy>
-5.293

>  <homo_lumo_gap>
4.98

>  <logP>
0.26

>  <lumo_energy>
-0.313

>  <melting_point>
251.01

>  <molecular_refractivity>
38.07

>  <oscillator_strength_1>
0.0032

>  <oscillator_strength_2>
0.0446

>  <oscillator_strength_3>
0.0003

>  <oscillator_strength_4>
0.001

>  <open_babel_can_smiles>
[NH]C1=[N]=C(C(=C(N1)N)N)O

>  <mulliken_charges>
17
1   0.08698
2   0.565526
3   0.540292
4   0.604582
5   -0.858403
6   -0.775778
7   -0.627693
8   -0.722906
9   -0.5171
10   -0.600608
11   0.322306
12   0.328318
13   0.326924
14   0.334775
15   0.247905
16   0.320621
17   0.424261

>  <lowdin_charges>
17
1   -0.143587
2   0.122852
3   0.148366
4   0.131091
5   -0.529878
6   -0.475055
7   -0.440569
8   -0.259555
9   -0.203958
10   -0.344227
11   0.270466
12   0.273883
13   0.283341
14   0.287395
15   0.235478
16   0.285468
17   0.358489

$$$$

