PCCDB-ID:  72895
public computational chemistry database (PCCDB) project, http://pccdb.org

 22 22  0  0  0  0  0  0  0  0999 V2000
   -0.8067    0.9087   -0.0684 C   0  0  0  0  0  0  0  0  0  0  0  0
    1.3169   -0.1920   -0.0161 C   0  0  0  0  0  0  0  0  0  0  0  0
   -1.4554   -0.3227   -0.0290 C   0  0  0  0  0  0  0  0  0  0  0  0
    0.6832   -1.4316    0.0238 C   0  0  0  0  0  0  0  0  0  0  0  0
    1.2827    2.3509   -0.0635 C   0  0  0  0  0  0  0  0  0  0  0  0
    1.5217    2.9034    1.3516 C   0  0  0  0  0  0  0  0  0  0  0  0
    0.5913    1.0055   -0.0630 C   0  0  0  0  0  0  0  0  0  0  0  0
   -0.7182   -1.5170    0.0193 C   0  0  0  0  0  0  0  0  0  0  0  0
    2.1325    4.2361    1.2846 N   0  0  0  0  0  0  0  0  0  0  0  0
   -1.3641   -2.7571    0.1182 N   0  0  0  0  0  0  0  0  0  0  0  0
   -1.4037    1.8175   -0.1131 H   0  0  0  0  0  0  0  0  0  0  0  0
    2.4048   -0.1573   -0.0199 H   0  0  0  0  0  0  0  0  0  0  0  0
   -2.5428   -0.3638   -0.0352 H   0  0  0  0  0  0  0  0  0  0  0  0
    1.2760   -2.3435    0.0592 H   0  0  0  0  0  0  0  0  0  0  0  0
    2.2508    2.2716   -0.5792 H   0  0  0  0  0  0  0  0  0  0  0  0
    0.6930    3.0897   -0.6190 H   0  0  0  0  0  0  0  0  0  0  0  0
    2.1065    2.1635    1.9282 H   0  0  0  0  0  0  0  0  0  0  0  0
    0.5557    3.0011    1.8622 H   0  0  0  0  0  0  0  0  0  0  0  0
    3.0744    4.1591    0.9008 H   0  0  0  0  0  0  0  0  0  0  0  0
    2.2451    4.6108    2.2254 H   0  0  0  0  0  0  0  0  0  0  0  0
   -2.3017   -2.7718   -0.2651 H   0  0  0  0  0  0  0  0  0  0  0  0
   -0.8216   -3.5400   -0.2267 H   0  0  0  0  0  0  0  0  0  0  0  0
  1  7  2  0  0  0  0
  1  3  1  0  0  0  0
  2  4  2  0  0  0  0
  3  8  2  0  0  0  0
  4 14  1  0  0  0  0
  5  7  1  0  0  0  0
  5  6  1  0  0  0  0
  6 18  1  0  0  0  0
  6 17  1  0  0  0  0
  7  2  1  0  0  0  0
  8  4  1  0  0  0  0
  8 10  1  0  0  0  0
  9  6  1  0  0  0  0
  9 20  1  0  0  0  0
 11  1  1  0  0  0  0
 12  2  1  0  0  0  0
 13  3  1  0  0  0  0
 15  5  1  0  0  0  0
 16  5  1  0  0  0  0
 19  9  1  0  0  0  0
 21 10  1  0  0  0  0
 22 10  1  0  0  0  0
M  END
>  <HBA>
2

>  <HBD>
2

>  <TPSA>
52.04

>  <cid>
72895

>  <dipole>
1.75

>  <excitation_energy_1>
4.631

>  <excitation_energy_2>
4.663

>  <excitation_energy_3>
5.098

>  <excitation_energy_4>
5.306

>  <homo_energy>
-5.265

>  <homo_lumo_gap>
5.513

>  <logP>
2.051

>  <lumo_energy>
0.248

>  <melting_point>
110.89

>  <molecular_refractivity>
43.33

>  <oscillator_strength_1>
0.0313

>  <oscillator_strength_2>
0.0073

>  <oscillator_strength_3>
0.0088

>  <oscillator_strength_4>
0.1579

>  <open_babel_can_smiles>
NCCc1ccc(cc1)N

>  <mulliken_charges>
22
1   -0.191007
2   -0.189797
3   -0.171264
4   -0.171327
5   -0.341116
6   -0.127912
7   0.166365
8   0.303675
9   -0.715406
10   -0.786603
11   0.12211
12   0.116083
13   0.114102
14   0.113282
15   0.128919
16   0.152917
17   0.115659
18   0.142384
19   0.290071
20   0.294838
21   0.317135
22   0.316891

>  <lowdin_charges>
22
1   -0.156761
2   -0.155037
3   -0.197107
4   -0.201073
5   -0.276542
6   -0.205149
7   -0.027854
8   0.05586
9   -0.558238
10   -0.492135
11   0.154824
12   0.149508
13   0.149153
14   0.151245
15   0.14123
16   0.155993
17   0.119977
18   0.143005
19   0.24871
20   0.253322
21   0.272767
22   0.274302

$$$$

