PCCDB-ID:  5565
public computational chemistry database (PCCDB) project, http://pccdb.org

 28 27  0  0  0  0  0  0  0  0999 V2000
   -4.9968   -0.8217   -1.3672 C   0  0  0  0  0  0  0  0  0  0  0  0
   -2.7986   -5.4772   -4.5385 C   0  0  0  0  0  0  0  0  0  0  0  0
   -3.8062   -0.2117   -2.1371 C   0  0  0  0  0  0  0  0  0  0  0  0
   -3.6338   -4.7386   -3.4862 C   0  0  0  0  0  0  0  0  0  0  0  0
   -1.7041   -1.5974   -2.4148 C   0  0  0  0  0  0  0  0  0  0  0  0
   -2.1461   -3.0718   -2.4244 C   0  0  0  0  0  0  0  0  0  0  0  0
   -6.3248   -0.3615   -1.7811 N   0  0  0  0  0  0  0  0  0  0  0  0
   -1.4254   -5.7369   -4.0827 N   0  0  0  0  0  0  0  0  0  0  0  0
   -2.4813   -0.6086   -1.6700 N   0  0  0  0  0  0  0  0  0  0  0  0
   -3.2752   -3.3273   -3.3256 N   0  0  0  0  0  0  0  0  0  0  0  0
   -4.8832   -0.5908   -0.2987 H   0  0  0  0  0  0  0  0  0  0  0  0
   -4.9807   -1.9177   -1.4380 H   0  0  0  0  0  0  0  0  0  0  0  0
   -2.7437   -4.8427   -5.4299 H   0  0  0  0  0  0  0  0  0  0  0  0
   -3.3454   -6.3964   -4.8213 H   0  0  0  0  0  0  0  0  0  0  0  0
   -3.9068    0.8857   -2.0699 H   0  0  0  0  0  0  0  0  0  0  0  0
   -3.8882   -0.4599   -3.2034 H   0  0  0  0  0  0  0  0  0  0  0  0
   -3.5914   -5.3032   -2.5323 H   0  0  0  0  0  0  0  0  0  0  0  0
   -4.6785   -4.7750   -3.8197 H   0  0  0  0  0  0  0  0  0  0  0  0
   -1.6309   -1.2570   -3.4551 H   0  0  0  0  0  0  0  0  0  0  0  0
   -0.6863   -1.5643   -2.0029 H   0  0  0  0  0  0  0  0  0  0  0  0
   -2.3517   -3.3971   -1.3828 H   0  0  0  0  0  0  0  0  0  0  0  0
   -1.3115   -3.6796   -2.7859 H   0  0  0  0  0  0  0  0  0  0  0  0
   -6.3787    0.6524   -1.6854 H   0  0  0  0  0  0  0  0  0  0  0  0
   -6.4603   -0.5528   -2.7737 H   0  0  0  0  0  0  0  0  0  0  0  0
   -1.4421   -6.4332   -3.3375 H   0  0  0  0  0  0  0  0  0  0  0  0
   -0.8840   -6.1497   -4.8407 H   0  0  0  0  0  0  0  0  0  0  0  0
   -2.4854   -0.8155   -0.6747 H   0  0  0  0  0  0  0  0  0  0  0  0
   -4.0931   -2.8367   -2.9749 H   0  0  0  0  0  0  0  0  0  0  0  0
  1 11  1  0  0  0  0
  2  8  1  0  0  0  0
  2  4  1  0  0  0  0
  3 15  1  0  0  0  0
  3  9  1  0  0  0  0
  3  1  1  0  0  0  0
  4 10  1  0  0  0  0
  4 17  1  0  0  0  0
  5 20  1  0  0  0  0
  5  9  1  0  0  0  0
  6  5  1  0  0  0  0
  6 21  1  0  0  0  0
  7 23  1  0  0  0  0
  7  1  1  0  0  0  0
  8 25  1  0  0  0  0
  9 27  1  0  0  0  0
 10 28  1  0  0  0  0
 10  6  1  0  0  0  0
 12  1  1  0  0  0  0
 13  2  1  0  0  0  0
 14  2  1  0  0  0  0
 16  3  1  0  0  0  0
 18  4  1  0  0  0  0
 19  5  1  0  0  0  0
 22  6  1  0  0  0  0
 24  7  1  0  0  0  0
 26  8  1  0  0  0  0
M  END
>  <HBA>
4

>  <HBD>
4

>  <TPSA>
76.1

>  <cid>
5565

>  <dipole>
1.77

>  <excitation_energy_1>
4.811

>  <excitation_energy_2>
5.029

>  <excitation_energy_3>
5.196

>  <excitation_energy_4>
5.242

>  <homo_energy>
-5.276

>  <homo_lumo_gap>
7.053

>  <logP>
0.265

>  <lumo_energy>
1.777

>  <melting_point>
136.29

>  <molecular_refractivity>
41.97

>  <oscillator_strength_1>
0.0034

>  <oscillator_strength_2>
0.0283

>  <oscillator_strength_3>
0.0129

>  <oscillator_strength_4>
0.0063

>  <open_babel_can_smiles>
NCCNCCNCCN

>  <mulliken_charges>
28
1   -0.170619
2   -0.121207
3   -0.126093
4   -0.123472
5   -0.145822
6   -0.136193
7   -0.703993
8   -0.712637
9   -0.555214
10   -0.561892
11   0.138788
12   0.138707
13   0.151337
14   0.107226
15   0.1221
16   0.138847
17   0.105712
18   0.128478
19   0.149898
20   0.133553
21   0.08918
22   0.183826
23   0.295705
24   0.29329
25   0.291857
26   0.298735
27   0.288205
28   0.301698

>  <lowdin_charges>
28
1   -0.224506
2   -0.211202
3   -0.221698
4   -0.204306
5   -0.206932
6   -0.231382
7   -0.546004
8   -0.555915
9   -0.366895
10   -0.369606
11   0.139095
12   0.133525
13   0.149983
14   0.117722
15   0.127201
16   0.14104
17   0.116093
18   0.142451
19   0.147438
20   0.143406
21   0.105398
22   0.167196
23   0.251342
24   0.249822
25   0.250992
26   0.257295
27   0.248902
28   0.249544

$$$$

