PCCDB-ID:  21105
public computational chemistry database (PCCDB) project, http://pccdb.org

 39 40  0  0  0  0  0  0  0  0999 V2000
   -2.6086    0.9235   -1.0659 C   0  0  0  0  0  0  0  0  0  0  0  0
   -1.7478    0.8684    0.2068 C   0  0  0  0  0  0  0  0  0  0  0  0
    4.2184    1.0877   -3.7912 C   0  0  0  0  0  0  0  0  0  0  0  0
    2.9851    1.6832   -3.0951 C   0  0  0  0  0  0  0  0  0  0  0  0
    4.1585   -0.4471   -3.8198 C   0  0  0  0  0  0  0  0  0  0  0  0
   -1.8677    0.6435   -2.3807 C   0  0  0  0  0  0  0  0  0  0  0  0
   -1.2164   -0.5453    0.5066 C   0  0  0  0  0  0  0  0  0  0  0  0
    2.7962    1.1050   -1.6829 C   0  0  0  0  0  0  0  0  0  0  0  0
    3.9628   -1.0293   -2.4093 C   0  0  0  0  0  0  0  0  0  0  0  0
   -1.0008   -0.6264   -2.4045 C   0  0  0  0  0  0  0  0  0  0  0  0
    0.0899   -0.9364   -0.2047 C   0  0  0  0  0  0  0  0  0  0  0  0
    1.4243   -1.0036   -2.2284 C   0  0  0  0  0  0  0  0  0  0  0  0
    2.7458   -0.4376   -1.6610 C   0  0  0  0  0  0  0  0  0  0  0  0
    0.2138   -0.4813   -1.5906 N   0  0  0  0  0  0  0  0  0  0  0  0
   -3.0883    1.9091   -1.1386 H   0  0  0  0  0  0  0  0  0  0  0  0
   -3.4272    0.1966   -0.9531 H   0  0  0  0  0  0  0  0  0  0  0  0
   -2.3679    1.1969    1.0513 H   0  0  0  0  0  0  0  0  0  0  0  0
   -0.9142    1.5798    0.1372 H   0  0  0  0  0  0  0  0  0  0  0  0
    5.1238    1.4016   -3.2497 H   0  0  0  0  0  0  0  0  0  0  0  0
    4.3127    1.4845   -4.8105 H   0  0  0  0  0  0  0  0  0  0  0  0
    2.0908    1.4824   -3.7022 H   0  0  0  0  0  0  0  0  0  0  0  0
    3.0738    2.7758   -3.0373 H   0  0  0  0  0  0  0  0  0  0  0  0
    5.0776   -0.8547   -4.2607 H   0  0  0  0  0  0  0  0  0  0  0  0
    3.3386   -0.7666   -4.4786 H   0  0  0  0  0  0  0  0  0  0  0  0
   -1.2066    1.4870   -2.6184 H   0  0  0  0  0  0  0  0  0  0  0  0
   -2.6076    0.5800   -3.1917 H   0  0  0  0  0  0  0  0  0  0  0  0
   -2.0061   -1.2707    0.2690 H   0  0  0  0  0  0  0  0  0  0  0  0
   -1.0325   -0.6548    1.5832 H   0  0  0  0  0  0  0  0  0  0  0  0
    1.8798    1.5035   -1.2343 H   0  0  0  0  0  0  0  0  0  0  0  0
    3.6350    1.4355   -1.0526 H   0  0  0  0  0  0  0  0  0  0  0  0
    4.8657   -0.8173   -1.8188 H   0  0  0  0  0  0  0  0  0  0  0  0
    3.8777   -2.1236   -2.4591 H   0  0  0  0  0  0  0  0  0  0  0  0
   -0.6932   -0.8031   -3.4409 H   0  0  0  0  0  0  0  0  0  0  0  0
   -1.5958   -1.5112   -2.1143 H   0  0  0  0  0  0  0  0  0  0  0  0
    0.2058   -2.0386   -0.1341 H   0  0  0  0  0  0  0  0  0  0  0  0
    0.9267   -0.5048    0.3570 H   0  0  0  0  0  0  0  0  0  0  0  0
    1.4715   -2.1113   -2.1634 H   0  0  0  0  0  0  0  0  0  0  0  0
    1.3622   -0.7590   -3.2934 H   0  0  0  0  0  0  0  0  0  0  0  0
    2.8256   -0.7619   -0.6149 H   0  0  0  0  0  0  0  0  0  0  0  0
  1 16  1  0  0  0  0
  1  2  1  0  0  0  0
  2  7  1  0  0  0  0
  2 17  1  0  0  0  0
  3 19  1  0  0  0  0
  3  4  1  0  0  0  0
  4 22  1  0  0  0  0
  4  8  1  0  0  0  0
  5  3  1  0  0  0  0
  5  9  1  0  0  0  0
  6  1  1  0  0  0  0
  7 28  1  0  0  0  0
  8 13  1  0  0  0  0
  8 29  1  0  0  0  0
  8 30  1  0  0  0  0
  9 31  1  0  0  0  0
  9 13  1  0  0  0  0
 10  6  1  0  0  0  0
 10 34  1  0  0  0  0
 10 14  1  0  0  0  0
 11 35  1  0  0  0  0
 11 36  1  0  0  0  0
 11  7  1  0  0  0  0
 12 37  1  0  0  0  0
 12 13  1  0  0  0  0
 12 14  1  0  0  0  0
 13 39  1  0  0  0  0
 14 11  1  0  0  0  0
 15  1  1  0  0  0  0
 18  2  1  0  0  0  0
 20  3  1  0  0  0  0
 21  4  1  0  0  0  0
 23  5  1  0  0  0  0
 24  5  1  0  0  0  0
 25  6  1  0  0  0  0
 26  6  1  0  0  0  0
 27  7  1  0  0  0  0
 32  9  1  0  0  0  0
 33 10  1  0  0  0  0
 38 12  1  0  0  0  0
M  END
>  <HBA>
1

>  <HBD>
0

>  <TPSA>
3.24

>  <cid>
21105

>  <dipole>
0.45

>  <excitation_energy_1>
4.983

>  <excitation_energy_2>
5.126

>  <excitation_energy_3>
5.279

>  <excitation_energy_4>
5.338

>  <homo_energy>
-5.391

>  <homo_lumo_gap>
7.494

>  <logP>
3.381

>  <lumo_energy>
2.103

>  <melting_point>
16.58

>  <molecular_refractivity>
67.19

>  <oscillator_strength_1>
0.0187

>  <oscillator_strength_2>
0.0157

>  <oscillator_strength_3>
0.0141

>  <oscillator_strength_4>
0.0551

>  <open_babel_can_smiles>
C1CCC(CC1)CN1CCCCCC1

>  <mulliken_charges>
39
1   -0.260101
2   -0.247855
3   -0.253055
4   -0.262716
5   -0.260661
6   -0.238583
7   -0.288393
8   -0.2588
9   -0.266626
10   -0.132502
11   -0.111548
12   -0.11663
13   -0.097923
14   -0.392059
15   0.128174
16   0.124434
17   0.126629
18   0.141484
19   0.124599
20   0.126423
21   0.130505
22   0.127518
23   0.128503
24   0.129583
25   0.136959
26   0.120052
27   0.134143
28   0.134661
29   0.148099
30   0.118873
31   0.127064
32   0.125693
33   0.131127
34   0.118142
35   0.104346
36   0.141206
37   0.10397
38   0.134374
39   0.120889

>  <lowdin_charges>
39
1   -0.27675
2   -0.279295
3   -0.277504
4   -0.277581
5   -0.281899
6   -0.283432
7   -0.285806
8   -0.284406
9   -0.276864
10   -0.201054
11   -0.198746
12   -0.198911
13   -0.137198
14   -0.192909
15   0.141892
16   0.13527
17   0.143115
18   0.14575
19   0.136088
20   0.140265
21   0.13788
22   0.140411
23   0.143171
24   0.137233
25   0.144613
26   0.140078
27   0.139794
28   0.146823
29   0.151262
30   0.136621
31   0.140344
32   0.138257
33   0.144085
34   0.12554
35   0.113217
36   0.142026
37   0.112631
38   0.139088
39   0.136904

$$$$

