PCCDB-ID:  69328
public computational chemistry database (PCCDB) project, http://pccdb.org

 20 20  0  0  0  0  0  0  0  0999 V2000
    0.8827   -0.0851   -0.0441 C   0  0  0  0  0  0  0  0  0  0  0  0
    2.4231   -0.0683   -0.0013 C   0  0  0  0  0  0  0  0  0  0  0  0
    2.9649   -0.2897    1.3399 C   0  0  0  0  0  0  0  0  0  0  0  0
    4.9193   -1.1209    6.3643 C   0  0  0  0  0  0  0  0  0  0  0  0
    4.4395   -2.1944    5.6101 C   0  0  0  0  0  0  0  0  0  0  0  0
    4.8880    0.1692    5.8294 C   0  0  0  0  0  0  0  0  0  0  0  0
    3.3917   -0.4723    2.4607 C   0  0  0  0  0  0  0  0  0  0  0  0
    3.9346   -1.9835    4.3298 C   0  0  0  0  0  0  0  0  0  0  0  0
    4.3842    0.3880    4.5498 C   0  0  0  0  0  0  0  0  0  0  0  0
    3.9013   -0.6876    3.7788 C   0  0  0  0  0  0  0  0  0  0  0  0
    0.5294    0.0784   -1.0682 H   0  0  0  0  0  0  0  0  0  0  0  0
    0.4663    0.7004    0.5944 H   0  0  0  0  0  0  0  0  0  0  0  0
    0.4935   -1.0459    0.3066 H   0  0  0  0  0  0  0  0  0  0  0  0
    2.7896    0.8929   -0.3873 H   0  0  0  0  0  0  0  0  0  0  0  0
    2.8144   -0.8350   -0.6847 H   0  0  0  0  0  0  0  0  0  0  0  0
    5.3158   -1.2882    7.3620 H   0  0  0  0  0  0  0  0  0  0  0  0
    4.4584   -3.2005    6.0207 H   0  0  0  0  0  0  0  0  0  0  0  0
    5.2578    1.0090    6.4120 H   0  0  0  0  0  0  0  0  0  0  0  0
    3.5598   -2.8154    3.7411 H   0  0  0  0  0  0  0  0  0  0  0  0
    4.3581    1.3899    4.1322 H   0  0  0  0  0  0  0  0  0  0  0  0
  1  2  1  0  0  0  0
  1 13  1  0  0  0  0
  1 12  1  0  0  0  0
  2  3  1  0  0  0  0
  3  7  3  0  0  0  0
  4 16  1  0  0  0  0
  5 17  1  0  0  0  0
  5  4  2  0  0  0  0
  6  4  1  0  0  0  0
  6 18  1  0  0  0  0
  7 10  1  0  0  0  0
  8  5  1  0  0  0  0
  9  6  2  0  0  0  0
 10  8  2  0  0  0  0
 10  9  1  0  0  0  0
 11  1  1  0  0  0  0
 14  2  1  0  0  0  0
 15  2  1  0  0  0  0
 19  8  1  0  0  0  0
 20  9  1  0  0  0  0
M  END
>  <HBA>
0

>  <HBD>
0

>  <TPSA>
0.0

>  <cid>
69328

>  <dipole>
0.41

>  <excitation_energy_1>
4.89

>  <excitation_energy_2>
4.93

>  <excitation_energy_3>
5.047

>  <excitation_energy_4>
5.608

>  <homo_energy>
-5.954

>  <homo_lumo_gap>
5.369

>  <logP>
2.448

>  <lumo_energy>
-0.585

>  <melting_point>
22.51

>  <molecular_refractivity>
43.99

>  <oscillator_strength_1>
0.0014

>  <oscillator_strength_2>
0.4492

>  <oscillator_strength_3>
0.0016

>  <oscillator_strength_4>
0.006

>  <open_babel_can_smiles>
CCC#Cc1ccccc1

>  <mulliken_charges>
20
1   -0.435161
2   -0.389185
3   -0.09499
4   -0.125038
5   -0.13311
6   -0.133518
7   0.104818
8   -0.136924
9   -0.136415
10   0.008751
11   0.14686
12   0.158953
13   0.158406
14   0.168998
15   0.168986
16   0.130627
17   0.131542
18   0.131608
19   0.137381
20   0.137411

>  <lowdin_charges>
20
1   -0.435671
2   -0.257928
3   -0.0675
4   -0.154119
5   -0.154989
6   -0.156811
7   -0.083339
8   -0.149181
9   -0.147463
10   0.00709
11   0.150649
12   0.157468
13   0.156179
14   0.165025
15   0.166068
16   0.157701
17   0.158395
18   0.160086
19   0.164985
20   0.163356

$$$$

