PCCDB-ID:  53150
public computational chemistry database (PCCDB) project, http://pccdb.org

 26 25  0  0  1  0  0  0  0  0999 V2000
    1.2145   -1.4114    2.3710 C   0  0  0  0  0  0  0  0  0  0  0  0
    6.7248   -4.1684    0.7216 C   0  0  0  0  0  0  0  0  0  0  0  0
    6.1366   -0.1582    2.2415 C   0  0  0  0  0  0  0  0  0  0  0  0
    2.7320   -1.3265    2.1752 C   0  0  0  0  0  0  0  0  0  0  0  0
    3.1167   -1.1835    0.6973 C   0  0  0  0  0  0  0  0  0  0  0  0
    6.2931   -2.8316    0.1711 C   0  0  0  0  0  0  0  0  0  0  0  0
    4.6157   -1.1410    0.4029 C   0  0  1  0  0  0  0  0  0  0  0  0
    5.3292    1.1897    0.4658 N   0  0  0  0  0  0  0  0  0  0  0  0
    5.3083   -0.0154    1.0550 N   0  0  0  0  0  0  0  0  0  0  0  0
    6.8138   -2.2348   -0.7394 O   0  0  0  0  0  0  0  0  0  0  0  0
    4.6579    1.2761   -0.5609 O   0  0  0  0  0  0  0  0  0  0  0  0
    5.1991   -2.3698    0.8535 O   0  0  0  0  0  0  0  0  0  0  0  0
    0.9563   -1.5087    3.4313 H   0  0  0  0  0  0  0  0  0  0  0  0
    0.7947   -2.2773    1.8447 H   0  0  0  0  0  0  0  0  0  0  0  0
    0.7139   -0.5147    1.9863 H   0  0  0  0  0  0  0  0  0  0  0  0
    7.6161   -4.5073    0.1930 H   0  0  0  0  0  0  0  0  0  0  0  0
    5.9194   -4.9001    0.5984 H   0  0  0  0  0  0  0  0  0  0  0  0
    6.9319   -4.0894    1.7937 H   0  0  0  0  0  0  0  0  0  0  0  0
    5.5668   -0.5968    3.0653 H   0  0  0  0  0  0  0  0  0  0  0  0
    6.4631    0.8467    2.5145 H   0  0  0  0  0  0  0  0  0  0  0  0
    7.0179   -0.7783    2.0453 H   0  0  0  0  0  0  0  0  0  0  0  0
    3.2080   -2.2225    2.5926 H   0  0  0  0  0  0  0  0  0  0  0  0
    3.1215   -0.4682    2.7383 H   0  0  0  0  0  0  0  0  0  0  0  0
    2.6909   -0.2641    0.2795 H   0  0  0  0  0  0  0  0  0  0  0  0
    2.6995   -2.0192    0.1195 H   0  0  0  0  0  0  0  0  0  0  0  0
    4.7911   -1.0179   -0.6678 H   0  0  0  0  0  0  0  0  0  0  0  0
  1 13  1  0  0  0  0
  2 18  1  0  0  0  0
  3 20  1  0  0  0  0
  3 19  1  0  0  0  0
  4  1  1  0  0  0  0
  4 22  1  0  0  0  0
  4 23  1  0  0  0  0
  5  4  1  0  0  0  0
  6  2  1  0  0  0  0
  6 12  1  0  0  0  0
  7 26  1  6  0  0  0
  7  5  1  0  0  0  0
  7 12  1  0  0  0  0
  7  9  1  0  0  0  0
  8  9  1  0  0  0  0
  9  3  1  0  0  0  0
 10  6  2  0  0  0  0
 11  8  1  0  0  0  0
 14  1  1  0  0  0  0
 15  1  1  0  0  0  0
 16  2  1  0  0  0  0
 17  2  1  0  0  0  0
 21  3  1  0  0  0  0
 24  5  1  0  0  0  0
 25  5  1  0  0  0  0
M  RAD  2   8   2  11   2
M  END
>  <HBA>
5

>  <HBD>
0

>  <TPSA>
58.97

>  <cid>
53150

>  <dipole>
5.22

>  <excitation_energy_1>
3.351

>  <excitation_energy_2>
5.253

>  <excitation_energy_3>
5.683

>  <excitation_energy_4>
5.734

>  <homo_energy>
-6.106

>  <homo_lumo_gap>
5.203

>  <logP>
1.289

>  <lumo_energy>
-0.903

>  <melting_point>
6.9

>  <molecular_refractivity>
44.68

>  <oscillator_strength_1>
0.0008

>  <oscillator_strength_2>
0.0098

>  <oscillator_strength_3>
0.0058

>  <oscillator_strength_4>
0.0062

>  <open_babel_can_smiles>
CCC[C@@H](N([N][O])C)OC(=O)C

>  <mulliken_charges>
26
1   -0.444541
2   -0.527389
3   -0.308174
4   -0.264548
5   -0.267786
6   0.603464
7   0.249684
8   0.156405
9   -0.239456
10   -0.44313
11   -0.377456
12   -0.478698
13   0.146566
14   0.145175
15   0.149515
16   0.189948
17   0.188668
18   0.183388
19   0.171398
20   0.192256
21   0.170017
22   0.145555
23   0.141444
24   0.172591
25   0.145777
26   0.199325

>  <lowdin_charges>
26
1   -0.442781
2   -0.463713
3   -0.356122
4   -0.279514
5   -0.285017
6   0.205016
7   0.049693
8   0.05726
9   -0.049096
10   -0.240303
11   -0.271013
12   -0.198509
13   0.150759
14   0.148922
15   0.15107
16   0.180283
17   0.182471
18   0.17724
19   0.16165
20   0.178124
21   0.157837
22   0.145826
23   0.144393
24   0.166564
25   0.15403
26   0.174932

$$$$

