PCCDB-ID:  9312
public computational chemistry database (PCCDB) project, http://pccdb.org

 14 14  0  0  0  0  0  0  0  0999 V2000
    1.0030   -0.1389   -0.0854 C   0  0  0  0  0  0  0  0  0  0  0  0
    5.9221    1.3453   -0.0643 C   0  0  0  0  0  0  0  0  0  0  0  0
    3.3041    1.1462   -0.0770 C   0  0  0  0  0  0  0  0  0  0  0  0
    2.5018   -0.0339   -0.0799 C   0  0  0  0  0  0  0  0  0  0  0  0
    4.5866    0.6840   -0.0718 C   0  0  0  0  0  0  0  0  0  0  0  0
    3.2444   -1.1198   -0.0760 N   0  0  0  0  0  0  0  0  0  0  0  0
    4.5725   -0.6654   -0.0710 O   0  0  0  0  0  0  0  0  0  0  0  0
    0.5470    0.8547   -0.0764 H   0  0  0  0  0  0  0  0  0  0  0  0
    0.6461   -0.6894    0.7911 H   0  0  0  0  0  0  0  0  0  0  0  0
    0.6509   -0.6706   -0.9755 H   0  0  0  0  0  0  0  0  0  0  0  0
    5.8058    2.4319   -0.0736 H   0  0  0  0  0  0  0  0  0  0  0  0
    6.5111    1.0508   -0.9405 H   0  0  0  0  0  0  0  0  0  0  0  0
    6.4944    1.0643    0.8272 H   0  0  0  0  0  0  0  0  0  0  0  0
    2.9709    2.1737   -0.0811 H   0  0  0  0  0  0  0  0  0  0  0  0
  1  4  1  0  0  0  0
  1  8  1  0  0  0  0
  1  9  1  0  0  0  0
  2 13  1  0  0  0  0
  3  5  2  0  0  0  0
  4  3  1  0  0  0  0
  4  6  2  0  0  0  0
  5  7  1  0  0  0  0
  5  2  1  0  0  0  0
  6  7  1  0  0  0  0
 10  1  1  0  0  0  0
 11  2  1  0  0  0  0
 12  2  1  0  0  0  0
 14  3  1  0  0  0  0
M  END
>  <HBA>
2

>  <HBD>
0

>  <TPSA>
26.03

>  <cid>
9312

>  <dipole>
3.06

>  <excitation_energy_1>
6.179

>  <excitation_energy_2>
6.206

>  <excitation_energy_3>
6.422

>  <excitation_energy_4>
6.599

>  <homo_energy>
-6.727

>  <homo_lumo_gap>
6.596

>  <logP>
1.291

>  <lumo_energy>
-0.131

>  <melting_point>
26.73

>  <molecular_refractivity>
26.43

>  <oscillator_strength_1>
0.1794

>  <oscillator_strength_2>
0.0027

>  <oscillator_strength_3>
0.0064

>  <oscillator_strength_4>
0.0045

>  <open_babel_can_smiles>
Cc1onc(c1)C

>  <mulliken_charges>
14
1   -0.514492
2   -0.526773
3   -0.296696
4   0.313919
5   0.419185
6   -0.22302
7   -0.368676
8   0.158573
9   0.180847
10   0.18069
11   0.170968
12   0.183168
13   0.183224
14   0.139083

>  <lowdin_charges>
14
1   -0.441551
2   -0.440795
3   -0.257871
4   0.02109
5   0.096125
6   -0.095428
7   -0.081737
8   0.161756
9   0.174117
10   0.173903
11   0.169125
12   0.17545
13   0.175351
14   0.170465

$$$$

