PCCDB-ID:  12437
public computational chemistry database (PCCDB) project, http://pccdb.org

 20 19  0  0  0  0  0  0  0  0999 V2000
   -0.2280   -0.0553    0.4531 C   0  0  0  0  0  0  0  0  0  0  0  0
    1.5802    0.2283   -1.1721 C   0  0  0  0  0  0  0  0  0  0  0  0
    2.6882    0.5448    3.5193 C   0  0  0  0  0  0  0  0  0  0  0  0
    0.8060    1.8741    2.6954 C   0  0  0  0  0  0  0  0  0  0  0  0
    2.1132    0.3924    1.1781 C   0  0  0  0  0  0  0  0  0  0  0  0
    1.1232    0.4335    0.1960 N   0  0  0  0  0  0  0  0  0  0  0  0
    1.7040    0.7466    2.4642 N   0  0  0  0  0  0  0  0  0  0  0  0
    3.2698    0.0657    0.9270 O   0  0  0  0  0  0  0  0  0  0  0  0
   -0.3664   -1.0536    0.0099 H   0  0  0  0  0  0  0  0  0  0  0  0
   -0.9801    0.6150    0.0171 H   0  0  0  0  0  0  0  0  0  0  0  0
   -0.4057   -0.1372    1.5250 H   0  0  0  0  0  0  0  0  0  0  0  0
    0.8520    0.6722   -1.8603 H   0  0  0  0  0  0  0  0  0  0  0  0
    1.6884   -0.8394   -1.4168 H   0  0  0  0  0  0  0  0  0  0  0  0
    2.5493    0.7074   -1.3088 H   0  0  0  0  0  0  0  0  0  0  0  0
    2.1667    0.4533    4.4787 H   0  0  0  0  0  0  0  0  0  0  0  0
    3.4010    1.3807    3.5857 H   0  0  0  0  0  0  0  0  0  0  0  0
    3.2517   -0.3669    3.3227 H   0  0  0  0  0  0  0  0  0  0  0  0
    1.3725    2.7515    3.0441 H   0  0  0  0  0  0  0  0  0  0  0  0
    0.0558    1.6310    3.4591 H   0  0  0  0  0  0  0  0  0  0  0  0
    0.2956    2.1501    1.7731 H   0  0  0  0  0  0  0  0  0  0  0  0
  1 11  1  0  0  0  0
  2  6  1  0  0  0  0
  3 16  1  0  0  0  0
  3 15  1  0  0  0  0
  4 18  1  0  0  0  0
  4 19  1  0  0  0  0
  5  7  1  0  0  0  0
  6  1  1  0  0  0  0
  6  5  1  0  0  0  0
  7  4  1  0  0  0  0
  7  3  1  0  0  0  0
  8  5  2  0  0  0  0
  9  1  1  0  0  0  0
 10  1  1  0  0  0  0
 12  2  1  0  0  0  0
 13  2  1  0  0  0  0
 14  2  1  0  0  0  0
 17  3  1  0  0  0  0
 20  4  1  0  0  0  0
M  END
>  <HBA>
3

>  <HBD>
0

>  <TPSA>
23.55

>  <cid>
12437

>  <dipole>
3.2

>  <excitation_energy_1>
5.608

>  <excitation_energy_2>
5.738

>  <excitation_energy_3>
5.856

>  <excitation_energy_4>
5.989

>  <homo_energy>
-6.153

>  <homo_lumo_gap>
7.41

>  <logP>
0.23

>  <lumo_energy>
1.257

>  <melting_point>
11.1

>  <molecular_refractivity>
32.53

>  <oscillator_strength_1>
0.0036

>  <oscillator_strength_2>
0.0261

>  <oscillator_strength_3>
0.0024

>  <oscillator_strength_4>
0.1203

>  <open_babel_can_smiles>
CN(C(=O)N(C)C)C

>  <mulliken_charges>
20
1   -0.321092
2   -0.298216
3   -0.298148
4   -0.321399
5   0.722839
6   -0.431885
7   -0.431557
8   -0.53425
9   0.151835
10   0.151821
11   0.178634
12   0.142018
13   0.147639
14   0.184986
15   0.142008
16   0.147511
17   0.184954
18   0.15184
19   0.151898
20   0.178566

>  <lowdin_charges>
20
1   -0.352055
2   -0.347592
3   -0.34926
4   -0.355066
5   0.170192
6   -0.141738
7   -0.14201
8   -0.32729
9   0.144594
10   0.147652
11   0.166257
12   0.147837
13   0.14083
14   0.173429
15   0.146387
16   0.142751
17   0.173899
18   0.145853
19   0.147081
20   0.168252

$$$$

