PCCDB-ID:  62434
public computational chemistry database (PCCDB) project, http://pccdb.org

 14 13  0  0  0  0  0  0  0  0999 V2000
   -0.8952    2.1303    0.5372 C   0  0  0  0  0  0  0  0  0  0  0  0
    5.0809    2.7926    0.2678 C   0  0  0  0  0  0  0  0  0  0  0  0
   -0.0119    1.5975   -0.3097 C   0  0  0  0  0  0  0  0  0  0  0  0
    1.3614    2.1448   -0.5475 C   0  0  0  0  0  0  0  0  0  0  0  0
    4.3848    1.4323   -0.7523 S   0  0  0  0  0  0  0  0  0  0  0  0
    2.5977    0.9661    0.2064 S   0  0  0  0  0  0  0  0  0  0  0  0
   -1.8816    1.6977    0.6787 H   0  0  0  0  0  0  0  0  0  0  0  0
   -0.6664    3.0224    1.1164 H   0  0  0  0  0  0  0  0  0  0  0  0
    6.0701    3.0072   -0.1499 H   0  0  0  0  0  0  0  0  0  0  0  0
    5.1883    2.4775    1.3078 H   0  0  0  0  0  0  0  0  0  0  0  0
    4.4648    3.6928    0.2078 H   0  0  0  0  0  0  0  0  0  0  0  0
   -0.2679    0.6954   -0.8639 H   0  0  0  0  0  0  0  0  0  0  0  0
    1.4811    3.1328   -0.0943 H   0  0  0  0  0  0  0  0  0  0  0  0
    1.5940    2.2081   -1.6149 H   0  0  0  0  0  0  0  0  0  0  0  0
  1  7  1  0  0  0  0
  1  8  1  0  0  0  0
  2 10  1  0  0  0  0
  3  1  2  0  0  0  0
  4  3  1  0  0  0  0
  4 13  1  0  0  0  0
  4  6  1  0  0  0  0
  5  6  1  0  0  0  0
  5  2  1  0  0  0  0
  9  2  1  0  0  0  0
 11  2  1  0  0  0  0
 12  3  1  0  0  0  0
 14  4  1  0  0  0  0
M  END
>  <HBA>
2

>  <HBD>
0

>  <TPSA>
50.6

>  <cid>
62434

>  <dipole>
2.24

>  <excitation_energy_1>
4.442

>  <excitation_energy_2>
4.527

>  <excitation_energy_3>
5.298

>  <excitation_energy_4>
5.47

>  <homo_energy>
-6.397

>  <homo_lumo_gap>
5.57

>  <logP>
2.184

>  <lumo_energy>
-0.827

>  <melting_point>
-27.89

>  <molecular_refractivity>
36.05

>  <oscillator_strength_1>
0.0064

>  <oscillator_strength_2>
0.0022

>  <oscillator_strength_3>
0.0199

>  <oscillator_strength_4>
0.0297

>  <open_babel_can_smiles>
CSSCC=C

>  <mulliken_charges>
14
1   -0.320406
2   -0.583207
3   -0.054416
4   -0.452586
5   0.007914
6   0.0196
7   0.150886
8   0.144886
9   0.18645
10   0.195958
11   0.183151
12   0.150007
13   0.175796
14   0.195966

>  <lowdin_charges>
14
1   -0.319539
2   -0.550522
3   -0.15249
4   -0.369663
5   0.033219
6   0.026247
7   0.164031
8   0.159083
9   0.176857
10   0.172151
11   0.16543
12   0.16247
13   0.160229
14   0.172498

$$$$

