PCCDB-ID:  70904
public computational chemistry database (PCCDB) project, http://pccdb.org

 31 30  0  0  0  0  0  0  0  0999 V2000
    0.9980   -0.2899   -0.0264 C   0  0  0  0  0  0  0  0  0  0  0  0
    2.7146    2.9347   -0.7274 C   0  0  0  0  0  0  0  0  0  0  0  0
    2.9544   -0.5311    3.1689 C   0  0  0  0  0  0  0  0  0  0  0  0
    6.6640    1.9113    1.5635 C   0  0  0  0  0  0  0  0  0  0  0  0
    2.5038   -0.0429    0.1169 C   0  0  0  0  0  0  0  0  0  0  0  0
    2.3470    2.4496    0.6785 C   0  0  0  0  0  0  0  0  0  0  0  0
    2.4546    0.7787    2.5482 C   0  0  0  0  0  0  0  0  0  0  0  0
    5.1711    1.9961    1.8826 C   0  0  0  0  0  0  0  0  0  0  0  0
    2.9397    1.0772    1.0980 C   0  0  0  0  0  0  0  0  0  0  0  0
    4.4161    1.1321    0.9756 N   0  0  0  0  0  0  0  0  0  0  0  0
    0.8155   -1.0984   -0.7435 H   0  0  0  0  0  0  0  0  0  0  0  0
    0.4693    0.5965   -0.3941 H   0  0  0  0  0  0  0  0  0  0  0  0
    0.5339   -0.5845    0.9216 H   0  0  0  0  0  0  0  0  0  0  0  0
    2.3539    3.9574   -0.8873 H   0  0  0  0  0  0  0  0  0  0  0  0
    2.2694    2.3061   -1.5070 H   0  0  0  0  0  0  0  0  0  0  0  0
    3.7989    2.9218   -0.8715 H   0  0  0  0  0  0  0  0  0  0  0  0
    2.6387   -0.6056    4.2157 H   0  0  0  0  0  0  0  0  0  0  0  0
    4.0491   -0.5955    3.1538 H   0  0  0  0  0  0  0  0  0  0  0  0
    2.5633   -1.4120    2.6478 H   0  0  0  0  0  0  0  0  0  0  0  0
    7.2411    2.5786    2.2134 H   0  0  0  0  0  0  0  0  0  0  0  0
    6.8513    2.1870    0.5206 H   0  0  0  0  0  0  0  0  0  0  0  0
    7.0432    0.8923    1.7157 H   0  0  0  0  0  0  0  0  0  0  0  0
    2.9324    0.1903   -0.8641 H   0  0  0  0  0  0  0  0  0  0  0  0
    2.9834   -0.9807    0.4313 H   0  0  0  0  0  0  0  0  0  0  0  0
    1.2556    2.3985    0.7790 H   0  0  0  0  0  0  0  0  0  0  0  0
    2.6673    3.2017    1.4116 H   0  0  0  0  0  0  0  0  0  0  0  0
    2.7609    1.6142    3.1912 H   0  0  0  0  0  0  0  0  0  0  0  0
    1.3572    0.7881    2.5644 H   0  0  0  0  0  0  0  0  0  0  0  0
    4.8343    3.0294    1.7403 H   0  0  0  0  0  0  0  0  0  0  0  0
    5.0176    1.7634    2.9525 H   0  0  0  0  0  0  0  0  0  0  0  0
    4.7859    0.1852    1.0445 H   0  0  0  0  0  0  0  0  0  0  0  0
  1  5  1  0  0  0  0
  1 13  1  0  0  0  0
  2  6  1  0  0  0  0
  3 17  1  0  0  0  0
  4 22  1  0  0  0  0
  4  8  1  0  0  0  0
  4 20  1  0  0  0  0
  5 24  1  0  0  0  0
  5  9  1  0  0  0  0
  6 25  1  0  0  0  0
  6  9  1  0  0  0  0
  6 26  1  0  0  0  0
  7 28  1  0  0  0  0
  7  3  1  0  0  0  0
  7 27  1  0  0  0  0
  8 30  1  0  0  0  0
  9  7  1  0  0  0  0
 10 31  1  0  0  0  0
 10  9  1  0  0  0  0
 10  8  1  0  0  0  0
 11  1  1  0  0  0  0
 12  1  1  0  0  0  0
 14  2  1  0  0  0  0
 15  2  1  0  0  0  0
 16  2  1  0  0  0  0
 18  3  1  0  0  0  0
 19  3  1  0  0  0  0
 21  4  1  0  0  0  0
 23  5  1  0  0  0  0
 29  8  1  0  0  0  0
M  END
>  <HBA>
1

>  <HBD>
1

>  <TPSA>
12.03

>  <cid>
70904

>  <dipole>
0.83

>  <excitation_energy_1>
5.206

>  <excitation_energy_2>
5.527

>  <excitation_energy_3>
5.753

>  <excitation_energy_4>
5.81

>  <homo_energy>
-5.69

>  <homo_lumo_gap>
7.578

>  <logP>
2.956

>  <lumo_energy>
1.888

>  <melting_point>
9.65

>  <molecular_refractivity>
48.22

>  <oscillator_strength_1>
0.0061

>  <oscillator_strength_2>
0.0044

>  <oscillator_strength_3>
0.0178

>  <oscillator_strength_4>
0.0043

>  <open_babel_can_smiles>
CCNC(CC)(CC)CC

>  <mulliken_charges>
31
1   -0.457293
2   -0.448852
3   -0.459298
4   -0.450386
5   -0.279961
6   -0.264326
7   -0.264388
8   -0.111745
9   0.234616
10   -0.575745
11   0.143286
12   0.149557
13   0.145959
14   0.133379
15   0.140335
16   0.164376
17   0.144441
18   0.137275
19   0.146996
20   0.141627
21   0.156968
22   0.136132
23   0.150505
24   0.123095
25   0.130371
26   0.127522
27   0.131082
28   0.130723
29   0.141681
30   0.114899
31   0.287167

>  <lowdin_charges>
31
1   -0.450423
2   -0.447444
3   -0.448487
4   -0.44657
5   -0.2813
6   -0.278869
7   -0.290426
8   -0.198482
9   0.060668
10   -0.363971
11   0.152526
12   0.150089
13   0.147599
14   0.145567
15   0.146478
16   0.156079
17   0.151084
18   0.141506
19   0.148113
20   0.152293
21   0.1535
22   0.142696
23   0.151199
24   0.137827
25   0.140213
26   0.14096
27   0.142793
28   0.140983
29   0.140659
30   0.115243
31   0.247897

$$$$

