PCCDB-ID:  17543
public computational chemistry database (PCCDB) project, http://pccdb.org

 31 30  0  0  1  0  0  0  0  0999 V2000
    3.6044    0.8975    1.9108 C   0  0  0  0  0  0  0  0  0  0  0  0
    1.4797   -0.0431    0.9181 C   0  0  0  0  0  0  0  0  0  0  0  0
    4.7368    0.1653   -2.5858 C   0  0  0  0  0  0  0  0  0  0  0  0
    5.6906    1.6267   -0.7621 C   0  0  0  0  0  0  0  0  0  0  0  0
    2.6738    1.9411   -0.9557 C   0  0  0  0  0  0  0  0  0  0  0  0
    2.9949    0.1201    0.7277 C   0  0  0  0  0  0  0  0  0  0  0  0
    4.7100    0.4791   -1.0818 C   0  0  0  0  0  0  0  0  0  0  0  0
    1.4062    1.7308   -1.7852 C   0  0  1  0  0  0  0  0  0  0  0  0
    0.7500    3.8620   -1.3729 N   0  0  0  0  0  0  0  0  0  0  0  0
    0.4961    2.5977   -2.0093 N   0  0  0  0  0  0  0  0  0  0  0  0
    3.3101    0.6614   -0.6206 N   0  0  0  0  0  0  0  0  0  0  0  0
    1.2861    0.4993   -2.3258 O   0  0  0  0  0  0  0  0  0  0  0  0
    3.2931    0.4409    2.8575 H   0  0  0  0  0  0  0  0  0  0  0  0
    3.2686    1.9409    1.9245 H   0  0  0  0  0  0  0  0  0  0  0  0
    4.6980    0.8893    1.8874 H   0  0  0  0  0  0  0  0  0  0  0  0
    1.2838   -0.5679    1.8594 H   0  0  0  0  0  0  0  0  0  0  0  0
    1.0315   -0.6192    0.1038 H   0  0  0  0  0  0  0  0  0  0  0  0
    0.9658    0.9233    0.9680 H   0  0  0  0  0  0  0  0  0  0  0  0
    5.7637   -0.0101   -2.9263 H   0  0  0  0  0  0  0  0  0  0  0  0
    4.3313    0.9970   -3.1744 H   0  0  0  0  0  0  0  0  0  0  0  0
    4.1445   -0.7272   -2.8128 H   0  0  0  0  0  0  0  0  0  0  0  0
    6.7119    1.3162   -1.0110 H   0  0  0  0  0  0  0  0  0  0  0  0
    5.6727    1.9089    0.2934 H   0  0  0  0  0  0  0  0  0  0  0  0
    5.4777    2.5240   -1.3546 H   0  0  0  0  0  0  0  0  0  0  0  0
    2.4091    2.5415   -0.0774 H   0  0  0  0  0  0  0  0  0  0  0  0
    3.3693    2.5588   -1.5354 H   0  0  0  0  0  0  0  0  0  0  0  0
    3.4320   -0.8872    0.7338 H   0  0  0  0  0  0  0  0  0  0  0  0
    5.0664   -0.4133   -0.5528 H   0  0  0  0  0  0  0  0  0  0  0  0
   -0.0703    4.4229   -1.5924 H   0  0  0  0  0  0  0  0  0  0  0  0
    1.5246    4.3295   -1.8524 H   0  0  0  0  0  0  0  0  0  0  0  0
    2.0365    0.0038   -1.9161 H   0  0  0  0  0  0  0  0  0  0  0  0
  1 14  1  0  0  0  0
  1 13  1  0  0  0  0
  2 18  1  0  0  0  0
  2 16  1  0  0  0  0
  3  7  1  0  0  0  0
  4 23  1  0  0  0  0
  5 11  1  0  0  0  0
  5 25  1  0  0  0  0
  6 27  1  0  0  0  0
  6  2  1  0  0  0  0
  6  1  1  0  0  0  0
  7  4  1  0  0  0  0
  7 11  1  0  0  0  0
  7 28  1  0  0  0  0
  8 12  1  6  0  0  0
  8  5  1  0  0  0  0
 10  8  1  0  0  0  0
 10  9  1  0  0  0  0
 11  6  1  0  0  0  0
 12 31  1  0  0  0  0
 15  1  1  0  0  0  0
 17  2  1  0  0  0  0
 19  3  1  0  0  0  0
 20  3  1  0  0  0  0
 21  3  1  0  0  0  0
 22  4  1  0  0  0  0
 24  4  1  0  0  0  0
 26  5  1  0  0  0  0
 29  9  1  0  0  0  0
 30  9  1  0  0  0  0
M  RAD  2   8   2  10   2
M  END
>  <HBA>
4

>  <HBD>
2

>  <TPSA>
58.36

>  <cid>
17543

>  <dipole>
4.38

>  <excitation_energy_1>
4.716

>  <excitation_energy_2>
5.043

>  <excitation_energy_3>
5.415

>  <excitation_energy_4>
5.471

>  <homo_energy>
-5.287

>  <homo_lumo_gap>
6.446

>  <logP>
1.186

>  <lumo_energy>
1.159

>  <melting_point>
77.56

>  <molecular_refractivity>
49.18

>  <oscillator_strength_1>
0.0062

>  <oscillator_strength_2>
0.0003

>  <oscillator_strength_3>
0.0303

>  <oscillator_strength_4>
0.0115

>  <open_babel_can_smiles>
N[N][C](CN(C(C)C)C(C)C)O

>  <mulliken_charges>
31
1   -0.452573
2   -0.471769
3   -0.450688
4   -0.456559
5   -0.240756
6   0.048392
7   0.051535
8   0.529529
9   -0.601848
10   -0.371877
11   -0.457103
12   -0.612889
13   0.147081
14   0.151742
15   0.147914
16   0.146734
17   0.162568
18   0.168254
19   0.146109
20   0.152648
21   0.151848
22   0.148865
23   0.155753
24   0.145606
25   0.193189
26   0.159323
27   0.13343
28   0.134585
29   0.32127
30   0.295744
31   0.423942

>  <lowdin_charges>
31
1   -0.458923
2   -0.457177
3   -0.453808
4   -0.460365
5   -0.244833
6   -0.052443
7   -0.05387
8   0.08687
9   -0.47666
10   -0.185487
11   -0.193812
12   -0.374601
13   0.154845
14   0.151329
15   0.147977
16   0.154997
17   0.16091
18   0.160541
19   0.152221
20   0.153527
21   0.153964
22   0.155059
23   0.153742
24   0.148426
25   0.170089
26   0.162011
27   0.139827
28   0.144947
29   0.264693
30   0.247692
31   0.348311

$$$$

