PCCDB-ID:  9209
public computational chemistry database (PCCDB) project, http://pccdb.org

 16 17  0  0  0  0  0  0  0  0999 V2000
    2.4117    0.7248    0.0195 C   0  0  0  0  0  0  0  0  0  0  0  0
    1.2467    1.4532    0.0055 C   0  0  0  0  0  0  0  0  0  0  0  0
   -1.2687    1.3760   -0.0235 C   0  0  0  0  0  0  0  0  0  0  0  0
    2.3399   -0.6943    0.0187 C   0  0  0  0  0  0  0  0  0  0  0  0
   -2.3926    0.5821   -0.0358 C   0  0  0  0  0  0  0  0  0  0  0  0
   -1.1861   -1.3665   -0.0209 C   0  0  0  0  0  0  0  0  0  0  0  0
    0.0079    0.7603   -0.0083 C   0  0  0  0  0  0  0  0  0  0  0  0
    0.0526   -0.6644   -0.0076 C   0  0  0  0  0  0  0  0  0  0  0  0
   -2.3651   -0.7801   -0.0346 N   0  0  0  0  0  0  0  0  0  0  0  0
    1.2142   -1.3783    0.0058 N   0  0  0  0  0  0  0  0  0  0  0  0
    3.3816    1.2130    0.0310 H   0  0  0  0  0  0  0  0  0  0  0  0
    1.2584    2.5405    0.0061 H   0  0  0  0  0  0  0  0  0  0  0  0
   -1.3541    2.4597   -0.0242 H   0  0  0  0  0  0  0  0  0  0  0  0
    3.2605   -1.2768    0.0298 H   0  0  0  0  0  0  0  0  0  0  0  0
   -3.3846    1.0282   -0.0474 H   0  0  0  0  0  0  0  0  0  0  0  0
   -1.1559   -2.4551   -0.0192 H   0  0  0  0  0  0  0  0  0  0  0  0
  1 11  1  0  0  0  0
  2 12  1  0  0  0  0
  2  1  2  0  0  0  0
  3  7  2  0  0  0  0
  4  1  1  0  0  0  0
  4 14  1  0  0  0  0
  5  9  2  0  0  0  0
  5  3  1  0  0  0  0
  6 16  1  0  0  0  0
  6  8  2  0  0  0  0
  7  8  1  0  0  0  0
  7  2  1  0  0  0  0
  8 10  1  0  0  0  0
  9  6  1  0  0  0  0
 10  4  2  0  0  0  0
 13  3  1  0  0  0  0
 15  5  1  0  0  0  0
M  END
>  <HBA>
2

>  <HBD>
0

>  <TPSA>
25.78

>  <cid>
9209

>  <dipole>
3.72

>  <excitation_energy_1>
3.935

>  <excitation_energy_2>
4.349

>  <excitation_energy_3>
4.393

>  <excitation_energy_4>
4.73

>  <homo_energy>
-6.716

>  <homo_lumo_gap>
4.887

>  <logP>
1.63

>  <lumo_energy>
-1.829

>  <melting_point>
78.66

>  <molecular_refractivity>
39.54

>  <oscillator_strength_1>
0.0

>  <oscillator_strength_2>
0.053

>  <oscillator_strength_3>
0.0032

>  <oscillator_strength_4>
0.0054

>  <open_babel_can_smiles>
c1cnc2c(c1)ccnc2

>  <mulliken_charges>
16
1   -0.148557
2   -0.138086
3   -0.203144
4   0.044715
5   0.030476
6   0.041509
7   0.175287
8   0.210856
9   -0.412166
10   -0.487812
11   0.146293
12   0.148902
13   0.138336
14   0.148486
15   0.145702
16   0.159204

>  <lowdin_charges>
16
1   -0.167871
2   -0.124382
3   -0.172832
4   -0.082952
5   -0.093788
6   -0.075292
7   -0.003496
8   0.019303
9   -0.142899
10   -0.136688
11   0.168353
12   0.164319
13   0.162442
14   0.160494
15   0.15977
16   0.165518

$$$$

