PCCDB-ID:  25163
public computational chemistry database (PCCDB) project, http://pccdb.org

 32 31  0  0  0  0  0  0  0  0999 V2000
    2.8398   -1.7137    0.0598 C   0  0  0  0  0  0  0  0  0  0  0  0
    2.9865    2.9169   -0.0980 C   0  0  0  0  0  0  0  0  0  0  0  0
    0.4473   -0.0700    2.3454 C   0  0  0  0  0  0  0  0  0  0  0  0
    5.8960    2.6421    4.1755 C   0  0  0  0  0  0  0  0  0  0  0  0
    2.4869   -0.2226   -0.0441 C   0  0  0  0  0  0  0  0  0  0  0  0
    2.2136    2.0994    0.9465 C   0  0  0  0  0  0  0  0  0  0  0  0
    1.9704    0.0758    2.4600 C   0  0  0  0  0  0  0  0  0  0  0  0
    4.2211    0.6550    1.5315 C   0  0  0  0  0  0  0  0  0  0  0  0
    5.7605    1.6436    3.0484 C   0  0  0  0  0  0  0  0  0  0  0  0
    2.7148    0.6519    1.2221 C   0  0  0  0  0  0  0  0  0  0  0  0
    6.6604    0.9761    2.5877 O   0  0  0  0  0  0  0  0  0  0  0  0
    4.4819    1.5849    2.6097 O   0  0  0  0  0  0  0  0  0  0  0  0
    2.6360   -2.2137   -0.8939 H   0  0  0  0  0  0  0  0  0  0  0  0
    2.2505   -2.2247    0.8288 H   0  0  0  0  0  0  0  0  0  0  0  0
    3.8986   -1.8773    0.2891 H   0  0  0  0  0  0  0  0  0  0  0  0
    2.5084    3.8934   -0.2365 H   0  0  0  0  0  0  0  0  0  0  0  0
    3.0124    2.4285   -1.0784 H   0  0  0  0  0  0  0  0  0  0  0  0
    4.0199    3.1030    0.2132 H   0  0  0  0  0  0  0  0  0  0  0  0
    0.0406   -0.4934    3.2709 H   0  0  0  0  0  0  0  0  0  0  0  0
    0.1552   -0.7374    1.5268 H   0  0  0  0  0  0  0  0  0  0  0  0
   -0.0488    0.8927    2.1835 H   0  0  0  0  0  0  0  0  0  0  0  0
    6.9380    2.6914    4.4931 H   0  0  0  0  0  0  0  0  0  0  0  0
    5.2649    2.3446    5.0196 H   0  0  0  0  0  0  0  0  0  0  0  0
    5.5582    3.6309    3.8484 H   0  0  0  0  0  0  0  0  0  0  0  0
    1.4323   -0.1307   -0.3335 H   0  0  0  0  0  0  0  0  0  0  0  0
    3.0587    0.2097   -0.8753 H   0  0  0  0  0  0  0  0  0  0  0  0
    1.1629    2.0419    0.6356 H   0  0  0  0  0  0  0  0  0  0  0  0
    2.2243    2.6511    1.8940 H   0  0  0  0  0  0  0  0  0  0  0  0
    2.3993   -0.9057    2.7018 H   0  0  0  0  0  0  0  0  0  0  0  0
    2.2012    0.7189    3.3181 H   0  0  0  0  0  0  0  0  0  0  0  0
    4.8141    0.9570    0.6623 H   0  0  0  0  0  0  0  0  0  0  0  0
    4.5721   -0.3338    1.8398 H   0  0  0  0  0  0  0  0  0  0  0  0
  1 15  1  0  0  0  0
  1 14  1  0  0  0  0
  2 18  1  0  0  0  0
  2  6  1  0  0  0  0
  3  7  1  0  0  0  0
  3 19  1  0  0  0  0
  4 22  1  0  0  0  0
  4 23  1  0  0  0  0
  5  1  1  0  0  0  0
  5 10  1  0  0  0  0
  6 10  1  0  0  0  0
  6 28  1  0  0  0  0
  7 29  1  0  0  0  0
  7 30  1  0  0  0  0
  8 32  1  0  0  0  0
  8 12  1  0  0  0  0
  9  4  1  0  0  0  0
 10  8  1  0  0  0  0
 10  7  1  0  0  0  0
 11  9  2  0  0  0  0
 12  9  1  0  0  0  0
 13  1  1  0  0  0  0
 16  2  1  0  0  0  0
 17  2  1  0  0  0  0
 20  3  1  0  0  0  0
 21  3  1  0  0  0  0
 24  4  1  0  0  0  0
 25  5  1  0  0  0  0
 26  5  1  0  0  0  0
 27  6  1  0  0  0  0
 31  8  1  0  0  0  0
M  END
>  <HBA>
2

>  <HBD>
0

>  <TPSA>
26.3

>  <cid>
25163

>  <dipole>
2.05

>  <excitation_energy_1>
5.791

>  <excitation_energy_2>
6.874

>  <excitation_energy_3>
7.269

>  <excitation_energy_4>
7.383

>  <homo_energy>
-7.255

>  <homo_lumo_gap>
7.695

>  <logP>
2.766

>  <lumo_energy>
0.441

>  <melting_point>
1.91

>  <molecular_refractivity>
51.21

>  <oscillator_strength_1>
0.0012

>  <oscillator_strength_2>
0.0297

>  <oscillator_strength_3>
0.0065

>  <oscillator_strength_4>
0.0024

>  <open_babel_can_smiles>
CCC(COC(=O)C)(CC)CC

>  <mulliken_charges>
32
1   -0.461121
2   -0.461358
3   -0.457389
4   -0.52491
5   -0.272524
6   -0.259884
7   -0.266274
8   -0.044441
9   0.604575
10   0.073205
11   -0.468861
12   -0.464784
13   0.145971
14   0.150661
15   0.151406
16   0.143856
17   0.145751
18   0.150359
19   0.144068
20   0.145943
21   0.148401
22   0.182068
23   0.180383
24   0.179886
25   0.137503
26   0.135818
27   0.132752
28   0.142779
29   0.129681
30   0.144585
31   0.154024
32   0.157874

>  <lowdin_charges>
32
1   -0.450782
2   -0.448102
3   -0.450724
4   -0.466062
5   -0.276579
6   -0.275668
7   -0.278642
8   -0.131445
9   0.200947
10   -0.0046
11   -0.264746
12   -0.199829
13   0.153066
14   0.15084
15   0.148413
16   0.151789
17   0.146288
18   0.148442
19   0.152358
20   0.147894
21   0.149033
22   0.174327
23   0.177567
24   0.176055
25   0.143823
26   0.144804
27   0.14106
28   0.147965
29   0.14046
30   0.148626
31   0.150985
32   0.152436

$$$$

