PCCDB-ID:  26392
public computational chemistry database (PCCDB) project, http://pccdb.org

 20 20  0  0  0  0  0  0  0  0999 V2000
    0.9323   -0.0641   -0.0608 C   0  0  0  0  0  0  0  0  0  0  0  0
    4.5528    1.1045    0.3201 C   0  0  0  0  0  0  0  0  0  0  0  0
    3.1640    1.1140    0.1971 C   0  0  0  0  0  0  0  0  0  0  0  0
    5.2275   -0.1120    0.3359 C   0  0  0  0  0  0  0  0  0  0  0  0
    2.4378   -0.0734    0.0758 C   0  0  0  0  0  0  0  0  0  0  0  0
    4.5411   -1.3321    0.2234 C   0  0  0  0  0  0  0  0  0  0  0  0
    3.1392   -1.2935    0.0811 C   0  0  0  0  0  0  0  0  0  0  0  0
    5.3087   -2.6186    0.2333 C   0  0  0  0  0  0  0  0  0  0  0  0
    5.0736   -3.6851   -0.4140 N   0  0  0  0  0  0  0  0  0  0  0  0
    2.4811   -2.4858   -0.0474 O   0  0  0  0  0  0  0  0  0  0  0  0
    6.4389   -2.6013    1.0095 O   0  0  0  0  0  0  0  0  0  0  0  0
    0.5484    0.9591   -0.0352 H   0  0  0  0  0  0  0  0  0  0  0  0
    0.4368   -0.6108    0.7548 H   0  0  0  0  0  0  0  0  0  0  0  0
    0.5983   -0.5080   -1.0097 H   0  0  0  0  0  0  0  0  0  0  0  0
    5.1033    2.0370    0.3978 H   0  0  0  0  0  0  0  0  0  0  0  0
    2.6263    2.0590    0.1884 H   0  0  0  0  0  0  0  0  0  0  0  0
    6.3117   -0.1254    0.4054 H   0  0  0  0  0  0  0  0  0  0  0  0
    4.2320   -3.5701   -0.9772 H   0  0  0  0  0  0  0  0  0  0  0  0
    1.5276   -2.3226   -0.1065 H   0  0  0  0  0  0  0  0  0  0  0  0
    6.3614   -1.8815    1.6543 H   0  0  0  0  0  0  0  0  0  0  0  0
  1 12  1  0  0  0  0
  1  5  1  0  0  0  0
  1 13  1  0  0  0  0
  2  4  1  0  0  0  0
  2 15  1  0  0  0  0
  3  2  2  0  0  0  0
  4 17  1  0  0  0  0
  5  7  2  0  0  0  0
  5  3  1  0  0  0  0
  6  8  1  0  0  0  0
  6  4  2  0  0  0  0
  7  6  1  0  0  0  0
  8 11  1  0  0  0  0
  9  8  2  0  0  0  0
 10  7  1  0  0  0  0
 11 20  1  0  0  0  0
 14  1  1  0  0  0  0
 16  3  1  0  0  0  0
 18  9  1  0  0  0  0
 19 10  1  0  0  0  0
M  END
>  <HBA>
3

>  <HBD>
2

>  <TPSA>
63.32

>  <cid>
26392

>  <dipole>
6.22

>  <excitation_energy_1>
4.691

>  <excitation_energy_2>
4.949

>  <excitation_energy_3>
5.259

>  <excitation_energy_4>
5.36

>  <homo_energy>
-6.319

>  <homo_lumo_gap>
5.437

>  <logP>
1.5

>  <lumo_energy>
-0.882

>  <melting_point>
138.94

>  <molecular_refractivity>
41.53

>  <oscillator_strength_1>
0.0695

>  <oscillator_strength_2>
0.0078

>  <oscillator_strength_3>
0.0988

>  <oscillator_strength_4>
0.0038

>  <open_babel_can_smiles>
OC(=N)c1cccc(c1O)C

>  <mulliken_charges>
20
1   -0.584503
2   -0.124984
3   -0.191771
4   -0.216507
5   0.167113
6   0.04578
7   0.218306
8   0.43846
9   -0.583314
10   -0.640117
11   -0.583032
12   0.177275
13   0.167741
14   0.169166
15   0.135714
16   0.131318
17   0.146946
18   0.30291
19   0.421987
20   0.401511

>  <lowdin_charges>
20
1   -0.454971
2   -0.173569
3   -0.149682
4   -0.157934
5   -0.045495
6   -0.07665
7   0.098342
8   0.125817
9   -0.379474
10   -0.367174
11   -0.373043
12   0.170707
13   0.160196
14   0.159984
15   0.162692
16   0.15961
17   0.162992
18   0.263489
19   0.361096
20   0.353067

$$$$

