PCCDB-ID:  43864
public computational chemistry database (PCCDB) project, http://pccdb.org

 18 17  0  0  1  0  0  0  0  0999 V2000
    1.5499    0.1754    1.0957 C   0  0  0  0  0  0  0  0  0  0  0  0
    4.2054    1.8481    0.6326 C   0  0  0  0  0  0  0  0  0  0  0  0
    2.9280    3.0259   -1.8657 C   0  0  0  0  0  0  0  0  0  0  0  0
    2.5880   -0.0763    0.0346 C   0  0  0  0  0  0  0  0  0  0  0  0
    3.4433    1.1202   -0.4773 C   0  0  2  0  0  0  0  0  0  0  0  0
    2.7628   -1.1658   -0.4808 O   0  0  0  0  0  0  0  0  0  0  0  0
    4.3707    0.6402   -1.3997 O   0  0  0  0  0  0  0  0  0  0  0  0
    2.4417    1.9455   -1.0768 O   0  0  0  0  0  0  0  0  0  0  0  0
    0.9030    1.0013    0.7828 H   0  0  0  0  0  0  0  0  0  0  0  0
    2.0299    0.4780    2.0343 H   0  0  0  0  0  0  0  0  0  0  0  0
    0.9629   -0.7296    1.2631 H   0  0  0  0  0  0  0  0  0  0  0  0
    4.8116    1.1369    1.2030 H   0  0  0  0  0  0  0  0  0  0  0  0
    3.5204    2.3656    1.3104 H   0  0  0  0  0  0  0  0  0  0  0  0
    4.8868    2.5807    0.1907 H   0  0  0  0  0  0  0  0  0  0  0  0
    2.0576    3.4415   -2.3792 H   0  0  0  0  0  0  0  0  0  0  0  0
    3.6586    2.6789   -2.6035 H   0  0  0  0  0  0  0  0  0  0  0  0
    3.3827    3.8135   -1.2485 H   0  0  0  0  0  0  0  0  0  0  0  0
    4.0395   -0.2423   -1.6661 H   0  0  0  0  0  0  0  0  0  0  0  0
  1 11  1  0  0  0  0
  1 10  1  0  0  0  0
  2 12  1  0  0  0  0
  2 13  1  0  0  0  0
  3 17  1  0  0  0  0
  3  8  1  0  0  0  0
  4  1  1  0  0  0  0
  5  7  1  6  0  0  0
  5  4  1  0  0  0  0
  5  2  1  0  0  0  0
  6  4  2  0  0  0  0
  8  5  1  0  0  0  0
  9  1  1  0  0  0  0
 14  2  1  0  0  0  0
 15  3  1  0  0  0  0
 16  3  1  0  0  0  0
 18  7  1  0  0  0  0
M  END
>  <HBA>
3

>  <HBD>
1

>  <TPSA>
46.53

>  <cid>
43864

>  <dipole>
2.35

>  <excitation_energy_1>
4.53

>  <excitation_energy_2>
5.432

>  <excitation_energy_3>
5.925

>  <excitation_energy_4>
6.621

>  <homo_energy>
-7.08

>  <homo_lumo_gap>
6.259

>  <logP>
-0.07

>  <lumo_energy>
-0.822

>  <melting_point>
16.18

>  <molecular_refractivity>
28.63

>  <oscillator_strength_1>
0.0004

>  <oscillator_strength_2>
0.0021

>  <oscillator_strength_3>
0.0025

>  <oscillator_strength_4>
0.0148

>  <open_babel_can_smiles>
CO[C@@](C(=O)C)(O)C

>  <mulliken_charges>
18
1   -0.5368
2   -0.478518
3   -0.208851
4   0.438239
5   0.462184
6   -0.452834
7   -0.638619
8   -0.497942
9   0.201661
10   0.177831
11   0.182038
12   0.160864
13   0.15274
14   0.17112
15   0.157536
16   0.165387
17   0.133225
18   0.410739

>  <lowdin_charges>
18
1   -0.471541
2   -0.464756
3   -0.288604
4   0.164942
5   0.169754
6   -0.227796
7   -0.433157
8   -0.278771
9   0.18845
10   0.176674
11   0.175725
12   0.164811
13   0.158084
14   0.169617
15   0.157238
16   0.152849
17   0.135523
18   0.35096

$$$$

