PCCDB-ID:  38853
public computational chemistry database (PCCDB) project, http://pccdb.org

 28 28  0  0  1  0  0  0  0  0999 V2000
    3.0807    1.3222    0.3426 C   0  0  0  0  0  0  0  0  0  0  0  0
    0.3530   -1.9101   -1.8676 C   0  0  0  0  0  0  0  0  0  0  0  0
   -0.0253   -3.1767   -2.3274 C   0  0  0  0  0  0  0  0  0  0  0  0
    0.8807   -2.8655    0.2755 C   0  0  0  0  0  0  0  0  0  0  0  0
    1.2432   -0.3742   -0.0537 C   0  0  0  0  0  0  0  0  0  0  0  0
    0.8119   -1.7361   -0.5590 C   0  0  0  0  0  0  0  0  0  0  0  0
    0.0470   -4.2915   -1.4966 C   0  0  0  0  0  0  0  0  0  0  0  0
    0.5111   -4.1300   -0.1744 C   0  0  0  0  0  0  0  0  0  0  0  0
    3.4619   -1.0760    0.8951 C   0  0  0  0  0  0  0  0  0  0  0  0
    2.7770   -0.1135   -0.1211 C   0  0  2  0  0  0  0  0  0  0  0  0
    3.2115   -0.2562   -1.5062 N   0  0  0  0  0  0  0  0  0  0  0  0
   -0.3102   -5.5520   -1.8835 O   0  0  0  0  0  0  0  0  0  0  0  0
    0.5647   -5.2481    0.6057 O   0  0  0  0  0  0  0  0  0  0  0  0
    3.2021   -1.0755    2.0770 O   0  0  0  0  0  0  0  0  0  0  0  0
    4.3804   -1.9240    0.3856 O   0  0  0  0  0  0  0  0  0  0  0  0
    4.1543    1.5382    0.2724 H   0  0  0  0  0  0  0  0  0  0  0  0
    2.7789    1.4570    1.3838 H   0  0  0  0  0  0  0  0  0  0  0  0
    2.5463    2.0353   -0.2921 H   0  0  0  0  0  0  0  0  0  0  0  0
    0.2758   -1.0543   -2.5328 H   0  0  0  0  0  0  0  0  0  0  0  0
   -0.3903   -3.2984   -3.3461 H   0  0  0  0  0  0  0  0  0  0  0  0
    1.2308   -2.7548    1.3001 H   0  0  0  0  0  0  0  0  0  0  0  0
    0.9377   -0.2431    0.9888 H   0  0  0  0  0  0  0  0  0  0  0  0
    0.7602    0.4094   -0.6469 H   0  0  0  0  0  0  0  0  0  0  0  0
    2.9259   -1.1161   -1.9631 H   0  0  0  0  0  0  0  0  0  0  0  0
    4.1747   -0.0028   -1.6964 H   0  0  0  0  0  0  0  0  0  0  0  0
   -0.6242   -5.5143   -2.8003 H   0  0  0  0  0  0  0  0  0  0  0  0
    0.9230   -5.0001    1.4725 H   0  0  0  0  0  0  0  0  0  0  0  0
    4.3960   -1.7741   -0.5791 H   0  0  0  0  0  0  0  0  0  0  0  0
  1 17  1  0  0  0  0
  2  6  1  0  0  0  0
  3  2  2  0  0  0  0
  3  7  1  0  0  0  0
  4 21  1  0  0  0  0
  5 22  1  0  0  0  0
  6  5  1  0  0  0  0
  6  4  2  0  0  0  0
  7  8  2  0  0  0  0
  8  4  1  0  0  0  0
  8 13  1  0  0  0  0
  9 14  2  0  0  0  0
 10  5  1  0  0  0  0
 10  1  1  0  0  0  0
 10  9  1  1  0  0  0
 11 10  1  0  0  0  0
 12  7  1  0  0  0  0
 13 27  1  0  0  0  0
 15  9  1  0  0  0  0
 16  1  1  0  0  0  0
 18  1  1  0  0  0  0
 19  2  1  0  0  0  0
 20  3  1  0  0  0  0
 23  5  1  0  0  0  0
 24 11  1  0  0  0  0
 25 11  1  0  0  0  0
 26 12  1  0  0  0  0
 28 15  1  0  0  0  0
M  END
>  <HBA>
5

>  <HBD>
4

>  <TPSA>
103.78

>  <cid>
38853

>  <dipole>
4.22

>  <excitation_energy_1>
4.721

>  <excitation_energy_2>
4.821

>  <excitation_energy_3>
5.055

>  <excitation_energy_4>
5.134

>  <homo_energy>
-5.665

>  <homo_lumo_gap>
5.538

>  <logP>
1.143

>  <lumo_energy>
-0.128

>  <melting_point>
229.54

>  <molecular_refractivity>
54.39

>  <oscillator_strength_1>
0.0653

>  <oscillator_strength_2>
0.0006

>  <oscillator_strength_3>
0.0008

>  <oscillator_strength_4>
0.0008

>  <open_babel_can_smiles>
OC(=O)[C@](Cc1ccc(c(c1)O)O)(N)C

>  <mulliken_charges>
28
1   -0.447919
2   -0.209712
3   -0.198236
4   -0.268859
5   -0.342276
6   0.12642
7   0.3186
8   0.32966
9   0.602172
10   0.113619
11   -0.770543
12   -0.629753
13   -0.632545
14   -0.477639
15   -0.566339
16   0.142617
17   0.179405
18   0.160969
19   0.131426
20   0.120003
21   0.15069
22   0.172511
23   0.15327
24   0.323057
25   0.311098
26   0.407288
27   0.413219
28   0.387798

>  <lowdin_charges>
28
1   -0.436834
2   -0.189936
3   -0.207392
4   -0.215384
5   -0.268855
6   -0.026817
7   0.076516
8   0.080406
9   0.173007
10   0.028606
11   -0.554542
12   -0.366176
13   -0.364884
14   -0.263696
15   -0.346262
16   0.148837
17   0.169304
18   0.161063
19   0.160071
20   0.153589
21   0.166955
22   0.166913
23   0.159693
24   0.27003
25   0.263643
26   0.357201
27   0.362164
28   0.34278

$$$$

