PCCDB-ID:  66978
public computational chemistry database (PCCDB) project, http://pccdb.org

 21 20  0  0  0  0  0  0  0  0999 V2000
    2.8109   -2.5626   -0.7233 C   0  0  0  0  0  0  0  0  0  0  0  0
    6.7614   -1.0592    3.6008 C   0  0  0  0  0  0  0  0  0  0  0  0
    4.8404   -1.0261    1.1165 C   0  0  0  0  0  0  0  0  0  0  0  0
    3.5683   -0.5071    0.4107 C   0  0  0  0  0  0  0  0  0  0  0  0
    4.5819   -1.5299    2.5484 C   0  0  0  0  0  0  0  0  0  0  0  0
    2.4836   -1.4583    0.1697 N   0  0  0  0  0  0  0  0  0  0  0  0
    5.7311   -2.0448    3.2924 N   0  0  0  0  0  0  0  0  0  0  0  0
    1.9217   -3.1870   -0.8629 H   0  0  0  0  0  0  0  0  0  0  0  0
    3.6353   -3.2197   -0.3918 H   0  0  0  0  0  0  0  0  0  0  0  0
    3.0881   -2.1581   -1.7046 H   0  0  0  0  0  0  0  0  0  0  0  0
    7.5532   -1.5400    4.1855 H   0  0  0  0  0  0  0  0  0  0  0  0
    6.3241   -0.2697    4.2243 H   0  0  0  0  0  0  0  0  0  0  0  0
    7.2335   -0.5711    2.7295 H   0  0  0  0  0  0  0  0  0  0  0  0
    5.5730   -0.2083    1.1363 H   0  0  0  0  0  0  0  0  0  0  0  0
    5.2971   -1.8341    0.5265 H   0  0  0  0  0  0  0  0  0  0  0  0
    3.8488   -0.0824   -0.5628 H   0  0  0  0  0  0  0  0  0  0  0  0
    3.1501    0.3213    0.9992 H   0  0  0  0  0  0  0  0  0  0  0  0
    3.8310   -2.3313    2.5202 H   0  0  0  0  0  0  0  0  0  0  0  0
    4.1425   -0.7170    3.1451 H   0  0  0  0  0  0  0  0  0  0  0  0
    2.1284   -1.8183    1.0523 H   0  0  0  0  0  0  0  0  0  0  0  0
    6.1446   -2.8219    2.7799 H   0  0  0  0  0  0  0  0  0  0  0  0
  1  9  1  0  0  0  0
  1  6  1  0  0  0  0
  2 11  1  0  0  0  0
  2 12  1  0  0  0  0
  3 14  1  0  0  0  0
  3  5  1  0  0  0  0
  4 17  1  0  0  0  0
  4  3  1  0  0  0  0
  5 19  1  0  0  0  0
  5  7  1  0  0  0  0
  6  4  1  0  0  0  0
  6 20  1  0  0  0  0
  7  2  1  0  0  0  0
  8  1  1  0  0  0  0
 10  1  1  0  0  0  0
 13  2  1  0  0  0  0
 15  3  1  0  0  0  0
 16  4  1  0  0  0  0
 18  5  1  0  0  0  0
 21  7  1  0  0  0  0
M  END
>  <HBA>
2

>  <HBD>
2

>  <TPSA>
24.06

>  <cid>
66978

>  <dipole>
1.13

>  <excitation_energy_1>
5.07

>  <excitation_energy_2>
5.299

>  <excitation_energy_3>
5.495

>  <excitation_energy_4>
5.55

>  <homo_energy>
-5.603

>  <homo_lumo_gap>
7.625

>  <logP>
0.597

>  <lumo_energy>
2.022

>  <melting_point>
28.46

>  <molecular_refractivity>
31.75

>  <oscillator_strength_1>
0.0079

>  <oscillator_strength_2>
0.0024

>  <oscillator_strength_3>
0.0162

>  <oscillator_strength_4>
0.0136

>  <open_babel_can_smiles>
CNCCCNC

>  <mulliken_charges>
21
1   -0.302269
2   -0.30315
3   -0.276641
4   -0.138289
5   -0.131367
6   -0.53363
7   -0.533945
8   0.148867
9   0.12053
10   0.14934
11   0.148425
12   0.14898
13   0.123215
14   0.133653
15   0.12629
16   0.137115
17   0.135438
18   0.126668
19   0.134587
20   0.296456
21   0.289725

>  <lowdin_charges>
21
1   -0.362409
2   -0.365733
3   -0.31737
4   -0.207053
5   -0.211976
6   -0.364309
7   -0.362662
8   0.151495
9   0.120252
10   0.147128
11   0.151647
12   0.148497
13   0.121965
14   0.145534
15   0.137967
16   0.143139
17   0.142916
18   0.136964
19   0.140563
20   0.251935
21   0.251509

$$$$

