PCCDB-ID:  34296
public computational chemistry database (PCCDB) project, http://pccdb.org

 15 15  0  0  0  0  0  0  0  0999 V2000
    0.9202   -0.0579    0.0075 C   0  0  0  0  0  0  0  0  0  0  0  0
    5.8546    1.4683    0.0293 C   0  0  0  0  0  0  0  0  0  0  0  0
    3.3310    0.9119    0.0165 C   0  0  0  0  0  0  0  0  0  0  0  0
    3.0952   -1.3923    0.0180 C   0  0  0  0  0  0  0  0  0  0  0  0
    2.4232   -0.1995    0.0137 C   0  0  0  0  0  0  0  0  0  0  0  0
    4.6553    0.5671    0.0225 C   0  0  0  0  0  0  0  0  0  0  0  0
    4.8191   -1.1736    0.0252 S   0  0  0  0  0  0  0  0  0  0  0  0
    0.6260    0.9963    0.0317 H   0  0  0  0  0  0  0  0  0  0  0  0
    0.4632   -0.5476    0.8755 H   0  0  0  0  0  0  0  0  0  0  0  0
    0.4742   -0.5033   -0.8899 H   0  0  0  0  0  0  0  0  0  0  0  0
    5.5312    2.5142    0.0254 H   0  0  0  0  0  0  0  0  0  0  0  0
    6.4921    1.3119   -0.8496 H   0  0  0  0  0  0  0  0  0  0  0  0
    6.4795    1.3147    0.9178 H   0  0  0  0  0  0  0  0  0  0  0  0
    2.9980    1.9461    0.0120 H   0  0  0  0  0  0  0  0  0  0  0  0
    2.6798   -2.3918    0.0184 H   0  0  0  0  0  0  0  0  0  0  0  0
  1  5  1  0  0  0  0
  1  8  1  0  0  0  0
  1  9  1  0  0  0  0
  2 13  1  0  0  0  0
  3  6  2  0  0  0  0
  4 15  1  0  0  0  0
  4  7  1  0  0  0  0
  5  3  1  0  0  0  0
  5  4  2  0  0  0  0
  6  7  1  0  0  0  0
  6  2  1  0  0  0  0
 10  1  1  0  0  0  0
 11  2  1  0  0  0  0
 12  2  1  0  0  0  0
 14  3  1  0  0  0  0
M  END
>  <HBA>
1

>  <HBD>
0

>  <TPSA>
28.24

>  <cid>
34296

>  <dipole>
0.9

>  <excitation_energy_1>
5.226

>  <excitation_energy_2>
5.246

>  <excitation_energy_3>
5.455

>  <excitation_energy_4>
5.582

>  <homo_energy>
-5.834

>  <homo_lumo_gap>
5.742

>  <logP>
2.365

>  <lumo_energy>
-0.093

>  <melting_point>
11.22

>  <molecular_refractivity>
34.25

>  <oscillator_strength_1>
0.0004

>  <oscillator_strength_2>
0.097

>  <oscillator_strength_3>
0.0

>  <oscillator_strength_4>
0.1025

>  <open_babel_can_smiles>
Cc1scc(c1)C

>  <mulliken_charges>
15
1   -0.526167
2   -0.503209
3   -0.153584
4   -0.39952
5   0.191652
6   -0.105718
7   0.225452
8   0.1551
9   0.163231
10   0.163575
11   0.165331
12   0.168794
13   0.168898
14   0.125035
15   0.161129

>  <lowdin_charges>
15
1   -0.439994
2   -0.434912
3   -0.205973
4   -0.341355
5   -0.023303
6   -0.154295
7   0.295319
8   0.156508
9   0.161959
10   0.161791
11   0.163696
12   0.163951
13   0.163949
14   0.156705
15   0.175954

$$$$

