PCCDB-ID:  11473
public computational chemistry database (PCCDB) project, http://pccdb.org

 13 13  0  0  0  0  0  0  0  0999 V2000
   -1.3966   -0.0870    0.0659 C   0  0  0  0  0  0  0  0  0  0  0  0
   -0.7815    1.1672    0.0586 C   0  0  0  0  0  0  0  0  0  0  0  0
   -0.6312   -1.2597   -0.0187 C   0  0  0  0  0  0  0  0  0  0  0  0
    0.6067    1.2516   -0.0338 C   0  0  0  0  0  0  0  0  0  0  0  0
    0.7524   -1.1820   -0.1101 C   0  0  0  0  0  0  0  0  0  0  0  0
    1.3650    0.0795   -0.1169 C   0  0  0  0  0  0  0  0  0  0  0  0
    2.7901    0.2747   -0.2068 N   0  0  0  0  0  0  0  0  0  0  0  0
    3.4467   -0.7543   -0.2792 O   0  0  0  0  0  0  0  0  0  0  0  0
   -2.4788   -0.1564    0.1373 H   0  0  0  0  0  0  0  0  0  0  0  0
   -1.3818    2.0699    0.1229 H   0  0  0  0  0  0  0  0  0  0  0  0
   -1.1238   -2.2280   -0.0119 H   0  0  0  0  0  0  0  0  0  0  0  0
    1.1253    2.2059   -0.0430 H   0  0  0  0  0  0  0  0  0  0  0  0
    1.3792   -2.0650   -0.1781 H   0  0  0  0  0  0  0  0  0  0  0  0
  1  9  1  0  0  0  0
  2  1  1  0  0  0  0
  2 10  1  0  0  0  0
  3 11  1  0  0  0  0
  3  1  2  0  0  0  0
  4  2  2  0  0  0  0
  5  3  1  0  0  0  0
  6  5  2  0  0  0  0
  6  4  1  0  0  0  0
  7  6  1  0  0  0  0
  8  7  1  0  0  0  0
 12  4  1  0  0  0  0
 13  5  1  0  0  0  0
M  RAD  2   7   2   8   2
M  END
>  <HBA>
2

>  <HBD>
0

>  <TPSA>
29.43

>  <cid>
11473

>  <dipole>
3.77

>  <excitation_energy_1>
1.515

>  <excitation_energy_2>
3.918

>  <excitation_energy_3>
4.457

>  <excitation_energy_4>
4.461

>  <homo_energy>
-5.957

>  <homo_lumo_gap>
3.271

>  <logP>
2.084

>  <lumo_energy>
-2.686

>  <melting_point>
30.4

>  <molecular_refractivity>
31.9

>  <oscillator_strength_1>
0.0003

>  <oscillator_strength_2>
0.0183

>  <oscillator_strength_3>
0.2467

>  <oscillator_strength_4>
0.0001

>  <open_babel_can_smiles>
[O][N]c1ccccc1

>  <mulliken_charges>
13
1   -0.109798
2   -0.140236
3   -0.14174
4   -0.1232
5   -0.119482
6   0.21094
7   -0.053224
8   -0.28482
9   0.146057
10   0.146456
11   0.146838
12   0.157484
13   0.164726

>  <lowdin_charges>
13
1   -0.125433
2   -0.155139
3   -0.149323
4   -0.129063
5   -0.133855
6   -0.021662
7   0.045836
8   -0.179351
9   0.163488
10   0.166322
11   0.165119
12   0.174666
13   0.178394

$$$$

