PCCDB-ID:  15657
public computational chemistry database (PCCDB) project, http://pccdb.org

 32 33  0  0  0  0  0  0  0  0999 V2000
    5.4161    1.9896   -5.1428 C   0  0  0  0  0  0  0  0  0  0  0  0
    1.7542    5.6054    0.4288 C   0  0  0  0  0  0  0  0  0  0  0  0
    4.2065    1.3007   -5.2506 C   0  0  0  0  0  0  0  0  0  0  0  0
    5.9173    2.3207   -3.8819 C   0  0  0  0  0  0  0  0  0  0  0  0
    1.2955    5.1035   -0.9479 C   0  0  0  0  0  0  0  0  0  0  0  0
    3.1579    5.0791    0.7679 C   0  0  0  0  0  0  0  0  0  0  0  0
    3.5017    0.9429   -4.1016 C   0  0  0  0  0  0  0  0  0  0  0  0
    5.2100    1.9716   -2.7313 C   0  0  0  0  0  0  0  0  0  0  0  0
    1.3617    3.5717   -1.0403 C   0  0  0  0  0  0  0  0  0  0  0  0
    3.2222    3.5473    0.6739 C   0  0  0  0  0  0  0  0  0  0  0  0
    3.9922    1.2830   -2.8305 C   0  0  0  0  0  0  0  0  0  0  0  0
    2.7700    3.0360   -0.7061 C   0  0  0  0  0  0  0  0  0  0  0  0
    3.2189    0.8720   -1.6110 C   0  0  0  0  0  0  0  0  0  0  0  0
    2.7271    1.5819   -0.6857 N   0  0  0  0  0  0  0  0  0  0  0  0
    2.9814   -0.4804   -1.5420 O   0  0  0  0  0  0  0  0  0  0  0  0
    5.9669    2.2672   -6.0373 H   0  0  0  0  0  0  0  0  0  0  0  0
    1.0445    5.2597    1.1945 H   0  0  0  0  0  0  0  0  0  0  0  0
    1.7417    6.7025    0.4590 H   0  0  0  0  0  0  0  0  0  0  0  0
    3.8120    1.0404   -6.2291 H   0  0  0  0  0  0  0  0  0  0  0  0
    6.8623    2.8499   -3.7943 H   0  0  0  0  0  0  0  0  0  0  0  0
    1.9387    5.5442   -1.7241 H   0  0  0  0  0  0  0  0  0  0  0  0
    0.2738    5.4437   -1.1603 H   0  0  0  0  0  0  0  0  0  0  0  0
    3.4550    5.4043    1.7729 H   0  0  0  0  0  0  0  0  0  0  0  0
    3.8850    5.5205    0.0696 H   0  0  0  0  0  0  0  0  0  0  0  0
    2.5587    0.4083   -4.1842 H   0  0  0  0  0  0  0  0  0  0  0  0
    5.6051    2.2204   -1.7506 H   0  0  0  0  0  0  0  0  0  0  0  0
    1.0779    3.2333   -2.0448 H   0  0  0  0  0  0  0  0  0  0  0  0
    0.6476    3.1180   -0.3395 H   0  0  0  0  0  0  0  0  0  0  0  0
    2.5668    3.0953    1.4306 H   0  0  0  0  0  0  0  0  0  0  0  0
    4.2382    3.1889    0.8855 H   0  0  0  0  0  0  0  0  0  0  0  0
    3.4625    3.4314   -1.4673 H   0  0  0  0  0  0  0  0  0  0  0  0
    3.5556   -0.9221   -2.1875 H   0  0  0  0  0  0  0  0  0  0  0  0
  1  4  1  0  0  0  0
  2 18  1  0  0  0  0
  2  6  1  0  0  0  0
  2 17  1  0  0  0  0
  3  1  2  0  0  0  0
  3  7  1  0  0  0  0
  4 20  1  0  0  0  0
  4  8  2  0  0  0  0
  5  2  1  0  0  0  0
  6 23  1  0  0  0  0
  7 11  2  0  0  0  0
  8 26  1  0  0  0  0
  9  5  1  0  0  0  0
  9 12  1  0  0  0  0
  9 28  1  0  0  0  0
 10  6  1  0  0  0  0
 10 30  1  0  0  0  0
 10 29  1  0  0  0  0
 11  8  1  0  0  0  0
 11 13  1  0  0  0  0
 12 14  1  0  0  0  0
 12 10  1  0  0  0  0
 13 15  1  0  0  0  0
 13 14  2  0  0  0  0
 16  1  1  0  0  0  0
 19  3  1  0  0  0  0
 21  5  1  0  0  0  0
 22  5  1  0  0  0  0
 24  6  1  0  0  0  0
 25  7  1  0  0  0  0
 27  9  1  0  0  0  0
 31 12  1  0  0  0  0
 32 15  1  0  0  0  0
M  END
>  <HBA>
2

>  <HBD>
1

>  <TPSA>
29.1

>  <cid>
15657

>  <dipole>
3.79

>  <excitation_energy_1>
4.715

>  <excitation_energy_2>
5.033

>  <excitation_energy_3>
5.088

>  <excitation_energy_4>
5.22

>  <homo_energy>
-6.482

>  <homo_lumo_gap>
5.723

>  <logP>
3.14

>  <lumo_energy>
-0.759

>  <melting_point>
84.65

>  <molecular_refractivity>
61.36

>  <oscillator_strength_1>
0.0029

>  <oscillator_strength_2>
0.1103

>  <oscillator_strength_3>
0.0025

>  <oscillator_strength_4>
0.0104

>  <open_babel_can_smiles>
O/C(=N/C1CCCCC1)/c1ccccc1

>  <mulliken_charges>
32
1   -0.123122
2   -0.254163
3   -0.129062
4   -0.133982
5   -0.262591
6   -0.263656
7   -0.172705
8   -0.15543
9   -0.251485
10   -0.253359
11   0.036849
12   0.012797
13   0.401666
14   -0.404354
15   -0.582382
16   0.13848
17   0.130087
18   0.127146
19   0.139491
20   0.139736
21   0.126247
22   0.1307
23   0.130853
24   0.123815
25   0.149509
26   0.150693
27   0.127289
28   0.142006
29   0.142406
30   0.125167
31   0.109997
32   0.401358

>  <lowdin_charges>
32
1   -0.150295
2   -0.276944
3   -0.152316
4   -0.15064
5   -0.279162
6   -0.280163
7   -0.160842
8   -0.153206
9   -0.280763
10   -0.280406
11   -0.045728
12   -0.067817
13   0.124262
14   -0.188078
15   -0.375296
16   0.162717
17   0.13963
18   0.139774
19   0.162209
20   0.162258
21   0.137579
22   0.143195
23   0.143494
24   0.136382
25   0.165668
26   0.166816
27   0.142283
28   0.147678
29   0.148389
30   0.140124
31   0.125257
32   0.353942

$$$$

