PCCDB-ID:  66983
public computational chemistry database (PCCDB) project, http://pccdb.org

 26 25  0  0  0  0  0  0  0  0999 V2000
    0.9437    0.0043   -0.1326 C   0  0  0  0  0  0  0  0  0  0  0  0
    8.3195   -6.9137   -2.7394 C   0  0  0  0  0  0  0  0  0  0  0  0
    2.4667    0.0900   -0.1890 C   0  0  0  0  0  0  0  0  0  0  0  0
    7.4519   -5.9471   -3.5412 C   0  0  0  0  0  0  0  0  0  0  0  0
    5.0221   -2.0796   -1.8317 C   0  0  0  0  0  0  0  0  0  0  0  0
    5.4515   -2.9539   -2.5483 C   0  0  0  0  0  0  0  0  0  0  0  0
    4.4877   -0.9966   -1.0031 C   0  0  0  0  0  0  0  0  0  0  0  0
    5.9966   -4.0041   -3.4115 C   0  0  0  0  0  0  0  0  0  0  0  0
    3.0287   -1.0712   -0.8761 N   0  0  0  0  0  0  0  0  0  0  0  0
    6.7978   -4.9785   -2.6640 N   0  0  0  0  0  0  0  0  0  0  0  0
    0.5259    0.8539    0.4184 H   0  0  0  0  0  0  0  0  0  0  0  0
    0.6292   -0.9220    0.3584 H   0  0  0  0  0  0  0  0  0  0  0  0
    0.5105    0.0178   -1.1409 H   0  0  0  0  0  0  0  0  0  0  0  0
    8.7704   -7.6660   -3.3957 H   0  0  0  0  0  0  0  0  0  0  0  0
    7.7218   -7.4258   -1.9785 H   0  0  0  0  0  0  0  0  0  0  0  0
    9.1353   -6.3852   -2.2301 H   0  0  0  0  0  0  0  0  0  0  0  0
    2.8741    0.1007    0.8313 H   0  0  0  0  0  0  0  0  0  0  0  0
    2.7712    1.0496   -0.6535 H   0  0  0  0  0  0  0  0  0  0  0  0
    6.6634   -6.5061   -4.0636 H   0  0  0  0  0  0  0  0  0  0  0  0
    8.0621   -5.4634   -4.3308 H   0  0  0  0  0  0  0  0  0  0  0  0
    4.8318   -0.0257   -1.4155 H   0  0  0  0  0  0  0  0  0  0  0  0
    4.9176   -1.0598    0.0068 H   0  0  0  0  0  0  0  0  0  0  0  0
    6.5620   -3.5296   -4.2399 H   0  0  0  0  0  0  0  0  0  0  0  0
    5.1687   -4.5472   -3.8898 H   0  0  0  0  0  0  0  0  0  0  0  0
    2.6262   -1.1379   -1.8103 H   0  0  0  0  0  0  0  0  0  0  0  0
    7.5047   -4.4749   -2.1293 H   0  0  0  0  0  0  0  0  0  0  0  0
  1 12  1  0  0  0  0
  1 11  1  0  0  0  0
  2 16  1  0  0  0  0
  2 15  1  0  0  0  0
  3  1  1  0  0  0  0
  3 17  1  0  0  0  0
  4  2  1  0  0  0  0
  4 10  1  0  0  0  0
  5  7  1  0  0  0  0
  6  5  3  0  0  0  0
  7  9  1  0  0  0  0
  7 22  1  0  0  0  0
  8 10  1  0  0  0  0
  8  6  1  0  0  0  0
  9  3  1  0  0  0  0
 10 26  1  0  0  0  0
 13  1  1  0  0  0  0
 14  2  1  0  0  0  0
 18  3  1  0  0  0  0
 19  4  1  0  0  0  0
 20  4  1  0  0  0  0
 21  7  1  0  0  0  0
 23  8  1  0  0  0  0
 24  8  1  0  0  0  0
 25  9  1  0  0  0  0
M  END
>  <HBA>
2

>  <HBD>
2

>  <TPSA>
24.06

>  <cid>
66983

>  <dipole>
1.75

>  <excitation_energy_1>
5.519

>  <excitation_energy_2>
5.561

>  <excitation_energy_3>
6.033

>  <excitation_energy_4>
6.044

>  <homo_energy>
-5.995

>  <homo_lumo_gap>
7.148

>  <logP>
0.991

>  <lumo_energy>
1.154

>  <melting_point>
43.82

>  <molecular_refractivity>
44.34

>  <oscillator_strength_1>
0.0026

>  <oscillator_strength_2>
0.0054

>  <oscillator_strength_3>
0.0017

>  <oscillator_strength_4>
0.0213

>  <open_babel_can_smiles>
CCNCC#CCNCC

>  <mulliken_charges>
26
1   -0.450566
2   -0.450663
3   -0.102212
4   -0.102126
5   0.029425
6   0.039047
7   -0.23801
8   -0.240637
9   -0.544933
10   -0.543952
11   0.14479
12   0.163123
13   0.139914
14   0.144819
15   0.16311
16   0.140066
17   0.140237
18   0.10939
19   0.140306
20   0.109334
21   0.138635
22   0.169419
23   0.138451
24   0.169907
25   0.296574
26   0.296554

>  <lowdin_charges>
26
1   -0.447615
2   -0.45054
3   -0.197447
4   -0.201137
5   -0.079348
6   -0.080705
7   -0.182365
8   -0.185281
9   -0.356853
10   -0.358541
11   0.154064
12   0.158616
13   0.14524
14   0.154462
15   0.159518
16   0.146964
17   0.140281
18   0.114035
19   0.142786
20   0.115344
21   0.135485
22   0.162225
23   0.136523
24   0.164196
25   0.253825
26   0.256265

$$$$

