PCCDB-ID:  58287
public computational chemistry database (PCCDB) project, http://pccdb.org

 31 31  0  0  0  0  0  0  0  0999 V2000
    3.3943   -1.6521   -1.5666 C   0  0  0  0  0  0  0  0  0  0  0  0
    4.2656    0.6344   -1.3826 C   0  0  0  0  0  0  0  0  0  0  0  0
    8.5574    0.2284    3.7488 C   0  0  0  0  0  0  0  0  0  0  0  0
    8.3985   -1.2970    3.6933 C   0  0  0  0  0  0  0  0  0  0  0  0
    7.6817    1.0146    2.7643 C   0  0  0  0  0  0  0  0  0  0  0  0
    6.9668   -1.8258    3.9012 C   0  0  0  0  0  0  0  0  0  0  0  0
    6.1695    0.8314    2.9995 C   0  0  0  0  0  0  0  0  0  0  0  0
    6.0439   -1.6887    2.6834 C   0  0  0  0  0  0  0  0  0  0  0  0
    4.7756   -1.0238    0.3164 C   0  0  0  0  0  0  0  0  0  0  0  0
    5.1009   -0.0761    1.1209 N   0  0  0  0  0  0  0  0  0  0  0  0
    4.3930   -0.7607   -0.9993 N   0  0  0  0  0  0  0  0  0  0  0  0
    5.5458   -0.3461    2.4007 N   0  0  0  0  0  0  0  0  0  0  0  0
    3.4200   -1.5834   -2.6597 H   0  0  0  0  0  0  0  0  0  0  0  0
    2.3665   -1.4249   -1.2317 H   0  0  0  0  0  0  0  0  0  0  0  0
    3.6214   -2.6863   -1.2870 H   0  0  0  0  0  0  0  0  0  0  0  0
    4.1508    0.6946   -2.4699 H   0  0  0  0  0  0  0  0  0  0  0  0
    5.1654    1.1745   -1.0811 H   0  0  0  0  0  0  0  0  0  0  0  0
    3.4032    1.1299   -0.9056 H   0  0  0  0  0  0  0  0  0  0  0  0
    9.6134    0.4782    3.5791 H   0  0  0  0  0  0  0  0  0  0  0  0
    8.3243    0.5720    4.7684 H   0  0  0  0  0  0  0  0  0  0  0  0
    9.0489   -1.7394    4.4597 H   0  0  0  0  0  0  0  0  0  0  0  0
    8.7696   -1.6692    2.7269 H   0  0  0  0  0  0  0  0  0  0  0  0
    7.9155    0.7432    1.7258 H   0  0  0  0  0  0  0  0  0  0  0  0
    7.9197    2.0824    2.8670 H   0  0  0  0  0  0  0  0  0  0  0  0
    6.5086   -1.3669    4.7871 H   0  0  0  0  0  0  0  0  0  0  0  0
    7.0259   -2.9004    4.1178 H   0  0  0  0  0  0  0  0  0  0  0  0
    5.6225    1.6758    2.5748 H   0  0  0  0  0  0  0  0  0  0  0  0
    5.9670    0.8311    4.0794 H   0  0  0  0  0  0  0  0  0  0  0  0
    5.1813   -2.3600    2.8182 H   0  0  0  0  0  0  0  0  0  0  0  0
    6.5890   -2.0707    1.7986 H   0  0  0  0  0  0  0  0  0  0  0  0
    4.7882   -2.0882    0.5569 H   0  0  0  0  0  0  0  0  0  0  0  0
  1 15  1  0  0  0  0
  1 14  1  0  0  0  0
  1 11  1  0  0  0  0
  2 17  1  0  0  0  0
  2 11  1  0  0  0  0
  2 18  1  0  0  0  0
  3 20  1  0  0  0  0
  4  3  1  0  0  0  0
  4  6  1  0  0  0  0
  4 21  1  0  0  0  0
  5 24  1  0  0  0  0
  5  7  1  0  0  0  0
  5  3  1  0  0  0  0
  6 26  1  0  0  0  0
  6 25  1  0  0  0  0
  7 28  1  0  0  0  0
  8 29  1  0  0  0  0
  8  6  1  0  0  0  0
  9 31  1  0  0  0  0
  9 10  2  0  0  0  0
 10 12  1  0  0  0  0
 11  9  1  0  0  0  0
 12  8  1  0  0  0  0
 12  7  1  0  0  0  0
 13  1  1  0  0  0  0
 16  2  1  0  0  0  0
 19  3  1  0  0  0  0
 22  4  1  0  0  0  0
 23  5  1  0  0  0  0
 27  7  1  0  0  0  0
 30  8  1  0  0  0  0
M  END
>  <HBA>
3

>  <HBD>
0

>  <TPSA>
18.84

>  <cid>
58287

>  <dipole>
1.14

>  <excitation_energy_1>
4.029

>  <excitation_energy_2>
4.312

>  <excitation_energy_3>
4.469

>  <excitation_energy_4>
4.55

>  <homo_energy>
-4.416

>  <homo_lumo_gap>
5.739

>  <logP>
1.305

>  <lumo_energy>
1.322

>  <melting_point>
17.16

>  <molecular_refractivity>
56.66

>  <oscillator_strength_1>
0.0173

>  <oscillator_strength_2>
0.0478

>  <oscillator_strength_3>
0.0067

>  <oscillator_strength_4>
0.021

>  <open_babel_can_smiles>
CN(/C=N/N1CCCCCC1)C

>  <mulliken_charges>
31
1   -0.305373
2   -0.292412
3   -0.258594
4   -0.252494
5   -0.260498
6   -0.284304
7   -0.121596
8   -0.12067
9   0.220591
10   -0.307603
11   -0.38452
12   -0.266506
13   0.152724
14   0.138762
15   0.152235
16   0.138412
17   0.173046
18   0.138849
19   0.130136
20   0.12617
21   0.131074
22   0.131484
23   0.142348
24   0.128495
25   0.143793
26   0.137779
27   0.15874
28   0.129758
29   0.137597
30   0.123383
31   0.119195

>  <lowdin_charges>
31
1   -0.345105
2   -0.350904
3   -0.276045
4   -0.27947
5   -0.291007
6   -0.282272
7   -0.202913
8   -0.209342
9   -0.10137
10   -0.160838
11   -0.128417
12   -0.097076
13   0.148428
14   0.13116
15   0.151491
16   0.144387
17   0.166095
18   0.137196
19   0.141714
20   0.134923
21   0.145282
22   0.139422
23   0.145248
24   0.143629
25   0.146974
26   0.149799
27   0.162917
28   0.134136
29   0.139085
30   0.128259
31   0.134614

$$$$

