PCCDB-ID:  7526
public computational chemistry database (PCCDB) project, http://pccdb.org

 18 18  0  0  0  0  0  0  0  0999 V2000
    0.7218    1.2676   -0.3670 C   0  0  0  0  0  0  0  0  0  0  0  0
    1.5025    0.0339    0.1148 C   0  0  0  0  0  0  0  0  0  0  0  0
   -0.7032    1.2777    0.2110 C   0  0  0  0  0  0  0  0  0  0  0  0
    0.7396   -1.2579   -0.2132 C   0  0  0  0  0  0  0  0  0  0  0  0
   -1.4473   -0.0265   -0.1118 C   0  0  0  0  0  0  0  0  0  0  0  0
   -1.0386   -2.1399    1.1118 N   0  0  0  0  0  0  0  0  0  0  0  0
   -0.6321   -1.1785    0.2673 N   0  0  0  0  0  0  0  0  0  0  0  0
   -2.1889   -2.0352    1.5276 O   0  0  0  0  0  0  0  0  0  0  0  0
    0.6693    1.2583   -1.4659 H   0  0  0  0  0  0  0  0  0  0  0  0
    1.2518    2.1854   -0.0861 H   0  0  0  0  0  0  0  0  0  0  0  0
    1.6539    0.0917    1.2008 H   0  0  0  0  0  0  0  0  0  0  0  0
    2.4949   -0.0048   -0.3504 H   0  0  0  0  0  0  0  0  0  0  0  0
   -1.2762    2.1252   -0.1843 H   0  0  0  0  0  0  0  0  0  0  0  0
   -0.6578    1.3994    1.3012 H   0  0  0  0  0  0  0  0  0  0  0  0
    1.1887   -2.1370    0.2561 H   0  0  0  0  0  0  0  0  0  0  0  0
    0.7282   -1.4182   -1.3021 H   0  0  0  0  0  0  0  0  0  0  0  0
   -1.6617   -0.0889   -1.1886 H   0  0  0  0  0  0  0  0  0  0  0  0
   -2.3885   -0.1189    0.4327 H   0  0  0  0  0  0  0  0  0  0  0  0
  1 10  1  0  0  0  0
  1  2  1  0  0  0  0
  1  3  1  0  0  0  0
  2 11  1  0  0  0  0
  3 14  1  0  0  0  0
  4  2  1  0  0  0  0
  4 15  1  0  0  0  0
  4  7  1  0  0  0  0
  5  3  1  0  0  0  0
  5  7  1  0  0  0  0
  5 18  1  0  0  0  0
  6  8  2  0  0  0  0
  7  6  1  0  0  0  0
  9  1  1  0  0  0  0
 12  2  1  0  0  0  0
 13  3  1  0  0  0  0
 16  4  1  0  0  0  0
 17  5  1  0  0  0  0
M  END
>  <HBA>
3

>  <HBD>
0

>  <TPSA>
32.67

>  <cid>
7526

>  <dipole>
4.31

>  <excitation_energy_1>
3.397

>  <excitation_energy_2>
5.6

>  <excitation_energy_3>
5.772

>  <excitation_energy_4>
6.04

>  <homo_energy>
-5.951

>  <homo_lumo_gap>
5.241

>  <logP>
1.092

>  <lumo_energy>
-0.71

>  <melting_point>
18.37

>  <molecular_refractivity>
35.58

>  <oscillator_strength_1>
0.0009

>  <oscillator_strength_2>
0.1156

>  <oscillator_strength_3>
0.0928

>  <oscillator_strength_4>
0.0299

>  <open_babel_can_smiles>
O=NN1CCCCC1

>  <mulliken_charges>
18
1   -0.270058
2   -0.266427
3   -0.26593
4   -0.132881
5   -0.156491
6   0.146329
7   -0.219303
8   -0.38162
9   0.134481
10   0.145638
11   0.149568
12   0.14426
13   0.145568
14   0.151621
15   0.1762
16   0.148733
17   0.153313
18   0.197

>  <lowdin_charges>
18
1   -0.279173
2   -0.281855
3   -0.279665
4   -0.198384
5   -0.21864
6   0.049928
7   -0.046478
8   -0.274761
9   0.138389
10   0.151451
11   0.147391
12   0.151958
13   0.153876
14   0.148283
15   0.168972
16   0.142412
17   0.147909
18   0.178386

$$$$

