PCCDB-ID:  18907
public computational chemistry database (PCCDB) project, http://pccdb.org

 21 21  0  0  0  0  0  0  0  0999 V2000
   -1.6467   -0.1366   -0.3133 C   0  0  0  0  0  0  0  0  0  0  0  0
   -1.0461    0.9990    0.2330 C   0  0  0  0  0  0  0  0  0  0  0  0
   -0.8508   -1.1333   -0.8809 C   0  0  0  0  0  0  0  0  0  0  0  0
    0.3423    1.1336    0.2100 C   0  0  0  0  0  0  0  0  0  0  0  0
    0.5386   -1.0044   -0.8953 C   0  0  0  0  0  0  0  0  0  0  0  0
    2.6467    0.2746   -0.2953 C   0  0  0  0  0  0  0  0  0  0  0  0
    1.1448    0.1316   -0.3472 C   0  0  0  0  0  0  0  0  0  0  0  0
    4.5390   -0.5756   -1.4835 C   0  0  0  0  0  0  0  0  0  0  0  0
    5.1643   -1.3574   -2.2807 N   0  0  0  0  0  0  0  0  0  0  0  0
    5.2497    0.2201   -0.6463 O   0  0  0  0  0  0  0  0  0  0  0  0
    4.2587   -2.1298   -3.0588 O   0  0  0  0  0  0  0  0  0  0  0  0
    3.2135   -0.4475   -1.4072 O   0  0  0  0  0  0  0  0  0  0  0  0
   -2.7284   -0.2403   -0.3020 H   0  0  0  0  0  0  0  0  0  0  0  0
   -1.6575    1.7850    0.6681 H   0  0  0  0  0  0  0  0  0  0  0  0
   -1.3121   -2.0157   -1.3165 H   0  0  0  0  0  0  0  0  0  0  0  0
    0.8047    2.0270    0.6250 H   0  0  0  0  0  0  0  0  0  0  0  0
    1.1574   -1.7722   -1.3480 H   0  0  0  0  0  0  0  0  0  0  0  0
    3.0511   -0.1383    0.6374 H   0  0  0  0  0  0  0  0  0  0  0  0
    2.9442    1.3271   -0.3486 H   0  0  0  0  0  0  0  0  0  0  0  0
    6.1863    0.0105   -0.8095 H   0  0  0  0  0  0  0  0  0  0  0  0
    4.8749   -2.6463   -3.5997 H   0  0  0  0  0  0  0  0  0  0  0  0
  1 13  1  0  0  0  0
  1  2  2  0  0  0  0
  2 14  1  0  0  0  0
  3  1  1  0  0  0  0
  4  2  1  0  0  0  0
  4 16  1  0  0  0  0
  5  3  2  0  0  0  0
  5  7  1  0  0  0  0
  6 18  1  0  0  0  0
  7  6  1  0  0  0  0
  7  4  2  0  0  0  0
  8 12  1  0  0  0  0
  8 10  1  0  0  0  0
  9  8  2  0  0  0  0
 11  9  1  0  0  0  0
 12  6  1  0  0  0  0
 15  3  1  0  0  0  0
 17  5  1  0  0  0  0
 19  6  1  0  0  0  0
 20 10  1  0  0  0  0
 21 11  1  0  0  0  0
M  END
>  <HBA>
4

>  <HBD>
2

>  <TPSA>
58.56

>  <cid>
18907

>  <dipole>
1.42

>  <excitation_energy_1>
5.087

>  <excitation_energy_2>
5.229

>  <excitation_energy_3>
5.305

>  <excitation_energy_4>
5.366

>  <homo_energy>
-5.796

>  <homo_lumo_gap>
5.701

>  <logP>
1.693

>  <lumo_energy>
-0.095

>  <melting_point>
110.35

>  <molecular_refractivity>
41.42

>  <oscillator_strength_1>
0.0043

>  <oscillator_strength_2>
0.0003

>  <oscillator_strength_3>
0.0007

>  <oscillator_strength_4>
0.0025

>  <open_babel_can_smiles>
O/N=C(\OCc1ccccc1)/O

>  <mulliken_charges>
21
1   -0.126059
2   -0.129461
3   -0.13305
4   -0.178688
5   -0.163775
6   -0.092019
7   0.113251
8   0.783853
9   -0.348961
10   -0.607216
11   -0.512707
12   -0.464063
13   0.130001
14   0.130584
15   0.133005
16   0.124237
17   0.162111
18   0.172896
19   0.166242
20   0.427086
21   0.412733

>  <lowdin_charges>
21
1   -0.154796
2   -0.155631
3   -0.152147
4   -0.166162
5   -0.156744
6   -0.114208
7   -0.017675
8   0.171156
9   -0.176138
10   -0.364724
11   -0.39152
12   -0.169838
13   0.156051
14   0.159417
15   0.159743
16   0.155479
17   0.174487
18   0.159217
19   0.155897
20   0.373006
21   0.355131

$$$$

