PCCDB-ID:  16135
public computational chemistry database (PCCDB) project, http://pccdb.org

 37 36  0  0  0  0  0  0  0  0999 V2000
    2.0277   -3.7707   -4.7631 C   0  0  0  0  0  0  0  0  0  0  0  0
    2.3688   -1.2850   -4.8748 C   0  0  0  0  0  0  0  0  0  0  0  0
   11.4269   -0.3255   -2.1617 C   0  0  0  0  0  0  0  0  0  0  0  0
   11.3035    1.8266   -0.8720 C   0  0  0  0  0  0  0  0  0  0  0  0
    7.0318   -2.2438   -3.4281 C   0  0  0  0  0  0  0  0  0  0  0  0
    6.5314    0.1901   -2.9573 C   0  0  0  0  0  0  0  0  0  0  0  0
    5.1726   -1.6156   -1.8289 C   0  0  0  0  0  0  0  0  0  0  0  0
    7.4990   -1.2825   -1.1397 C   0  0  0  0  0  0  0  0  0  0  0  0
    2.6414   -2.6630   -4.3288 C   0  0  0  0  0  0  0  0  0  0  0  0
   10.7413    0.5301   -1.3931 C   0  0  0  0  0  0  0  0  0  0  0  0
    3.6517   -2.8307   -3.2345 C   0  0  0  0  0  0  0  0  0  0  0  0
    9.3329    0.2487   -0.9773 C   0  0  0  0  0  0  0  0  0  0  0  0
    6.5657   -1.2311   -2.3667 C   0  0  0  0  0  0  0  0  0  0  0  0
    3.9557   -3.8869   -2.7180 O   0  0  0  0  0  0  0  0  0  0  0  0
    8.6975    0.9880   -0.2509 O   0  0  0  0  0  0  0  0  0  0  0  0
    4.1908   -1.6324   -2.8853 O   0  0  0  0  0  0  0  0  0  0  0  0
    8.8462   -0.9101   -1.4905 O   0  0  0  0  0  0  0  0  0  0  0  0
    1.2818   -3.7326   -5.5519 H   0  0  0  0  0  0  0  0  0  0  0  0
    2.2629   -4.7385   -4.3327 H   0  0  0  0  0  0  0  0  0  0  0  0
    3.2755   -0.8368   -5.2972 H   0  0  0  0  0  0  0  0  0  0  0  0
    2.0232   -0.6065   -4.0869 H   0  0  0  0  0  0  0  0  0  0  0  0
    1.6060   -1.3253   -5.6580 H   0  0  0  0  0  0  0  0  0  0  0  0
   12.4520   -0.1147   -2.4552 H   0  0  0  0  0  0  0  0  0  0  0  0
   10.9899   -1.2523   -2.5150 H   0  0  0  0  0  0  0  0  0  0  0  0
   12.3291    1.9752   -1.2217 H   0  0  0  0  0  0  0  0  0  0  0  0
   11.2980    1.8431    0.2236 H   0  0  0  0  0  0  0  0  0  0  0  0
   10.6931    2.6770   -1.1961 H   0  0  0  0  0  0  0  0  0  0  0  0
    6.3956   -2.1979   -4.3177 H   0  0  0  0  0  0  0  0  0  0  0  0
    6.9983   -3.2696   -3.0436 H   0  0  0  0  0  0  0  0  0  0  0  0
    8.0585   -2.0242   -3.7368 H   0  0  0  0  0  0  0  0  0  0  0  0
    5.7963    0.2476   -3.7658 H   0  0  0  0  0  0  0  0  0  0  0  0
    7.5082    0.4645   -3.3688 H   0  0  0  0  0  0  0  0  0  0  0  0
    6.2655    0.9327   -2.1964 H   0  0  0  0  0  0  0  0  0  0  0  0
    4.8197   -0.8676   -1.1108 H   0  0  0  0  0  0  0  0  0  0  0  0
    5.1880   -2.5989   -1.3527 H   0  0  0  0  0  0  0  0  0  0  0  0
    7.5662   -2.3052   -0.7532 H   0  0  0  0  0  0  0  0  0  0  0  0
    7.1504   -0.6168   -0.3464 H   0  0  0  0  0  0  0  0  0  0  0  0
  1 19  1  0  0  0  0
  1  9  2  0  0  0  0
  2  9  1  0  0  0  0
  2 21  1  0  0  0  0
  3 10  2  0  0  0  0
  4 26  1  0  0  0  0
  5 29  1  0  0  0  0
  5 13  1  0  0  0  0
  6 13  1  0  0  0  0
  6 33  1  0  0  0  0
  7 35  1  0  0  0  0
  7 34  1  0  0  0  0
  8 36  1  0  0  0  0
  8 37  1  0  0  0  0
  9 11  1  0  0  0  0
 10 12  1  0  0  0  0
 10  4  1  0  0  0  0
 11 16  1  0  0  0  0
 11 14  2  0  0  0  0
 12 15  2  0  0  0  0
 13  7  1  0  0  0  0
 13  8  1  0  0  0  0
 16  7  1  0  0  0  0
 17  8  1  0  0  0  0
 17 12  1  0  0  0  0
 18  1  1  0  0  0  0
 20  2  1  0  0  0  0
 22  2  1  0  0  0  0
 23  3  1  0  0  0  0
 24  3  1  0  0  0  0
 25  4  1  0  0  0  0
 27  4  1  0  0  0  0
 28  5  1  0  0  0  0
 30  5  1  0  0  0  0
 31  6  1  0  0  0  0
 32  6  1  0  0  0  0
M  END
>  <HBA>
4

>  <HBD>
0

>  <TPSA>
52.6

>  <cid>
16135

>  <dipole>
1.89

>  <excitation_energy_1>
4.848

>  <excitation_energy_2>
4.855

>  <excitation_energy_3>
5.656

>  <excitation_energy_4>
5.709

>  <homo_energy>
-7.29

>  <homo_lumo_gap>
6.139

>  <logP>
2.251

>  <lumo_energy>
-1.151

>  <melting_point>
-22.0

>  <molecular_refractivity>
65.97

>  <oscillator_strength_1>
0.0

>  <oscillator_strength_2>
0.0

>  <oscillator_strength_3>
0.0106

>  <oscillator_strength_4>
0.1667

>  <open_babel_can_smiles>
O=C(C(=C)C)OCC(COC(=O)C(=C)C)(C)C

>  <mulliken_charges>
37
1   -0.356852
2   -0.504674
3   -0.369617
4   -0.49998
5   -0.462082
6   -0.463799
7   -0.057945
8   -0.058387
9   0.124645
10   0.124003
11   0.596344
12   0.602599
13   0.055979
14   -0.489873
15   -0.483575
16   -0.483874
17   -0.48777
18   0.148286
19   0.178918
20   0.167463
21   0.169851
22   0.150923
23   0.149809
24   0.173451
25   0.147763
26   0.174276
27   0.172455
28   0.149936
29   0.154339
30   0.157036
31   0.157284
32   0.151897
33   0.15359
34   0.151488
35   0.177596
36   0.151252
37   0.177243

>  <lowdin_charges>
37
1   -0.28893
2   -0.440626
3   -0.299473
4   -0.432863
5   -0.446941
6   -0.450392
7   -0.138141
8   -0.136305
9   -0.034105
10   -0.028138
11   0.196957
12   0.197526
13   -0.006113
14   -0.270367
15   -0.267736
16   -0.189153
17   -0.191704
18   0.163662
19   0.179774
20   0.164427
21   0.167068
22   0.157833
23   0.162818
24   0.175304
25   0.154826
26   0.167431
27   0.169104
28   0.153774
29   0.154579
30   0.155598
31   0.156847
32   0.154271
33   0.156015
34   0.153277
35   0.163953
36   0.150783
37   0.16516

$$$$

