PCCDB-ID:  11083
public computational chemistry database (PCCDB) project, http://pccdb.org

 23 23  0  0  1  0  0  0  0  0999 V2000
    1.3993    0.6791   -1.0196 C   0  0  0  0  0  0  0  0  0  0  0  0
    4.7460   -1.6531    0.9206 C   0  0  0  0  0  0  0  0  0  0  0  0
    2.4618    1.3894   -0.6426 C   0  0  0  0  0  0  0  0  0  0  0  0
    3.2080    1.1976    0.6594 C   0  0  0  0  0  0  0  0  0  0  0  0
    6.9996    1.2868   -0.1233 C   0  0  0  0  0  0  0  0  0  0  0  0
    5.3016   -0.3201    0.5351 C   0  0  0  0  0  0  0  0  0  0  0  0
    4.6604    0.8650    0.4342 C   0  0  0  0  0  0  0  0  0  0  0  0
    6.7862   -0.2055    0.1973 C   0  0  2  0  0  0  0  0  0  0  0  0
    5.6125    1.9201    0.0065 C   0  0  0  0  0  0  0  0  0  0  0  0
    7.6187   -0.7212    1.2375 O   0  0  0  0  0  0  0  0  0  0  0  0
    5.3324    3.0866   -0.2106 O   0  0  0  0  0  0  0  0  0  0  0  0
    0.8962    0.8632   -1.9651 H   0  0  0  0  0  0  0  0  0  0  0  0
    0.9861   -0.1122   -0.3965 H   0  0  0  0  0  0  0  0  0  0  0  0
    3.7375   -1.5870    1.3372 H   0  0  0  0  0  0  0  0  0  0  0  0
    5.4057   -2.1393    1.6478 H   0  0  0  0  0  0  0  0  0  0  0  0
    4.7055   -2.3146    0.0436 H   0  0  0  0  0  0  0  0  0  0  0  0
    2.8509    2.1757   -1.2877 H   0  0  0  0  0  0  0  0  0  0  0  0
    2.7181    0.4235    1.2600 H   0  0  0  0  0  0  0  0  0  0  0  0
    3.1641    2.1369    1.2288 H   0  0  0  0  0  0  0  0  0  0  0  0
    7.4029    1.4664   -1.1255 H   0  0  0  0  0  0  0  0  0  0  0  0
    7.6981    1.7489    0.5842 H   0  0  0  0  0  0  0  0  0  0  0  0
    7.0242   -0.8396   -0.6649 H   0  0  0  0  0  0  0  0  0  0  0  0
    7.4469   -0.1917    2.0339 H   0  0  0  0  0  0  0  0  0  0  0  0
  1  3  2  0  0  0  0
  1 13  1  0  0  0  0
  2 14  1  0  0  0  0
  2 15  1  0  0  0  0
  3  4  1  0  0  0  0
  4 19  1  0  0  0  0
  4 18  1  0  0  0  0
  5  9  1  0  0  0  0
  5  8  1  0  0  0  0
  5 21  1  0  0  0  0
  6  2  1  0  0  0  0
  7  6  2  0  0  0  0
  7  4  1  0  0  0  0
  8 22  1  6  0  0  0
  8  6  1  0  0  0  0
  8 10  1  0  0  0  0
  9  7  1  0  0  0  0
 10 23  1  0  0  0  0
 11  9  2  0  0  0  0
 12  1  1  0  0  0  0
 16  2  1  0  0  0  0
 17  3  1  0  0  0  0
 20  5  1  0  0  0  0
M  END
>  <HBA>
2

>  <HBD>
1

>  <TPSA>
37.3

>  <cid>
11083

>  <dipole>
2.43

>  <excitation_energy_1>
3.763

>  <excitation_energy_2>
4.806

>  <excitation_energy_3>
5.335

>  <excitation_energy_4>
5.679

>  <homo_energy>
-6.528

>  <homo_lumo_gap>
5.214

>  <logP>
1.213

>  <lumo_energy>
-1.314

>  <melting_point>
30.06

>  <molecular_refractivity>
43.68

>  <oscillator_strength_1>
0.0004

>  <oscillator_strength_2>
0.0089

>  <oscillator_strength_3>
0.0675

>  <oscillator_strength_4>
0.2312

>  <open_babel_can_smiles>
C=CCC1=C(C)[C@@H](CC1=O)O

>  <mulliken_charges>
23
1   -0.340825
2   -0.521541
3   -0.04302
4   -0.383404
5   -0.393813
6   0.069529
7   0.074768
8   0.078797
9   0.393256
10   -0.614346
11   -0.476346
12   0.141983
13   0.131333
14   0.163672
15   0.178588
16   0.173756
17   0.154071
18   0.144345
19   0.173409
20   0.180152
21   0.175583
22   0.154974
23   0.385079

>  <lowdin_charges>
23
1   -0.344917
2   -0.446409
3   -0.139652
4   -0.269424
5   -0.324635
6   -0.000464
7   -0.057923
8   -0.003818
9   0.139633
10   -0.454375
11   -0.250583
12   0.159943
13   0.152482
14   0.161139
15   0.173385
16   0.171846
17   0.164434
18   0.154414
19   0.170395
20   0.174821
21   0.1741
22   0.154688
23   0.340919

$$$$

