PCCDB-ID:  15480
public computational chemistry database (PCCDB) project, http://pccdb.org

 22 22  0  0  0  0  0  0  0  0999 V2000
    0.9279    0.0002   -0.1361 C   0  0  0  0  0  0  0  0  0  0  0  0
    2.5187   -2.6377   -0.0286 C   0  0  0  0  0  0  0  0  0  0  0  0
    4.6010    1.1974    0.3153 C   0  0  0  0  0  0  0  0  0  0  0  0
    5.3021    0.0583   -0.4268 C   0  0  0  0  0  0  0  0  0  0  0  0
    3.1237    1.2515   -0.0856 C   0  0  0  0  0  0  0  0  0  0  0  0
    4.6503   -1.2818   -0.0693 C   0  0  0  0  0  0  0  0  0  0  0  0
    2.4342   -0.1036   -0.0916 C   0  0  0  0  0  0  0  0  0  0  0  0
    3.1299   -1.2569   -0.0686 C   0  0  0  0  0  0  0  0  0  0  0  0
    0.6163    0.6461   -0.9694 H   0  0  0  0  0  0  0  0  0  0  0  0
    0.5404    0.4719    0.7785 H   0  0  0  0  0  0  0  0  0  0  0  0
    0.4200   -0.9584   -0.2583 H   0  0  0  0  0  0  0  0  0  0  0  0
    2.9523   -3.2210    0.7962 H   0  0  0  0  0  0  0  0  0  0  0  0
    2.7446   -3.1944   -0.9496 H   0  0  0  0  0  0  0  0  0  0  0  0
    1.4351   -2.6393    0.1045 H   0  0  0  0  0  0  0  0  0  0  0  0
    5.0853    2.1604    0.1106 H   0  0  0  0  0  0  0  0  0  0  0  0
    4.6810    1.0261    1.3981 H   0  0  0  0  0  0  0  0  0  0  0  0
    6.3734    0.0325   -0.1914 H   0  0  0  0  0  0  0  0  0  0  0  0
    5.2204    0.2293   -1.5096 H   0  0  0  0  0  0  0  0  0  0  0  0
    3.0273    1.7041   -1.0867 H   0  0  0  0  0  0  0  0  0  0  0  0
    2.5760    1.9272    0.5878 H   0  0  0  0  0  0  0  0  0  0  0  0
    4.9991   -1.6124    0.9233 H   0  0  0  0  0  0  0  0  0  0  0  0
    4.9923   -2.0619   -0.7658 H   0  0  0  0  0  0  0  0  0  0  0  0
  1  7  1  0  0  0  0
  1 10  1  0  0  0  0
  2 14  1  0  0  0  0
  2 12  1  0  0  0  0
  3 16  1  0  0  0  0
  4 17  1  0  0  0  0
  4  6  1  0  0  0  0
  4  3  1  0  0  0  0
  5  3  1  0  0  0  0
  5 20  1  0  0  0  0
  6  8  1  0  0  0  0
  6 21  1  0  0  0  0
  7  5  1  0  0  0  0
  7  8  2  0  0  0  0
  8  2  1  0  0  0  0
  9  1  1  0  0  0  0
 11  1  1  0  0  0  0
 13  2  1  0  0  0  0
 15  3  1  0  0  0  0
 18  4  1  0  0  0  0
 19  5  1  0  0  0  0
 22  6  1  0  0  0  0
M  END
>  <HBA>
0

>  <HBD>
0

>  <TPSA>
0.0

>  <cid>
15480

>  <dipole>
0.02

>  <excitation_energy_1>
5.468

>  <excitation_energy_2>
5.786

>  <excitation_energy_3>
5.917

>  <excitation_energy_4>
6.174

>  <homo_energy>
-5.878

>  <homo_lumo_gap>
6.895

>  <logP>
2.897

>  <lumo_energy>
1.018

>  <melting_point>
11.32

>  <molecular_refractivity>
37.98

>  <oscillator_strength_1>
0.0104

>  <oscillator_strength_2>
0.0071

>  <oscillator_strength_3>
0.0006

>  <oscillator_strength_4>
0.0012

>  <open_babel_can_smiles>
CC1=C(C)CCCC1

>  <mulliken_charges>
22
1   -0.51657
2   -0.516219
3   -0.260909
4   -0.261451
5   -0.31822
6   -0.31801
7   0.115151
8   0.114657
9   0.14846
10   0.149332
11   0.150825
12   0.148148
13   0.149384
14   0.15094
15   0.127504
16   0.132979
17   0.12783
18   0.132852
19   0.137707
20   0.133825
21   0.137484
22   0.134303

>  <lowdin_charges>
22
1   -0.444666
2   -0.442551
3   -0.272982
4   -0.271494
5   -0.276292
6   -0.27626
7   -0.035905
8   -0.03617
9   0.153503
10   0.152992
11   0.153683
12   0.153534
13   0.152867
14   0.151918
15   0.14212
16   0.138143
17   0.140713
18   0.138037
19   0.143146
20   0.146366
21   0.143184
22   0.146114

$$$$

