PCCDB-ID:  73015
public computational chemistry database (PCCDB) project, http://pccdb.org

 27 27  0  0  0  0  0  0  0  0999 V2000
    8.5345   -3.1608   -4.2443 C   0  0  0  0  0  0  0  0  0  0  0  0
    8.4164   -1.7273   -3.7168 C   0  0  0  0  0  0  0  0  0  0  0  0
    6.9641   -1.3107   -3.4474 C   0  0  0  0  0  0  0  0  0  0  0  0
    6.8699    0.1159   -2.9177 C   0  0  0  0  0  0  0  0  0  0  0  0
    2.4682    1.7917   -4.0768 C   0  0  0  0  0  0  0  0  0  0  0  0
    3.3440    1.2798   -3.1301 C   0  0  0  0  0  0  0  0  0  0  0  0
    1.1738    2.0884   -3.6126 C   0  0  0  0  0  0  0  0  0  0  0  0
    4.7458    0.9430   -3.5785 C   0  0  0  0  0  0  0  0  0  0  0  0
    1.7376    1.4009   -1.5467 C   0  0  0  0  0  0  0  0  0  0  0  0
    2.9983    1.0741   -1.8518 N   0  0  0  0  0  0  0  0  0  0  0  0
    0.8003    1.8971   -2.3546 N   0  0  0  0  0  0  0  0  0  0  0  0
    0.2158    2.5897   -4.4174 O   0  0  0  0  0  0  0  0  0  0  0  0
    5.1139    1.1010   -4.7267 O   0  0  0  0  0  0  0  0  0  0  0  0
    1.3560    1.2108   -0.2739 O   0  0  0  0  0  0  0  0  0  0  0  0
    5.5044    0.4702   -2.5834 O   0  0  0  0  0  0  0  0  0  0  0  0
    9.5799   -3.4296   -4.4320 H   0  0  0  0  0  0  0  0  0  0  0  0
    7.9840   -3.2833   -5.1848 H   0  0  0  0  0  0  0  0  0  0  0  0
    8.1277   -3.8823   -3.5255 H   0  0  0  0  0  0  0  0  0  0  0  0
    8.8654   -1.0332   -4.4407 H   0  0  0  0  0  0  0  0  0  0  0  0
    9.0036   -1.6283   -2.7924 H   0  0  0  0  0  0  0  0  0  0  0  0
    6.5066   -1.9921   -2.7183 H   0  0  0  0  0  0  0  0  0  0  0  0
    6.3787   -1.3839   -4.3722 H   0  0  0  0  0  0  0  0  0  0  0  0
    7.2529    0.8350   -3.6468 H   0  0  0  0  0  0  0  0  0  0  0  0
    7.4126    0.2284   -1.9754 H   0  0  0  0  0  0  0  0  0  0  0  0
    2.7888    1.9437   -5.1007 H   0  0  0  0  0  0  0  0  0  0  0  0
    0.5761    2.6953   -5.3127 H   0  0  0  0  0  0  0  0  0  0  0  0
    2.1345    0.8505    0.1871 H   0  0  0  0  0  0  0  0  0  0  0  0
  1  2  1  0  0  0  0
  1 18  1  0  0  0  0
  2  3  1  0  0  0  0
  2 20  1  0  0  0  0
  3  4  1  0  0  0  0
  3 21  1  0  0  0  0
  4 15  1  0  0  0  0
  4 24  1  0  0  0  0
  5  7  1  0  0  0  0
  5  6  2  0  0  0  0
  6 10  1  0  0  0  0
  7 11  2  0  0  0  0
  8  6  1  0  0  0  0
  8 15  1  0  0  0  0
  9 14  1  0  0  0  0
 10  9  2  0  0  0  0
 11  9  2  0  0  0  0
 12  7  1  0  0  0  0
 13  8  2  0  0  0  0
 14 27  1  0  0  0  0
 16  1  1  0  0  0  0
 17  1  1  0  0  0  0
 19  2  1  0  0  0  0
 22  3  1  0  0  0  0
 23  4  1  0  0  0  0
 25  5  1  0  0  0  0
 26 12  1  0  0  0  0
M  END
>  <HBA>
4

>  <HBD>
2

>  <TPSA>
92.02

>  <cid>
73015

>  <dipole>
3.45

>  <excitation_energy_1>
4.157

>  <excitation_energy_2>
4.523

>  <excitation_energy_3>
4.71

>  <excitation_energy_4>
5.577

>  <homo_energy>
-6.988

>  <homo_lumo_gap>
5.11

>  <logP>
0.02

>  <lumo_energy>
-1.878

>  <melting_point>
192.71

>  <molecular_refractivity>
53.38

>  <oscillator_strength_1>
0.002

>  <oscillator_strength_2>
0.0855

>  <oscillator_strength_3>
0.0005

>  <oscillator_strength_4>
0.0008

>  <open_babel_can_smiles>
CCCCOC(=O)C1=CC(=[N]=[C](=N1)O)O

>  <mulliken_charges>
27
1   -0.441631
2   -0.259463
3   -0.274453
4   -0.048107
5   -0.235444
6   0.238108
7   0.525432
8   0.615173
9   0.640625
10   -0.540789
11   -0.46445
12   -0.58689
13   -0.487639
14   -0.582075
15   -0.454851
16   0.146813
17   0.147932
18   0.145595
19   0.141043
20   0.134543
21   0.147205
22   0.159552
23   0.169036
24   0.155958
25   0.168498
26   0.41916
27   0.421121

>  <lowdin_charges>
27
1   -0.442299
2   -0.272877
3   -0.287919
4   -0.129493
5   -0.245043
6   0.047599
7   0.159643
8   0.189129
9   0.16653
10   -0.205826
11   -0.166279
12   -0.328904
13   -0.266615
14   -0.332089
15   -0.158543
16   0.15112
17   0.149777
18   0.149726
19   0.145058
20   0.140747
21   0.15009
22   0.155249
23   0.159567
24   0.154902
25   0.18323
26   0.365221
27   0.368299

$$$$

