PCCDB-ID:  40894
public computational chemistry database (PCCDB) project, http://pccdb.org

 19 19  0  0  1  0  0  0  0  0999 V2000
    2.9968   -1.2541    0.1340 C   0  0  0  0  0  0  0  0  0  0  0  0
    1.4471    3.0281   -0.4824 C   0  0  0  0  0  0  0  0  0  0  0  0
    2.2819    0.0927   -0.0234 C   0  0  0  0  0  0  0  0  0  0  0  0
    4.0431    2.8373   -0.1808 C   0  0  0  0  0  0  0  0  0  0  0  0
    2.6289    2.7048    0.4252 C   0  0  2  0  0  0  0  0  0  0  0  0
    3.0379    1.2201    0.6647 C   0  0  2  0  0  0  0  0  0  0  0  0
    4.3459    1.4483    0.0705 O   0  0  0  0  0  0  0  0  0  0  0  0
    2.4575   -2.0523   -0.3878 H   0  0  0  0  0  0  0  0  0  0  0  0
    3.0789   -1.5392    1.1902 H   0  0  0  0  0  0  0  0  0  0  0  0
    4.0094   -1.1981   -0.2782 H   0  0  0  0  0  0  0  0  0  0  0  0
    1.4012    4.1066   -0.6768 H   0  0  0  0  0  0  0  0  0  0  0  0
    0.4954    2.7357   -0.0233 H   0  0  0  0  0  0  0  0  0  0  0  0
    1.5236    2.5219   -1.4508 H   0  0  0  0  0  0  0  0  0  0  0  0
    1.2697    0.0375    0.4026 H   0  0  0  0  0  0  0  0  0  0  0  0
    2.1692    0.3257   -1.0891 H   0  0  0  0  0  0  0  0  0  0  0  0
    4.7314    3.5097    0.3486 H   0  0  0  0  0  0  0  0  0  0  0  0
    4.0724    3.0748   -1.2538 H   0  0  0  0  0  0  0  0  0  0  0  0
    2.5237    3.2511    1.3687 H   0  0  0  0  0  0  0  0  0  0  0  0
    3.1501    0.9785    1.7332 H   0  0  0  0  0  0  0  0  0  0  0  0
  1  9  1  0  0  0  0
  2 12  1  0  0  0  0
  2  5  1  0  0  0  0
  3  1  1  0  0  0  0
  3 14  1  0  0  0  0
  3  6  1  0  0  0  0
  4  7  1  0  0  0  0
  4 16  1  0  0  0  0
  4  5  1  0  0  0  0
  5  6  1  0  0  0  0
  5 18  1  1  0  0  0
  6 19  1  1  0  0  0
  7  6  1  0  0  0  0
  8  1  1  0  0  0  0
 10  1  1  0  0  0  0
 11  2  1  0  0  0  0
 13  2  1  0  0  0  0
 15  3  1  0  0  0  0
 17  4  1  0  0  0  0
M  END
>  <HBA>
1

>  <HBD>
0

>  <TPSA>
9.23

>  <cid>
40894

>  <dipole>
1.88

>  <excitation_energy_1>
6.107

>  <excitation_energy_2>
6.433

>  <excitation_energy_3>
6.568

>  <excitation_energy_4>
6.647

>  <homo_energy>
-6.498

>  <homo_lumo_gap>
8.833

>  <logP>
1.431

>  <lumo_energy>
2.335

>  <melting_point>
-12.93

>  <molecular_refractivity>
29.93

>  <oscillator_strength_1>
0.0098

>  <oscillator_strength_2>
0.0025

>  <oscillator_strength_3>
0.0113

>  <oscillator_strength_4>
0.0045

>  <open_babel_can_smiles>
CC[C@H]1OC[C@H]1C

>  <mulliken_charges>
19
1   -0.449858
2   -0.458163
3   -0.259667
4   -0.000724
5   -0.171633
6   0.180476
7   -0.516427
8   0.141129
9   0.1399
10   0.169613
11   0.147952
12   0.148977
13   0.151287
14   0.129459
15   0.135571
16   0.131156
17   0.129573
18   0.135642
19   0.115736

>  <lowdin_charges>
19
1   -0.443681
2   -0.444092
3   -0.281639
4   -0.121288
5   -0.15024
6   0.012377
7   -0.311705
8   0.150653
9   0.144754
10   0.159609
11   0.151972
12   0.152658
13   0.150744
14   0.143154
15   0.143035
16   0.137714
17   0.132518
18   0.145751
19   0.127705

$$$$

