PCCDB-ID:  41705
public computational chemistry database (PCCDB) project, http://pccdb.org

 37 36  0  0  0  0  0  0  0  0999 V2000
    0.6941    0.2378   -1.8158 C   0  0  0  0  0  0  0  0  0  0  0  0
    7.2533    2.2025   -1.5061 C   0  0  0  0  0  0  0  0  0  0  0  0
    5.3445   -0.3373    3.1272 C   0  0  0  0  0  0  0  0  0  0  0  0
    5.8160   -2.3677    1.7091 C   0  0  0  0  0  0  0  0  0  0  0  0
    1.8329   -0.4496   -1.0534 C   0  0  0  0  0  0  0  0  0  0  0  0
    5.9490    1.6553   -0.9138 C   0  0  0  0  0  0  0  0  0  0  0  0
    3.2031    0.1710   -1.3648 C   0  0  0  0  0  0  0  0  0  0  0  0
    5.7339    0.1752   -1.2625 C   0  0  0  0  0  0  0  0  0  0  0  0
    4.3443   -0.4435    0.8205 C   0  0  0  0  0  0  0  0  0  0  0  0
    5.5538   -0.8537    1.6931 C   0  0  0  0  0  0  0  0  0  0  0  0
    4.4518   -0.5145   -0.7270 C   0  0  0  0  0  0  0  0  0  0  0  0
    4.5705   -1.9323   -1.1375 N   0  0  0  0  0  0  0  0  0  0  0  0
    0.8391    0.1603   -2.9004 H   0  0  0  0  0  0  0  0  0  0  0  0
    0.6374    1.3045   -1.5666 H   0  0  0  0  0  0  0  0  0  0  0  0
   -0.2761   -0.2122   -1.5758 H   0  0  0  0  0  0  0  0  0  0  0  0
    7.3961    3.2586   -1.2500 H   0  0  0  0  0  0  0  0  0  0  0  0
    7.2569    2.1212   -2.6001 H   0  0  0  0  0  0  0  0  0  0  0  0
    8.1224    1.6477   -1.1318 H   0  0  0  0  0  0  0  0  0  0  0  0
    6.1888   -0.6102    3.7714 H   0  0  0  0  0  0  0  0  0  0  0  0
    4.4375   -0.7685    3.5718 H   0  0  0  0  0  0  0  0  0  0  0  0
    5.2403    0.7545    3.1541 H   0  0  0  0  0  0  0  0  0  0  0  0
    6.6741   -2.6041    2.3509 H   0  0  0  0  0  0  0  0  0  0  0  0
    6.0065   -2.7496    0.7040 H   0  0  0  0  0  0  0  0  0  0  0  0
    4.9465   -2.9049    2.1141 H   0  0  0  0  0  0  0  0  0  0  0  0
    1.8403   -1.5177   -1.3115 H   0  0  0  0  0  0  0  0  0  0  0  0
    1.6278   -0.3938    0.0232 H   0  0  0  0  0  0  0  0  0  0  0  0
    5.1097    2.2600   -1.2801 H   0  0  0  0  0  0  0  0  0  0  0  0
    5.9680    1.7858    0.1761 H   0  0  0  0  0  0  0  0  0  0  0  0
    3.1756    1.2291   -1.0709 H   0  0  0  0  0  0  0  0  0  0  0  0
    3.3455    0.1659   -2.4572 H   0  0  0  0  0  0  0  0  0  0  0  0
    6.5968   -0.4068   -0.9173 H   0  0  0  0  0  0  0  0  0  0  0  0
    5.7303    0.0748   -2.3594 H   0  0  0  0  0  0  0  0  0  0  0  0
    4.0791    0.5914    1.0754 H   0  0  0  0  0  0  0  0  0  0  0  0
    3.4815   -1.0493    1.1356 H   0  0  0  0  0  0  0  0  0  0  0  0
    6.4528   -0.3607    1.2984 H   0  0  0  0  0  0  0  0  0  0  0  0
    4.5348   -1.9922   -2.1561 H   0  0  0  0  0  0  0  0  0  0  0  0
    3.7697   -2.4621   -0.7951 H   0  0  0  0  0  0  0  0  0  0  0  0
  1 15  1  0  0  0  0
  1 14  1  0  0  0  0
  1  5  1  0  0  0  0
  2 16  1  0  0  0  0
  2 18  1  0  0  0  0
  2  6  1  0  0  0  0
  3 21  1  0  0  0  0
  3 20  1  0  0  0  0
  3 19  1  0  0  0  0
  4 24  1  0  0  0  0
  4 22  1  0  0  0  0
  5 26  1  0  0  0  0
  6 28  1  0  0  0  0
  7 29  1  0  0  0  0
  7  5  1  0  0  0  0
  7 11  1  0  0  0  0
  8 31  1  0  0  0  0
  8  6  1  0  0  0  0
  8 11  1  0  0  0  0
  9 33  1  0  0  0  0
  9 34  1  0  0  0  0
  9 10  1  0  0  0  0
 10  4  1  0  0  0  0
 10  3  1  0  0  0  0
 11  9  1  0  0  0  0
 12 37  1  0  0  0  0
 12 11  1  0  0  0  0
 13  1  1  0  0  0  0
 17  2  1  0  0  0  0
 23  4  1  0  0  0  0
 25  5  1  0  0  0  0
 27  6  1  0  0  0  0
 30  7  1  0  0  0  0
 32  8  1  0  0  0  0
 35 10  1  0  0  0  0
 36 12  1  0  0  0  0
M  END
>  <HBA>
1

>  <HBD>
1

>  <TPSA>
26.02

>  <cid>
41705

>  <dipole>
1.36

>  <excitation_energy_1>
5.605

>  <excitation_energy_2>
6.099

>  <excitation_energy_3>
6.11

>  <excitation_energy_4>
6.306

>  <homo_energy>
-6.169

>  <homo_lumo_gap>
8.131

>  <logP>
4.03

>  <lumo_energy>
1.962

>  <melting_point>
35.39

>  <molecular_refractivity>
57.74

>  <oscillator_strength_1>
0.0355

>  <oscillator_strength_2>
0.0025

>  <oscillator_strength_3>
0.0011

>  <oscillator_strength_4>
0.0018

>  <open_babel_can_smiles>
CCCC(CC(C)C)(CCC)N

>  <mulliken_charges>
37
1   -0.441525
2   -0.442145
3   -0.443482
4   -0.450002
5   -0.258019
6   -0.263365
7   -0.259164
8   -0.251362
9   -0.27214
10   -0.066161
11   0.185331
12   -0.721245
13   0.141008
14   0.143135
15   0.142137
16   0.140765
17   0.141058
18   0.143357
19   0.138414
20   0.135506
21   0.134649
22   0.127022
23   0.183202
24   0.122245
25   0.116244
26   0.139406
27   0.134527
28   0.138517
29   0.129321
30   0.11363
31   0.148465
32   0.113466
33   0.127774
34   0.121083
35   0.124647
36   0.288629
37   0.295074

>  <lowdin_charges>
37
1   -0.438975
2   -0.439935
3   -0.443594
4   -0.455513
5   -0.275713
6   -0.276968
7   -0.288318
8   -0.278507
9   -0.280937
10   -0.119846
11   0.058353
12   -0.53959
13   0.143985
14   0.145384
15   0.148986
16   0.147333
17   0.143845
18   0.147646
19   0.147672
20   0.143744
21   0.141409
22   0.141913
23   0.165988
24   0.138346
25   0.130296
26   0.140525
27   0.14109
28   0.13968
29   0.1395
30   0.131732
31   0.15057
32   0.13263
33   0.141981
34   0.139134
35   0.1378
36   0.247432
37   0.250925

$$$$

