PCCDB-ID:  66904
public computational chemistry database (PCCDB) project, http://pccdb.org

 21 21  0  0  0  0  0  0  0  0999 V2000
   -0.9170    1.0150   -0.3413 C   0  0  0  0  0  0  0  0  0  0  0  0
    1.2338    0.1022    0.1862 C   0  0  0  0  0  0  0  0  0  0  0  0
   -1.4814   -0.2551   -0.2744 C   0  0  0  0  0  0  0  0  0  0  0  0
    0.6816   -1.1754    0.2583 C   0  0  0  0  0  0  0  0  0  0  0  0
    1.0498    2.6160   -0.1377 C   0  0  0  0  0  0  0  0  0  0  0  0
    1.0779    3.2694    1.2576 C   0  0  0  0  0  0  0  0  0  0  0  0
    0.4508    1.2269   -0.1163 C   0  0  0  0  0  0  0  0  0  0  0  0
   -0.6892   -1.3754    0.0300 C   0  0  0  0  0  0  0  0  0  0  0  0
   -1.2620   -2.6459    0.1557 N   0  0  0  0  0  0  0  0  0  0  0  0
    1.8566    2.5376    2.1920 O   0  0  0  0  0  0  0  0  0  0  0  0
   -1.5553    1.8627   -0.5826 H   0  0  0  0  0  0  0  0  0  0  0  0
    2.3014    0.2269    0.3533 H   0  0  0  0  0  0  0  0  0  0  0  0
   -2.5461   -0.3861   -0.4563 H   0  0  0  0  0  0  0  0  0  0  0  0
    1.3160   -2.0276    0.4930 H   0  0  0  0  0  0  0  0  0  0  0  0
    2.0785    2.5788   -0.5168 H   0  0  0  0  0  0  0  0  0  0  0  0
    0.4787    3.2657   -0.8143 H   0  0  0  0  0  0  0  0  0  0  0  0
    0.0457    3.4051    1.6207 H   0  0  0  0  0  0  0  0  0  0  0  0
    1.5409    4.2599    1.1949 H   0  0  0  0  0  0  0  0  0  0  0  0
   -2.1192   -2.7772   -0.3675 H   0  0  0  0  0  0  0  0  0  0  0  0
   -0.6215   -3.4160    0.0054 H   0  0  0  0  0  0  0  0  0  0  0  0
    1.4545    1.6560    2.2622 H   0  0  0  0  0  0  0  0  0  0  0  0
  1  3  2  0  0  0  0
  1  7  1  0  0  0  0
  2  4  1  0  0  0  0
  2 12  1  0  0  0  0
  3  8  1  0  0  0  0
  4 14  1  0  0  0  0
  5  7  1  0  0  0  0
  5  6  1  0  0  0  0
  6 17  1  0  0  0  0
  6 10  1  0  0  0  0
  7  2  2  0  0  0  0
  8  9  1  0  0  0  0
  8  4  2  0  0  0  0
 10 21  1  0  0  0  0
 11  1  1  0  0  0  0
 13  3  1  0  0  0  0
 15  5  1  0  0  0  0
 16  5  1  0  0  0  0
 18  6  1  0  0  0  0
 19  9  1  0  0  0  0
 20  9  1  0  0  0  0
M  END
>  <HBA>
2

>  <HBD>
2

>  <TPSA>
46.25

>  <cid>
66904

>  <dipole>
3.38

>  <excitation_energy_1>
4.586

>  <excitation_energy_2>
4.735

>  <excitation_energy_3>
5.213

>  <excitation_energy_4>
5.345

>  <homo_energy>
-5.461

>  <homo_lumo_gap>
5.437

>  <logP>
1.385

>  <lumo_energy>
-0.024

>  <melting_point>
75.26

>  <molecular_refractivity>
41.78

>  <oscillator_strength_1>
0.0316

>  <oscillator_strength_2>
0.0108

>  <oscillator_strength_3>
0.1525

>  <oscillator_strength_4>
0.0376

>  <open_babel_can_smiles>
OCCc1ccc(cc1)N

>  <mulliken_charges>
21
1   -0.188736
2   -0.213592
3   -0.169571
4   -0.170054
5   -0.353884
6   -0.022503
7   0.14369
8   0.307474
9   -0.787203
10   -0.62031
11   0.122068
12   0.136255
13   0.117706
14   0.118703
15   0.149805
16   0.135058
17   0.120199
18   0.142211
19   0.319528
20   0.319758
21   0.3934

>  <lowdin_charges>
21
1   -0.157581
2   -0.166443
3   -0.195358
4   -0.20134
5   -0.29258
6   -0.130667
7   -0.036975
8   0.058133
9   -0.490537
10   -0.469944
11   0.155159
12   0.157809
13   0.151253
14   0.154137
15   0.152524
16   0.151724
17   0.123536
18   0.144728
19   0.275248
20   0.276008
21   0.341165

$$$$

