PCCDB-ID:  70216
public computational chemistry database (PCCDB) project, http://pccdb.org

 27 26  0  0  0  0  0  0  0  0999 V2000
    5.7098   -2.9080    2.8646 C   0  0  0  0  0  0  0  0  0  0  0  0
    3.6293   -2.3082   -2.1512 C   0  0  0  0  0  0  0  0  0  0  0  0
    4.6267   -2.1369    2.1261 C   0  0  0  0  0  0  0  0  0  0  0  0
    4.0240   -1.4436   -3.3387 C   0  0  0  0  0  0  0  0  0  0  0  0
    6.0420    0.9735    0.6601 C   0  0  0  0  0  0  0  0  0  0  0  0
    5.1402    1.7998   -1.9131 C   0  0  0  0  0  0  0  0  0  0  0  0
    5.5136    0.0362    1.7286 C   0  0  0  0  0  0  0  0  0  0  0  0
    5.2464    0.3805   -2.4263 C   0  0  0  0  0  0  0  0  0  0  0  0
    5.3739    0.3412    2.8933 O   0  0  0  0  0  0  0  0  0  0  0  0
    6.2551   -0.2923   -2.3331 O   0  0  0  0  0  0  0  0  0  0  0  0
    5.1988   -1.1696    1.2102 O   0  0  0  0  0  0  0  0  0  0  0  0
    4.0861   -0.0454   -2.9548 O   0  0  0  0  0  0  0  0  0  0  0  0
    4.6180    1.8411   -0.1462 S   0  0  0  0  0  0  0  0  0  0  0  0
    5.2522   -3.6817    3.4918 H   0  0  0  0  0  0  0  0  0  0  0  0
    6.2859   -2.2397    3.5105 H   0  0  0  0  0  0  0  0  0  0  0  0
    6.3913   -3.3952    2.1595 H   0  0  0  0  0  0  0  0  0  0  0  0
    3.5505   -3.3556   -2.4646 H   0  0  0  0  0  0  0  0  0  0  0  0
    2.6615   -1.9934   -1.7479 H   0  0  0  0  0  0  0  0  0  0  0  0
    4.3790   -2.2357   -1.3579 H   0  0  0  0  0  0  0  0  0  0  0  0
    3.9667   -1.6129    2.8214 H   0  0  0  0  0  0  0  0  0  0  0  0
    4.0329   -2.7930    1.4852 H   0  0  0  0  0  0  0  0  0  0  0  0
    3.2718   -1.4730   -4.1304 H   0  0  0  0  0  0  0  0  0  0  0  0
    4.9938   -1.7389   -3.7454 H   0  0  0  0  0  0  0  0  0  0  0  0
    6.5777    0.4123   -0.1083 H   0  0  0  0  0  0  0  0  0  0  0  0
    6.6952    1.7084    1.1335 H   0  0  0  0  0  0  0  0  0  0  0  0
    4.3648    2.3543   -2.4464 H   0  0  0  0  0  0  0  0  0  0  0  0
    6.1034    2.3004   -2.0331 H   0  0  0  0  0  0  0  0  0  0  0  0
  1 14  1  0  0  0  0
  1 15  1  0  0  0  0
  2 18  1  0  0  0  0
  2 19  1  0  0  0  0
  3 20  1  0  0  0  0
  3  1  1  0  0  0  0
  4 12  1  0  0  0  0
  4  2  1  0  0  0  0
  5 25  1  0  0  0  0
  5  7  1  0  0  0  0
  6 13  1  0  0  0  0
  7  9  2  0  0  0  0
  8 10  2  0  0  0  0
  8  6  1  0  0  0  0
 11  7  1  0  0  0  0
 11  3  1  0  0  0  0
 12  8  1  0  0  0  0
 13  5  1  0  0  0  0
 16  1  1  0  0  0  0
 17  2  1  0  0  0  0
 21  3  1  0  0  0  0
 22  4  1  0  0  0  0
 23  4  1  0  0  0  0
 24  5  1  0  0  0  0
 26  6  1  0  0  0  0
 27  6  1  0  0  0  0
M  END
>  <HBA>
5

>  <HBD>
0

>  <TPSA>
77.9

>  <cid>
70216

>  <dipole>
2.86

>  <excitation_energy_1>
4.678

>  <excitation_energy_2>
4.911

>  <excitation_energy_3>
5.505

>  <excitation_energy_4>
5.608

>  <homo_energy>
-6.4

>  <homo_lumo_gap>
5.938

>  <logP>
0.846

>  <lumo_energy>
-0.463

>  <melting_point>
5.96

>  <molecular_refractivity>
50.73

>  <oscillator_strength_1>
0.0113

>  <oscillator_strength_2>
0.0092

>  <oscillator_strength_3>
0.0043

>  <oscillator_strength_4>
0.0051

>  <open_babel_can_smiles>
CCOC(=O)CSCC(=O)OCC

>  <mulliken_charges>
27
1   -0.462366
2   -0.469147
3   -0.046644
4   -0.05249
5   -0.525132
6   -0.510749
7   0.615315
8   0.637739
9   -0.464582
10   -0.472921
11   -0.441766
12   -0.444914
13   0.147586
14   0.151247
15   0.1776
16   0.159194
17   0.14907
18   0.162189
19   0.187073
20   0.173295
21   0.153612
22   0.156036
23   0.174205
24   0.234289
25   0.20312
26   0.206396
27   0.202745

>  <lowdin_charges>
27
1   -0.458612
2   -0.45612
3   -0.130813
4   -0.126619
5   -0.405019
6   -0.400116
7   0.191867
8   0.194126
9   -0.261314
10   -0.27485
11   -0.189003
12   -0.184192
13   0.147486
14   0.160527
15   0.167524
16   0.158399
17   0.157243
18   0.158642
19   0.169831
20   0.161774
21   0.154297
22   0.154745
23   0.160341
24   0.198479
25   0.181631
26   0.190836
27   0.17891

$$$$

