PCCDB-ID:  61592
public computational chemistry database (PCCDB) project, http://pccdb.org

 21 20  0  0  0  0  0  0  0  0999 V2000
    3.0352   -1.1681    3.8281 C   0  0  0  0  0  0  0  0  0  0  0  0
    5.7491    2.7773   -2.8806 C   0  0  0  0  0  0  0  0  0  0  0  0
    3.4486   -2.0475    2.6578 C   0  0  0  0  0  0  0  0  0  0  0  0
    5.3646   -0.0097    0.2131 C   0  0  0  0  0  0  0  0  0  0  0  0
    4.9845    0.9969   -0.8702 C   0  0  0  0  0  0  0  0  0  0  0  0
    4.1445   -0.5631    0.9267 C   0  0  0  0  0  0  0  0  0  0  0  0
    2.9947   -0.2724    0.6725 O   0  0  0  0  0  0  0  0  0  0  0  0
    4.5141   -1.4360    1.8891 O   0  0  0  0  0  0  0  0  0  0  0  0
    6.5051    1.6188   -1.6886 S   0  0  0  0  0  0  0  0  0  0  0  0
    2.2876   -1.6884    4.4380 H   0  0  0  0  0  0  0  0  0  0  0  0
    2.5946   -0.2331    3.4705 H   0  0  0  0  0  0  0  0  0  0  0  0
    3.8959   -0.9355    4.4637 H   0  0  0  0  0  0  0  0  0  0  0  0
    6.5661    3.2343   -3.4449 H   0  0  0  0  0  0  0  0  0  0  0  0
    5.1912    3.5660   -2.3667 H   0  0  0  0  0  0  0  0  0  0  0  0
    5.0880    2.2541   -3.5784 H   0  0  0  0  0  0  0  0  0  0  0  0
    2.6045   -2.2460    1.9930 H   0  0  0  0  0  0  0  0  0  0  0  0
    3.8732   -2.9950    2.9986 H   0  0  0  0  0  0  0  0  0  0  0  0
    6.0246    0.4445    0.9624 H   0  0  0  0  0  0  0  0  0  0  0  0
    5.9267   -0.8520   -0.2094 H   0  0  0  0  0  0  0  0  0  0  0  0
    4.4345    1.8349   -0.4306 H   0  0  0  0  0  0  0  0  0  0  0  0
    4.3334    0.5245   -1.6121 H   0  0  0  0  0  0  0  0  0  0  0  0
  1 10  1  0  0  0  0
  1 12  1  0  0  0  0
  2 14  1  0  0  0  0
  2  9  1  0  0  0  0
  3 17  1  0  0  0  0
  3  1  1  0  0  0  0
  4  6  1  0  0  0  0
  4 18  1  0  0  0  0
  5 20  1  0  0  0  0
  5  4  1  0  0  0  0
  6  8  1  0  0  0  0
  7  6  2  0  0  0  0
  8  3  1  0  0  0  0
  9  5  1  0  0  0  0
 11  1  1  0  0  0  0
 13  2  1  0  0  0  0
 15  2  1  0  0  0  0
 16  3  1  0  0  0  0
 19  4  1  0  0  0  0
 21  5  1  0  0  0  0
M  END
>  <HBA>
3

>  <HBD>
0

>  <TPSA>
51.6

>  <cid>
61592

>  <dipole>
0.96

>  <excitation_energy_1>
5.1

>  <excitation_energy_2>
5.349

>  <excitation_energy_3>
5.463

>  <excitation_energy_4>
5.872

>  <homo_energy>
-5.962

>  <homo_lumo_gap>
6.267

>  <logP>
1.303

>  <lumo_energy>
0.305

>  <melting_point>
-5.15

>  <molecular_refractivity>
39.83

>  <oscillator_strength_1>
0.0002

>  <oscillator_strength_2>
0.0094

>  <oscillator_strength_3>
0.0073

>  <oscillator_strength_4>
0.0003

>  <open_babel_can_smiles>
CSCCC(=O)OCC

>  <mulliken_charges>
21
1   -0.462172
2   -0.583381
3   -0.045033
4   -0.374402
5   -0.393647
6   0.623497
7   -0.478526
8   -0.459966
9   0.084487
10   0.151519
11   0.17573
12   0.158383
13   0.183532
14   0.17779
15   0.178093
16   0.17078
17   0.154273
18   0.189329
19   0.19001
20   0.179063
21   0.180644

>  <lowdin_charges>
21
1   -0.456937
2   -0.546968
3   -0.12898
4   -0.304849
5   -0.36948
6   0.197465
7   -0.26863
8   -0.194888
9   0.088234
10   0.160696
11   0.165249
12   0.15729
13   0.177341
14   0.163307
15   0.163583
16   0.159635
17   0.153116
18   0.1788
19   0.1789
20   0.163024
21   0.164089

$$$$

