PCCDB-ID:  19538
public computational chemistry database (PCCDB) project, http://pccdb.org

 37 37  0  0  0  0  0  0  0  0999 V2000
    3.2675   -2.4028   -2.0430 C   0  0  0  0  0  0  0  0  0  0  0  0
    4.5903    0.9349   -3.4050 C   0  0  0  0  0  0  0  0  0  0  0  0
    4.6828   -1.7993   -2.0893 C   0  0  0  0  0  0  0  0  0  0  0  0
    4.1818    0.6190   -1.9652 C   0  0  0  0  0  0  0  0  0  0  0  0
   11.0609   -1.1454   -2.6643 C   0  0  0  0  0  0  0  0  0  0  0  0
    9.6765   -1.0052   -2.7871 C   0  0  0  0  0  0  0  0  0  0  0  0
   11.6686   -0.8727   -1.4370 C   0  0  0  0  0  0  0  0  0  0  0  0
    8.9000   -0.6091   -1.6992 C   0  0  0  0  0  0  0  0  0  0  0  0
   10.9014   -0.4651   -0.3474 C   0  0  0  0  0  0  0  0  0  0  0  0
    4.6930   -0.5920    0.0607 C   0  0  0  0  0  0  0  0  0  0  0  0
    5.6207   -1.5638    0.7878 C   0  0  0  0  0  0  0  0  0  0  0  0
    9.5077   -0.3416   -0.4594 C   0  0  0  0  0  0  0  0  0  0  0  0
    7.6628   -0.2988    1.0150 C   0  0  0  0  0  0  0  0  0  0  0  0
    8.8054    0.1340    0.6655 N   0  0  0  0  0  0  0  0  0  0  0  0
    4.8918   -0.5267   -1.3844 N   0  0  0  0  0  0  0  0  0  0  0  0
    7.0110    0.2770    2.0569 O   0  0  0  0  0  0  0  0  0  0  0  0
    7.0123   -1.3424    0.4843 O   0  0  0  0  0  0  0  0  0  0  0  0
    3.2445   -3.3383   -2.6137 H   0  0  0  0  0  0  0  0  0  0  0  0
    2.5213   -1.7306   -2.4805 H   0  0  0  0  0  0  0  0  0  0  0  0
    2.9493   -2.6349   -1.0203 H   0  0  0  0  0  0  0  0  0  0  0  0
    4.1451    1.8876   -3.7126 H   0  0  0  0  0  0  0  0  0  0  0  0
    4.2514    0.1745   -4.1164 H   0  0  0  0  0  0  0  0  0  0  0  0
    5.6791    1.0209   -3.4853 H   0  0  0  0  0  0  0  0  0  0  0  0
    4.9746   -1.6471   -3.1328 H   0  0  0  0  0  0  0  0  0  0  0  0
    5.4030   -2.5229   -1.6922 H   0  0  0  0  0  0  0  0  0  0  0  0
    3.0817    0.5051   -1.9111 H   0  0  0  0  0  0  0  0  0  0  0  0
    4.4255    1.4868   -1.3403 H   0  0  0  0  0  0  0  0  0  0  0  0
   11.6592   -1.4569   -3.5163 H   0  0  0  0  0  0  0  0  0  0  0  0
    9.1939   -1.2051   -3.7410 H   0  0  0  0  0  0  0  0  0  0  0  0
   12.7459   -0.9713   -1.3281 H   0  0  0  0  0  0  0  0  0  0  0  0
    7.8249   -0.4972   -1.8018 H   0  0  0  0  0  0  0  0  0  0  0  0
   11.3656   -0.2371    0.6077 H   0  0  0  0  0  0  0  0  0  0  0  0
    4.8720    0.4103    0.4644 H   0  0  0  0  0  0  0  0  0  0  0  0
    3.6583   -0.8627    0.3543 H   0  0  0  0  0  0  0  0  0  0  0  0
    5.4515   -2.5990    0.4856 H   0  0  0  0  0  0  0  0  0  0  0  0
    5.4521   -1.4876    1.8651 H   0  0  0  0  0  0  0  0  0  0  0  0
    7.6015    0.9939    2.3493 H   0  0  0  0  0  0  0  0  0  0  0  0
  1 20  1  0  0  0  0
  2  4  1  0  0  0  0
  3  1  1  0  0  0  0
  3 25  1  0  0  0  0
  3 15  1  0  0  0  0
  4 26  1  0  0  0  0
  4 15  1  0  0  0  0
  4 27  1  0  0  0  0
  5  7  1  0  0  0  0
  6  5  2  0  0  0  0
  6  8  1  0  0  0  0
  7 30  1  0  0  0  0
  7  9  2  0  0  0  0
  8 12  2  0  0  0  0
  9 32  1  0  0  0  0
 10 34  1  0  0  0  0
 10 33  1  0  0  0  0
 10 11  1  0  0  0  0
 11 36  1  0  0  0  0
 12  9  1  0  0  0  0
 12 14  1  0  0  0  0
 13 16  1  0  0  0  0
 14 13  2  0  0  0  0
 15 10  1  0  0  0  0
 16 37  1  0  0  0  0
 17 11  1  0  0  0  0
 17 13  1  0  0  0  0
 18  1  1  0  0  0  0
 19  1  1  0  0  0  0
 21  2  1  0  0  0  0
 22  2  1  0  0  0  0
 23  2  1  0  0  0  0
 24  3  1  0  0  0  0
 28  5  1  0  0  0  0
 29  6  1  0  0  0  0
 31  8  1  0  0  0  0
 35 11  1  0  0  0  0
M  END
>  <HBA>
4

>  <HBD>
1

>  <TPSA>
41.57

>  <cid>
19538

>  <dipole>
3.46

>  <excitation_energy_1>
4.922

>  <excitation_energy_2>
5.024

>  <excitation_energy_3>
5.073

>  <excitation_energy_4>
5.092

>  <homo_energy>
-5.48

>  <homo_lumo_gap>
5.657

>  <logP>
2.65

>  <lumo_energy>
0.177

>  <melting_point>
59.29

>  <molecular_refractivity>
69.16

>  <oscillator_strength_1>
0.035

>  <oscillator_strength_2>
0.0927

>  <oscillator_strength_3>
0.1716

>  <oscillator_strength_4>
0.0139

>  <open_babel_can_smiles>
CCN(CCO/C(=N\c1ccccc1)/O)CC

>  <mulliken_charges>
37
1   -0.462219
2   -0.460679
3   -0.147422
4   -0.107518
5   -0.130242
6   -0.147821
7   -0.137782
8   -0.160145
9   -0.153688
10   -0.1406
11   -0.063309
12   0.259464
13   0.736809
14   -0.580943
15   -0.372619
16   -0.60748
17   -0.458667
18   0.148392
19   0.151942
20   0.144698
21   0.146225
22   0.148472
23   0.164165
24   0.149915
25   0.153267
26   0.114227
27   0.139738
28   0.118076
29   0.118584
30   0.121107
31   0.154028
32   0.122428
33   0.159998
34   0.118796
35   0.163734
36   0.17216
37   0.424914

>  <lowdin_charges>
37
1   -0.467242
2   -0.451202
3   -0.208861
4   -0.194147
5   -0.175103
6   -0.158083
7   -0.155475
8   -0.179577
9   -0.172554
10   -0.214487
11   -0.129162
12   0.051996
13   0.204083
14   -0.24191
15   -0.18805
16   -0.369548
17   -0.175763
18   0.156126
19   0.15221
20   0.146233
21   0.155357
22   0.14959
23   0.156308
24   0.149103
25   0.150131
26   0.114809
27   0.146071
28   0.153632
29   0.152152
30   0.151805
31   0.163883
32   0.158263
33   0.155194
34   0.125278
35   0.15645
36   0.159042
37   0.373448

$$$$

