PCCDB-ID:  20595
public computational chemistry database (PCCDB) project, http://pccdb.org

 29 30  0  0  1  0  0  0  0  0999 V2000
    0.9347   -0.0475    0.2174 C   0  0  0  0  0  0  0  0  0  0  0  0
    5.7295   -2.7293    1.7328 C   0  0  0  0  0  0  0  0  0  0  0  0
    6.7821    0.1318   -0.2024 C   0  0  0  0  0  0  0  0  0  0  0  0
    3.1827   -3.6905    0.0766 C   0  0  0  0  0  0  0  0  0  0  0  0
    4.6259   -3.6885   -0.3514 C   0  0  0  0  0  0  0  0  0  0  0  0
    2.5420   -2.5374    0.3218 C   0  0  0  0  0  0  0  0  0  0  0  0
    3.1217    1.1706   -0.0421 C   0  0  0  0  0  0  0  0  0  0  0  0
    4.5096    1.2100   -0.1488 C   0  0  0  0  0  0  0  0  0  0  0  0
    2.4446   -0.0386    0.1224 C   0  0  0  0  0  0  0  0  0  0  0  0
    5.3940   -2.4913    0.2438 C   0  0  1  0  0  0  0  0  0  0  0  0
    5.2755    0.0406   -0.0849 C   0  0  0  0  0  0  0  0  0  0  0  0
    3.2020   -1.2311    0.1800 C   0  0  0  0  0  0  0  0  0  0  0  0
    4.6130   -1.1892    0.0807 C   0  0  0  0  0  0  0  0  0  0  0  0
    0.5384    0.9692    0.1359 H   0  0  0  0  0  0  0  0  0  0  0  0
    0.5829   -0.4609    1.1715 H   0  0  0  0  0  0  0  0  0  0  0  0
    0.4766   -0.6466   -0.5793 H   0  0  0  0  0  0  0  0  0  0  0  0
    6.3417   -3.6321    1.8514 H   0  0  0  0  0  0  0  0  0  0  0  0
    4.8158   -2.8562    2.3227 H   0  0  0  0  0  0  0  0  0  0  0  0
    6.2846   -1.8848    2.1546 H   0  0  0  0  0  0  0  0  0  0  0  0
    7.0982    1.1755   -0.2959 H   0  0  0  0  0  0  0  0  0  0  0  0
    7.1587   -0.4049   -1.0827 H   0  0  0  0  0  0  0  0  0  0  0  0
    7.2944   -0.2896    0.6709 H   0  0  0  0  0  0  0  0  0  0  0  0
    2.6555   -4.6392    0.1505 H   0  0  0  0  0  0  0  0  0  0  0  0
    4.6749   -3.6498   -1.4523 H   0  0  0  0  0  0  0  0  0  0  0  0
    5.1208   -4.6233   -0.0588 H   0  0  0  0  0  0  0  0  0  0  0  0
    1.4919   -2.5522    0.5990 H   0  0  0  0  0  0  0  0  0  0  0  0
    2.5530    2.0964   -0.0937 H   0  0  0  0  0  0  0  0  0  0  0  0
    5.0099    2.1664   -0.2832 H   0  0  0  0  0  0  0  0  0  0  0  0
    6.3418   -2.4069   -0.2996 H   0  0  0  0  0  0  0  0  0  0  0  0
  1 15  1  0  0  0  0
  2 17  1  0  0  0  0
  2 19  1  0  0  0  0
  2 18  1  0  0  0  0
  3 11  1  0  0  0  0
  3 22  1  0  0  0  0
  4 23  1  0  0  0  0
  4  6  2  0  0  0  0
  5 25  1  0  0  0  0
  5  4  1  0  0  0  0
  5 10  1  0  0  0  0
  6 26  1  0  0  0  0
  7  9  2  0  0  0  0
  8 11  2  0  0  0  0
  8  7  1  0  0  0  0
  9 12  1  0  0  0  0
  9  1  1  0  0  0  0
 10 29  1  6  0  0  0
 10  2  1  0  0  0  0
 11 13  1  0  0  0  0
 12  6  1  0  0  0  0
 13 12  2  0  0  0  0
 13 10  1  0  0  0  0
 14  1  1  0  0  0  0
 16  1  1  0  0  0  0
 20  3  1  0  0  0  0
 21  3  1  0  0  0  0
 24  5  1  0  0  0  0
 27  7  1  0  0  0  0
 28  8  1  0  0  0  0
M  END
>  <HBA>
0

>  <HBD>
0

>  <TPSA>
0.0

>  <cid>
20595

>  <dipole>
0.44

>  <excitation_energy_1>
4.501

>  <excitation_energy_2>
4.517

>  <excitation_energy_3>
5.181

>  <excitation_energy_4>
5.355

>  <homo_energy>
-5.559

>  <homo_lumo_gap>
4.974

>  <logP>
3.824

>  <lumo_energy>
-0.585

>  <melting_point>
62.61

>  <molecular_refractivity>
58.93

>  <oscillator_strength_1>
0.1562

>  <oscillator_strength_2>
0.0549

>  <oscillator_strength_3>
0.0038

>  <oscillator_strength_4>
0.2555

>  <open_babel_can_smiles>
C[C@H]1CC=Cc2c1c(C)ccc2C

>  <mulliken_charges>
29
1   -0.53682
2   -0.442554
3   -0.540881
4   -0.131925
5   -0.300416
6   -0.153195
7   -0.190817
8   -0.182125
9   0.128504
10   -0.166345
11   0.127077
12   0.057728
13   0.046865
14   0.153432
15   0.159788
16   0.161719
17   0.136731
18   0.157497
19   0.147261
20   0.15308
21   0.160506
22   0.160548
23   0.125239
24   0.150188
25   0.136258
26   0.122511
27   0.116329
28   0.116074
29   0.12774

>  <lowdin_charges>
29
1   -0.44494
2   -0.444967
3   -0.444961
4   -0.162757
5   -0.272387
6   -0.173492
7   -0.172458
8   -0.169053
9   -0.006546
10   -0.121508
11   -0.012518
12   -0.020613
13   -0.012532
14   0.155694
15   0.157498
16   0.160276
17   0.145491
18   0.156181
19   0.151178
20   0.155017
21   0.158117
22   0.15791
23   0.153888
24   0.15132
25   0.149394
26   0.155591
27   0.152374
28   0.152112
29   0.146691

$$$$

