PCCDB-ID:  36046
public computational chemistry database (PCCDB) project, http://pccdb.org

 27 29  0  0  0  0  0  0  0  0999 V2000
   -3.9368    0.1428    0.3011 C   0  0  0  0  0  0  0  0  0  0  0  0
   -3.5767   -1.2040    0.3480 C   0  0  0  0  0  0  0  0  0  0  0  0
    3.9534    0.3106    0.2785 C   0  0  0  0  0  0  0  0  0  0  0  0
    3.6927   -1.0105   -0.0887 C   0  0  0  0  0  0  0  0  0  0  0  0
   -2.9580    1.0920    0.0022 C   0  0  0  0  0  0  0  0  0  0  0  0
   -2.2571   -1.5849    0.1193 C   0  0  0  0  0  0  0  0  0  0  0  0
    2.8899    1.2036    0.3636 C   0  0  0  0  0  0  0  0  0  0  0  0
    2.3867   -1.4136   -0.3357 C   0  0  0  0  0  0  0  0  0  0  0  0
   -0.5978    1.7644   -0.6265 C   0  0  0  0  0  0  0  0  0  0  0  0
   -1.6329    0.7320   -0.2515 C   0  0  0  0  0  0  0  0  0  0  0  0
   -1.2698   -0.6279   -0.1732 C   0  0  0  0  0  0  0  0  0  0  0  0
    1.5612    0.8188    0.1351 C   0  0  0  0  0  0  0  0  0  0  0  0
    1.2965   -0.5289   -0.2105 C   0  0  0  0  0  0  0  0  0  0  0  0
    0.5705    1.8377    0.2506 N   0  0  0  0  0  0  0  0  0  0  0  0
    0.0261   -1.0831   -0.4473 N   0  0  0  0  0  0  0  0  0  0  0  0
   -4.9610    0.4495    0.4908 H   0  0  0  0  0  0  0  0  0  0  0  0
   -4.3193   -1.9642    0.5751 H   0  0  0  0  0  0  0  0  0  0  0  0
    4.9682    0.6453    0.4721 H   0  0  0  0  0  0  0  0  0  0  0  0
    4.5015   -1.7299   -0.1835 H   0  0  0  0  0  0  0  0  0  0  0  0
   -3.2262    2.1452   -0.0543 H   0  0  0  0  0  0  0  0  0  0  0  0
   -1.9797   -2.6361    0.1726 H   0  0  0  0  0  0  0  0  0  0  0  0
    3.0599    2.2487    0.6068 H   0  0  0  0  0  0  0  0  0  0  0  0
    2.1885   -2.4487   -0.6101 H   0  0  0  0  0  0  0  0  0  0  0  0
   -1.0663    2.7558   -0.6499 H   0  0  0  0  0  0  0  0  0  0  0  0
   -0.2208    1.5733   -1.6393 H   0  0  0  0  0  0  0  0  0  0  0  0
    0.2976    2.0010    1.2157 H   0  0  0  0  0  0  0  0  0  0  0  0
    0.0682   -2.0873   -0.5598 H   0  0  0  0  0  0  0  0  0  0  0  0
  1  2  1  0  0  0  0
  1 16  1  0  0  0  0
  2 17  1  0  0  0  0
  3  7  1  0  0  0  0
  3 18  1  0  0  0  0
  4  3  2  0  0  0  0
  5  1  2  0  0  0  0
  6 21  1  0  0  0  0
  6  2  2  0  0  0  0
  7 22  1  0  0  0  0
  8 13  2  0  0  0  0
  8  4  1  0  0  0  0
  9 10  1  0  0  0  0
  9 14  1  0  0  0  0
 10 11  2  0  0  0  0
 10  5  1  0  0  0  0
 11  6  1  0  0  0  0
 12 14  1  0  0  0  0
 12  7  2  0  0  0  0
 13 12  1  0  0  0  0
 14 26  1  0  0  0  0
 15 13  1  0  0  0  0
 15 11  1  0  0  0  0
 19  4  1  0  0  0  0
 20  5  1  0  0  0  0
 23  8  1  0  0  0  0
 24  9  1  0  0  0  0
 25  9  1  0  0  0  0
 27 15  1  0  0  0  0
M  END
>  <HBA>
1

>  <HBD>
2

>  <TPSA>
24.06

>  <cid>
36046

>  <dipole>
1.38

>  <excitation_energy_1>
3.948

>  <excitation_energy_2>
4.068

>  <excitation_energy_3>
4.152

>  <excitation_energy_4>
4.338

>  <homo_energy>
-4.871

>  <homo_lumo_gap>
4.767

>  <logP>
3.632

>  <lumo_energy>
-0.103

>  <melting_point>
141.08

>  <molecular_refractivity>
69.21

>  <oscillator_strength_1>
0.0627

>  <oscillator_strength_2>
0.0585

>  <oscillator_strength_3>
0.1369

>  <oscillator_strength_4>
0.0177

>  <open_babel_can_smiles>
c1ccc2c(c1)CNc1c(N2)cccc1

>  <mulliken_charges>
27
1   -0.130353
2   -0.134192
3   -0.142645
4   -0.130692
5   -0.208716
6   -0.191713
7   -0.167242
8   -0.212659
9   -0.242944
10   0.14115
11   0.320892
12   0.234952
13   0.359598
14   -0.634344
15   -0.807926
16   0.124582
17   0.128189
18   0.123327
19   0.125184
20   0.123105
21   0.11925
22   0.130364
23   0.116906
24   0.148211
25   0.170903
26   0.313419
27   0.323394

>  <lowdin_charges>
27
1   -0.179146
2   -0.150646
3   -0.179188
4   -0.157196
5   -0.157457
6   -0.195087
7   -0.157259
8   -0.195087
9   -0.199901
10   -0.052861
11   0.054362
12   0.005695
13   0.042153
14   -0.330312
15   -0.248373
16   0.155924
17   0.159071
18   0.155699
19   0.157849
20   0.153092
21   0.150516
22   0.160589
23   0.148687
24   0.1517
25   0.16043
26   0.267447
27   0.279301

$$$$

