PCCDB-ID:  14925
public computational chemistry database (PCCDB) project, http://pccdb.org

 20 19  0  0  0  0  0  0  0  0999 V2000
    0.6635    0.1991    0.1886 C   0  0  0  0  0  0  0  0  0  0  0  0
    0.2859   -1.6677    1.8902 C   0  0  0  0  0  0  0  0  0  0  0  0
    0.0770   -1.2160    0.4261 C   0  0  0  0  0  0  0  0  0  0  0  0
    1.0384    0.4786   -1.2477 C   0  0  0  0  0  0  0  0  0  0  0  0
   -0.0953   -0.6153    2.9391 C   0  0  0  0  0  0  0  0  0  0  0  0
   -1.3979   -1.3276    0.0004 C   0  0  0  0  0  0  0  0  0  0  0  0
    0.6578   -0.1577   -2.2205 O   0  0  0  0  0  0  0  0  0  0  0  0
    1.8607    1.5275   -1.3641 O   0  0  0  0  0  0  0  0  0  0  0  0
    0.7384   -0.0215    3.5853 O   0  0  0  0  0  0  0  0  0  0  0  0
   -1.4073   -0.3736    3.0855 O   0  0  0  0  0  0  0  0  0  0  0  0
   -2.3055   -1.5213    0.7927 O   0  0  0  0  0  0  0  0  0  0  0  0
   -1.6534   -1.2256   -1.3004 O   0  0  0  0  0  0  0  0  0  0  0  0
    1.5556    0.3383    0.8081 H   0  0  0  0  0  0  0  0  0  0  0  0
   -0.0364    0.9802    0.5148 H   0  0  0  0  0  0  0  0  0  0  0  0
    1.3463   -1.8806    2.0428 H   0  0  0  0  0  0  0  0  0  0  0  0
   -0.2783   -2.5905    2.0623 H   0  0  0  0  0  0  0  0  0  0  0  0
    0.6317   -1.9162   -0.2122 H   0  0  0  0  0  0  0  0  0  0  0  0
    2.0341    1.6575   -2.3167 H   0  0  0  0  0  0  0  0  0  0  0  0
   -1.9133   -0.8916    2.4140 H   0  0  0  0  0  0  0  0  0  0  0  0
   -0.8254   -1.0137   -1.7991 H   0  0  0  0  0  0  0  0  0  0  0  0
  1  3  1  0  0  0  0
  1 14  1  0  0  0  0
  1 13  1  0  0  0  0
  2 15  1  0  0  0  0
  2 16  1  0  0  0  0
  2  5  1  0  0  0  0
  3  2  1  0  0  0  0
  4  1  1  0  0  0  0
  5 10  1  0  0  0  0
  5  9  2  0  0  0  0
  6  3  1  0  0  0  0
  6 11  2  0  0  0  0
  7  4  2  0  0  0  0
  8  4  1  0  0  0  0
 12  6  1  0  0  0  0
 17  3  1  0  0  0  0
 18  8  1  0  0  0  0
 19 10  1  0  0  0  0
 20 12  1  0  0  0  0
M  END
>  <HBA>
6

>  <HBD>
3

>  <TPSA>
111.9

>  <cid>
14925

>  <dipole>
5.77

>  <excitation_energy_1>
5.438

>  <excitation_energy_2>
5.553

>  <excitation_energy_3>
5.716

>  <excitation_energy_4>
5.909

>  <homo_energy>
-7.173

>  <homo_lumo_gap>
6.052

>  <logP>
-0.363

>  <lumo_energy>
-1.121

>  <melting_point>
204.91

>  <molecular_refractivity>
36.27

>  <oscillator_strength_1>
0.0012

>  <oscillator_strength_2>
0.0004

>  <oscillator_strength_3>
0.0005

>  <oscillator_strength_4>
0.0002

>  <open_babel_can_smiles>
OC(=O)C(CC(=O)O)CC(=O)O

>  <mulliken_charges>
20
1   -0.381385
2   -0.387035
3   -0.233137
4   0.600775
5   0.581242
6   0.619513
7   -0.491171
8   -0.538212
9   -0.456308
10   -0.583924
11   -0.481028
12   -0.571901
13   0.225099
14   0.222747
15   0.177654
16   0.184304
17   0.18493
18   0.427103
19   0.446916
20   0.453818

>  <lowdin_charges>
20
1   -0.306188
2   -0.31481
3   -0.166513
4   0.215133
5   0.185739
6   0.204282
7   -0.286255
8   -0.318569
9   -0.260906
10   -0.36431
11   -0.272355
12   -0.334991
13   0.198505
14   0.196663
15   0.172735
16   0.17479
17   0.174303
18   0.371911
19   0.363943
20   0.366894

$$$$

