PCCDB-ID:  7897
public computational chemistry database (PCCDB) project, http://pccdb.org

 14 13  0  0  1  0  0  0  0  0999 V2000
    0.7435    0.4335    0.3119 C   0  0  0  0  0  0  0  0  0  0  0  0
    2.5218   -0.8833   -0.9789 C   0  0  0  0  0  0  0  0  0  0  0  0
    1.9526   -0.8098   -2.3758 C   0  0  0  0  0  0  0  0  0  0  0  0
    2.2211    0.3383   -0.0865 C   0  0  1  0  0  0  0  0  0  0  0  0
    1.4677    0.1846   -2.8822 O   0  0  0  0  0  0  0  0  0  0  0  0
    2.6869    1.5351   -0.6954 O   0  0  0  0  0  0  0  0  0  0  0  0
    0.4201   -0.4586    0.8623 H   0  0  0  0  0  0  0  0  0  0  0  0
    0.1021    0.5446   -0.5691 H   0  0  0  0  0  0  0  0  0  0  0  0
    0.5948    1.3071    0.9539 H   0  0  0  0  0  0  0  0  0  0  0  0
    3.6111   -0.9968   -1.0989 H   0  0  0  0  0  0  0  0  0  0  0  0
    2.1771   -1.8199   -0.5168 H   0  0  0  0  0  0  0  0  0  0  0  0
    2.0180   -1.7514   -2.9644 H   0  0  0  0  0  0  0  0  0  0  0  0
    2.8190    0.2330    0.8266 H   0  0  0  0  0  0  0  0  0  0  0  0
    2.1972    1.6098   -1.5338 H   0  0  0  0  0  0  0  0  0  0  0  0
  1  7  1  0  0  0  0
  1  9  1  0  0  0  0
  2 11  1  0  0  0  0
  2  4  1  0  0  0  0
  3  2  1  0  0  0  0
  4  1  1  0  0  0  0
  4 13  1  1  0  0  0
  5  3  2  0  0  0  0
  6  4  1  0  0  0  0
  8  1  1  0  0  0  0
 10  2  1  0  0  0  0
 12  3  1  0  0  0  0
 14  6  1  0  0  0  0
M  END
>  <HBA>
2

>  <HBD>
1

>  <TPSA>
37.3

>  <cid>
7897

>  <dipole>
2.98

>  <excitation_energy_1>
4.245

>  <excitation_energy_2>
5.118

>  <excitation_energy_3>
6.491

>  <excitation_energy_4>
6.706

>  <homo_energy>
-7.037

>  <homo_lumo_gap>
5.997

>  <logP>
-0.044

>  <lumo_energy>
-1.039

>  <melting_point>
25.11

>  <molecular_refractivity>
22.7

>  <oscillator_strength_1>
0.0002

>  <oscillator_strength_2>
0.0007

>  <oscillator_strength_3>
0.0027

>  <oscillator_strength_4>
0.0339

>  <open_babel_can_smiles>
C[C@@H](CC=O)O

>  <mulliken_charges>
14
1   -0.465567
2   -0.361571
3   0.256539
4   0.145007
5   -0.39779
6   -0.638044
7   0.134451
8   0.157017
9   0.162684
10   0.18279
11   0.158104
12   0.121463
13   0.137418
14   0.407498

>  <lowdin_charges>
14
1   -0.467128
2   -0.33182
3   0.069618
4   0.006354
5   -0.230133
6   -0.471317
7   0.148576
8   0.155988
9   0.161972
10   0.177641
11   0.165686
12   0.126357
13   0.145377
14   0.342828

$$$$

