PCCDB-ID:  69797
public computational chemistry database (PCCDB) project, http://pccdb.org

 27 26  0  0  0  0  0  0  0  0999 V2000
    3.4903   -1.5988    0.0919 C   0  0  0  0  0  0  0  0  0  0  0  0
    2.7867    0.5546    1.2677 C   0  0  0  0  0  0  0  0  0  0  0  0
    1.7703   -0.4833   -2.9773 C   0  0  0  0  0  0  0  0  0  0  0  0
    1.0580    1.6582   -1.7896 C   0  0  0  0  0  0  0  0  0  0  0  0
    4.9871    1.7868   -2.4543 C   0  0  0  0  0  0  0  0  0  0  0  0
    2.7541   -0.2565   -0.0369 C   0  0  0  0  0  0  0  0  0  0  0  0
    2.2399    0.8055   -2.2817 C   0  0  0  0  0  0  0  0  0  0  0  0
    4.5185    0.9765   -1.2451 C   0  0  0  0  0  0  0  0  0  0  0  0
    3.2167    0.5347   -1.2081 N   0  0  0  0  0  0  0  0  0  0  0  0
    5.3147    0.7411   -0.3373 O   0  0  0  0  0  0  0  0  0  0  0  0
    3.0395   -2.1913    0.8969 H   0  0  0  0  0  0  0  0  0  0  0  0
    4.5451   -1.4394    0.3206 H   0  0  0  0  0  0  0  0  0  0  0  0
    3.4147   -2.1756   -0.8365 H   0  0  0  0  0  0  0  0  0  0  0  0
    2.3398   -0.0322    2.0791 H   0  0  0  0  0  0  0  0  0  0  0  0
    2.2133    1.4826    1.1653 H   0  0  0  0  0  0  0  0  0  0  0  0
    3.8132    0.8053    1.5395 H   0  0  0  0  0  0  0  0  0  0  0  0
    1.1062   -0.2380   -3.8140 H   0  0  0  0  0  0  0  0  0  0  0  0
    1.2141   -1.1385   -2.2979 H   0  0  0  0  0  0  0  0  0  0  0  0
    2.6235   -1.0461   -3.3703 H   0  0  0  0  0  0  0  0  0  0  0  0
    0.4075    1.9188   -2.6323 H   0  0  0  0  0  0  0  0  0  0  0  0
    1.4143    2.5861   -1.3304 H   0  0  0  0  0  0  0  0  0  0  0  0
    0.4443    1.1277   -1.0532 H   0  0  0  0  0  0  0  0  0  0  0  0
    4.8990    1.2284   -3.3932 H   0  0  0  0  0  0  0  0  0  0  0  0
    6.0384    2.0206   -2.2825 H   0  0  0  0  0  0  0  0  0  0  0  0
    4.4323    2.7253   -2.5670 H   0  0  0  0  0  0  0  0  0  0  0  0
    1.7049   -0.4830   -0.2496 H   0  0  0  0  0  0  0  0  0  0  0  0
    2.7630    1.3975   -3.0328 H   0  0  0  0  0  0  0  0  0  0  0  0
  1 12  1  0  0  0  0
  1 11  1  0  0  0  0
  2 16  1  0  0  0  0
  2 14  1  0  0  0  0
  3 18  1  0  0  0  0
  3  7  1  0  0  0  0
  4 21  1  0  0  0  0
  4 22  1  0  0  0  0
  5 24  1  0  0  0  0
  5  8  1  0  0  0  0
  6  1  1  0  0  0  0
  6  2  1  0  0  0  0
  7  4  1  0  0  0  0
  7  9  1  0  0  0  0
  8  9  1  0  0  0  0
  8 10  2  0  0  0  0
  9  6  1  0  0  0  0
 13  1  1  0  0  0  0
 15  2  1  0  0  0  0
 17  3  1  0  0  0  0
 19  3  1  0  0  0  0
 20  4  1  0  0  0  0
 23  5  1  0  0  0  0
 25  5  1  0  0  0  0
 26  6  1  0  0  0  0
 27  7  1  0  0  0  0
M  END
>  <HBA>
2

>  <HBD>
0

>  <TPSA>
20.31

>  <cid>
69797

>  <dipole>
3.69

>  <excitation_energy_1>
5.454

>  <excitation_energy_2>
5.655

>  <excitation_energy_3>
5.844

>  <excitation_energy_4>
6.088

>  <homo_energy>
-6.261

>  <homo_lumo_gap>
7.195

>  <logP>
1.652

>  <lumo_energy>
0.933

>  <melting_point>
-3.86

>  <molecular_refractivity>
43.67

>  <oscillator_strength_1>
0.0005

>  <oscillator_strength_2>
0.0049

>  <oscillator_strength_3>
0.0211

>  <oscillator_strength_4>
0.003

>  <open_babel_can_smiles>
CC(N(C(=O)C)C(C)C)C

>  <mulliken_charges>
27
1   -0.451359
2   -0.451569
3   -0.441006
4   -0.44148
5   -0.550913
6   0.040381
7   0.010659
8   0.584061
9   -0.407231
10   -0.519888
11   0.134932
12   0.190881
13   0.136823
14   0.135011
15   0.136783
16   0.190888
17   0.146948
18   0.152815
19   0.154386
20   0.147116
21   0.15483
22   0.152572
23   0.164929
24   0.185726
25   0.165416
26   0.129179
27   0.149109

>  <lowdin_charges>
27
1   -0.454507
2   -0.454945
3   -0.455901
4   -0.455074
5   -0.476643
6   -0.042058
7   -0.057171
8   0.163808
9   -0.110054
10   -0.324141
11   0.14929
12   0.171305
13   0.146875
14   0.149282
15   0.146748
16   0.171889
17   0.154887
18   0.153883
19   0.156371
20   0.155092
21   0.155932
22   0.153549
23   0.16333
24   0.176478
25   0.163809
26   0.139679
27   0.158285

$$$$

