PCCDB-ID:  44946
public computational chemistry database (PCCDB) project, http://pccdb.org

 13 12  0  0  0  0  0  0  0  0999 V2000
    0.9694   -0.0942   -0.1184 C   0  0  0  0  0  0  0  0  0  0  0  0
    3.1380   -0.6926    0.8557 C   0  0  0  0  0  0  0  0  0  0  0  0
    3.0885    1.0477   -0.8179 C   0  0  0  0  0  0  0  0  0  0  0  0
    2.3661    0.2739    0.0794 N   0  0  0  0  0  0  0  0  0  0  0  0
    4.2925    0.9953   -0.9405 O   0  0  0  0  0  0  0  0  0  0  0  0
    2.3666    1.9309   -1.5685 O   0  0  0  0  0  0  0  0  0  0  0  0
    0.8621   -0.9787   -0.7649 H   0  0  0  0  0  0  0  0  0  0  0  0
    0.3816    0.7139   -0.5609 H   0  0  0  0  0  0  0  0  0  0  0  0
    0.5189   -0.3236    0.8526 H   0  0  0  0  0  0  0  0  0  0  0  0
    2.6350   -0.8662    1.8128 H   0  0  0  0  0  0  0  0  0  0  0  0
    4.1343   -0.2908    1.0314 H   0  0  0  0  0  0  0  0  0  0  0  0
    3.2369   -1.6536    0.3298 H   0  0  0  0  0  0  0  0  0  0  0  0
    1.4800    2.0610   -1.1996 H   0  0  0  0  0  0  0  0  0  0  0  0
  1  4  1  0  0  0  0
  1  9  1  0  0  0  0
  2 11  1  0  0  0  0
  2 10  1  0  0  0  0
  3  4  1  0  0  0  0
  4  2  1  0  0  0  0
  5  3  2  0  0  0  0
  6 13  1  0  0  0  0
  6  3  1  0  0  0  0
  7  1  1  0  0  0  0
  8  1  1  0  0  0  0
 12  2  1  0  0  0  0
M  END
>  <HBA>
3

>  <HBD>
1

>  <TPSA>
40.54

>  <cid>
44946

>  <dipole>
4.96

>  <excitation_energy_1>
5.684

>  <excitation_energy_2>
6.401

>  <excitation_energy_3>
6.562

>  <excitation_energy_4>
6.742

>  <homo_energy>
-6.724

>  <homo_lumo_gap>
7.804

>  <logP>
0.226

>  <lumo_energy>
1.08

>  <melting_point>
65.56

>  <molecular_refractivity>
21.59

>  <oscillator_strength_1>
0.0096

>  <oscillator_strength_2>
0.0107

>  <oscillator_strength_3>
0.0171

>  <oscillator_strength_4>
0.0179

>  <open_babel_can_smiles>
CN(C(=O)O)C

>  <mulliken_charges>
13
1   -0.316874
2   -0.307668
3   0.734097
4   -0.430555
5   -0.483493
6   -0.588582
7   0.168547
8   0.142844
9   0.170772
10   0.149547
11   0.202012
12   0.154394
13   0.40496

>  <lowdin_charges>
13
1   -0.350741
2   -0.348141
3   0.201257
4   -0.14429
5   -0.283018
6   -0.369198
7   0.15119
8   0.150264
9   0.161118
10   0.150255
11   0.182604
12   0.145928
13   0.352771

$$$$

