PCCDB-ID:  68829
public computational chemistry database (PCCDB) project, http://pccdb.org

 29 29  0  0  1  0  0  0  0  0999 V2000
    5.4100    0.7173    1.1685 C   0  0  0  0  0  0  0  0  0  0  0  0
    2.0800    3.2526    0.2555 C   0  0  0  0  0  0  0  0  0  0  0  0
    2.8629    4.9738    4.0350 C   0  0  0  0  0  0  0  0  0  0  0  0
    2.6652    4.4534    2.8024 C   0  0  0  0  0  0  0  0  0  0  0  0
    2.8631    1.0567    1.1133 C   0  0  0  0  0  0  0  0  0  0  0  0
    4.1142    0.5412    0.3791 C   0  0  1  0  0  0  0  0  0  0  0  0
    3.4240    4.1580    5.0983 C   0  0  0  0  0  0  0  0  0  0  0  0
    3.0111    3.0694    2.5319 C   0  0  0  0  0  0  0  0  0  0  0  0
    3.3477    5.8601    6.6126 N   0  0  0  0  0  0  0  0  0  0  0  0
    3.6896    4.4701    6.3319 N   0  0  0  0  0  0  0  0  0  0  0  0
    3.7005    2.8642    4.6928 N   0  0  0  0  0  0  0  0  0  0  0  0
    3.5160    2.3080    3.4713 N   0  0  0  0  0  0  0  0  0  0  0  0
    2.8408    2.5183    1.2608 N   0  0  0  0  0  0  0  0  0  0  0  0
    4.2186    1.1399   -0.9175 O   0  0  0  0  0  0  0  0  0  0  0  0
    5.3661    0.1924    2.1282 H   0  0  0  0  0  0  0  0  0  0  0  0
    5.5907    1.7772    1.3845 H   0  0  0  0  0  0  0  0  0  0  0  0
    6.2544    0.3304    0.5889 H   0  0  0  0  0  0  0  0  0  0  0  0
    2.1292    2.6913   -0.6781 H   0  0  0  0  0  0  0  0  0  0  0  0
    2.5187    4.2380    0.0659 H   0  0  0  0  0  0  0  0  0  0  0  0
    1.0202    3.3904    0.5269 H   0  0  0  0  0  0  0  0  0  0  0  0
    2.6163    5.9972    4.2873 H   0  0  0  0  0  0  0  0  0  0  0  0
    2.2372    5.0707    2.0216 H   0  0  0  0  0  0  0  0  0  0  0  0
    2.7959    0.5982    2.1032 H   0  0  0  0  0  0  0  0  0  0  0  0
    1.9789    0.7571    0.5375 H   0  0  0  0  0  0  0  0  0  0  0  0
    3.9547   -0.5260    0.1799 H   0  0  0  0  0  0  0  0  0  0  0  0
    4.2048    6.2602    7.0012 H   0  0  0  0  0  0  0  0  0  0  0  0
    2.7211    5.8115    7.4194 H   0  0  0  0  0  0  0  0  0  0  0  0
    4.0967    2.2403    5.3831 H   0  0  0  0  0  0  0  0  0  0  0  0
    4.4970    2.0581   -0.7661 H   0  0  0  0  0  0  0  0  0  0  0  0
  1 16  1  0  0  0  0
  1 15  1  0  0  0  0
  2 20  1  0  0  0  0
  2 13  1  0  0  0  0
  3 21  1  0  0  0  0
  3  7  2  0  0  0  0
  4  3  1  0  0  0  0
  5 13  1  0  0  0  0
  5 23  1  0  0  0  0
  6 25  1  6  0  0  0
  6  5  1  0  0  0  0
  6  1  1  0  0  0  0
  7 10  1  0  0  0  0
  8  4  1  0  0  0  0
  8 12  2  0  0  0  0
  9 26  1  0  0  0  0
  9 27  1  0  0  0  0
 10  9  1  0  0  0  0
 11  7  1  0  0  0  0
 11 28  1  0  0  0  0
 12 11  1  0  0  0  0
 13  8  1  0  0  0  0
 14 29  1  0  0  0  0
 14  6  1  0  0  0  0
 17  1  1  0  0  0  0
 18  2  1  0  0  0  0
 19  2  1  0  0  0  0
 22  4  1  0  0  0  0
 24  5  1  0  0  0  0
M  RAD  2   4   2  10   2
M  END
>  <HBA>
6

>  <HBD>
3

>  <TPSA>
87.3

>  <cid>
68829

>  <dipole>
1.49

>  <excitation_energy_1>
2.965

>  <excitation_energy_2>
3.297

>  <excitation_energy_3>
4.297

>  <excitation_energy_4>
4.426

>  <homo_energy>
-4.814

>  <homo_lumo_gap>
3.535

>  <logP>
0.352

>  <lumo_energy>
-1.279

>  <melting_point>
151.43

>  <molecular_refractivity>
54.22

>  <oscillator_strength_1>
0.0224

>  <oscillator_strength_2>
0.0002

>  <oscillator_strength_3>
0.0107

>  <oscillator_strength_4>
0.0285

>  <open_babel_can_smiles>
CN(C1=NNC(=C[CH]1)[N]N)C[C@@H](O)C

>  <mulliken_charges>
29
1   -0.459214
2   -0.333198
3   -0.156112
4   -0.155494
5   -0.151294
6   0.137276
7   0.589616
8   0.524095
9   -0.61203
10   -0.500075
11   -0.487507
12   -0.358329
13   -0.482461
14   -0.624803
15   0.152658
16   0.148207
17   0.152414
18   0.18512
19   0.157894
20   0.14923
21   0.17917
22   0.147716
23   0.17378
24   0.144196
25   0.133787
26   0.306254
27   0.305983
28   0.343615
29   0.389507

>  <lowdin_charges>
29
1   -0.459882
2   -0.360046
3   -0.143787
4   -0.172501
5   -0.213656
6   -0.003104
7   0.063623
8   0.058968
9   -0.486555
10   -0.264656
11   -0.152294
12   -0.15128
13   -0.132184
14   -0.466847
15   0.158703
16   0.150663
17   0.155795
18   0.170363
19   0.150868
20   0.138585
21   0.187172
22   0.172343
23   0.166635
24   0.14919
25   0.141441
26   0.25414
27   0.253422
28   0.296536
29   0.338346

$$$$

