PCCDB-ID:  34235
public computational chemistry database (PCCDB) project, http://pccdb.org

 24 25  0  0  1  0  0  0  0  0999 V2000
    0.9308   -0.0145    0.6324 C   0  0  0  0  0  0  0  0  0  0  0  0
    1.1144   -3.0442   -2.9678 C   0  0  0  0  0  0  0  0  0  0  0  0
    2.0841    0.6439   -2.8413 C   0  0  0  0  0  0  0  0  0  0  0  0
    2.4167    0.7164   -1.3404 C   0  0  0  0  0  0  0  0  0  0  0  0
    2.2708   -0.7776   -3.4013 C   0  0  0  0  0  0  0  0  0  0  0  0
    2.7561   -1.5848   -0.2833 C   0  0  0  0  0  0  0  0  0  0  0  0
    1.7453   -0.4635   -0.5684 C   0  0  1  0  0  0  0  0  0  0  0  0
    1.7715   -1.8172   -2.3658 C   0  0  2  0  0  0  0  0  0  0  0  0
    2.8951   -2.2253   -1.5483 O   0  0  0  0  0  0  0  0  0  0  0  0
    0.8679   -1.1849   -1.4672 O   0  0  0  0  0  0  0  0  0  0  0  0
    1.5749    0.4858    1.3648 H   0  0  0  0  0  0  0  0  0  0  0  0
    0.4460   -0.8684    1.1158 H   0  0  0  0  0  0  0  0  0  0  0  0
    0.1544    0.6940    0.3248 H   0  0  0  0  0  0  0  0  0  0  0  0
    1.8169   -3.5513   -3.6368 H   0  0  0  0  0  0  0  0  0  0  0  0
    0.2263   -2.7609   -3.5415 H   0  0  0  0  0  0  0  0  0  0  0  0
    0.8226   -3.7335   -2.1711 H   0  0  0  0  0  0  0  0  0  0  0  0
    2.6941    1.3636   -3.3991 H   0  0  0  0  0  0  0  0  0  0  0  0
    1.0384    0.9386   -2.9802 H   0  0  0  0  0  0  0  0  0  0  0  0
    2.0744    1.6757   -0.9346 H   0  0  0  0  0  0  0  0  0  0  0  0
    3.5034    0.6841   -1.1934 H   0  0  0  0  0  0  0  0  0  0  0  0
    3.3235   -0.9917   -3.6151 H   0  0  0  0  0  0  0  0  0  0  0  0
    1.7183   -0.8814   -4.3432 H   0  0  0  0  0  0  0  0  0  0  0  0
    2.3590   -2.2866    0.4642 H   0  0  0  0  0  0  0  0  0  0  0  0
    3.7350   -1.2237    0.0496 H   0  0  0  0  0  0  0  0  0  0  0  0
  1 12  1  0  0  0  0
  1 11  1  0  0  0  0
  2 16  1  0  0  0  0
  3  4  1  0  0  0  0
  4 20  1  0  0  0  0
  4 19  1  0  0  0  0
  4  7  1  0  0  0  0
  5  3  1  0  0  0  0
  5  8  1  0  0  0  0
  6 24  1  0  0  0  0
  6 23  1  0  0  0  0
  7  6  1  0  0  0  0
  7  1  1  1  0  0  0
  8  2  1  6  0  0  0
  8  9  1  0  0  0  0
  8 10  1  0  0  0  0
  9  6  1  0  0  0  0
 10  7  1  0  0  0  0
 13  1  1  0  0  0  0
 14  2  1  0  0  0  0
 15  2  1  0  0  0  0
 17  3  1  0  0  0  0
 18  3  1  0  0  0  0
 21  5  1  0  0  0  0
 22  5  1  0  0  0  0
M  END
>  <HBA>
2

>  <HBD>
0

>  <TPSA>
18.46

>  <cid>
34235

>  <dipole>
1.29

>  <excitation_energy_1>
6.265

>  <excitation_energy_2>
6.627

>  <excitation_energy_3>
6.685

>  <excitation_energy_4>
6.836

>  <homo_energy>
-6.642

>  <homo_lumo_gap>
8.806

>  <logP>
1.692

>  <lumo_energy>
2.163

>  <melting_point>
21.41

>  <molecular_refractivity>
38.59

>  <oscillator_strength_1>
0.0004

>  <oscillator_strength_2>
0.0131

>  <oscillator_strength_3>
0.0039

>  <oscillator_strength_4>
0.0186

>  <open_babel_can_smiles>
C[C@]12CCC[C@@](O2)(CO1)C

>  <mulliken_charges>
24
1   -0.483238
2   -0.471644
3   -0.261106
4   -0.310111
5   -0.289624
6   -0.01391
7   0.29794
8   0.545142
9   -0.524324
10   -0.528712
11   0.147867
12   0.157113
13   0.159435
14   0.155137
15   0.150696
16   0.158584
17   0.134116
18   0.148253
19   0.139321
20   0.141531
21   0.150254
22   0.13417
23   0.128532
24   0.134577

>  <lowdin_charges>
24
1   -0.447056
2   -0.449858
3   -0.273408
4   -0.292503
5   -0.300499
6   -0.143395
7   0.10863
8   0.216227
9   -0.286476
10   -0.262953
11   0.157131
12   0.159561
13   0.161021
14   0.162644
15   0.158881
16   0.163195
17   0.148547
18   0.146974
19   0.148714
20   0.145134
21   0.152781
22   0.147368
23   0.136168
24   0.143174

$$$$

