PCCDB-ID:  19753
public computational chemistry database (PCCDB) project, http://pccdb.org

 27 28  0  0  0  0  0  0  0  0999 V2000
    0.7834    0.2150   -0.0566 C   0  0  0  0  0  0  0  0  0  0  0  0
    4.6679   -3.7872    0.0462 C   0  0  0  0  0  0  0  0  0  0  0  0
    2.0907   -2.3546    0.3193 C   0  0  0  0  0  0  0  0  0  0  0  0
    7.2581   -1.0261    0.2858 C   0  0  0  0  0  0  0  0  0  0  0  0
    6.5826   -2.2621    0.2398 C   0  0  0  0  0  0  0  0  0  0  0  0
    6.5279    0.1308    0.2195 C   0  0  0  0  0  0  0  0  0  0  0  0
    3.0334    1.3149   -0.0471 C   0  0  0  0  0  0  0  0  0  0  0  0
    4.3988    1.3086    0.0402 C   0  0  0  0  0  0  0  0  0  0  0  0
    2.2949    0.1080    0.0124 C   0  0  0  0  0  0  0  0  0  0  0  0
    5.2034   -2.3713    0.1678 C   0  0  0  0  0  0  0  0  0  0  0  0
    2.9521   -1.1169    0.1448 C   0  0  0  0  0  0  0  0  0  0  0  0
    5.1109    0.0883    0.1413 C   0  0  0  0  0  0  0  0  0  0  0  0
    4.3979   -1.1672    0.1557 C   0  0  0  0  0  0  0  0  0  0  0  0
    0.4855    1.2434   -0.2823 H   0  0  0  0  0  0  0  0  0  0  0  0
    0.3016   -0.0597    0.8911 H   0  0  0  0  0  0  0  0  0  0  0  0
    0.3548   -0.4288   -0.8334 H   0  0  0  0  0  0  0  0  0  0  0  0
    5.4981   -4.4713   -0.1534 H   0  0  0  0  0  0  0  0  0  0  0  0
    3.9542   -3.8980   -0.7743 H   0  0  0  0  0  0  0  0  0  0  0  0
    4.1759   -4.1432    0.9582 H   0  0  0  0  0  0  0  0  0  0  0  0
    1.0768   -2.0830    0.6162 H   0  0  0  0  0  0  0  0  0  0  0  0
    2.4772   -3.0141    1.0970 H   0  0  0  0  0  0  0  0  0  0  0  0
    2.0027   -2.9471   -0.6000 H   0  0  0  0  0  0  0  0  0  0  0  0
    8.3426   -1.0018    0.3487 H   0  0  0  0  0  0  0  0  0  0  0  0
    7.1725   -3.1755    0.2432 H   0  0  0  0  0  0  0  0  0  0  0  0
    7.0158    1.1025    0.2206 H   0  0  0  0  0  0  0  0  0  0  0  0
    2.4971    2.2558   -0.1433 H   0  0  0  0  0  0  0  0  0  0  0  0
    4.9605    2.2394    0.0234 H   0  0  0  0  0  0  0  0  0  0  0  0
  1  9  1  0  0  0  0
  1 15  1  0  0  0  0
  2 10  1  0  0  0  0
  2 19  1  0  0  0  0
  3 20  1  0  0  0  0
  3 21  1  0  0  0  0
  4 23  1  0  0  0  0
  5 24  1  0  0  0  0
  5  4  1  0  0  0  0
  6 25  1  0  0  0  0
  6  4  2  0  0  0  0
  7  9  2  0  0  0  0
  7  8  1  0  0  0  0
  8 12  2  0  0  0  0
  9 11  1  0  0  0  0
 10  5  2  0  0  0  0
 11 13  2  0  0  0  0
 11  3  1  0  0  0  0
 12 13  1  0  0  0  0
 12  6  1  0  0  0  0
 13 10  1  0  0  0  0
 14  1  1  0  0  0  0
 16  1  1  0  0  0  0
 17  2  1  0  0  0  0
 18  2  1  0  0  0  0
 22  3  1  0  0  0  0
 26  7  1  0  0  0  0
 27  8  1  0  0  0  0
M  END
>  <HBA>
0

>  <HBD>
0

>  <TPSA>
0.0

>  <cid>
19753

>  <dipole>
0.75

>  <excitation_energy_1>
4.151

>  <excitation_energy_2>
4.311

>  <excitation_energy_3>
5.119

>  <excitation_energy_4>
5.284

>  <homo_energy>
-5.396

>  <homo_lumo_gap>
4.61

>  <logP>
3.765

>  <lumo_energy>
-0.786

>  <melting_point>
62.17

>  <molecular_refractivity>
58.85

>  <oscillator_strength_1>
0.0794

>  <oscillator_strength_2>
0.0089

>  <oscillator_strength_3>
0.0013

>  <oscillator_strength_4>
0.0234

>  <open_babel_can_smiles>
Cc1ccc2c(c1C)c(C)ccc2

>  <mulliken_charges>
27
1   -0.544073
2   -0.533764
3   -0.536321
4   -0.12916
5   -0.195197
6   -0.195515
7   -0.184089
8   -0.194037
9   0.128263
10   0.116498
11   0.047464
12   0.137602
13   0.036523
14   0.154205
15   0.163517
16   0.161439
17   0.153062
18   0.161285
19   0.160484
20   0.155654
21   0.162224
22   0.159238
23   0.126136
24   0.117746
25   0.125309
26   0.120215
27   0.125289

>  <lowdin_charges>
27
1   -0.445703
2   -0.442922
3   -0.447387
4   -0.159861
5   -0.173413
6   -0.160678
7   -0.168536
8   -0.161263
9   -0.013066
10   -0.003329
11   -0.01327
12   0.001564
13   -0.012896
14   0.155203
15   0.158834
16   0.159667
17   0.156104
18   0.159919
19   0.157317
20   0.159383
21   0.163005
22   0.157923
23   0.154906
24   0.153037
25   0.155316
26   0.154041
27   0.156103

$$$$

