PCCDB-ID:  26524
public computational chemistry database (PCCDB) project, http://pccdb.org

 13 12  0  0  0  0  0  0  0  0999 V2000
    1.2719    0.1520   -0.0925 C   0  0  0  0  0  0  0  0  0  0  0  0
    0.4117    1.2926   -0.3085 N   0  0  0  0  0  0  0  0  0  0  0  0
    2.0597    0.3933    1.1221 N   0  0  0  0  0  0  0  0  0  0  0  0
   -0.9079    1.2299    0.1617 N   0  0  0  0  0  0  0  0  0  0  0  0
    3.1811   -0.3917    1.2949 N   0  0  0  0  0  0  0  0  0  0  0  0
   -1.1420    0.4235    1.0491 O   0  0  0  0  0  0  0  0  0  0  0  0
   -1.6789    2.0305   -0.3516 O   0  0  0  0  0  0  0  0  0  0  0  0
    3.2085   -1.4472    0.6620 O   0  0  0  0  0  0  0  0  0  0  0  0
    4.0211    0.0226    2.0859 O   0  0  0  0  0  0  0  0  0  0  0  0
    1.9224    0.0443   -0.9674 H   0  0  0  0  0  0  0  0  0  0  0  0
    0.6933   -0.7638    0.0379 H   0  0  0  0  0  0  0  0  0  0  0  0
    0.4162    1.7534   -1.2108 H   0  0  0  0  0  0  0  0  0  0  0  0
    2.2539    1.3569    1.3743 H   0  0  0  0  0  0  0  0  0  0  0  0
  1 11  1  0  0  0  0
  1  3  1  0  0  0  0
  2  1  1  0  0  0  0
  2  4  1  0  0  0  0
  3  5  1  0  0  0  0
  3 13  1  0  0  0  0
  4  6  2  0  0  0  0
  5  9  2  0  0  0  0
  7  4  2  0  0  0  0
  8  5  2  0  0  0  0
 10  1  1  0  0  0  0
 12  2  1  0  0  0  0
M  END
>  <HBA>
2

>  <HBD>
2

>  <TPSA>
115.7

>  <cid>
26524

>  <dipole>
3.88

>  <excitation_energy_1>
4.614

>  <excitation_energy_2>
4.635

>  <excitation_energy_3>
5.285

>  <excitation_energy_4>
5.336

>  <homo_energy>
-8.332

>  <homo_lumo_gap>
6.275

>  <logP>
0.335

>  <lumo_energy>
-2.057

>  <melting_point>
92.63

>  <molecular_refractivity>
28.73

>  <oscillator_strength_1>
0.0001

>  <oscillator_strength_2>
0.0

>  <oscillator_strength_3>
0.0016

>  <oscillator_strength_4>
0.0041

>  <open_babel_can_smiles>
O=N(=O)NCNN(=O)=O

>  <mulliken_charges>
13
1   0.006114
2   -0.427906
3   -0.379838
4   0.626583
5   0.619954
6   -0.382029
7   -0.395154
8   -0.408701
9   -0.406094
10   0.193482
11   0.229438
12   0.364669
13   0.359482

>  <lowdin_charges>
13
1   -0.136207
2   -0.250295
3   -0.241221
4   0.3422
5   0.337586
6   -0.23606
7   -0.25001
8   -0.265798
9   -0.25891
10   0.170951
11   0.187217
12   0.302241
13   0.298305

$$$$

