PCCDB-ID:  15559
public computational chemistry database (PCCDB) project, http://pccdb.org

 21 20  0  0  0  0  0  0  0  0999 V2000
    4.5037    1.4153   -0.1090 C   0  0  0  0  0  0  0  0  0  0  0  0
   -1.7737    0.1184   -0.0001 C   0  0  0  0  0  0  0  0  0  0  0  0
    3.7479    0.8876    1.1090 C   0  0  0  0  0  0  0  0  0  0  0  0
   -0.0908    0.6163    1.9063 C   0  0  0  0  0  0  0  0  0  0  0  0
    1.4079    0.4718    2.1561 C   0  0  0  0  0  0  0  0  0  0  0  0
   -0.5821   -0.3374    0.8154 C   0  0  0  0  0  0  0  0  0  0  0  0
    2.2340    0.9884    0.9814 C   0  0  0  0  0  0  0  0  0  0  0  0
   -0.0418   -1.4121    0.6305 O   0  0  0  0  0  0  0  0  0  0  0  0
    1.7001    1.4547   -0.0097 O   0  0  0  0  0  0  0  0  0  0  0  0
    5.5845    1.3156    0.0351 H   0  0  0  0  0  0  0  0  0  0  0  0
    4.2739    2.4703   -0.2862 H   0  0  0  0  0  0  0  0  0  0  0  0
    4.2217    0.8648   -1.0112 H   0  0  0  0  0  0  0  0  0  0  0  0
   -2.5706    0.5119    0.6427 H   0  0  0  0  0  0  0  0  0  0  0  0
   -2.1528   -0.7047   -0.6092 H   0  0  0  0  0  0  0  0  0  0  0  0
   -1.4515    0.9377   -0.6554 H   0  0  0  0  0  0  0  0  0  0  0  0
    4.0474    1.4218    2.0232 H   0  0  0  0  0  0  0  0  0  0  0  0
    3.9960   -0.1665    1.3017 H   0  0  0  0  0  0  0  0  0  0  0  0
   -0.3466    1.6473    1.6426 H   0  0  0  0  0  0  0  0  0  0  0  0
   -0.6490    0.3709    2.8216 H   0  0  0  0  0  0  0  0  0  0  0  0
    1.6568   -0.5853    2.3119 H   0  0  0  0  0  0  0  0  0  0  0  0
    1.7142    1.0029    3.0675 H   0  0  0  0  0  0  0  0  0  0  0  0
  1 10  1  0  0  0  0
  1  3  1  0  0  0  0
  2 13  1  0  0  0  0
  2  6  1  0  0  0  0
  3 17  1  0  0  0  0
  3 16  1  0  0  0  0
  4  5  1  0  0  0  0
  4 19  1  0  0  0  0
  5 20  1  0  0  0  0
  5 21  1  0  0  0  0
  6  4  1  0  0  0  0
  7  3  1  0  0  0  0
  7  5  1  0  0  0  0
  8  6  2  0  0  0  0
  9  7  2  0  0  0  0
 11  1  1  0  0  0  0
 12  1  1  0  0  0  0
 14  2  1  0  0  0  0
 15  2  1  0  0  0  0
 18  4  1  0  0  0  0
M  END
>  <HBA>
2

>  <HBD>
0

>  <TPSA>
34.14

>  <cid>
15559

>  <dipole>
2.79

>  <excitation_energy_1>
4.508

>  <excitation_energy_2>
4.522

>  <excitation_energy_3>
5.362

>  <excitation_energy_4>
5.648

>  <homo_energy>
-6.582

>  <homo_lumo_gap>
6.231

>  <logP>
1.335

>  <lumo_energy>
-0.351

>  <melting_point>
15.55

>  <molecular_refractivity>
36.16

>  <oscillator_strength_1>
0.0

>  <oscillator_strength_2>
0.0001

>  <oscillator_strength_3>
0.0004

>  <oscillator_strength_4>
0.0186

>  <open_babel_can_smiles>
CCC(=O)CCC(=O)C

>  <mulliken_charges>
21
1   -0.434044
2   -0.535686
3   -0.351902
4   -0.348112
5   -0.358075
6   0.478031
7   0.470303
8   -0.452463
9   -0.453569
10   0.140932
11   0.159065
12   0.164847
13   0.159057
14   0.175921
15   0.191671
16   0.156969
17   0.166971
18   0.163081
19   0.162454
20   0.188214
21   0.156335

>  <lowdin_charges>
21
1   -0.43706
2   -0.476739
3   -0.306087
4   -0.308229
5   -0.310351
6   0.175024
7   0.171647
8   -0.246129
9   -0.242182
10   0.149121
11   0.156543
12   0.161148
13   0.165067
14   0.171871
15   0.1834
16   0.160338
17   0.163941
18   0.161629
19   0.168112
20   0.1763
21   0.162636

$$$$

