PCCDB-ID:  69396
public computational chemistry database (PCCDB) project, http://pccdb.org

 19 18  0  0  0  0  0  0  0  0999 V2000
    1.0283   -0.4014    0.3526 C   0  0  0  0  0  0  0  0  0  0  0  0
    3.0207   -1.4278   -0.8161 C   0  0  0  0  0  0  0  0  0  0  0  0
    2.9195    1.0728   -0.5479 C   0  0  0  0  0  0  0  0  0  0  0  0
    2.6321    2.2735    0.3595 C   0  0  0  0  0  0  0  0  0  0  0  0
    2.5363   -0.2810    0.0839 C   0  0  0  0  0  0  0  0  0  0  0  0
    3.1138    3.5313   -0.3134 N   0  0  0  0  0  0  0  0  0  0  0  0
    4.2455    3.9210   -0.0386 O   0  0  0  0  0  0  0  0  0  0  0  0
    2.3544    4.0544   -1.1251 O   0  0  0  0  0  0  0  0  0  0  0  0
    0.7894   -1.3818    0.7797 H   0  0  0  0  0  0  0  0  0  0  0  0
    0.4560   -0.2957   -0.5780 H   0  0  0  0  0  0  0  0  0  0  0  0
    0.6662    0.3565    1.0564 H   0  0  0  0  0  0  0  0  0  0  0  0
    2.7898   -2.4012   -0.3688 H   0  0  0  0  0  0  0  0  0  0  0  0
    4.1037   -1.3803   -0.9782 H   0  0  0  0  0  0  0  0  0  0  0  0
    2.5325   -1.3881   -1.7982 H   0  0  0  0  0  0  0  0  0  0  0  0
    3.9912    1.0723   -0.7828 H   0  0  0  0  0  0  0  0  0  0  0  0
    2.3795    1.2092   -1.4936 H   0  0  0  0  0  0  0  0  0  0  0  0
    3.1724    2.2089    1.3053 H   0  0  0  0  0  0  0  0  0  0  0  0
    1.5655    2.4192    0.5311 H   0  0  0  0  0  0  0  0  0  0  0  0
    3.0636   -0.3625    1.0467 H   0  0  0  0  0  0  0  0  0  0  0  0
  1  9  1  0  0  0  0
  1 11  1  0  0  0  0
  2 12  1  0  0  0  0
  2  5  1  0  0  0  0
  3  5  1  0  0  0  0
  3  4  1  0  0  0  0
  4 18  1  0  0  0  0
  4 17  1  0  0  0  0
  5  1  1  0  0  0  0
  5 19  1  0  0  0  0
  6  7  2  0  0  0  0
  6  4  1  0  0  0  0
  8  6  2  0  0  0  0
 10  1  1  0  0  0  0
 13  2  1  0  0  0  0
 14  2  1  0  0  0  0
 15  3  1  0  0  0  0
 16  3  1  0  0  0  0
M  END
>  <HBA>
0

>  <HBD>
0

>  <TPSA>
45.82

>  <cid>
69396

>  <dipole>
4.04

>  <excitation_energy_1>
4.091

>  <excitation_energy_2>
4.418

>  <excitation_energy_3>
6.424

>  <excitation_energy_4>
6.548

>  <homo_energy>
-7.837

>  <homo_lumo_gap>
6.109

>  <logP>
1.832

>  <lumo_energy>
-1.728

>  <melting_point>
4.86

>  <molecular_refractivity>
34.25

>  <oscillator_strength_1>
0.0

>  <oscillator_strength_2>
0.0012

>  <oscillator_strength_3>
0.01

>  <oscillator_strength_4>
0.0081

>  <open_babel_can_smiles>
CC(CCN(=O)=O)C

>  <mulliken_charges>
19
1   -0.450605
2   -0.444897
3   -0.271022
4   -0.157112
5   -0.076503
6   0.445069
7   -0.379243
8   -0.379423
9   0.151413
10   0.149121
11   0.144245
12   0.148336
13   0.148054
14   0.146873
15   0.162041
16   0.163398
17   0.182649
18   0.187111
19   0.130494

>  <lowdin_charges>
19
1   -0.449137
2   -0.440016
3   -0.276427
4   -0.217751
5   -0.118589
6   0.297942
7   -0.246459
8   -0.250105
9   0.154638
10   0.151092
11   0.148899
12   0.152604
13   0.150001
14   0.149552
15   0.155962
16   0.156885
17   0.17097
18   0.171245
19   0.138694

$$$$

