PCCDB-ID:  14490
public computational chemistry database (PCCDB) project, http://pccdb.org

 21 20  0  0  0  0  0  0  0  0999 V2000
    1.2142    0.0682   -0.0621 C   0  0  0  0  0  0  0  0  0  0  0  0
    0.8551   -1.4126   -0.2420 C   0  0  0  0  0  0  0  0  0  0  0  0
    2.6933    0.2846    0.2799 C   0  0  0  0  0  0  0  0  0  0  0  0
   -0.6218   -1.6506   -0.5745 C   0  0  0  0  0  0  0  0  0  0  0  0
    3.0583    1.7600    0.4544 C   0  0  0  0  0  0  0  0  0  0  0  0
   -1.5587   -1.3972    0.6034 C   0  0  0  0  0  0  0  0  0  0  0  0
    4.4425    1.9621    0.7175 O   0  0  0  0  0  0  0  0  0  0  0  0
   -1.2043   -1.1802    1.7348 O   0  0  0  0  0  0  0  0  0  0  0  0
   -2.8883   -1.4544    0.3103 O   0  0  0  0  0  0  0  0  0  0  0  0
    0.5873    0.4940    0.7307 H   0  0  0  0  0  0  0  0  0  0  0  0
    0.9722    0.6146   -0.9866 H   0  0  0  0  0  0  0  0  0  0  0  0
    1.0982   -1.9627    0.6744 H   0  0  0  0  0  0  0  0  0  0  0  0
    1.4663   -1.8423   -1.0462 H   0  0  0  0  0  0  0  0  0  0  0  0
    3.3342   -0.1406   -0.5042 H   0  0  0  0  0  0  0  0  0  0  0  0
    2.9334   -0.2559    1.2085 H   0  0  0  0  0  0  0  0  0  0  0  0
   -0.7788   -2.6903   -0.8977 H   0  0  0  0  0  0  0  0  0  0  0  0
   -0.9338   -1.0196   -1.4201 H   0  0  0  0  0  0  0  0  0  0  0  0
    2.4328    2.2129    1.2418 H   0  0  0  0  0  0  0  0  0  0  0  0
    2.8565    2.3104   -0.4715 H   0  0  0  0  0  0  0  0  0  0  0  0
    4.6420    1.5337    1.5645 H   0  0  0  0  0  0  0  0  0  0  0  0
   -3.0124   -1.6345   -0.6364 H   0  0  0  0  0  0  0  0  0  0  0  0
  1  3  1  0  0  0  0
  1 10  1  0  0  0  0
  2  1  1  0  0  0  0
  2 12  1  0  0  0  0
  3  5  1  0  0  0  0
  3 15  1  0  0  0  0
  4  2  1  0  0  0  0
  4  6  1  0  0  0  0
  5  7  1  0  0  0  0
  5 18  1  0  0  0  0
  6  8  2  0  0  0  0
  7 20  1  0  0  0  0
  9  6  1  0  0  0  0
 11  1  1  0  0  0  0
 13  2  1  0  0  0  0
 14  3  1  0  0  0  0
 16  4  1  0  0  0  0
 17  4  1  0  0  0  0
 19  5  1  0  0  0  0
 21  9  1  0  0  0  0
M  END
>  <HBA>
3

>  <HBD>
2

>  <TPSA>
57.53

>  <cid>
14490

>  <dipole>
3.53

>  <excitation_energy_1>
5.726

>  <excitation_energy_2>
6.435

>  <excitation_energy_3>
6.471

>  <excitation_energy_4>
6.513

>  <homo_energy>
-7.097

>  <homo_lumo_gap>
7.285

>  <logP>
0.624

>  <lumo_energy>
0.188

>  <melting_point>
69.21

>  <molecular_refractivity>
33.89

>  <oscillator_strength_1>
0.0005

>  <oscillator_strength_2>
0.0144

>  <oscillator_strength_3>
0.0127

>  <oscillator_strength_4>
0.0015

>  <open_babel_can_smiles>
OCCCCCC(=O)O

>  <mulliken_charges>
21
1   -0.269078
2   -0.246375
3   -0.278285
4   -0.40732
5   -0.028234
6   0.609619
7   -0.615699
8   -0.43876
9   -0.565845
10   0.161367
11   0.124855
12   0.160844
13   0.133908
14   0.142201
15   0.127012
16   0.172469
17   0.157148
18   0.122273
19   0.142814
20   0.386155
21   0.40893

>  <lowdin_charges>
21
1   -0.28056
2   -0.270522
3   -0.293651
4   -0.323841
5   -0.136117
6   0.195953
7   -0.468653
8   -0.23859
9   -0.357307
10   0.155215
11   0.136142
12   0.157957
13   0.14668
14   0.146599
15   0.137919
16   0.167004
17   0.157913
18   0.127444
19   0.144592
20   0.339993
21   0.355829

$$$$

