PCCDB-ID:  72966
public computational chemistry database (PCCDB) project, http://pccdb.org

 16 16  0  0  0  0  0  0  0  0999 V2000
   -0.6764    1.1312    0.0990 C   0  0  0  0  0  0  0  0  0  0  0  0
    1.3924   -0.0421   -0.1432 C   0  0  0  0  0  0  0  0  0  0  0  0
   -1.3438   -0.0730    0.1242 C   0  0  0  0  0  0  0  0  0  0  0  0
    0.7014   -1.2367   -0.1078 C   0  0  0  0  0  0  0  0  0  0  0  0
    0.7169    1.1829   -0.0508 C   0  0  0  0  0  0  0  0  0  0  0  0
    1.3738    2.5264   -0.0719 C   0  0  0  0  0  0  0  0  0  0  0  0
    2.6820    2.5623   -0.5003 N   0  0  0  0  0  0  0  0  0  0  0  0
   -0.6678   -1.2685    0.0163 N   0  3  0  0  0  0  0  0  0  0  0  0
    0.7858    3.5338    0.3018 O   0  0  0  0  0  0  0  0  0  0  0  0
   -1.2929   -2.3739    0.0370 O   0  5  0  0  0  0  0  0  0  0  0  0
   -1.2308    2.0581    0.1966 H   0  0  0  0  0  0  0  0  0  0  0  0
    2.4748   -0.0892   -0.2113 H   0  0  0  0  0  0  0  0  0  0  0  0
   -2.4142   -0.1898    0.2271 H   0  0  0  0  0  0  0  0  0  0  0  0
    1.1544   -2.2171   -0.1652 H   0  0  0  0  0  0  0  0  0  0  0  0
    3.0290    1.8559   -1.1335 H   0  0  0  0  0  0  0  0  0  0  0  0
    3.0619    3.4918   -0.6256 H   0  0  0  0  0  0  0  0  0  0  0  0
  1  3  1  0  0  0  0
  1 11  1  0  0  0  0
  2  4  2  0  0  0  0
  2  5  1  0  0  0  0
  3 13  1  0  0  0  0
  4  8  1  0  0  0  0
  5  1  2  0  0  0  0
  6  5  1  0  0  0  0
  6  9  2  0  0  0  0
  7  6  1  0  0  0  0
  8 10  1  0  0  0  0
  8  3  2  0  0  0  0
 12  2  1  0  0  0  0
 14  4  1  0  0  0  0
 15  7  1  0  0  0  0
 16  7  1  0  0  0  0
M  CHG  2   8   1  10  -1
M  END
>  <HBA>
3

>  <HBD>
1

>  <TPSA>
68.55

>  <cid>
72966

>  <dipole>
3.96

>  <excitation_energy_1>
3.787

>  <excitation_energy_2>
4.224

>  <excitation_energy_3>
4.291

>  <excitation_energy_4>
4.381

>  <homo_energy>
-6.142

>  <homo_lumo_gap>
4.294

>  <logP>
0.914

>  <lumo_energy>
-1.848

>  <melting_point>
108.63

>  <molecular_refractivity>
35.7

>  <oscillator_strength_1>
0.0

>  <oscillator_strength_2>
0.0666

>  <oscillator_strength_3>
0.0044

>  <oscillator_strength_4>
0.322

>  <open_babel_can_smiles>
NC(=O)c1cc[n+](cc1)[O-]

>  <mulliken_charges>
16
1   -0.200654
2   -0.222879
3   0.070475
4   0.071827
5   0.0946
6   0.540996
7   -0.755456
8   0.001275
9   -0.498919
10   -0.496638
11   0.188654
12   0.155025
13   0.187923
14   0.185488
15   0.332899
16   0.345384

>  <lowdin_charges>
16
1   -0.124538
2   -0.14836
3   -0.121126
4   -0.124874
5   -0.056944
6   0.167921
7   -0.471879
8   0.226393
9   -0.297285
10   -0.365549
11   0.193457
12   0.170813
13   0.186097
14   0.186533
15   0.286041
16   0.293302

$$$$

