PCCDB-ID:  45163
public computational chemistry database (PCCDB) project, http://pccdb.org

 10  9  0  0  0  0  0  0  0  0999 V2000
    0.7320    0.2499    0.3706 C   0  0  0  0  0  0  0  0  0  0  0  0
    3.2321    0.7625   -0.5019 C   0  0  0  0  0  0  0  0  0  0  0  0
    0.9841   -1.0341    1.1705 C   0  0  0  0  0  0  0  0  0  0  0  0
    4.0140    0.1914   -1.1547 N   0  0  0  0  0  0  0  0  0  0  0  0
    0.2119   -1.4001    2.0183 O   0  0  0  0  0  0  0  0  0  0  0  0
    2.0775   -1.7575    0.8600 O   0  0  0  0  0  0  0  0  0  0  0  0
    2.0713    1.5343    0.4723 S   0  0  0  0  0  0  0  0  0  0  0  0
   -0.1459    0.7371    0.7971 H   0  0  0  0  0  0  0  0  0  0  0  0
    0.5433    0.0329   -0.6851 H   0  0  0  0  0  0  0  0  0  0  0  0
    2.6126   -1.3546    0.1516 H   0  0  0  0  0  0  0  0  0  0  0  0
  1  7  1  0  0  0  0
  1  8  1  0  0  0  0
  1  3  1  0  0  0  0
  2  7  1  0  0  0  0
  3  5  2  0  0  0  0
  4  2  3  0  0  0  0
  6  3  1  0  0  0  0
  9  1  1  0  0  0  0
 10  6  1  0  0  0  0
M  END
>  <HBA>
4

>  <HBD>
1

>  <TPSA>
86.39

>  <cid>
45163

>  <dipole>
3.25

>  <excitation_energy_1>
4.654

>  <excitation_energy_2>
5.279

>  <excitation_energy_3>
5.887

>  <excitation_energy_4>
6.32

>  <homo_energy>
-7.753

>  <homo_lumo_gap>
5.932

>  <logP>
0.285

>  <lumo_energy>
-1.82

>  <melting_point>
95.46

>  <molecular_refractivity>
25.65

>  <oscillator_strength_1>
0.0048

>  <oscillator_strength_2>
0.0102

>  <oscillator_strength_3>
0.0021

>  <oscillator_strength_4>
0.0029

>  <open_babel_can_smiles>
OC(=O)CSC#N

>  <mulliken_charges>
10
1   -0.565173
2   0.115862
3   0.610104
4   -0.378982
5   -0.410101
6   -0.551162
7   0.279297
8   0.238463
9   0.231731
10   0.429963

>  <lowdin_charges>
10
1   -0.405716
2   -0.17618
3   0.191299
4   -0.112668
5   -0.217835
6   -0.339509
7   0.292694
8   0.206558
9   0.193806
10   0.367551

$$$$

