PCCDB-ID:  7459
public computational chemistry database (PCCDB) project, http://pccdb.org

 30 30  0  0  1  0  0  0  0  0999 V2000
    2.6983    1.4545    0.8255 C   0  0  0  0  0  0  0  0  0  0  0  0
    3.0513    0.3235   -1.3851 C   0  0  0  0  0  0  0  0  0  0  0  0
    2.8276   -5.0799    2.7598 C   0  0  0  0  0  0  0  0  0  0  0  0
    3.0365   -3.6700    0.6525 C   0  0  0  0  0  0  0  0  0  0  0  0
    2.6633   -2.5441    2.8632 C   0  0  0  0  0  0  0  0  0  0  0  0
    2.6123   -2.3868   -0.0785 C   0  0  0  0  0  0  0  0  0  0  0  0
    2.2385   -1.2562    2.1408 C   0  0  0  0  0  0  0  0  0  0  0  0
    2.4183    0.1793    0.0104 C   0  0  0  0  0  0  0  0  0  0  0  0
    2.3789   -3.8066    2.0345 C   0  0  2  0  0  0  0  0  0  0  0  0
    2.8816   -1.1088    0.7449 C   0  0  2  0  0  0  0  0  0  0  0  0
    2.4026    2.3455    0.2592 H   0  0  0  0  0  0  0  0  0  0  0  0
    3.7690    1.5481    1.0515 H   0  0  0  0  0  0  0  0  0  0  0  0
    2.1533    1.4758    1.7739 H   0  0  0  0  0  0  0  0  0  0  0  0
    2.7446    1.2679   -1.8497 H   0  0  0  0  0  0  0  0  0  0  0  0
    2.7601   -0.4833   -2.0642 H   0  0  0  0  0  0  0  0  0  0  0  0
    4.1477    0.3285   -1.3206 H   0  0  0  0  0  0  0  0  0  0  0  0
    2.5972   -5.9766    2.1716 H   0  0  0  0  0  0  0  0  0  0  0  0
    2.3315   -5.1809    3.7328 H   0  0  0  0  0  0  0  0  0  0  0  0
    3.9107   -5.0692    2.9388 H   0  0  0  0  0  0  0  0  0  0  0  0
    4.1306   -3.6703    0.7784 H   0  0  0  0  0  0  0  0  0  0  0  0
    2.7973   -4.5459    0.0341 H   0  0  0  0  0  0  0  0  0  0  0  0
    2.1551   -2.6092    3.8351 H   0  0  0  0  0  0  0  0  0  0  0  0
    3.7419   -2.4989    3.0812 H   0  0  0  0  0  0  0  0  0  0  0  0
    1.5367   -2.4395   -0.3095 H   0  0  0  0  0  0  0  0  0  0  0  0
    3.1335   -2.3395   -1.0409 H   0  0  0  0  0  0  0  0  0  0  0  0
    2.4912   -0.3967    2.7712 H   0  0  0  0  0  0  0  0  0  0  0  0
    1.1428   -1.2481    2.0289 H   0  0  0  0  0  0  0  0  0  0  0  0
    1.3272    0.1027   -0.1251 H   0  0  0  0  0  0  0  0  0  0  0  0
    1.2889   -3.8663    1.8806 H   0  0  0  0  0  0  0  0  0  0  0  0
    3.9734   -1.0304    0.8889 H   0  0  0  0  0  0  0  0  0  0  0  0
  1 12  1  0  0  0  0
  1 13  1  0  0  0  0
  2 16  1  0  0  0  0
  2  8  1  0  0  0  0
  3 19  1  0  0  0  0
  3 18  1  0  0  0  0
  4 20  1  0  0  0  0
  4  9  1  0  0  0  0
  5 23  1  0  0  0  0
  5 22  1  0  0  0  0
  6  4  1  0  0  0  0
  6 10  1  0  0  0  0
  7 26  1  0  0  0  0
  7  5  1  0  0  0  0
  8 10  1  0  0  0  0
  8  1  1  0  0  0  0
  9 29  1  6  0  0  0
  9  3  1  0  0  0  0
  9  5  1  0  0  0  0
 10 30  1  1  0  0  0
 10  7  1  0  0  0  0
 11  1  1  0  0  0  0
 14  2  1  0  0  0  0
 15  2  1  0  0  0  0
 17  3  1  0  0  0  0
 21  4  1  0  0  0  0
 24  6  1  0  0  0  0
 25  6  1  0  0  0  0
 27  7  1  0  0  0  0
 28  8  1  0  0  0  0
M  END
>  <HBA>
0

>  <HBD>
0

>  <TPSA>
0.0

>  <cid>
7459

>  <dipole>
0.09

>  <excitation_energy_1>
7.171

>  <excitation_energy_2>
7.317

>  <excitation_energy_3>
7.481

>  <excitation_energy_4>
7.525

>  <homo_energy>
-7.638

>  <homo_lumo_gap>
9.989

>  <logP>
3.469

>  <lumo_energy>
2.351

>  <melting_point>
-6.64

>  <molecular_refractivity>
48.07

>  <oscillator_strength_1>
0.0071

>  <oscillator_strength_2>
0.016

>  <oscillator_strength_3>
0.0065

>  <oscillator_strength_4>
0.0016

>  <open_babel_can_smiles>
C[C@@H]1CC[C@H](CC1)C(C)C

>  <mulliken_charges>
30
1   -0.451499
2   -0.451388
3   -0.4447
4   -0.257411
5   -0.257721
6   -0.272643
7   -0.272249
8   -0.062759
9   -0.065818
10   -0.061924
11   0.137893
12   0.137133
13   0.146014
14   0.137848
15   0.146073
16   0.137099
17   0.138168
18   0.138224
19   0.137434
20   0.122354
21   0.125114
22   0.125192
23   0.122402
24   0.122229
25   0.133064
26   0.132903
27   0.122225
28   0.115215
29   0.114526
30   0.106998

>  <lowdin_charges>
30
1   -0.445923
2   -0.446284
3   -0.441706
4   -0.27618
5   -0.275332
6   -0.278219
7   -0.279019
8   -0.118523
9   -0.123977
10   -0.12711
11   0.147914
12   0.143228
13   0.148872
14   0.147629
15   0.149917
16   0.142707
17   0.147409
18   0.146786
19   0.143136
20   0.133481
21   0.141452
22   0.14054
23   0.133816
24   0.13394
25   0.144417
26   0.145264
27   0.133533
28   0.130793
29   0.129838
30   0.127599

$$$$

