PCCDB-ID:  71567
public computational chemistry database (PCCDB) project, http://pccdb.org

 23 23  0  0  1  0  0  0  0  0999 V2000
    1.3649    0.4659   -4.6092 C   0  0  0  0  0  0  0  0  0  0  0  0
    0.9874    0.9714   -3.3637 C   0  0  0  0  0  0  0  0  0  0  0  0
    2.0339   -0.7567   -4.6834 C   0  0  0  0  0  0  0  0  0  0  0  0
    1.2781    0.2584   -2.2006 C   0  0  0  0  0  0  0  0  0  0  0  0
    2.3233   -1.4687   -3.5182 C   0  0  0  0  0  0  0  0  0  0  0  0
    2.2866   -1.7400   -1.0006 C   0  0  0  0  0  0  0  0  0  0  0  0
    1.9500   -0.9709   -2.2617 C   0  0  0  0  0  0  0  0  0  0  0  0
    3.6349   -1.3294   -0.3423 C   0  0  2  0  0  0  0  0  0  0  0  0
    3.6075    0.1300    0.1582 C   0  0  0  0  0  0  0  0  0  0  0  0
    4.7375   -1.6010   -1.2495 N   0  0  0  0  0  0  0  0  0  0  0  0
    4.3524    0.9909   -0.2352 O   0  0  0  0  0  0  0  0  0  0  0  0
    2.6781    0.4174    1.1155 O   0  0  0  0  0  0  0  0  0  0  0  0
    1.1373    1.0205   -5.5154 H   0  0  0  0  0  0  0  0  0  0  0  0
    0.4638    1.9212   -3.2961 H   0  0  0  0  0  0  0  0  0  0  0  0
    2.3301   -1.1590   -5.6486 H   0  0  0  0  0  0  0  0  0  0  0  0
    0.9814    0.6621   -1.2353 H   0  0  0  0  0  0  0  0  0  0  0  0
    2.8433   -2.4215   -3.5791 H   0  0  0  0  0  0  0  0  0  0  0  0
    2.3656   -2.8083   -1.2248 H   0  0  0  0  0  0  0  0  0  0  0  0
    1.4715   -1.6302   -0.2726 H   0  0  0  0  0  0  0  0  0  0  0  0
    3.7656   -1.9672    0.5455 H   0  0  0  0  0  0  0  0  0  0  0  0
    5.6098   -1.3254   -0.8002 H   0  0  0  0  0  0  0  0  0  0  0  0
    4.6507   -0.9779   -2.0527 H   0  0  0  0  0  0  0  0  0  0  0  0
    2.1771   -0.3835    1.3430 H   0  0  0  0  0  0  0  0  0  0  0  0
  1  2  1  0  0  0  0
  2 14  1  0  0  0  0
  2  4  2  0  0  0  0
  3  1  2  0  0  0  0
  3  5  1  0  0  0  0
  4 16  1  0  0  0  0
  5  7  2  0  0  0  0
  6  8  1  0  0  0  0
  6 19  1  0  0  0  0
  7  4  1  0  0  0  0
  7  6  1  0  0  0  0
  8  9  1  0  0  0  0
  8 20  1  1  0  0  0
  9 12  1  0  0  0  0
 10 21  1  0  0  0  0
 10  8  1  0  0  0  0
 11  9  2  0  0  0  0
 12 23  1  0  0  0  0
 13  1  1  0  0  0  0
 15  3  1  0  0  0  0
 17  5  1  0  0  0  0
 18  6  1  0  0  0  0
 22 10  1  0  0  0  0
M  END
>  <HBA>
3

>  <HBD>
2

>  <TPSA>
63.32

>  <cid>
71567

>  <dipole>
2.87

>  <excitation_energy_1>
5.247

>  <excitation_energy_2>
5.432

>  <excitation_energy_3>
5.506

>  <excitation_energy_4>
5.736

>  <homo_energy>
-6.64

>  <homo_lumo_gap>
6.376

>  <logP>
1.341

>  <lumo_energy>
-0.264

>  <melting_point>
137.23

>  <molecular_refractivity>
45.5

>  <oscillator_strength_1>
0.0003

>  <oscillator_strength_2>
0.0031

>  <oscillator_strength_3>
0.0354

>  <oscillator_strength_4>
0.0143

>  <open_babel_can_smiles>
N[C@@H](C(=O)O)Cc1ccccc1

>  <mulliken_charges>
23
1   -0.127834
2   -0.127326
3   -0.127375
4   -0.177992
5   -0.184786
6   -0.356264
7   0.152511
8   -0.103022
9   0.589699
10   -0.697811
11   -0.439717
12   -0.570832
13   0.132424
14   0.135194
15   0.133002
16   0.133508
17   0.140606
18   0.173119
19   0.130998
20   0.152655
21   0.310608
22   0.318192
23   0.410441

>  <lowdin_charges>
23
1   -0.156249
2   -0.148814
3   -0.154468
4   -0.165481
5   -0.165798
6   -0.275347
7   -0.014986
8   -0.112117
9   0.175381
10   -0.533695
11   -0.235957
12   -0.363039
13   0.159736
14   0.16007
15   0.159219
16   0.158496
17   0.161624
18   0.16566
19   0.143892
20   0.153868
21   0.264702
22   0.267096
23   0.356206

$$$$

