PCCDB-ID:  3776
public computational chemistry database (PCCDB) project, http://pccdb.org

 12 11  0  0  0  0  0  0  0  0999 V2000
    1.0442    0.0706   -0.0445 C   0  0  0  0  0  0  0  0  0  0  0  0
    3.1238   -0.8153    1.1294 C   0  0  0  0  0  0  0  0  0  0  0  0
    2.5738    0.0308   -0.0210 C   0  0  0  0  0  0  0  0  0  0  0  0
    3.0964   -0.4077   -1.2785 O   0  0  0  0  0  0  0  0  0  0  0  0
    0.6402    0.4956    0.8819 H   0  0  0  0  0  0  0  0  0  0  0  0
    0.6316   -0.9422   -0.1528 H   0  0  0  0  0  0  0  0  0  0  0  0
    0.6922    0.6739   -0.8873 H   0  0  0  0  0  0  0  0  0  0  0  0
    2.8048   -0.4235    2.1024 H   0  0  0  0  0  0  0  0  0  0  0  0
    4.2179   -0.8301    1.1014 H   0  0  0  0  0  0  0  0  0  0  0  0
    2.7653   -1.8515    1.0549 H   0  0  0  0  0  0  0  0  0  0  0  0
    2.9534    1.0548    0.0795 H   0  0  0  0  0  0  0  0  0  0  0  0
    2.7839   -1.3169   -1.4160 H   0  0  0  0  0  0  0  0  0  0  0  0
  1  3  1  0  0  0  0
  1  5  1  0  0  0  0
  2  8  1  0  0  0  0
  3 11  1  0  0  0  0
  3  2  1  0  0  0  0
  4  3  1  0  0  0  0
  6  1  1  0  0  0  0
  7  1  1  0  0  0  0
  9  2  1  0  0  0  0
 10  2  1  0  0  0  0
 12  4  1  0  0  0  0
M  END
>  <HBA>
1

>  <HBD>
1

>  <TPSA>
20.23

>  <cid>
3776

>  <dipole>
1.62

>  <excitation_energy_1>
6.661

>  <excitation_energy_2>
7.282

>  <excitation_energy_3>
7.679

>  <excitation_energy_4>
7.687

>  <homo_energy>
-7.105

>  <homo_lumo_gap>
9.108

>  <logP>
0.387

>  <lumo_energy>
2.003

>  <melting_point>
-5.95

>  <molecular_refractivity>
17.7

>  <oscillator_strength_1>
0.0304

>  <oscillator_strength_2>
0.0048

>  <oscillator_strength_3>
0.0069

>  <oscillator_strength_4>
0.0037

>  <open_babel_can_smiles>
CC(O)C

>  <mulliken_charges>
12
1   -0.451294
2   -0.451172
3   0.140985
4   -0.616483
5   0.142047
6   0.129889
7   0.158406
8   0.141984
9   0.158405
10   0.129897
11   0.138224
12   0.379112

>  <lowdin_charges>
12
1   -0.46188
2   -0.457745
3   0.006617
4   -0.466277
5   0.152765
6   0.141688
7   0.158804
8   0.152193
9   0.156006
10   0.141279
11   0.141576
12   0.334976

$$$$

