PCCDB-ID:  7115
public computational chemistry database (PCCDB) project, http://pccdb.org

 32 34  0  0  0  0  0  0  0  0999 V2000
   -1.4248   -0.1486    0.7639 C   0  0  0  0  0  0  0  0  0  0  0  0
    9.7028    0.5962   -1.8731 C   0  0  0  0  0  0  0  0  0  0  0  0
   -0.6316    0.8500    1.3319 C   0  0  0  0  0  0  0  0  0  0  0  0
   -0.8510   -1.0562   -0.1283 C   0  0  0  0  0  0  0  0  0  0  0  0
    9.1291    1.5023   -0.9792 C   0  0  0  0  0  0  0  0  0  0  0  0
    8.9092   -0.4005   -2.4437 C   0  0  0  0  0  0  0  0  0  0  0  0
    0.7220    0.9392    1.0114 C   0  0  0  0  0  0  0  0  0  0  0  0
    0.5023   -0.9652   -0.4500 C   0  0  0  0  0  0  0  0  0  0  0  0
    7.7757    1.4114   -0.6582 C   0  0  0  0  0  0  0  0  0  0  0  0
    7.5553   -0.4896   -2.1239 C   0  0  0  0  0  0  0  0  0  0  0  0
    3.5358   -1.0200   -0.4309 C   0  0  0  0  0  0  0  0  0  0  0  0
    3.3908    1.3768   -0.3608 C   0  0  0  0  0  0  0  0  0  0  0  0
    4.8867   -0.9288   -0.7508 C   0  0  0  0  0  0  0  0  0  0  0  0
    4.7417    1.4680   -0.6807 C   0  0  0  0  0  0  0  0  0  0  0  0
    1.3144    0.0339    0.1140 C   0  0  0  0  0  0  0  0  0  0  0  0
    6.9632    0.4141   -1.2248 C   0  0  0  0  0  0  0  0  0  0  0  0
    2.7555    0.1307   -0.2280 C   0  0  0  0  0  0  0  0  0  0  0  0
    5.5220    0.3173   -0.8834 C   0  0  0  0  0  0  0  0  0  0  0  0
   -2.4799   -0.2188    1.0141 H   0  0  0  0  0  0  0  0  0  0  0  0
   10.7580    0.6663   -2.1227 H   0  0  0  0  0  0  0  0  0  0  0  0
   -1.0653    1.5574    2.0340 H   0  0  0  0  0  0  0  0  0  0  0  0
   -1.4601   -1.8333   -0.5827 H   0  0  0  0  0  0  0  0  0  0  0  0
    9.7386    2.2780   -0.5228 H   0  0  0  0  0  0  0  0  0  0  0  0
    9.3428   -1.1068   -3.1470 H   0  0  0  0  0  0  0  0  0  0  0  0
    1.3358    1.7026    1.4814 H   0  0  0  0  0  0  0  0  0  0  0  0
    0.9316   -1.6591   -1.1674 H   0  0  0  0  0  0  0  0  0  0  0  0
    7.3464    2.1041    0.0604 H   0  0  0  0  0  0  0  0  0  0  0  0
    6.9412   -1.2515   -2.5959 H   0  0  0  0  0  0  0  0  0  0  0  0
    3.0858   -2.0003   -0.3006 H   0  0  0  0  0  0  0  0  0  0  0  0
    2.8094    2.2875   -0.2469 H   0  0  0  0  0  0  0  0  0  0  0  0
    5.4681   -1.8395   -0.8651 H   0  0  0  0  0  0  0  0  0  0  0  0
    5.1918    2.4483   -0.8108 H   0  0  0  0  0  0  0  0  0  0  0  0
  1 19  1  0  0  0  0
  1  3  2  0  0  0  0
  2  5  2  0  0  0  0
  3 21  1  0  0  0  0
  4  1  1  0  0  0  0
  5  9  1  0  0  0  0
  5 23  1  0  0  0  0
  6 10  2  0  0  0  0
  6  2  1  0  0  0  0
  7  3  1  0  0  0  0
  7 25  1  0  0  0  0
  8  4  2  0  0  0  0
  8 15  1  0  0  0  0
  9 27  1  0  0  0  0
 10 16  1  0  0  0  0
 11 29  1  0  0  0  0
 11 17  2  0  0  0  0
 12 30  1  0  0  0  0
 12 17  1  0  0  0  0
 13 11  1  0  0  0  0
 14 12  2  0  0  0  0
 15  7  2  0  0  0  0
 16 18  1  0  0  0  0
 16  9  2  0  0  0  0
 17 15  1  0  0  0  0
 18 13  2  0  0  0  0
 18 14  1  0  0  0  0
 20  2  1  0  0  0  0
 22  4  1  0  0  0  0
 24  6  1  0  0  0  0
 26  8  1  0  0  0  0
 28 10  1  0  0  0  0
 31 13  1  0  0  0  0
 32 14  1  0  0  0  0
M  END
>  <HBA>
0

>  <HBD>
0

>  <TPSA>
0.0

>  <cid>
7115

>  <dipole>
0.0

>  <excitation_energy_1>
4.261

>  <excitation_energy_2>
4.639

>  <excitation_energy_3>
4.794

>  <excitation_energy_4>
4.827

>  <homo_energy>
-5.772

>  <homo_lumo_gap>
4.748

>  <logP>
5.021

>  <lumo_energy>
-1.023

>  <melting_point>
78.86

>  <molecular_refractivity>
77.31

>  <oscillator_strength_1>
0.9009

>  <oscillator_strength_2>
0.0002

>  <oscillator_strength_3>
0.0

>  <oscillator_strength_4>
0.0003

>  <open_babel_can_smiles>
c1ccc(cc1)c1ccc(cc1)c1ccccc1

>  <mulliken_charges>
32
1   -0.12673
2   -0.126725
3   -0.133742
4   -0.133669
5   -0.133714
6   -0.133702
7   -0.173903
8   -0.174017
9   -0.173935
10   -0.173892
11   -0.181448
12   -0.181588
13   -0.181683
14   -0.181566
15   0.089834
16   0.089731
17   0.094648
18   0.094672
19   0.129533
20   0.12953
21   0.130337
22   0.1303
23   0.130314
24   0.130331
25   0.131984
26   0.131991
27   0.132003
28   0.13199
29   0.133254
30   0.133294
31   0.133304
32   0.13326

>  <lowdin_charges>
32
1   -0.156259
2   -0.15626
3   -0.155281
4   -0.155689
5   -0.1557
6   -0.155281
7   -0.162816
8   -0.162374
9   -0.162365
10   -0.162822
11   -0.159586
12   -0.160398
13   -0.160388
14   -0.159583
15   -0.001398
16   -0.001399
17   -0.001555
18   -0.001552
19   0.156428
20   0.156424
21   0.159096
22   0.159188
23   0.159195
24   0.159096
25   0.160353
26   0.160177
27   0.160183
28   0.160364
29   0.159685
30   0.160414
31   0.160419
32   0.159689

$$$$

