PCCDB-ID:  41483
public computational chemistry database (PCCDB) project, http://pccdb.org

 26 25  0  0  0  0  0  0  0  0999 V2000
    8.9614   -0.5875   -0.1915 C   0  0  0  0  0  0  0  0  0  0  0  0
    2.9229   -0.3278    6.0935 C   0  0  0  0  0  0  0  0  0  0  0  0
    9.0178   -0.9056    1.3082 C   0  0  0  0  0  0  0  0  0  0  0  0
    3.6556   -1.5728    5.5908 C   0  0  0  0  0  0  0  0  0  0  0  0
    7.6993   -1.4320    1.9018 C   0  0  0  0  0  0  0  0  0  0  0  0
    6.5893   -0.3861    1.9121 C   0  0  0  0  0  0  0  0  0  0  0  0
    5.2054   -0.9302    3.7495 C   0  0  0  0  0  0  0  0  0  0  0  0
    3.0949   -1.9057    3.1894 N   0  0  0  0  0  0  0  0  0  0  0  0
    3.9807   -1.4955    4.1589 N   0  0  0  0  0  0  0  0  0  0  0  0
    6.0011   -0.4925    4.5553 O   0  0  0  0  0  0  0  0  0  0  0  0
    2.0449   -2.3268    3.6345 O   0  0  0  0  0  0  0  0  0  0  0  0
    5.3484   -0.9426    2.4225 O   0  0  0  0  0  0  0  0  0  0  0  0
    9.9437   -0.2724   -0.5605 H   0  0  0  0  0  0  0  0  0  0  0  0
    8.2555    0.2198   -0.4184 H   0  0  0  0  0  0  0  0  0  0  0  0
    8.6554   -1.4679   -0.7700 H   0  0  0  0  0  0  0  0  0  0  0  0
    2.6892   -0.4415    7.1577 H   0  0  0  0  0  0  0  0  0  0  0  0
    1.9844   -0.1815    5.5508 H   0  0  0  0  0  0  0  0  0  0  0  0
    3.5473    0.5627    5.9731 H   0  0  0  0  0  0  0  0  0  0  0  0
    9.3361   -0.0128    1.8644 H   0  0  0  0  0  0  0  0  0  0  0  0
    9.7938   -1.6613    1.4831 H   0  0  0  0  0  0  0  0  0  0  0  0
    3.0371   -2.4642    5.7129 H   0  0  0  0  0  0  0  0  0  0  0  0
    4.6005   -1.7118    6.1166 H   0  0  0  0  0  0  0  0  0  0  0  0
    7.8714   -1.7581    2.9339 H   0  0  0  0  0  0  0  0  0  0  0  0
    7.3565   -2.3081    1.3357 H   0  0  0  0  0  0  0  0  0  0  0  0
    6.3261   -0.0536    0.9063 H   0  0  0  0  0  0  0  0  0  0  0  0
    6.8653    0.4782    2.5219 H   0  0  0  0  0  0  0  0  0  0  0  0
  1  3  1  0  0  0  0
  2 16  1  0  0  0  0
  3 20  1  0  0  0  0
  3 19  1  0  0  0  0
  3  5  1  0  0  0  0
  4 21  1  0  0  0  0
  4  2  1  0  0  0  0
  4 22  1  0  0  0  0
  5  6  1  0  0  0  0
  5 23  1  0  0  0  0
  6 12  1  0  0  0  0
  6 26  1  0  0  0  0
  7  9  1  0  0  0  0
  7 10  2  0  0  0  0
  8 11  1  0  0  0  0
  8  9  1  0  0  0  0
  9  4  1  0  0  0  0
 12  7  1  0  0  0  0
 13  1  1  0  0  0  0
 14  1  1  0  0  0  0
 15  1  1  0  0  0  0
 17  2  1  0  0  0  0
 18  2  1  0  0  0  0
 24  5  1  0  0  0  0
 25  6  1  0  0  0  0
M  RAD  2   8   2  11   2
M  END
>  <HBA>
5

>  <HBD>
0

>  <TPSA>
58.97

>  <cid>
41483

>  <dipole>
2.17

>  <excitation_energy_1>
2.966

>  <excitation_energy_2>
5.153

>  <excitation_energy_3>
5.43

>  <excitation_energy_4>
5.787

>  <homo_energy>
-6.64

>  <homo_lumo_gap>
4.797

>  <logP>
1.926

>  <lumo_energy>
-1.842

>  <melting_point>
17.23

>  <molecular_refractivity>
45.07

>  <oscillator_strength_1>
0.001

>  <oscillator_strength_2>
0.002

>  <oscillator_strength_3>
0.1304

>  <oscillator_strength_4>
0.1047

>  <open_babel_can_smiles>
CCCCOC(=O)N([N][O])CC

>  <mulliken_charges>
26
1   -0.447869
2   -0.450589
3   -0.262641
4   -0.150145
5   -0.277974
6   -0.046868
7   0.832031
8   0.200189
9   -0.351994
10   -0.496582
11   -0.32701
12   -0.457501
13   0.149997
14   0.145205
15   0.148128
16   0.156915
17   0.169965
18   0.168361
19   0.140647
20   0.14424
21   0.182859
22   0.187359
23   0.160104
24   0.148448
25   0.163545
26   0.171179

>  <lowdin_charges>
26
1   -0.449281
2   -0.446683
3   -0.27369
4   -0.208224
5   -0.288833
6   -0.126152
7   0.21959
8   0.087561
9   -0.047343
10   -0.282817
11   -0.211916
12   -0.168861
13   0.153895
14   0.147073
15   0.150288
16   0.159079
17   0.161648
18   0.16128
19   0.144454
20   0.15037
21   0.169742
22   0.17482
23   0.156761
24   0.150005
25   0.157209
26   0.160023

$$$$

