PCCDB-ID:  25222
public computational chemistry database (PCCDB) project, http://pccdb.org

 27 28  0  0  0  0  0  0  0  0999 V2000
    0.7850    0.1134    0.5660 C   0  0  0  0  0  0  0  0  0  0  0  0
    0.2616    0.9447   -1.6463 C   0  0  0  0  0  0  0  0  0  0  0  0
    0.2600   -1.1220    0.2292 C   0  0  0  0  0  0  0  0  0  0  0  0
   -0.2705   -0.2917   -1.9844 C   0  0  0  0  0  0  0  0  0  0  0  0
    1.1980    3.5540   -0.9353 C   0  0  0  0  0  0  0  0  0  0  0  0
    2.4837    2.5292    0.8603 C   0  0  0  0  0  0  0  0  0  0  0  0
    1.3431    4.8843   -0.1947 C   0  0  0  0  0  0  0  0  0  0  0  0
    2.5665    3.9019    1.5233 C   0  0  0  0  0  0  0  0  0  0  0  0
    0.7983    1.1868   -0.3594 C   0  0  0  0  0  0  0  0  0  0  0  0
   -0.2705   -1.3227   -1.0473 C   0  0  0  0  0  0  0  0  0  0  0  0
    1.2878    2.4396    0.0096 N   0  0  0  0  0  0  0  0  0  0  0  0
   -0.8249   -2.6217   -1.4025 N   0  0  0  0  0  0  0  0  0  0  0  0
   -0.7915   -3.5153   -0.5516 O   0  0  0  0  0  0  0  0  0  0  0  0
   -1.2978   -2.7580   -2.5343 O   0  0  0  0  0  0  0  0  0  0  0  0
    2.5427    4.9421    0.5587 O   0  0  0  0  0  0  0  0  0  0  0  0
    1.1602    0.2555    1.5725 H   0  0  0  0  0  0  0  0  0  0  0  0
    0.2811    1.7175   -2.4041 H   0  0  0  0  0  0  0  0  0  0  0  0
    0.2414   -1.9346    0.9452 H   0  0  0  0  0  0  0  0  0  0  0  0
   -0.6725   -0.4734   -2.9738 H   0  0  0  0  0  0  0  0  0  0  0  0
    1.9738    3.4797   -1.7168 H   0  0  0  0  0  0  0  0  0  0  0  0
    0.2194    3.5373   -1.4224 H   0  0  0  0  0  0  0  0  0  0  0  0
    2.4563    1.7610    1.6337 H   0  0  0  0  0  0  0  0  0  0  0  0
    3.3902    2.3640    0.2540 H   0  0  0  0  0  0  0  0  0  0  0  0
    0.4726    5.0317    0.4655 H   0  0  0  0  0  0  0  0  0  0  0  0
    1.3822    5.7086   -0.9126 H   0  0  0  0  0  0  0  0  0  0  0  0
    3.5103    3.9996    2.0676 H   0  0  0  0  0  0  0  0  0  0  0  0
    1.7325    4.0222    2.2343 H   0  0  0  0  0  0  0  0  0  0  0  0
  1 16  1  0  0  0  0
  2  9  1  0  0  0  0
  3  1  1  0  0  0  0
  3 18  1  0  0  0  0
  4  2  2  0  0  0  0
  4 10  1  0  0  0  0
  5  7  1  0  0  0  0
  5 11  1  0  0  0  0
  6  8  1  0  0  0  0
  6 22  1  0  0  0  0
  7 24  1  0  0  0  0
  7 15  1  0  0  0  0
  8 26  1  0  0  0  0
  8 27  1  0  0  0  0
  9 11  1  0  0  0  0
  9  1  2  0  0  0  0
 10  3  2  0  0  0  0
 11  6  1  0  0  0  0
 12 10  1  0  0  0  0
 12 13  2  0  0  0  0
 14 12  2  0  0  0  0
 15  8  1  0  0  0  0
 17  2  1  0  0  0  0
 19  4  1  0  0  0  0
 20  5  1  0  0  0  0
 21  5  1  0  0  0  0
 23  6  1  0  0  0  0
 25  7  1  0  0  0  0
M  END
>  <HBA>
2

>  <HBD>
0

>  <TPSA>
58.29

>  <cid>
25222

>  <dipole>
6.04

>  <excitation_energy_1>
3.577

>  <excitation_energy_2>
3.769

>  <excitation_energy_3>
4.321

>  <excitation_energy_4>
4.367

>  <homo_energy>
-6.049

>  <homo_lumo_gap>
4.014

>  <logP>
2.02

>  <lumo_energy>
-2.035

>  <melting_point>
64.76

>  <molecular_refractivity>
60.99

>  <oscillator_strength_1>
0.3882

>  <oscillator_strength_2>
0.01

>  <oscillator_strength_3>
0.0004

>  <oscillator_strength_4>
0.0

>  <open_babel_can_smiles>
O=N(=O)c1ccc(cc1)N1CCOCC1

>  <mulliken_charges>
27
1   -0.190933
2   -0.204169
3   -0.158221
4   -0.161144
5   -0.146636
6   -0.153339
7   -0.037997
8   -0.03618
9   0.380764
10   0.278169
11   -0.513209
12   0.366804
13   -0.408954
14   -0.409345
15   -0.46041
16   0.142426
17   0.144181
18   0.179364
19   0.179721
20   0.148283
21   0.162512
22   0.160597
23   0.154
24   0.135969
25   0.156378
26   0.156447
27   0.134924

>  <lowdin_charges>
27
1   -0.18791
2   -0.20247
3   -0.130327
4   -0.125928
5   -0.214109
6   -0.209438
7   -0.138771
8   -0.138591
9   0.075896
10   -0.023795
11   -0.123128
12   0.308644
13   -0.263234
14   -0.261822
15   -0.266325
16   0.163355
17   0.168078
18   0.187041
19   0.18569
20   0.140549
21   0.16255
22   0.162383
23   0.143757
24   0.135955
25   0.158589
26   0.15798
27   0.13538

$$$$

