PCCDB-ID:  21430
public computational chemistry database (PCCDB) project, http://pccdb.org

 33 32  0  0  0  0  0  0  0  0999 V2000
    0.4680   -0.7159    0.3134 C   0  0  0  0  0  0  0  0  0  0  0  0
    4.6607    3.8312   -3.6914 C   0  0  0  0  0  0  0  0  0  0  0  0
    5.3762   -0.1766   -4.7525 C   0  0  0  0  0  0  0  0  0  0  0  0
    4.0679    0.2957   -0.5396 C   0  0  0  0  0  0  0  0  0  0  0  0
    1.9829    0.2698   -1.9642 C   0  0  0  0  0  0  0  0  0  0  0  0
    4.4823    1.7594   -0.6087 C   0  0  0  0  0  0  0  0  0  0  0  0
    2.1857   -0.8484   -2.9914 C   0  0  0  0  0  0  0  0  0  0  0  0
    1.9593   -0.4257    0.4451 C   0  0  0  0  0  0  0  0  0  0  0  0
    4.6671    3.5145   -2.2140 C   0  0  0  0  0  0  0  0  0  0  0  0
    3.9076   -0.0554   -4.4317 C   0  0  0  0  0  0  0  0  0  0  0  0
    2.6262    0.0524   -0.6688 N   0  0  0  0  0  0  0  0  0  0  0  0
    2.5310   -0.6068    1.5151 O   0  0  0  0  0  0  0  0  0  0  0  0
    4.8523    4.3121   -1.3231 O   0  0  0  0  0  0  0  0  0  0  0  0
    3.1383    0.7299   -4.9443 O   0  0  0  0  0  0  0  0  0  0  0  0
    4.4631    2.1877   -1.9936 O   0  0  0  0  0  0  0  0  0  0  0  0
    3.5511   -0.9285   -3.4564 O   0  0  0  0  0  0  0  0  0  0  0  0
   -0.1090    0.2003    0.1410 H   0  0  0  0  0  0  0  0  0  0  0  0
    0.1446   -1.1574    1.2564 H   0  0  0  0  0  0  0  0  0  0  0  0
    0.2425   -1.4119   -0.5019 H   0  0  0  0  0  0  0  0  0  0  0  0
    4.2724    4.8413   -3.8381 H   0  0  0  0  0  0  0  0  0  0  0  0
    4.0785    3.1043   -4.2621 H   0  0  0  0  0  0  0  0  0  0  0  0
    5.6937    3.8142   -4.0601 H   0  0  0  0  0  0  0  0  0  0  0  0
    5.5697    0.2444   -5.7403 H   0  0  0  0  0  0  0  0  0  0  0  0
    5.7100   -1.2159   -4.7041 H   0  0  0  0  0  0  0  0  0  0  0  0
    5.9395    0.3968   -4.0069 H   0  0  0  0  0  0  0  0  0  0  0  0
    4.3458   -0.0892    0.4429 H   0  0  0  0  0  0  0  0  0  0  0  0
    4.6076   -0.2756   -1.3012 H   0  0  0  0  0  0  0  0  0  0  0  0
    0.9080    0.3900   -1.8145 H   0  0  0  0  0  0  0  0  0  0  0  0
    2.3476    1.2058   -2.3905 H   0  0  0  0  0  0  0  0  0  0  0  0
    5.5010    1.8822   -0.2246 H   0  0  0  0  0  0  0  0  0  0  0  0
    3.8194    2.3993   -0.0207 H   0  0  0  0  0  0  0  0  0  0  0  0
    1.5289   -0.6787   -3.8491 H   0  0  0  0  0  0  0  0  0  0  0  0
    1.9838   -1.8298   -2.5557 H   0  0  0  0  0  0  0  0  0  0  0  0
  1  8  1  0  0  0  0
  1 18  1  0  0  0  0
  2  9  1  0  0  0  0
  3 24  1  0  0  0  0
  3 10  1  0  0  0  0
  3 25  1  0  0  0  0
  4 26  1  0  0  0  0
  5 28  1  0  0  0  0
  5 11  1  0  0  0  0
  6  4  1  0  0  0  0
  6 30  1  0  0  0  0
  6 31  1  0  0  0  0
  7 33  1  0  0  0  0
  7  5  1  0  0  0  0
  8 12  2  0  0  0  0
  9 15  1  0  0  0  0
  9 13  2  0  0  0  0
 10 16  1  0  0  0  0
 11  4  1  0  0  0  0
 11  8  1  0  0  0  0
 14 10  2  0  0  0  0
 15  6  1  0  0  0  0
 16  7  1  0  0  0  0
 17  1  1  0  0  0  0
 19  1  1  0  0  0  0
 20  2  1  0  0  0  0
 21  2  1  0  0  0  0
 22  2  1  0  0  0  0
 23  3  1  0  0  0  0
 27  4  1  0  0  0  0
 29  5  1  0  0  0  0
 32  7  1  0  0  0  0
M  END
>  <HBA>
6

>  <HBD>
0

>  <TPSA>
72.91

>  <cid>
21430

>  <dipole>
3.69

>  <excitation_energy_1>
5.567

>  <excitation_energy_2>
5.673

>  <excitation_energy_3>
5.766

>  <excitation_energy_4>
5.832

>  <homo_energy>
-6.577

>  <homo_lumo_gap>
6.553

>  <logP>
-0.039

>  <lumo_energy>
-0.024

>  <melting_point>
19.69

>  <molecular_refractivity>
55.85

>  <oscillator_strength_1>
0.0007

>  <oscillator_strength_2>
0.0116

>  <oscillator_strength_3>
0.0007

>  <oscillator_strength_4>
0.005

>  <open_babel_can_smiles>
CC(=O)N(CCOC(=O)C)CCOC(=O)C

>  <mulliken_charges>
33
1   -0.552482
2   -0.5498
3   -0.533448
4   -0.180973
5   -0.185245
6   -0.044701
7   -0.046427
8   0.57956
9   0.607237
10   0.624404
11   -0.422679
12   -0.505756
13   -0.461123
14   -0.474929
15   -0.467577
16   -0.449825
17   0.17489
18   0.192139
19   0.162606
20   0.185398
21   0.20238
22   0.181984
23   0.184249
24   0.181782
25   0.192086
26   0.202765
27   0.16886
28   0.161748
29   0.200928
30   0.162078
31   0.177468
32   0.172413
33   0.159992

>  <lowdin_charges>
33
1   -0.476703
2   -0.473192
3   -0.466107
4   -0.215696
5   -0.215845
6   -0.133405
7   -0.141291
8   0.161594
9   0.204283
10   0.210515
11   -0.114884
12   -0.31191
13   -0.26101
14   -0.27256
15   -0.214815
16   -0.196552
17   0.16959
18   0.181447
19   0.162918
20   0.178313
21   0.183887
22   0.178298
23   0.176956
24   0.17533
25   0.184537
26   0.187098
27   0.159182
28   0.163553
29   0.17373
30   0.156665
31   0.164847
32   0.164361
33   0.156866

$$$$

