PCCDB-ID:  7677
public computational chemistry database (PCCDB) project, http://pccdb.org

 23 23  0  0  0  0  0  0  0  0999 V2000
    0.1630    1.1467   -1.1306 C   0  0  0  0  0  0  0  0  0  0  0  0
   -1.9038   -0.0604   -0.8584 C   0  0  0  0  0  0  0  0  0  0  0  0
    0.7333    0.4528    0.1059 C   0  0  0  0  0  0  0  0  0  0  0  0
   -1.3349   -0.7576    0.3768 C   0  0  0  0  0  0  0  0  0  0  0  0
    0.7190   -1.6448    1.3680 C   0  0  0  0  0  0  0  0  0  0  0  0
    0.5624   -3.1459    1.1021 C   0  0  0  0  0  0  0  0  0  0  0  0
   -1.2882    1.2592   -0.9884 N   0  0  0  0  0  0  0  0  0  0  0  0
    0.1256   -0.8727    0.2699 N   0  0  0  0  0  0  0  0  0  0  0  0
    1.0571   -3.4714   -0.1826 O   0  0  0  0  0  0  0  0  0  0  0  0
    0.4667    0.5708   -2.0257 H   0  0  0  0  0  0  0  0  0  0  0  0
    0.5913    2.1521   -1.2147 H   0  0  0  0  0  0  0  0  0  0  0  0
   -2.9867    0.0620   -0.7416 H   0  0  0  0  0  0  0  0  0  0  0  0
   -1.7278   -0.7082   -1.7385 H   0  0  0  0  0  0  0  0  0  0  0  0
    0.5547    1.0927    0.9900 H   0  0  0  0  0  0  0  0  0  0  0  0
    1.8158    0.3263   -0.0077 H   0  0  0  0  0  0  0  0  0  0  0  0
   -1.7675   -1.7597    0.4617 H   0  0  0  0  0  0  0  0  0  0  0  0
   -1.6225   -0.1863    1.2793 H   0  0  0  0  0  0  0  0  0  0  0  0
    1.7900   -1.4144    1.3914 H   0  0  0  0  0  0  0  0  0  0  0  0
    0.2973   -1.3715    2.3530 H   0  0  0  0  0  0  0  0  0  0  0  0
   -0.4930   -3.4502    1.2133 H   0  0  0  0  0  0  0  0  0  0  0  0
    1.1392   -3.7152    1.8399 H   0  0  0  0  0  0  0  0  0  0  0  0
   -1.6811    1.7509   -1.7880 H   0  0  0  0  0  0  0  0  0  0  0  0
    0.7834   -2.7143   -0.7359 H   0  0  0  0  0  0  0  0  0  0  0  0
  1  7  1  0  0  0  0
  1  3  1  0  0  0  0
  2 12  1  0  0  0  0
  2  4  1  0  0  0  0
  3  8  1  0  0  0  0
  3 14  1  0  0  0  0
  4 16  1  0  0  0  0
  4 17  1  0  0  0  0
  5 18  1  0  0  0  0
  5 19  1  0  0  0  0
  6 20  1  0  0  0  0
  6  5  1  0  0  0  0
  6 21  1  0  0  0  0
  7  2  1  0  0  0  0
  8  4  1  0  0  0  0
  8  5  1  0  0  0  0
  9  6  1  0  0  0  0
 10  1  1  0  0  0  0
 11  1  1  0  0  0  0
 13  2  1  0  0  0  0
 15  3  1  0  0  0  0
 22  7  1  0  0  0  0
 23  9  1  0  0  0  0
M  END
>  <HBA>
3

>  <HBD>
2

>  <TPSA>
35.5

>  <cid>
7677

>  <dipole>
2.27

>  <excitation_energy_1>
5.429

>  <excitation_energy_2>
5.691

>  <excitation_energy_3>
5.932

>  <excitation_energy_4>
6.068

>  <homo_energy>
-6.125

>  <homo_lumo_gap>
8.12

>  <logP>
-0.849

>  <lumo_energy>
1.995

>  <melting_point>
44.45

>  <molecular_refractivity>
43.53

>  <oscillator_strength_1>
0.0026

>  <oscillator_strength_2>
0.0033

>  <oscillator_strength_3>
0.0871

>  <oscillator_strength_4>
0.0109

>  <open_babel_can_smiles>
OCCN1CCNCC1

>  <mulliken_charges>
23
1   -0.135199
2   -0.134167
3   -0.112416
4   -0.120418
5   -0.143475
6   -0.019157
7   -0.551411
8   -0.427821
9   -0.629616
10   0.119261
11   0.139847
12   0.140184
13   0.119403
14   0.126561
15   0.141737
16   0.145647
17   0.12746
18   0.146612
19   0.119209
20   0.11621
21   0.139166
22   0.299431
23   0.392952

>  <lowdin_charges>
23
1   -0.207914
2   -0.206257
3   -0.202203
4   -0.206036
5   -0.218447
6   -0.138851
7   -0.368694
8   -0.196026
9   -0.479218
10   0.121593
11   0.148306
12   0.146888
13   0.121576
14   0.127683
15   0.146604
16   0.149379
17   0.127894
18   0.148534
19   0.127841
20   0.119033
21   0.146965
22   0.257212
23   0.334137

$$$$

