PCCDB-ID:  24976
public computational chemistry database (PCCDB) project, http://pccdb.org

 27 26  0  0  0  0  0  0  0  0999 V2000
    3.8231    4.4043    1.4594 C   0  0  0  0  0  0  0  0  0  0  0  0
    3.8111    3.1851    2.3690 C   0  0  0  0  0  0  0  0  0  0  0  0
    5.9329   -1.7266   -0.8363 C   0  0  0  0  0  0  0  0  0  0  0  0
    5.4200   -2.8235   -1.7765 C   0  0  0  0  0  0  0  0  0  0  0  0
    4.8262   -0.7634   -0.3900 C   0  0  0  0  0  0  0  0  0  0  0  0
    6.5493   -3.7771   -2.2210 C   0  0  0  0  0  0  0  0  0  0  0  0
    5.3389    0.3223    0.5581 C   0  0  0  0  0  0  0  0  0  0  0  0
    6.0797   -4.8340   -3.1219 C   0  0  0  0  0  0  0  0  0  0  0  0
    4.2599    1.3081    0.9675 C   0  0  0  0  0  0  0  0  0  0  0  0
    5.6913   -5.6641   -3.8345 N   0  0  0  0  0  0  0  0  0  0  0  0
    3.1314    1.3344    0.5242 O   0  0  0  0  0  0  0  0  0  0  0  0
    4.7296    2.1676    1.9002 O   0  0  0  0  0  0  0  0  0  0  0  0
    3.1784    5.1864    1.8767 H   0  0  0  0  0  0  0  0  0  0  0  0
    3.4481    4.1463    0.4649 H   0  0  0  0  0  0  0  0  0  0  0  0
    4.8358    4.8093    1.3628 H   0  0  0  0  0  0  0  0  0  0  0  0
    2.8102    2.7517    2.4361 H   0  0  0  0  0  0  0  0  0  0  0  0
    4.1685    3.4297    3.3724 H   0  0  0  0  0  0  0  0  0  0  0  0
    6.7314   -1.1603   -1.3385 H   0  0  0  0  0  0  0  0  0  0  0  0
    6.3975   -2.1908    0.0463 H   0  0  0  0  0  0  0  0  0  0  0  0
    4.9620   -2.3716   -2.6649 H   0  0  0  0  0  0  0  0  0  0  0  0
    4.6328   -3.4046   -1.2810 H   0  0  0  0  0  0  0  0  0  0  0  0
    4.0217   -1.3233    0.1030 H   0  0  0  0  0  0  0  0  0  0  0  0
    4.3666   -0.2887   -1.2650 H   0  0  0  0  0  0  0  0  0  0  0  0
    7.0139   -4.2494   -1.3459 H   0  0  0  0  0  0  0  0  0  0  0  0
    7.3413   -3.2140   -2.7313 H   0  0  0  0  0  0  0  0  0  0  0  0
    6.1534    0.8969    0.0950 H   0  0  0  0  0  0  0  0  0  0  0  0
    5.7694   -0.1114    1.4699 H   0  0  0  0  0  0  0  0  0  0  0  0
  1 13  1  0  0  0  0
  1  2  1  0  0  0  0
  2 16  1  0  0  0  0
  2 17  1  0  0  0  0
  3  5  1  0  0  0  0
  3 19  1  0  0  0  0
  4 21  1  0  0  0  0
  4  3  1  0  0  0  0
  5 22  1  0  0  0  0
  5  7  1  0  0  0  0
  6  4  1  0  0  0  0
  6 24  1  0  0  0  0
  7  9  1  0  0  0  0
  7 27  1  0  0  0  0
  8  6  1  0  0  0  0
  9 12  1  0  0  0  0
 10  8  3  0  0  0  0
 11  9  2  0  0  0  0
 12  2  1  0  0  0  0
 14  1  1  0  0  0  0
 15  1  1  0  0  0  0
 18  3  1  0  0  0  0
 20  4  1  0  0  0  0
 23  5  1  0  0  0  0
 25  6  1  0  0  0  0
 26  7  1  0  0  0  0
M  END
>  <HBA>
3

>  <HBD>
0

>  <TPSA>
50.09

>  <cid>
24976

>  <dipole>
5.51

>  <excitation_energy_1>
5.841

>  <excitation_energy_2>
7.023

>  <excitation_energy_3>
7.341

>  <excitation_energy_4>
7.555

>  <homo_energy>
-7.48

>  <homo_lumo_gap>
7.744

>  <logP>
2.024

>  <lumo_energy>
0.264

>  <melting_point>
17.79

>  <molecular_refractivity>
46.41

>  <oscillator_strength_1>
0.0006

>  <oscillator_strength_2>
0.0169

>  <oscillator_strength_3>
0.0007

>  <oscillator_strength_4>
0.0823

>  <open_babel_can_smiles>
CCOC(=O)CCCCCC#N

>  <mulliken_charges>
27
1   -0.462027
2   -0.044983
3   -0.260856
4   -0.263753
5   -0.25185
6   -0.340964
7   -0.364383
8   0.348715
9   0.626654
10   -0.473156
11   -0.479653
12   -0.464781
13   0.151961
14   0.1755
15   0.156855
16   0.171218
17   0.153129
18   0.134105
19   0.134325
20   0.160988
21   0.160606
22   0.151893
23   0.15726
24   0.190665
25   0.190721
26   0.171447
27   0.170363

>  <lowdin_charges>
27
1   -0.454971
2   -0.126985
3   -0.277521
4   -0.267125
5   -0.271787
6   -0.276015
7   -0.302141
8   -0.017209
9   0.196391
10   -0.129697
11   -0.267267
12   -0.197565
13   0.160719
14   0.164459
15   0.155155
16   0.158293
17   0.151736
18   0.141859
19   0.14152
20   0.1563
21   0.156644
22   0.153227
23   0.155652
24   0.179595
25   0.179936
26   0.169174
27   0.167623

$$$$

