PCCDB-ID:  31254
public computational chemistry database (PCCDB) project, http://pccdb.org

  9  8  0  0  0  0  0  0  0  0999 V2000
    0.9264   -0.0847    0.0030 C   0  0  0  0  0  0  0  0  0  0  0  0
    3.0082   -0.9335    0.6436 C   0  0  0  0  0  0  0  0  0  0  0  0
    2.3863   -0.0565   -0.0197 N   0  0  0  0  0  0  0  0  0  0  0  0
    4.3575   -0.9886    0.6821 O   0  0  0  0  0  0  0  0  0  0  0  0
    0.5453    0.7405   -0.6051 H   0  0  0  0  0  0  0  0  0  0  0  0
    0.5234    0.0361    1.0181 H   0  0  0  0  0  0  0  0  0  0  0  0
    0.5232   -1.0183   -0.4133 H   0  0  0  0  0  0  0  0  0  0  0  0
    2.5773   -1.7359    1.2531 H   0  0  0  0  0  0  0  0  0  0  0  0
    4.6691   -0.2516    0.1224 H   0  0  0  0  0  0  0  0  0  0  0  0
  1  6  1  0  0  0  0
  2  4  1  0  0  0  0
  2  8  1  0  0  0  0
  3  1  1  0  0  0  0
  3  2  2  0  0  0  0
  5  1  1  0  0  0  0
  7  1  1  0  0  0  0
  9  4  1  0  0  0  0
M  END
>  <HBA>
2

>  <HBD>
1

>  <TPSA>
29.1

>  <cid>
31254

>  <dipole>
0.81

>  <excitation_energy_1>
5.833

>  <excitation_energy_2>
6.683

>  <excitation_energy_3>
6.704

>  <excitation_energy_4>
6.864

>  <homo_energy>
-7.021

>  <homo_lumo_gap>
7.513

>  <logP>
0.389

>  <lumo_energy>
0.493

>  <melting_point>
24.66

>  <molecular_refractivity>
15.12

>  <oscillator_strength_1>
0.0005

>  <oscillator_strength_2>
0.0549

>  <oscillator_strength_3>
0.0001

>  <oscillator_strength_4>
0.0024

>  <open_babel_can_smiles>
C/N=C/O

>  <mulliken_charges>
9
1   -0.324138
2   0.288107
3   -0.406443
4   -0.557838
5   0.16332
6   0.148758
7   0.149406
8   0.133097
9   0.405733

>  <lowdin_charges>
9
1   -0.357989
2   0.015653
3   -0.23935
4   -0.362799
5   0.157391
6   0.144979
7   0.146359
8   0.138027
9   0.357731

$$$$

