PCCDB-ID:  70124
public computational chemistry database (PCCDB) project, http://pccdb.org

 18 18  0  0  1  0  0  0  0  0999 V2000
    1.0254   -0.5476   -0.2145 C   0  0  0  0  0  0  0  0  0  0  0  0
    4.7005   -0.4152   -0.5816 C   0  0  0  0  0  0  0  0  0  0  0  0
    4.3829    1.0693   -0.3206 C   0  0  0  0  0  0  0  0  0  0  0  0
    2.3313   -0.2612   -0.1428 C   0  0  0  0  0  0  0  0  0  0  0  0
    3.5102   -1.1901    0.0452 C   0  0  2  0  0  0  0  0  0  0  0  0
    2.8571    1.1450   -0.3196 C   0  0  0  0  0  0  0  0  0  0  0  0
    3.8132   -1.5510    1.5231 C   0  0  0  0  0  0  0  0  0  0  0  0
    2.1711    2.1372   -0.4507 O   0  0  0  0  0  0  0  0  0  0  0  0
    4.9131   -1.8747    1.8966 O   0  0  0  0  0  0  0  0  0  0  0  0
    2.7655   -1.5409    2.3740 O   0  0  0  0  0  0  0  0  0  0  0  0
    0.6383   -1.5624   -0.1514 H   0  0  0  0  0  0  0  0  0  0  0  0
    0.3100    0.2565   -0.3691 H   0  0  0  0  0  0  0  0  0  0  0  0
    5.6458   -0.7435   -0.1469 H   0  0  0  0  0  0  0  0  0  0  0  0
    4.7305   -0.6096   -1.6591 H   0  0  0  0  0  0  0  0  0  0  0  0
    4.8102    1.7663   -1.0463 H   0  0  0  0  0  0  0  0  0  0  0  0
    4.7378    1.3784    0.6735 H   0  0  0  0  0  0  0  0  0  0  0  0
    3.3520   -2.1548   -0.4536 H   0  0  0  0  0  0  0  0  0  0  0  0
    1.9839   -1.1738    1.9207 H   0  0  0  0  0  0  0  0  0  0  0  0
  1 11  1  0  0  0  0
  1  4  2  0  0  0  0
  2  3  1  0  0  0  0
  2 13  1  0  0  0  0
  2  5  1  0  0  0  0
  3  6  1  0  0  0  0
  3 16  1  0  0  0  0
  4  5  1  0  0  0  0
  5 17  1  6  0  0  0
  5  7  1  0  0  0  0
  6  4  1  0  0  0  0
  7  9  2  0  0  0  0
  7 10  1  0  0  0  0
  8  6  2  0  0  0  0
 12  1  1  0  0  0  0
 14  2  1  0  0  0  0
 15  3  1  0  0  0  0
 18 10  1  0  0  0  0
M  END
>  <HBA>
3

>  <HBD>
1

>  <TPSA>
54.37

>  <cid>
70124

>  <dipole>
2.99

>  <excitation_energy_1>
3.347

>  <excitation_energy_2>
4.552

>  <excitation_energy_3>
5.607

>  <excitation_energy_4>
5.759

>  <homo_energy>
-7.097

>  <homo_lumo_gap>
4.865

>  <logP>
0.606

>  <lumo_energy>
-2.231

>  <melting_point>
76.72

>  <molecular_refractivity>
35.15

>  <oscillator_strength_1>
0.0003

>  <oscillator_strength_2>
0.0379

>  <oscillator_strength_3>
0.0026

>  <oscillator_strength_4>
0.0619

>  <open_babel_can_smiles>
OC(=O)[C@@H]1CCC(=O)C1=C

>  <mulliken_charges>
18
1   -0.397896
2   -0.294618
3   -0.369925
4   0.103535
5   -0.293087
6   0.419318
7   0.600801
8   -0.444778
9   -0.438659
10   -0.565255
11   0.16772
12   0.190839
13   0.190446
14   0.15546
15   0.182395
16   0.190301
17   0.190766
18   0.412637

>  <lowdin_charges>
18
1   -0.29722
2   -0.272869
3   -0.314066
4   -0.059082
5   -0.173449
6   0.153477
7   0.187435
8   -0.218596
9   -0.237228
10   -0.346354
11   0.169501
12   0.186888
13   0.174647
14   0.152223
15   0.176619
16   0.177896
17   0.18028
18   0.3599

$$$$

