PCCDB-ID:  14909
public computational chemistry database (PCCDB) project, http://pccdb.org

 27 27  0  0  1  0  0  0  0  0999 V2000
    0.6537   -0.3167   -0.6055 C   0  0  0  0  0  0  0  0  0  0  0  0
    2.0803   -3.8302   -4.0519 C   0  0  0  0  0  0  0  0  0  0  0  0
    3.0323   -3.6556   -3.0477 C   0  0  0  0  0  0  0  0  0  0  0  0
    1.0759   -2.8740   -4.2219 C   0  0  0  0  0  0  0  0  0  0  0  0
    2.9788   -2.5312   -2.2208 C   0  0  0  0  0  0  0  0  0  0  0  0
    1.0264   -1.7555   -3.3910 C   0  0  0  0  0  0  0  0  0  0  0  0
    3.2769    1.1381   -2.9468 C   0  0  0  0  0  0  0  0  0  0  0  0
    3.4004    2.6231   -3.2921 C   0  0  0  0  0  0  0  0  0  0  0  0
    1.9254   -0.3398   -1.4642 C   0  0  1  0  0  0  0  0  0  0  0  0
    1.9762   -1.5673   -2.3761 C   0  0  0  0  0  0  0  0  0  0  0  0
    2.0475    0.9494   -2.1662 N   0  0  0  0  0  0  0  0  0  0  0  0
    3.3427    3.4166   -2.1228 O   0  0  0  0  0  0  0  0  0  0  0  0
    0.5640   -1.2365   -0.0188 H   0  0  0  0  0  0  0  0  0  0  0  0
   -0.2448   -0.2345   -1.2297 H   0  0  0  0  0  0  0  0  0  0  0  0
    0.6745    0.5403    0.0750 H   0  0  0  0  0  0  0  0  0  0  0  0
    2.1193   -4.7028   -4.6984 H   0  0  0  0  0  0  0  0  0  0  0  0
    3.8198   -4.3917   -2.9081 H   0  0  0  0  0  0  0  0  0  0  0  0
    0.3294   -3.0011   -5.0018 H   0  0  0  0  0  0  0  0  0  0  0  0
    3.7261   -2.4010   -1.4405 H   0  0  0  0  0  0  0  0  0  0  0  0
    0.2356   -1.0218   -3.5372 H   0  0  0  0  0  0  0  0  0  0  0  0
    4.1200    0.8537   -2.3056 H   0  0  0  0  0  0  0  0  0  0  0  0
    3.3275    0.5175   -3.8564 H   0  0  0  0  0  0  0  0  0  0  0  0
    2.6025    2.9015   -4.0063 H   0  0  0  0  0  0  0  0  0  0  0  0
    4.3590    2.8208   -3.7846 H   0  0  0  0  0  0  0  0  0  0  0  0
    2.7890   -0.3967   -0.7888 H   0  0  0  0  0  0  0  0  0  0  0  0
    1.2406    1.0734   -2.7793 H   0  0  0  0  0  0  0  0  0  0  0  0
    2.6670    2.9751   -1.5736 H   0  0  0  0  0  0  0  0  0  0  0  0
  1 13  1  0  0  0  0
  1 15  1  0  0  0  0
  2  3  1  0  0  0  0
  3 17  1  0  0  0  0
  3  5  2  0  0  0  0
  4  2  2  0  0  0  0
  4  6  1  0  0  0  0
  5 19  1  0  0  0  0
  6 10  2  0  0  0  0
  7 21  1  0  0  0  0
  7 11  1  0  0  0  0
  8  7  1  0  0  0  0
  8 12  1  0  0  0  0
  9 25  1  1  0  0  0
  9  1  1  0  0  0  0
 10  5  1  0  0  0  0
 10  9  1  0  0  0  0
 11  9  1  0  0  0  0
 12 27  1  0  0  0  0
 14  1  1  0  0  0  0
 16  2  1  0  0  0  0
 18  4  1  0  0  0  0
 20  6  1  0  0  0  0
 22  7  1  0  0  0  0
 23  8  1  0  0  0  0
 24  8  1  0  0  0  0
 26 11  1  0  0  0  0
M  END
>  <HBA>
2

>  <HBD>
2

>  <TPSA>
32.26

>  <cid>
14909

>  <dipole>
3.01

>  <excitation_energy_1>
5.188

>  <excitation_energy_2>
5.314

>  <excitation_energy_3>
5.523

>  <excitation_energy_4>
5.716

>  <homo_energy>
-6.329

>  <homo_lumo_gap>
6.142

>  <logP>
1.72

>  <lumo_energy>
-0.188

>  <melting_point>
50.96

>  <molecular_refractivity>
49.79

>  <oscillator_strength_1>
0.0022

>  <oscillator_strength_2>
0.0258

>  <oscillator_strength_3>
0.0226

>  <oscillator_strength_4>
0.0043

>  <open_babel_can_smiles>
OCCN[C@H](c1ccccc1)C

>  <mulliken_charges>
27
1   -0.445147
2   -0.130925
3   -0.124642
4   -0.128132
5   -0.195217
6   -0.190981
7   -0.150767
8   -0.017323
9   -0.057021
10   0.186724
11   -0.56828
12   -0.629684
13   0.154879
14   0.14063
15   0.157195
16   0.131107
17   0.131414
18   0.130884
19   0.126803
20   0.117452
21   0.14932
22   0.132298
23   0.107187
24   0.140001
25   0.139309
26   0.295104
27   0.397811

>  <lowdin_charges>
27
1   -0.444997
2   -0.158931
3   -0.153974
4   -0.153548
5   -0.168842
6   -0.169207
7   -0.227491
8   -0.137695
9   -0.059712
10   -0.016952
11   -0.358872
12   -0.478869
13   0.15803
14   0.147623
15   0.157875
16   0.158773
17   0.159159
18   0.158449
19   0.155582
20   0.150252
21   0.149068
22   0.134002
23   0.11838
24   0.14574
25   0.145945
26   0.252171
27   0.338039

$$$$

