PCCDB-ID:  37521
public computational chemistry database (PCCDB) project, http://pccdb.org

 24 23  0  0  0  0  0  0  0  0999 V2000
    3.1133    0.7439    0.9386 C   0  0  0  0  0  0  0  0  0  0  0  0
    2.3372   -2.0575   -2.6316 C   0  0  0  0  0  0  0  0  0  0  0  0
    6.4194   -2.6260   -0.0632 C   0  0  0  0  0  0  0  0  0  0  0  0
    2.4841   -0.0741   -0.1927 C   0  0  0  0  0  0  0  0  0  0  0  0
    2.0954   -2.4245   -1.1633 C   0  0  0  0  0  0  0  0  0  0  0  0
    4.9184   -2.7955    0.1131 C   0  0  0  0  0  0  0  0  0  0  0  0
    2.8686   -1.5572   -0.1501 C   0  0  0  0  0  0  0  0  0  0  0  0
    4.2815   -1.6215   -0.3641 O   0  0  0  0  0  0  0  0  0  0  0  0
    2.8429    1.8028    0.8590 H   0  0  0  0  0  0  0  0  0  0  0  0
    4.2039    0.6652    0.9064 H   0  0  0  0  0  0  0  0  0  0  0  0
    2.7774    0.3872    1.9206 H   0  0  0  0  0  0  0  0  0  0  0  0
    1.8456   -2.7751   -3.2979 H   0  0  0  0  0  0  0  0  0  0  0  0
    3.4083   -2.0593   -2.8580 H   0  0  0  0  0  0  0  0  0  0  0  0
    1.9465   -1.0630   -2.8734 H   0  0  0  0  0  0  0  0  0  0  0  0
    6.9511   -3.5126    0.3000 H   0  0  0  0  0  0  0  0  0  0  0  0
    6.7747   -1.7530    0.4940 H   0  0  0  0  0  0  0  0  0  0  0  0
    6.6677   -2.4810   -1.1197 H   0  0  0  0  0  0  0  0  0  0  0  0
    2.7901    0.3409   -1.1607 H   0  0  0  0  0  0  0  0  0  0  0  0
    1.3891    0.0002   -0.1479 H   0  0  0  0  0  0  0  0  0  0  0  0
    2.3674   -3.4763   -1.0045 H   0  0  0  0  0  0  0  0  0  0  0  0
    1.0252   -2.3537   -0.9248 H   0  0  0  0  0  0  0  0  0  0  0  0
    4.6693   -2.9534    1.1763 H   0  0  0  0  0  0  0  0  0  0  0  0
    4.5718   -3.6856   -0.4359 H   0  0  0  0  0  0  0  0  0  0  0  0
    2.6500   -1.9419    0.8624 H   0  0  0  0  0  0  0  0  0  0  0  0
  1 11  1  0  0  0  0
  2  5  1  0  0  0  0
  3  6  1  0  0  0  0
  3 15  1  0  0  0  0
  3 16  1  0  0  0  0
  4  7  1  0  0  0  0
  4 19  1  0  0  0  0
  4  1  1  0  0  0  0
  5 20  1  0  0  0  0
  5 21  1  0  0  0  0
  5  7  1  0  0  0  0
  6 22  1  0  0  0  0
  7 24  1  0  0  0  0
  8  7  1  0  0  0  0
  8  6  1  0  0  0  0
  9  1  1  0  0  0  0
 10  1  1  0  0  0  0
 12  2  1  0  0  0  0
 13  2  1  0  0  0  0
 14  2  1  0  0  0  0
 17  3  1  0  0  0  0
 18  4  1  0  0  0  0
 23  6  1  0  0  0  0
M  END
>  <HBA>
1

>  <HBD>
0

>  <TPSA>
9.23

>  <cid>
37521

>  <dipole>
1.01

>  <excitation_energy_1>
6.258

>  <excitation_energy_2>
6.707

>  <excitation_energy_3>
6.732

>  <excitation_energy_4>
6.795

>  <homo_energy>
-6.672

>  <homo_lumo_gap>
8.925

>  <logP>
2.212

>  <lumo_energy>
2.253

>  <melting_point>
-36.18

>  <molecular_refractivity>
36.85

>  <oscillator_strength_1>
0.0126

>  <oscillator_strength_2>
0.0094

>  <oscillator_strength_3>
0.004

>  <oscillator_strength_4>
0.0028

>  <open_babel_can_smiles>
CCOC(CC)CC

>  <mulliken_charges>
24
1   -0.446901
2   -0.44788
3   -0.453007
4   -0.263862
5   -0.271509
6   -0.005484
7   0.166495
8   -0.48574
9   0.138788
10   0.162009
11   0.134419
12   0.138909
13   0.159131
14   0.145309
15   0.140687
16   0.156221
17   0.156826
18   0.146611
19   0.127448
20   0.132101
21   0.129569
22   0.117254
23   0.120891
24   0.101714

>  <lowdin_charges>
24
1   -0.442164
2   -0.448026
3   -0.448542
4   -0.277841
5   -0.286187
6   -0.124569
7   0.00481
8   -0.27785
9   0.146804
10   0.154505
11   0.142562
12   0.150162
13   0.153545
14   0.147276
15   0.153189
16   0.156168
17   0.154713
18   0.149364
19   0.140531
20   0.140331
21   0.142066
22   0.122622
23   0.125373
24   0.121163

$$$$

