PCCDB-ID:  14045
public computational chemistry database (PCCDB) project, http://pccdb.org

 29 28  0  0  1  0  0  0  0  0999 V2000
    1.4953   -4.1870    0.1437 C   0  0  0  0  0  0  0  0  0  0  0  0
    1.6146   -2.2764   -1.4984 C   0  0  0  0  0  0  0  0  0  0  0  0
    6.3344   -2.6807   -2.9274 C   0  0  0  0  0  0  0  0  0  0  0  0
    6.4131   -4.3009   -0.9931 C   0  0  0  0  0  0  0  0  0  0  0  0
    5.7375   -1.4717   -0.0236 C   0  0  0  0  0  0  0  0  0  0  0  0
    3.6491   -2.8847   -0.0694 C   0  0  0  0  0  0  0  0  0  0  0  0
    2.4039   -3.4066   -0.8190 C   0  0  0  0  0  0  0  0  0  0  0  0
    5.5236   -3.3385   -1.7981 C   0  0  0  0  0  0  0  0  0  0  0  0
    4.7869   -2.2805   -0.9248 C   0  0  2  0  0  0  0  0  0  0  0  0
    0.6084   -4.5748   -0.3717 H   0  0  0  0  0  0  0  0  0  0  0  0
    1.1476   -3.5436    0.9628 H   0  0  0  0  0  0  0  0  0  0  0  0
    2.0230   -5.0378    0.5912 H   0  0  0  0  0  0  0  0  0  0  0  0
    0.7322   -2.6710   -2.0162 H   0  0  0  0  0  0  0  0  0  0  0  0
    2.2160   -1.7372   -2.2383 H   0  0  0  0  0  0  0  0  0  0  0  0
    1.2652   -1.5458   -0.7567 H   0  0  0  0  0  0  0  0  0  0  0  0
    6.7755   -3.4398   -3.5845 H   0  0  0  0  0  0  0  0  0  0  0  0
    7.1584   -2.0721   -2.5358 H   0  0  0  0  0  0  0  0  0  0  0  0
    5.7036   -2.0304   -3.5454 H   0  0  0  0  0  0  0  0  0  0  0  0
    6.8202   -5.0813   -1.6469 H   0  0  0  0  0  0  0  0  0  0  0  0
    5.8622   -4.8019   -0.1891 H   0  0  0  0  0  0  0  0  0  0  0  0
    7.2637   -3.7784   -0.5397 H   0  0  0  0  0  0  0  0  0  0  0  0
    5.2041   -0.6340    0.4409 H   0  0  0  0  0  0  0  0  0  0  0  0
    6.5818   -1.0541   -0.5831 H   0  0  0  0  0  0  0  0  0  0  0  0
    6.1456   -2.0870    0.7872 H   0  0  0  0  0  0  0  0  0  0  0  0
    4.0593   -3.7008    0.5426 H   0  0  0  0  0  0  0  0  0  0  0  0
    3.3117   -2.1212    0.6483 H   0  0  0  0  0  0  0  0  0  0  0  0
    2.7310   -4.1068   -1.6014 H   0  0  0  0  0  0  0  0  0  0  0  0
    4.7462   -3.9452   -2.2841 H   0  0  0  0  0  0  0  0  0  0  0  0
    4.3320   -1.5674   -1.6278 H   0  0  0  0  0  0  0  0  0  0  0  0
  1 12  1  0  0  0  0
  1 11  1  0  0  0  0
  2  7  1  0  0  0  0
  2 15  1  0  0  0  0
  3 17  1  0  0  0  0
  3  8  1  0  0  0  0
  4 21  1  0  0  0  0
  4 20  1  0  0  0  0
  5 22  1  0  0  0  0
  5 24  1  0  0  0  0
  6 25  1  0  0  0  0
  6 26  1  0  0  0  0
  7  6  1  0  0  0  0
  7  1  1  0  0  0  0
  8  4  1  0  0  0  0
  8  9  1  0  0  0  0
  9 29  1  6  0  0  0
  9  6  1  0  0  0  0
  9  5  1  0  0  0  0
 10  1  1  0  0  0  0
 13  2  1  0  0  0  0
 14  2  1  0  0  0  0
 16  3  1  0  0  0  0
 18  3  1  0  0  0  0
 19  4  1  0  0  0  0
 23  5  1  0  0  0  0
 27  7  1  0  0  0  0
 28  8  1  0  0  0  0
M  END
>  <HBA>
0

>  <HBD>
0

>  <TPSA>
0.0

>  <cid>
14045

>  <dipole>
0.11

>  <excitation_energy_1>
7.486

>  <excitation_energy_2>
7.589

>  <excitation_energy_3>
7.723

>  <excitation_energy_4>
7.866

>  <homo_energy>
-7.987

>  <homo_lumo_gap>
10.044

>  <logP>
3.325

>  <lumo_energy>
2.057

>  <melting_point>
-28.56

>  <molecular_refractivity>
45.38

>  <oscillator_strength_1>
0.0147

>  <oscillator_strength_2>
0.0035

>  <oscillator_strength_3>
0.0064

>  <oscillator_strength_4>
0.0045

>  <open_babel_can_smiles>
CC(C[C@H](C(C)C)C)C

>  <mulliken_charges>
29
1   -0.4416
2   -0.444453
3   -0.448453
4   -0.452187
5   -0.459633
6   -0.256099
7   -0.073805
8   -0.07095
9   -0.068258
10   0.137996
11   0.137745
12   0.138475
13   0.13885
14   0.143931
15   0.137364
16   0.138451
17   0.141294
18   0.137838
19   0.138989
20   0.142627
21   0.143464
22   0.139656
23   0.141656
24   0.143124
25   0.1253
26   0.120932
27   0.125488
28   0.123935
29   0.118325

>  <lowdin_charges>
29
1   -0.445561
2   -0.449563
3   -0.449156
4   -0.451537
5   -0.450451
6   -0.280483
7   -0.124587
8   -0.126255
9   -0.129091
10   0.147225
11   0.1456
12   0.147306
13   0.148222
14   0.148632
15   0.145708
16   0.148653
17   0.145926
18   0.147446
19   0.149575
20   0.148046
21   0.147999
22   0.149284
23   0.148085
24   0.147731
25   0.139898
26   0.139454
27   0.13625
28   0.138319
29   0.137322

$$$$

