PCCDB-ID:  17004
public computational chemistry database (PCCDB) project, http://pccdb.org

 28 28  0  0  0  0  0  0  0  0999 V2000
    0.9943   -0.0053    0.4681 C   0  0  0  0  0  0  0  0  0  0  0  0
    5.8503   -2.6782   -2.0049 C   0  0  0  0  0  0  0  0  0  0  0  0
    6.5215   -2.4834    0.4324 C   0  0  0  0  0  0  0  0  0  0  0  0
    4.4536   -3.7118   -0.2199 C   0  0  0  0  0  0  0  0  0  0  0  0
    3.0801    1.2556   -0.2345 C   0  0  0  0  0  0  0  0  0  0  0  0
    4.4215    1.2712   -0.6126 C   0  0  0  0  0  0  0  0  0  0  0  0
    3.1991   -1.1309   -0.0688 C   0  0  0  0  0  0  0  0  0  0  0  0
    2.4453    0.0475    0.0467 C   0  0  0  0  0  0  0  0  0  0  0  0
    4.5466   -1.1658   -0.4460 C   0  0  0  0  0  0  0  0  0  0  0  0
    5.1487    0.0857   -0.7179 C   0  0  0  0  0  0  0  0  0  0  0  0
    5.3311   -2.4895   -0.5581 C   0  0  0  0  0  0  0  0  0  0  0  0
    6.4739    0.1232   -1.0916 O   0  0  0  0  0  0  0  0  0  0  0  0
    0.5413    0.9914    0.4531 H   0  0  0  0  0  0  0  0  0  0  0  0
    0.8820   -0.4039    1.4846 H   0  0  0  0  0  0  0  0  0  0  0  0
    0.4026   -0.6488   -0.1952 H   0  0  0  0  0  0  0  0  0  0  0  0
    6.4005   -3.6241   -2.0841 H   0  0  0  0  0  0  0  0  0  0  0  0
    6.5181   -1.8675   -2.3027 H   0  0  0  0  0  0  0  0  0  0  0  0
    5.0149   -2.7153   -2.7140 H   0  0  0  0  0  0  0  0  0  0  0  0
    7.0767   -3.4270    0.3583 H   0  0  0  0  0  0  0  0  0  0  0  0
    6.1642   -2.3842    1.4643 H   0  0  0  0  0  0  0  0  0  0  0  0
    7.2134   -1.6635    0.2288 H   0  0  0  0  0  0  0  0  0  0  0  0
    5.0537   -4.6236   -0.3165 H   0  0  0  0  0  0  0  0  0  0  0  0
    3.5993   -3.8075   -0.9000 H   0  0  0  0  0  0  0  0  0  0  0  0
    4.0735   -3.6758    0.8075 H   0  0  0  0  0  0  0  0  0  0  0  0
    2.5328    2.1923   -0.1600 H   0  0  0  0  0  0  0  0  0  0  0  0
    4.9136    2.2182   -0.8328 H   0  0  0  0  0  0  0  0  0  0  0  0
    2.6958   -2.0670    0.1485 H   0  0  0  0  0  0  0  0  0  0  0  0
    6.7224    1.0490   -1.2383 H   0  0  0  0  0  0  0  0  0  0  0  0
  1 14  1  0  0  0  0
  2 11  1  0  0  0  0
  3 20  1  0  0  0  0
  4 24  1  0  0  0  0
  5 25  1  0  0  0  0
  5  8  2  0  0  0  0
  6  5  1  0  0  0  0
  7  8  1  0  0  0  0
  7 27  1  0  0  0  0
  8  1  1  0  0  0  0
  9  7  2  0  0  0  0
 10  6  2  0  0  0  0
 10  9  1  0  0  0  0
 11  9  1  0  0  0  0
 11  4  1  0  0  0  0
 11  3  1  0  0  0  0
 12 10  1  0  0  0  0
 13  1  1  0  0  0  0
 15  1  1  0  0  0  0
 16  2  1  0  0  0  0
 17  2  1  0  0  0  0
 18  2  1  0  0  0  0
 19  3  1  0  0  0  0
 21  3  1  0  0  0  0
 22  4  1  0  0  0  0
 23  4  1  0  0  0  0
 26  6  1  0  0  0  0
 28 12  1  0  0  0  0
M  END
>  <HBA>
1

>  <HBD>
1

>  <TPSA>
20.23

>  <cid>
17004

>  <dipole>
1.3

>  <excitation_energy_1>
4.897

>  <excitation_energy_2>
4.973

>  <excitation_energy_3>
5.525

>  <excitation_energy_4>
5.579

>  <homo_energy>
-5.665

>  <homo_lumo_gap>
5.823

>  <logP>
2.998

>  <lumo_energy>
0.158

>  <melting_point>
57.92

>  <molecular_refractivity>
52.7

>  <oscillator_strength_1>
0.0531

>  <oscillator_strength_2>
0.0001

>  <oscillator_strength_3>
0.0005

>  <oscillator_strength_4>
0.0378

>  <open_babel_can_smiles>
Cc1ccc(c(c1)C(C)(C)C)O

>  <mulliken_charges>
28
1   -0.530266
2   -0.45078
3   -0.450367
4   -0.45534
5   -0.195962
6   -0.187123
7   -0.270472
8   0.190373
9   0.149484
10   0.287434
11   0.032975
12   -0.647958
13   0.150852
14   0.158952
15   0.157782
16   0.131191
17   0.170185
18   0.137153
19   0.131274
20   0.137179
21   0.169731
22   0.140155
23   0.142526
24   0.142425
25   0.119816
26   0.111329
27   0.121251
28   0.4062

>  <lowdin_charges>
28
1   -0.441649
2   -0.447767
3   -0.445535
4   -0.443406
5   -0.163715
6   -0.213032
7   -0.170557
8   -0.017855
9   -0.026044
10   0.09536
11   0.022648
12   -0.38317
13   0.154119
14   0.157033
15   0.158833
16   0.143553
17   0.16198
18   0.14695
19   0.1436
20   0.145353
21   0.16152
22   0.150274
23   0.14787
24   0.146376
25   0.154206
26   0.149958
27   0.158862
28   0.354232

$$$$

