PCCDB-ID:  20929
public computational chemistry database (PCCDB) project, http://pccdb.org

 19 18  0  0  1  0  0  0  0  0999 V2000
    4.3800    1.3276   -1.8409 C   0  0  0  0  0  0  0  0  0  0  0  0
    3.8294    3.7292    1.2531 C   0  0  0  0  0  0  0  0  0  0  0  0
    1.3765    3.2437    1.6672 C   0  0  0  0  0  0  0  0  0  0  0  0
    3.7933    1.2696   -0.6453 C   0  0  0  0  0  0  0  0  0  0  0  0
    2.7162    2.6726    1.1847 C   0  0  0  0  0  0  0  0  0  0  0  0
    2.5734    2.0663   -0.2377 C   0  0  1  0  0  0  0  0  0  0  0  0
    2.2132    3.0475   -1.2069 O   0  0  0  0  0  0  0  0  0  0  0  0
    5.2566    0.7304   -2.0752 H   0  0  0  0  0  0  0  0  0  0  0  0
    3.9878    1.9599   -2.6328 H   0  0  0  0  0  0  0  0  0  0  0  0
    3.9643    4.0842    2.2807 H   0  0  0  0  0  0  0  0  0  0  0  0
    3.5795    4.6060    0.6417 H   0  0  0  0  0  0  0  0  0  0  0  0
    4.7899    3.3333    0.9040 H   0  0  0  0  0  0  0  0  0  0  0  0
    1.4707    3.6770    2.6695 H   0  0  0  0  0  0  0  0  0  0  0  0
    0.6042    2.4660    1.7079 H   0  0  0  0  0  0  0  0  0  0  0  0
    1.0259    4.0260    0.9857 H   0  0  0  0  0  0  0  0  0  0  0  0
    4.1928    0.6044    0.1213 H   0  0  0  0  0  0  0  0  0  0  0  0
    2.9967    1.8409    1.8489 H   0  0  0  0  0  0  0  0  0  0  0  0
    1.7113    1.3838   -0.2147 H   0  0  0  0  0  0  0  0  0  0  0  0
    2.9882    3.6193   -1.3320 H   0  0  0  0  0  0  0  0  0  0  0  0
  1  4  2  0  0  0  0
  2 10  1  0  0  0  0
  3 14  1  0  0  0  0
  3 13  1  0  0  0  0
  4  6  1  0  0  0  0
  4 16  1  0  0  0  0
  5  2  1  0  0  0  0
  5  3  1  0  0  0  0
  5 17  1  0  0  0  0
  6 18  1  1  0  0  0
  6  5  1  0  0  0  0
  7  6  1  0  0  0  0
  8  1  1  0  0  0  0
  9  1  1  0  0  0  0
 11  2  1  0  0  0  0
 12  2  1  0  0  0  0
 15  3  1  0  0  0  0
 19  7  1  0  0  0  0
M  END
>  <HBA>
1

>  <HBD>
1

>  <TPSA>
20.23

>  <cid>
20929

>  <dipole>
1.55

>  <excitation_energy_1>
6.318

>  <excitation_energy_2>
6.405

>  <excitation_energy_3>
6.731

>  <excitation_energy_4>
6.863

>  <homo_energy>
-6.914

>  <homo_lumo_gap>
7.366

>  <logP>
1.189

>  <lumo_energy>
0.452

>  <melting_point>
-28.54

>  <molecular_refractivity>
31.64

>  <oscillator_strength_1>
0.0307

>  <oscillator_strength_2>
0.0596

>  <oscillator_strength_3>
0.0065

>  <oscillator_strength_4>
0.0212

>  <open_babel_can_smiles>
C=C[C@@H](C(C)C)O

>  <mulliken_charges>
19
1   -0.350376
2   -0.465625
3   -0.446191
4   -0.080805
5   -0.084187
6   0.108713
7   -0.625529
8   0.141093
9   0.14496
10   0.14905
11   0.137368
12   0.150044
13   0.138254
14   0.138797
15   0.159767
16   0.126801
17   0.120558
18   0.147737
19   0.389572

>  <lowdin_charges>
19
1   -0.344626
2   -0.453756
3   -0.446953
4   -0.170121
5   -0.137847
6   -0.00409
7   -0.453946
8   0.160701
9   0.160777
10   0.153383
11   0.144118
12   0.151932
13   0.146989
14   0.148129
15   0.157227
16   0.154606
17   0.139232
18   0.153143
19   0.341102

$$$$

