PCCDB-ID:  69915
public computational chemistry database (PCCDB) project, http://pccdb.org

 28 28  0  0  0  0  0  0  0  0999 V2000
    3.8996    0.4988    3.2365 C   0  0  0  0  0  0  0  0  0  0  0  0
    3.5833   -0.8520    2.6138 C   0  0  0  0  0  0  0  0  0  0  0  0
    6.9008   -0.7146   -5.1449 C   0  0  0  0  0  0  0  0  0  0  0  0
    6.9083    0.6671   -5.3399 C   0  0  0  0  0  0  0  0  0  0  0  0
    6.7686   -1.2384   -3.8603 C   0  0  0  0  0  0  0  0  0  0  0  0
    6.7821    1.5112   -4.2432 C   0  0  0  0  0  0  0  0  0  0  0  0
    6.5028   -1.0627   -1.3726 C   0  0  0  0  0  0  0  0  0  0  0  0
    6.6312   -0.4206   -2.7317 C   0  0  0  0  0  0  0  0  0  0  0  0
    6.6384    0.9688   -2.9639 C   0  0  0  0  0  0  0  0  0  0  0  0
    5.0846   -0.9772   -0.8103 C   0  0  0  0  0  0  0  0  0  0  0  0
    5.0116   -1.0475    0.7315 C   0  0  0  0  0  0  0  0  0  0  0  0
    6.5008    1.9375   -1.8629 N   0  0  0  0  0  0  0  0  0  0  0  0
    4.0874   -0.9283   -1.4904 O   0  0  0  0  0  0  0  0  0  0  0  0
    5.9810   -1.3070    1.4151 O   0  0  0  0  0  0  0  0  0  0  0  0
    6.7903    3.1103   -2.0912 O   0  0  0  0  0  0  0  0  0  0  0  0
    6.0991    1.5353   -0.7662 O   0  0  0  0  0  0  0  0  0  0  0  0
    3.7752   -0.8198    1.1745 O   0  0  0  0  0  0  0  0  0  0  0  0
    3.6888    0.4666    4.3115 H   0  0  0  0  0  0  0  0  0  0  0  0
    3.2877    1.2870    2.7871 H   0  0  0  0  0  0  0  0  0  0  0  0
    4.9551    0.7509    3.1010 H   0  0  0  0  0  0  0  0  0  0  0  0
    2.5304   -1.1162    2.7336 H   0  0  0  0  0  0  0  0  0  0  0  0
    4.2095   -1.6437    3.0325 H   0  0  0  0  0  0  0  0  0  0  0  0
    6.9984   -1.3872   -5.9922 H   0  0  0  0  0  0  0  0  0  0  0  0
    7.0098    1.0860   -6.3362 H   0  0  0  0  0  0  0  0  0  0  0  0
    6.7690   -2.3156   -3.7194 H   0  0  0  0  0  0  0  0  0  0  0  0
    6.7896    2.5880   -4.3533 H   0  0  0  0  0  0  0  0  0  0  0  0
    7.1968   -0.6447   -0.6420 H   0  0  0  0  0  0  0  0  0  0  0  0
    6.7478   -2.1306   -1.4571 H   0  0  0  0  0  0  0  0  0  0  0  0
  1 18  1  0  0  0  0
  2 21  1  0  0  0  0
  2 22  1  0  0  0  0
  2  1  1  0  0  0  0
  3  5  1  0  0  0  0
  4  3  2  0  0  0  0
  4  6  1  0  0  0  0
  5 25  1  0  0  0  0
  5  8  2  0  0  0  0
  6  9  2  0  0  0  0
  7 10  1  0  0  0  0
  7 27  1  0  0  0  0
  8  7  1  0  0  0  0
  9  8  1  0  0  0  0
  9 12  1  0  0  0  0
 10 11  1  0  0  0  0
 11 17  1  0  0  0  0
 11 14  2  0  0  0  0
 12 16  2  0  0  0  0
 13 10  2  0  0  0  0
 15 12  2  0  0  0  0
 17  2  1  0  0  0  0
 19  1  1  0  0  0  0
 20  1  1  0  0  0  0
 23  3  1  0  0  0  0
 24  4  1  0  0  0  0
 26  6  1  0  0  0  0
 28  7  1  0  0  0  0
M  END
>  <HBA>
3

>  <HBD>
0

>  <TPSA>
89.19

>  <cid>
69915

>  <dipole>
2.99

>  <excitation_energy_1>
3.349

>  <excitation_energy_2>
3.571

>  <excitation_energy_3>
3.733

>  <excitation_energy_4>
4.143

>  <homo_energy>
-6.811

>  <homo_lumo_gap>
4.27

>  <logP>
1.793

>  <lumo_energy>
-2.542

>  <melting_point>
78.12

>  <molecular_refractivity>
60.94

>  <oscillator_strength_1>
0.0011

>  <oscillator_strength_2>
0.0097

>  <oscillator_strength_3>
0.0063

>  <oscillator_strength_4>
0.0129

>  <open_babel_can_smiles>
CCOC(=O)C(=O)Cc1ccccc1N(=O)=O

>  <mulliken_charges>
28
1   -0.46328
2   -0.052938
3   -0.101405
4   -0.140262
5   -0.197727
6   -0.142676
7   -0.445498
8   0.192877
9   0.230654
10   0.413106
11   0.59694
12   0.37615
13   -0.416553
14   -0.476701
15   -0.384716
16   -0.411457
17   -0.436417
18   0.152763
19   0.168168
20   0.181179
21   0.162272
22   0.171604
23   0.150348
24   0.151675
25   0.146608
26   0.186546
27   0.208195
28   0.180545

>  <lowdin_charges>
28
1   -0.451447
2   -0.122989
3   -0.128372
4   -0.148478
5   -0.149791
6   -0.130417
7   -0.304203
8   0.030806
9   7.3e-05
10   0.146497
11   0.166739
12   0.308886
13   -0.187979
14   -0.254137
15   -0.236822
16   -0.243994
17   -0.155582
18   0.158958
19   0.163064
20   0.166824
21   0.15609
22   0.160295
23   0.169549
24   0.168799
25   0.164534
26   0.187289
27   0.191962
28   0.173845

$$$$

