PCCDB-ID:  12072
public computational chemistry database (PCCDB) project, http://pccdb.org

 29 29  0  0  1  0  0  0  0  0999 V2000
    2.3110    0.6319    1.3796 C   0  0  0  0  0  0  0  0  0  0  0  0
    1.4449   -1.2988    0.0888 C   0  0  0  0  0  0  0  0  0  0  0  0
    6.0393    1.7254   -3.9853 C   0  0  0  0  0  0  0  0  0  0  0  0
    4.9141   -0.1268   -2.6485 C   0  0  0  0  0  0  0  0  0  0  0  0
    4.2168   -0.5250   -1.3405 C   0  0  0  0  0  0  0  0  0  0  0  0
    3.4883    1.8625   -1.0229 C   0  0  0  0  0  0  0  0  0  0  0  0
    2.2680   -0.0376    0.2226 C   0  0  0  0  0  0  0  0  0  0  0  0
    5.3671    1.3447   -2.6618 C   0  0  2  0  0  0  0  0  0  0  0  0
    3.0127    0.3995   -1.0324 C   0  0  2  0  0  0  0  0  0  0  0  0
    4.1772    2.2666   -2.3338 C   0  0  2  0  0  0  0  0  0  0  0  0
    4.5531    3.6458   -2.3076 O   0  0  0  0  0  0  0  0  0  0  0  0
    1.7712    0.2778    2.2545 H   0  0  0  0  0  0  0  0  0  0  0  0
    2.8735    1.5512    1.5067 H   0  0  0  0  0  0  0  0  0  0  0  0
    0.9510   -1.5570    1.0304 H   0  0  0  0  0  0  0  0  0  0  0  0
    2.0562   -2.1579   -0.2158 H   0  0  0  0  0  0  0  0  0  0  0  0
    0.6685   -1.1796   -0.6798 H   0  0  0  0  0  0  0  0  0  0  0  0
    6.9320    1.1145   -4.1643 H   0  0  0  0  0  0  0  0  0  0  0  0
    6.3317    2.7792   -3.9860 H   0  0  0  0  0  0  0  0  0  0  0  0
    5.3543    1.5696   -4.8289 H   0  0  0  0  0  0  0  0  0  0  0  0
    4.2260   -0.2928   -3.4917 H   0  0  0  0  0  0  0  0  0  0  0  0
    5.7788   -0.7792   -2.8271 H   0  0  0  0  0  0  0  0  0  0  0  0
    4.9274   -0.4635   -0.5038 H   0  0  0  0  0  0  0  0  0  0  0  0
    3.8943   -1.5711   -1.3998 H   0  0  0  0  0  0  0  0  0  0  0  0
    4.2078    2.0080   -0.2018 H   0  0  0  0  0  0  0  0  0  0  0  0
    2.6503    2.5430   -0.8353 H   0  0  0  0  0  0  0  0  0  0  0  0
    6.1025    1.4757   -1.8482 H   0  0  0  0  0  0  0  0  0  0  0  0
    2.3073    0.2903   -1.8739 H   0  0  0  0  0  0  0  0  0  0  0  0
    3.4508    2.2044   -3.1560 H   0  0  0  0  0  0  0  0  0  0  0  0
    5.1833    3.7555   -1.5766 H   0  0  0  0  0  0  0  0  0  0  0  0
  1 13  1  0  0  0  0
  1 12  1  0  0  0  0
  2  7  1  0  0  0  0
  2 14  1  0  0  0  0
  3  8  1  0  0  0  0
  4  5  1  0  0  0  0
  5  9  1  0  0  0  0
  5 22  1  0  0  0  0
  6 25  1  0  0  0  0
  6 24  1  0  0  0  0
  7  1  2  0  0  0  0
  8  4  1  0  0  0  0
  8 10  1  0  0  0  0
  8 26  1  1  0  0  0
  9 27  1  6  0  0  0
  9  6  1  0  0  0  0
  9  7  1  0  0  0  0
 10 28  1  6  0  0  0
 10 11  1  0  0  0  0
 10  6  1  0  0  0  0
 11 29  1  0  0  0  0
 15  2  1  0  0  0  0
 16  2  1  0  0  0  0
 17  3  1  0  0  0  0
 18  3  1  0  0  0  0
 19  3  1  0  0  0  0
 20  4  1  0  0  0  0
 21  4  1  0  0  0  0
 23  5  1  0  0  0  0
M  END
>  <HBA>
1

>  <HBD>
1

>  <TPSA>
20.23

>  <cid>
12072

>  <dipole>
1.64

>  <excitation_energy_1>
6.092

>  <excitation_energy_2>
6.24

>  <excitation_energy_3>
6.337

>  <excitation_energy_4>
6.534

>  <homo_energy>
-6.588

>  <homo_lumo_gap>
7.306

>  <logP>
2.36

>  <lumo_energy>
0.718

>  <melting_point>
-5.2

>  <molecular_refractivity>
48.76

>  <oscillator_strength_1>
0.0091

>  <oscillator_strength_2>
0.042

>  <oscillator_strength_3>
0.0048

>  <oscillator_strength_4>
0.0754

>  <open_babel_can_smiles>
CC(=C)[C@@H]1CC[C@H]([C@@H](C1)O)C

>  <mulliken_charges>
29
1   -0.406535
2   -0.516021
3   -0.444431
4   -0.265301
5   -0.266005
6   -0.290746
7   0.228604
8   -0.091636
9   -0.14927
10   0.139007
11   -0.626971
12   0.129443
13   0.135653
14   0.1529
15   0.155425
16   0.152949
17   0.13614
18   0.157813
19   0.137978
20   0.128264
21   0.133765
22   0.134342
23   0.133757
24   0.116732
25   0.151392
26   0.102737
27   0.122598
28   0.126772
29   0.380646

>  <lowdin_charges>
29
1   -0.368337
2   -0.443447
3   -0.444999
4   -0.279014
5   -0.275378
6   -0.293087
7   0.008374
8   -0.142776
9   -0.12817
10   -0.007395
11   -0.460585
12   0.154531
13   0.155387
14   0.156914
15   0.155207
16   0.155541
17   0.146975
18   0.156415
19   0.146684
20   0.139156
21   0.146619
22   0.14238
23   0.143668
24   0.134776
25   0.155466
26   0.128039
27   0.140292
28   0.139512
29   0.337251

$$$$

