PCCDB-ID:  14058
public computational chemistry database (PCCDB) project, http://pccdb.org

 29 28  0  0  0  0  0  0  0  0999 V2000
    3.1128    0.2041   -3.0556 C   0  0  0  0  0  0  0  0  0  0  0  0
    3.8449    2.3998   -2.0730 C   0  0  0  0  0  0  0  0  0  0  0  0
    2.1317    1.0043   -0.9107 C   0  0  0  0  0  0  0  0  0  0  0  0
    6.3474   -0.2939   -2.6094 C   0  0  0  0  0  0  0  0  0  0  0  0
    6.7334    1.4207   -0.8113 C   0  0  0  0  0  0  0  0  0  0  0  0
    6.5634   -0.9932   -0.2222 C   0  0  0  0  0  0  0  0  0  0  0  0
    4.4742    0.1820   -0.8687 C   0  0  0  0  0  0  0  0  0  0  0  0
    3.4336    0.9521   -1.7437 C   0  0  0  0  0  0  0  0  0  0  0  0
    6.0076    0.1035   -1.1607 C   0  0  0  0  0  0  0  0  0  0  0  0
    2.2886    0.7000   -3.5837 H   0  0  0  0  0  0  0  0  0  0  0  0
    2.8020   -0.8288   -2.8550 H   0  0  0  0  0  0  0  0  0  0  0  0
    3.9649    0.1701   -3.7389 H   0  0  0  0  0  0  0  0  0  0  0  0
    3.0123    2.9279   -2.5549 H   0  0  0  0  0  0  0  0  0  0  0  0
    4.6957    2.4416   -2.7608 H   0  0  0  0  0  0  0  0  0  0  0  0
    4.1116    2.9591   -1.1685 H   0  0  0  0  0  0  0  0  0  0  0  0
    1.3206    1.4733   -1.4808 H   0  0  0  0  0  0  0  0  0  0  0  0
    2.2715    1.5827    0.0108 H   0  0  0  0  0  0  0  0  0  0  0  0
    1.8012   -0.0025   -0.6264 H   0  0  0  0  0  0  0  0  0  0  0  0
    7.4254   -0.4740   -2.7085 H   0  0  0  0  0  0  0  0  0  0  0  0
    6.0831    0.4907   -3.3258 H   0  0  0  0  0  0  0  0  0  0  0  0
    5.8301   -1.2135   -2.9076 H   0  0  0  0  0  0  0  0  0  0  0  0
    7.8197    1.2876   -0.8908 H   0  0  0  0  0  0  0  0  0  0  0  0
    6.5133    1.7316    0.2177 H   0  0  0  0  0  0  0  0  0  0  0  0
    6.4557    2.2429   -1.4756 H   0  0  0  0  0  0  0  0  0  0  0  0
    7.6534   -1.0732   -0.3162 H   0  0  0  0  0  0  0  0  0  0  0  0
    6.1336   -1.9746   -0.4574 H   0  0  0  0  0  0  0  0  0  0  0  0
    6.3346   -0.7714    0.8277 H   0  0  0  0  0  0  0  0  0  0  0  0
    4.1058   -0.8531   -0.8113 H   0  0  0  0  0  0  0  0  0  0  0  0
    4.3863    0.5752    0.1549 H   0  0  0  0  0  0  0  0  0  0  0  0
  1 11  1  0  0  0  0
  1  8  1  0  0  0  0
  2  8  1  0  0  0  0
  2 15  1  0  0  0  0
  3 18  1  0  0  0  0
  3 17  1  0  0  0  0
  4  9  1  0  0  0  0
  5 23  1  0  0  0  0
  6 27  1  0  0  0  0
  7 28  1  0  0  0  0
  7 29  1  0  0  0  0
  8  3  1  0  0  0  0
  8  7  1  0  0  0  0
  9  7  1  0  0  0  0
  9  5  1  0  0  0  0
  9  6  1  0  0  0  0
 10  1  1  0  0  0  0
 12  1  1  0  0  0  0
 13  2  1  0  0  0  0
 14  2  1  0  0  0  0
 16  3  1  0  0  0  0
 19  4  1  0  0  0  0
 20  4  1  0  0  0  0
 21  4  1  0  0  0  0
 22  5  1  0  0  0  0
 24  5  1  0  0  0  0
 25  6  1  0  0  0  0
 26  6  1  0  0  0  0
M  END
>  <HBA>
0

>  <HBD>
0

>  <TPSA>
0.0

>  <cid>
14058

>  <dipole>
0.0

>  <excitation_energy_1>
7.305

>  <excitation_energy_2>
7.672

>  <excitation_energy_3>
7.848

>  <excitation_energy_4>
7.857

>  <homo_energy>
-7.84

>  <homo_lumo_gap>
9.652

>  <logP>
3.469

>  <lumo_energy>
1.812

>  <melting_point>
8.82

>  <molecular_refractivity>
44.86

>  <oscillator_strength_1>
0.0713

>  <oscillator_strength_2>
0.1005

>  <oscillator_strength_3>
0.0001

>  <oscillator_strength_4>
0.1155

>  <open_babel_can_smiles>
CC(CC(C)(C)C)(C)C

>  <mulliken_charges>
29
1   -0.445173
2   -0.447251
3   -0.441522
4   -0.447205
5   -0.445198
6   -0.441552
7   -0.256965
8   0.101085
9   0.101165
10   0.134066
11   0.134476
12   0.144942
13   0.1348
14   0.143728
15   0.13958
16   0.135726
17   0.137181
18   0.137312
19   0.134817
20   0.143795
21   0.139564
22   0.134127
23   0.134504
24   0.14489
25   0.135682
26   0.137188
27   0.13737
28   0.119429
29   0.119438

>  <lowdin_charges>
29
1   -0.446972
2   -0.446249
3   -0.441858
4   -0.443875
5   -0.444422
6   -0.437561
7   -0.276158
8   0.015631
9   0.015956
10   0.146055
11   0.143757
12   0.151015
13   0.147021
14   0.146514
15   0.147893
16   0.146116
17   0.145159
18   0.145344
19   0.144326
20   0.146936
21   0.14767
22   0.143192
23   0.143893
24   0.151125
25   0.143099
26   0.14465
27   0.14455
28   0.138606
29   0.138588

$$$$

