PCCDB-ID:  8894
public computational chemistry database (PCCDB) project, http://pccdb.org

 16 16  0  0  0  0  0  0  0  0999 V2000
    0.7417    1.2896   -0.2063 C   0  0  0  0  0  0  0  0  0  0  0  0
    1.4579   -0.0049    0.2106 C   0  0  0  0  0  0  0  0  0  0  0  0
   -0.7326    1.2424    0.2260 C   0  0  0  0  0  0  0  0  0  0  0  0
    0.6662   -1.2260   -0.2660 C   0  0  0  0  0  0  0  0  0  0  0  0
   -1.3841   -0.0587   -0.2511 C   0  0  0  0  0  0  0  0  0  0  0  0
   -0.6753   -1.2038    0.2067 O   0  0  0  0  0  0  0  0  0  0  0  0
    0.7960    1.3981   -1.2998 H   0  0  0  0  0  0  0  0  0  0  0  0
    1.2435    2.1658    0.2220 H   0  0  0  0  0  0  0  0  0  0  0  0
    1.5431   -0.0454    1.3046 H   0  0  0  0  0  0  0  0  0  0  0  0
    2.4762   -0.0402   -0.1982 H   0  0  0  0  0  0  0  0  0  0  0  0
   -1.2871    2.1025   -0.1715 H   0  0  0  0  0  0  0  0  0  0  0  0
   -0.7989    1.2882    1.3211 H   0  0  0  0  0  0  0  0  0  0  0  0
    1.1022   -2.1574    0.1088 H   0  0  0  0  0  0  0  0  0  0  0  0
    0.6726   -1.2683   -1.3705 H   0  0  0  0  0  0  0  0  0  0  0  0
   -1.4368   -0.0681   -1.3551 H   0  0  0  0  0  0  0  0  0  0  0  0
   -2.4032   -0.1613    0.1348 H   0  0  0  0  0  0  0  0  0  0  0  0
  1  2  1  0  0  0  0
  1  8  1  0  0  0  0
  1  3  1  0  0  0  0
  2  9  1  0  0  0  0
  3 12  1  0  0  0  0
  4 13  1  0  0  0  0
  4  6  1  0  0  0  0
  4  2  1  0  0  0  0
  5 16  1  0  0  0  0
  5  6  1  0  0  0  0
  5  3  1  0  0  0  0
  7  1  1  0  0  0  0
 10  2  1  0  0  0  0
 11  3  1  0  0  0  0
 14  4  1  0  0  0  0
 15  5  1  0  0  0  0
M  END
>  <HBA>
1

>  <HBD>
0

>  <TPSA>
9.23

>  <cid>
8894

>  <dipole>
1.41

>  <excitation_energy_1>
6.333

>  <excitation_energy_2>
6.702

>  <excitation_energy_3>
6.786

>  <excitation_energy_4>
6.903

>  <homo_energy>
-6.602

>  <homo_lumo_gap>
9.051

>  <logP>
1.187

>  <lumo_energy>
2.449

>  <melting_point>
-12.27

>  <molecular_refractivity>
25.12

>  <oscillator_strength_1>
0.0053

>  <oscillator_strength_2>
0.0465

>  <oscillator_strength_3>
0.0296

>  <oscillator_strength_4>
0.0029

>  <open_babel_can_smiles>
C1CCCOC1

>  <mulliken_charges>
16
1   -0.267678
2   -0.270439
3   -0.270261
4   -0.025887
5   -0.02599
6   -0.466193
7   0.129733
8   0.137362
9   0.141705
10   0.131213
11   0.131179
12   0.141638
13   0.142824
14   0.113977
15   0.113985
16   0.142831

>  <lowdin_charges>
16
1   -0.278242
2   -0.290549
3   -0.292835
4   -0.130535
5   -0.129846
6   -0.277379
7   0.135965
8   0.146854
9   0.143625
10   0.14591
11   0.147573
12   0.143577
13   0.14885
14   0.119818
15   0.119815
16   0.147398

$$$$

