PCCDB-ID:  27642
public computational chemistry database (PCCDB) project, http://pccdb.org

 19 18  0  0  0  0  0  0  0  0999 V2000
    0.4154   -1.4465    0.0331 C   0  0  0  0  0  0  0  0  0  0  0  0
    2.6699   -0.8424   -0.3006 C   0  0  0  0  0  0  0  0  0  0  0  0
    3.8165   -0.0602    0.3192 C   0  0  0  0  0  0  0  0  0  0  0  0
    2.7566    1.9084    1.2490 C   0  0  0  0  0  0  0  0  0  0  0  0
    3.0980    3.3884    1.4335 C   0  0  0  0  0  0  0  0  0  0  0  0
    2.4283    4.1207    2.1190 O   0  0  0  0  0  0  0  0  0  0  0  0
    4.2086    3.7936    0.7915 O   0  0  0  0  0  0  0  0  0  0  0  0
    1.5444   -0.7696    0.5511 O   0  0  0  0  0  0  0  0  0  0  0  0
    3.6329    1.3512    0.2737 O   0  0  0  0  0  0  0  0  0  0  0  0
   -0.3890   -1.3351    0.7638 H   0  0  0  0  0  0  0  0  0  0  0  0
    0.6208   -2.5185   -0.1148 H   0  0  0  0  0  0  0  0  0  0  0  0
    0.0909   -1.0183   -0.9281 H   0  0  0  0  0  0  0  0  0  0  0  0
    2.9867   -1.8919   -0.4384 H   0  0  0  0  0  0  0  0  0  0  0  0
    2.4388   -0.4296   -1.2965 H   0  0  0  0  0  0  0  0  0  0  0  0
    4.7314   -0.2580   -0.2487 H   0  0  0  0  0  0  0  0  0  0  0  0
    3.9698   -0.3899    1.3574 H   0  0  0  0  0  0  0  0  0  0  0  0
    1.7069    1.8146    0.9559 H   0  0  0  0  0  0  0  0  0  0  0  0
    2.8752    1.4058    2.2193 H   0  0  0  0  0  0  0  0  0  0  0  0
    4.5478    3.0138    0.3039 H   0  0  0  0  0  0  0  0  0  0  0  0
  1  8  1  0  0  0  0
  1 10  1  0  0  0  0
  2  3  1  0  0  0  0
  2  8  1  0  0  0  0
  3 16  1  0  0  0  0
  4  5  1  0  0  0  0
  4 18  1  0  0  0  0
  5  6  2  0  0  0  0
  7  5  1  0  0  0  0
  9  3  1  0  0  0  0
  9  4  1  0  0  0  0
 11  1  1  0  0  0  0
 12  1  1  0  0  0  0
 13  2  1  0  0  0  0
 14  2  1  0  0  0  0
 15  3  1  0  0  0  0
 17  4  1  0  0  0  0
 19  7  1  0  0  0  0
M  END
>  <HBA>
4

>  <HBD>
1

>  <TPSA>
55.76

>  <cid>
27642

>  <dipole>
6.25

>  <excitation_energy_1>
5.751

>  <excitation_energy_2>
6.606

>  <excitation_energy_3>
6.789

>  <excitation_energy_4>
6.966

>  <homo_energy>
-7.064

>  <homo_lumo_gap>
7.578

>  <logP>
-0.266

>  <lumo_energy>
0.514

>  <melting_point>
33.36

>  <molecular_refractivity>
30.09

>  <oscillator_strength_1>
0.0006

>  <oscillator_strength_2>
0.0187

>  <oscillator_strength_3>
0.0226

>  <oscillator_strength_4>
0.0125

>  <open_babel_can_smiles>
COCCOCC(=O)O

>  <mulliken_charges>
19
1   -0.197445
2   -0.019721
3   -0.046875
4   -0.11313
5   0.570085
6   -0.451933
7   -0.570842
8   -0.461267
9   -0.509731
10   0.167278
11   0.135561
12   0.138762
13   0.124717
14   0.137082
15   0.155404
16   0.149515
17   0.191049
18   0.171795
19   0.429696

>  <lowdin_charges>
19
1   -0.277666
2   -0.142124
3   -0.133269
4   -0.169509
5   0.180567
6   -0.249508
7   -0.351152
8   -0.27189
9   -0.283702
10   0.160908
11   0.133207
12   0.136478
13   0.132921
14   0.136548
15   0.157596
16   0.144397
17   0.170335
18   0.163192
19   0.362671

$$$$

