PCCDB-ID:  11115
public computational chemistry database (PCCDB) project, http://pccdb.org

 37 37  0  0  0  0  0  0  0  0999 V2000
    1.5914   -0.3384   -3.4944 C   0  0  0  0  0  0  0  0  0  0  0  0
    3.9623    0.5154   -3.2079 C   0  0  0  0  0  0  0  0  0  0  0  0
    7.1591   -6.4443    3.9460 C   0  0  0  0  0  0  0  0  0  0  0  0
    6.9341   -5.6464    2.8252 C   0  0  0  0  0  0  0  0  0  0  0  0
    7.1009   -7.8335    3.8596 C   0  0  0  0  0  0  0  0  0  0  0  0
    4.7761   -2.9944   -0.7609 C   0  0  0  0  0  0  0  0  0  0  0  0
    6.2609   -3.3141   -0.5999 C   0  0  0  0  0  0  0  0  0  0  0  0
    6.5871   -7.6605    1.5088 C   0  0  0  0  0  0  0  0  0  0  0  0
    3.2198   -1.6319   -2.0668 C   0  0  0  0  0  0  0  0  0  0  0  0
    3.0638   -0.7253   -3.2982 C   0  0  0  0  0  0  0  0  0  0  0  0
    6.6473   -6.2669    1.6017 C   0  0  0  0  0  0  0  0  0  0  0  0
    6.8129   -8.4631    2.6351 C   0  0  0  0  0  0  0  0  0  0  0  0
    6.3984   -5.4915    0.3525 C   0  0  0  0  0  0  0  0  0  0  0  0
    6.6961   -9.8533    2.5565 N   0  0  0  0  0  0  0  0  0  0  0  0
    4.5906   -2.1229   -1.9171 N   0  0  0  0  0  0  0  0  0  0  0  0
    6.1488   -5.9925   -0.7282 O   0  0  0  0  0  0  0  0  0  0  0  0
    6.4866   -4.1534    0.5505 O   0  0  0  0  0  0  0  0  0  0  0  0
    1.4638    0.2808   -4.3898 H   0  0  0  0  0  0  0  0  0  0  0  0
    1.2207    0.2393   -2.6376 H   0  0  0  0  0  0  0  0  0  0  0  0
    0.9517   -1.2224   -3.6034 H   0  0  0  0  0  0  0  0  0  0  0  0
    3.9020    1.1134   -4.1249 H   0  0  0  0  0  0  0  0  0  0  0  0
    5.0053    0.2321   -3.0413 H   0  0  0  0  0  0  0  0  0  0  0  0
    3.6524    1.1557   -2.3712 H   0  0  0  0  0  0  0  0  0  0  0  0
    7.3845   -5.9808    4.9027 H   0  0  0  0  0  0  0  0  0  0  0  0
    6.9803   -4.5662    2.8898 H   0  0  0  0  0  0  0  0  0  0  0  0
    7.2755   -8.4415    4.7448 H   0  0  0  0  0  0  0  0  0  0  0  0
    4.4293   -2.4614    0.1328 H   0  0  0  0  0  0  0  0  0  0  0  0
    4.2044   -3.9373   -0.8194 H   0  0  0  0  0  0  0  0  0  0  0  0
    6.8305   -2.4017   -0.4134 H   0  0  0  0  0  0  0  0  0  0  0  0
    6.6513   -3.8158   -1.4898 H   0  0  0  0  0  0  0  0  0  0  0  0
    6.3607   -8.1069    0.5450 H   0  0  0  0  0  0  0  0  0  0  0  0
    2.4821   -2.4561   -2.1255 H   0  0  0  0  0  0  0  0  0  0  0  0
    2.9712   -1.0579   -1.1625 H   0  0  0  0  0  0  0  0  0  0  0  0
    3.3759   -1.3108   -4.1787 H   0  0  0  0  0  0  0  0  0  0  0  0
    7.2240  -10.3676    3.2507 H   0  0  0  0  0  0  0  0  0  0  0  0
    6.8276  -10.2393    1.6298 H   0  0  0  0  0  0  0  0  0  0  0  0
    4.8406   -2.6408   -2.7601 H   0  0  0  0  0  0  0  0  0  0  0  0
  1 10  1  0  0  0  0
  1 19  1  0  0  0  0
  2 22  1  0  0  0  0
  2 23  1  0  0  0  0
  3 24  1  0  0  0  0
  4 25  1  0  0  0  0
  4  3  2  0  0  0  0
  5  3  1  0  0  0  0
  5 26  1  0  0  0  0
  6  7  1  0  0  0  0
  6 27  1  0  0  0  0
  7 29  1  0  0  0  0
  7 17  1  0  0  0  0
  8 11  2  0  0  0  0
  8 12  1  0  0  0  0
  9 15  1  0  0  0  0
  9 33  1  0  0  0  0
 10  2  1  0  0  0  0
 10  9  1  0  0  0  0
 11  4  1  0  0  0  0
 12  5  2  0  0  0  0
 13 17  1  0  0  0  0
 13 11  1  0  0  0  0
 14 12  1  0  0  0  0
 14 35  1  0  0  0  0
 15  6  1  0  0  0  0
 16 13  2  0  0  0  0
 18  1  1  0  0  0  0
 20  1  1  0  0  0  0
 21  2  1  0  0  0  0
 28  6  1  0  0  0  0
 30  7  1  0  0  0  0
 31  8  1  0  0  0  0
 32  9  1  0  0  0  0
 34 10  1  0  0  0  0
 36 14  1  0  0  0  0
 37 15  1  0  0  0  0
M  END
>  <HBA>
4

>  <HBD>
2

>  <TPSA>
64.35

>  <cid>
11115

>  <dipole>
1.81

>  <excitation_energy_1>
3.975

>  <excitation_energy_2>
4.363

>  <excitation_energy_3>
4.913

>  <excitation_energy_4>
4.934

>  <homo_energy>
-5.655

>  <homo_lumo_gap>
4.634

>  <logP>
2.643

>  <lumo_energy>
-1.02

>  <melting_point>
103.28

>  <molecular_refractivity>
68.96

>  <oscillator_strength_1>
0.0531

>  <oscillator_strength_2>
0.0014

>  <oscillator_strength_3>
0.0002

>  <oscillator_strength_4>
0.0046

>  <open_babel_can_smiles>
CC(CNCCOC(=O)c1cccc(c1)N)C

>  <mulliken_charges>
37
1   -0.444286
2   -0.434841
3   -0.142048
4   -0.170054
5   -0.159693
6   -0.134009
7   -0.049006
8   -0.207678
9   -0.102431
10   -0.085843
11   0.04396
12   0.309646
13   0.596144
14   -0.78889
15   -0.569672
16   -0.498789
17   -0.483813
18   0.143328
19   0.140196
20   0.140528
21   0.134387
22   0.161403
23   0.133928
24   0.131838
25   0.148445
26   0.122154
27   0.148361
28   0.140002
29   0.161973
30   0.162914
31   0.149968
32   0.111367
33   0.134005
34   0.116718
35   0.320549
36   0.324333
37   0.294905

>  <lowdin_charges>
37
1   -0.445785
2   -0.446061
3   -0.147043
4   -0.168031
5   -0.185913
6   -0.212081
7   -0.137064
8   -0.176855
9   -0.202387
10   -0.12493
11   -0.03647
12   0.061344
13   0.201536
14   -0.48923
15   -0.362521
16   -0.279343
17   -0.190656
18   0.150612
19   0.147039
20   0.147945
21   0.145419
22   0.157142
23   0.144759
24   0.159404
25   0.168072
26   0.155872
27   0.147916
28   0.13211
29   0.158456
30   0.156125
31   0.171554
32   0.119206
33   0.139614
34   0.132663
35   0.277542
36   0.277656
37   0.252383

$$$$

