PCCDB-ID:  18939
public computational chemistry database (PCCDB) project, http://pccdb.org

 19 20  0  0  1  0  0  0  0  0999 V2000
    1.1327   -0.0482    0.1648 C   0  0  0  0  0  0  0  0  0  0  0  0
    3.7448    3.3974    1.7319 C   0  0  0  0  0  0  0  0  0  0  0  0
    4.4983    2.8820    2.7977 C   0  0  0  0  0  0  0  0  0  0  0  0
    3.0955    2.5531    0.8258 C   0  0  0  0  0  0  0  0  0  0  0  0
    4.6177    1.5045    2.9791 C   0  0  0  0  0  0  0  0  0  0  0  0
    2.6555    0.0120    0.2324 C   0  0  1  0  0  0  0  0  0  0  0  0
    3.2185    1.1784    1.0112 C   0  0  0  0  0  0  0  0  0  0  0  0
    3.9676    0.6741    2.0686 C   0  0  0  0  0  0  0  0  0  0  0  0
    3.9217   -0.8054    2.0186 C   0  0  0  0  0  0  0  0  0  0  0  0
    4.4308   -1.6196    2.7474 O   0  0  0  0  0  0  0  0  0  0  0  0
    3.1512   -1.1557    0.9336 O   0  0  0  0  0  0  0  0  0  0  0  0
    0.7442    0.8088   -0.3966 H   0  0  0  0  0  0  0  0  0  0  0  0
    0.7044   -0.0300    1.1717 H   0  0  0  0  0  0  0  0  0  0  0  0
    0.8132   -0.9661   -0.3373 H   0  0  0  0  0  0  0  0  0  0  0  0
    3.6649    4.4741    1.6085 H   0  0  0  0  0  0  0  0  0  0  0  0
    4.9911    3.5648    3.4839 H   0  0  0  0  0  0  0  0  0  0  0  0
    2.5152    2.9678    0.0056 H   0  0  0  0  0  0  0  0  0  0  0  0
    5.1935    1.0798    3.7959 H   0  0  0  0  0  0  0  0  0  0  0  0
    3.0766   -0.0285   -0.7807 H   0  0  0  0  0  0  0  0  0  0  0  0
  1  6  1  0  0  0  0
  1 13  1  0  0  0  0
  2  3  2  0  0  0  0
  3  5  1  0  0  0  0
  3 16  1  0  0  0  0
  4  7  2  0  0  0  0
  4  2  1  0  0  0  0
  5 18  1  0  0  0  0
  6 19  1  6  0  0  0
  6 11  1  0  0  0  0
  6  7  1  0  0  0  0
  7  8  1  0  0  0  0
  8  5  2  0  0  0  0
  9  8  1  0  0  0  0
  9 10  2  0  0  0  0
 11  9  1  0  0  0  0
 12  1  1  0  0  0  0
 14  1  1  0  0  0  0
 15  2  1  0  0  0  0
 17  4  1  0  0  0  0
M  END
>  <HBA>
2

>  <HBD>
0

>  <TPSA>
26.3

>  <cid>
18939

>  <dipole>
5.03

>  <excitation_energy_1>
4.7

>  <excitation_energy_2>
5.003

>  <excitation_energy_3>
5.566

>  <excitation_energy_4>
5.791

>  <homo_energy>
-7.217

>  <homo_lumo_gap>
5.908

>  <logP>
1.918

>  <lumo_energy>
-1.309

>  <melting_point>
56.68

>  <molecular_refractivity>
40.57

>  <oscillator_strength_1>
0.0

>  <oscillator_strength_2>
0.0263

>  <oscillator_strength_3>
0.1098

>  <oscillator_strength_4>
0.0007

>  <open_babel_can_smiles>
O=C1O[C@H](c2c1cccc2)C

>  <mulliken_charges>
19
1   -0.444592
2   -0.123926
3   -0.134847
4   -0.195559
5   -0.170941
6   0.072881
7   0.093355
8   0.03534
9   0.571169
10   -0.463497
11   -0.484191
12   0.150713
13   0.165955
14   0.172452
15   0.14248
16   0.143278
17   0.139233
18   0.164358
19   0.166337

>  <lowdin_charges>
19
1   -0.444676
2   -0.134442
3   -0.153543
4   -0.161859
5   -0.126702
6   0.014598
7   -0.009806
8   -0.056133
9   0.193728
10   -0.239603
11   -0.197047
12   0.158697
13   0.162602
14   0.16716
15   0.162255
16   0.166128
17   0.16333
18   0.177748
19   0.157566

$$$$

