PCCDB-ID:  40898
public computational chemistry database (PCCDB) project, http://pccdb.org

 18 19  0  0  1  0  0  0  0  0999 V2000
   -1.0917   -0.5816    0.0491 C   0  0  0  0  0  0  0  0  0  0  0  0
   -0.3012   -1.3808   -0.6861 C   0  0  0  0  0  0  0  0  0  0  0  0
    0.6160    1.2117    0.1357 C   0  0  0  0  0  0  0  0  0  0  0  0
    1.5355    0.2819   -0.7194 C   0  0  0  0  0  0  0  0  0  0  0  0
   -0.2060    0.1967    0.9999 C   0  0  2  0  0  0  0  0  0  0  0  0
    1.1286   -1.1527   -0.2413 C   0  0  1  0  0  0  0  0  0  0  0  0
    0.8758   -0.8926    1.2756 C   0  0  1  0  0  0  0  0  0  0  0  0
    1.9866   -0.5117    2.0567 O   0  0  0  0  0  0  0  0  0  0  0  0
   -2.1655   -0.4519   -0.0463 H   0  0  0  0  0  0  0  0  0  0  0  0
   -0.6016   -2.0327   -1.5008 H   0  0  0  0  0  0  0  0  0  0  0  0
   -0.0354    1.8420   -0.4752 H   0  0  0  0  0  0  0  0  0  0  0  0
    1.2004    1.8840    0.7775 H   0  0  0  0  0  0  0  0  0  0  0  0
    2.5993    0.4696   -0.5238 H   0  0  0  0  0  0  0  0  0  0  0  0
    1.3829    0.4076   -1.7945 H   0  0  0  0  0  0  0  0  0  0  0  0
   -0.6907    0.6347    1.8756 H   0  0  0  0  0  0  0  0  0  0  0  0
    1.8505   -1.9348   -0.4880 H   0  0  0  0  0  0  0  0  0  0  0  0
    0.4521   -1.7687    1.7724 H   0  0  0  0  0  0  0  0  0  0  0  0
    2.4011    0.2660    1.6530 H   0  0  0  0  0  0  0  0  0  0  0  0
  1  5  1  0  0  0  0
  2  6  1  0  0  0  0
  2  1  2  0  0  0  0
  3 12  1  0  0  0  0
  3  5  1  0  0  0  0
  4 13  1  0  0  0  0
  4  6  1  0  0  0  0
  4  3  1  0  0  0  0
  5  7  1  0  0  0  0
  5 15  1  1  0  0  0
  6 16  1  6  0  0  0
  6  7  1  0  0  0  0
  7 17  1  1  0  0  0
  7  8  1  0  0  0  0
  9  1  1  0  0  0  0
 10  2  1  0  0  0  0
 11  3  1  0  0  0  0
 14  4  1  0  0  0  0
 18  8  1  0  0  0  0
M  END
>  <HBA>
1

>  <HBD>
1

>  <TPSA>
20.23

>  <cid>
40898

>  <dipole>
1.73

>  <excitation_energy_1>
6.052

>  <excitation_energy_2>
6.311

>  <excitation_energy_3>
6.348

>  <excitation_energy_4>
6.388

>  <homo_energy>
-6.528

>  <homo_lumo_gap>
7.078

>  <logP>
0.943

>  <lumo_energy>
0.55

>  <melting_point>
46.34

>  <molecular_refractivity>
32.22

>  <oscillator_strength_1>
0.0368

>  <oscillator_strength_2>
0.0018

>  <oscillator_strength_3>
0.0004

>  <oscillator_strength_4>
0.1101

>  <open_babel_can_smiles>
O[C@@H]1[C@@H]2CC[C@H]1C=C2

>  <mulliken_charges>
18
1   -0.105149
2   -0.105704
3   -0.289532
4   -0.289459
5   -0.163649
6   -0.163561
7   0.148663
8   -0.632899
9   0.127826
10   0.127854
11   0.147497
12   0.130575
13   0.130498
14   0.147465
15   0.12575
16   0.125752
17   0.142809
18   0.395263

>  <lowdin_charges>
18
1   -0.169732
2   -0.172359
3   -0.294169
4   -0.288406
5   -0.152287
6   -0.153063
7   -0.008158
8   -0.447625
9   0.154653
10   0.156895
11   0.154092
12   0.140568
13   0.13747
14   0.150755
15   0.148304
16   0.148435
17   0.152127
18   0.3425

$$$$

