PCCDB-ID:  21217
public computational chemistry database (PCCDB) project, http://pccdb.org

 37 38  0  0  1  0  0  0  0  0999 V2000
    1.1729    0.3097    0.2129 C   0  0  0  0  0  0  0  0  0  0  0  0
    4.2419   -3.6401   -6.8687 C   0  0  0  0  0  0  0  0  0  0  0  0
    2.3259   -2.2832   -7.3972 C   0  0  0  0  0  0  0  0  0  0  0  0
    2.6728   -0.0048    0.2021 C   0  0  0  0  0  0  0  0  0  0  0  0
    2.9774   -5.1699   -0.7046 C   0  0  0  0  0  0  0  0  0  0  0  0
    2.5776   -4.5185    0.4795 C   0  0  0  0  0  0  0  0  0  0  0  0
    3.3591   -4.4446   -1.8267 C   0  0  0  0  0  0  0  0  0  0  0  0
    2.5552   -3.1306    0.5651 C   0  0  0  0  0  0  0  0  0  0  0  0
    3.4740   -0.8076   -2.0525 C   0  0  0  0  0  0  0  0  0  0  0  0
    2.9991   -2.5552   -5.0742 C   0  0  0  0  0  0  0  0  0  0  0  0
    3.3457   -3.0395   -1.7745 C   0  0  0  0  0  0  0  0  0  0  0  0
    3.6749   -1.9938   -2.7094 C   0  0  0  0  0  0  0  0  0  0  0  0
    2.9456   -2.4014   -0.5647 C   0  0  0  0  0  0  0  0  0  0  0  0
    4.1466   -2.1412   -4.1253 C   0  0  2  0  0  0  0  0  0  0  0  0
    3.4390   -2.4847   -6.4741 N   0  0  0  0  0  0  0  0  0  0  0  0
    3.0426   -1.0347   -0.7565 N   0  0  0  0  0  0  0  0  0  0  0  0
    4.6790   -0.9043   -4.5786 O   0  0  0  0  0  0  0  0  0  0  0  0
    0.9520    1.0847    0.9560 H   0  0  0  0  0  0  0  0  0  0  0  0
    0.5873   -0.5813    0.4608 H   0  0  0  0  0  0  0  0  0  0  0  0
    0.8449    0.6694   -0.7679 H   0  0  0  0  0  0  0  0  0  0  0  0
    4.6126   -3.4978   -7.8893 H   0  0  0  0  0  0  0  0  0  0  0  0
    3.6683   -4.5858   -6.8379 H   0  0  0  0  0  0  0  0  0  0  0  0
    5.1078   -3.7447   -6.2090 H   0  0  0  0  0  0  0  0  0  0  0  0
    2.7125   -2.1531   -8.4140 H   0  0  0  0  0  0  0  0  0  0  0  0
    1.7757   -1.3778   -7.1225 H   0  0  0  0  0  0  0  0  0  0  0  0
    1.6146   -3.1302   -7.4085 H   0  0  0  0  0  0  0  0  0  0  0  0
    3.0028   -0.3296    1.1956 H   0  0  0  0  0  0  0  0  0  0  0  0
    3.2490    0.8934   -0.0436 H   0  0  0  0  0  0  0  0  0  0  0  0
    2.9851   -6.2561   -0.7378 H   0  0  0  0  0  0  0  0  0  0  0  0
    2.2809   -5.1103    1.3412 H   0  0  0  0  0  0  0  0  0  0  0  0
    3.6659   -4.9608   -2.7330 H   0  0  0  0  0  0  0  0  0  0  0  0
    2.2443   -2.6352    1.4809 H   0  0  0  0  0  0  0  0  0  0  0  0
    3.6366    0.1986   -2.4109 H   0  0  0  0  0  0  0  0  0  0  0  0
    2.1887   -1.8317   -4.9377 H   0  0  0  0  0  0  0  0  0  0  0  0
    2.6059   -3.5513   -4.8032 H   0  0  0  0  0  0  0  0  0  0  0  0
    4.9293   -2.9211   -4.1569 H   0  0  0  0  0  0  0  0  0  0  0  0
    4.5902   -0.9581   -5.5514 H   0  0  0  0  0  0  0  0  0  0  0  0
  1 19  1  0  0  0  0
  1 18  1  0  0  0  0
  2 22  1  0  0  0  0
  2 15  1  0  0  0  0
  2 23  1  0  0  0  0
  3 25  1  0  0  0  0
  3 15  1  0  0  0  0
  4  1  1  0  0  0  0
  4 27  1  0  0  0  0
  5  6  2  0  0  0  0
  6  8  1  0  0  0  0
  6 30  1  0  0  0  0
  7 11  2  0  0  0  0
  7  5  1  0  0  0  0
  8 32  1  0  0  0  0
  9 16  1  0  0  0  0
 10 34  1  0  0  0  0
 10 35  1  0  0  0  0
 10 14  1  0  0  0  0
 11 13  1  0  0  0  0
 12  9  2  0  0  0  0
 12 11  1  0  0  0  0
 13  8  2  0  0  0  0
 14 36  1  6  0  0  0
 14 12  1  0  0  0  0
 15 10  1  0  0  0  0
 16 13  1  0  0  0  0
 16  4  1  0  0  0  0
 17 14  1  0  0  0  0
 20  1  1  0  0  0  0
 21  2  1  0  0  0  0
 24  3  1  0  0  0  0
 26  3  1  0  0  0  0
 28  4  1  0  0  0  0
 29  5  1  0  0  0  0
 31  7  1  0  0  0  0
 33  9  1  0  0  0  0
 37 17  1  0  0  0  0
M  END
>  <HBA>
3

>  <HBD>
1

>  <TPSA>
28.4

>  <cid>
21217

>  <dipole>
1.84

>  <excitation_energy_1>
4.357

>  <excitation_energy_2>
4.674

>  <excitation_energy_3>
4.775

>  <excitation_energy_4>
4.96

>  <homo_energy>
-5.097

>  <homo_lumo_gap>
5.086

>  <logP>
2.256

>  <lumo_energy>
-0.011

>  <melting_point>
74.25

>  <molecular_refractivity>
71.45

>  <oscillator_strength_1>
0.075

>  <oscillator_strength_2>
0.0167

>  <oscillator_strength_3>
0.0176

>  <oscillator_strength_4>
0.0229

>  <open_babel_can_smiles>
CCn1cc(c2c1cccc2)[C@@H](CN(C)C)O

>  <mulliken_charges>
37
1   -0.440813
2   -0.30565
3   -0.29521
4   -0.152719
5   -0.14029
6   -0.152966
7   -0.21631
8   -0.167135
9   -0.00206
10   -0.147767
11   0.071047
12   0.032982
13   0.305812
14   0.082476
15   -0.40087
16   -0.506719
17   -0.655087
18   0.147802
19   0.163981
20   0.158532
21   0.152906
22   0.12698
23   0.163449
24   0.150505
25   0.155755
26   0.12691
27   0.159011
28   0.159274
29   0.116701
30   0.119173
31   0.117431
32   0.121671
33   0.161124
34   0.145717
35   0.127471
36   0.117118
37   0.399768

>  <lowdin_charges>
37
1   -0.453062
2   -0.359613
3   -0.35611
4   -0.189826
5   -0.175476
6   -0.168301
7   -0.169306
8   -0.192681
9   -0.12575
10   -0.221914
11   -0.034265
12   -0.074412
13   0.027999
14   0.003086
15   -0.18776
16   -0.028611
17   -0.471268
18   0.15536
19   0.159251
20   0.15638
21   0.151511
22   0.126601
23   0.155758
24   0.149665
25   0.153665
26   0.127081
27   0.153586
28   0.157346
29   0.150778
30   0.154734
31   0.15233
32   0.155251
33   0.171486
34   0.152898
35   0.131811
36   0.126493
37   0.335285

$$$$

