PCCDB-ID:  35939
public computational chemistry database (PCCDB) project, http://pccdb.org

 32 33  0  0  0  0  0  0  0  0999 V2000
    2.7845   -2.4549   -3.3002 C   0  0  0  0  0  0  0  0  0  0  0  0
    0.0337    4.4992   -1.5003 C   0  0  0  0  0  0  0  0  0  0  0  0
    2.5604   -2.9848   -2.0255 C   0  0  0  0  0  0  0  0  0  0  0  0
    2.9024   -1.0743   -3.4709 C   0  0  0  0  0  0  0  0  0  0  0  0
   -0.4411    3.0820   -1.1528 C   0  0  0  0  0  0  0  0  0  0  0  0
    1.4724    4.4562   -2.0311 C   0  0  0  0  0  0  0  0  0  0  0  0
    2.4611   -2.1358   -0.9280 C   0  0  0  0  0  0  0  0  0  0  0  0
    2.8045   -0.2210   -2.3721 C   0  0  0  0  0  0  0  0  0  0  0  0
    0.5489    2.3865   -0.2139 C   0  0  0  0  0  0  0  0  0  0  0  0
    2.3936    3.7145   -1.0576 C   0  0  0  0  0  0  0  0  0  0  0  0
    2.8287    1.6093    0.0511 C   0  0  0  0  0  0  0  0  0  0  0  0
    2.5870   -0.7456   -1.0880 C   0  0  0  0  0  0  0  0  0  0  0  0
    2.5135    0.1080    0.1402 C   0  0  0  0  0  0  0  0  0  0  0  0
    1.8995    2.3586   -0.7917 N   0  0  0  0  0  0  0  0  0  0  0  0
    2.2588   -0.3835    1.2304 O   0  0  0  0  0  0  0  0  0  0  0  0
    2.8639   -3.1173   -4.1584 H   0  0  0  0  0  0  0  0  0  0  0  0
   -0.0025    5.1276   -0.5985 H   0  0  0  0  0  0  0  0  0  0  0  0
   -0.6352    4.9618   -2.2362 H   0  0  0  0  0  0  0  0  0  0  0  0
    2.4657   -4.0590   -1.8914 H   0  0  0  0  0  0  0  0  0  0  0  0
    3.0668   -0.6607   -4.4623 H   0  0  0  0  0  0  0  0  0  0  0  0
   -0.5343    2.4882   -2.0712 H   0  0  0  0  0  0  0  0  0  0  0  0
   -1.4297    3.1074   -0.6781 H   0  0  0  0  0  0  0  0  0  0  0  0
    1.8602    5.4688   -2.1974 H   0  0  0  0  0  0  0  0  0  0  0  0
    1.4918    3.9352   -2.9977 H   0  0  0  0  0  0  0  0  0  0  0  0
    2.2924   -2.5247    0.0709 H   0  0  0  0  0  0  0  0  0  0  0  0
    2.8560    0.8529   -2.5087 H   0  0  0  0  0  0  0  0  0  0  0  0
    0.2282    1.3564   -0.0263 H   0  0  0  0  0  0  0  0  0  0  0  0
    0.5564    2.9027    0.7680 H   0  0  0  0  0  0  0  0  0  0  0  0
    2.4854    4.2987   -0.1181 H   0  0  0  0  0  0  0  0  0  0  0  0
    3.4022    3.6346   -1.4814 H   0  0  0  0  0  0  0  0  0  0  0  0
    3.8380    1.7220   -0.3674 H   0  0  0  0  0  0  0  0  0  0  0  0
    2.8560    1.9792    1.0915 H   0  0  0  0  0  0  0  0  0  0  0  0
  1  3  1  0  0  0  0
  2  5  1  0  0  0  0
  2 17  1  0  0  0  0
  3 19  1  0  0  0  0
  3  7  2  0  0  0  0
  4  1  2  0  0  0  0
  4  8  1  0  0  0  0
  5 22  1  0  0  0  0
  5  9  1  0  0  0  0
  6  2  1  0  0  0  0
  6 10  1  0  0  0  0
  7 25  1  0  0  0  0
  8 12  2  0  0  0  0
  9 27  1  0  0  0  0
  9 28  1  0  0  0  0
 10 14  1  0  0  0  0
 10 29  1  0  0  0  0
 11 13  1  0  0  0  0
 11 32  1  0  0  0  0
 12  7  1  0  0  0  0
 12 13  1  0  0  0  0
 13 15  2  0  0  0  0
 14  9  1  0  0  0  0
 14 11  1  0  0  0  0
 16  1  1  0  0  0  0
 18  2  1  0  0  0  0
 20  4  1  0  0  0  0
 21  5  1  0  0  0  0
 23  6  1  0  0  0  0
 24  6  1  0  0  0  0
 26  8  1  0  0  0  0
 30 10  1  0  0  0  0
 31 11  1  0  0  0  0
M  END
>  <HBA>
2

>  <HBD>
0

>  <TPSA>
20.31

>  <cid>
35939

>  <dipole>
2.77

>  <excitation_energy_1>
3.44

>  <excitation_energy_2>
3.774

>  <excitation_energy_3>
4.612

>  <excitation_energy_4>
5.012

>  <homo_energy>
-5.981

>  <homo_lumo_gap>
4.512

>  <logP>
2.293

>  <lumo_energy>
-1.469

>  <melting_point>
60.1

>  <molecular_refractivity>
65.37

>  <oscillator_strength_1>
0.0012

>  <oscillator_strength_2>
0.0019

>  <oscillator_strength_3>
0.0196

>  <oscillator_strength_4>
0.0524

>  <open_babel_can_smiles>
O=C(c1ccccc1)CN1CCCCC1

>  <mulliken_charges>
32
1   -0.118214
2   -0.264127
3   -0.133162
4   -0.138891
5   -0.262659
6   -0.261983
7   -0.157233
8   -0.167815
9   -0.127185
10   -0.116883
11   -0.204404
12   0.065791
13   0.391963
14   -0.40076
15   -0.460527
16   0.135186
17   0.130996
18   0.136001
19   0.135745
20   0.133217
21   0.142287
22   0.135811
23   0.133714
24   0.139273
25   0.16157
26   0.158208
27   0.156151
28   0.114139
29   0.112429
30   0.135511
31   0.152146
32   0.143702

>  <lowdin_charges>
32
1   -0.140959
2   -0.280933
3   -0.15542
4   -0.160093
5   -0.280439
6   -0.280216
7   -0.128764
8   -0.142688
9   -0.200021
10   -0.200484
11   -0.224923
12   -0.05089
13   0.153157
14   -0.189183
15   -0.240037
16   0.160842
17   0.139371
18   0.147369
19   0.158531
20   0.158712
21   0.1465
22   0.147722
23   0.146377
24   0.143902
25   0.174731
26   0.17049
27   0.152832
28   0.118828
29   0.117457
30   0.142538
31   0.156428
32   0.139263

$$$$

