PCCDB-ID:  9258
public computational chemistry database (PCCDB) project, http://pccdb.org

  9  9  0  0  0  0  0  0  0  0999 V2000
   -0.9169   -1.0691   -0.3542 C   0  0  0  0  0  0  0  0  0  0  0  0
    1.3527    0.4793    0.2274 C   0  0  0  0  0  0  0  0  0  0  0  0
    0.9002   -1.2901   -0.0795 S   0  0  0  0  0  0  0  0  0  0  0  0
   -1.5140    0.4954    0.3786 S   0  0  0  0  0  0  0  0  0  0  0  0
    0.0714    1.6178   -0.4097 S   0  0  0  0  0  0  0  0  0  0  0  0
   -1.4411   -1.8872    0.1480 H   0  0  0  0  0  0  0  0  0  0  0  0
   -1.1285   -1.0902   -1.4245 H   0  0  0  0  0  0  0  0  0  0  0  0
    2.2776    0.6977   -0.3139 H   0  0  0  0  0  0  0  0  0  0  0  0
    1.5003    0.6338    1.2974 H   0  0  0  0  0  0  0  0  0  0  0  0
  1  3  1  0  0  0  0
  1  6  1  0  0  0  0
  1  4  1  0  0  0  0
  2  9  1  0  0  0  0
  3  2  1  0  0  0  0
  5  2  1  0  0  0  0
  5  4  1  0  0  0  0
  7  1  1  0  0  0  0
  8  2  1  0  0  0  0
M  END
>  <HBA>
3

>  <HBD>
0

>  <TPSA>
75.9

>  <cid>
9258

>  <dipole>
0.59

>  <excitation_energy_1>
3.622

>  <excitation_energy_2>
4.076

>  <excitation_energy_3>
4.976

>  <excitation_energy_4>
5.005

>  <homo_energy>
-6.313

>  <homo_lumo_gap>
4.895

>  <logP>
2.03

>  <lumo_energy>
-1.418

>  <melting_point>
25.58

>  <molecular_refractivity>
32.39

>  <oscillator_strength_1>
0.0057

>  <oscillator_strength_2>
0.0056

>  <oscillator_strength_3>
0.0004

>  <oscillator_strength_4>
0.0001

>  <open_babel_can_smiles>
C1SSCS1

>  <mulliken_charges>
9
1   -0.580062
2   -0.579915
3   0.144247
4   0.065139
5   0.064861
6   0.218224
7   0.224787
8   0.218246
9   0.224475

>  <lowdin_charges>
9
1   -0.489742
2   -0.48883
3   0.101448
4   0.066822
5   0.0661
6   0.193411
7   0.179194
8   0.192412
9   0.179185

$$$$

