PCCDB-ID:  14579
public computational chemistry database (PCCDB) project, http://pccdb.org

 29 29  0  0  1  0  0  0  0  0999 V2000
    2.1694   -1.5274    2.9092 C   0  0  0  0  0  0  0  0  0  0  0  0
    5.8871    1.8158    2.4791 C   0  0  0  0  0  0  0  0  0  0  0  0
    6.0598    0.4527    2.7280 C   0  0  0  0  0  0  0  0  0  0  0  0
    3.6104    1.3886    1.8338 C   0  0  0  0  0  0  0  0  0  0  0  0
    3.9281    4.3744    4.2184 C   0  0  0  0  0  0  0  0  0  0  0  0
    4.6580    2.3006    2.0270 C   0  0  0  0  0  0  0  0  0  0  0  0
    5.0164   -0.4509    2.5289 C   0  0  0  0  0  0  0  0  0  0  0  0
    3.4550    4.4517    2.7585 C   0  0  2  0  0  0  0  0  0  0  0  0
    3.7685    0.0272    2.0798 C   0  0  0  0  0  0  0  0  0  0  0  0
    4.4238    3.7703    1.7574 C   0  0  1  0  0  0  0  0  0  0  0  0
    5.0088    5.2852    4.4323 O   0  0  0  0  0  0  0  0  0  0  0  0
    5.1497   -1.7989    2.7318 O   0  0  0  0  0  0  0  0  0  0  0  0
    3.3423    5.8256    2.3822 O   0  0  0  0  0  0  0  0  0  0  0  0
    5.6759    4.4726    1.7842 O   0  0  0  0  0  0  0  0  0  0  0  0
    2.7234   -0.8169    1.7984 O   0  0  0  0  0  0  0  0  0  0  0  0
    1.3252   -2.0944    2.5102 H   0  0  0  0  0  0  0  0  0  0  0  0
    1.8066   -0.8298    3.6762 H   0  0  0  0  0  0  0  0  0  0  0  0
    2.8966   -2.2141    3.3523 H   0  0  0  0  0  0  0  0  0  0  0  0
    6.7183    2.4978    2.6159 H   0  0  0  0  0  0  0  0  0  0  0  0
    7.0264    0.0824    3.0668 H   0  0  0  0  0  0  0  0  0  0  0  0
    2.6422    1.7155    1.4634 H   0  0  0  0  0  0  0  0  0  0  0  0
    4.2031    3.3466    4.4861 H   0  0  0  0  0  0  0  0  0  0  0  0
    3.1247    4.7017    4.8857 H   0  0  0  0  0  0  0  0  0  0  0  0
    2.4664    3.9837    2.6685 H   0  0  0  0  0  0  0  0  0  0  0  0
    3.9758    3.8846    0.7584 H   0  0  0  0  0  0  0  0  0  0  0  0
    5.7042    5.0096    3.8048 H   0  0  0  0  0  0  0  0  0  0  0  0
    6.0615   -1.9807    3.0083 H   0  0  0  0  0  0  0  0  0  0  0  0
    3.8598    6.3062    3.0569 H   0  0  0  0  0  0  0  0  0  0  0  0
    5.4387    5.3858    1.5446 H   0  0  0  0  0  0  0  0  0  0  0  0
  1 18  1  0  0  0  0
  1 17  1  0  0  0  0
  2 19  1  0  0  0  0
  2  3  2  0  0  0  0
  3 20  1  0  0  0  0
  4  6  2  0  0  0  0
  4  9  1  0  0  0  0
  5 11  1  0  0  0  0
  5 22  1  0  0  0  0
  5 23  1  0  0  0  0
  6  2  1  0  0  0  0
  7  3  1  0  0  0  0
  7 12  1  0  0  0  0
  8 24  1  6  0  0  0
  8  5  1  0  0  0  0
  9  7  2  0  0  0  0
 10 25  1  6  0  0  0
 10 14  1  0  0  0  0
 10  6  1  0  0  0  0
 10  8  1  0  0  0  0
 12 27  1  0  0  0  0
 13  8  1  0  0  0  0
 13 28  1  0  0  0  0
 15  9  1  0  0  0  0
 15  1  1  0  0  0  0
 16  1  1  0  0  0  0
 21  4  1  0  0  0  0
 26 11  1  0  0  0  0
 29 14  1  0  0  0  0
M  END
>  <HBA>
5

>  <HBD>
4

>  <TPSA>
90.15

>  <cid>
14579

>  <dipole>
2.31

>  <excitation_energy_1>
4.866

>  <excitation_energy_2>
5.076

>  <excitation_energy_3>
5.427

>  <excitation_energy_4>
5.529

>  <homo_energy>
-5.891

>  <homo_lumo_gap>
5.777

>  <logP>
-0.213

>  <lumo_energy>
-0.114

>  <melting_point>
108.76

>  <molecular_refractivity>
53.02

>  <oscillator_strength_1>
0.0466

>  <oscillator_strength_2>
0.0009

>  <oscillator_strength_3>
0.0222

>  <oscillator_strength_4>
0.0166

>  <open_babel_can_smiles>
OC[C@H]([C@H](c1ccc(c(c1)OC)O)O)O

>  <mulliken_charges>
29
1   -0.215151
2   -0.180534
3   -0.202369
4   -0.240077
5   -0.080139
6   0.121904
7   0.318049
8   0.104303
9   0.332221
10   0.055508
11   -0.640811
12   -0.642005
13   -0.652954
14   -0.651403
15   -0.519935
16   0.160562
17   0.137431
18   0.170467
19   0.149881
20   0.12249
21   0.135946
22   0.151611
23   0.158003
24   0.133355
25   0.146967
26   0.405946
27   0.41064
28   0.406529
29   0.403564

>  <lowdin_charges>
29
1   -0.280065
2   -0.165432
3   -0.206455
4   -0.180662
5   -0.155489
6   -0.030743
7   0.07804
8   -0.038839
9   0.070862
10   -0.013822
11   -0.478195
12   -0.374951
13   -0.474896
14   -0.459126
15   -0.221242
16   0.158053
17   0.13914
18   0.154851
19   0.170399
20   0.154794
21   0.165532
22   0.146771
23   0.154349
24   0.145954
25   0.146886
26   0.341978
27   0.358889
28   0.345901
29   0.347515

$$$$

