PCCDB-ID:  11450
public computational chemistry database (PCCDB) project, http://pccdb.org

 25 25  0  0  0  0  0  0  0  0999 V2000
    1.0910   -0.1048    0.4316 C   0  0  0  0  0  0  0  0  0  0  0  0
    3.4541   -0.8884    0.8484 C   0  0  0  0  0  0  0  0  0  0  0  0
    2.6928   -0.3551   -1.4720 C   0  0  0  0  0  0  0  0  0  0  0  0
    3.3540    3.3698    1.7893 C   0  0  0  0  0  0  0  0  0  0  0  0
    2.9654    2.0560    1.5471 C   0  0  0  0  0  0  0  0  0  0  0  0
    3.7964    4.1885    0.7485 C   0  0  0  0  0  0  0  0  0  0  0  0
    3.4520    2.3432   -0.7896 C   0  0  0  0  0  0  0  0  0  0  0  0
    3.0080    1.5175    0.2465 C   0  0  0  0  0  0  0  0  0  0  0  0
    3.8430    3.6652   -0.5437 C   0  0  0  0  0  0  0  0  0  0  0  0
    2.5692    0.0607    0.0057 C   0  0  0  0  0  0  0  0  0  0  0  0
    4.2609    4.3967   -1.6245 O   0  0  0  0  0  0  0  0  0  0  0  0
    0.7602   -1.1380    0.2690 H   0  0  0  0  0  0  0  0  0  0  0  0
    0.4396    0.5568   -0.1508 H   0  0  0  0  0  0  0  0  0  0  0  0
    0.9439    0.1306    1.4907 H   0  0  0  0  0  0  0  0  0  0  0  0
    3.1432   -1.9301    0.7014 H   0  0  0  0  0  0  0  0  0  0  0  0
    3.3848   -0.6679    1.9186 H   0  0  0  0  0  0  0  0  0  0  0  0
    4.5073   -0.8037    0.5574 H   0  0  0  0  0  0  0  0  0  0  0  0
    2.3766   -1.3979   -1.5894 H   0  0  0  0  0  0  0  0  0  0  0  0
    3.7252   -0.2800   -1.8313 H   0  0  0  0  0  0  0  0  0  0  0  0
    2.0584    0.2574   -2.1226 H   0  0  0  0  0  0  0  0  0  0  0  0
    3.3134    3.7675    2.8001 H   0  0  0  0  0  0  0  0  0  0  0  0
    2.6257    1.4459    2.3785 H   0  0  0  0  0  0  0  0  0  0  0  0
    4.0989    5.2165    0.9397 H   0  0  0  0  0  0  0  0  0  0  0  0
    3.5076    1.9928   -1.8132 H   0  0  0  0  0  0  0  0  0  0  0  0
    4.5080    5.2847   -1.3232 H   0  0  0  0  0  0  0  0  0  0  0  0
  1 14  1  0  0  0  0
  2 16  1  0  0  0  0
  3 10  1  0  0  0  0
  4 21  1  0  0  0  0
  5  4  1  0  0  0  0
  5 22  1  0  0  0  0
  6 23  1  0  0  0  0
  6  4  2  0  0  0  0
  7  9  2  0  0  0  0
  7  8  1  0  0  0  0
  8  5  2  0  0  0  0
  9  6  1  0  0  0  0
 10  8  1  0  0  0  0
 10  1  1  0  0  0  0
 10  2  1  0  0  0  0
 11 25  1  0  0  0  0
 11  9  1  0  0  0  0
 12  1  1  0  0  0  0
 13  1  1  0  0  0  0
 15  2  1  0  0  0  0
 17  2  1  0  0  0  0
 18  3  1  0  0  0  0
 19  3  1  0  0  0  0
 20  3  1  0  0  0  0
 24  7  1  0  0  0  0
M  END
>  <HBA>
1

>  <HBD>
1

>  <TPSA>
20.23

>  <cid>
11450

>  <dipole>
1.09

>  <excitation_energy_1>
5.041

>  <excitation_energy_2>
5.14

>  <excitation_energy_3>
5.611

>  <excitation_energy_4>
5.739

>  <homo_energy>
-5.823

>  <homo_lumo_gap>
5.978

>  <logP>
2.69

>  <lumo_energy>
0.155

>  <melting_point>
53.08

>  <molecular_refractivity>
47.73

>  <oscillator_strength_1>
0.0366

>  <oscillator_strength_2>
0.0

>  <oscillator_strength_3>
0.0043

>  <oscillator_strength_4>
0.0199

>  <open_babel_can_smiles>
Oc1cccc(c1)C(C)(C)C

>  <mulliken_charges>
25
1   -0.438206
2   -0.438357
3   -0.45585
4   -0.134589
5   -0.192461
6   -0.198814
7   -0.236321
8   0.176505
9   0.355285
10   0.015498
11   -0.64479
12   0.137245
13   0.147743
14   0.142547
15   0.137207
16   0.142573
17   0.147572
18   0.139725
19   0.147212
20   0.147066
21   0.127305
22   0.120557
23   0.114
24   0.135941
25   0.405408

>  <lowdin_charges>
25
1   -0.438089
2   -0.434583
3   -0.443768
4   -0.144775
5   -0.191273
6   -0.219845
7   -0.201812
8   0.01304
9   0.101945
10   0.017988
11   -0.380757
12   0.145248
13   0.153212
14   0.147097
15   0.144998
16   0.146832
17   0.150357
18   0.148663
19   0.149556
20   0.151793
21   0.156173
22   0.1546
23   0.150239
24   0.167356
25   0.355807

$$$$

