PCCDB-ID:  22234
public computational chemistry database (PCCDB) project, http://pccdb.org

 24 23  0  0  1  0  0  0  0  0999 V2000
    0.6010   -0.3288    0.9285 C   0  0  0  0  0  0  0  0  0  0  0  0
    2.6360   -0.9056   -0.5379 C   0  0  0  0  0  0  0  0  0  0  0  0
    2.0498   -2.1530   -1.1868 C   0  0  0  0  0  0  0  0  0  0  0  0
    2.0887   -0.6576    0.8690 C   0  0  1  0  0  0  0  0  0  0  0  0
    2.3530   -3.3676   -3.1835 C   0  0  0  0  0  0  0  0  0  0  0  0
    3.0190    0.5729    2.7085 C   0  0  0  0  0  0  0  0  0  0  0  0
    1.4253   -4.1681   -2.8362 N   0  0  0  0  0  0  0  0  0  0  0  0
    2.5574   -0.2531    3.5519 N   0  0  0  0  0  0  0  0  0  0  0  0
    3.1229   -3.3619   -4.3048 O   0  0  0  0  0  0  0  0  0  0  0  0
    3.7508    1.6752    3.0053 O   0  0  0  0  0  0  0  0  0  0  0  0
    2.7411   -2.3281   -2.4367 O   0  0  0  0  0  0  0  0  0  0  0  0
    2.8515    0.4763    1.3733 O   0  0  0  0  0  0  0  0  0  0  0  0
    0.0030   -1.1814    0.5887 H   0  0  0  0  0  0  0  0  0  0  0  0
    0.3681    0.5327    0.2921 H   0  0  0  0  0  0  0  0  0  0  0  0
    0.3114   -0.1042    1.9581 H   0  0  0  0  0  0  0  0  0  0  0  0
    2.4372   -0.0326   -1.1715 H   0  0  0  0  0  0  0  0  0  0  0  0
    3.7240   -1.0196   -0.4750 H   0  0  0  0  0  0  0  0  0  0  0  0
    0.9775   -2.0644   -1.3845 H   0  0  0  0  0  0  0  0  0  0  0  0
    2.1978   -3.0456   -0.5684 H   0  0  0  0  0  0  0  0  0  0  0  0
    2.3051   -1.5071    1.5239 H   0  0  0  0  0  0  0  0  0  0  0  0
    1.2634   -4.9008   -3.5264 H   0  0  0  0  0  0  0  0  0  0  0  0
    2.8285    0.0223    4.4953 H   0  0  0  0  0  0  0  0  0  0  0  0
    2.8562   -4.1099   -4.8606 H   0  0  0  0  0  0  0  0  0  0  0  0
    3.9833    2.1127    2.1682 H   0  0  0  0  0  0  0  0  0  0  0  0
  1 15  1  0  0  0  0
  2 17  1  0  0  0  0
  2  4  1  0  0  0  0
  3 19  1  0  0  0  0
  3  2  1  0  0  0  0
  4  1  1  0  0  0  0
  4 12  1  0  0  0  0
  4 20  1  1  0  0  0
  5  7  2  0  0  0  0
  5 11  1  0  0  0  0
  6 10  1  0  0  0  0
  6  8  2  0  0  0  0
  8 22  1  0  0  0  0
  9  5  1  0  0  0  0
 11  3  1  0  0  0  0
 12  6  1  0  0  0  0
 13  1  1  0  0  0  0
 14  1  1  0  0  0  0
 16  2  1  0  0  0  0
 18  3  1  0  0  0  0
 21  7  1  0  0  0  0
 23  9  1  0  0  0  0
 24 10  1  0  0  0  0
M  END
>  <HBA>
6

>  <HBD>
2

>  <TPSA>
104.64

>  <cid>
22234

>  <dipole>
2.56

>  <excitation_energy_1>
5.96

>  <excitation_energy_2>
6.391

>  <excitation_energy_3>
6.447

>  <excitation_energy_4>
6.456

>  <homo_energy>
-6.972

>  <homo_lumo_gap>
8.161

>  <logP>
1.356

>  <lumo_energy>
1.189

>  <melting_point>
127.48

>  <molecular_refractivity>
39.72

>  <oscillator_strength_1>
0.005

>  <oscillator_strength_2>
0.0003

>  <oscillator_strength_3>
0.0007

>  <oscillator_strength_4>
0.0499

>  <open_babel_can_smiles>
OC(=N)OCC[C@@H](OC(=N)O)C

>  <mulliken_charges>
24
1   -0.469728
2   -0.293712
3   -0.02639
4   0.136004
5   0.646689
6   0.686695
7   -0.628744
8   -0.642579
9   -0.569868
10   -0.593309
11   -0.450289
12   -0.504425
13   0.15466
14   0.148495
15   0.183356
16   0.154402
17   0.162734
18   0.165897
19   0.161962
20   0.174108
21   0.277011
22   0.301274
23   0.408646
24   0.41711

>  <lowdin_charges>
24
1   -0.458097
2   -0.286327
3   -0.117522
4   0.014027
5   0.188319
6   0.193126
7   -0.471281
8   -0.458652
9   -0.365079
10   -0.372214
11   -0.177921
12   -0.214645
13   0.159626
14   0.153132
15   0.171722
16   0.155047
17   0.158887
18   0.153101
19   0.153924
20   0.162082
21   0.257707
22   0.271859
23   0.362555
24   0.366625

$$$$

