PCCDB-ID:  17049
public computational chemistry database (PCCDB) project, http://pccdb.org

 23 23  0  0  1  0  0  0  0  0999 V2000
    0.9870    0.0216    0.3250 C   0  0  0  0  0  0  0  0  0  0  0  0
    2.5106   -0.0572    0.1837 C   0  0  0  0  0  0  0  0  0  0  0  0
    3.0686    0.9562   -0.8235 C   0  0  0  0  0  0  0  0  0  0  0  0
    4.5829    0.8775   -0.9663 C   0  0  0  0  0  0  0  0  0  0  0  0
    6.4004    1.8568   -2.1181 C   0  0  0  0  0  0  0  0  0  0  0  0
    6.9191    2.7150   -4.5168 C   0  0  0  0  0  0  0  0  0  0  0  0
    6.7253    2.9702   -3.0845 C   0  0  2  0  0  0  0  0  0  0  0  0
    5.0010    1.8415   -1.9199 O   0  0  0  0  0  0  0  0  0  0  0  0
    8.0414    2.9266   -3.6473 O   0  0  0  0  0  0  0  0  0  0  0  0
    0.6150   -0.7131    1.0479 H   0  0  0  0  0  0  0  0  0  0  0  0
    0.4903   -0.1715   -0.6336 H   0  0  0  0  0  0  0  0  0  0  0  0
    0.6722    1.0152    0.6662 H   0  0  0  0  0  0  0  0  0  0  0  0
    2.7967   -1.0733   -0.1230 H   0  0  0  0  0  0  0  0  0  0  0  0
    2.9768    0.1075    1.1654 H   0  0  0  0  0  0  0  0  0  0  0  0
    2.7986    1.9762   -0.5195 H   0  0  0  0  0  0  0  0  0  0  0  0
    2.6157    0.7936   -1.8104 H   0  0  0  0  0  0  0  0  0  0  0  0
    4.8886   -0.1331   -1.2895 H   0  0  0  0  0  0  0  0  0  0  0  0
    5.0739    1.0675    0.0044 H   0  0  0  0  0  0  0  0  0  0  0  0
    6.9284    2.0287   -1.1639 H   0  0  0  0  0  0  0  0  0  0  0  0
    6.7635    0.8980   -2.5242 H   0  0  0  0  0  0  0  0  0  0  0  0
    6.7328    3.5102   -5.2387 H   0  0  0  0  0  0  0  0  0  0  0  0
    6.8098    1.7004   -4.9010 H   0  0  0  0  0  0  0  0  0  0  0  0
    6.3902    3.9615   -2.7742 H   0  0  0  0  0  0  0  0  0  0  0  0
  1 12  1  0  0  0  0
  1 10  1  0  0  0  0
  2  1  1  0  0  0  0
  2 14  1  0  0  0  0
  3 15  1  0  0  0  0
  3  2  1  0  0  0  0
  4  3  1  0  0  0  0
  4 18  1  0  0  0  0
  5  8  1  0  0  0  0
  5 19  1  0  0  0  0
  6  9  1  0  0  0  0
  6  7  1  0  0  0  0
  7 23  1  1  0  0  0
  7  5  1  0  0  0  0
  8  4  1  0  0  0  0
  9  7  1  0  0  0  0
 11  1  1  0  0  0  0
 13  2  1  0  0  0  0
 16  3  1  0  0  0  0
 17  4  1  0  0  0  0
 20  5  1  0  0  0  0
 21  6  1  0  0  0  0
 22  6  1  0  0  0  0
M  END
>  <HBA>
2

>  <HBD>
0

>  <TPSA>
21.76

>  <cid>
17049

>  <dipole>
1.82

>  <excitation_energy_1>
6.696

>  <excitation_energy_2>
6.995

>  <excitation_energy_3>
7.115

>  <excitation_energy_4>
7.146

>  <homo_energy>
-7.012

>  <homo_lumo_gap>
9.241

>  <logP>
1.202

>  <lumo_energy>
2.229

>  <melting_point>
-22.55

>  <molecular_refractivity>
35.82

>  <oscillator_strength_1>
0.0184

>  <oscillator_strength_2>
0.0156

>  <oscillator_strength_3>
0.0154

>  <oscillator_strength_4>
0.0172

>  <open_babel_can_smiles>
CCCCOC[C@@H]1CO1

>  <mulliken_charges>
23
1   -0.440238
2   -0.257237
3   -0.265709
4   -0.002138
5   -0.026787
6   -0.103074
7   0.091775
8   -0.483387
9   -0.447942
10   0.143974
11   0.144308
12   0.144486
13   0.133389
14   0.133588
15   0.143699
16   0.143765
17   0.117346
18   0.117977
19   0.129698
20   0.126857
21   0.152693
22   0.151092
23   0.151865

>  <lowdin_charges>
23
1   -0.443428
2   -0.27114
3   -0.278829
4   -0.126647
5   -0.13189
6   -0.16349
7   -0.023439
8   -0.273756
9   -0.285324
10   0.151531
11   0.147886
12   0.147622
13   0.139204
14   0.139738
15   0.146815
16   0.147301
17   0.123781
18   0.124562
19   0.133835
20   0.133676
21   0.156461
22   0.152405
23   0.153126

$$$$

