PCCDB-ID:  7480
public computational chemistry database (PCCDB) project, http://pccdb.org

 20 20  0  0  0  0  0  0  0  0999 V2000
    4.0055   -0.2742    0.6602 C   0  0  0  0  0  0  0  0  0  0  0  0
    2.6914    0.0810   -0.0608 C   0  0  0  0  0  0  0  0  0  0  0  0
    3.1825    0.6259   -2.4884 C   0  0  0  0  0  0  0  0  0  0  0  0
    2.8379    2.4511   -0.9504 C   0  0  0  0  0  0  0  0  0  0  0  0
    3.4096    1.5264   -3.5246 C   0  0  0  0  0  0  0  0  0  0  0  0
    3.0618    3.3694   -1.9715 C   0  0  0  0  0  0  0  0  0  0  0  0
    2.8954    1.0690   -1.1879 C   0  0  0  0  0  0  0  0  0  0  0  0
    3.3460    2.8911   -3.2492 C   0  0  0  0  0  0  0  0  0  0  0  0
    3.5794    3.8514   -4.3365 N   0  0  0  0  0  0  0  0  0  0  0  0
    3.8268    3.4011   -5.4556 O   0  0  0  0  0  0  0  0  0  0  0  0
    3.5148    5.0510   -4.0656 O   0  0  0  0  0  0  0  0  0  0  0  0
    3.8209   -0.9883    1.4701 H   0  0  0  0  0  0  0  0  0  0  0  0
    4.4707    0.6187    1.0923 H   0  0  0  0  0  0  0  0  0  0  0  0
    4.7260   -0.7229   -0.0325 H   0  0  0  0  0  0  0  0  0  0  0  0
    1.9817    0.4958    0.6654 H   0  0  0  0  0  0  0  0  0  0  0  0
    2.2361   -0.8356   -0.4553 H   0  0  0  0  0  0  0  0  0  0  0  0
    3.2250   -0.4410   -2.6925 H   0  0  0  0  0  0  0  0  0  0  0  0
    2.6109    2.8127    0.0493 H   0  0  0  0  0  0  0  0  0  0  0  0
    3.6278    1.1944   -4.5321 H   0  0  0  0  0  0  0  0  0  0  0  0
    3.0157    4.4376   -1.7990 H   0  0  0  0  0  0  0  0  0  0  0  0
  1 13  1  0  0  0  0
  1 12  1  0  0  0  0
  2  1  1  0  0  0  0
  2 15  1  0  0  0  0
  3  7  2  0  0  0  0
  4 18  1  0  0  0  0
  5  8  2  0  0  0  0
  5  3  1  0  0  0  0
  6 20  1  0  0  0  0
  6  4  2  0  0  0  0
  7  4  1  0  0  0  0
  7  2  1  0  0  0  0
  8  6  1  0  0  0  0
  9 11  2  0  0  0  0
  9  8  1  0  0  0  0
 10  9  2  0  0  0  0
 14  1  1  0  0  0  0
 16  2  1  0  0  0  0
 17  3  1  0  0  0  0
 19  5  1  0  0  0  0
M  END
>  <HBA>
0

>  <HBD>
0

>  <TPSA>
45.82

>  <cid>
7480

>  <dipole>
5.25

>  <excitation_energy_1>
3.751

>  <excitation_energy_2>
4.276

>  <excitation_energy_3>
4.278

>  <excitation_energy_4>
4.443

>  <homo_energy>
-7.35

>  <homo_lumo_gap>
5.034

>  <logP>
2.68

>  <lumo_energy>
-2.316

>  <melting_point>
46.28

>  <molecular_refractivity>
45.04

>  <oscillator_strength_1>
0.0

>  <oscillator_strength_2>
0.0128

>  <oscillator_strength_3>
0.0005

>  <oscillator_strength_4>
0.2904

>  <open_babel_can_smiles>
CCc1ccc(cc1)N(=O)=O

>  <mulliken_charges>
20
1   -0.437335
2   -0.345604
3   -0.193251
4   -0.193226
5   -0.145857
6   -0.145787
7   0.193714
8   0.270413
9   0.378146
10   -0.397365
11   -0.397462
12   0.153384
13   0.154619
14   0.15463
15   0.152255
16   0.152243
17   0.141327
18   0.141284
19   0.181941
20   0.18193

>  <lowdin_charges>
20
1   -0.441357
2   -0.27338
3   -0.158246
4   -0.15941
5   -0.134181
6   -0.133239
7   0.023123
8   -0.003169
9   0.305456
10   -0.248967
11   -0.24799
12   0.155567
13   0.154061
14   0.154651
15   0.155162
16   0.154428
17   0.162235
18   0.163311
19   0.186455
20   0.185491

$$$$

