PCCDB-ID:  14506
public computational chemistry database (PCCDB) project, http://pccdb.org

 16 17  0  0  0  0  0  0  0  0999 V2000
   -0.5289   -0.6325   -2.5216 C   0  0  0  0  0  0  0  0  0  0  0  0
   -1.3056   -0.9501   -1.2790 C   0  0  0  0  0  0  0  0  0  0  0  0
    0.4314   -3.7587    0.5056 C   0  0  0  0  0  0  0  0  0  0  0  0
    0.5439   -4.9159   -0.4411 C   0  0  0  0  0  0  0  0  0  0  0  0
    0.1549   -2.9119   -1.8406 C   0  0  0  0  0  0  0  0  0  0  0  0
   -0.0019   -1.5531   -1.5341 N   0  0  0  0  0  0  0  0  0  0  0  0
   -0.2421   -3.7489   -0.7887 N   0  0  0  0  0  0  0  0  0  0  0  0
    0.5875   -3.3198   -2.9028 O   0  0  0  0  0  0  0  0  0  0  0  0
   -0.0037    0.3160   -2.6063 H   0  0  0  0  0  0  0  0  0  0  0  0
   -0.8673   -1.0613   -3.4624 H   0  0  0  0  0  0  0  0  0  0  0  0
   -2.1808   -1.5893   -1.3767 H   0  0  0  0  0  0  0  0  0  0  0  0
   -1.3441   -0.2379   -0.4575 H   0  0  0  0  0  0  0  0  0  0  0  0
    1.2995   -3.1132    0.6236 H   0  0  0  0  0  0  0  0  0  0  0  0
   -0.2185   -3.8213    1.3758 H   0  0  0  0  0  0  0  0  0  0  0  0
   -0.0228   -5.8256   -0.2569 H   0  0  0  0  0  0  0  0  0  0  0  0
    1.4819   -5.0534   -0.9747 H   0  0  0  0  0  0  0  0  0  0  0  0
  1  6  1  0  0  0  0
  1  2  1  0  0  0  0
  2 12  1  0  0  0  0
  3 13  1  0  0  0  0
  3 14  1  0  0  0  0
  4 15  1  0  0  0  0
  4  3  1  0  0  0  0
  5  6  1  0  0  0  0
  5  7  1  0  0  0  0
  6  2  1  0  0  0  0
  7  4  1  0  0  0  0
  7  3  1  0  0  0  0
  8  5  2  0  0  0  0
  9  1  1  0  0  0  0
 10  1  1  0  0  0  0
 11  2  1  0  0  0  0
 16  4  1  0  0  0  0
M  END
>  <HBA>
3

>  <HBD>
0

>  <TPSA>
23.09

>  <cid>
14506

>  <dipole>
2.82

>  <excitation_energy_1>
5.557

>  <excitation_energy_2>
6.267

>  <excitation_energy_3>
6.609

>  <excitation_energy_4>
6.641

>  <homo_energy>
-6.732

>  <homo_lumo_gap>
7.244

>  <logP>
-0.387

>  <lumo_energy>
0.512

>  <melting_point>
28.4

>  <molecular_refractivity>
36.13

>  <oscillator_strength_1>
0.0018

>  <oscillator_strength_2>
0.1675

>  <oscillator_strength_3>
0.0182

>  <oscillator_strength_4>
0.0019

>  <open_babel_can_smiles>
O=C(N1CC1)N1CC1

>  <mulliken_charges>
16
1   -0.186306
2   -0.191958
3   -0.191797
4   -0.186341
5   0.630379
6   -0.376388
7   -0.376425
8   -0.484884
9   0.164939
10   0.179238
11   0.174714
12   0.163005
13   0.174657
14   0.162988
15   0.164912
16   0.179268

>  <lowdin_charges>
16
1   -0.219146
2   -0.221532
3   -0.220651
4   -0.219252
5   0.170276
6   -0.160445
7   -0.160648
8   -0.280689
9   0.163196
10   0.167091
11   0.163886
12   0.161806
13   0.163737
14   0.161856
15   0.163723
16   0.166792

$$$$

