PCCDB-ID:  15013
public computational chemistry database (PCCDB) project, http://pccdb.org

 22 21  0  0  0  0  0  0  0  0999 V2000
    0.9124   -1.7662    0.6322 C   0  0  0  0  0  0  0  0  0  0  0  0
    7.2169   -2.2094    1.0963 C   0  0  0  0  0  0  0  0  0  0  0  0
    7.2916   -3.8272   -0.6753 C   0  0  0  0  0  0  0  0  0  0  0  0
    5.1951   -2.7448   -0.1405 C   0  0  0  0  0  0  0  0  0  0  0  0
    4.5083   -1.3783   -0.1874 C   0  0  0  0  0  0  0  0  0  0  0  0
    2.3919   -1.6006    0.8919 C   0  0  0  0  0  0  0  0  0  0  0  0
    6.6500   -2.6132   -0.1866 N   0  0  0  0  0  0  0  0  0  0  0  0
    2.9084   -1.5252    1.9851 O   0  0  0  0  0  0  0  0  0  0  0  0
    3.0756   -1.5425   -0.2775 O   0  0  0  0  0  0  0  0  0  0  0  0
    0.3775   -1.7914    1.5821 H   0  0  0  0  0  0  0  0  0  0  0  0
    0.7300   -2.6927    0.0778 H   0  0  0  0  0  0  0  0  0  0  0  0
    0.5428   -0.9401    0.0161 H   0  0  0  0  0  0  0  0  0  0  0  0
    8.2934   -2.0420    0.9821 H   0  0  0  0  0  0  0  0  0  0  0  0
    7.0681   -2.9663    1.8911 H   0  0  0  0  0  0  0  0  0  0  0  0
    6.7690   -1.2721    1.4382 H   0  0  0  0  0  0  0  0  0  0  0  0
    8.3718   -3.6621   -0.7544 H   0  0  0  0  0  0  0  0  0  0  0  0
    6.9127   -4.0734   -1.6730 H   0  0  0  0  0  0  0  0  0  0  0  0
    7.1309   -4.7051   -0.0187 H   0  0  0  0  0  0  0  0  0  0  0  0
    4.8708   -3.3096   -1.0216 H   0  0  0  0  0  0  0  0  0  0  0  0
    4.8477   -3.2999    0.7509 H   0  0  0  0  0  0  0  0  0  0  0  0
    4.7993   -0.8427   -1.0932 H   0  0  0  0  0  0  0  0  0  0  0  0
    4.7391   -0.7719    0.6903 H   0  0  0  0  0  0  0  0  0  0  0  0
  1  6  1  0  0  0  0
  1 10  1  0  0  0  0
  2 15  1  0  0  0  0
  2 14  1  0  0  0  0
  3  7  1  0  0  0  0
  3 18  1  0  0  0  0
  4 20  1  0  0  0  0
  5  4  1  0  0  0  0
  5 22  1  0  0  0  0
  6  8  2  0  0  0  0
  7  4  1  0  0  0  0
  7  2  1  0  0  0  0
  9  5  1  0  0  0  0
  9  6  1  0  0  0  0
 11  1  1  0  0  0  0
 12  1  1  0  0  0  0
 13  2  1  0  0  0  0
 16  3  1  0  0  0  0
 17  3  1  0  0  0  0
 19  4  1  0  0  0  0
 21  5  1  0  0  0  0
M  END
>  <HBA>
3

>  <HBD>
0

>  <TPSA>
29.54

>  <cid>
15013

>  <dipole>
1.5

>  <excitation_energy_1>
5.369

>  <excitation_energy_2>
5.552

>  <excitation_energy_3>
5.813

>  <excitation_energy_4>
5.832

>  <homo_energy>
-5.842

>  <homo_lumo_gap>
6.242

>  <logP>
0.111

>  <lumo_energy>
0.4

>  <melting_point>
-11.49

>  <molecular_refractivity>
35.14

>  <oscillator_strength_1>
0.0048

>  <oscillator_strength_2>
0.0111

>  <oscillator_strength_3>
0.0132

>  <oscillator_strength_4>
0.001

>  <open_babel_can_smiles>
CN(CCOC(=O)C)C

>  <mulliken_charges>
22
1   -0.522493
2   -0.303749
3   -0.295059
4   -0.137231
5   -0.049372
6   0.599873
7   -0.37488
8   -0.468364
9   -0.456649
10   0.182017
11   0.180975
12   0.181841
13   0.149903
14   0.125343
15   0.156994
16   0.149331
17   0.149926
18   0.120768
19   0.14467
20   0.135826
21   0.160352
22   0.169977

>  <lowdin_charges>
22
1   -0.465752
2   -0.357192
3   -0.3531
4   -0.211945
5   -0.137154
6   0.199648
7   -0.184929
8   -0.267271
9   -0.199519
10   0.175322
11   0.177575
12   0.178547
13   0.149047
14   0.125251
15   0.152891
16   0.148345
17   0.149242
18   0.122242
19   0.150329
20   0.132123
21   0.157681
22   0.158618

$$$$

