PCCDB-ID:  21902
public computational chemistry database (PCCDB) project, http://pccdb.org

 27 27  0  0  1  0  0  0  0  0999 V2000
    1.0136    0.7671    0.3549 C   0  0  0  0  0  0  0  0  0  0  0  0
    4.1931    0.6011    2.4793 C   0  0  0  0  0  0  0  0  0  0  0  0
    2.3705    0.2058   -0.0821 C   0  0  0  0  0  0  0  0  0  0  0  0
    3.1569   -0.5101    2.2817 C   0  0  0  0  0  0  0  0  0  0  0  0
    4.0126   -3.0095   -1.5106 C   0  0  0  0  0  0  0  0  0  0  0  0
    2.8011   -3.2050    0.7468 C   0  0  0  0  0  0  0  0  0  0  0  0
    4.0746   -2.7919    0.0016 C   0  0  2  0  0  0  0  0  0  0  0  0
    2.9198   -0.9087    0.8149 C   0  0  0  0  0  0  0  0  0  0  0  0
    5.0861   -2.3574   -2.1603 O   0  0  0  0  0  0  0  0  0  0  0  0
    2.0212   -2.0156    0.7478 O   0  0  0  0  0  0  0  0  0  0  0  0
    4.1661   -1.3803    0.2589 O   0  0  0  0  0  0  0  0  0  0  0  0
    0.6490    1.4934   -0.3796 H   0  0  0  0  0  0  0  0  0  0  0  0
    1.0727    1.2791    1.3217 H   0  0  0  0  0  0  0  0  0  0  0  0
    0.2713   -0.0329    0.4390 H   0  0  0  0  0  0  0  0  0  0  0  0
    4.3743    0.7723    3.5460 H   0  0  0  0  0  0  0  0  0  0  0  0
    3.8630    1.5523    2.0470 H   0  0  0  0  0  0  0  0  0  0  0  0
    5.1441    0.3278    2.0113 H   0  0  0  0  0  0  0  0  0  0  0  0
    3.1187    1.0053   -0.1315 H   0  0  0  0  0  0  0  0  0  0  0  0
    2.2899   -0.2160   -1.0904 H   0  0  0  0  0  0  0  0  0  0  0  0
    2.1938   -0.2235    2.7191 H   0  0  0  0  0  0  0  0  0  0  0  0
    3.4844   -1.4116    2.8138 H   0  0  0  0  0  0  0  0  0  0  0  0
    3.0347   -2.6599   -1.8828 H   0  0  0  0  0  0  0  0  0  0  0  0
    4.0993   -4.0777   -1.7414 H   0  0  0  0  0  0  0  0  0  0  0  0
    3.0199   -3.5464    1.7686 H   0  0  0  0  0  0  0  0  0  0  0  0
    2.2278   -3.9819    0.2314 H   0  0  0  0  0  0  0  0  0  0  0  0
    4.9781   -3.2630    0.4053 H   0  0  0  0  0  0  0  0  0  0  0  0
    5.0891   -1.4530   -1.8019 H   0  0  0  0  0  0  0  0  0  0  0  0
  1 14  1  0  0  0  0
  1 13  1  0  0  0  0
  2 15  1  0  0  0  0
  3  1  1  0  0  0  0
  3  8  1  0  0  0  0
  4  2  1  0  0  0  0
  4 20  1  0  0  0  0
  4 21  1  0  0  0  0
  5  7  1  0  0  0  0
  6 10  1  0  0  0  0
  6 24  1  0  0  0  0
  7 11  1  0  0  0  0
  7 26  1  1  0  0  0
  7  6  1  0  0  0  0
  8  4  1  0  0  0  0
  9 27  1  0  0  0  0
  9  5  1  0  0  0  0
 10  8  1  0  0  0  0
 11  8  1  0  0  0  0
 12  1  1  0  0  0  0
 16  2  1  0  0  0  0
 17  2  1  0  0  0  0
 18  3  1  0  0  0  0
 19  3  1  0  0  0  0
 22  5  1  0  0  0  0
 23  5  1  0  0  0  0
 25  6  1  0  0  0  0
M  END
>  <HBA>
3

>  <HBD>
1

>  <TPSA>
38.69

>  <cid>
21902

>  <dipole>
1.86

>  <excitation_energy_1>
6.427

>  <excitation_energy_2>
6.557

>  <excitation_energy_3>
6.581

>  <excitation_energy_4>
6.784

>  <homo_energy>
-6.833

>  <homo_lumo_gap>
8.882

>  <logP>
0.91

>  <lumo_energy>
2.049

>  <melting_point>
6.43

>  <molecular_refractivity>
41.83

>  <oscillator_strength_1>
0.0124

>  <oscillator_strength_2>
0.0024

>  <oscillator_strength_3>
0.0006

>  <oscillator_strength_4>
0.0242

>  <open_babel_can_smiles>
OC[C@@H]1COC(O1)(CC)CC

>  <mulliken_charges>
27
1   -0.459877
2   -0.458174
3   -0.275874
4   -0.266837
5   -0.031281
6   -0.069311
7   0.103574
8   0.542643
9   -0.623099
10   -0.509447
11   -0.548677
12   0.14686
13   0.146968
14   0.167455
15   0.14544
16   0.146162
17   0.164675
18   0.14564
19   0.144253
20   0.146519
21   0.134364
22   0.128162
23   0.138624
24   0.139908
25   0.156545
26   0.144623
27   0.400162

>  <lowdin_charges>
27
1   -0.449322
2   -0.447542
3   -0.285949
4   -0.291081
5   -0.147712
6   -0.143825
7   -0.030213
8   0.215742
9   -0.463666
10   -0.261655
11   -0.281358
12   0.154938
13   0.148109
14   0.160198
15   0.1515
16   0.147725
17   0.158202
18   0.152873
19   0.151238
20   0.151911
21   0.148668
22   0.129442
23   0.144528
24   0.137244
25   0.158076
26   0.149246
27   0.342683

$$$$

