PCCDB-ID:  58492
public computational chemistry database (PCCDB) project, http://pccdb.org

 30 30  0  0  0  0  0  0  0  0999 V2000
   -0.9563    1.2489   -3.0631 C   0  0  0  0  0  0  0  0  0  0  0  0
    0.4639    0.6677   -2.9837 C   0  0  0  0  0  0  0  0  0  0  0  0
   -1.5567    1.4010   -1.6566 C   0  0  0  0  0  0  0  0  0  0  0  0
    1.7926   -0.8338    0.7452 C   0  0  0  0  0  0  0  0  0  0  0  0
    0.4746   -0.6290   -2.1520 C   0  0  0  0  0  0  0  0  0  0  0  0
   -1.4622    0.0707   -0.8858 C   0  0  0  0  0  0  0  0  0  0  0  0
    0.7775    0.1635    0.1678 C   0  0  0  0  0  0  0  0  0  0  0  0
    0.7159   -1.9212    2.6631 C   0  0  0  0  0  0  0  0  0  0  0  0
    1.0231   -0.9267    3.4168 N   0  0  0  0  0  0  0  0  0  0  0  0
   -0.0800   -3.0272    3.0076 N   0  0  0  0  0  0  0  0  0  0  0  0
    1.1501   -1.9987    1.3435 N   0  0  0  0  0  0  0  0  0  0  0  0
   -0.1069   -0.4880   -0.8092 N   0  0  0  0  0  0  0  0  0  0  0  0
   -1.5908    0.5708   -3.6540 H   0  0  0  0  0  0  0  0  0  0  0  0
   -0.9522    2.2113   -3.5900 H   0  0  0  0  0  0  0  0  0  0  0  0
    1.1379    1.4067   -2.5288 H   0  0  0  0  0  0  0  0  0  0  0  0
    0.8579    0.4627   -3.9878 H   0  0  0  0  0  0  0  0  0  0  0  0
   -2.6051    1.7223   -1.7142 H   0  0  0  0  0  0  0  0  0  0  0  0
   -1.0165    2.1839   -1.1059 H   0  0  0  0  0  0  0  0  0  0  0  0
    2.3899   -0.3445    1.5166 H   0  0  0  0  0  0  0  0  0  0  0  0
    2.4733   -1.1880   -0.0392 H   0  0  0  0  0  0  0  0  0  0  0  0
    1.4950   -1.0166   -2.0580 H   0  0  0  0  0  0  0  0  0  0  0  0
   -0.1048   -1.3975   -2.6852 H   0  0  0  0  0  0  0  0  0  0  0  0
   -2.0978   -0.6747   -1.3881 H   0  0  0  0  0  0  0  0  0  0  0  0
   -1.8478    0.1810    0.1337 H   0  0  0  0  0  0  0  0  0  0  0  0
    1.3183    1.0353   -0.2416 H   0  0  0  0  0  0  0  0  0  0  0  0
    0.1622    0.5304    0.9954 H   0  0  0  0  0  0  0  0  0  0  0  0
    0.7218   -1.0924    4.3787 H   0  0  0  0  0  0  0  0  0  0  0  0
   -0.2295   -3.1253    4.0045 H   0  0  0  0  0  0  0  0  0  0  0  0
    0.2347   -3.8994    2.5950 H   0  0  0  0  0  0  0  0  0  0  0  0
    0.4417   -2.3772    0.7197 H   0  0  0  0  0  0  0  0  0  0  0  0
  1  2  1  0  0  0  0
  1  3  1  0  0  0  0
  2 15  1  0  0  0  0
  2  5  1  0  0  0  0
  3 18  1  0  0  0  0
  3  6  1  0  0  0  0
  4 11  1  0  0  0  0
  4 19  1  0  0  0  0
  5 21  1  0  0  0  0
  5 12  1  0  0  0  0
  6 12  1  0  0  0  0
  6 24  1  0  0  0  0
  7  4  1  0  0  0  0
  7 26  1  0  0  0  0
  8 10  2  0  0  0  0
  8  9  1  0  0  0  0
  9 27  1  0  0  0  0
 10 28  1  0  0  0  0
 11  8  1  0  0  0  0
 12  7  1  0  0  0  0
 13  1  1  0  0  0  0
 14  1  1  0  0  0  0
 16  2  1  0  0  0  0
 17  3  1  0  0  0  0
 20  4  1  0  0  0  0
 22  5  1  0  0  0  0
 23  6  1  0  0  0  0
 25  7  1  0  0  0  0
 29 10  1  0  0  0  0
 30 11  1  0  0  0  0
M  RAD  1   9   2
M  END
>  <HBA>
4

>  <HBD>
2

>  <TPSA>
67.64

>  <cid>
58492

>  <dipole>
1.96

>  <excitation_energy_1>
4.882

>  <excitation_energy_2>
5.127

>  <excitation_energy_3>
5.212

>  <excitation_energy_4>
5.353

>  <homo_energy>
-5.467

>  <homo_lumo_gap>
7.176

>  <logP>
1.084

>  <lumo_energy>
1.709

>  <melting_point>
123.68

>  <molecular_refractivity>
54.37

>  <oscillator_strength_1>
0.0143

>  <oscillator_strength_2>
0.0049

>  <oscillator_strength_3>
0.0036

>  <oscillator_strength_4>
0.004

>  <open_babel_can_smiles>
[NH]C(=[NH2])NCCN1CCCCC1

>  <mulliken_charges>
30
1   -0.257857
2   -0.265244
3   -0.264351
4   -0.138378
5   -0.145989
6   -0.141596
7   -0.142356
8   0.581301
9   -0.65243
10   -0.754438
11   -0.58738
12   -0.387555
13   0.12649
14   0.132912
15   0.135971
16   0.130048
17   0.129815
18   0.136096
19   0.183971
20   0.133839
21   0.137949
22   0.132841
23   0.129954
24   0.143552
25   0.117438
26   0.164472
27   0.260544
28   0.315505
29   0.32118
30   0.323698

>  <lowdin_charges>
30
1   -0.279719
2   -0.294801
3   -0.294641
4   -0.210927
5   -0.209092
6   -0.205364
7   -0.217319
8   0.127205
9   -0.488989
10   -0.510876
11   -0.310678
12   -0.195262
13   0.137928
14   0.143636
15   0.141867
16   0.144532
17   0.143657
18   0.142465
19   0.175439
20   0.140107
21   0.143684
22   0.14005
23   0.138091
24   0.147047
25   0.125668
26   0.159661
27   0.243657
28   0.271333
29   0.277219
30   0.27442

$$$$

