PCCDB-ID:  70635
public computational chemistry database (PCCDB) project, http://pccdb.org

 25 26  0  0  0  0  0  0  0  0999 V2000
    0.8214   -0.1783    1.0326 C   0  0  0  0  0  0  0  0  0  0  0  0
    2.3195   -2.4367   -0.1475 C   0  0  0  0  0  0  0  0  0  0  0  0
    6.1525    2.4285   -0.8915 C   0  0  0  0  0  0  0  0  0  0  0  0
    4.8107    2.8203   -0.1988 C   0  0  0  0  0  0  0  0  0  0  0  0
    6.0809    0.9026   -1.2072 C   0  0  0  0  0  0  0  0  0  0  0  0
    2.7665    1.3117    0.4369 C   0  0  0  0  0  0  0  0  0  0  0  0
    4.1779   -0.8163   -0.6760 C   0  0  0  0  0  0  0  0  0  0  0  0
    2.1931    0.0353    0.4352 C   0  0  0  0  0  0  0  0  0  0  0  0
    2.9098   -1.0456   -0.1304 C   0  0  0  0  0  0  0  0  0  0  0  0
    4.0316    1.5265   -0.1101 C   0  0  0  0  0  0  0  0  0  0  0  0
    4.7381    0.4610   -0.6676 C   0  0  0  0  0  0  0  0  0  0  0  0
    0.4160    0.7568    1.4316 H   0  0  0  0  0  0  0  0  0  0  0  0
    0.8415   -0.9087    1.8522 H   0  0  0  0  0  0  0  0  0  0  0  0
    0.1071   -0.5601    0.2910 H   0  0  0  0  0  0  0  0  0  0  0  0
    3.0005   -3.1470   -0.6266 H   0  0  0  0  0  0  0  0  0  0  0  0
    1.3666   -2.4703   -0.6921 H   0  0  0  0  0  0  0  0  0  0  0  0
    2.1137   -2.8061    0.8660 H   0  0  0  0  0  0  0  0  0  0  0  0
    7.0038    2.6505   -0.2406 H   0  0  0  0  0  0  0  0  0  0  0  0
    6.3026    3.0088   -1.8071 H   0  0  0  0  0  0  0  0  0  0  0  0
    4.2642    3.5800   -0.7732 H   0  0  0  0  0  0  0  0  0  0  0  0
    4.9803    3.2558    0.7948 H   0  0  0  0  0  0  0  0  0  0  0  0
    6.9057    0.3513   -0.7369 H   0  0  0  0  0  0  0  0  0  0  0  0
    6.1623    0.7082   -2.2849 H   0  0  0  0  0  0  0  0  0  0  0  0
    2.2120    2.1405    0.8740 H   0  0  0  0  0  0  0  0  0  0  0  0
    4.7258   -1.6507   -1.1109 H   0  0  0  0  0  0  0  0  0  0  0  0
  1 12  1  0  0  0  0
  1 13  1  0  0  0  0
  2  9  1  0  0  0  0
  2 17  1  0  0  0  0
  3 18  1  0  0  0  0
  3  4  1  0  0  0  0
  4 10  1  0  0  0  0
  4 21  1  0  0  0  0
  5  3  1  0  0  0  0
  5 22  1  0  0  0  0
  5 11  1  0  0  0  0
  6 24  1  0  0  0  0
  7 11  2  0  0  0  0
  7  9  1  0  0  0  0
  8  6  1  0  0  0  0
  8  1  1  0  0  0  0
  9  8  2  0  0  0  0
 10  6  2  0  0  0  0
 11 10  1  0  0  0  0
 14  1  1  0  0  0  0
 15  2  1  0  0  0  0
 16  2  1  0  0  0  0
 19  3  1  0  0  0  0
 20  4  1  0  0  0  0
 23  5  1  0  0  0  0
 25  7  1  0  0  0  0
M  END
>  <HBA>
0

>  <HBD>
0

>  <TPSA>
0.0

>  <cid>
70635

>  <dipole>
0.0

>  <excitation_energy_1>
4.961

>  <excitation_energy_2>
5.587

>  <excitation_energy_3>
5.634

>  <excitation_energy_4>
5.834

>  <homo_energy>
-5.815

>  <homo_lumo_gap>
6.055

>  <logP>
2.792

>  <lumo_energy>
0.239

>  <melting_point>
43.58

>  <molecular_refractivity>
49.0

>  <oscillator_strength_1>
0.0429

>  <oscillator_strength_2>
0.0003

>  <oscillator_strength_3>
0.0042

>  <oscillator_strength_4>
0.004

>  <open_babel_can_smiles>
Cc1cc2CCCc2cc1C

>  <mulliken_charges>
25
1   -0.533796
2   -0.533785
3   -0.286394
4   -0.351669
5   -0.351729
6   -0.256592
7   -0.25672
8   0.133335
9   0.133337
10   0.133881
11   0.133678
12   0.152617
13   0.156221
14   0.15642
15   0.152622
16   0.156209
17   0.156376
18   0.143694
19   0.143125
20   0.148614
21   0.14853
22   0.148428
23   0.148788
24   0.112389
25   0.112421

>  <lowdin_charges>
25
1   -0.443245
2   -0.441706
3   -0.280163
4   -0.280703
5   -0.279827
6   -0.177602
7   -0.177735
8   -0.010021
9   -0.010895
10   -0.018843
11   -0.017951
12   0.155795
13   0.156767
14   0.15742
15   0.156737
16   0.15615
17   0.15574
18   0.148159
19   0.147759
20   0.151688
21   0.15008
22   0.151443
23   0.148769
24   0.151102
25   0.151081

$$$$

