PCCDB-ID:  38266
public computational chemistry database (PCCDB) project, http://pccdb.org

 23 24  0  0  0  0  0  0  0  0999 V2000
    0.9701   -0.0588    0.0819 C   0  0  0  0  0  0  0  0  0  0  0  0
    7.4505    1.1218   -0.1143 C   0  0  0  0  0  0  0  0  0  0  0  0
    6.7501    2.3263   -0.0412 C   0  0  0  0  0  0  0  0  0  0  0  0
    6.7566   -0.0899   -0.0400 C   0  0  0  0  0  0  0  0  0  0  0  0
    5.3624    2.3141    0.0977 C   0  0  0  0  0  0  0  0  0  0  0  0
    3.1844   -1.3189   -0.3427 C   0  0  0  0  0  0  0  0  0  0  0  0
    4.5916   -1.4024    0.2667 C   0  0  0  0  0  0  0  0  0  0  0  0
    3.1953    1.0736    0.2764 C   0  0  0  0  0  0  0  0  0  0  0  0
    2.4718   -0.0376    0.0457 C   0  0  0  0  0  0  0  0  0  0  0  0
    5.3700   -0.1140    0.1015 C   0  0  0  0  0  0  0  0  0  0  0  0
    4.6567    1.1041    0.1627 C   0  0  0  0  0  0  0  0  0  0  0  0
    0.5988   -0.7745    0.8290 H   0  0  0  0  0  0  0  0  0  0  0  0
    0.5577   -0.3815   -0.8853 H   0  0  0  0  0  0  0  0  0  0  0  0
    0.5534    0.9260    0.3161 H   0  0  0  0  0  0  0  0  0  0  0  0
    8.5315    1.1224   -0.2268 H   0  0  0  0  0  0  0  0  0  0  0  0
    7.2817    3.2727   -0.0951 H   0  0  0  0  0  0  0  0  0  0  0  0
    7.3033   -1.0297   -0.0878 H   0  0  0  0  0  0  0  0  0  0  0  0
    4.8125    3.2516    0.1475 H   0  0  0  0  0  0  0  0  0  0  0  0
    2.5959   -2.1917   -0.0328 H   0  0  0  0  0  0  0  0  0  0  0  0
    3.2441   -1.3695   -1.4427 H   0  0  0  0  0  0  0  0  0  0  0  0
    5.1459   -2.2466   -0.1597 H   0  0  0  0  0  0  0  0  0  0  0  0
    4.4897   -1.6100    1.3439 H   0  0  0  0  0  0  0  0  0  0  0  0
    2.6925    2.0121    0.5064 H   0  0  0  0  0  0  0  0  0  0  0  0
  1 14  1  0  0  0  0
  1 12  1  0  0  0  0
  2  3  2  0  0  0  0
  2  4  1  0  0  0  0
  3  5  1  0  0  0  0
  4 10  2  0  0  0  0
  5 18  1  0  0  0  0
  5 11  2  0  0  0  0
  6 19  1  0  0  0  0
  6  9  1  0  0  0  0
  6  7  1  0  0  0  0
  7 22  1  0  0  0  0
  8 23  1  0  0  0  0
  9  1  1  0  0  0  0
  9  8  2  0  0  0  0
 10 11  1  0  0  0  0
 10  7  1  0  0  0  0
 11  8  1  0  0  0  0
 13  1  1  0  0  0  0
 15  2  1  0  0  0  0
 16  3  1  0  0  0  0
 17  4  1  0  0  0  0
 20  6  1  0  0  0  0
 21  7  1  0  0  0  0
M  END
>  <HBA>
0

>  <HBD>
0

>  <TPSA>
0.0

>  <cid>
38266

>  <dipole>
0.9

>  <excitation_energy_1>
4.548

>  <excitation_energy_2>
4.641

>  <excitation_energy_3>
5.16

>  <excitation_energy_4>
5.484

>  <homo_energy>
-5.513

>  <homo_lumo_gap>
4.991

>  <logP>
3.036

>  <lumo_energy>
-0.522

>  <melting_point>
56.35

>  <molecular_refractivity>
49.0

>  <oscillator_strength_1>
0.2537

>  <oscillator_strength_2>
0.0377

>  <oscillator_strength_3>
0.0084

>  <oscillator_strength_4>
0.0459

>  <open_babel_can_smiles>
CC1=Cc2c(CC1)cccc2

>  <mulliken_charges>
23
1   -0.518696
2   -0.128847
3   -0.133232
4   -0.197051
5   -0.198138
6   -0.329837
7   -0.346341
8   -0.216708
9   0.162237
10   0.115837
11   0.132615
12   0.154407
13   0.155518
14   0.1554
15   0.124293
16   0.124669
17   0.118767
18   0.122718
19   0.139104
20   0.152194
21   0.140696
22   0.155015
23   0.115382

>  <lowdin_charges>
23
1   -0.439492
2   -0.158514
3   -0.161312
4   -0.167664
5   -0.164009
6   -0.273421
7   -0.269349
8   -0.190331
9   -0.002117
10   -0.007728
11   -0.00828
12   0.15695
13   0.156576
14   0.156409
15   0.15366
16   0.155825
17   0.152971
18   0.154217
19   0.150084
20   0.150347
21   0.151732
22   0.151858
23   0.151587

$$$$

