PCCDB-ID:  13591
public computational chemistry database (PCCDB) project, http://pccdb.org

 15 15  0  0  0  0  0  0  0  0999 V2000
   -0.7483   -0.9794   -0.3986 C   0  0  0  0  0  0  0  0  0  0  0  0
    0.7243   -1.0484    0.0602 C   0  0  0  0  0  0  0  0  0  0  0  0
   -1.2345    0.3554    0.1867 C   0  0  0  0  0  0  0  0  0  0  0  0
    1.2163    0.4072   -0.0263 C   0  0  0  0  0  0  0  0  0  0  0  0
   -0.0941    2.4977    0.0199 N   0  0  0  0  0  0  0  0  0  0  0  0
   -0.0245    1.1786    0.1272 N   0  0  0  0  0  0  0  0  0  0  0  0
    1.0036    3.0460   -0.1168 O   0  0  0  0  0  0  0  0  0  0  0  0
   -1.3448   -1.8295   -0.0557 H   0  0  0  0  0  0  0  0  0  0  0  0
   -0.8031   -0.9469   -1.4931 H   0  0  0  0  0  0  0  0  0  0  0  0
    1.3289   -1.7261   -0.5493 H   0  0  0  0  0  0  0  0  0  0  0  0
    0.7765   -1.4011    1.0970 H   0  0  0  0  0  0  0  0  0  0  0  0
   -1.5665    0.2361    1.2273 H   0  0  0  0  0  0  0  0  0  0  0  0
   -2.0384    0.8330   -0.3783 H   0  0  0  0  0  0  0  0  0  0  0  0
    1.6705    0.6562   -0.9934 H   0  0  0  0  0  0  0  0  0  0  0  0
    1.9369    0.6819    0.7499 H   0  0  0  0  0  0  0  0  0  0  0  0
  1  8  1  0  0  0  0
  1  2  1  0  0  0  0
  1  3  1  0  0  0  0
  2 11  1  0  0  0  0
  3 12  1  0  0  0  0
  4  2  1  0  0  0  0
  4  6  1  0  0  0  0
  4 15  1  0  0  0  0
  5  6  1  0  0  0  0
  6  3  1  0  0  0  0
  7  5  1  0  0  0  0
  9  1  1  0  0  0  0
 10  2  1  0  0  0  0
 13  3  1  0  0  0  0
 14  4  1  0  0  0  0
M  RAD  2   5   2   7   2
M  END
>  <HBA>
3

>  <HBD>
0

>  <TPSA>
32.67

>  <cid>
13591

>  <dipole>
4.68

>  <excitation_energy_1>
3.334

>  <excitation_energy_2>
5.495

>  <excitation_energy_3>
5.882

>  <excitation_energy_4>
6.066

>  <homo_energy>
-5.834

>  <homo_lumo_gap>
5.173

>  <logP>
0.702

>  <lumo_energy>
-0.661

>  <melting_point>
19.03

>  <molecular_refractivity>
30.78

>  <oscillator_strength_1>
0.0017

>  <oscillator_strength_2>
0.0022

>  <oscillator_strength_3>
0.1958

>  <oscillator_strength_4>
0.0078

>  <open_babel_can_smiles>
[O][N]N1CCCC1

>  <mulliken_charges>
15
1   -0.296615
2   -0.3066
3   -0.110479
4   -0.111152
5   0.129586
6   -0.231986
7   -0.386671
8   0.154626
9   0.158845
10   0.157949
11   0.155753
12   0.161135
13   0.176863
14   0.172287
15   0.17646

>  <lowdin_charges>
15
1   -0.281287
2   -0.284246
3   -0.196307
4   -0.210899
5   0.050702
6   -0.053159
7   -0.285088
8   0.157496
9   0.15114
10   0.159566
11   0.150796
12   0.148483
13   0.167322
14   0.159611
15   0.165869

$$$$

