PCCDB-ID:  33451
public computational chemistry database (PCCDB) project, http://pccdb.org

 24 23  0  0  0  0  0  0  0  0999 V2000
    3.6479   -1.0212   -1.8459 C   0  0  0  0  0  0  0  0  0  0  0  0
    1.2112   -0.5381   -1.7994 C   0  0  0  0  0  0  0  0  0  0  0  0
    3.9823    3.6903    0.4761 C   0  0  0  0  0  0  0  0  0  0  0  0
    6.0049    3.6775   -1.0314 C   0  0  0  0  0  0  0  0  0  0  0  0
    2.8858    1.3201   -1.3100 C   0  0  0  0  0  0  0  0  0  0  0  0
    4.3428    1.7833   -1.1999 C   0  0  0  0  0  0  0  0  0  0  0  0
    2.6615   -0.1372   -1.6640 C   0  0  0  0  0  0  0  0  0  0  0  0
    4.5250    3.2860   -0.9038 C   0  0  0  0  0  0  0  0  0  0  0  0
    3.4360   -2.0577   -2.0964 H   0  0  0  0  0  0  0  0  0  0  0  0
    4.6961   -0.7556   -1.7523 H   0  0  0  0  0  0  0  0  0  0  0  0
    1.1055   -1.5958   -2.0596 H   0  0  0  0  0  0  0  0  0  0  0  0
    0.7062    0.0556   -2.5741 H   0  0  0  0  0  0  0  0  0  0  0  0
    0.6622   -0.3609   -0.8642 H   0  0  0  0  0  0  0  0  0  0  0  0
    4.1387    4.7601    0.6587 H   0  0  0  0  0  0  0  0  0  0  0  0
    4.4973    3.1390    1.2743 H   0  0  0  0  0  0  0  0  0  0  0  0
    2.9095    3.4938    0.5748 H   0  0  0  0  0  0  0  0  0  0  0  0
    6.1507    4.7500   -0.8557 H   0  0  0  0  0  0  0  0  0  0  0  0
    6.3969    3.4447   -2.0289 H   0  0  0  0  0  0  0  0  0  0  0  0
    6.6170    3.1352   -0.2987 H   0  0  0  0  0  0  0  0  0  0  0  0
    2.3661    1.9389   -2.0600 H   0  0  0  0  0  0  0  0  0  0  0  0
    2.3551    1.5221   -0.3677 H   0  0  0  0  0  0  0  0  0  0  0  0
    4.8570    1.5510   -2.1422 H   0  0  0  0  0  0  0  0  0  0  0  0
    4.8547    1.2033   -0.4182 H   0  0  0  0  0  0  0  0  0  0  0  0
    3.9623    3.8478   -1.6660 H   0  0  0  0  0  0  0  0  0  0  0  0
  1 10  1  0  0  0  0
  1  7  2  0  0  0  0
  2  7  1  0  0  0  0
  2 13  1  0  0  0  0
  3 16  1  0  0  0  0
  3 14  1  0  0  0  0
  3 15  1  0  0  0  0
  4  8  1  0  0  0  0
  4 17  1  0  0  0  0
  4 19  1  0  0  0  0
  5  6  1  0  0  0  0
  5 21  1  0  0  0  0
  6  8  1  0  0  0  0
  6 23  1  0  0  0  0
  7  5  1  0  0  0  0
  8  3  1  0  0  0  0
  9  1  1  0  0  0  0
 11  2  1  0  0  0  0
 12  2  1  0  0  0  0
 18  4  1  0  0  0  0
 20  5  1  0  0  0  0
 22  6  1  0  0  0  0
 24  8  1  0  0  0  0
M  END
>  <HBA>
0

>  <HBD>
0

>  <TPSA>
0.0

>  <cid>
33451

>  <dipole>
0.54

>  <excitation_energy_1>
6.144

>  <excitation_energy_2>
6.494

>  <excitation_energy_3>
6.522

>  <excitation_energy_4>
6.605

>  <homo_energy>
-6.495

>  <homo_lumo_gap>
7.374

>  <logP>
2.999

>  <lumo_energy>
0.879

>  <melting_point>
-45.07

>  <molecular_refractivity>
40.1

>  <oscillator_strength_1>
0.0041

>  <oscillator_strength_2>
0.1639

>  <oscillator_strength_3>
0.023

>  <oscillator_strength_4>
0.0185

>  <open_babel_can_smiles>
CC(CCC(=C)C)C

>  <mulliken_charges>
24
1   -0.400759
2   -0.508497
3   -0.445709
4   -0.442481
5   -0.322792
6   -0.257046
7   0.221274
8   -0.066067
9   0.126679
10   0.135414
11   0.151666
12   0.1506
13   0.15072
14   0.140117
15   0.138874
16   0.143614
17   0.138959
18   0.139649
19   0.138531
20   0.137544
21   0.1438
22   0.134573
23   0.132196
24   0.119143

>  <lowdin_charges>
24
1   -0.369514
2   -0.441051
3   -0.445074
4   -0.443391
5   -0.277726
6   -0.277368
7   0.008227
8   -0.120521
9   0.151686
10   0.154694
11   0.154545
12   0.154976
13   0.154011
14   0.146893
15   0.146565
16   0.145922
17   0.145723
18   0.146709
19   0.146696
20   0.147751
21   0.149161
22   0.14379
23   0.142115
24   0.135181

$$$$

