PCCDB-ID:  38908
public computational chemistry database (PCCDB) project, http://pccdb.org

 32 35  0  0  0  0  0  0  0  0999 V2000
    4.6803    0.0779    0.0512 C   0  0  0  0  0  0  0  0  0  0  0  0
   -4.6651    0.0063    0.4731 C   0  0  0  0  0  0  0  0  0  0  0  0
    4.1705   -1.2337    0.0366 C   0  0  0  0  0  0  0  0  0  0  0  0
   -4.1004    1.3496    0.0855 C   0  0  0  0  0  0  0  0  0  0  0  0
    3.8055    1.1457    0.0347 C   0  0  0  0  0  0  0  0  0  0  0  0
   -3.8837   -1.1136   -0.2264 C   0  0  0  0  0  0  0  0  0  0  0  0
    2.8053   -1.4554    0.0075 C   0  0  0  0  0  0  0  0  0  0  0  0
   -2.7953    1.4975   -0.1952 C   0  0  0  0  0  0  0  0  0  0  0  0
    1.5016    2.0517   -0.0115 C   0  0  0  0  0  0  0  0  0  0  0  0
   -1.5195   -2.0278   -0.0585 C   0  0  0  0  0  0  0  0  0  0  0  0
    0.1540    1.8704   -0.0519 C   0  0  0  0  0  0  0  0  0  0  0  0
   -0.1476   -1.8626   -0.0271 C   0  0  0  0  0  0  0  0  0  0  0  0
    2.4064    0.9418    0.0039 C   0  0  0  0  0  0  0  0  0  0  0  0
   -2.3841   -0.9250   -0.1145 C   0  0  0  0  0  0  0  0  0  0  0  0
    1.8816   -0.3833   -0.0093 C   0  0  0  0  0  0  0  0  0  0  0  0
   -1.8512    0.3705   -0.1312 C   0  0  0  0  0  0  0  0  0  0  0  0
    0.4356   -0.5776   -0.0417 C   0  0  0  0  0  0  0  0  0  0  0  0
   -0.4332    0.5586   -0.0818 C   0  0  0  0  0  0  0  0  0  0  0  0
    5.7534    0.2468    0.0743 H   0  0  0  0  0  0  0  0  0  0  0  0
   -5.7282   -0.0587    0.2140 H   0  0  0  0  0  0  0  0  0  0  0  0
   -4.6065   -0.1150    1.5675 H   0  0  0  0  0  0  0  0  0  0  0  0
    4.8518   -2.0802    0.0476 H   0  0  0  0  0  0  0  0  0  0  0  0
   -4.7630    2.2120    0.0650 H   0  0  0  0  0  0  0  0  0  0  0  0
    4.1818    2.1661    0.0447 H   0  0  0  0  0  0  0  0  0  0  0  0
   -4.1564   -1.1138   -1.2940 H   0  0  0  0  0  0  0  0  0  0  0  0
   -4.1718   -2.0942    0.1696 H   0  0  0  0  0  0  0  0  0  0  0  0
    2.4489   -2.4795   -0.0064 H   0  0  0  0  0  0  0  0  0  0  0  0
   -2.4216    2.4802   -0.4629 H   0  0  0  0  0  0  0  0  0  0  0  0
    1.9171    3.0564    0.0136 H   0  0  0  0  0  0  0  0  0  0  0  0
   -1.9397   -3.0311   -0.0441 H   0  0  0  0  0  0  0  0  0  0  0  0
   -0.4904    2.7416   -0.0450 H   0  0  0  0  0  0  0  0  0  0  0  0
    0.4797   -2.7458    0.0171 H   0  0  0  0  0  0  0  0  0  0  0  0
  1 19  1  0  0  0  0
  2 21  1  0  0  0  0
  3 22  1  0  0  0  0
  3  1  1  0  0  0  0
  4  2  1  0  0  0  0
  5 24  1  0  0  0  0
  5  1  2  0  0  0  0
  6 14  1  0  0  0  0
  6 26  1  0  0  0  0
  6  2  1  0  0  0  0
  7  3  2  0  0  0  0
  8 16  1  0  0  0  0
  8  4  2  0  0  0  0
  9 13  2  0  0  0  0
  9 29  1  0  0  0  0
 10 30  1  0  0  0  0
 10 12  2  0  0  0  0
 11 31  1  0  0  0  0
 11  9  1  0  0  0  0
 12 32  1  0  0  0  0
 13  5  1  0  0  0  0
 14 10  1  0  0  0  0
 15 13  1  0  0  0  0
 15  7  1  0  0  0  0
 16 14  2  0  0  0  0
 16 18  1  0  0  0  0
 17 12  1  0  0  0  0
 17 15  2  0  0  0  0
 18 11  2  0  0  0  0
 18 17  1  0  0  0  0
 20  2  1  0  0  0  0
 23  4  1  0  0  0  0
 25  6  1  0  0  0  0
 27  7  1  0  0  0  0
 28  8  1  0  0  0  0
M  END
>  <HBA>
0

>  <HBD>
0

>  <TPSA>
0.0

>  <cid>
38908

>  <dipole>
0.71

>  <excitation_energy_1>
3.69

>  <excitation_energy_2>
3.773

>  <excitation_energy_3>
4.312

>  <excitation_energy_4>
4.449

>  <homo_energy>
-5.377

>  <homo_lumo_gap>
4.229

>  <logP>
4.952

>  <lumo_energy>
-1.148

>  <melting_point>
144.27

>  <molecular_refractivity>
79.2

>  <oscillator_strength_1>
0.0067

>  <oscillator_strength_2>
0.1998

>  <oscillator_strength_3>
0.2326

>  <oscillator_strength_4>
0.1515

>  <open_babel_can_smiles>
C1C=Cc2c(C1)ccc1c2ccc2c1cccc2

>  <mulliken_charges>
32
1   -0.128844
2   -0.298576
3   -0.138605
4   -0.135875
5   -0.207662
6   -0.349049
7   -0.187582
8   -0.141958
9   -0.202226
10   -0.204517
11   -0.188395
12   -0.189417
13   0.152032
14   0.120848
15   0.050166
16   0.023878
17   0.067301
18   0.073762
19   0.12877
20   0.142155
21   0.154089
22   0.128081
23   0.128848
24   0.128526
25   0.156849
26   0.142256
27   0.132524
28   0.130929
29   0.127752
30   0.121353
31   0.131188
32   0.131399

>  <lowdin_charges>
32
1   -0.156225
2   -0.270209
3   -0.158772
4   -0.161403
5   -0.15656
6   -0.268221
7   -0.157261
8   -0.172867
9   -0.157298
10   -0.164966
11   -0.163525
12   -0.159199
13   -0.002576
14   -0.004493
15   -0.001158
16   -0.014538
17   -0.00401
18   -0.004141
19   0.156361
20   0.150507
21   0.151131
22   0.158519
23   0.156512
24   0.155877
25   0.153394
26   0.150947
27   0.156579
28   0.157401
29   0.156754
30   0.15438
31   0.160497
32   0.158562

$$$$

