PCCDB-ID:  11149
public computational chemistry database (PCCDB) project, http://pccdb.org

 21 21  0  0  0  0  0  0  0  0999 V2000
    1.7799    0.7887    0.3144 C   0  0  0  0  0  0  0  0  0  0  0  0
    1.0980    0.3275   -4.8682 C   0  0  0  0  0  0  0  0  0  0  0  0
    1.0866   -0.6072   -3.8328 C   0  0  0  0  0  0  0  0  0  0  0  0
    1.8811    1.4776   -4.7692 C   0  0  0  0  0  0  0  0  0  0  0  0
    1.8571   -0.3745   -2.6915 C   0  0  0  0  0  0  0  0  0  0  0  0
    3.1585    0.9892   -0.2742 C   0  0  0  0  0  0  0  0  0  0  0  0
    2.6640    1.7191   -3.6326 C   0  0  0  0  0  0  0  0  0  0  0  0
    2.6357    0.7830   -2.5663 C   0  0  0  0  0  0  0  0  0  0  0  0
    3.4242    2.8796   -3.4886 N   0  0  0  0  0  0  0  0  0  0  0  0
    3.5098    1.0309   -1.4939 N   0  0  0  0  0  0  0  0  0  0  0  0
    4.1544    1.1768    0.6416 O   0  0  0  0  0  0  0  0  0  0  0  0
    1.0153    0.8109   -0.4629 H   0  0  0  0  0  0  0  0  0  0  0  0
    1.5668    1.5826    1.0419 H   0  0  0  0  0  0  0  0  0  0  0  0
    1.7123   -0.1721    0.8399 H   0  0  0  0  0  0  0  0  0  0  0  0
    0.5046    0.1604   -5.7633 H   0  0  0  0  0  0  0  0  0  0  0  0
    0.4951   -1.5147   -3.9127 H   0  0  0  0  0  0  0  0  0  0  0  0
    1.8934    2.2018   -5.5811 H   0  0  0  0  0  0  0  0  0  0  0  0
    1.8936   -1.1158   -1.8974 H   0  0  0  0  0  0  0  0  0  0  0  0
    3.7622    3.2717   -4.3592 H   0  0  0  0  0  0  0  0  0  0  0  0
    4.1612    2.7720   -2.7978 H   0  0  0  0  0  0  0  0  0  0  0  0
    3.7716    1.1766    1.5323 H   0  0  0  0  0  0  0  0  0  0  0  0
  1 14  1  0  0  0  0
  1 13  1  0  0  0  0
  2  4  2  0  0  0  0
  2  3  1  0  0  0  0
  3  5  2  0  0  0  0
  4  7  1  0  0  0  0
  5  8  1  0  0  0  0
  5 18  1  0  0  0  0
  6  1  1  0  0  0  0
  6 11  1  0  0  0  0
  7  9  1  0  0  0  0
  7  8  2  0  0  0  0
  8 10  1  0  0  0  0
  9 20  1  0  0  0  0
 10  6  2  0  0  0  0
 11 21  1  0  0  0  0
 12  1  1  0  0  0  0
 15  2  1  0  0  0  0
 16  3  1  0  0  0  0
 17  4  1  0  0  0  0
 19  9  1  0  0  0  0
M  END
>  <HBA>
3

>  <HBD>
2

>  <TPSA>
55.12

>  <cid>
11149

>  <dipole>
2.55

>  <excitation_energy_1>
4.125

>  <excitation_energy_2>
4.368

>  <excitation_energy_3>
4.68

>  <excitation_energy_4>
4.878

>  <homo_energy>
-4.993

>  <homo_lumo_gap>
4.898

>  <logP>
1.881

>  <lumo_energy>
-0.095

>  <melting_point>
108.75

>  <molecular_refractivity>
45.16

>  <oscillator_strength_1>
0.1137

>  <oscillator_strength_2>
0.001

>  <oscillator_strength_3>
0.0208

>  <oscillator_strength_4>
0.0051

>  <open_babel_can_smiles>
C/C(=N\c1ccccc1N)/O

>  <mulliken_charges>
21
1   -0.555103
2   -0.135872
3   -0.149502
4   -0.182999
5   -0.171242
6   0.485795
7   0.274337
8   0.233706
9   -0.795899
10   -0.508257
11   -0.572495
12   0.203738
13   0.165654
14   0.177979
15   0.119797
16   0.117424
17   0.113723
18   0.118842
19   0.313223
20   0.339644
21   0.407508

>  <lowdin_charges>
21
1   -0.483289
2   -0.158608
3   -0.187707
4   -0.201874
5   -0.182695
6   0.144829
7   0.048714
8   0.007329
9   -0.490691
10   -0.184735
11   -0.360857
12   0.187525
13   0.165854
14   0.170864
15   0.154395
16   0.153366
17   0.152221
18   0.154059
19   0.272252
20   0.283485
21   0.355562

$$$$

