PCCDB-ID:  21890
public computational chemistry database (PCCDB) project, http://pccdb.org

 31 32  0  0  1  0  0  0  0  0999 V2000
    0.8794   -0.8597    0.2550 C   0  0  0  0  0  0  0  0  0  0  0  0
    0.4382    5.4342   -3.3379 C   0  0  0  0  0  0  0  0  0  0  0  0
    2.4785    2.3275   -1.3180 C   0  0  0  0  0  0  0  0  0  0  0  0
    0.9931    2.6471    0.5419 C   0  0  0  0  0  0  0  0  0  0  0  0
    1.8339    3.3441   -2.0281 C   0  0  0  0  0  0  0  0  0  0  0  0
    0.3446    3.6639   -0.1485 C   0  0  0  0  0  0  0  0  0  0  0  0
    3.1603   -1.5847    1.0967 C   0  0  0  0  0  0  0  0  0  0  0  0
    3.2263   -0.0269    2.8273 C   0  0  0  0  0  0  0  0  0  0  0  0
    2.3881   -0.5933    0.2087 C   0  0  2  0  0  0  0  0  0  0  0  0
    2.0707    1.9594   -0.0339 C   0  0  0  0  0  0  0  0  0  0  0  0
    0.7578    4.0185   -1.4402 C   0  0  0  0  0  0  0  0  0  0  0  0
    2.7756    0.8334    0.6901 C   0  0  1  0  0  0  0  0  0  0  0  0
    0.0556    5.0294   -2.0343 O   0  0  0  0  0  0  0  0  0  0  0  0
    2.8892   -1.3448    2.4781 O   0  0  0  0  0  0  0  0  0  0  0  0
    2.5135    0.9406    2.0940 O   0  0  0  0  0  0  0  0  0  0  0  0
    0.6610   -1.8750   -0.0968 H   0  0  0  0  0  0  0  0  0  0  0  0
    0.3303   -0.1558   -0.3772 H   0  0  0  0  0  0  0  0  0  0  0  0
    0.5037   -0.7690    1.2781 H   0  0  0  0  0  0  0  0  0  0  0  0
   -0.2414    6.2431   -3.6128 H   0  0  0  0  0  0  0  0  0  0  0  0
    0.3368    4.6152   -4.0629 H   0  0  0  0  0  0  0  0  0  0  0  0
    1.4713    5.8067   -3.3599 H   0  0  0  0  0  0  0  0  0  0  0  0
    3.3215    1.8202   -1.7834 H   0  0  0  0  0  0  0  0  0  0  0  0
    0.6746    2.3860    1.5449 H   0  0  0  0  0  0  0  0  0  0  0  0
    2.1816    3.6024   -3.0218 H   0  0  0  0  0  0  0  0  0  0  0  0
   -0.4873    4.2018    0.2956 H   0  0  0  0  0  0  0  0  0  0  0  0
    4.2456   -1.4974    0.9138 H   0  0  0  0  0  0  0  0  0  0  0  0
    2.8620   -2.6189    0.9019 H   0  0  0  0  0  0  0  0  0  0  0  0
    4.3128    0.1312    2.6828 H   0  0  0  0  0  0  0  0  0  0  0  0
    2.9576    0.1076    3.8764 H   0  0  0  0  0  0  0  0  0  0  0  0
    2.7475   -0.7069   -0.8241 H   0  0  0  0  0  0  0  0  0  0  0  0
    3.8646    0.9448    0.5355 H   0  0  0  0  0  0  0  0  0  0  0  0
  1 18  1  0  0  0  0
  2 13  1  0  0  0  0
  3 10  2  0  0  0  0
  4 23  1  0  0  0  0
  5 11  2  0  0  0  0
  5  3  1  0  0  0  0
  6 25  1  0  0  0  0
  6  4  2  0  0  0  0
  7 14  1  0  0  0  0
  8 29  1  0  0  0  0
  9 30  1  6  0  0  0
  9  1  1  0  0  0  0
  9 12  1  0  0  0  0
  9  7  1  0  0  0  0
 10  4  1  0  0  0  0
 10 12  1  0  0  0  0
 11  6  1  0  0  0  0
 12 31  1  6  0  0  0
 12 15  1  0  0  0  0
 13 11  1  0  0  0  0
 14  8  1  0  0  0  0
 15  8  1  0  0  0  0
 16  1  1  0  0  0  0
 17  1  1  0  0  0  0
 19  2  1  0  0  0  0
 20  2  1  0  0  0  0
 21  2  1  0  0  0  0
 22  3  1  0  0  0  0
 24  5  1  0  0  0  0
 26  7  1  0  0  0  0
 27  7  1  0  0  0  0
 28  8  1  0  0  0  0
M  END
>  <HBA>
3

>  <HBD>
0

>  <TPSA>
27.69

>  <cid>
21890

>  <dipole>
2.92

>  <excitation_energy_1>
4.934

>  <excitation_energy_2>
5.284

>  <excitation_energy_3>
5.518

>  <excitation_energy_4>
5.645

>  <homo_energy>
-5.777

>  <homo_lumo_gap>
5.793

>  <logP>
2.377

>  <lumo_energy>
0.016

>  <melting_point>
15.28

>  <molecular_refractivity>
57.18

>  <oscillator_strength_1>
0.0301

>  <oscillator_strength_2>
0.0076

>  <oscillator_strength_3>
0.1309

>  <oscillator_strength_4>
0.0101

>  <open_babel_can_smiles>
COc1ccc(cc1)[C@H]1OCOC[C@H]1C

>  <mulliken_charges>
31
1   -0.454465
2   -0.213843
3   -0.190604
4   -0.171288
5   -0.199134
6   -0.177979
7   -0.048355
8   0.186186
9   -0.097379
10   0.123967
11   0.37777
12   0.070815
13   -0.507469
14   -0.460944
15   -0.489193
16   0.136974
17   0.158533
18   0.167475
19   0.169358
20   0.150277
21   0.150852
22   0.121185
23   0.152485
24   0.129675
25   0.137801
26   0.120354
27   0.150385
28   0.109635
29   0.156481
30   0.124552
31   0.115894

>  <lowdin_charges>
31
1   -0.449996
2   -0.277406
3   -0.15828
4   -0.14727
5   -0.213578
6   -0.181427
7   -0.132599
8   -0.018873
9   -0.152257
10   -0.03055
11   0.099891
12   0.005074
13   -0.199773
14   -0.265264
15   -0.2618
16   0.147499
17   0.159762
18   0.159594
19   0.163395
20   0.144769
21   0.143164
22   0.153939
23   0.170098
24   0.16079
25   0.167214
26   0.125386
27   0.151453
28   0.110641
29   0.153918
30   0.143919
31   0.128566

$$$$

