PCCDB-ID:  3721
public computational chemistry database (PCCDB) project, http://pccdb.org

 28 29  0  0  1  0  0  0  0  0999 V2000
    1.6011    1.3833   -0.4373 C   0  0  0  0  0  0  0  0  0  0  0  0
    0.3086    0.7351    0.0739 C   0  0  1  0  0  0  0  0  0  0  0  0
   -0.9945    1.5363   -0.0350 C   0  0  1  0  0  0  0  0  0  0  0  0
   -2.1649    0.6805    0.5150 C   0  0  1  0  0  0  0  0  0  0  0  0
   -2.2252   -0.7422   -0.0731 C   0  0  2  0  0  0  0  0  0  0  0  0
   -0.8679   -1.5028   -0.0771 C   0  0  2  0  0  0  0  0  0  0  0  0
    0.2013   -0.5969   -0.6890 C   0  0  2  0  0  0  0  0  0  0  0  0
   -0.9377    2.7711    0.6475 O   0  0  0  0  0  0  0  0  0  0  0  0
   -2.0946    0.6619    1.9469 O   0  0  0  0  0  0  0  0  0  0  0  0
   -2.7622   -0.7410   -1.4037 O   0  0  0  0  0  0  0  0  0  0  0  0
   -1.0172   -2.7343   -0.7417 O   0  0  0  0  0  0  0  0  0  0  0  0
    3.3870   -0.2786    0.8091 O   0  0  0  0  0  0  0  0  0  0  0  0
    3.6680   -0.1153   -1.7747 O   0  0  0  0  0  0  0  0  0  0  0  0
    1.5074   -1.1991   -0.6691 O   0  0  0  0  0  0  0  0  0  0  0  0
    2.7010   -0.0698   -0.6524 P   0  0  2  0  0  0  0  0  0  0  0  0
    2.0231    2.1221    0.2458 H   0  0  0  0  0  0  0  0  0  0  0  0
    1.4589    1.8545   -1.4173 H   0  0  0  0  0  0  0  0  0  0  0  0
    0.4647    0.4899    1.1360 H   0  0  0  0  0  0  0  0  0  0  0  0
   -1.1789    1.7795   -1.0924 H   0  0  0  0  0  0  0  0  0  0  0  0
   -3.1095    1.1856    0.2925 H   0  0  0  0  0  0  0  0  0  0  0  0
   -2.9426   -1.3261    0.5105 H   0  0  0  0  0  0  0  0  0  0  0  0
   -0.5628   -1.7404    0.9517 H   0  0  0  0  0  0  0  0  0  0  0  0
   -0.0602   -0.4069   -1.7431 H   0  0  0  0  0  0  0  0  0  0  0  0
   -1.1776    2.5652    1.5701 H   0  0  0  0  0  0  0  0  0  0  0  0
   -1.4221    0.0194    2.2243 H   0  0  0  0  0  0  0  0  0  0  0  0
   -2.3149   -0.0595   -1.9302 H   0  0  0  0  0  0  0  0  0  0  0  0
   -1.6218   -2.5600   -1.4862 H   0  0  0  0  0  0  0  0  0  0  0  0
    4.3095   -0.5646    0.6974 H   0  0  0  0  0  0  0  0  0  0  0  0
  1  2  1  0  0  0  0
  1 16  1  0  0  0  0
  2 18  1  1  0  0  0
  3 19  1  6  0  0  0
  3  2  1  0  0  0  0
  3  4  1  0  0  0  0
  3  8  1  0  0  0  0
  4 20  1  6  0  0  0
  4  9  1  0  0  0  0
  5 21  1  1  0  0  0
  5  4  1  0  0  0  0
  6  5  1  0  0  0  0
  6 22  1  1  0  0  0
  7 23  1  6  0  0  0
  7 14  1  0  0  0  0
  7  6  1  0  0  0  0
  7  2  1  0  0  0  0
  8 24  1  0  0  0  0
  9 25  1  0  0  0  0
 10  5  1  0  0  0  0
 11  6  1  0  0  0  0
 14 15  1  0  0  0  0
 15 13  2  6  0  0  0
 15  1  1  0  0  0  0
 15 12  1  0  0  0  0
 17  1  1  0  0  0  0
 26 10  1  0  0  0  0
 27 11  1  0  0  0  0
 28 12  1  0  0  0  0
M  END
>  <HBA>
7

>  <HBD>
5

>  <TPSA>
137.26

>  <cid>
3721

>  <dipole>
3.14

>  <excitation_energy_1>
6.143

>  <excitation_energy_2>
6.3

>  <excitation_energy_3>
6.547

>  <excitation_energy_4>
6.663

>  <homo_energy>
-7.429

>  <homo_lumo_gap>
7.758

>  <logP>
-2.356

>  <lumo_energy>
0.329

>  <melting_point>
134.33

>  <molecular_refractivity>
47.09

>  <oscillator_strength_1>
0.0057

>  <oscillator_strength_2>
0.0007

>  <oscillator_strength_3>
0.0038

>  <oscillator_strength_4>
0.0012

>  <open_babel_can_smiles>
O[C@H]1[C@@H]2C[P@](=O)(O[C@H]2[C@@H]([C@@H]([C@H]1O)O)O)O

>  <mulliken_charges>
28
1   -0.50519
2   -0.16968
3   0.131858
4   0.070784
5   0.058369
6   0.119855
7   0.133288
8   -0.631945
9   -0.636483
10   -0.635401
11   -0.620479
12   -0.659253
13   -0.524676
14   -0.542242
15   1.089343
16   0.206708
17   0.190578
18   0.137241
19   0.120308
20   0.17131
21   0.174662
22   0.132968
23   0.119941
24   0.406944
25   0.406803
26   0.405078
27   0.405716
28   0.443597

>  <lowdin_charges>
28
1   -0.451116
2   -0.161076
3   -0.026644
4   -0.036877
5   -0.037932
6   -0.033302
7   -0.013697
8   -0.448325
9   -0.453003
10   -0.453573
11   -0.439047
12   -0.579115
13   -0.577867
14   -0.384243
15   1.055598
16   0.194243
17   0.183389
18   0.145363
19   0.135451
20   0.164578
21   0.168131
22   0.144756
23   0.132549
24   0.346504
25   0.346721
26   0.345757
27   0.347416
28   0.385362

$$$$

