PCCDB-ID:  53737
public computational chemistry database (PCCDB) project, http://pccdb.org

 31 32  0  0  0  0  0  0  0  0999 V2000
    0.5635    0.0686    0.2025 C   0  0  0  0  0  0  0  0  0  0  0  0
    2.1433   -2.3769   -0.3817 C   0  0  0  0  0  0  0  0  0  0  0  0
    4.7982    2.8108    0.1295 C   0  0  0  0  0  0  0  0  0  0  0  0
    8.3768   -2.3467   -1.1038 C   0  0  0  0  0  0  0  0  0  0  0  0
    9.3326   -1.1226   -1.0293 C   0  0  0  0  0  0  0  0  0  0  0  0
    2.7409    1.3444    0.1435 C   0  0  0  0  0  0  0  0  0  0  0  0
    4.2010   -0.9355   -0.3979 C   0  0  0  0  0  0  0  0  0  0  0  0
    2.0630    0.1276    0.0307 C   0  0  0  0  0  0  0  0  0  0  0  0
    2.8153   -1.0302   -0.2464 C   0  0  0  0  0  0  0  0  0  0  0  0
    4.1241    1.4649   -0.0032 C   0  0  0  0  0  0  0  0  0  0  0  0
    4.8600    0.2944   -0.2789 C   0  0  0  0  0  0  0  0  0  0  0  0
    7.1888   -0.5464   -0.6849 C   0  0  0  0  0  0  0  0  0  0  0  0
    7.0361   -1.8034   -0.8690 N   0  0  0  0  0  0  0  0  0  0  0  0
    6.2561    0.4162   -0.4257 N   0  0  0  0  0  0  0  0  0  0  0  0
    8.4536   -0.0119   -0.7430 O   0  0  0  0  0  0  0  0  0  0  0  0
    0.1510    1.0615    0.4083 H   0  0  0  0  0  0  0  0  0  0  0  0
    0.2717   -0.5898    1.0317 H   0  0  0  0  0  0  0  0  0  0  0  0
    0.0628   -0.3186   -0.6951 H   0  0  0  0  0  0  0  0  0  0  0  0
    2.8744   -3.1626   -0.5931 H   0  0  0  0  0  0  0  0  0  0  0  0
    1.4028   -2.3813   -1.1926 H   0  0  0  0  0  0  0  0  0  0  0  0
    1.6064   -2.6567    0.5344 H   0  0  0  0  0  0  0  0  0  0  0  0
    4.0627    3.5917    0.3424 H   0  0  0  0  0  0  0  0  0  0  0  0
    5.3245    3.1060   -0.7899 H   0  0  0  0  0  0  0  0  0  0  0  0
    5.5336    2.8302    0.9470 H   0  0  0  0  0  0  0  0  0  0  0  0
    8.6194   -3.1029   -0.3465 H   0  0  0  0  0  0  0  0  0  0  0  0
    8.4218   -2.8435   -2.0810 H   0  0  0  0  0  0  0  0  0  0  0  0
    9.8508   -0.9136   -1.9703 H   0  0  0  0  0  0  0  0  0  0  0  0
   10.0702   -1.1899   -0.2240 H   0  0  0  0  0  0  0  0  0  0  0  0
    2.1674    2.2450    0.3563 H   0  0  0  0  0  0  0  0  0  0  0  0
    4.7884   -1.8202   -0.6105 H   0  0  0  0  0  0  0  0  0  0  0  0
    6.6479    1.3402   -0.3257 H   0  0  0  0  0  0  0  0  0  0  0  0
  1 16  1  0  0  0  0
  1 17  1  0  0  0  0
  2  9  1  0  0  0  0
  2 21  1  0  0  0  0
  3 22  1  0  0  0  0
  3 24  1  0  0  0  0
  4  5  1  0  0  0  0
  4 13  1  0  0  0  0
  4 25  1  0  0  0  0
  5 15  1  0  0  0  0
  5 28  1  0  0  0  0
  6 29  1  0  0  0  0
  7 11  2  0  0  0  0
  7  9  1  0  0  0  0
  8  6  1  0  0  0  0
  8  1  1  0  0  0  0
  9  8  2  0  0  0  0
 10  3  1  0  0  0  0
 10  6  2  0  0  0  0
 11 10  1  0  0  0  0
 12 14  1  0  0  0  0
 13 12  2  0  0  0  0
 14 31  1  0  0  0  0
 14 11  1  0  0  0  0
 15 12  1  0  0  0  0
 18  1  1  0  0  0  0
 19  2  1  0  0  0  0
 20  2  1  0  0  0  0
 23  3  1  0  0  0  0
 26  4  1  0  0  0  0
 27  5  1  0  0  0  0
 30  7  1  0  0  0  0
M  END
>  <HBA>
3

>  <HBD>
1

>  <TPSA>
33.62

>  <cid>
53737

>  <dipole>
1.61

>  <excitation_energy_1>
4.754

>  <excitation_energy_2>
4.807

>  <excitation_energy_3>
5.066

>  <excitation_energy_4>
5.233

>  <homo_energy>
-5.268

>  <homo_lumo_gap>
5.521

>  <logP>
1.919

>  <lumo_energy>
0.253

>  <melting_point>
82.55

>  <molecular_refractivity>
66.24

>  <oscillator_strength_1>
0.023

>  <oscillator_strength_2>
0.0007

>  <oscillator_strength_3>
0.4235

>  <oscillator_strength_4>
0.0

>  <open_babel_can_smiles>
Cc1cc(C)c(cc1NC1=NCCO1)C

>  <mulliken_charges>
31
1   -0.53492
2   -0.533669
3   -0.567481
4   -0.1615
5   -0.057178
6   -0.272789
7   -0.233823
8   0.152214
9   0.116007
10   0.160512
11   0.297922
12   0.761276
13   -0.497833
14   -0.783686
15   -0.513817
16   0.150331
17   0.155702
18   0.155595
19   0.161036
20   0.155239
21   0.15514
22   0.166437
23   0.15893
24   0.158882
25   0.151306
26   0.15134
27   0.155683
28   0.15587
29   0.109742
30   0.181653
31   0.345879

>  <lowdin_charges>
31
1   -0.441636
2   -0.441999
3   -0.451208
4   -0.209292
5   -0.139472
6   -0.17338
7   -0.198775
8   -0.024078
9   -0.003515
10   -0.038096
11   0.05236
12   0.161107
13   -0.272925
14   -0.232507
15   -0.231628
16   0.154042
17   0.156416
18   0.156213
19   0.160603
20   0.156648
21   0.156507
22   0.165289
23   0.155009
24   0.155074
25   0.148259
26   0.147351
27   0.150013
28   0.151096
29   0.149754
30   0.185115
31   0.297656

$$$$

