PCCDB-ID:  9456
public computational chemistry database (PCCDB) project, http://pccdb.org

 22 22  0  0  0  0  0  0  0  0999 V2000
    1.3728    0.4048    0.2381 C   0  0  0  0  0  0  0  0  0  0  0  0
    4.5327   -3.1283    2.0138 C   0  0  0  0  0  0  0  0  0  0  0  0
    4.4546   -3.1056    0.6205 C   0  0  0  0  0  0  0  0  0  0  0  0
    4.0445   -2.0443    2.7475 C   0  0  0  0  0  0  0  0  0  0  0  0
    3.8835   -2.0146   -0.0364 C   0  0  0  0  0  0  0  0  0  0  0  0
    3.4950   -0.9419    2.0951 C   0  0  0  0  0  0  0  0  0  0  0  0
    3.4057   -0.9155    0.6953 C   0  0  0  0  0  0  0  0  0  0  0  0
    3.3781    0.7787   -1.0940 C   0  0  0  0  0  0  0  0  0  0  0  0
    2.6135    1.3290   -1.9700 N   0  0  0  0  0  0  0  0  0  0  0  0
    4.7774    0.7965   -1.1088 N   0  0  0  0  0  0  0  0  0  0  0  0
    2.8126    0.2092    0.0496 N   0  0  0  0  0  0  0  0  0  0  0  0
    1.1172    0.1669    1.2731 H   0  0  0  0  0  0  0  0  0  0  0  0
    0.7832   -0.2354   -0.4318 H   0  0  0  0  0  0  0  0  0  0  0  0
    1.1220    1.4431    0.0203 H   0  0  0  0  0  0  0  0  0  0  0  0
    4.9689   -3.9826    2.5236 H   0  0  0  0  0  0  0  0  0  0  0  0
    4.8222   -3.9478    0.0400 H   0  0  0  0  0  0  0  0  0  0  0  0
    4.1052   -2.0493    3.8325 H   0  0  0  0  0  0  0  0  0  0  0  0
    3.7936   -2.0123   -1.1191 H   0  0  0  0  0  0  0  0  0  0  0  0
    3.1397   -0.0866    2.6626 H   0  0  0  0  0  0  0  0  0  0  0  0
    3.1737    1.8284   -2.6634 H   0  0  0  0  0  0  0  0  0  0  0  0
    5.1815    0.7802   -2.0358 H   0  0  0  0  0  0  0  0  0  0  0  0
    5.2460    0.1649   -0.4720 H   0  0  0  0  0  0  0  0  0  0  0  0
  1 12  1  0  0  0  0
  2 15  1  0  0  0  0
  2  4  2  0  0  0  0
  3  2  1  0  0  0  0
  4 17  1  0  0  0  0
  5  3  2  0  0  0  0
  5  7  1  0  0  0  0
  6 19  1  0  0  0  0
  6  4  1  0  0  0  0
  7  6  2  0  0  0  0
  8 11  1  0  0  0  0
  9  8  1  0  0  0  0
 10  8  2  0  0  0  0
 10 22  1  0  0  0  0
 11  1  1  0  0  0  0
 11  7  1  0  0  0  0
 13  1  1  0  0  0  0
 14  1  1  0  0  0  0
 16  3  1  0  0  0  0
 18  5  1  0  0  0  0
 20  9  1  0  0  0  0
 21 10  1  0  0  0  0
M  RAD  1   9   2
M  END
>  <HBA>
3

>  <HBD>
2

>  <TPSA>
53.11

>  <cid>
9456

>  <dipole>
3.06

>  <excitation_energy_1>
4.554

>  <excitation_energy_2>
4.571

>  <excitation_energy_3>
5.118

>  <excitation_energy_4>
5.352

>  <homo_energy>
-5.657

>  <homo_lumo_gap>
5.391

>  <logP>
1.816

>  <lumo_energy>
-0.267

>  <melting_point>
98.21

>  <molecular_refractivity>
46.95

>  <oscillator_strength_1>
0.0632

>  <oscillator_strength_2>
0.0827

>  <oscillator_strength_3>
0.0118

>  <oscillator_strength_4>
0.0197

>  <open_babel_can_smiles>
CN(c1ccccc1)C(=[NH2])[NH]

>  <mulliken_charges>
22
1   -0.289756
2   -0.12563
3   -0.141284
4   -0.138927
5   -0.160137
6   -0.149534
7   0.232505
8   0.586704
9   -0.663025
10   -0.749761
11   -0.492526
12   0.144434
13   0.157631
14   0.186171
15   0.132326
16   0.134774
17   0.135217
18   0.142879
19   0.140755
20   0.266288
21   0.320637
22   0.330259

>  <lowdin_charges>
22
1   -0.339489
2   -0.163247
3   -0.154731
4   -0.149198
5   -0.180431
6   -0.169195
7   0.0396
8   0.128943
9   -0.483496
10   -0.508023
11   -0.11143
12   0.149631
13   0.150809
14   0.172204
15   0.160555
16   0.160925
17   0.15845
18   0.162917
19   0.165871
20   0.248546
21   0.277639
22   0.28315

$$$$

