PCCDB-ID:  59035
public computational chemistry database (PCCDB) project, http://pccdb.org

 24 25  0  0  0  0  0  0  0  0999 V2000
    1.0291    0.2076   -0.0755 C   0  0  0  0  0  0  0  0  0  0  0  0
    5.2894   -2.0876    0.0429 C   0  0  0  0  0  0  0  0  0  0  0  0
    9.2008    0.0887   -1.3248 C   0  0  0  0  0  0  0  0  0  0  0  0
    8.5443    0.8768   -0.3438 C   0  0  0  0  0  0  0  0  0  0  0  0
    8.2111   -0.5663   -2.0061 C   0  0  0  0  0  0  0  0  0  0  0  0
    3.4595    1.1700    0.0922 C   0  0  0  0  0  0  0  0  0  0  0  0
    2.5151    0.2049   -0.0086 C   0  0  0  0  0  0  0  0  0  0  0  0
    4.4766   -0.8401   -0.0125 C   0  0  0  0  0  0  0  0  0  0  0  0
    4.7464    0.5141    0.0723 C   0  0  0  0  0  0  0  0  0  0  0  0
    7.1908    0.6488   -0.4791 C   0  0  0  0  0  0  0  0  0  0  0  0
    6.0348    1.1891    0.2061 C   0  0  0  0  0  0  0  0  0  0  0  0
    6.9939   -0.2473   -1.5125 O   0  0  0  0  0  0  0  0  0  0  0  0
    3.1308   -1.0310   -0.0580 O   0  0  0  0  0  0  0  0  0  0  0  0
    6.1874    2.5904    1.1022 S   0  0  0  0  0  0  0  0  0  0  0  0
    0.6592    1.2344   -0.0117 H   0  0  0  0  0  0  0  0  0  0  0  0
    0.5890   -0.3679    0.7481 H   0  0  0  0  0  0  0  0  0  0  0  0
    0.6664   -0.2304   -1.0138 H   0  0  0  0  0  0  0  0  0  0  0  0
    6.2852   -1.8879    0.4419 H   0  0  0  0  0  0  0  0  0  0  0  0
    5.4079   -2.5383   -0.9503 H   0  0  0  0  0  0  0  0  0  0  0  0
    4.7945   -2.8223    0.6870 H   0  0  0  0  0  0  0  0  0  0  0  0
   10.2636    0.0165   -1.5080 H   0  0  0  0  0  0  0  0  0  0  0  0
    8.9893    1.5374    0.3852 H   0  0  0  0  0  0  0  0  0  0  0  0
    8.2157   -1.2556   -2.8376 H   0  0  0  0  0  0  0  0  0  0  0  0
    3.3010    2.2361    0.1593 H   0  0  0  0  0  0  0  0  0  0  0  0
  1 15  1  0  0  0  0
  1  7  1  0  0  0  0
  1 16  1  0  0  0  0
  2 18  1  0  0  0  0
  2 20  1  0  0  0  0
  3  4  1  0  0  0  0
  4 22  1  0  0  0  0
  5 12  1  0  0  0  0
  5  3  2  0  0  0  0
  6 24  1  0  0  0  0
  7  6  2  0  0  0  0
  8  2  1  0  0  0  0
  8  9  2  0  0  0  0
  9  6  1  0  0  0  0
  9 11  1  0  0  0  0
 10  4  2  0  0  0  0
 10 11  1  0  0  0  0
 11 14  2  0  0  0  0
 12 10  1  0  0  0  0
 13  8  1  0  0  0  0
 13  7  1  0  0  0  0
 17  1  1  0  0  0  0
 19  2  1  0  0  0  0
 21  3  1  0  0  0  0
 23  5  1  0  0  0  0
M  END
>  <HBA>
3

>  <HBD>
0

>  <TPSA>
58.37

>  <cid>
59035

>  <dipole>
3.88

>  <excitation_energy_1>
2.067

>  <excitation_energy_2>
2.981

>  <excitation_energy_3>
3.659

>  <excitation_energy_4>
4.192

>  <homo_energy>
-5.581

>  <homo_lumo_gap>
3.227

>  <logP>
3.256

>  <lumo_energy>
-2.354

>  <melting_point>
76.04

>  <molecular_refractivity>
58.15

>  <oscillator_strength_1>
0.0016

>  <oscillator_strength_2>
0.0802

>  <oscillator_strength_3>
0.2899

>  <oscillator_strength_4>
0.1213

>  <open_babel_can_smiles>
Cc1oc(c(c1)C(=S)c1ccco1)C

>  <mulliken_charges>
24
1   -0.529248
2   -0.527663
3   -0.184351
4   -0.15762
5   0.100621
6   -0.215752
7   0.341248
8   0.337947
9   0.05697
10   0.323204
11   -0.159095
12   -0.436019
13   -0.466464
14   -0.185332
15   0.172147
16   0.172569
17   0.17119
18   0.176747
19   0.175128
20   0.173402
21   0.154838
22   0.178659
23   0.166792
24   0.16008

>  <lowdin_charges>
24
1   -0.44008
2   -0.443749
3   -0.197479
4   -0.156503
5   -0.057381
6   -0.199166
7   0.071914
8   0.099569
9   -0.067219
10   0.047211
11   -0.077901
12   -0.084896
13   -0.109022
14   -0.127581
15   0.170983
16   0.1687
17   0.166934
18   0.173238
19   0.169517
20   0.171623
21   0.174189
22   0.190901
23   0.175988
24   0.180208

$$$$

