PCCDB-ID:  47520
public computational chemistry database (PCCDB) project, http://pccdb.org

 20 19  0  0  0  0  0  0  0  0999 V2000
    3.4005    0.8426   -0.8298 C   0  0  0  0  0  0  0  0  0  0  0  0
    0.6121   -3.1016    2.6590 C   0  0  0  0  0  0  0  0  0  0  0  0
    0.9629   -2.7728   -0.9701 C   0  0  0  0  0  0  0  0  0  0  0  0
    2.0665   -0.5220    0.5358 C   0  0  0  0  0  0  0  0  0  0  0  0
    1.9347   -1.9523    1.0627 C   0  0  0  0  0  0  0  0  0  0  0  0
    3.1604   -0.4638   -0.3520 O   0  0  0  0  0  0  0  0  0  0  0  0
    0.7692   -1.9397    1.8570 O   0  0  0  0  0  0  0  0  0  0  0  0
    1.9139   -2.9506    0.0738 O   0  0  0  0  0  0  0  0  0  0  0  0
    4.2591    0.7862   -1.5039 H   0  0  0  0  0  0  0  0  0  0  0  0
    3.6339    1.5407   -0.0095 H   0  0  0  0  0  0  0  0  0  0  0  0
    2.5351    1.2407   -1.3843 H   0  0  0  0  0  0  0  0  0  0  0  0
   -0.3162   -2.9730    3.2208 H   0  0  0  0  0  0  0  0  0  0  0  0
    1.4485   -3.2119    3.3660 H   0  0  0  0  0  0  0  0  0  0  0  0
    0.5479   -4.0086    2.0466 H   0  0  0  0  0  0  0  0  0  0  0  0
    0.9324   -3.7178   -1.5181 H   0  0  0  0  0  0  0  0  0  0  0  0
    1.2703   -1.9743   -1.6568 H   0  0  0  0  0  0  0  0  0  0  0  0
   -0.0374   -2.5546   -0.5758 H   0  0  0  0  0  0  0  0  0  0  0  0
    2.2116    0.1489    1.3973 H   0  0  0  0  0  0  0  0  0  0  0  0
    1.1304   -0.2183    0.0401 H   0  0  0  0  0  0  0  0  0  0  0  0
    2.8133   -2.2096    1.6711 H   0  0  0  0  0  0  0  0  0  0  0  0
  1  6  1  0  0  0  0
  1 10  1  0  0  0  0
  2 12  1  0  0  0  0
  2 13  1  0  0  0  0
  3 17  1  0  0  0  0
  3  8  1  0  0  0  0
  4  5  1  0  0  0  0
  4 18  1  0  0  0  0
  5 20  1  0  0  0  0
  5  7  1  0  0  0  0
  6  4  1  0  0  0  0
  7  2  1  0  0  0  0
  8  5  1  0  0  0  0
  9  1  1  0  0  0  0
 11  1  1  0  0  0  0
 14  2  1  0  0  0  0
 15  3  1  0  0  0  0
 16  3  1  0  0  0  0
 19  4  1  0  0  0  0
M  END
>  <HBA>
3

>  <HBD>
0

>  <TPSA>
27.69

>  <cid>
47520

>  <dipole>
1.2

>  <excitation_energy_1>
6.562

>  <excitation_energy_2>
6.816

>  <excitation_energy_3>
6.961

>  <excitation_energy_4>
7.095

>  <homo_energy>
-6.955

>  <homo_lumo_gap>
9.217

>  <logP>
0.252

>  <lumo_energy>
2.261

>  <melting_point>
-52.75

>  <molecular_refractivity>
29.4

>  <oscillator_strength_1>
0.0239

>  <oscillator_strength_2>
0.0026

>  <oscillator_strength_3>
0.002

>  <oscillator_strength_4>
0.0069

>  <open_babel_can_smiles>
COCC(OC)OC

>  <mulliken_charges>
20
1   -0.190506
2   -0.203913
3   -0.216738
4   -0.050411
5   0.34312
6   -0.457301
7   -0.47785
8   -0.460069
9   0.160918
10   0.13127
11   0.129952
12   0.156587
13   0.133727
14   0.154721
15   0.155365
16   0.149691
17   0.14682
18   0.13485
19   0.131524
20   0.128243

>  <lowdin_charges>
20
1   -0.280138
2   -0.283312
3   -0.287467
4   -0.153078
5   0.087198
6   -0.263899
7   -0.269312
8   -0.259261
9   0.156773
10   0.133143
11   0.132584
12   0.154911
13   0.1358
14   0.145705
15   0.155485
16   0.143268
17   0.140259
18   0.139993
19   0.134603
20   0.136743

$$$$

