PCCDB-ID:  26333
public computational chemistry database (PCCDB) project, http://pccdb.org

 25 25  0  0  0  0  0  0  0  0999 V2000
    2.6414    1.3270    0.7408 C   0  0  0  0  0  0  0  0  0  0  0  0
    1.0157   -0.5673    0.3319 C   0  0  0  0  0  0  0  0  0  0  0  0
    5.0437   -2.7154   -0.2752 C   0  0  0  0  0  0  0  0  0  0  0  0
    7.3182    0.0272   -1.0856 C   0  0  0  0  0  0  0  0  0  0  0  0
    6.4548    1.0562   -1.4457 C   0  0  0  0  0  0  0  0  0  0  0  0
    3.1491   -0.4583   -1.0226 C   0  0  0  0  0  0  0  0  0  0  0  0
    2.4933   -0.1499    0.3508 C   0  0  0  0  0  0  0  0  0  0  0  0
    5.5333   -1.3484   -0.6867 C   0  0  0  0  0  0  0  0  0  0  0  0
    4.6517   -0.2996   -1.0502 C   0  0  0  0  0  0  0  0  0  0  0  0
    6.8614   -1.1725   -0.7094 N   0  0  0  0  0  0  0  0  0  0  0  0
    5.1270    0.8948   -1.4316 N   0  0  0  0  0  0  0  0  0  0  0  0
    2.1996    1.5122    1.7271 H   0  0  0  0  0  0  0  0  0  0  0  0
    2.1297    1.9731    0.0164 H   0  0  0  0  0  0  0  0  0  0  0  0
    3.6897    1.6384    0.7727 H   0  0  0  0  0  0  0  0  0  0  0  0
    0.5385   -0.3711    1.2991 H   0  0  0  0  0  0  0  0  0  0  0  0
    0.9013   -1.6353    0.1109 H   0  0  0  0  0  0  0  0  0  0  0  0
    0.4612   -0.0067   -0.4318 H   0  0  0  0  0  0  0  0  0  0  0  0
    4.3386   -2.6653    0.5621 H   0  0  0  0  0  0  0  0  0  0  0  0
    5.9001   -3.3241    0.0223 H   0  0  0  0  0  0  0  0  0  0  0  0
    4.5283   -3.2223   -1.1012 H   0  0  0  0  0  0  0  0  0  0  0  0
    8.3981    0.1622   -1.1012 H   0  0  0  0  0  0  0  0  0  0  0  0
    6.8314    2.0287   -1.7573 H   0  0  0  0  0  0  0  0  0  0  0  0
    2.7272    0.2198   -1.7736 H   0  0  0  0  0  0  0  0  0  0  0  0
    2.8807   -1.4801   -1.3181 H   0  0  0  0  0  0  0  0  0  0  0  0
    3.0052   -0.7554    1.1137 H   0  0  0  0  0  0  0  0  0  0  0  0
  1 14  1  0  0  0  0
  1 12  1  0  0  0  0
  2  7  1  0  0  0  0
  2 15  1  0  0  0  0
  3 19  1  0  0  0  0
  3 18  1  0  0  0  0
  4 10  2  0  0  0  0
  5 11  2  0  0  0  0
  5  4  1  0  0  0  0
  6  7  1  0  0  0  0
  7  1  1  0  0  0  0
  7 25  1  0  0  0  0
  8  3  1  0  0  0  0
  9  6  1  0  0  0  0
  9  8  2  0  0  0  0
 10  8  1  0  0  0  0
 11  9  1  0  0  0  0
 13  1  1  0  0  0  0
 16  2  1  0  0  0  0
 17  2  1  0  0  0  0
 20  3  1  0  0  0  0
 21  4  1  0  0  0  0
 22  5  1  0  0  0  0
 23  6  1  0  0  0  0
 24  6  1  0  0  0  0
M  END
>  <HBA>
2

>  <HBD>
0

>  <TPSA>
25.78

>  <cid>
26333

>  <dipole>
0.78

>  <excitation_energy_1>
4.058

>  <excitation_energy_2>
4.685

>  <excitation_energy_3>
5.11

>  <excitation_energy_4>
5.553

>  <homo_energy>
-6.523

>  <homo_lumo_gap>
5.44

>  <logP>
1.984

>  <lumo_energy>
-1.083

>  <melting_point>
41.01

>  <molecular_refractivity>
46.38

>  <oscillator_strength_1>
0.0058

>  <oscillator_strength_2>
0.0001

>  <oscillator_strength_3>
0.1436

>  <oscillator_strength_4>
0.0001

>  <open_babel_can_smiles>
CC(Cc1nccnc1C)C

>  <mulliken_charges>
25
1   -0.437153
2   -0.441048
3   -0.53026
4   0.027456
5   0.025372
6   -0.318914
7   -0.07874
8   0.275603
9   0.259955
10   -0.434705
11   -0.435773
12   0.137179
13   0.143126
14   0.157473
15   0.144131
16   0.138923
17   0.143401
18   0.166602
19   0.180173
20   0.166512
21   0.145153
22   0.144883
23   0.156728
24   0.13728
25   0.126644

>  <lowdin_charges>
25
1   -0.445563
2   -0.44379
3   -0.45254
4   -0.110619
5   -0.113661
6   -0.28226
7   -0.117098
8   0.032904
9   0.030941
10   -0.132719
11   -0.131969
12   0.146581
13   0.150001
14   0.155429
15   0.150296
16   0.145085
17   0.14919
18   0.16287
19   0.173979
20   0.164824
21   0.158965
22   0.160671
23   0.162206
24   0.149603
25   0.136674

$$$$

