PCCDB-ID:  62653
public computational chemistry database (PCCDB) project, http://pccdb.org

 38 37  0  0  0  0  0  0  0  0999 V2000
    1.7373   -2.7580    2.5241 C   0  0  0  0  0  0  0  0  0  0  0  0
    3.0341   -2.6839    3.3420 C   0  0  0  0  0  0  0  0  0  0  0  0
    4.1209   -1.7400    2.7833 C   0  0  0  0  0  0  0  0  0  0  0  0
    5.0962   -2.3450    1.7557 C   0  0  0  0  0  0  0  0  0  0  0  0
    4.4892   -2.7502    0.4035 C   0  0  0  0  0  0  0  0  0  0  0  0
    5.5288   -3.1358   -0.6635 C   0  0  0  0  0  0  0  0  0  0  0  0
    6.3356   -4.4009   -0.3312 C   0  0  0  0  0  0  0  0  0  0  0  0
    7.2313   -4.9045   -1.4754 C   0  0  0  0  0  0  0  0  0  0  0  0
    8.3714   -3.9499   -1.8588 C   0  0  0  0  0  0  0  0  0  0  0  0
    9.2796   -4.5305   -2.9481 C   0  0  0  0  0  0  0  0  0  0  0  0
   10.4221   -3.6667   -3.3963 C   0  0  0  0  0  0  0  0  0  0  0  0
   10.7471   -2.4438   -2.9461 C   0  0  0  0  0  0  0  0  0  0  0  0
   11.9054   -1.7241   -3.4928 C   0  0  0  0  0  0  0  0  0  0  0  0
   12.2621   -0.6163   -3.1366 O   0  0  0  0  0  0  0  0  0  0  0  0
    1.0033   -3.4091    3.0135 H   0  0  0  0  0  0  0  0  0  0  0  0
    1.9013   -3.1464    1.5141 H   0  0  0  0  0  0  0  0  0  0  0  0
    1.2835   -1.7641    2.4243 H   0  0  0  0  0  0  0  0  0  0  0  0
    3.4559   -3.6924    3.4619 H   0  0  0  0  0  0  0  0  0  0  0  0
    2.7726   -2.3493    4.3549 H   0  0  0  0  0  0  0  0  0  0  0  0
    4.7255   -1.3760    3.6248 H   0  0  0  0  0  0  0  0  0  0  0  0
    3.6414   -0.8485    2.3520 H   0  0  0  0  0  0  0  0  0  0  0  0
    5.5919   -3.2124    2.2139 H   0  0  0  0  0  0  0  0  0  0  0  0
    5.8912   -1.6077    1.5687 H   0  0  0  0  0  0  0  0  0  0  0  0
    3.8853   -1.9152    0.0205 H   0  0  0  0  0  0  0  0  0  0  0  0
    3.7970   -3.5920    0.5396 H   0  0  0  0  0  0  0  0  0  0  0  0
    6.2088   -2.2869   -0.8214 H   0  0  0  0  0  0  0  0  0  0  0  0
    5.0093   -3.2926   -1.6202 H   0  0  0  0  0  0  0  0  0  0  0  0
    5.6339   -5.2029   -0.0602 H   0  0  0  0  0  0  0  0  0  0  0  0
    6.9566   -4.2276    0.5585 H   0  0  0  0  0  0  0  0  0  0  0  0
    6.6096   -5.1008   -2.3618 H   0  0  0  0  0  0  0  0  0  0  0  0
    7.6630   -5.8732   -1.1857 H   0  0  0  0  0  0  0  0  0  0  0  0
    8.9714   -3.7231   -0.9663 H   0  0  0  0  0  0  0  0  0  0  0  0
    7.9593   -2.9945   -2.2069 H   0  0  0  0  0  0  0  0  0  0  0  0
    8.6786   -4.7853   -3.8360 H   0  0  0  0  0  0  0  0  0  0  0  0
    9.6947   -5.4945   -2.6120 H   0  0  0  0  0  0  0  0  0  0  0  0
   11.0510   -4.0992   -4.1784 H   0  0  0  0  0  0  0  0  0  0  0  0
   10.1818   -1.9339   -2.1705 H   0  0  0  0  0  0  0  0  0  0  0  0
   12.4613   -2.2757   -4.2863 H   0  0  0  0  0  0  0  0  0  0  0  0
  1 15  1  0  0  0  0
  1  2  1  0  0  0  0
  2 18  1  0  0  0  0
  2 19  1  0  0  0  0
  3  2  1  0  0  0  0
  3 20  1  0  0  0  0
  4 22  1  0  0  0  0
  4  3  1  0  0  0  0
  5 25  1  0  0  0  0
  5  4  1  0  0  0  0
  6  7  1  0  0  0  0
  6  5  1  0  0  0  0
  7 28  1  0  0  0  0
  7 29  1  0  0  0  0
  8 31  1  0  0  0  0
  8  7  1  0  0  0  0
  9  8  1  0  0  0  0
  9 32  1  0  0  0  0
 10 35  1  0  0  0  0
 10  9  1  0  0  0  0
 11 10  1  0  0  0  0
 11 12  2  0  0  0  0
 12 37  1  0  0  0  0
 13 14  2  0  0  0  0
 13 12  1  0  0  0  0
 16  1  1  0  0  0  0
 17  1  1  0  0  0  0
 21  3  1  0  0  0  0
 23  4  1  0  0  0  0
 24  5  1  0  0  0  0
 26  6  1  0  0  0  0
 27  6  1  0  0  0  0
 30  8  1  0  0  0  0
 33  9  1  0  0  0  0
 34 10  1  0  0  0  0
 36 11  1  0  0  0  0
 38 13  1  0  0  0  0
M  END
>  <HBA>
1

>  <HBD>
0

>  <TPSA>
17.07

>  <cid>
62653

>  <dipole>
4.02

>  <excitation_energy_1>
3.749

>  <excitation_energy_2>
5.928

>  <excitation_energy_3>
6.202

>  <excitation_energy_4>
6.387

>  <homo_energy>
-6.708

>  <homo_lumo_gap>
5.312

>  <logP>
4.272

>  <lumo_energy>
-1.396

>  <melting_point>
10.3

>  <molecular_refractivity>
64.33

>  <oscillator_strength_1>
0.0002

>  <oscillator_strength_2>
0.4613

>  <oscillator_strength_3>
0.0009

>  <oscillator_strength_4>
0.0005

>  <open_babel_can_smiles>
CCCCCCCCCC/C=C/C=O

>  <mulliken_charges>
38
1   -0.44612
2   -0.247494
3   -0.254691
4   -0.255642
5   -0.256256
6   -0.259056
7   -0.256692
8   -0.259593
9   -0.263112
10   -0.309669
11   -0.097975
12   -0.144866
13   0.230145
14   -0.418912
15   0.139948
16   0.148669
17   0.141226
18   0.129042
19   0.132044
20   0.128927
21   0.127344
22   0.13146
23   0.126374
24   0.128226
25   0.134325
26   0.13241
27   0.125925
28   0.129065
29   0.135215
30   0.129192
31   0.129048
32   0.141687
33   0.148913
34   0.157959
35   0.157748
36   0.140631
37   0.150041
38   0.094513

>  <lowdin_charges>
38
1   -0.448415
2   -0.273813
3   -0.278511
4   -0.27871
5   -0.279668
6   -0.278536
7   -0.278536
8   -0.274527
9   -0.279052
10   -0.274627
11   -0.108661
12   -0.210931
13   0.039522
14   -0.232635
15   0.149302
16   0.147067
17   0.145326
18   0.137797
19   0.14155
20   0.144219
21   0.138604
22   0.139041
23   0.139858
24   0.141736
25   0.139863
26   0.139336
27   0.139163
28   0.142256
29   0.141179
30   0.138802
31   0.140655
32   0.14538
33   0.147191
34   0.159783
35   0.158825
36   0.157958
37   0.169874
38   0.112332

$$$$

