PCCDB-ID:  28111
public computational chemistry database (PCCDB) project, http://pccdb.org

 16 15  0  0  0  0  0  0  0  0999 V2000
    0.7703   -0.3097   -0.3032 C   0  0  0  0  0  0  0  0  0  0  0  0
    2.5788    0.9131    0.8435 C   0  0  0  0  0  0  0  0  0  0  0  0
    5.3255   -0.1032   -0.0431 C   0  0  0  0  0  0  0  0  0  0  0  0
    5.0718   -1.6693   -1.8841 C   0  0  0  0  0  0  0  0  0  0  0  0
    3.0708   -0.7593   -0.9256 C   0  0  0  0  0  0  0  0  0  0  0  0
    4.4542   -0.8120   -0.9212 C   0  0  0  0  0  0  0  0  0  0  0  0
    6.0569    0.4639    0.6656 N   0  0  0  0  0  0  0  0  0  0  0  0
    5.5631   -2.3728   -2.6722 N   0  0  0  0  0  0  0  0  0  0  0  0
    2.2015   -0.0385   -0.1996 N   0  0  0  0  0  0  0  0  0  0  0  0
    0.2251    0.6208   -0.4972 H   0  0  0  0  0  0  0  0  0  0  0  0
    0.3901   -0.7479    0.6286 H   0  0  0  0  0  0  0  0  0  0  0  0
    0.5778   -1.0072   -1.1206 H   0  0  0  0  0  0  0  0  0  0  0  0
    1.8381    1.7181    0.8634 H   0  0  0  0  0  0  0  0  0  0  0  0
    3.5575    1.3428    0.6418 H   0  0  0  0  0  0  0  0  0  0  0  0
    2.6003    0.4305    1.8289 H   0  0  0  0  0  0  0  0  0  0  0  0
    2.5919   -1.4120   -1.6496 H   0  0  0  0  0  0  0  0  0  0  0  0
  1  9  1  0  0  0  0
  1 11  1  0  0  0  0
  2 13  1  0  0  0  0
  2 15  1  0  0  0  0
  3  7  3  0  0  0  0
  4  6  1  0  0  0  0
  5  6  2  0  0  0  0
  5  9  1  0  0  0  0
  6  3  1  0  0  0  0
  8  4  3  0  0  0  0
  9  2  1  0  0  0  0
 10  1  1  0  0  0  0
 12  1  1  0  0  0  0
 14  2  1  0  0  0  0
 16  5  1  0  0  0  0
M  END
>  <HBA>
3

>  <HBD>
0

>  <TPSA>
50.82

>  <cid>
28111

>  <dipole>
8.52

>  <excitation_energy_1>
4.824

>  <excitation_energy_2>
5.018

>  <excitation_energy_3>
5.337

>  <excitation_energy_4>
5.898

>  <homo_energy>
-6.351

>  <homo_lumo_gap>
5.037

>  <logP>
0.479

>  <lumo_energy>
-1.314

>  <melting_point>
57.09

>  <molecular_refractivity>
32.88

>  <oscillator_strength_1>
0.4466

>  <oscillator_strength_2>
0.0024

>  <oscillator_strength_3>
0.011

>  <oscillator_strength_4>
0.0035

>  <open_babel_can_smiles>
CN(C=C(C#N)C#N)C

>  <mulliken_charges>
16
1   -0.321687
2   -0.339071
3   0.287357
4   0.25979
5   0.096911
6   0.06812
7   -0.506403
8   -0.480202
9   -0.365452
10   0.178509
11   0.179771
12   0.182053
13   0.17132
14   0.216514
15   0.185502
16   0.186965

>  <lowdin_charges>
16
1   -0.3441
2   -0.355384
3   -0.014081
4   -0.012108
5   -0.035289
6   -0.1297
7   -0.133332
8   -0.132922
9   -0.048112
10   0.163419
11   0.162175
12   0.170914
13   0.165448
14   0.191045
15   0.166141
16   0.185887

$$$$

