PCCDB-ID:  15908
public computational chemistry database (PCCDB) project, http://pccdb.org

 28 27  0  0  0  0  0  0  0  0999 V2000
    1.4258    0.0196   -0.2202 C   0  0  0  0  0  0  0  0  0  0  0  0
    8.2361   -1.6110    0.0032 C   0  0  0  0  0  0  0  0  0  0  0  0
    9.2593   -2.6473    1.9064 C   0  0  0  0  0  0  0  0  0  0  0  0
    2.1070    1.2130    0.4494 C   0  0  0  0  0  0  0  0  0  0  0  0
    7.2834    0.5792    1.9623 C   0  0  0  0  0  0  0  0  0  0  0  0
    6.0105   -0.0002    2.5878 C   0  0  0  0  0  0  0  0  0  0  0  0
    8.4848   -0.3663    2.0767 C   0  0  0  0  0  0  0  0  0  0  0  0
    3.8257    0.8791    2.0951 C   0  0  0  0  0  0  0  0  0  0  0  0
    2.6479    0.8365    1.7553 N   0  0  0  0  0  0  0  0  0  0  0  0
    4.9407    0.9984    2.5899 N   0  0  0  0  0  0  0  0  0  0  0  0
    8.2682   -1.6776    1.4587 N   0  0  0  0  0  0  0  0  0  0  0  0
    0.9663    0.3254   -1.1670 H   0  0  0  0  0  0  0  0  0  0  0  0
    0.6460   -0.3909    0.4292 H   0  0  0  0  0  0  0  0  0  0  0  0
    2.1488   -0.7765   -0.4282 H   0  0  0  0  0  0  0  0  0  0  0  0
    8.0243   -2.6056   -0.4037 H   0  0  0  0  0  0  0  0  0  0  0  0
    9.1916   -1.2579   -0.4346 H   0  0  0  0  0  0  0  0  0  0  0  0
    7.4421   -0.9382   -0.3337 H   0  0  0  0  0  0  0  0  0  0  0  0
    9.0286   -3.6314    1.4834 H   0  0  0  0  0  0  0  0  0  0  0  0
    9.2300   -2.7319    2.9980 H   0  0  0  0  0  0  0  0  0  0  0  0
   10.2946   -2.3845    1.6102 H   0  0  0  0  0  0  0  0  0  0  0  0
    1.3698    2.0074    0.6176 H   0  0  0  0  0  0  0  0  0  0  0  0
    2.8859    1.6253   -0.2068 H   0  0  0  0  0  0  0  0  0  0  0  0
    7.5317    1.5198    2.4689 H   0  0  0  0  0  0  0  0  0  0  0  0
    7.0852    0.8412    0.9156 H   0  0  0  0  0  0  0  0  0  0  0  0
    6.2137   -0.2692    3.6326 H   0  0  0  0  0  0  0  0  0  0  0  0
    5.7182   -0.9193    2.0681 H   0  0  0  0  0  0  0  0  0  0  0  0
    8.6894   -0.5392    3.1411 H   0  0  0  0  0  0  0  0  0  0  0  0
    9.3841    0.1341    1.6624 H   0  0  0  0  0  0  0  0  0  0  0  0
  1 13  1  0  0  0  0
  1  4  1  0  0  0  0
  2 11  1  0  0  0  0
  3 19  1  0  0  0  0
  4 21  1  0  0  0  0
  4  9  1  0  0  0  0
  5  7  1  0  0  0  0
  5 23  1  0  0  0  0
  5  6  1  0  0  0  0
  6 10  1  0  0  0  0
  6 25  1  0  0  0  0
  7 27  1  0  0  0  0
  8 10  1  0  0  0  0
  9  8  1  0  0  0  0
 11  3  1  0  0  0  0
 11  7  1  0  0  0  0
 12  1  1  0  0  0  0
 14  1  1  0  0  0  0
 15  2  1  0  0  0  0
 16  2  1  0  0  0  0
 17  2  1  0  0  0  0
 18  3  1  0  0  0  0
 20  3  1  0  0  0  0
 22  4  1  0  0  0  0
 24  5  1  0  0  0  0
 26  6  1  0  0  0  0
 28  7  1  0  0  0  0
M  RAD  3   8   3   9   2  10   2
M  END
>  <HBA>
3

>  <HBD>
0

>  <TPSA>
27.96

>  <cid>
15908

>  <dipole>
2.42

>  <excitation_energy_1>
5.216

>  <excitation_energy_2>
5.493

>  <excitation_energy_3>
5.749

>  <excitation_energy_4>
5.764

>  <homo_energy>
-5.812

>  <homo_lumo_gap>
6.887

>  <logP>
1.132

>  <lumo_energy>
1.075

>  <melting_point>
11.66

>  <molecular_refractivity>
48.52

>  <oscillator_strength_1>
0.0128

>  <oscillator_strength_2>
0.0082

>  <oscillator_strength_3>
0.0439

>  <oscillator_strength_4>
0.0017

>  <open_babel_can_smiles>
CC[N][C][N]CCCN(C)C

>  <mulliken_charges>
28
1   -0.434865
2   -0.301055
3   -0.293843
4   -0.145023
5   -0.269585
6   -0.143599
7   -0.122323
8   0.594787
9   -0.479788
10   -0.482047
11   -0.365873
12   0.143477
13   0.162481
14   0.15033
15   0.149866
16   0.118312
17   0.151131
18   0.14854
19   0.149523
20   0.117945
21   0.158344
22   0.140625
23   0.150633
24   0.140322
25   0.151318
26   0.161064
27   0.135893
28   0.113408

>  <lowdin_charges>
28
1   -0.447558
2   -0.359668
3   -0.351809
4   -0.174078
5   -0.283972
6   -0.175422
7   -0.199287
8   0.097741
9   -0.188501
10   -0.186495
11   -0.186289
12   0.152196
13   0.159739
14   0.152635
15   0.150702
16   0.120943
17   0.150925
18   0.149237
19   0.147739
20   0.119203
21   0.152816
22   0.139746
23   0.155207
24   0.142589
25   0.149198
26   0.149384
27   0.142164
28   0.120917

$$$$

