PCCDB-ID:  29083
public computational chemistry database (PCCDB) project, http://pccdb.org

 25 26  0  0  0  0  0  0  0  0999 V2000
    2.8072   -1.2011   -0.1242 C   0  0  0  0  0  0  0  0  0  0  0  0
    3.1698    0.1179   -0.4120 C   0  0  0  0  0  0  0  0  0  0  0  0
    1.4989   -1.4948    0.2590 C   0  0  0  0  0  0  0  0  0  0  0  0
    2.2293    1.1419   -0.3183 C   0  0  0  0  0  0  0  0  0  0  0  0
   -0.8736   -0.7194    0.8040 C   0  0  0  0  0  0  0  0  0  0  0  0
   -3.1882    0.1455    0.3509 C   0  0  0  0  0  0  0  0  0  0  0  0
    0.5461   -0.4788    0.3686 C   0  0  0  0  0  0  0  0  0  0  0  0
    0.9314    0.8260    0.0746 C   0  0  0  0  0  0  0  0  0  0  0  0
   -3.8184    0.3586    1.7307 C   0  0  0  0  0  0  0  0  0  0  0  0
   -1.3083    1.6618    0.2485 C   0  0  0  0  0  0  0  0  0  0  0  0
   -4.3818   -0.5293    2.4472 N   0  0  0  0  0  0  0  0  0  0  0  0
   -1.7367    0.3679    0.3273 N   0  0  0  0  0  0  0  0  0  0  0  0
   -3.7425    1.6231    2.1937 O   0  0  0  0  0  0  0  0  0  0  0  0
   -2.0577    2.6278    0.2069 O   0  0  0  0  0  0  0  0  0  0  0  0
    0.0344    1.8792    0.1863 O   0  0  0  0  0  0  0  0  0  0  0  0
    3.5401   -1.9983   -0.2021 H   0  0  0  0  0  0  0  0  0  0  0  0
    4.1863    0.3508   -0.7151 H   0  0  0  0  0  0  0  0  0  0  0  0
    1.2121   -2.5202    0.4798 H   0  0  0  0  0  0  0  0  0  0  0  0
    2.4795    2.1740   -0.5403 H   0  0  0  0  0  0  0  0  0  0  0  0
   -0.9496   -0.8125    1.8991 H   0  0  0  0  0  0  0  0  0  0  0  0
   -1.2495   -1.6563    0.3773 H   0  0  0  0  0  0  0  0  0  0  0  0
   -3.6401    0.8328   -0.3702 H   0  0  0  0  0  0  0  0  0  0  0  0
   -3.3713   -0.8780    0.0127 H   0  0  0  0  0  0  0  0  0  0  0  0
   -4.3582   -1.4316    1.9702 H   0  0  0  0  0  0  0  0  0  0  0  0
   -3.3030    2.1944    1.5269 H   0  0  0  0  0  0  0  0  0  0  0  0
  1  3  2  0  0  0  0
  2  4  2  0  0  0  0
  2  1  1  0  0  0  0
  3  7  1  0  0  0  0
  3 18  1  0  0  0  0
  4  8  1  0  0  0  0
  5 20  1  0  0  0  0
  6  9  1  0  0  0  0
  7  5  1  0  0  0  0
  8 15  1  0  0  0  0
  8  7  2  0  0  0  0
  9 13  1  0  0  0  0
  9 11  2  0  0  0  0
 10 12  1  0  0  0  0
 12  6  1  0  0  0  0
 12  5  1  0  0  0  0
 14 10  2  0  0  0  0
 15 10  1  0  0  0  0
 16  1  1  0  0  0  0
 17  2  1  0  0  0  0
 19  4  1  0  0  0  0
 21  5  1  0  0  0  0
 22  6  1  0  0  0  0
 23  6  1  0  0  0  0
 24 11  1  0  0  0  0
 25 13  1  0  0  0  0
M  END
>  <HBA>
5

>  <HBD>
1

>  <TPSA>
72.63

>  <cid>
29083

>  <dipole>
6.85

>  <excitation_energy_1>
5.099

>  <excitation_energy_2>
5.404

>  <excitation_energy_3>
5.564

>  <excitation_energy_4>
5.723

>  <homo_energy>
-6.838

>  <homo_lumo_gap>
6.038

>  <logP>
1.125

>  <lumo_energy>
-0.8

>  <melting_point>
144.51

>  <molecular_refractivity>
55.71

>  <oscillator_strength_1>
0.0137

>  <oscillator_strength_2>
0.0379

>  <oscillator_strength_3>
0.0081

>  <oscillator_strength_4>
0.0309

>  <open_babel_can_smiles>
OC(=N)CN1Cc2ccccc2OC1=O

>  <mulliken_charges>
25
1   -0.125793
2   -0.134975
3   -0.194311
4   -0.172734
5   -0.181562
6   -0.256241
7   0.115777
8   0.308385
9   0.490068
10   0.778331
11   -0.580152
12   -0.441408
13   -0.59285
14   -0.528699
15   -0.513549
16   0.141692
17   0.145745
18   0.138515
19   0.160786
20   0.19344
21   0.16859
22   0.204176
23   0.159096
24   0.275571
25   0.442101

>  <lowdin_charges>
25
1   -0.15922
2   -0.140856
3   -0.150501
4   -0.163295
5   -0.181063
6   -0.226626
7   -0.041507
8   0.093645
9   0.112966
10   0.224478
11   -0.3983
12   -0.112662
13   -0.369068
14   -0.305352
15   -0.13424
16   0.165812
17   0.165732
18   0.161841
19   0.176583
20   0.160924
21   0.162461
22   0.18402
23   0.1595
24   0.251469
25   0.363258

$$$$

