PCCDB-ID:  70035
public computational chemistry database (PCCDB) project, http://pccdb.org

 29 30  0  0  0  0  0  0  0  0999 V2000
    7.5746   -1.7112    3.7157 C   0  0  0  0  0  0  0  0  0  0  0  0
    1.2063   -7.2278   -0.7900 C   0  0  0  0  0  0  0  0  0  0  0  0
    2.0851   -7.1060   -1.8664 C   0  0  0  0  0  0  0  0  0  0  0  0
    1.2983   -6.3365    0.2821 C   0  0  0  0  0  0  0  0  0  0  0  0
    7.0004   -1.0457    0.0063 C   0  0  0  0  0  0  0  0  0  0  0  0
    7.4964   -0.9411    1.3015 C   0  0  0  0  0  0  0  0  0  0  0  0
    3.0526   -6.0992   -1.8677 C   0  0  0  0  0  0  0  0  0  0  0  0
    2.2582   -5.3256    0.2746 C   0  0  0  0  0  0  0  0  0  0  0  0
    6.0716   -2.0345   -0.3351 C   0  0  0  0  0  0  0  0  0  0  0  0
    6.1424   -2.8209    1.9584 C   0  0  0  0  0  0  0  0  0  0  0  0
    4.1554   -4.0771   -0.8403 C   0  0  0  0  0  0  0  0  0  0  0  0
    7.0662   -1.8338    2.2974 C   0  0  0  0  0  0  0  0  0  0  0  0
    3.1447   -5.1983   -0.8022 C   0  0  0  0  0  0  0  0  0  0  0  0
    5.6415   -2.9263    0.6527 C   0  0  0  0  0  0  0  0  0  0  0  0
    4.7476   -3.9423    0.4495 O   0  0  0  0  0  0  0  0  0  0  0  0
    8.6248   -1.4001    3.7383 H   0  0  0  0  0  0  0  0  0  0  0  0
    7.4897   -2.6595    4.2562 H   0  0  0  0  0  0  0  0  0  0  0  0
    7.0030   -0.9611    4.2785 H   0  0  0  0  0  0  0  0  0  0  0  0
    0.4573   -8.0152   -0.7827 H   0  0  0  0  0  0  0  0  0  0  0  0
    2.0267   -7.7997   -2.7009 H   0  0  0  0  0  0  0  0  0  0  0  0
    0.6204   -6.4296    1.1266 H   0  0  0  0  0  0  0  0  0  0  0  0
    7.3407   -0.3542   -0.7604 H   0  0  0  0  0  0  0  0  0  0  0  0
    8.2221   -0.1694    1.5460 H   0  0  0  0  0  0  0  0  0  0  0  0
    3.7442   -6.0164   -2.7034 H   0  0  0  0  0  0  0  0  0  0  0  0
    2.3365   -4.6376    1.1110 H   0  0  0  0  0  0  0  0  0  0  0  0
    5.7054   -2.1006   -1.3528 H   0  0  0  0  0  0  0  0  0  0  0  0
    5.7906   -3.5332    2.6996 H   0  0  0  0  0  0  0  0  0  0  0  0
    3.6691   -3.1287   -1.1172 H   0  0  0  0  0  0  0  0  0  0  0  0
    4.9274   -4.2838   -1.5948 H   0  0  0  0  0  0  0  0  0  0  0  0
  1 16  1  0  0  0  0
  1 17  1  0  0  0  0
  1 18  1  0  0  0  0
  2 19  1  0  0  0  0
  2  4  2  0  0  0  0
  3  2  1  0  0  0  0
  4 21  1  0  0  0  0
  5  6  1  0  0  0  0
  6 23  1  0  0  0  0
  6 12  2  0  0  0  0
  7  3  2  0  0  0  0
  7 13  1  0  0  0  0
  8  4  1  0  0  0  0
  8 25  1  0  0  0  0
  9  5  2  0  0  0  0
  9 14  1  0  0  0  0
 10 12  1  0  0  0  0
 10 27  1  0  0  0  0
 11 13  1  0  0  0  0
 11 15  1  0  0  0  0
 12  1  1  0  0  0  0
 13  8  2  0  0  0  0
 14 10  2  0  0  0  0
 15 14  1  0  0  0  0
 20  3  1  0  0  0  0
 22  5  1  0  0  0  0
 24  7  1  0  0  0  0
 26  9  1  0  0  0  0
 28 11  1  0  0  0  0
 29 11  1  0  0  0  0
M  END
>  <HBA>
1

>  <HBD>
0

>  <TPSA>
9.23

>  <cid>
70035

>  <dipole>
0.79

>  <excitation_energy_1>
4.922

>  <excitation_energy_2>
5.045

>  <excitation_energy_3>
5.132

>  <excitation_energy_4>
5.313

>  <homo_energy>
-5.821

>  <homo_lumo_gap>
5.685

>  <logP>
3.574

>  <lumo_energy>
-0.136

>  <melting_point>
43.65

>  <molecular_refractivity>
62.39

>  <oscillator_strength_1>
0.019

>  <oscillator_strength_2>
0.0102

>  <oscillator_strength_3>
0.0013

>  <oscillator_strength_4>
0.0001

>  <open_babel_can_smiles>
Cc1cccc(c1)OCc1ccccc1

>  <mulliken_charges>
29
1   -0.529141
2   -0.126559
3   -0.128855
4   -0.132529
5   -0.137012
6   -0.180554
7   -0.180909
8   -0.158225
9   -0.198366
10   -0.237469
11   -0.109185
12   0.176843
13   0.135695
14   0.387727
15   -0.523453
16   0.156684
17   0.15716
18   0.165029
19   0.129994
20   0.130479
21   0.131375
22   0.127331
23   0.116899
24   0.124796
25   0.142628
26   0.131473
27   0.128985
28   0.1537
29   0.145459

>  <lowdin_charges>
29
1   -0.441268
2   -0.156328
3   -0.155528
4   -0.153712
5   -0.146219
6   -0.189206
7   -0.165085
8   -0.15352
9   -0.221662
10   -0.197032
11   -0.123734
12   0.010898
13   -0.01379
14   0.105011
15   -0.20036
16   0.156833
17   0.157963
18   0.162955
19   0.158338
20   0.158642
21   0.158777
22   0.157762
23   0.153738
24   0.155539
25   0.165332
26   0.16009
27   0.163669
28   0.147162
29   0.144734

$$$$

