PCCDB-ID:  2141
public computational chemistry database (PCCDB) project, http://pccdb.org

 27 26  0  0  0  0  0  0  0  0999 V2000
    3.8863    2.2563   -0.6088 C   0  0  0  0  0  0  0  0  0  0  0  0
    3.7743    3.6987   -1.1070 C   0  0  0  0  0  0  0  0  0  0  0  0
    5.1330    1.5382   -1.1274 C   0  0  0  0  0  0  0  0  0  0  0  0
    6.3541   -0.5730   -1.1040 C   0  0  0  0  0  0  0  0  0  0  0  0
    6.4142   -1.9733   -0.5009 C   0  0  0  0  0  0  0  0  0  0  0  0
    2.5752    4.3399   -0.5543 N   0  0  0  0  0  0  0  0  0  0  0  0
    5.2088    0.1746   -0.6047 N   0  0  0  0  0  0  0  0  0  0  0  0
    4.6157   -5.0235   -3.0399 O   0  0  0  0  0  0  0  0  0  0  0  0
    4.8608   -2.6694   -3.8396 O   0  0  0  0  0  0  0  0  0  0  0  0
    7.0112   -3.9338   -3.0081 O   0  0  0  0  0  0  0  0  0  0  0  0
    5.5550   -3.7169   -2.8167 P   0  0  0  0  0  0  0  0  0  0  0  0
    4.9625   -3.0533   -0.9250 S   0  0  0  0  0  0  0  0  0  0  0  0
    2.9914    1.6975   -0.9260 H   0  0  0  0  0  0  0  0  0  0  0  0
    3.8871    2.2509    0.4864 H   0  0  0  0  0  0  0  0  0  0  0  0
    3.8182    3.7064   -2.2127 H   0  0  0  0  0  0  0  0  0  0  0  0
    4.6445    4.2704   -0.7586 H   0  0  0  0  0  0  0  0  0  0  0  0
    6.0312    2.0766   -0.7929 H   0  0  0  0  0  0  0  0  0  0  0  0
    5.1486    1.5703   -2.2356 H   0  0  0  0  0  0  0  0  0  0  0  0
    6.3930   -0.6388   -2.2080 H   0  0  0  0  0  0  0  0  0  0  0  0
    7.2677   -0.0467   -0.7920 H   0  0  0  0  0  0  0  0  0  0  0  0
    6.3835   -1.9122    0.5905 H   0  0  0  0  0  0  0  0  0  0  0  0
    7.3172   -2.5053   -0.8082 H   0  0  0  0  0  0  0  0  0  0  0  0
    1.7441    3.8906   -0.9383 H   0  0  0  0  0  0  0  0  0  0  0  0
    2.5326    5.3112   -0.8593 H   0  0  0  0  0  0  0  0  0  0  0  0
    4.3597   -0.3260   -0.8688 H   0  0  0  0  0  0  0  0  0  0  0  0
    5.0406   -5.8160   -2.6689 H   0  0  0  0  0  0  0  0  0  0  0  0
    5.2230   -2.7902   -4.7361 H   0  0  0  0  0  0  0  0  0  0  0  0
  1 14  1  0  0  0  0
  2 16  1  0  0  0  0
  2  1  1  0  0  0  0
  2  6  1  0  0  0  0
  3 17  1  0  0  0  0
  3  1  1  0  0  0  0
  3  7  1  0  0  0  0
  4 20  1  0  0  0  0
  4  7  1  0  0  0  0
  4  5  1  0  0  0  0
  5 21  1  0  0  0  0
  8 11  1  0  0  0  0
  8 26  1  0  0  0  0
  9 11  1  0  0  0  0
 10 11  2  0  0  0  0
 11 12  1  0  0  0  0
 12  5  1  0  0  0  0
 13  1  1  0  0  0  0
 15  2  1  0  0  0  0
 18  3  1  0  0  0  0
 19  4  1  0  0  0  0
 22  5  1  0  0  0  0
 23  6  1  0  0  0  0
 24  6  1  0  0  0  0
 25  7  1  0  0  0  0
 27  9  1  0  0  0  0
M  END
>  <HBA>
6

>  <HBD>
4

>  <TPSA>
130.69

>  <cid>
2141

>  <dipole>
2.14

>  <excitation_energy_1>
4.996

>  <excitation_energy_2>
5.342

>  <excitation_energy_3>
5.554

>  <excitation_energy_4>
5.589

>  <homo_energy>
-6.003

>  <homo_lumo_gap>
6.112

>  <logP>
0.842

>  <lumo_energy>
0.109

>  <melting_point>
150.83

>  <molecular_refractivity>
50.24

>  <oscillator_strength_1>
0.0056

>  <oscillator_strength_2>
0.0024

>  <oscillator_strength_3>
0.0103

>  <oscillator_strength_4>
0.0126

>  <open_babel_can_smiles>
NCCCNCCSP(=O)(O)O

>  <mulliken_charges>
27
1   -0.259836
2   -0.136328
3   -0.112002
4   -0.112122
5   -0.454184
6   -0.714184
7   -0.562856
8   -0.633512
9   -0.633499
10   -0.541083
11   0.968259
12   -0.079292
13   0.121762
14   0.16408
15   0.110439
16   0.139111
17   0.136013
18   0.109688
19   0.14057
20   0.151119
21   0.198131
22   0.215675
23   0.291324
24   0.294881
25   0.312964
26   0.442471
27   0.442413

>  <lowdin_charges>
27
1   -0.280155
2   -0.201889
3   -0.196803
4   -0.202366
5   -0.366621
6   -0.556954
7   -0.36661
8   -0.564734
9   -0.558706
10   -0.587528
11   0.937039
12   -0.027392
13   0.135456
14   0.1558
15   0.112361
16   0.141776
17   0.13944
18   0.112494
19   0.127034
20   0.15101
21   0.176951
22   0.185016
23   0.25154
24   0.253017
25   0.259012
26   0.387435
27   0.384376

$$$$

