PCCDB-ID:  8025
public computational chemistry database (PCCDB) project, http://pccdb.org

 11 10  0  0  0  0  0  0  0  0999 V2000
    0.7872   -0.1571    0.0572 C   0  0  0  0  0  0  0  0  0  0  0  0
    2.2963    0.0305    0.0332 C   0  0  0  0  0  0  0  0  0  0  0  0
    2.6558    2.3611   -0.2666 C   0  0  0  0  0  0  0  0  0  0  0  0
    2.3594    2.6271    0.8731 O   0  0  0  0  0  0  0  0  0  0  0  0
    2.6757    1.1401   -0.8238 O   0  0  0  0  0  0  0  0  0  0  0  0
    0.5337   -1.0443    0.6488 H   0  0  0  0  0  0  0  0  0  0  0  0
    0.3958   -0.2957   -0.9557 H   0  0  0  0  0  0  0  0  0  0  0  0
    0.2980    0.7090    0.5115 H   0  0  0  0  0  0  0  0  0  0  0  0
    2.8027   -0.8318   -0.4065 H   0  0  0  0  0  0  0  0  0  0  0  0
    2.6917    0.2115    1.0358 H   0  0  0  0  0  0  0  0  0  0  0  0
    2.9631    3.1001   -1.0228 H   0  0  0  0  0  0  0  0  0  0  0  0
  1  8  1  0  0  0  0
  1  6  1  0  0  0  0
  2  1  1  0  0  0  0
  2 10  1  0  0  0  0
  3  4  2  0  0  0  0
  5  3  1  0  0  0  0
  5  2  1  0  0  0  0
  7  1  1  0  0  0  0
  9  2  1  0  0  0  0
 11  3  1  0  0  0  0
M  END
>  <HBA>
2

>  <HBD>
0

>  <TPSA>
26.3

>  <cid>
8025

>  <dipole>
1.89

>  <excitation_energy_1>
5.806

>  <excitation_energy_2>
7.462

>  <excitation_energy_3>
7.781

>  <excitation_energy_4>
7.888

>  <homo_energy>
-7.649

>  <homo_lumo_gap>
7.856

>  <logP>
0.815

>  <lumo_energy>
0.207

>  <melting_point>
-39.8

>  <molecular_refractivity>
18.21

>  <oscillator_strength_1>
0.0014

>  <oscillator_strength_2>
0.01

>  <oscillator_strength_3>
0.1146

>  <oscillator_strength_4>
0.0447

>  <open_babel_can_smiles>
CCOC=O

>  <mulliken_charges>
11
1   -0.461522
2   -0.053026
3   0.389223
4   -0.421989
5   -0.411665
6   0.153393
7   0.160208
8   0.177938
9   0.157671
10   0.173045
11   0.136725

>  <lowdin_charges>
11
1   -0.454671
2   -0.129794
3   0.085764
4   -0.255212
5   -0.187385
6   0.16095
7   0.15709
8   0.167081
9   0.155879
10   0.15886
11   0.141439

$$$$

