PCCDB-ID:  65685
public computational chemistry database (PCCDB) project, http://pccdb.org

 39 39  0  0  0  0  0  0  0  0999 V2000
    5.5665    0.3269   -2.9409 C   0  0  0  0  0  0  0  0  0  0  0  0
    6.8025   -6.1309    3.2649 C   0  0  0  0  0  0  0  0  0  0  0  0
    5.7467   -2.2470    2.7612 C   0  0  0  0  0  0  0  0  0  0  0  0
    4.1854   -3.1171    0.9925 C   0  0  0  0  0  0  0  0  0  0  0  0
    5.9169    0.1812   -1.4571 C   0  0  0  0  0  0  0  0  0  0  0  0
    4.1146   -7.8631    1.1635 C   0  0  0  0  0  0  0  0  0  0  0  0
    4.1940   -7.1446   -0.0300 C   0  0  0  0  0  0  0  0  0  0  0  0
    4.9535   -7.5167    2.2236 C   0  0  0  0  0  0  0  0  0  0  0  0
    5.0886   -6.0833   -0.1470 C   0  0  0  0  0  0  0  0  0  0  0  0
    5.4645   -1.1584   -0.8707 C   0  0  0  0  0  0  0  0  0  0  0  0
    5.8621   -6.4570    2.1313 C   0  0  0  0  0  0  0  0  0  0  0  0
    5.9060   -5.7058    0.9327 C   0  0  0  0  0  0  0  0  0  0  0  0
    6.7769   -3.4555    0.8380 C   0  0  0  0  0  0  0  0  0  0  0  0
    5.5814   -2.5334    1.2524 C   0  0  0  0  0  0  0  0  0  0  0  0
    5.8188   -1.2415    0.5542 N   0  0  0  0  0  0  0  0  0  0  0  0
    6.8802   -4.7170    0.7721 N   0  0  0  0  0  0  0  0  0  0  0  0
    7.8937   -2.7294    0.6099 O   0  0  0  0  0  0  0  0  0  0  0  0
    5.9008    1.2945   -3.3297 H   0  0  0  0  0  0  0  0  0  0  0  0
    4.4847    0.2567   -3.1084 H   0  0  0  0  0  0  0  0  0  0  0  0
    6.0467   -0.4563   -3.5396 H   0  0  0  0  0  0  0  0  0  0  0  0
    6.7859   -6.9140    4.0300 H   0  0  0  0  0  0  0  0  0  0  0  0
    6.5507   -5.1842    3.7611 H   0  0  0  0  0  0  0  0  0  0  0  0
    7.8291   -6.0232    2.8961 H   0  0  0  0  0  0  0  0  0  0  0  0
    5.6317   -3.1654    3.3420 H   0  0  0  0  0  0  0  0  0  0  0  0
    4.9789   -1.5385    3.0976 H   0  0  0  0  0  0  0  0  0  0  0  0
    6.7319   -1.8216    2.9737 H   0  0  0  0  0  0  0  0  0  0  0  0
    3.9984   -4.0017    1.6047 H   0  0  0  0  0  0  0  0  0  0  0  0
    4.0408   -3.4062   -0.0508 H   0  0  0  0  0  0  0  0  0  0  0  0
    3.4341   -2.3596    1.2490 H   0  0  0  0  0  0  0  0  0  0  0  0
    5.4513    0.9990   -0.8875 H   0  0  0  0  0  0  0  0  0  0  0  0
    7.0002    0.2824   -1.3142 H   0  0  0  0  0  0  0  0  0  0  0  0
    3.4226   -8.6948    1.2625 H   0  0  0  0  0  0  0  0  0  0  0  0
    3.5656   -7.4122   -0.8759 H   0  0  0  0  0  0  0  0  0  0  0  0
    4.9168   -8.0887    3.1486 H   0  0  0  0  0  0  0  0  0  0  0  0
    5.1756   -5.5351   -1.0812 H   0  0  0  0  0  0  0  0  0  0  0  0
    5.9775   -1.9782   -1.3897 H   0  0  0  0  0  0  0  0  0  0  0  0
    4.3860   -1.2942   -1.0497 H   0  0  0  0  0  0  0  0  0  0  0  0
    5.3571   -0.4923    1.0670 H   0  0  0  0  0  0  0  0  0  0  0  0
    7.5724   -1.7921    0.5993 H   0  0  0  0  0  0  0  0  0  0  0  0
  1  5  1  0  0  0  0
  2 22  1  0  0  0  0
  2 21  1  0  0  0  0
  3 26  1  0  0  0  0
  3 25  1  0  0  0  0
  3 24  1  0  0  0  0
  4 29  1  0  0  0  0
  4 14  1  0  0  0  0
  4 27  1  0  0  0  0
  5 31  1  0  0  0  0
  5 30  1  0  0  0  0
  5 10  1  0  0  0  0
  6 32  1  0  0  0  0
  6  8  2  0  0  0  0
  7  6  1  0  0  0  0
  8 34  1  0  0  0  0
  9  7  2  0  0  0  0
  9 12  1  0  0  0  0
 10 15  1  0  0  0  0
 11  8  1  0  0  0  0
 11  2  1  0  0  0  0
 12 11  2  0  0  0  0
 13 14  1  0  0  0  0
 14  3  1  0  0  0  0
 15 38  1  0  0  0  0
 15 14  1  0  0  0  0
 16 13  2  0  0  0  0
 16 12  1  0  0  0  0
 17 13  1  0  0  0  0
 18  1  1  0  0  0  0
 19  1  1  0  0  0  0
 20  1  1  0  0  0  0
 23  2  1  0  0  0  0
 28  4  1  0  0  0  0
 33  7  1  0  0  0  0
 35  9  1  0  0  0  0
 36 10  1  0  0  0  0
 37 10  1  0  0  0  0
 39 17  1  0  0  0  0
M  END
>  <HBA>
3

>  <HBD>
2

>  <TPSA>
41.13

>  <cid>
65685

>  <dipole>
5.02

>  <excitation_energy_1>
4.555

>  <excitation_energy_2>
4.832

>  <excitation_energy_3>
4.862

>  <excitation_energy_4>
5.139

>  <homo_energy>
-5.309

>  <homo_lumo_gap>
5.657

>  <logP>
3.176

>  <lumo_energy>
0.348

>  <melting_point>
98.32

>  <molecular_refractivity>
72.6

>  <oscillator_strength_1>
0.0107

>  <oscillator_strength_2>
0.0293

>  <oscillator_strength_3>
0.0307

>  <oscillator_strength_4>
0.0346

>  <open_babel_can_smiles>
CCCNC(/C(=N\c1ccccc1C)/O)(C)C

>  <mulliken_charges>
39
1   -0.448039
2   -0.534771
3   -0.464735
4   -0.457788
5   -0.259512
6   -0.129712
7   -0.143198
8   -0.199801
9   -0.147349
10   -0.118035
11   0.1572
12   0.184893
13   0.50258
14   0.128821
15   -0.634309
16   -0.500502
17   -0.600708
18   0.151754
19   0.145788
20   0.151783
21   0.146464
22   0.150095
23   0.179263
24   0.177566
25   0.14435
26   0.164479
27   0.178702
28   0.160859
29   0.134395
30   0.130338
31   0.148986
32   0.118108
33   0.120641
34   0.116313
35   0.117702
36   0.159444
37   0.134699
38   0.305473
39   0.427763

>  <lowdin_charges>
39
1   -0.443485
2   -0.442127
3   -0.444476
4   -0.45274
5   -0.275168
6   -0.18023
7   -0.161121
8   -0.165321
9   -0.187161
10   -0.206838
11   -0.028589
12   0.044938
13   0.131372
14   0.038743
15   -0.363868
16   -0.174221
17   -0.368984
18   0.155293
19   0.146874
20   0.152927
21   0.15345
22   0.14978
23   0.168251
24   0.166174
25   0.150904
26   0.160853
27   0.172848
28   0.158569
29   0.148598
30   0.139786
31   0.146382
32   0.153613
33   0.154432
34   0.151654
35   0.153673
36   0.151972
37   0.129529
38   0.261755
39   0.351958

$$$$

