PCCDB-ID:  19070
public computational chemistry database (PCCDB) project, http://pccdb.org

 11 10  0  0  0  0  0  0  0  0999 V2000
    1.1517    0.1703   -0.2496 C   0  0  0  0  0  0  0  0  0  0  0  0
    0.3764    1.0734   -1.2169 C   0  0  0  0  0  0  0  0  0  0  0  0
    2.5813    0.1838   -0.5673 N   0  0  0  0  0  0  0  0  0  0  0  0
   -0.8065    0.9684   -1.4182 O   0  0  0  0  0  0  0  0  0  0  0  0
    1.1367    2.0297   -1.7907 O   0  0  0  0  0  0  0  0  0  0  0  0
    2.8075   -0.7990   -1.5966 O   0  0  0  0  0  0  0  0  0  0  0  0
    0.7161   -0.8339   -0.2706 H   0  0  0  0  0  0  0  0  0  0  0  0
    1.0318    0.5825    0.7613 H   0  0  0  0  0  0  0  0  0  0  0  0
    3.1112   -0.1737    0.2272 H   0  0  0  0  0  0  0  0  0  0  0  0
    2.0507    1.8872   -1.4579 H   0  0  0  0  0  0  0  0  0  0  0  0
    3.1725   -0.2778   -2.3299 H   0  0  0  0  0  0  0  0  0  0  0  0
  1  8  1  0  0  0  0
  2  1  1  0  0  0  0
  3  1  1  0  0  0  0
  3  9  1  0  0  0  0
  4  2  2  0  0  0  0
  5 10  1  0  0  0  0
  5  2  1  0  0  0  0
  6  3  1  0  0  0  0
  7  1  1  0  0  0  0
 11  6  1  0  0  0  0
M  END
>  <HBA>
4

>  <HBD>
3

>  <TPSA>
69.56

>  <cid>
19070

>  <dipole>
4.66

>  <excitation_energy_1>
5.602

>  <excitation_energy_2>
6.327

>  <excitation_energy_3>
6.747

>  <excitation_energy_4>
6.923

>  <homo_energy>
-7.195

>  <homo_lumo_gap>
7.445

>  <logP>
-0.559

>  <lumo_energy>
0.25

>  <melting_point>
134.34

>  <molecular_refractivity>
17.03

>  <oscillator_strength_1>
0.0007

>  <oscillator_strength_2>
0.0016

>  <oscillator_strength_3>
0.0134

>  <oscillator_strength_4>
0.0039

>  <open_babel_can_smiles>
ONCC(=O)O

>  <mulliken_charges>
11
1   -0.236371
2   0.602373
3   -0.389416
4   -0.445638
5   -0.573197
6   -0.515783
7   0.196616
8   0.183102
9   0.338954
10   0.422336
11   0.417023

>  <lowdin_charges>
11
1   -0.254495
2   0.178262
3   -0.241816
4   -0.237698
5   -0.357298
6   -0.416573
7   0.173736
8   0.174225
9   0.272361
10   0.35367
11   0.355626

$$$$

