PCCDB-ID:  16965
public computational chemistry database (PCCDB) project, http://pccdb.org

 28 30  0  0  0  0  0  0  0  0999 V2000
    3.1429    0.4257   -1.0110 C   0  0  0  0  0  0  0  0  0  0  0  0
    2.0754   -5.0272    0.0635 C   0  0  0  0  0  0  0  0  0  0  0  0
    5.9657   -0.1164    3.8483 C   0  0  0  0  0  0  0  0  0  0  0  0
    1.4164   -3.9721   -0.6325 C   0  0  0  0  0  0  0  0  0  0  0  0
    5.3053    0.9417    3.1581 C   0  0  0  0  0  0  0  0  0  0  0  0
    3.0291   -4.7458    1.0055 C   0  0  0  0  0  0  0  0  0  0  0  0
    5.6636   -1.4222    3.5656 C   0  0  0  0  0  0  0  0  0  0  0  0
    1.7344   -2.6638   -0.3771 C   0  0  0  0  0  0  0  0  0  0  0  0
    4.3696    0.6681    2.1950 C   0  0  0  0  0  0  0  0  0  0  0  0
    4.3576   -3.0834    2.2732 C   0  0  0  0  0  0  0  0  0  0  0  0
    3.3912   -3.3961    1.3100 C   0  0  0  0  0  0  0  0  0  0  0  0
    4.6901   -1.7570    2.5728 C   0  0  0  0  0  0  0  0  0  0  0  0
    2.7324   -2.3312    0.5903 C   0  0  0  0  0  0  0  0  0  0  0  0
    4.0380   -0.6818    1.8625 C   0  0  0  0  0  0  0  0  0  0  0  0
    3.0897   -1.0001    0.8731 C   0  0  0  0  0  0  0  0  0  0  0  0
    2.4668    0.0237    0.1840 O   0  0  0  0  0  0  0  0  0  0  0  0
    3.2105   -0.4037   -1.7263 H   0  0  0  0  0  0  0  0  0  0  0  0
    4.1537    0.7917   -0.7911 H   0  0  0  0  0  0  0  0  0  0  0  0
    2.5481    1.2336   -1.4437 H   0  0  0  0  0  0  0  0  0  0  0  0
    1.8112   -6.0585   -0.1546 H   0  0  0  0  0  0  0  0  0  0  0  0
    6.7071    0.1204    4.6066 H   0  0  0  0  0  0  0  0  0  0  0  0
    0.6507   -4.2122   -1.3653 H   0  0  0  0  0  0  0  0  0  0  0  0
    5.5437    1.9723    3.4072 H   0  0  0  0  0  0  0  0  0  0  0  0
    3.5276   -5.5478    1.5450 H   0  0  0  0  0  0  0  0  0  0  0  0
    6.1579   -2.2321    4.0970 H   0  0  0  0  0  0  0  0  0  0  0  0
    1.2210   -1.8556   -0.8867 H   0  0  0  0  0  0  0  0  0  0  0  0
    3.8467    1.4688    1.6832 H   0  0  0  0  0  0  0  0  0  0  0  0
    4.8575   -3.8898    2.8055 H   0  0  0  0  0  0  0  0  0  0  0  0
  1 18  1  0  0  0  0
  1 16  1  0  0  0  0
  2  6  2  0  0  0  0
  3 21  1  0  0  0  0
  4  8  2  0  0  0  0
  4  2  1  0  0  0  0
  5 23  1  0  0  0  0
  5  3  2  0  0  0  0
  6 11  1  0  0  0  0
  6 24  1  0  0  0  0
  7  3  1  0  0  0  0
  7 25  1  0  0  0  0
  8 13  1  0  0  0  0
  9  5  1  0  0  0  0
 10 12  1  0  0  0  0
 10 28  1  0  0  0  0
 11 10  2  0  0  0  0
 12  7  2  0  0  0  0
 13 15  2  0  0  0  0
 13 11  1  0  0  0  0
 14  9  2  0  0  0  0
 14 12  1  0  0  0  0
 15 14  1  0  0  0  0
 16 15  1  0  0  0  0
 17  1  1  0  0  0  0
 19  1  1  0  0  0  0
 20  2  1  0  0  0  0
 22  4  1  0  0  0  0
 26  8  1  0  0  0  0
 27  9  1  0  0  0  0
M  END
>  <HBA>
1

>  <HBD>
0

>  <TPSA>
9.23

>  <cid>
16965

>  <dipole>
1.28

>  <excitation_energy_1>
3.128

>  <excitation_energy_2>
3.818

>  <excitation_energy_3>
4.453

>  <excitation_energy_4>
4.739

>  <homo_energy>
-5.124

>  <homo_lumo_gap>
3.505

>  <logP>
4.002

>  <lumo_energy>
-1.619

>  <melting_point>
99.1

>  <molecular_refractivity>
67.95

>  <oscillator_strength_1>
0.0742

>  <oscillator_strength_2>
0.0012

>  <oscillator_strength_3>
0.0002

>  <oscillator_strength_4>
0.0102

>  <open_babel_can_smiles>
COc1c2ccccc2cc2c1cccc2

>  <mulliken_charges>
28
1   -0.211616
2   -0.137009
3   -0.136984
4   -0.141351
5   -0.141378
6   -0.189048
7   -0.189006
8   -0.182965
9   -0.183332
10   -0.290255
11   0.14113
12   0.141213
13   0.118605
14   0.118883
15   0.154263
16   -0.526671
17   0.149978
18   0.150077
19   0.162438
20   0.129907
21   0.129913
22   0.129549
23   0.129574
24   0.129935
25   0.129971
26   0.143827
27   0.143853
28   0.126499

>  <lowdin_charges>
28
1   -0.274298
2   -0.158092
3   -0.158438
4   -0.159334
5   -0.159022
6   -0.156565
7   -0.156507
8   -0.15627
9   -0.156427
10   -0.17107
11   0.002334
12   0.002189
13   -0.023055
14   -0.023393
15   0.087103
16   -0.232056
17   0.144768
18   0.143243
19   0.158753
20   0.15771
21   0.159215
22   0.158954
23   0.157478
24   0.15932
25   0.159263
26   0.167978
27   0.167976
28   0.158245

$$$$

