PCCDB-ID:  7561
public computational chemistry database (PCCDB) project, http://pccdb.org

 28 28  0  0  0  0  0  0  0  0999 V2000
    1.7169   -0.9203   -0.4439 C   0  0  0  0  0  0  0  0  0  0  0  0
    3.2467   -0.3303   -2.3465 C   0  0  0  0  0  0  0  0  0  0  0  0
    4.1731   -3.3912    3.9825 C   0  0  0  0  0  0  0  0  0  0  0  0
    4.7199   -3.6570    2.5710 C   0  0  0  0  0  0  0  0  0  0  0  0
    3.4626   -2.0308    4.0593 C   0  0  0  0  0  0  0  0  0  0  0  0
    5.6421   -2.5207    2.1025 C   0  0  0  0  0  0  0  0  0  0  0  0
    4.3774   -0.8896    3.5854 C   0  0  0  0  0  0  0  0  0  0  0  0
    2.9480   -0.6804   -0.9124 C   0  0  0  0  0  0  0  0  0  0  0  0
    4.9676   -1.1467    2.1973 C   0  0  0  0  0  0  0  0  0  0  0  0
    4.1487   -0.7432   -0.0206 C   0  0  0  0  0  0  0  0  0  0  0  0
    5.2770   -0.5156   -0.4177 O   0  0  0  0  0  0  0  0  0  0  0  0
    3.8543   -1.0725    1.2568 O   0  0  0  0  0  0  0  0  0  0  0  0
    0.8496   -0.8726   -1.0973 H   0  0  0  0  0  0  0  0  0  0  0  0
    1.5418   -1.1676    0.5968 H   0  0  0  0  0  0  0  0  0  0  0  0
    2.3267   -0.2791   -2.9358 H   0  0  0  0  0  0  0  0  0  0  0  0
    3.9149   -1.0717   -2.7994 H   0  0  0  0  0  0  0  0  0  0  0  0
    3.7652    0.6324   -2.4138 H   0  0  0  0  0  0  0  0  0  0  0  0
    5.0053   -3.4078    4.7026 H   0  0  0  0  0  0  0  0  0  0  0  0
    3.4865   -4.1934    4.2811 H   0  0  0  0  0  0  0  0  0  0  0  0
    3.8813   -3.7542    1.8686 H   0  0  0  0  0  0  0  0  0  0  0  0
    5.2637   -4.6094    2.5442 H   0  0  0  0  0  0  0  0  0  0  0  0
    3.1250   -1.8323    5.0841 H   0  0  0  0  0  0  0  0  0  0  0  0
    2.5627   -2.0541    3.4307 H   0  0  0  0  0  0  0  0  0  0  0  0
    5.9869   -2.6833    1.0761 H   0  0  0  0  0  0  0  0  0  0  0  0
    6.5412   -2.4903    2.7350 H   0  0  0  0  0  0  0  0  0  0  0  0
    5.2184   -0.7778    4.2843 H   0  0  0  0  0  0  0  0  0  0  0  0
    3.8392    0.0657    3.5802 H   0  0  0  0  0  0  0  0  0  0  0  0
    5.6779   -0.3627    1.9218 H   0  0  0  0  0  0  0  0  0  0  0  0
  1 14  1  0  0  0  0
  2  8  1  0  0  0  0
  3  5  1  0  0  0  0
  3 19  1  0  0  0  0
  3 18  1  0  0  0  0
  4  3  1  0  0  0  0
  5 22  1  0  0  0  0
  6  9  1  0  0  0  0
  6  4  1  0  0  0  0
  6 25  1  0  0  0  0
  7  5  1  0  0  0  0
  7 26  1  0  0  0  0
  8  1  2  0  0  0  0
  8 10  1  0  0  0  0
  9  7  1  0  0  0  0
 10 12  1  0  0  0  0
 11 10  2  0  0  0  0
 12  9  1  0  0  0  0
 13  1  1  0  0  0  0
 15  2  1  0  0  0  0
 16  2  1  0  0  0  0
 17  2  1  0  0  0  0
 20  4  1  0  0  0  0
 21  4  1  0  0  0  0
 23  5  1  0  0  0  0
 24  6  1  0  0  0  0
 27  7  1  0  0  0  0
 28  9  1  0  0  0  0
M  END
>  <HBA>
2

>  <HBD>
0

>  <TPSA>
26.3

>  <cid>
7561

>  <dipole>
1.85

>  <excitation_energy_1>
4.762

>  <excitation_energy_2>
5.707

>  <excitation_energy_3>
6.16

>  <excitation_energy_4>
6.259

>  <homo_energy>
-7.206

>  <homo_lumo_gap>
6.218

>  <logP>
2.438

>  <lumo_energy>
-0.988

>  <melting_point>
-11.38

>  <molecular_refractivity>
48.88

>  <oscillator_strength_1>
0.0002

>  <oscillator_strength_2>
0.1294

>  <oscillator_strength_3>
0.1301

>  <oscillator_strength_4>
0.0336

>  <open_babel_can_smiles>
O=C(C(=C)C)OC1CCCCC1

>  <mulliken_charges>
28
1   -0.3729
2   -0.499769
3   -0.259891
4   -0.2611
5   -0.262198
6   -0.282884
7   -0.27699
8   0.126752
9   0.123231
10   0.600712
11   -0.490216
12   -0.495384
13   0.147089
14   0.170631
15   0.146077
16   0.171402
17   0.173264
18   0.126344
19   0.13251
20   0.141417
21   0.133248
22   0.13253
23   0.143917
24   0.160695
25   0.133793
26   0.135932
27   0.144197
28   0.15759

>  <lowdin_charges>
28
1   -0.304135
2   -0.435925
3   -0.279938
4   -0.28075
5   -0.279088
6   -0.288023
7   -0.284159
8   -0.026732
9   0.003363
10   0.194007
11   -0.272734
12   -0.196412
13   0.163029
14   0.17227
15   0.15498
16   0.16903
17   0.168698
18   0.136921
19   0.145498
20   0.144721
21   0.145416
22   0.144069
23   0.144527
24   0.158253
25   0.146929
26   0.147511
27   0.151521
28   0.157156

$$$$

