PCCDB-ID:  12522
public computational chemistry database (PCCDB) project, http://pccdb.org

 15 14  0  0  0  0  0  0  0  0999 V2000
    1.3356   -0.2642    0.0157 C   0  0  0  0  0  0  0  0  0  0  0  0
    0.8760   -1.5242    0.7775 C   0  0  0  0  0  0  0  0  0  0  0  0
    2.8496   -0.0625   -0.0270 C   0  0  0  0  0  0  0  0  0  0  0  0
    0.8908   -1.3780    2.2935 C   0  0  0  0  0  0  0  0  0  0  0  0
    3.5860   -0.1263   -1.0637 N   0  0  0  0  0  0  0  0  0  0  0  0
    3.4379    0.2039    1.1586 O   0  0  0  0  0  0  0  0  0  0  0  0
    1.3732   -0.4392    2.8909 O   0  0  0  0  0  0  0  0  0  0  0  0
    0.3109   -2.3764    2.9917 O   0  0  0  0  0  0  0  0  0  0  0  0
    0.8618    0.6153    0.4695 H   0  0  0  0  0  0  0  0  0  0  0  0
    0.9688   -0.3336   -1.0121 H   0  0  0  0  0  0  0  0  0  0  0  0
    1.4978   -2.3886    0.5053 H   0  0  0  0  0  0  0  0  0  0  0  0
   -0.1505   -1.7756    0.4766 H   0  0  0  0  0  0  0  0  0  0  0  0
    3.0155   -0.3283   -1.8857 H   0  0  0  0  0  0  0  0  0  0  0  0
    2.7657    0.2072    1.8709 H   0  0  0  0  0  0  0  0  0  0  0  0
   -0.0389   -3.0558    2.3909 H   0  0  0  0  0  0  0  0  0  0  0  0
  1  9  1  0  0  0  0
  1  2  1  0  0  0  0
  2  4  1  0  0  0  0
  3  1  1  0  0  0  0
  3  6  1  0  0  0  0
  4  7  2  0  0  0  0
  4  8  1  0  0  0  0
  5  3  2  0  0  0  0
  6 14  1  0  0  0  0
 10  1  1  0  0  0  0
 11  2  1  0  0  0  0
 12  2  1  0  0  0  0
 13  5  1  0  0  0  0
 15  8  1  0  0  0  0
M  END
>  <HBA>
4

>  <HBD>
2

>  <TPSA>
80.39

>  <cid>
12522

>  <dipole>
6.84

>  <excitation_energy_1>
5.516

>  <excitation_energy_2>
5.583

>  <excitation_energy_3>
5.678

>  <excitation_energy_4>
5.755

>  <homo_energy>
-6.923

>  <homo_lumo_gap>
6.242

>  <logP>
0.037

>  <lumo_energy>
-0.68

>  <melting_point>
127.56

>  <molecular_refractivity>
26.02

>  <oscillator_strength_1>
0.0005

>  <oscillator_strength_2>
0.001

>  <oscillator_strength_3>
0.0014

>  <oscillator_strength_4>
0.0094

>  <open_babel_can_smiles>
OC(=N)CCC(=O)O

>  <mulliken_charges>
15
1   -0.36252
2   -0.409167
3   0.474066
4   0.625909
5   -0.582101
6   -0.595228
7   -0.455057
8   -0.546371
9   0.182637
10   0.156649
11   0.201099
12   0.175182
13   0.273788
14   0.440307
15   0.420807

>  <lowdin_charges>
15
1   -0.307509
2   -0.322572
3   0.122125
4   0.209676
5   -0.407076
6   -0.373404
7   -0.248345
8   -0.332114
9   0.171329
10   0.16201
11   0.180776
12   0.168244
13   0.250834
14   0.358287
15   0.367739

$$$$

