PCCDB-ID:  30319
public computational chemistry database (PCCDB) project, http://pccdb.org

 35 34  0  0  0  0  0  0  0  0999 V2000
    3.1251    0.4402   -3.4041 C   0  0  0  0  0  0  0  0  0  0  0  0
    6.9125   -6.2623   -5.8644 C   0  0  0  0  0  0  0  0  0  0  0  0
    8.3331   -1.2995    0.3044 C   0  0  0  0  0  0  0  0  0  0  0  0
    2.3819   -0.7762   -2.8359 C   0  0  0  0  0  0  0  0  0  0  0  0
    7.1677   -5.4208   -4.6097 C   0  0  0  0  0  0  0  0  0  0  0  0
    3.0662   -1.4352   -1.6265 C   0  0  0  0  0  0  0  0  0  0  0  0
    7.0414   -6.2337   -3.3153 C   0  0  0  0  0  0  0  0  0  0  0  0
    4.3915   -2.0985   -1.9749 C   0  0  0  0  0  0  0  0  0  0  0  0
    7.3235   -5.4388   -2.0492 C   0  0  0  0  0  0  0  0  0  0  0  0
    6.6603   -3.9357    0.6646 O   0  0  0  0  0  0  0  0  0  0  0  0
    4.9120   -2.7018   -0.7660 O   0  0  0  0  0  0  0  0  0  0  0  0
    6.3176   -4.3978   -1.9255 O   0  0  0  0  0  0  0  0  0  0  0  0
    6.3637   -3.3779   -0.6738 P   0  0  0  0  0  0  0  0  0  0  0  0
    7.8038   -1.9664   -1.3287 S   0  0  0  0  0  0  0  0  0  0  0  0
    2.5576    0.8982   -4.2218 H   0  0  0  0  0  0  0  0  0  0  0  0
    4.1110    0.1735   -3.8012 H   0  0  0  0  0  0  0  0  0  0  0  0
    3.2742    1.2053   -2.6323 H   0  0  0  0  0  0  0  0  0  0  0  0
    7.0153   -5.6610   -6.7745 H   0  0  0  0  0  0  0  0  0  0  0  0
    5.9017   -6.6881   -5.8580 H   0  0  0  0  0  0  0  0  0  0  0  0
    7.6220   -7.0961   -5.9331 H   0  0  0  0  0  0  0  0  0  0  0  0
    9.2714   -0.7688    0.1286 H   0  0  0  0  0  0  0  0  0  0  0  0
    8.4911   -2.1228    1.0015 H   0  0  0  0  0  0  0  0  0  0  0  0
    7.5890   -0.6080    0.7036 H   0  0  0  0  0  0  0  0  0  0  0  0
    2.2406   -1.5255   -3.6278 H   0  0  0  0  0  0  0  0  0  0  0  0
    1.3734   -0.4690   -2.5319 H   0  0  0  0  0  0  0  0  0  0  0  0
    6.4641   -4.5806   -4.5765 H   0  0  0  0  0  0  0  0  0  0  0  0
    8.1730   -4.9790   -4.6610 H   0  0  0  0  0  0  0  0  0  0  0  0
    2.4072   -2.1998   -1.1974 H   0  0  0  0  0  0  0  0  0  0  0  0
    3.2394   -0.6889   -0.8405 H   0  0  0  0  0  0  0  0  0  0  0  0
    7.7496   -7.0744   -3.3317 H   0  0  0  0  0  0  0  0  0  0  0  0
    6.0375   -6.6731   -3.2426 H   0  0  0  0  0  0  0  0  0  0  0  0
    5.1232   -1.3725   -2.3464 H   0  0  0  0  0  0  0  0  0  0  0  0
    4.2613   -2.8814   -2.7301 H   0  0  0  0  0  0  0  0  0  0  0  0
    8.3132   -4.9677   -2.0942 H   0  0  0  0  0  0  0  0  0  0  0  0
    7.2763   -6.0711   -1.1576 H   0  0  0  0  0  0  0  0  0  0  0  0
  1  4  1  0  0  0  0
  1 17  1  0  0  0  0
  2 19  1  0  0  0  0
  2  5  1  0  0  0  0
  3 23  1  0  0  0  0
  3 22  1  0  0  0  0
  4 25  1  0  0  0  0
  4  6  1  0  0  0  0
  5 26  1  0  0  0  0
  5  7  1  0  0  0  0
  6 28  1  0  0  0  0
  6 29  1  0  0  0  0
  7 31  1  0  0  0  0
  7  9  1  0  0  0  0
  8  6  1  0  0  0  0
  8 11  1  0  0  0  0
  9 12  1  0  0  0  0
  9 35  1  0  0  0  0
 11 13  1  0  0  0  0
 12 13  1  0  0  0  0
 13 10  2  0  0  0  0
 14 13  1  0  0  0  0
 14  3  1  0  0  0  0
 15  1  1  0  0  0  0
 16  1  1  0  0  0  0
 18  2  1  0  0  0  0
 20  2  1  0  0  0  0
 21  3  1  0  0  0  0
 24  4  1  0  0  0  0
 27  5  1  0  0  0  0
 30  7  1  0  0  0  0
 32  8  1  0  0  0  0
 33  8  1  0  0  0  0
 34  9  1  0  0  0  0
M  END
>  <HBA>
4

>  <HBD>
0

>  <TPSA>
70.64

>  <cid>
30319

>  <dipole>
2.94

>  <excitation_energy_1>
5.422

>  <excitation_energy_2>
6.145

>  <excitation_energy_3>
6.502

>  <excitation_energy_4>
6.696

>  <homo_energy>
-6.77

>  <homo_lumo_gap>
7.148

>  <logP>
4.091

>  <lumo_energy>
0.378

>  <melting_point>
-22.05

>  <molecular_refractivity>
63.8

>  <oscillator_strength_1>
0.0028

>  <oscillator_strength_2>
0.0224

>  <oscillator_strength_3>
0.0021

>  <oscillator_strength_4>
0.011

>  <open_babel_can_smiles>
CCCCOP(=O)(OCCCC)SC

>  <mulliken_charges>
35
1   -0.44749
2   -0.443309
3   -0.595013
4   -0.263961
5   -0.250248
6   -0.27089
7   -0.272455
8   -0.047784
9   -0.046575
10   -0.545857
11   -0.505819
12   -0.553777
13   1.066696
14   -0.120211
15   0.148111
16   0.148452
17   0.147225
18   0.145935
19   0.144232
20   0.142542
21   0.187215
22   0.226655
23   0.193498
24   0.135408
25   0.143458
26   0.149307
27   0.134791
28   0.154034
29   0.149364
30   0.139467
31   0.150055
32   0.165647
33   0.158803
34   0.159624
35   0.17287

>  <lowdin_charges>
35
1   -0.449535
2   -0.443897
3   -0.535721
4   -0.273898
5   -0.274077
6   -0.282736
7   -0.280913
8   -0.126435
9   -0.118548
10   -0.573989
11   -0.383495
12   -0.403813
13   0.964668
14   -0.062303
15   0.15411
16   0.14743
17   0.150021
18   0.151812
19   0.147089
20   0.147195
21   0.17651
22   0.19101
23   0.172834
24   0.14202
25   0.148241
26   0.148148
27   0.140951
28   0.156113
29   0.151399
30   0.150833
31   0.150273
32   0.154315
33   0.151426
34   0.151097
35   0.161866

$$$$

