PCCDB-ID:  56702
public computational chemistry database (PCCDB) project, http://pccdb.org

 38 37  0  0  1  0  0  0  0  0999 V2000
    4.5650    0.7094    3.5109 C   0  0  0  0  0  0  0  0  0  0  0  0
    3.6078   -6.7664   -5.8075 C   0  0  0  0  0  0  0  0  0  0  0  0
    5.0059   -2.2249    2.4514 C   0  0  0  0  0  0  0  0  0  0  0  0
    6.6513   -7.0347   -4.9461 C   0  0  0  0  0  0  0  0  0  0  0  0
    4.0435    0.1401    2.1873 C   0  0  0  0  0  0  0  0  0  0  0  0
    4.1601   -6.8946   -4.3836 C   0  0  0  0  0  0  0  0  0  0  0  0
    4.9253   -0.9642    1.5825 C   0  0  2  0  0  0  0  0  0  0  0  0
    5.5542   -6.2791   -4.1946 C   0  0  1  0  0  0  0  0  0  0  0  0
    4.7242   -3.3994   -0.7470 C   0  0  0  0  0  0  0  0  0  0  0  0
    5.5952   -4.1350   -1.7741 C   0  0  0  0  0  0  0  0  0  0  0  0
    4.4060   -1.2108    0.2107 N   0  0  0  0  0  0  0  0  0  0  0  0
    5.9163   -6.3163   -2.7517 N   0  0  0  0  0  0  0  0  0  0  0  0
    5.1676   -2.1479   -0.5114 N   0  0  0  0  0  0  0  0  0  0  0  0
    5.1746   -5.4002   -1.9843 N   0  0  0  0  0  0  0  0  0  0  0  0
    3.7321   -3.9120   -0.2260 O   0  0  0  0  0  0  0  0  0  0  0  0
    6.5736   -3.6149   -2.3105 O   0  0  0  0  0  0  0  0  0  0  0  0
    3.9301    1.5344    3.8517 H   0  0  0  0  0  0  0  0  0  0  0  0
    5.5841    1.1000    3.3999 H   0  0  0  0  0  0  0  0  0  0  0  0
    4.5802   -0.0434    4.3063 H   0  0  0  0  0  0  0  0  0  0  0  0
    2.5877   -7.1616   -5.8636 H   0  0  0  0  0  0  0  0  0  0  0  0
    4.2123   -7.3182   -6.5358 H   0  0  0  0  0  0  0  0  0  0  0  0
    3.5746   -5.7176   -6.1274 H   0  0  0  0  0  0  0  0  0  0  0  0
    5.4627   -2.0056    3.4224 H   0  0  0  0  0  0  0  0  0  0  0  0
    5.6127   -2.9956    1.9669 H   0  0  0  0  0  0  0  0  0  0  0  0
    4.0073   -2.6429    2.6263 H   0  0  0  0  0  0  0  0  0  0  0  0
    6.4528   -7.0452   -6.0215 H   0  0  0  0  0  0  0  0  0  0  0  0
    6.7160   -8.0708   -4.5943 H   0  0  0  0  0  0  0  0  0  0  0  0
    7.6292   -6.5599   -4.7988 H   0  0  0  0  0  0  0  0  0  0  0  0
    3.9603    0.9443    1.4465 H   0  0  0  0  0  0  0  0  0  0  0  0
    3.0273   -0.2558    2.3338 H   0  0  0  0  0  0  0  0  0  0  0  0
    4.2000   -7.9499   -4.0820 H   0  0  0  0  0  0  0  0  0  0  0  0
    3.4669   -6.3974   -3.6929 H   0  0  0  0  0  0  0  0  0  0  0  0
    5.9381   -0.5596    1.4467 H   0  0  0  0  0  0  0  0  0  0  0  0
    5.5322   -5.2357   -4.5483 H   0  0  0  0  0  0  0  0  0  0  0  0
    3.4732   -1.6245    0.2802 H   0  0  0  0  0  0  0  0  0  0  0  0
    6.8883   -6.0141   -2.6655 H   0  0  0  0  0  0  0  0  0  0  0  0
    5.8850   -1.7820   -1.1274 H   0  0  0  0  0  0  0  0  0  0  0  0
    4.4428   -5.7651   -1.3870 H   0  0  0  0  0  0  0  0  0  0  0  0
  1 17  1  0  0  0  0
  1 19  1  0  0  0  0
  2  6  1  0  0  0  0
  3 25  1  0  0  0  0
  3 23  1  0  0  0  0
  4 28  1  0  0  0  0
  4 27  1  0  0  0  0
  4  8  1  0  0  0  0
  5 30  1  0  0  0  0
  5  1  1  0  0  0  0
  6  8  1  0  0  0  0
  6 31  1  0  0  0  0
  6 32  1  0  0  0  0
  7 33  1  6  0  0  0
  7  5  1  0  0  0  0
  7  3  1  0  0  0  0
  8 34  1  6  0  0  0
  8 12  1  0  0  0  0
  9 13  1  0  0  0  0
  9 15  2  0  0  0  0
 10  9  1  0  0  0  0
 11 35  1  0  0  0  0
 11  7  1  0  0  0  0
 12 36  1  0  0  0  0
 12 14  1  0  0  0  0
 13 11  1  0  0  0  0
 14 10  1  0  0  0  0
 14 38  1  0  0  0  0
 16 10  2  0  0  0  0
 18  1  1  0  0  0  0
 20  2  1  0  0  0  0
 21  2  1  0  0  0  0
 22  2  1  0  0  0  0
 24  3  1  0  0  0  0
 26  4  1  0  0  0  0
 29  5  1  0  0  0  0
 37 13  1  0  0  0  0
M  END
>  <HBA>
6

>  <HBD>
4

>  <TPSA>
82.26

>  <cid>
56702

>  <dipole>
0.33

>  <excitation_energy_1>
4.146

>  <excitation_energy_2>
4.613

>  <excitation_energy_3>
4.813

>  <excitation_energy_4>
5.829

>  <homo_energy>
-6.256

>  <homo_lumo_gap>
5.216

>  <logP>
1.389

>  <lumo_energy>
-1.039

>  <melting_point>
122.28

>  <molecular_refractivity>
61.79

>  <oscillator_strength_1>
0.026

>  <oscillator_strength_2>
0.0737

>  <oscillator_strength_3>
0.1104

>  <oscillator_strength_4>
0.0036

>  <open_babel_can_smiles>
CC[C@H](NNC(=O)C(=O)NN[C@H](CC)C)C

>  <mulliken_charges>
38
1   -0.450224
2   -0.452996
3   -0.452225
4   -0.472827
5   -0.258459
6   -0.246069
7   0.048046
8   0.063594
9   0.555945
10   0.560981
11   -0.427755
12   -0.432641
13   -0.466431
14   -0.478072
15   -0.554084
16   -0.548933
17   0.149103
18   0.145198
19   0.150272
20   0.148239
21   0.146805
22   0.146226
23   0.14606
24   0.156609
25   0.151832
26   0.157681
27   0.15801
28   0.149101
29   0.152216
30   0.131486
31   0.139395
32   0.1381
33   0.133739
34   0.135277
35   0.324632
36   0.322917
37   0.364533
38   0.364718

>  <lowdin_charges>
38
1   -0.445084
2   -0.445553
3   -0.461594
4   -0.44802
5   -0.277975
6   -0.280285
7   -0.06413
8   -0.061731
9   0.111305
10   0.116678
11   -0.275855
12   -0.278901
13   -0.181603
14   -0.187084
15   -0.325019
16   -0.321503
17   0.155093
18   0.14759
19   0.150454
20   0.152941
21   0.148953
22   0.147618
23   0.15268
24   0.158969
25   0.153523
26   0.157923
27   0.154767
28   0.152475
29   0.15336
30   0.139679
31   0.143805
32   0.146092
33   0.138702
34   0.132419
35   0.266394
36   0.264324
37   0.304637
38   0.303957

$$$$

