PCCDB-ID:  8033
public computational chemistry database (PCCDB) project, http://pccdb.org

 28 27  0  0  0  0  0  0  0  0999 V2000
    0.8085   -1.0310    0.8033 C   0  0  0  0  0  0  0  0  0  0  0  0
   -0.1410    0.1033   -1.2627 C   0  0  0  0  0  0  0  0  0  0  0  0
    0.2297    1.4301    0.8583 C   0  0  0  0  0  0  0  0  0  0  0  0
    3.8818    1.4229   -2.4112 C   0  0  0  0  0  0  0  0  0  0  0  0
    4.8432    0.2975   -0.3457 C   0  0  0  0  0  0  0  0  0  0  0  0
    4.4679   -1.0367   -2.4612 C   0  0  0  0  0  0  0  0  0  0  0  0
    0.7294    0.2679   -0.0094 C   0  0  0  0  0  0  0  0  0  0  0  0
    3.9682    0.1266   -1.5950 C   0  0  0  0  0  0  0  0  0  0  0  0
    2.0508    0.7163   -0.3709 O   0  0  0  0  0  0  0  0  0  0  0  0
    2.6497   -0.3248   -1.2265 O   0  0  0  0  0  0  0  0  0  0  0  0
   -0.1883   -1.3271    1.1497 H   0  0  0  0  0  0  0  0  0  0  0  0
    1.4521   -0.8918    1.6787 H   0  0  0  0  0  0  0  0  0  0  0  0
    1.2206   -1.8425    0.1988 H   0  0  0  0  0  0  0  0  0  0  0  0
   -1.1676   -0.1610   -0.9845 H   0  0  0  0  0  0  0  0  0  0  0  0
    0.2559   -0.6824   -1.9100 H   0  0  0  0  0  0  0  0  0  0  0  0
   -0.1667    1.0389   -1.8316 H   0  0  0  0  0  0  0  0  0  0  0  0
   -0.7874    1.2228    1.2072 H   0  0  0  0  0  0  0  0  0  0  0  0
    0.2168    2.3631    0.2858 H   0  0  0  0  0  0  0  0  0  0  0  0
    0.8747    1.5672    1.7325 H   0  0  0  0  0  0  0  0  0  0  0  0
    4.8771    1.7254   -2.7559 H   0  0  0  0  0  0  0  0  0  0  0  0
    3.4625    2.2326   -1.8093 H   0  0  0  0  0  0  0  0  0  0  0  0
    3.2412    1.2772   -3.2877 H   0  0  0  0  0  0  0  0  0  0  0  0
    5.8692    0.5588   -0.6291 H   0  0  0  0  0  0  0  0  0  0  0  0
    4.8695   -0.6348    0.2284 H   0  0  0  0  0  0  0  0  0  0  0  0
    4.4498    1.0875    0.2986 H   0  0  0  0  0  0  0  0  0  0  0  0
    5.4807   -0.8247   -2.8197 H   0  0  0  0  0  0  0  0  0  0  0  0
    3.8163   -1.1819   -3.3292 H   0  0  0  0  0  0  0  0  0  0  0  0
    4.4913   -1.9669   -1.8845 H   0  0  0  0  0  0  0  0  0  0  0  0
  1 11  1  0  0  0  0
  1 12  1  0  0  0  0
  2 14  1  0  0  0  0
  2  7  1  0  0  0  0
  3 17  1  0  0  0  0
  3 19  1  0  0  0  0
  4 21  1  0  0  0  0
  4  8  1  0  0  0  0
  5 24  1  0  0  0  0
  5 25  1  0  0  0  0
  6 28  1  0  0  0  0
  6  8  1  0  0  0  0
  7  1  1  0  0  0  0
  7  3  1  0  0  0  0
  8 10  1  0  0  0  0
  8  5  1  0  0  0  0
  9  7  1  0  0  0  0
 10  9  1  0  0  0  0
 13  1  1  0  0  0  0
 15  2  1  0  0  0  0
 16  2  1  0  0  0  0
 18  3  1  0  0  0  0
 20  4  1  0  0  0  0
 22  4  1  0  0  0  0
 23  5  1  0  0  0  0
 26  6  1  0  0  0  0
 27  6  1  0  0  0  0
M  END
>  <HBA>
2

>  <HBD>
0

>  <TPSA>
18.46

>  <cid>
8033

>  <dipole>
0.01

>  <excitation_energy_1>
4.817

>  <excitation_energy_2>
5.742

>  <excitation_energy_3>
6.163

>  <excitation_energy_4>
6.332

>  <homo_energy>
-6.003

>  <homo_lumo_gap>
6.852

>  <logP>
2.532

>  <lumo_energy>
0.849

>  <melting_point>
-19.05

>  <molecular_refractivity>
42.82

>  <oscillator_strength_1>
0.0002

>  <oscillator_strength_2>
0.0

>  <oscillator_strength_3>
0.0081

>  <oscillator_strength_4>
0.0049

>  <open_babel_can_smiles>
CC(OOC(C)(C)C)(C)C

>  <mulliken_charges>
28
1   -0.448514
2   -0.449158
3   -0.461387
4   -0.448631
5   -0.449078
6   -0.461307
7   0.329417
8   0.329378
9   -0.31433
10   -0.314391
11   0.135088
12   0.145205
13   0.1633
14   0.135117
15   0.163633
16   0.14522
17   0.147994
18   0.154297
19   0.154137
20   0.13511
21   0.163437
22   0.145027
23   0.135103
24   0.145379
25   0.16355
26   0.147997
27   0.154139
28   0.154269

>  <lowdin_charges>
28
1   -0.455589
2   -0.45525
3   -0.444352
4   -0.455689
5   -0.455204
6   -0.444438
7   0.126601
8   0.126595
9   -0.169458
10   -0.169463
11   0.149126
12   0.153413
13   0.162018
14   0.148653
15   0.162248
16   0.153151
17   0.156062
18   0.156571
19   0.15679
20   0.149155
21   0.162104
22   0.153299
23   0.148653
24   0.153277
25   0.162192
26   0.156125
27   0.156832
28   0.156578

$$$$

