PCCDB-ID:  29653
public computational chemistry database (PCCDB) project, http://pccdb.org

 30 29  0  0  1  0  0  0  0  0999 V2000
    1.1126   -0.0365   -0.5796 C   0  0  0  0  0  0  0  0  0  0  0  0
    3.3877    0.0061   -1.6701 C   0  0  0  0  0  0  0  0  0  0  0  0
    6.5709    3.1493    3.6610 C   0  0  0  0  0  0  0  0  0  0  0  0
    6.6728    0.6541    3.2952 C   0  0  0  0  0  0  0  0  0  0  0  0
    3.0439    1.0319    0.6513 C   0  0  0  0  0  0  0  0  0  0  0  0
    4.5001    0.9633    1.1324 C   0  0  0  0  0  0  0  0  0  0  0  0
    2.6289   -0.0769   -0.3361 C   0  0  0  0  0  0  0  0  0  0  0  0
    6.3078    2.0084    2.6661 C   0  0  0  0  0  0  0  0  0  0  0  0
    4.8494    2.0588    2.1525 C   0  0  1  0  0  0  0  0  0  0  0  0
    4.5457    3.3555    1.6194 O   0  0  0  0  0  0  0  0  0  0  0  0
    0.7954   -0.8415   -1.2533 H   0  0  0  0  0  0  0  0  0  0  0  0
    0.8151    0.9163   -1.0370 H   0  0  0  0  0  0  0  0  0  0  0  0
    0.5538   -0.1426    0.3578 H   0  0  0  0  0  0  0  0  0  0  0  0
    3.0613   -0.7846   -2.3560 H   0  0  0  0  0  0  0  0  0  0  0  0
    4.4701   -0.0996   -1.5389 H   0  0  0  0  0  0  0  0  0  0  0  0
    3.2017    0.9699   -2.1622 H   0  0  0  0  0  0  0  0  0  0  0  0
    7.6296    3.1854    3.9431 H   0  0  0  0  0  0  0  0  0  0  0  0
    5.9870    3.0049    4.5797 H   0  0  0  0  0  0  0  0  0  0  0  0
    6.2876    4.1158    3.2367 H   0  0  0  0  0  0  0  0  0  0  0  0
    7.6808    0.6918    3.7236 H   0  0  0  0  0  0  0  0  0  0  0  0
    6.6545   -0.1654    2.5697 H   0  0  0  0  0  0  0  0  0  0  0  0
    5.9806    0.3996    4.1087 H   0  0  0  0  0  0  0  0  0  0  0  0
    2.8575    2.0142    0.1985 H   0  0  0  0  0  0  0  0  0  0  0  0
    2.3880    0.9790    1.5327 H   0  0  0  0  0  0  0  0  0  0  0  0
    5.1925    1.0485    0.2804 H   0  0  0  0  0  0  0  0  0  0  0  0
    4.6853   -0.0226    1.5775 H   0  0  0  0  0  0  0  0  0  0  0  0
    2.8676   -1.0472    0.1277 H   0  0  0  0  0  0  0  0  0  0  0  0
    6.9613    2.1614    1.7898 H   0  0  0  0  0  0  0  0  0  0  0  0
    4.1771    1.9651    3.0170 H   0  0  0  0  0  0  0  0  0  0  0  0
    5.1098    3.4798    0.8379 H   0  0  0  0  0  0  0  0  0  0  0  0
  1  7  1  0  0  0  0
  1 13  1  0  0  0  0
  2 15  1  0  0  0  0
  2  7  1  0  0  0  0
  3 17  1  0  0  0  0
  3 18  1  0  0  0  0
  4 20  1  0  0  0  0
  4 22  1  0  0  0  0
  5  6  1  0  0  0  0
  5 24  1  0  0  0  0
  6 26  1  0  0  0  0
  6  9  1  0  0  0  0
  7 27  1  0  0  0  0
  7  5  1  0  0  0  0
  8  4  1  0  0  0  0
  8  3  1  0  0  0  0
  9  8  1  0  0  0  0
  9 29  1  1  0  0  0
 10  9  1  0  0  0  0
 11  1  1  0  0  0  0
 12  1  1  0  0  0  0
 14  2  1  0  0  0  0
 16  2  1  0  0  0  0
 19  3  1  0  0  0  0
 21  4  1  0  0  0  0
 23  5  1  0  0  0  0
 25  6  1  0  0  0  0
 28  8  1  0  0  0  0
 30 10  1  0  0  0  0
M  END
>  <HBA>
1

>  <HBD>
1

>  <TPSA>
20.23

>  <cid>
29653

>  <dipole>
1.54

>  <excitation_energy_1>
6.394

>  <excitation_energy_2>
6.905

>  <excitation_energy_3>
7.085

>  <excitation_energy_4>
7.158

>  <homo_energy>
-7.026

>  <homo_lumo_gap>
8.983

>  <logP>
2.439

>  <lumo_energy>
1.957

>  <melting_point>
-9.94

>  <molecular_refractivity>
46.54

>  <oscillator_strength_1>
0.0028

>  <oscillator_strength_2>
0.0066

>  <oscillator_strength_3>
0.0063

>  <oscillator_strength_4>
0.0019

>  <open_babel_can_smiles>
CC(CC[C@@H](C(C)C)O)C

>  <mulliken_charges>
30
1   -0.441538
2   -0.44515
3   -0.440952
4   -0.453736
5   -0.241107
6   -0.291209
7   -0.065987
8   -0.08703
9   0.146176
10   -0.623661
11   0.137635
12   0.139538
13   0.139618
14   0.140014
15   0.140991
16   0.137171
17   0.134881
18   0.137113
19   0.159002
20   0.144241
21   0.146329
22   0.141587
23   0.138777
24   0.124928
25   0.118143
26   0.135441
27   0.116592
28   0.105018
29   0.126625
30   0.380549

>  <lowdin_charges>
30
1   -0.445161
2   -0.446121
3   -0.445518
4   -0.447904
5   -0.275907
6   -0.295512
7   -0.12011
8   -0.137434
9   -0.002788
10   -0.461256
11   0.147478
12   0.14595
13   0.147358
14   0.149183
15   0.144396
16   0.144494
17   0.144271
18   0.145771
19   0.157358
20   0.150887
21   0.149657
22   0.147858
23   0.144574
24   0.140783
25   0.134814
26   0.146287
27   0.13195
28   0.12851
29   0.139194
30   0.336938

$$$$

