PCCDB-ID:  11340
public computational chemistry database (PCCDB) project, http://pccdb.org

 20 20  0  0  0  0  0  0  0  0999 V2000
    1.0396   -0.5918   -1.2585 C   0  0  0  0  0  0  0  0  0  0  0  0
    2.4500    3.4582    0.3351 C   0  0  0  0  0  0  0  0  0  0  0  0
    4.5752   -1.2680   -0.0281 C   0  0  0  0  0  0  0  0  0  0  0  0
    4.9927   -0.0256    0.4460 C   0  0  0  0  0  0  0  0  0  0  0  0
    3.2977   -1.4088   -0.5677 C   0  0  0  0  0  0  0  0  0  0  0  0
    4.1198    1.0550    0.3726 C   0  0  0  0  0  0  0  0  0  0  0  0
    2.4003   -0.3364   -0.6547 C   0  0  0  0  0  0  0  0  0  0  0  0
    1.9348    2.1323   -0.2170 C   0  0  0  0  0  0  0  0  0  0  0  0
    2.8271    0.9296   -0.1686 C   0  0  0  0  0  0  0  0  0  0  0  0
    0.8059    2.0850   -0.6868 O   0  0  0  0  0  0  0  0  0  0  0  0
    0.9555   -1.6422   -1.5569 H   0  0  0  0  0  0  0  0  0  0  0  0
    0.8595    0.0400   -2.1329 H   0  0  0  0  0  0  0  0  0  0  0  0
    0.2343   -0.3594   -0.5555 H   0  0  0  0  0  0  0  0  0  0  0  0
    3.3339    3.8036   -0.2140 H   0  0  0  0  0  0  0  0  0  0  0  0
    2.7301    3.3752    1.3915 H   0  0  0  0  0  0  0  0  0  0  0  0
    1.6537    4.1970    0.2315 H   0  0  0  0  0  0  0  0  0  0  0  0
    5.2403   -2.1263    0.0188 H   0  0  0  0  0  0  0  0  0  0  0  0
    5.9855    0.1021    0.8681 H   0  0  0  0  0  0  0  0  0  0  0  0
    2.9803   -2.3813   -0.9358 H   0  0  0  0  0  0  0  0  0  0  0  0
    4.4530    2.0181    0.7434 H   0  0  0  0  0  0  0  0  0  0  0  0
  1  7  1  0  0  0  0
  1 13  1  0  0  0  0
  2 15  1  0  0  0  0
  3 17  1  0  0  0  0
  3  4  2  0  0  0  0
  4 18  1  0  0  0  0
  5  3  1  0  0  0  0
  6  4  1  0  0  0  0
  6 20  1  0  0  0  0
  7  5  2  0  0  0  0
  7  9  1  0  0  0  0
  8  9  1  0  0  0  0
  8  2  1  0  0  0  0
  9  6  2  0  0  0  0
 10  8  2  0  0  0  0
 11  1  1  0  0  0  0
 12  1  1  0  0  0  0
 14  2  1  0  0  0  0
 16  2  1  0  0  0  0
 19  5  1  0  0  0  0
M  END
>  <HBA>
1

>  <HBD>
0

>  <TPSA>
17.07

>  <cid>
11340

>  <dipole>
2.65

>  <excitation_energy_1>
3.657

>  <excitation_energy_2>
4.564

>  <excitation_energy_3>
5.173

>  <excitation_energy_4>
5.496

>  <homo_energy>
-6.561

>  <homo_lumo_gap>
5.14

>  <logP>
2.198

>  <lumo_energy>
-1.42

>  <melting_point>
43.05

>  <molecular_refractivity>
41.6

>  <oscillator_strength_1>
0.0001

>  <oscillator_strength_2>
0.0444

>  <oscillator_strength_3>
0.2112

>  <oscillator_strength_4>
0.0001

>  <open_babel_can_smiles>
CC(=O)c1ccccc1C

>  <mulliken_charges>
20
1   -0.497394
2   -0.541626
3   -0.114147
4   -0.133514
5   -0.185176
6   -0.188972
7   0.127398
8   0.399386
9   0.049208
10   -0.460784
11   0.136272
12   0.177701
13   0.176901
14   0.170088
15   0.169208
16   0.180209
17   0.136364
18   0.133815
19   0.130189
20   0.134874

>  <lowdin_charges>
20
1   -0.439484
2   -0.4763
3   -0.138788
4   -0.16326
5   -0.167648
6   -0.148011
7   0.034027
8   0.158426
9   -0.059399
10   -0.241608
11   0.145101
12   0.172645
13   0.17248
14   0.169231
15   0.166698
16   0.174747
17   0.1618
18   0.159162
19   0.157692
20   0.16249

$$$$

