PCCDB-ID:  27133
public computational chemistry database (PCCDB) project, http://pccdb.org

 23 24  0  0  0  0  0  0  0  0999 V2000
   -2.1823   -0.0460   -0.1863 C   0  0  0  0  0  0  0  0  0  0  0  0
   -1.4435    0.2854    0.9516 C   0  0  0  0  0  0  0  0  0  0  0  0
   -1.5361   -0.1937   -1.4152 C   0  0  0  0  0  0  0  0  0  0  0  0
   -0.0648    0.4756    0.8628 C   0  0  0  0  0  0  0  0  0  0  0  0
   -0.1562   -0.0144   -1.5047 C   0  0  0  0  0  0  0  0  0  0  0  0
    3.1222    3.8808    0.3800 C   0  0  0  0  0  0  0  0  0  0  0  0
    3.0526    3.1916    1.7152 C   0  0  0  0  0  0  0  0  0  0  0  0
    0.5936    0.3307   -0.3679 C   0  0  0  0  0  0  0  0  0  0  0  0
    2.2866    2.6268    0.5337 C   0  0  0  0  0  0  0  0  0  0  0  0
    2.0768    0.5021   -0.4777 C   0  0  0  0  0  0  0  0  0  0  0  0
    2.8116    1.4478   -0.0607 N   0  0  0  0  0  0  0  0  0  0  0  0
    2.7128   -0.5102   -1.1572 O   0  0  0  0  0  0  0  0  0  0  0  0
   -3.2570   -0.1897   -0.1153 H   0  0  0  0  0  0  0  0  0  0  0  0
   -1.9409    0.3915    1.9118 H   0  0  0  0  0  0  0  0  0  0  0  0
   -2.1063   -0.4477   -2.3046 H   0  0  0  0  0  0  0  0  0  0  0  0
    0.5111    0.7196    1.7504 H   0  0  0  0  0  0  0  0  0  0  0  0
    0.3453   -0.1204   -2.4633 H   0  0  0  0  0  0  0  0  0  0  0  0
    4.0380    3.7786   -0.1934 H   0  0  0  0  0  0  0  0  0  0  0  0
    2.5993    4.8247    0.2513 H   0  0  0  0  0  0  0  0  0  0  0  0
    2.4816    3.6551    2.5156 H   0  0  0  0  0  0  0  0  0  0  0  0
    3.9227    2.6294    2.0392 H   0  0  0  0  0  0  0  0  0  0  0  0
    1.2051    2.7677    0.5438 H   0  0  0  0  0  0  0  0  0  0  0  0
    2.1031   -1.2622   -1.2205 H   0  0  0  0  0  0  0  0  0  0  0  0
  1 13  1  0  0  0  0
  1  2  2  0  0  0  0
  2 14  1  0  0  0  0
  3  1  1  0  0  0  0
  4  2  1  0  0  0  0
  4 16  1  0  0  0  0
  5  3  2  0  0  0  0
  5  8  1  0  0  0  0
  6  9  1  0  0  0  0
  6  7  1  0  0  0  0
  7 21  1  0  0  0  0
  7 20  1  0  0  0  0
  8  4  2  0  0  0  0
  9 22  1  0  0  0  0
  9  7  1  0  0  0  0
 10  8  1  0  0  0  0
 10 11  2  0  0  0  0
 11  9  1  0  0  0  0
 12 10  1  0  0  0  0
 15  3  1  0  0  0  0
 17  5  1  0  0  0  0
 18  6  1  0  0  0  0
 19  6  1  0  0  0  0
 23 12  1  0  0  0  0
M  END
>  <HBA>
2

>  <HBD>
1

>  <TPSA>
29.1

>  <cid>
27133

>  <dipole>
3.85

>  <excitation_energy_1>
4.421

>  <excitation_energy_2>
4.756

>  <excitation_energy_3>
4.849

>  <excitation_energy_4>
5.228

>  <homo_energy>
-6.071

>  <homo_lumo_gap>
5.208

>  <logP>
1.97

>  <lumo_energy>
-0.863

>  <melting_point>
86.64

>  <molecular_refractivity>
46.94

>  <oscillator_strength_1>
0.0731

>  <oscillator_strength_2>
0.0016

>  <oscillator_strength_3>
0.0784

>  <oscillator_strength_4>
0.0043

>  <open_babel_can_smiles>
O/C(=N/C1CC1)/c1ccccc1

>  <mulliken_charges>
23
1   -0.122586
2   -0.134849
3   -0.129844
4   -0.160242
5   -0.180923
6   -0.315958
7   -0.321392
8   0.045167
9   0.022161
10   0.405485
11   -0.410031
12   -0.586625
13   0.138677
14   0.139868
15   0.139636
16   0.157077
17   0.149059
18   0.167333
19   0.146935
20   0.145832
21   0.16537
22   0.138382
23   0.401467

>  <lowdin_charges>
23
1   -0.145812
2   -0.152272
3   -0.153038
4   -0.152003
5   -0.163686
6   -0.31341
7   -0.319967
8   -0.044273
9   -0.092797
10   0.119332
11   -0.174092
12   -0.373693
13   0.160287
14   0.162625
15   0.163156
16   0.171156
17   0.16552
18   0.168355
19   0.157202
20   0.157672
21   0.167499
22   0.138959
23   0.353278

$$$$

