PCCDB-ID:  58243
public computational chemistry database (PCCDB) project, http://pccdb.org

 35 36  0  0  1  0  0  0  0  0999 V2000
    2.8476    1.2036    0.0082 C   0  0  0  0  0  0  0  0  0  0  0  0
    5.1850   -0.9595   -6.3667 C   0  0  0  0  0  0  0  0  0  0  0  0
    1.9398   -0.0245    0.1094 C   0  0  0  0  0  0  0  0  0  0  0  0
    2.0333   -1.6880   -2.8103 C   0  0  0  0  0  0  0  0  0  0  0  0
    4.2618   -0.9940   -2.2359 C   0  0  0  0  0  0  0  0  0  0  0  0
    2.3667   -1.6627   -4.1576 C   0  0  0  0  0  0  0  0  0  0  0  0
    4.6147   -0.9676   -3.5888 C   0  0  0  0  0  0  0  0  0  0  0  0
    1.7704   -3.8053    1.8492 C   0  0  0  0  0  0  0  0  0  0  0  0
    3.8251   -3.0337    0.5110 C   0  0  0  0  0  0  0  0  0  0  0  0
    2.9761   -1.3517   -1.8265 C   0  0  0  0  0  0  0  0  0  0  0  0
    3.6626   -1.3019   -4.5577 C   0  0  0  0  0  0  0  0  0  0  0  0
    2.3651   -3.5183    0.4722 C   0  0  2  0  0  0  0  0  0  0  0  0
    2.5851   -1.3383   -0.3472 C   0  0  1  0  0  0  0  0  0  0  0  0
    0.3700   -3.9898    1.7758 O   0  0  0  0  0  0  0  0  0  0  0  0
    3.8914   -1.3113   -5.9037 O   0  0  0  0  0  0  0  0  0  0  0  0
    3.7018   -1.6131    0.4871 O   0  0  0  0  0  0  0  0  0  0  0  0
    1.6494   -2.3998   -0.0850 O   0  0  0  0  0  0  0  0  0  0  0  0
    2.3249    2.0906    0.3821 H   0  0  0  0  0  0  0  0  0  0  0  0
    3.1472    1.4007   -1.0261 H   0  0  0  0  0  0  0  0  0  0  0  0
    3.7540    1.0682    0.6070 H   0  0  0  0  0  0  0  0  0  0  0  0
    5.1431   -1.0300   -7.4552 H   0  0  0  0  0  0  0  0  0  0  0  0
    5.9514   -1.6491   -5.9881 H   0  0  0  0  0  0  0  0  0  0  0  0
    5.4524    0.0663   -6.0801 H   0  0  0  0  0  0  0  0  0  0  0  0
    1.0325    0.1204   -0.4892 H   0  0  0  0  0  0  0  0  0  0  0  0
    1.6242   -0.1776    1.1478 H   0  0  0  0  0  0  0  0  0  0  0  0
    1.0343   -1.9872   -2.5087 H   0  0  0  0  0  0  0  0  0  0  0  0
    5.0060   -0.7418   -1.4867 H   0  0  0  0  0  0  0  0  0  0  0  0
    1.6431   -1.9267   -4.9228 H   0  0  0  0  0  0  0  0  0  0  0  0
    5.6253   -0.6923   -3.8684 H   0  0  0  0  0  0  0  0  0  0  0  0
    2.0387   -2.9783    2.5284 H   0  0  0  0  0  0  0  0  0  0  0  0
    2.1929   -4.7305    2.2581 H   0  0  0  0  0  0  0  0  0  0  0  0
    4.3941   -3.3940   -0.3556 H   0  0  0  0  0  0  0  0  0  0  0  0
    4.3524   -3.3080    1.4294 H   0  0  0  0  0  0  0  0  0  0  0  0
    2.2278   -4.3856   -0.1842 H   0  0  0  0  0  0  0  0  0  0  0  0
    0.0355   -3.2193    1.2858 H   0  0  0  0  0  0  0  0  0  0  0  0
  1  3  1  0  0  0  0
  1 18  1  0  0  0  0
  1 20  1  0  0  0  0
  2 23  1  0  0  0  0
  2 22  1  0  0  0  0
  2 15  1  0  0  0  0
  3 25  1  0  0  0  0
  4 26  1  0  0  0  0
  4 10  2  0  0  0  0
  5 10  1  0  0  0  0
  5 27  1  0  0  0  0
  6  4  1  0  0  0  0
  7  5  2  0  0  0  0
  8 31  1  0  0  0  0
  8 30  1  0  0  0  0
  9 33  1  0  0  0  0
 10 13  1  0  0  0  0
 11  6  2  0  0  0  0
 11  7  1  0  0  0  0
 12 34  1  6  0  0  0
 12  9  1  0  0  0  0
 12  8  1  0  0  0  0
 13 17  1  0  0  0  0
 13  3  1  1  0  0  0
 13 16  1  0  0  0  0
 14  8  1  0  0  0  0
 15 11  1  0  0  0  0
 16  9  1  0  0  0  0
 17 12  1  0  0  0  0
 19  1  1  0  0  0  0
 21  2  1  0  0  0  0
 24  3  1  0  0  0  0
 28  6  1  0  0  0  0
 29  7  1  0  0  0  0
 32  9  1  0  0  0  0
 35 14  1  0  0  0  0
M  END
>  <HBA>
4

>  <HBD>
1

>  <TPSA>
47.92

>  <cid>
58243

>  <dipole>
3.28

>  <excitation_energy_1>
4.994

>  <excitation_energy_2>
5.463

>  <excitation_energy_3>
5.583

>  <excitation_energy_4>
5.853

>  <homo_energy>
-5.938

>  <homo_lumo_gap>
5.883

>  <logP>
1.666

>  <lumo_energy>
-0.054

>  <melting_point>
40.18

>  <molecular_refractivity>
63.04

>  <oscillator_strength_1>
0.0219

>  <oscillator_strength_2>
0.005

>  <oscillator_strength_3>
0.1523

>  <oscillator_strength_4>
0.0053

>  <open_babel_can_smiles>
OC[C@@H]1CO[C@@](O1)(CC)c1ccc(cc1)OC

>  <mulliken_charges>
35
1   -0.460575
2   -0.214814
3   -0.259142
4   -0.174663
5   -0.183805
6   -0.178361
7   -0.201424
8   -0.032178
9   -0.080249
10   0.101218
11   0.379239
12   0.114521
13   0.469073
14   -0.622509
15   -0.506489
16   -0.50406
17   -0.551642
18   0.145426
19   0.15653
20   0.16147
21   0.170414
22   0.151675
23   0.1523
24   0.14523
25   0.144783
26   0.143649
27   0.145036
28   0.13883
29   0.131311
30   0.127606
31   0.138674
32   0.149189
33   0.157124
34   0.14519
35   0.401423

>  <lowdin_charges>
35
1   -0.448658
2   -0.275553
3   -0.276053
4   -0.148171
5   -0.154554
6   -0.18306
7   -0.215053
8   -0.148158
9   -0.147546
10   -0.055273
11   0.10323
12   -0.028208
13   0.215145
14   -0.465639
15   -0.199061
16   -0.255401
17   -0.275244
18   0.153745
19   0.154194
20   0.156607
21   0.160967
22   0.146085
23   0.144296
24   0.154149
25   0.151022
26   0.165494
27   0.166955
28   0.168013
29   0.161271
30   0.131308
31   0.146953
32   0.145263
33   0.157547
34   0.14798
35   0.34541

$$$$

