PCCDB-ID:  42238
public computational chemistry database (PCCDB) project, http://pccdb.org

 23 23  0  0  0  0  0  0  0  0999 V2000
    0.6542   -1.7816    1.2714 C   0  0  0  0  0  0  0  0  0  0  0  0
    5.2582    0.2926    1.1327 C   0  0  0  0  0  0  0  0  0  0  0  0
    2.1476   -2.1265    1.3061 C   0  0  0  0  0  0  0  0  0  0  0  0
    3.0287   -0.8835    1.1526 C   0  0  0  0  0  0  0  0  0  0  0  0
    5.5310   -3.5694    1.9529 C   0  0  0  0  0  0  0  0  0  0  0  0
    6.1692   -3.2888    0.5971 C   0  0  0  0  0  0  0  0  0  0  0  0
    4.5628   -1.0772    1.1761 C   0  0  0  0  0  0  0  0  0  0  0  0
    5.1492   -1.9531    2.7236 S   0  0  0  0  0  0  0  0  0  0  0  0
    5.0850   -2.1129   -0.2977 S   0  0  0  0  0  0  0  0  0  0  0  0
    0.0388   -2.6809    1.3870 H   0  0  0  0  0  0  0  0  0  0  0  0
    0.3747   -1.3084    0.3219 H   0  0  0  0  0  0  0  0  0  0  0  0
    0.3847   -1.0890    2.0785 H   0  0  0  0  0  0  0  0  0  0  0  0
    5.0139    0.8747    2.0304 H   0  0  0  0  0  0  0  0  0  0  0  0
    4.9205    0.8618    0.2590 H   0  0  0  0  0  0  0  0  0  0  0  0
    6.3434    0.1820    1.0780 H   0  0  0  0  0  0  0  0  0  0  0  0
    2.3811   -2.8392    0.5067 H   0  0  0  0  0  0  0  0  0  0  0  0
    2.3872   -2.6209    2.2557 H   0  0  0  0  0  0  0  0  0  0  0  0
    2.7819   -0.1686    1.9508 H   0  0  0  0  0  0  0  0  0  0  0  0
    2.7783   -0.3765    0.2083 H   0  0  0  0  0  0  0  0  0  0  0  0
    6.2222   -4.0915    2.6235 H   0  0  0  0  0  0  0  0  0  0  0  0
    4.6232   -4.1698    1.8434 H   0  0  0  0  0  0  0  0  0  0  0  0
    6.2355   -4.1959   -0.0137 H   0  0  0  0  0  0  0  0  0  0  0  0
    7.1724   -2.8699    0.7180 H   0  0  0  0  0  0  0  0  0  0  0  0
  1  3  1  0  0  0  0
  1 10  1  0  0  0  0
  1 12  1  0  0  0  0
  2  7  1  0  0  0  0
  2 13  1  0  0  0  0
  3 17  1  0  0  0  0
  4  7  1  0  0  0  0
  4  3  1  0  0  0  0
  4 18  1  0  0  0  0
  5 20  1  0  0  0  0
  5  8  1  0  0  0  0
  6 23  1  0  0  0  0
  6  5  1  0  0  0  0
  7  8  1  0  0  0  0
  9  6  1  0  0  0  0
  9  7  1  0  0  0  0
 11  1  1  0  0  0  0
 14  2  1  0  0  0  0
 15  2  1  0  0  0  0
 16  3  1  0  0  0  0
 19  4  1  0  0  0  0
 21  5  1  0  0  0  0
 22  6  1  0  0  0  0
M  END
>  <HBA>
2

>  <HBD>
0

>  <TPSA>
50.6

>  <cid>
42238

>  <dipole>
0.86

>  <excitation_energy_1>
4.715

>  <excitation_energy_2>
4.779

>  <excitation_energy_3>
5.662

>  <excitation_energy_4>
5.72

>  <homo_energy>
-6.087

>  <homo_lumo_gap>
6.114

>  <logP>
2.983

>  <lumo_energy>
0.027

>  <melting_point>
24.31

>  <molecular_refractivity>
48.87

>  <oscillator_strength_1>
0.0011

>  <oscillator_strength_2>
0.001

>  <oscillator_strength_3>
0.0326

>  <oscillator_strength_4>
0.0115

>  <open_babel_can_smiles>
CCCC1(C)SCCS1

>  <mulliken_charges>
23
1   -0.445032
2   -0.423969
3   -0.258651
4   -0.236146
5   -0.416113
6   -0.410871
7   -0.250275
8   0.10374
9   0.099658
10   0.143381
11   0.141761
12   0.141522
13   0.15473
14   0.155961
15   0.168456
16   0.154106
17   0.151504
18   0.143452
19   0.143589
20   0.181737
21   0.18872
22   0.181308
23   0.187433

>  <lowdin_charges>
23
1   -0.444534
2   -0.44275
3   -0.281873
4   -0.278504
5   -0.376894
6   -0.372907
7   -0.169102
8   0.090727
9   0.087973
10   0.150817
11   0.146141
12   0.146728
13   0.155062
14   0.156475
15   0.162287
16   0.151003
17   0.149833
18   0.149213
19   0.148051
20   0.173484
21   0.163861
22   0.171909
23   0.163002

$$$$

