PCCDB-ID:  58402
public computational chemistry database (PCCDB) project, http://pccdb.org

 38 37  0  0  0  0  0  0  0  0999 V2000
    5.0681   -0.0347   -4.3978 C   0  0  0  0  0  0  0  0  0  0  0  0
    9.6372    5.9921   -5.1849 C   0  0  0  0  0  0  0  0  0  0  0  0
    5.7966   -0.0245   -3.0502 C   0  0  0  0  0  0  0  0  0  0  0  0
    9.5415    6.0608   -3.6574 C   0  0  0  0  0  0  0  0  0  0  0  0
    4.8533    0.1851   -1.8597 C   0  0  0  0  0  0  0  0  0  0  0  0
   10.3324    4.9476   -2.9582 C   0  0  0  0  0  0  0  0  0  0  0  0
    5.5793    0.2379   -0.5032 C   0  0  0  0  0  0  0  0  0  0  0  0
   10.2783    5.0145   -1.4213 C   0  0  0  0  0  0  0  0  0  0  0  0
    6.0733    2.6347   -0.1540 C   0  0  0  0  0  0  0  0  0  0  0  0
    8.3681    3.5582   -0.7488 C   0  0  0  0  0  0  0  0  0  0  0  0
    4.9074    3.0856    0.1655 N   0  0  0  0  0  0  0  0  0  0  0  0
    8.9212    2.4208   -1.0124 N   0  0  0  0  0  0  0  0  0  0  0  0
    6.4981    1.3523   -0.3548 N   0  0  0  0  0  0  0  0  0  0  0  0
    8.9625    4.8150   -0.8251 N   0  0  0  0  0  0  0  0  0  0  0  0
    7.0671    3.6312   -0.2830 N   0  0  0  0  0  0  0  0  0  0  0  0
    5.7662   -0.1879   -5.2289 H   0  0  0  0  0  0  0  0  0  0  0  0
    4.5459    0.9142   -4.5718 H   0  0  0  0  0  0  0  0  0  0  0  0
    4.3194   -0.8356   -4.4402 H   0  0  0  0  0  0  0  0  0  0  0  0
    9.0637    6.7976   -5.6568 H   0  0  0  0  0  0  0  0  0  0  0  0
    9.2475    5.0394   -5.5630 H   0  0  0  0  0  0  0  0  0  0  0  0
   10.6775    6.0813   -5.5206 H   0  0  0  0  0  0  0  0  0  0  0  0
    6.5583    0.7661   -3.0495 H   0  0  0  0  0  0  0  0  0  0  0  0
    6.3382   -0.9731   -2.9193 H   0  0  0  0  0  0  0  0  0  0  0  0
    8.4849    6.0019   -3.3613 H   0  0  0  0  0  0  0  0  0  0  0  0
    9.9071    7.0386   -3.3108 H   0  0  0  0  0  0  0  0  0  0  0  0
    4.1137   -0.6283   -1.8263 H   0  0  0  0  0  0  0  0  0  0  0  0
    4.2898    1.1180   -1.9948 H   0  0  0  0  0  0  0  0  0  0  0  0
   11.3873    5.0048   -3.2626 H   0  0  0  0  0  0  0  0  0  0  0  0
    9.9620    3.9698   -3.2933 H   0  0  0  0  0  0  0  0  0  0  0  0
    6.1647   -0.6781   -0.3599 H   0  0  0  0  0  0  0  0  0  0  0  0
    4.8464    0.2629    0.3141 H   0  0  0  0  0  0  0  0  0  0  0  0
   10.6361    5.9935   -1.0802 H   0  0  0  0  0  0  0  0  0  0  0  0
   10.9585    4.2754   -0.9829 H   0  0  0  0  0  0  0  0  0  0  0  0
    4.2395    2.3259    0.2865 H   0  0  0  0  0  0  0  0  0  0  0  0
    9.8574    2.5270   -1.3922 H   0  0  0  0  0  0  0  0  0  0  0  0
    7.4692    1.2613   -0.6599 H   0  0  0  0  0  0  0  0  0  0  0  0
    8.3190    5.5854   -0.9539 H   0  0  0  0  0  0  0  0  0  0  0  0
    6.7103    4.5258    0.0230 H   0  0  0  0  0  0  0  0  0  0  0  0
  1  3  1  0  0  0  0
  2  4  1  0  0  0  0
  3 22  1  0  0  0  0
  3 23  1  0  0  0  0
  3  5  1  0  0  0  0
  4 24  1  0  0  0  0
  4 25  1  0  0  0  0
  4  6  1  0  0  0  0
  5 26  1  0  0  0  0
  5  7  1  0  0  0  0
  6  8  1  0  0  0  0
  7 30  1  0  0  0  0
  7 13  1  0  0  0  0
  7 31  1  0  0  0  0
  8 32  1  0  0  0  0
  8 33  1  0  0  0  0
  8 14  1  0  0  0  0
  9 11  2  0  0  0  0
 10 15  1  0  0  0  0
 11 34  1  0  0  0  0
 12 10  2  0  0  0  0
 13  9  1  0  0  0  0
 14 10  1  0  0  0  0
 15  9  1  0  0  0  0
 15 38  1  0  0  0  0
 16  1  1  0  0  0  0
 17  1  1  0  0  0  0
 18  1  1  0  0  0  0
 19  2  1  0  0  0  0
 20  2  1  0  0  0  0
 21  2  1  0  0  0  0
 27  5  1  0  0  0  0
 28  6  1  0  0  0  0
 29  6  1  0  0  0  0
 35 12  1  0  0  0  0
 36 13  1  0  0  0  0
 37 14  1  0  0  0  0
M  END
>  <HBA>
5

>  <HBD>
3

>  <TPSA>
88.79

>  <cid>
58402

>  <dipole>
3.6

>  <excitation_energy_1>
4.927

>  <excitation_energy_2>
5.332

>  <excitation_energy_3>
5.371

>  <excitation_energy_4>
5.614

>  <homo_energy>
-5.44

>  <homo_lumo_gap>
6.425

>  <logP>
2.597

>  <lumo_energy>
0.985

>  <melting_point>
142.19

>  <molecular_refractivity>
65.77

>  <oscillator_strength_1>
0.0014

>  <oscillator_strength_2>
0.0171

>  <oscillator_strength_3>
0.0007

>  <oscillator_strength_4>
0.0047

>  <open_babel_can_smiles>
CCCCNC(=N)NC(=N)NCCCC

>  <mulliken_charges>
38
1   -0.441704
2   -0.442214
3   -0.251225
4   -0.254486
5   -0.247032
6   -0.25176
7   -0.151146
8   -0.163698
9   0.654677
10   0.740209
11   -0.694789
12   -0.726347
13   -0.617555
14   -0.617594
15   -0.695393
16   0.140102
17   0.143715
18   0.139662
19   0.147479
20   0.149115
21   0.144764
22   0.146371
23   0.12534
24   0.131746
25   0.131229
26   0.125493
27   0.145762
28   0.135531
29   0.14773
30   0.144736
31   0.142902
32   0.152115
33   0.159199
34   0.276877
35   0.290415
36   0.382306
37   0.320506
38   0.336963

>  <lowdin_charges>
38
1   -0.444793
2   -0.442927
3   -0.276748
4   -0.274576
5   -0.289023
6   -0.290116
7   -0.198837
8   -0.203295
9   0.140457
10   0.151567
11   -0.511312
12   -0.502124
13   -0.305135
14   -0.31136
15   -0.258303
16   0.148913
17   0.147406
18   0.145567
19   0.153575
20   0.150513
21   0.146996
22   0.146712
23   0.136259
24   0.136761
25   0.138142
26   0.141219
27   0.147574
28   0.144955
29   0.147655
30   0.150669
31   0.14394
32   0.153013
33   0.155334
34   0.250757
35   0.256964
36   0.301444
37   0.277985
38   0.294173

$$$$

