PCCDB-ID:  7184
public computational chemistry database (PCCDB) project, http://pccdb.org

 28 28  0  0  0  0  0  0  0  0999 V2000
    6.7968    5.3237   -2.4375 C   0  0  0  0  0  0  0  0  0  0  0  0
    6.0268    4.0113   -2.6138 C   0  0  0  0  0  0  0  0  0  0  0  0
    5.2029    3.6346   -1.3762 C   0  0  0  0  0  0  0  0  0  0  0  0
    7.2334   -1.3002    0.0404 C   0  0  0  0  0  0  0  0  0  0  0  0
    6.9440   -0.9344   -2.3328 C   0  0  0  0  0  0  0  0  0  0  0  0
    8.0665   -2.3805   -0.2234 C   0  0  0  0  0  0  0  0  0  0  0  0
    7.7749   -2.0126   -2.6062 C   0  0  0  0  0  0  0  0  0  0  0  0
    4.4182    2.3339   -1.5227 C   0  0  0  0  0  0  0  0  0  0  0  0
    6.6627   -0.5649   -1.0072 C   0  0  0  0  0  0  0  0  0  0  0  0
    8.3398   -2.7398   -1.5500 C   0  0  0  0  0  0  0  0  0  0  0  0
    5.7818    0.5779   -0.6580 C   0  0  0  0  0  0  0  0  0  0  0  0
    9.1481   -3.7876   -1.8749 O   0  0  0  0  0  0  0  0  0  0  0  0
    5.5225    0.9211    0.4812 O   0  0  0  0  0  0  0  0  0  0  0  0
    5.2884    1.2021   -1.7568 O   0  0  0  0  0  0  0  0  0  0  0  0
    7.3816    5.5665   -3.3319 H   0  0  0  0  0  0  0  0  0  0  0  0
    7.4920    5.2642   -1.5912 H   0  0  0  0  0  0  0  0  0  0  0  0
    6.1158    6.1624   -2.2468 H   0  0  0  0  0  0  0  0  0  0  0  0
    6.7284    3.1988   -2.8397 H   0  0  0  0  0  0  0  0  0  0  0  0
    5.3585    4.0911   -3.4834 H   0  0  0  0  0  0  0  0  0  0  0  0
    4.4783    4.4320   -1.1551 H   0  0  0  0  0  0  0  0  0  0  0  0
    5.8532    3.5533   -0.4964 H   0  0  0  0  0  0  0  0  0  0  0  0
    7.0110   -1.0083    1.0614 H   0  0  0  0  0  0  0  0  0  0  0  0
    6.5052   -0.3700   -3.1478 H   0  0  0  0  0  0  0  0  0  0  0  0
    8.5060   -2.9472    0.5956 H   0  0  0  0  0  0  0  0  0  0  0  0
    8.0001   -2.3085   -3.6257 H   0  0  0  0  0  0  0  0  0  0  0  0
    3.7680    2.3604   -2.4024 H   0  0  0  0  0  0  0  0  0  0  0  0
    3.8195    2.1365   -0.6306 H   0  0  0  0  0  0  0  0  0  0  0  0
    9.4716   -4.2047   -1.0608 H   0  0  0  0  0  0  0  0  0  0  0  0
  1 17  1  0  0  0  0
  1 16  1  0  0  0  0
  2  1  1  0  0  0  0
  2  3  1  0  0  0  0
  3 20  1  0  0  0  0
  3 21  1  0  0  0  0
  4 22  1  0  0  0  0
  5  9  1  0  0  0  0
  6  4  1  0  0  0  0
  6 24  1  0  0  0  0
  7  5  2  0  0  0  0
  7 10  1  0  0  0  0
  8  3  1  0  0  0  0
  8 27  1  0  0  0  0
  9 11  1  0  0  0  0
  9  4  2  0  0  0  0
 10  6  2  0  0  0  0
 11 13  2  0  0  0  0
 12 10  1  0  0  0  0
 12 28  1  0  0  0  0
 14  8  1  0  0  0  0
 14 11  1  0  0  0  0
 15  1  1  0  0  0  0
 18  2  1  0  0  0  0
 19  2  1  0  0  0  0
 23  5  1  0  0  0  0
 25  7  1  0  0  0  0
 26  8  1  0  0  0  0
M  END
>  <HBA>
3

>  <HBD>
1

>  <TPSA>
46.53

>  <cid>
7184

>  <dipole>
1.32

>  <excitation_energy_1>
4.934

>  <excitation_energy_2>
4.98

>  <excitation_energy_3>
5.023

>  <excitation_energy_4>
5.44

>  <homo_energy>
-6.302

>  <homo_lumo_gap>
5.388

>  <logP>
2.349

>  <lumo_energy>
-0.914

>  <melting_point>
68.24

>  <molecular_refractivity>
54.17

>  <oscillator_strength_1>
0.0035

>  <oscillator_strength_2>
0.026

>  <oscillator_strength_3>
0.3401

>  <oscillator_strength_4>
0.0002

>  <open_babel_can_smiles>
CCCCOC(=O)c1ccc(cc1)O

>  <mulliken_charges>
28
1   -0.442425
2   -0.247918
3   -0.274148
4   -0.159185
5   -0.166111
6   -0.20257
7   -0.165618
8   -0.048838
9   0.045699
10   0.362588
11   0.594027
12   -0.633861
13   -0.500942
14   -0.484344
15   0.143525
16   0.145327
17   0.141002
18   0.146696
19   0.127817
20   0.1346
21   0.160739
22   0.165389
23   0.158574
24   0.126692
25   0.146141
26   0.145718
27   0.169709
28   0.411716

>  <lowdin_charges>
28
1   -0.445369
2   -0.27608
3   -0.288377
4   -0.116689
5   -0.128059
6   -0.216538
7   -0.187435
8   -0.131201
9   -0.067109
10   0.117874
11   0.195677
12   -0.367163
13   -0.281364
14   -0.196692
15   0.150741
16   0.14879
17   0.146454
18   0.147183
19   0.138268
20   0.148738
21   0.156113
22   0.177599
23   0.175103
24   0.158039
25   0.169691
26   0.14968
27   0.161333
28   0.360792

$$$$

