PCCDB-ID:  73538
public computational chemistry database (PCCDB) project, http://pccdb.org

 12 12  0  0  0  0  0  0  0  0999 V2000
   -0.3613    1.2594    0.0065 C   0  0  0  0  0  0  0  0  0  0  0  0
   -1.2597    0.0164   -0.0410 C   0  0  0  0  0  0  0  0  0  0  0  0
    0.9996    0.6037    0.0351 C   0  0  0  0  0  0  0  0  0  0  0  0
   -2.5091   -0.1419   -0.2440 N   0  0  0  0  0  0  0  0  0  0  0  0
   -0.3856   -1.0326    0.2063 N   0  0  0  0  0  0  0  0  0  0  0  0
    0.9683   -0.6735    0.1166 N   0  0  0  0  0  0  0  0  0  0  0  0
    2.1793    1.2683    0.0166 O   0  0  0  0  0  0  0  0  0  0  0  0
   -0.5495    1.8506    0.9128 H   0  0  0  0  0  0  0  0  0  0  0  0
   -0.5157    1.9120   -0.8611 H   0  0  0  0  0  0  0  0  0  0  0  0
   -2.9718    0.7584   -0.3774 H   0  0  0  0  0  0  0  0  0  0  0  0
   -0.6127   -1.9781   -0.0687 H   0  0  0  0  0  0  0  0  0  0  0  0
    2.0077    2.2094   -0.1344 H   0  0  0  0  0  0  0  0  0  0  0  0
  1  3  1  0  0  0  0
  1  8  1  0  0  0  0
  2  1  1  0  0  0  0
  2  5  1  0  0  0  0
  3  6  2  0  0  0  0
  4  2  2  0  0  0  0
  6  5  1  0  0  0  0
  7  3  1  0  0  0  0
  9  1  1  0  0  0  0
 10  4  1  0  0  0  0
 11  5  1  0  0  0  0
 12  7  1  0  0  0  0
M  END
>  <HBA>
4

>  <HBD>
2

>  <TPSA>
67.48

>  <cid>
73538

>  <dipole>
4.16

>  <excitation_energy_1>
4.501

>  <excitation_energy_2>
4.7

>  <excitation_energy_3>
5.121

>  <excitation_energy_4>
5.624

>  <homo_energy>
-5.649

>  <homo_lumo_gap>
5.426

>  <logP>
-0.757

>  <lumo_energy>
-0.223

>  <melting_point>
118.69

>  <molecular_refractivity>
31.06

>  <oscillator_strength_1>
0.0038

>  <oscillator_strength_2>
0.1197

>  <oscillator_strength_3>
0.0027

>  <oscillator_strength_4>
0.0014

>  <open_babel_can_smiles>
N=C1NN=C(C1)O

>  <mulliken_charges>
12
1   -0.469421
2   0.500028
3   0.514299
4   -0.644681
5   -0.45415
6   -0.286809
7   -0.590671
8   0.201507
9   0.186207
10   0.282747
11   0.344048
12   0.416896

>  <lowdin_charges>
12
1   -0.336205
2   0.080982
3   0.087272
4   -0.423575
5   -0.208431
6   -0.130552
7   -0.346735
8   0.185095
9   0.177391
10   0.256902
11   0.293165
12   0.364692

$$$$

