PCCDB-ID:  7149
public computational chemistry database (PCCDB) project, http://pccdb.org

 20 20  0  0  1  0  0  0  0  0999 V2000
   -1.9662    0.1123    0.0427 C   0  0  0  0  0  0  0  0  0  0  0  0
   -1.2101    1.2840    0.0212 C   0  0  0  0  0  0  0  0  0  0  0  0
   -1.3185   -1.1260    0.0464 C   0  0  0  0  0  0  0  0  0  0  0  0
    0.1858    1.2215   -0.0010 C   0  0  0  0  0  0  0  0  0  0  0  0
    0.0741   -1.1860    0.0213 C   0  0  0  0  0  0  0  0  0  0  0  0
    2.8414   -0.6808   -1.4115 C   0  0  0  0  0  0  0  0  0  0  0  0
    0.8434   -0.0130   -0.0061 C   0  0  0  0  0  0  0  0  0  0  0  0
    2.3695   -0.0964   -0.0666 C   0  0  2  0  0  0  0  0  0  0  0  0
    2.6093    0.2631   -2.4569 O   0  0  0  0  0  0  0  0  0  0  0  0
    2.9969    1.1624    0.1164 O   0  0  0  0  0  0  0  0  0  0  0  0
   -3.0516    0.1607    0.0641 H   0  0  0  0  0  0  0  0  0  0  0  0
   -1.7048    2.2518    0.0296 H   0  0  0  0  0  0  0  0  0  0  0  0
   -1.8985   -2.0449    0.0731 H   0  0  0  0  0  0  0  0  0  0  0  0
    0.7793    2.1297    0.0135 H   0  0  0  0  0  0  0  0  0  0  0  0
    0.5678   -2.1562    0.0351 H   0  0  0  0  0  0  0  0  0  0  0  0
    2.3595   -1.6452   -1.6220 H   0  0  0  0  0  0  0  0  0  0  0  0
    3.9247   -0.8284   -1.3842 H   0  0  0  0  0  0  0  0  0  0  0  0
    2.7223   -0.7478    0.7438 H   0  0  0  0  0  0  0  0  0  0  0  0
    1.6457    0.3507   -2.5539 H   0  0  0  0  0  0  0  0  0  0  0  0
    3.0519    1.5462   -0.7786 H   0  0  0  0  0  0  0  0  0  0  0  0
  1  3  1  0  0  0  0
  1 11  1  0  0  0  0
  2 12  1  0  0  0  0
  2  1  2  0  0  0  0
  3 13  1  0  0  0  0
  4 14  1  0  0  0  0
  4  2  1  0  0  0  0
  5 15  1  0  0  0  0
  5  3  2  0  0  0  0
  6 17  1  0  0  0  0
  6  8  1  0  0  0  0
  7  4  2  0  0  0  0
  7  5  1  0  0  0  0
  8  7  1  0  0  0  0
  8 10  1  0  0  0  0
  8 18  1  1  0  0  0
  9  6  1  0  0  0  0
 16  6  1  0  0  0  0
 19  9  1  0  0  0  0
 20 10  1  0  0  0  0
M  END
>  <HBA>
2

>  <HBD>
2

>  <TPSA>
40.46

>  <cid>
7149

>  <dipole>
2.19

>  <excitation_energy_1>
5.315

>  <excitation_energy_2>
5.887

>  <excitation_energy_3>
6.051

>  <excitation_energy_4>
6.113

>  <homo_energy>
-6.71

>  <homo_lumo_gap>
6.498

>  <logP>
0.712

>  <lumo_energy>
-0.212

>  <melting_point>
43.72

>  <molecular_refractivity>
38.54

>  <oscillator_strength_1>
0.0013

>  <oscillator_strength_2>
0.0375

>  <oscillator_strength_3>
0.0042

>  <oscillator_strength_4>
0.0038

>  <open_babel_can_smiles>
OC[C@H](c1ccccc1)O

>  <mulliken_charges>
20
1   -0.128585
2   -0.128659
3   -0.131416
4   -0.188054
5   -0.181628
6   -0.068668
7   0.110807
8   0.060464
9   -0.622692
10   -0.631576
11   0.131083
12   0.132315
13   0.131546
14   0.141584
15   0.12436
16   0.135919
17   0.163824
18   0.146988
19   0.400739
20   0.40165

>  <lowdin_charges>
20
1   -0.156217
2   -0.153897
3   -0.155071
4   -0.17063
5   -0.171653
6   -0.149072
7   -0.032017
8   -0.020813
9   -0.462038
10   -0.45488
11   0.156362
12   0.158524
13   0.158706
14   0.165729
15   0.153553
16   0.137694
17   0.153989
18   0.153888
19   0.345677
20   0.342167

$$$$

