PCCDB-ID:  34225
public computational chemistry database (PCCDB) project, http://pccdb.org

 20 20  0  0  0  0  0  0  0  0999 V2000
    0.9718   -0.0670   -0.0989 C   0  0  0  0  0  0  0  0  0  0  0  0
    5.3727    2.4525   -0.0479 C   0  0  0  0  0  0  0  0  0  0  0  0
    3.2152    1.1169   -0.0734 C   0  0  0  0  0  0  0  0  0  0  0  0
    3.1939   -1.2814   -0.0819 C   0  0  0  0  0  0  0  0  0  0  0  0
    5.3006   -0.0748   -0.0578 C   0  0  0  0  0  0  0  0  0  0  0  0
    5.3210   -2.5730   -0.0641 C   0  0  0  0  0  0  0  0  0  0  0  0
    2.4833   -0.0770   -0.0847 C   0  0  0  0  0  0  0  0  0  0  0  0
    4.6189    1.1421   -0.0599 C   0  0  0  0  0  0  0  0  0  0  0  0
    4.5930   -1.2841   -0.0686 C   0  0  0  0  0  0  0  0  0  0  0  0
    6.5320   -2.6887   -0.0502 O   0  0  0  0  0  0  0  0  0  0  0  0
    0.5793    0.9544   -0.1017 H   0  0  0  0  0  0  0  0  0  0  0  0
    0.5606   -0.5803    0.7790 H   0  0  0  0  0  0  0  0  0  0  0  0
    0.5771   -0.5790   -0.9850 H   0  0  0  0  0  0  0  0  0  0  0  0
    4.6901    3.3079   -0.0383 H   0  0  0  0  0  0  0  0  0  0  0  0
    6.0174    2.5486   -0.9299 H   0  0  0  0  0  0  0  0  0  0  0  0
    6.0204    2.5306    0.8335 H   0  0  0  0  0  0  0  0  0  0  0  0
    2.6746    2.0617   -0.0757 H   0  0  0  0  0  0  0  0  0  0  0  0
    2.6580   -2.2296   -0.0902 H   0  0  0  0  0  0  0  0  0  0  0  0
    6.3867   -0.1121   -0.0482 H   0  0  0  0  0  0  0  0  0  0  0  0
    4.6663   -3.4735   -0.0747 H   0  0  0  0  0  0  0  0  0  0  0  0
  1  7  1  0  0  0  0
  1 12  1  0  0  0  0
  2 14  1  0  0  0  0
  2 16  1  0  0  0  0
  3  8  2  0  0  0  0
  4  9  1  0  0  0  0
  5 19  1  0  0  0  0
  6 10  2  0  0  0  0
  7  4  2  0  0  0  0
  7  3  1  0  0  0  0
  8  5  1  0  0  0  0
  8  2  1  0  0  0  0
  9  6  1  0  0  0  0
  9  5  2  0  0  0  0
 11  1  1  0  0  0  0
 13  1  1  0  0  0  0
 15  2  1  0  0  0  0
 17  3  1  0  0  0  0
 18  4  1  0  0  0  0
 20  6  1  0  0  0  0
M  END
>  <HBA>
1

>  <HBD>
0

>  <TPSA>
17.07

>  <cid>
34225

>  <dipole>
3.59

>  <excitation_energy_1>
3.711

>  <excitation_energy_2>
4.35

>  <excitation_energy_3>
4.998

>  <excitation_energy_4>
5.621

>  <homo_energy>
-6.702

>  <homo_lumo_gap>
5.151

>  <logP>
2.116

>  <lumo_energy>
-1.551

>  <melting_point>
46.76

>  <molecular_refractivity>
41.76

>  <oscillator_strength_1>
0.0001

>  <oscillator_strength_2>
0.0248

>  <oscillator_strength_3>
0.2009

>  <oscillator_strength_4>
0.0001

>  <open_babel_can_smiles>
O=Cc1cc(C)cc(c1)C

>  <mulliken_charges>
20
1   -0.53155
2   -0.530446
3   -0.229827
4   -0.237338
5   -0.217724
6   0.193853
7   0.183185
8   0.183226
9   0.104295
10   -0.409592
11   0.158304
12   0.166686
13   0.166608
14   0.155604
15   0.16919
16   0.169058
17   0.123395
18   0.129606
19   0.153515
20   0.099954

>  <lowdin_charges>
20
1   -0.443017
2   -0.443208
3   -0.16117
4   -0.158191
5   -0.139415
6   0.043484
7   0.003427
8   0.005082
9   -0.050798
10   -0.229186
11   0.157738
12   0.163855
13   0.163758
14   0.157476
15   0.165131
16   0.165086
17   0.155307
18   0.157567
19   0.169701
20   0.117372

$$$$

