PCCDB-ID:  23523
public computational chemistry database (PCCDB) project, http://pccdb.org

 35 36  0  0  0  0  0  0  0  0999 V2000
   -3.2312   -1.4251   -0.5712 C   0  0  0  0  0  0  0  0  0  0  0  0
    3.1939   -2.0817    4.0817 C   0  0  0  0  0  0  0  0  0  0  0  0
   -1.9278   -0.6298   -0.7466 C   0  0  0  0  0  0  0  0  0  0  0  0
   -3.1196   -2.4401    0.5772 C   0  0  0  0  0  0  0  0  0  0  0  0
    1.7664   -1.8086    4.5802 C   0  0  0  0  0  0  0  0  0  0  0  0
    3.2248   -2.2985    2.5603 C   0  0  0  0  0  0  0  0  0  0  0  0
   -0.7226   -1.5659   -0.9305 C   0  0  0  0  0  0  0  0  0  0  0  0
   -1.9089   -3.3680    0.3963 C   0  0  0  0  0  0  0  0  0  0  0  0
    0.8029   -2.9246    4.1469 C   0  0  0  0  0  0  0  0  0  0  0  0
    2.2516   -3.4046    2.1242 C   0  0  0  0  0  0  0  0  0  0  0  0
   -0.5887   -2.5965    0.2063 C   0  0  0  0  0  0  0  0  0  0  0  0
    0.8141   -3.1662    2.6255 C   0  0  0  0  0  0  0  0  0  0  0  0
   -0.0242   -1.7462    1.7625 S   0  0  0  0  0  0  0  0  0  0  0  0
   -3.4563   -1.9585   -1.5073 H   0  0  0  0  0  0  0  0  0  0  0  0
   -4.0712   -0.7418   -0.3920 H   0  0  0  0  0  0  0  0  0  0  0  0
    3.5854   -2.9790    4.5847 H   0  0  0  0  0  0  0  0  0  0  0  0
    3.8585   -1.2538    4.3596 H   0  0  0  0  0  0  0  0  0  0  0  0
   -1.7677    0.0098    0.1326 H   0  0  0  0  0  0  0  0  0  0  0  0
   -2.0052    0.0434   -1.6099 H   0  0  0  0  0  0  0  0  0  0  0  0
   -4.0363   -3.0393    0.6460 H   0  0  0  0  0  0  0  0  0  0  0  0
   -3.0195   -1.9037    1.5297 H   0  0  0  0  0  0  0  0  0  0  0  0
    1.4172   -0.8454    4.1837 H   0  0  0  0  0  0  0  0  0  0  0  0
    1.7549   -1.7171    5.6737 H   0  0  0  0  0  0  0  0  0  0  0  0
    4.2411   -2.5519    2.2330 H   0  0  0  0  0  0  0  0  0  0  0  0
    2.9526   -1.3637    2.0533 H   0  0  0  0  0  0  0  0  0  0  0  0
    0.2051   -0.9911   -1.0260 H   0  0  0  0  0  0  0  0  0  0  0  0
   -0.8503   -2.1263   -1.8692 H   0  0  0  0  0  0  0  0  0  0  0  0
   -2.0616   -3.9918   -0.4988 H   0  0  0  0  0  0  0  0  0  0  0  0
   -1.8274   -4.0589    1.2444 H   0  0  0  0  0  0  0  0  0  0  0  0
   -0.2174   -2.7110    4.4841 H   0  0  0  0  0  0  0  0  0  0  0  0
    1.1102   -3.8640    4.6315 H   0  0  0  0  0  0  0  0  0  0  0  0
    2.5914   -4.3689    2.5337 H   0  0  0  0  0  0  0  0  0  0  0  0
    2.2615   -3.5112    1.0324 H   0  0  0  0  0  0  0  0  0  0  0  0
    0.2114   -3.3000   -0.0523 H   0  0  0  0  0  0  0  0  0  0  0  0
    0.2002   -4.0478    2.4075 H   0  0  0  0  0  0  0  0  0  0  0  0
  1 15  1  0  0  0  0
  1  4  1  0  0  0  0
  2 17  1  0  0  0  0
  2  5  1  0  0  0  0
  2 16  1  0  0  0  0
  3  1  1  0  0  0  0
  3 18  1  0  0  0  0
  4 20  1  0  0  0  0
  4 21  1  0  0  0  0
  5 23  1  0  0  0  0
  6  2  1  0  0  0  0
  7  3  1  0  0  0  0
  7 11  1  0  0  0  0
  8  4  1  0  0  0  0
  8 29  1  0  0  0  0
  9 30  1  0  0  0  0
  9  5  1  0  0  0  0
  9 31  1  0  0  0  0
 10 32  1  0  0  0  0
 10  6  1  0  0  0  0
 10 12  1  0  0  0  0
 11  8  1  0  0  0  0
 11 13  1  0  0  0  0
 12  9  1  0  0  0  0
 13 12  1  0  0  0  0
 14  1  1  0  0  0  0
 19  3  1  0  0  0  0
 22  5  1  0  0  0  0
 24  6  1  0  0  0  0
 25  6  1  0  0  0  0
 26  7  1  0  0  0  0
 27  7  1  0  0  0  0
 28  8  1  0  0  0  0
 33 10  1  0  0  0  0
 34 11  1  0  0  0  0
 35 12  1  0  0  0  0
M  END
>  <HBA>
1

>  <HBD>
0

>  <TPSA>
25.3

>  <cid>
23523

>  <dipole>
1.43

>  <excitation_energy_1>
5.058

>  <excitation_energy_2>
5.307

>  <excitation_energy_3>
5.505

>  <excitation_energy_4>
5.592

>  <homo_energy>
-5.693

>  <homo_lumo_gap>
7.002

>  <logP>
4.385

>  <lumo_energy>
1.309

>  <melting_point>
23.58

>  <molecular_refractivity>
63.16

>  <oscillator_strength_1>
0.0061

>  <oscillator_strength_2>
0.0024

>  <oscillator_strength_3>
0.0114

>  <oscillator_strength_4>
0.0004

>  <open_babel_can_smiles>
C1CCC(CC1)SC1CCCCC1

>  <mulliken_charges>
35
1   -0.256075
2   -0.255955
3   -0.266972
4   -0.260452
5   -0.266654
6   -0.260641
7   -0.265904
8   -0.255524
9   -0.266296
10   -0.255656
11   -0.249926
12   -0.249854
13   0.059395
14   0.123854
15   0.131292
16   0.123818
17   0.131288
18   0.152402
19   0.131281
20   0.128321
21   0.154341
22   0.152537
23   0.131245
24   0.128323
25   0.154227
26   0.149304
27   0.131747
28   0.129451
29   0.137131
30   0.149408
31   0.131753
32   0.129649
33   0.137316
34   0.15589
35   0.155934

>  <lowdin_charges>
35
1   -0.27862
2   -0.279265
3   -0.281175
4   -0.281672
5   -0.278157
6   -0.280944
7   -0.279877
8   -0.282631
9   -0.278526
10   -0.279712
11   -0.220533
12   -0.220423
13   0.045061
14   0.135124
15   0.144593
16   0.135536
17   0.144824
18   0.149476
19   0.144757
20   0.143314
21   0.151121
22   0.149023
23   0.142192
24   0.142339
25   0.151333
26   0.153251
27   0.141907
28   0.140265
29   0.145398
30   0.152322
31   0.141968
32   0.139946
33   0.142923
34   0.152612
35   0.152248

$$$$

