PCCDB-ID:  49132
public computational chemistry database (PCCDB) project, http://pccdb.org

 35 35  0  0  1  0  0  0  0  0999 V2000
    5.4068    1.6288    3.4494 C   0  0  0  0  0  0  0  0  0  0  0  0
    8.5783    3.1772   -4.4832 C   0  0  0  0  0  0  0  0  0  0  0  0
    4.6023    2.1593    2.2998 C   0  0  0  0  0  0  0  0  0  0  0  0
    7.8750    2.4611   -3.3259 C   0  0  0  0  0  0  0  0  0  0  0  0
    4.7213    1.7677    1.0226 C   0  0  0  0  0  0  0  0  0  0  0  0
    6.5838    3.1665   -2.8880 C   0  0  0  0  0  0  0  0  0  0  0  0
    3.8590    2.2705   -0.1088 C   0  0  0  0  0  0  0  0  0  0  0  0
    5.8847    2.4460   -1.7274 C   0  0  0  0  0  0  0  0  0  0  0  0
    4.9179    4.5173   -0.6424 C   0  0  0  0  0  0  0  0  0  0  0  0
    3.6176    3.3523   -2.3734 C   0  0  0  0  0  0  0  0  0  0  0  0
    3.6158    5.6686   -2.1883 C   0  0  0  0  0  0  0  0  0  0  0  0
    4.5835    3.1376   -1.2101 C   0  0  2  0  0  0  0  0  0  0  0  0
    4.4963    5.6381   -1.0784 N   0  0  0  0  0  0  0  0  0  0  0  0
    3.1761    4.4646   -2.8028 N   0  0  0  0  0  0  0  0  0  0  0  0
    5.7646    4.5454    0.4065 O   0  0  0  0  0  0  0  0  0  0  0  0
    3.1893    2.2399   -3.0185 O   0  0  0  0  0  0  0  0  0  0  0  0
    3.2279    6.7314   -2.6186 O   0  0  0  0  0  0  0  0  0  0  0  0
    4.7522    1.1544    4.1922 H   0  0  0  0  0  0  0  0  0  0  0  0
    5.9327    2.4391    3.9703 H   0  0  0  0  0  0  0  0  0  0  0  0
    6.1458    0.8896    3.1241 H   0  0  0  0  0  0  0  0  0  0  0  0
    9.4942    2.6521   -4.7755 H   0  0  0  0  0  0  0  0  0  0  0  0
    8.8535    4.2014   -4.2056 H   0  0  0  0  0  0  0  0  0  0  0  0
    7.9298    3.2357   -5.3654 H   0  0  0  0  0  0  0  0  0  0  0  0
    3.8546    2.9159    2.5451 H   0  0  0  0  0  0  0  0  0  0  0  0
    8.5589    2.3899   -2.4682 H   0  0  0  0  0  0  0  0  0  0  0  0
    7.6443    1.4270   -3.6204 H   0  0  0  0  0  0  0  0  0  0  0  0
    5.4569    1.0010    0.7759 H   0  0  0  0  0  0  0  0  0  0  0  0
    5.9019    3.2404   -3.7452 H   0  0  0  0  0  0  0  0  0  0  0  0
    6.8164    4.1975   -2.5904 H   0  0  0  0  0  0  0  0  0  0  0  0
    3.0243    2.8582    0.2902 H   0  0  0  0  0  0  0  0  0  0  0  0
    3.4081    1.4013   -0.6065 H   0  0  0  0  0  0  0  0  0  0  0  0
    6.5851    2.3512   -0.8902 H   0  0  0  0  0  0  0  0  0  0  0  0
    5.6463    1.4132   -2.0257 H   0  0  0  0  0  0  0  0  0  0  0  0
    5.8217    3.6591    0.8125 H   0  0  0  0  0  0  0  0  0  0  0  0
    3.6324    1.4536   -2.6635 H   0  0  0  0  0  0  0  0  0  0  0  0
  1 19  1  0  0  0  0
  1 18  1  0  0  0  0
  2 22  1  0  0  0  0
  2  4  1  0  0  0  0
  3 24  1  0  0  0  0
  3  1  1  0  0  0  0
  4  6  1  0  0  0  0
  4 25  1  0  0  0  0
  5  3  2  0  0  0  0
  6 29  1  0  0  0  0
  6  8  1  0  0  0  0
  7 30  1  0  0  0  0
  7  5  1  0  0  0  0
  8 32  1  0  0  0  0
  9 15  1  0  0  0  0
 10 12  1  0  0  0  0
 11 13  2  0  0  0  0
 12  8  1  6  0  0  0
 12  9  1  0  0  0  0
 12  7  1  0  0  0  0
 13  9  2  0  0  0  0
 14 10  2  0  0  0  0
 14 11  1  0  0  0  0
 15 34  1  0  0  0  0
 16 35  1  0  0  0  0
 16 10  1  0  0  0  0
 17 11  2  0  0  0  0
 20  1  1  0  0  0  0
 21  2  1  0  0  0  0
 23  2  1  0  0  0  0
 26  4  1  0  0  0  0
 27  5  1  0  0  0  0
 28  6  1  0  0  0  0
 31  7  1  0  0  0  0
 33  8  1  0  0  0  0
M  END
>  <HBA>
5

>  <HBD>
2

>  <TPSA>
75.27

>  <cid>
49132

>  <dipole>
10.79

>  <excitation_energy_1>
3.977

>  <excitation_energy_2>
4.139

>  <excitation_energy_3>
5.171

>  <excitation_energy_4>
5.375

>  <homo_energy>
-6.746

>  <homo_lumo_gap>
5.314

>  <logP>
2.153

>  <lumo_energy>
-1.431

>  <melting_point>
149.37

>  <molecular_refractivity>
71.37

>  <oscillator_strength_1>
0.0

>  <oscillator_strength_2>
0.0

>  <oscillator_strength_3>
0.0127

>  <oscillator_strength_4>
0.0608

>  <open_babel_can_smiles>
CCCC[C@]1(C/C=C/C)C(=N[C](=[N]=C1O)=O)O

>  <mulliken_charges>
35
1   -0.494386
2   -0.444705
3   -0.080231
4   -0.253055
5   -0.161282
6   -0.274471
7   -0.31983
8   -0.284411
9   0.536182
10   0.549634
11   0.617332
12   -0.139184
13   -0.469844
14   -0.471045
15   -0.59093
16   -0.581175
17   -0.434786
18   0.174812
19   0.175011
20   0.161248
21   0.14711
22   0.153197
23   0.151496
24   0.155536
25   0.134969
26   0.130801
27   0.142134
28   0.163207
29   0.167056
30   0.182601
31   0.149957
32   0.150112
33   0.125725
34   0.416414
35   0.414801

>  <lowdin_charges>
35
1   -0.44398
2   -0.443072
3   -0.138854
4   -0.270032
5   -0.204
6   -0.284705
7   -0.272686
8   -0.273664
9   0.146854
10   0.146321
11   0.17205
12   -0.06145
13   -0.189105
14   -0.184717
15   -0.340042
16   -0.335401
17   -0.212736
18   0.170477
19   0.169575
20   0.160306
21   0.153022
22   0.151817
23   0.152116
24   0.162754
25   0.140954
26   0.13724
27   0.156488
28   0.155645
29   0.156763
30   0.170466
31   0.155665
32   0.152115
33   0.135648
34   0.351803
35   0.356365

$$$$

