PCCDB-ID:  23269
public computational chemistry database (PCCDB) project, http://pccdb.org

 22 23  0  0  1  0  0  0  0  0999 V2000
   -1.6290   -0.3115   -0.1866 C   0  0  0  0  0  0  0  0  0  0  0  0
   -1.0866    0.9729   -0.1065 C   0  0  0  0  0  0  0  0  0  0  0  0
   -0.7803   -1.4186   -0.1919 C   0  0  0  0  0  0  0  0  0  0  0  0
    0.2941    1.1486   -0.0275 C   0  0  0  0  0  0  0  0  0  0  0  0
    0.6016   -1.2393   -0.1138 C   0  0  0  0  0  0  0  0  0  0  0  0
    3.1689    0.5651    1.5211 C   0  0  0  0  0  0  0  0  0  0  0  0
    4.5081    1.2415    1.2084 C   0  0  0  0  0  0  0  0  0  0  0  0
    1.1558    0.0430   -0.0274 C   0  0  0  0  0  0  0  0  0  0  0  0
    2.6511    0.2144    0.1119 C   0  0  1  0  0  0  0  0  0  0  0  0
    3.2632    1.3407   -0.7392 C   0  0  0  0  0  0  0  0  0  0  0  0
    2.9278    1.7246   -1.8276 O   0  0  0  0  0  0  0  0  0  0  0  0
    4.3224    1.8837   -0.0700 O   0  0  0  0  0  0  0  0  0  0  0  0
   -2.7053   -0.4471   -0.2508 H   0  0  0  0  0  0  0  0  0  0  0  0
   -1.7395    1.8415   -0.1122 H   0  0  0  0  0  0  0  0  0  0  0  0
   -1.1913   -2.4223   -0.2601 H   0  0  0  0  0  0  0  0  0  0  0  0
    0.7045    2.1541    0.0131 H   0  0  0  0  0  0  0  0  0  0  0  0
    1.2582   -2.1068   -0.1217 H   0  0  0  0  0  0  0  0  0  0  0  0
    2.4837    1.2724    2.0010 H   0  0  0  0  0  0  0  0  0  0  0  0
    3.2747   -0.3048    2.1748 H   0  0  0  0  0  0  0  0  0  0  0  0
    5.3268    0.5169    1.1174 H   0  0  0  0  0  0  0  0  0  0  0  0
    4.7984    2.0126    1.9257 H   0  0  0  0  0  0  0  0  0  0  0  0
    3.1459   -0.7084   -0.2256 H   0  0  0  0  0  0  0  0  0  0  0  0
  1  2  1  0  0  0  0
  2  4  2  0  0  0  0
  3  1  2  0  0  0  0
  3  5  1  0  0  0  0
  4  8  1  0  0  0  0
  4 16  1  0  0  0  0
  5  8  2  0  0  0  0
  6 18  1  0  0  0  0
  6 19  1  0  0  0  0
  7  6  1  0  0  0  0
  7 21  1  0  0  0  0
  8  9  1  0  0  0  0
  9 22  1  6  0  0  0
  9  6  1  0  0  0  0
 10 12  1  0  0  0  0
 10  9  1  0  0  0  0
 11 10  2  0  0  0  0
 12  7  1  0  0  0  0
 13  1  1  0  0  0  0
 14  2  1  0  0  0  0
 15  3  1  0  0  0  0
 17  5  1  0  0  0  0
 20  7  1  0  0  0  0
M  END
>  <HBA>
2

>  <HBD>
0

>  <TPSA>
26.3

>  <cid>
23269

>  <dipole>
4.3

>  <excitation_energy_1>
5.303

>  <excitation_energy_2>
5.519

>  <excitation_energy_3>
5.857

>  <excitation_energy_4>
5.89

>  <homo_energy>
-6.67

>  <homo_lumo_gap>
6.485

>  <logP>
1.717

>  <lumo_energy>
-0.185

>  <melting_point>
40.18

>  <molecular_refractivity>
45.0

>  <oscillator_strength_1>
0.0007

>  <oscillator_strength_2>
0.0031

>  <oscillator_strength_3>
0.0075

>  <oscillator_strength_4>
0.041

>  <open_babel_can_smiles>
O=C1OCC[C@H]1c1ccccc1

>  <mulliken_charges>
22
1   -0.127437
2   -0.133808
3   -0.127984
4   -0.171751
5   -0.1916
6   -0.302264
7   -0.040563
8   0.212221
9   -0.320888
10   0.628364
11   -0.450154
12   -0.451891
13   0.131631
14   0.134027
15   0.131537
16   0.136999
17   0.12329
18   0.166337
19   0.159582
20   0.154769
21   0.166501
22   0.173081

>  <lowdin_charges>
22
1   -0.152894
2   -0.152413
3   -0.153645
4   -0.155307
5   -0.166112
6   -0.290131
7   -0.130251
8   0.003254
9   -0.16171
10   0.185807
11   -0.226643
12   -0.19076
13   0.157073
14   0.160659
15   0.158233
16   0.160561
17   0.154872
18   0.159781
19   0.161171
20   0.14714
21   0.160381
22   0.170934

$$$$

