PCCDB-ID:  33384
public computational chemistry database (PCCDB) project, http://pccdb.org

 30 30  0  0  1  0  0  0  0  0999 V2000
    3.2758   -3.0225    0.3145 C   0  0  0  0  0  0  0  0  0  0  0  0
    2.9739   -2.8297    7.3788 C   0  0  0  0  0  0  0  0  0  0  0  0
    9.2394   -1.1314    2.3106 C   0  0  0  0  0  0  0  0  0  0  0  0
    2.7072   -1.8611    0.6415 C   0  0  0  0  0  0  0  0  0  0  0  0
    3.8869   -3.2978    6.5297 C   0  0  0  0  0  0  0  0  0  0  0  0
    3.4189   -0.5339    0.8138 C   0  0  0  0  0  0  0  0  0  0  0  0
    4.1218   -2.7658    5.1402 C   0  0  0  0  0  0  0  0  0  0  0  0
    7.7437   -1.2398    2.4171 C   0  0  2  0  0  0  0  0  0  0  0  0
    5.6085   -0.9773    1.5667 C   0  0  0  0  0  0  0  0  0  0  0  0
    5.9047   -1.9705    3.8301 C   0  0  0  0  0  0  0  0  0  0  0  0
    4.8570   -0.5428    0.6263 N   0  0  0  0  0  0  0  0  0  0  0  0
    5.5435   -2.5270    4.9202 N   0  0  0  0  0  0  0  0  0  0  0  0
    6.9936   -0.8834    1.4285 N   0  0  0  0  0  0  0  0  0  0  0  0
    7.2607   -1.7190    3.6126 N   0  0  0  0  0  0  0  0  0  0  0  0
    5.1191   -1.5504    2.7697 N   0  0  0  0  0  0  0  0  0  0  0  0
    2.6860   -3.9273    0.1966 H   0  0  0  0  0  0  0  0  0  0  0  0
    4.3434   -3.1002    0.1296 H   0  0  0  0  0  0  0  0  0  0  0  0
    2.8304   -3.2675    8.3629 H   0  0  0  0  0  0  0  0  0  0  0  0
    2.3316   -1.9886    7.1244 H   0  0  0  0  0  0  0  0  0  0  0  0
    9.4967   -0.7474    1.3236 H   0  0  0  0  0  0  0  0  0  0  0  0
    9.7144   -2.1097    2.4542 H   0  0  0  0  0  0  0  0  0  0  0  0
    9.6355   -0.4525    3.0757 H   0  0  0  0  0  0  0  0  0  0  0  0
    1.6275   -1.8136    0.7925 H   0  0  0  0  0  0  0  0  0  0  0  0
    4.5267   -4.1320    6.8158 H   0  0  0  0  0  0  0  0  0  0  0  0
    3.1375   -0.1185    1.8009 H   0  0  0  0  0  0  0  0  0  0  0  0
    2.9958    0.1661    0.0793 H   0  0  0  0  0  0  0  0  0  0  0  0
    3.5203   -1.8517    4.9962 H   0  0  0  0  0  0  0  0  0  0  0  0
    3.7418   -3.5074    4.4120 H   0  0  0  0  0  0  0  0  0  0  0  0
    7.8769   -2.0158    4.3574 H   0  0  0  0  0  0  0  0  0  0  0  0
    4.1548   -1.8544    2.7712 H   0  0  0  0  0  0  0  0  0  0  0  0
  1  4  2  0  0  0  0
  2 18  1  0  0  0  0
  3 21  1  0  0  0  0
  3 22  1  0  0  0  0
  4 23  1  0  0  0  0
  4  6  1  0  0  0  0
  5 24  1  0  0  0  0
  5  2  2  0  0  0  0
  6 25  1  0  0  0  0
  7  5  1  0  0  0  0
  8  3  1  1  0  0  0
  8 14  1  0  0  0  0
  9 15  1  0  0  0  0
 10 12  2  0  0  0  0
 11  6  1  0  0  0  0
 11  9  1  0  0  0  0
 12  7  1  0  0  0  0
 13  9  2  0  0  0  0
 13  8  1  0  0  0  0
 14 10  1  0  0  0  0
 14 29  1  0  0  0  0
 15 30  1  0  0  0  0
 15 10  1  0  0  0  0
 16  1  1  0  0  0  0
 17  1  1  0  0  0  0
 19  2  1  0  0  0  0
 20  3  1  0  0  0  0
 26  6  1  0  0  0  0
 27  7  1  0  0  0  0
 28  7  1  0  0  0  0
M  RAD  2   8   2  11   2
M  END
>  <HBA>
5

>  <HBD>
2

>  <TPSA>
62.73

>  <cid>
33384

>  <dipole>
2.56

>  <excitation_energy_1>
4.754

>  <excitation_energy_2>
4.866

>  <excitation_energy_3>
5.135

>  <excitation_energy_4>
5.424

>  <homo_energy>
-6.27

>  <homo_lumo_gap>
5.592

>  <logP>
1.522

>  <lumo_energy>
-0.678

>  <melting_point>
80.93

>  <molecular_refractivity>
61.68

>  <oscillator_strength_1>
0.0014

>  <oscillator_strength_2>
0.0603

>  <oscillator_strength_3>
0.1219

>  <oscillator_strength_4>
0.0075

>  <open_babel_can_smiles>
C=CC[N]C1=N[C](N/C(=N/CC=C)/N1)C

>  <mulliken_charges>
30
1   -0.333937
2   -0.341248
3   -0.535209
4   -0.091365
5   -0.030693
6   -0.208678
7   -0.207499
8   0.516156
9   0.627837
10   0.761673
11   -0.44018
12   -0.512734
13   -0.485681
14   -0.671188
15   -0.732923
16   0.141465
17   0.159607
18   0.141134
19   0.133638
20   0.205617
21   0.173285
22   0.176309
23   0.130379
24   0.136216
25   0.130673
26   0.169339
27   0.135512
28   0.146328
29   0.348274
30   0.357894

>  <lowdin_charges>
30
1   -0.342635
2   -0.340462
3   -0.450544
4   -0.168782
5   -0.140115
6   -0.212236
7   -0.203125
8   0.121488
9   0.125059
10   0.134459
11   -0.216503
12   -0.268246
13   -0.197197
14   -0.231482
15   -0.269432
16   0.160854
17   0.165008
18   0.159195
19   0.153517
20   0.188246
21   0.169003
22   0.172007
23   0.151655
24   0.157334
25   0.133605
26   0.164137
27   0.136202
28   0.142926
29   0.305747
30   0.300317

$$$$

