PCCDB-ID:  24219
public computational chemistry database (PCCDB) project, http://pccdb.org

 23 22  0  0  0  0  0  0  0  0999 V2000
    1.2573   -0.7673   -0.1089 C   0  0  0  0  0  0  0  0  0  0  0  0
    2.1170    1.6415   -0.0902 C   0  0  0  0  0  0  0  0  0  0  0  0
    2.0380    0.3355    2.0505 C   0  0  0  0  0  0  0  0  0  0  0  0
    2.1914    1.7141   -1.6124 C   0  0  0  0  0  0  0  0  0  0  0  0
    2.3363   -0.9376    2.8497 C   0  0  0  0  0  0  0  0  0  0  0  0
    2.2498    0.2244    0.5272 C   0  0  0  0  0  0  0  0  0  0  0  0
    3.4316    1.1307   -2.0407 O   0  0  0  0  0  0  0  0  0  0  0  0
    2.1664   -0.7303    4.2522 O   0  0  0  0  0  0  0  0  0  0  0  0
    3.5884   -0.2541    0.3523 O   0  0  0  0  0  0  0  0  0  0  0  0
    0.2187   -0.4285   -0.0064 H   0  0  0  0  0  0  0  0  0  0  0  0
    1.3462   -1.7504    0.3613 H   0  0  0  0  0  0  0  0  0  0  0  0
    1.4722   -0.9002   -1.1746 H   0  0  0  0  0  0  0  0  0  0  0  0
    1.1624    2.0907    0.2151 H   0  0  0  0  0  0  0  0  0  0  0  0
    2.9169    2.2620    0.3320 H   0  0  0  0  0  0  0  0  0  0  0  0
    2.7010    1.1313    2.4209 H   0  0  0  0  0  0  0  0  0  0  0  0
    1.0086    0.6527    2.2609 H   0  0  0  0  0  0  0  0  0  0  0  0
    2.1357    2.7649   -1.9336 H   0  0  0  0  0  0  0  0  0  0  0  0
    1.3428    1.1834   -2.0668 H   0  0  0  0  0  0  0  0  0  0  0  0
    3.3461   -1.2975    2.6146 H   0  0  0  0  0  0  0  0  0  0  0  0
    1.6326   -1.7361    2.5957 H   0  0  0  0  0  0  0  0  0  0  0  0
    3.4241    1.0581   -3.0066 H   0  0  0  0  0  0  0  0  0  0  0  0
    2.8477   -0.0992    4.5320 H   0  0  0  0  0  0  0  0  0  0  0  0
    3.8213   -0.0744   -0.5770 H   0  0  0  0  0  0  0  0  0  0  0  0
  1 10  1  0  0  0  0
  1 11  1  0  0  0  0
  1  6  1  0  0  0  0
  2 13  1  0  0  0  0
  2 14  1  0  0  0  0
  2  6  1  0  0  0  0
  3 16  1  0  0  0  0
  3 15  1  0  0  0  0
  3  5  1  0  0  0  0
  4  2  1  0  0  0  0
  5  8  1  0  0  0  0
  6  3  1  0  0  0  0
  7  4  1  0  0  0  0
  8 22  1  0  0  0  0
  9  6  1  0  0  0  0
 12  1  1  0  0  0  0
 17  4  1  0  0  0  0
 18  4  1  0  0  0  0
 19  5  1  0  0  0  0
 20  5  1  0  0  0  0
 21  7  1  0  0  0  0
 23  9  1  0  0  0  0
M  END
>  <HBA>
3

>  <HBD>
3

>  <TPSA>
60.69

>  <cid>
24219

>  <dipole>
4.31

>  <excitation_energy_1>
6.025

>  <excitation_energy_2>
6.286

>  <excitation_energy_3>
6.392

>  <excitation_energy_4>
6.648

>  <homo_energy>
-6.68

>  <homo_lumo_gap>
8.017

>  <logP>
-0.498

>  <lumo_energy>
1.336

>  <melting_point>
40.31

>  <molecular_refractivity>
34.48

>  <oscillator_strength_1>
0.0047

>  <oscillator_strength_2>
0.0027

>  <oscillator_strength_3>
0.0109

>  <oscillator_strength_4>
0.0016

>  <open_babel_can_smiles>
OCCC(CCO)(O)C

>  <mulliken_charges>
23
1   -0.466989
2   -0.29568
3   -0.277738
4   -0.04862
5   -0.040609
6   0.316477
7   -0.630264
8   -0.623465
9   -0.673447
10   0.133476
11   0.159036
12   0.138193
13   0.135416
14   0.154502
15   0.12142
16   0.13379
17   0.134015
18   0.13331
19   0.151864
20   0.139966
21   0.403427
22   0.384107
23   0.417813

>  <lowdin_charges>
23
1   -0.457767
2   -0.300908
3   -0.296108
4   -0.135596
5   -0.137148
6   0.124269
7   -0.470622
8   -0.474727
9   -0.481193
10   0.145522
11   0.158157
12   0.146373
13   0.152716
14   0.156872
15   0.141085
16   0.145002
17   0.134599
18   0.1331
19   0.141192
20   0.144019
21   0.349279
22   0.339275
23   0.342609

$$$$

