PCCDB-ID:  72139
public computational chemistry database (PCCDB) project, http://pccdb.org

 15 16  0  0  0  0  0  0  0  0999 V2000
   -2.2227    0.6750   -0.0021 C   0  0  0  0  0  0  0  0  0  0  0  0
   -1.0692    1.4622   -0.0018 C   0  0  0  0  0  0  0  0  0  0  0  0
   -0.8862   -1.3627    0.0021 C   0  0  0  0  0  0  0  0  0  0  0  0
   -2.1330   -0.7245    0.0000 C   0  0  0  0  0  0  0  0  0  0  0  0
    0.2411   -0.5594    0.0015 C   0  0  0  0  0  0  0  0  0  0  0  0
    0.1736    0.8379   -0.0004 C   0  0  0  0  0  0  0  0  0  0  0  0
    2.5105   -0.1383    0.0029 C   0  0  0  0  0  0  0  0  0  0  0  0
   -3.2335   -1.5311   -0.0006 O   0  0  0  0  0  0  0  0  0  0  0  0
    3.6727   -0.4155    0.0045 O   0  0  0  0  0  0  0  0  0  0  0  0
    1.5105   -1.0869    0.0028 O   0  0  0  0  0  0  0  0  0  0  0  0
    1.8016    1.5239    0.0001 S   0  0  0  0  0  0  0  0  0  0  0  0
   -3.1994    1.1535   -0.0039 H   0  0  0  0  0  0  0  0  0  0  0  0
   -1.1496    2.5444   -0.0034 H   0  0  0  0  0  0  0  0  0  0  0  0
   -0.8145   -2.4438    0.0037 H   0  0  0  0  0  0  0  0  0  0  0  0
   -4.0327   -0.9817    0.0021 H   0  0  0  0  0  0  0  0  0  0  0  0
  1  2  2  0  0  0  0
  1  4  1  0  0  0  0
  2  6  1  0  0  0  0
  3 14  1  0  0  0  0
  4  3  2  0  0  0  0
  5  3  1  0  0  0  0
  5 10  1  0  0  0  0
  6 11  1  0  0  0  0
  6  5  2  0  0  0  0
  7  9  2  0  0  0  0
  8  4  1  0  0  0  0
  8 15  1  0  0  0  0
 10  7  1  0  0  0  0
 11  7  1  0  0  0  0
 12  1  1  0  0  0  0
 13  2  1  0  0  0  0
M  END
>  <HBA>
4

>  <HBD>
1

>  <TPSA>
78.68

>  <cid>
72139

>  <dipole>
5.43

>  <excitation_energy_1>
4.646

>  <excitation_energy_2>
4.652

>  <excitation_energy_3>
5.177

>  <excitation_energy_4>
5.279

>  <homo_energy>
-6.139

>  <homo_lumo_gap>
5.412

>  <logP>
1.56

>  <lumo_energy>
-0.727

>  <melting_point>
122.53

>  <molecular_refractivity>
42.38

>  <oscillator_strength_1>
0.0001

>  <oscillator_strength_2>
0.0776

>  <oscillator_strength_3>
0.0008

>  <oscillator_strength_4>
0.034

>  <open_babel_can_smiles>
Oc1ccc2c(c1)oc(=O)s2

>  <mulliken_charges>
15
1   -0.181413
2   -0.180227
3   -0.205871
4   0.350649
5   0.369932
6   -0.152235
7   0.443654
8   -0.637674
9   -0.422872
10   -0.467665
11   0.214608
12   0.130715
13   0.155748
14   0.169594
15   0.413057

>  <lowdin_charges>
15
1   -0.214478
2   -0.140852
3   -0.194479
4   0.111419
5   0.096628
6   -0.177682
7   0.093012
8   -0.36943
9   -0.203247
10   -0.12192
11   0.241627
12   0.160718
13   0.170533
14   0.185744
15   0.362409

$$$$

