PCCDB-ID:  7276
public computational chemistry database (PCCDB) project, http://pccdb.org

 17 18  0  0  1  0  0  0  0  0999 V2000
   -1.4399   -0.0130    0.0193 C   0  0  0  0  0  0  0  0  0  0  0  0
   -0.7237    1.1643    0.2487 C   0  0  0  0  0  0  0  0  0  0  0  0
   -0.7530   -1.2037   -0.2243 C   0  0  0  0  0  0  0  0  0  0  0  0
    0.6705    1.1517    0.2424 C   0  0  0  0  0  0  0  0  0  0  0  0
    0.6420   -1.2163   -0.2345 C   0  0  0  0  0  0  0  0  0  0  0  0
    3.6435    0.4358    1.1672 C   0  0  0  0  0  0  0  0  0  0  0  0
    1.3646   -0.0419    0.0082 C   0  0  0  0  0  0  0  0  0  0  0  0
    2.8563   -0.0790    0.0272 C   0  0  1  0  0  0  0  0  0  0  0  0
    3.5547    1.1715   -0.0554 O   0  0  0  0  0  0  0  0  0  0  0  0
   -2.5265   -0.0009    0.0229 H   0  0  0  0  0  0  0  0  0  0  0  0
   -1.2530    2.0968    0.4265 H   0  0  0  0  0  0  0  0  0  0  0  0
   -1.3026   -2.1222   -0.4125 H   0  0  0  0  0  0  0  0  0  0  0  0
    1.2347    2.0665    0.3967 H   0  0  0  0  0  0  0  0  0  0  0  0
    1.1742   -2.1447   -0.4311 H   0  0  0  0  0  0  0  0  0  0  0  0
    4.6233    0.0107    1.3888 H   0  0  0  0  0  0  0  0  0  0  0  0
    3.1160    0.8725    2.0153 H   0  0  0  0  0  0  0  0  0  0  0  0
    3.3073   -0.8778   -0.5651 H   0  0  0  0  0  0  0  0  0  0  0  0
  1 10  1  0  0  0  0
  1  2  2  0  0  0  0
  2 11  1  0  0  0  0
  3  1  1  0  0  0  0
  4  2  1  0  0  0  0
  4 13  1  0  0  0  0
  5  3  2  0  0  0  0
  5  7  1  0  0  0  0
  6 15  1  0  0  0  0
  6 16  1  0  0  0  0
  7  8  1  0  0  0  0
  7  4  2  0  0  0  0
  8 17  1  6  0  0  0
  8  6  1  0  0  0  0
  9  8  1  0  0  0  0
  9  6  1  0  0  0  0
 12  3  1  0  0  0  0
 14  5  1  0  0  0  0
M  END
>  <HBA>
1

>  <HBD>
0

>  <TPSA>
12.53

>  <cid>
7276

>  <dipole>
1.81

>  <excitation_energy_1>
5.221

>  <excitation_energy_2>
5.729

>  <excitation_energy_3>
6.105

>  <excitation_energy_4>
6.253

>  <homo_energy>
-6.501

>  <homo_lumo_gap>
6.299

>  <logP>
1.758

>  <lumo_energy>
-0.201

>  <melting_point>
20.12

>  <molecular_refractivity>
35.19

>  <oscillator_strength_1>
0.0003

>  <oscillator_strength_2>
0.1171

>  <oscillator_strength_3>
0.0025

>  <oscillator_strength_4>
0.018

>  <open_babel_can_smiles>
O1C[C@H]1c1ccccc1

>  <mulliken_charges>
17
1   -0.127145
2   -0.129044
3   -0.13484
4   -0.191286
5   -0.18541
6   -0.104632
7   0.172569
8   0.017313
9   -0.442841
10   0.130219
11   0.13197
12   0.131124
13   0.149728
14   0.125317
15   0.153292
16   0.155484
17   0.148184

>  <lowdin_charges>
17
1   -0.155114
2   -0.152595
3   -0.154588
4   -0.160413
5   -0.16528
6   -0.161973
7   -0.013609
8   -0.021627
9   -0.277818
10   0.156063
11   0.158915
12   0.158728
13   0.168315
14   0.155921
15   0.154261
16   0.156071
17   0.154743

$$$$

