PCCDB-ID:  60991
public computational chemistry database (PCCDB) project, http://pccdb.org

 19 19  0  0  0  0  0  0  0  0999 V2000
    3.1942   -0.9972   -0.5317 C   0  0  0  0  0  0  0  0  0  0  0  0
    3.3550    3.9325   -0.4870 C   0  0  0  0  0  0  0  0  0  0  0  0
    5.0575    2.6799   -1.6764 C   0  0  0  0  0  0  0  0  0  0  0  0
    2.7508    2.7543   -0.0772 C   0  0  0  0  0  0  0  0  0  0  0  0
    4.4645    1.4947   -1.2712 C   0  0  0  0  0  0  0  0  0  0  0  0
    4.5053    3.9057   -1.2859 C   0  0  0  0  0  0  0  0  0  0  0  0
    3.3052    1.5183   -0.4672 C   0  0  0  0  0  0  0  0  0  0  0  0
    5.0456    5.1819   -1.6533 N   0  0  0  0  0  0  0  0  0  0  0  0
    1.6632    0.3923    0.8032 N   0  0  0  0  0  0  0  0  0  0  0  0
    2.7150    0.3015   -0.0682 N   0  0  0  0  0  0  0  0  0  0  0  0
    6.0502    5.1346   -2.3530 O   0  0  0  0  0  0  0  0  0  0  0  0
    1.1722   -0.6679    1.1435 O   0  0  0  0  0  0  0  0  0  0  0  0
    4.2042   -1.1931   -0.1580 H   0  0  0  0  0  0  0  0  0  0  0  0
    3.1923   -1.0318   -1.6246 H   0  0  0  0  0  0  0  0  0  0  0  0
    2.5077   -1.7440   -0.1349 H   0  0  0  0  0  0  0  0  0  0  0  0
    2.9462    4.8967   -0.1996 H   0  0  0  0  0  0  0  0  0  0  0  0
    5.9491    2.6835   -2.2947 H   0  0  0  0  0  0  0  0  0  0  0  0
    1.8601    2.7736    0.5357 H   0  0  0  0  0  0  0  0  0  0  0  0
    4.9044    0.5518   -1.5733 H   0  0  0  0  0  0  0  0  0  0  0  0
  1 13  1  0  0  0  0
  1 15  1  0  0  0  0
  1 10  1  0  0  0  0
  2 16  1  0  0  0  0
  2  4  2  0  0  0  0
  3  6  2  0  0  0  0
  3  5  1  0  0  0  0
  4 18  1  0  0  0  0
  5  7  2  0  0  0  0
  6  2  1  0  0  0  0
  7  4  1  0  0  0  0
  7 10  1  0  0  0  0
  8  6  1  0  0  0  0
  9 12  2  0  0  0  0
 10  9  1  0  0  0  0
 11  8  1  0  0  0  0
 14  1  1  0  0  0  0
 17  3  1  0  0  0  0
 19  5  1  0  0  0  0
M  RAD  2   8   2  11   2
M  END
>  <HBA>
5

>  <HBD>
0

>  <TPSA>
62.1

>  <cid>
60991

>  <dipole>
3.31

>  <excitation_energy_1>
1.498

>  <excitation_energy_2>
2.906

>  <excitation_energy_3>
3.571

>  <excitation_energy_4>
3.708

>  <homo_energy>
-5.981

>  <homo_lumo_gap>
3.108

>  <logP>
2.202

>  <lumo_energy>
-2.874

>  <melting_point>
60.47

>  <molecular_refractivity>
46.03

>  <oscillator_strength_1>
0.0003

>  <oscillator_strength_2>
0.0008

>  <oscillator_strength_3>
0.0003

>  <oscillator_strength_4>
0.4178

>  <open_babel_can_smiles>
[O][N]c1ccc(cc1)N(N=O)C

>  <mulliken_charges>
19
1   -0.354589
2   -0.138363
3   -0.130907
4   -0.168025
5   -0.193372
6   0.225301
7   0.374665
8   -0.062414
9   0.192622
10   -0.364032
11   -0.292541
12   -0.34489
13   0.185165
14   0.184943
15   0.220806
16   0.163574
17   0.169204
18   0.181471
19   0.151382

>  <lowdin_charges>
19
1   -0.376838
2   -0.119732
3   -0.121495
4   -0.172094
5   -0.183676
6   -0.031748
7   0.06979
8   0.041471
9   0.075757
10   -0.019999
11   -0.186406
12   -0.218405
13   0.168537
14   0.168414
15   0.192919
16   0.178192
17   0.180493
18   0.184355
19   0.170466

$$$$

