PCCDB-ID:  44906
public computational chemistry database (PCCDB) project, http://pccdb.org

 36 35  0  0  0  0  0  0  0  0999 V2000
    0.7340   -0.7864    0.6251 C   0  0  0  0  0  0  0  0  0  0  0  0
   -0.0017   -2.0655    0.1810 C   0  0  0  0  0  0  0  0  0  0  0  0
    1.8859   -0.2972   -0.2775 C   0  0  0  0  0  0  0  0  0  0  0  0
   -0.8423   -1.9494   -1.1030 C   0  0  0  0  0  0  0  0  0  0  0  0
    1.4729    0.5983   -1.4554 C   0  0  0  0  0  0  0  0  0  0  0  0
   -1.8749   -3.0684   -1.3329 C   0  0  0  0  0  0  0  0  0  0  0  0
    2.6783    1.1120   -2.2455 C   0  0  0  0  0  0  0  0  0  0  0  0
   -1.3153   -4.4714   -1.6417 C   0  0  0  0  0  0  0  0  0  0  0  0
    3.1562    2.4964   -4.2496 C   0  0  0  0  0  0  0  0  0  0  0  0
   -1.5728   -5.9513    0.3392 C   0  0  0  0  0  0  0  0  0  0  0  0
    4.4078    2.2734   -4.3913 N   0  0  0  0  0  0  0  0  0  0  0  0
   -1.3071   -6.4413    1.4908 N   0  0  0  0  0  0  0  0  0  0  0  0
    2.2560    1.9398   -3.3651 N   0  0  0  0  0  0  0  0  0  0  0  0
   -0.7745   -5.2187   -0.5122 N   0  0  0  0  0  0  0  0  0  0  0  0
    1.1471   -0.9830    1.6229 H   0  0  0  0  0  0  0  0  0  0  0  0
    0.0042    0.0254    0.7603 H   0  0  0  0  0  0  0  0  0  0  0  0
   -0.6606   -2.3765    1.0034 H   0  0  0  0  0  0  0  0  0  0  0  0
    0.7459   -2.8653    0.0728 H   0  0  0  0  0  0  0  0  0  0  0  0
    2.4469   -1.1651   -0.6546 H   0  0  0  0  0  0  0  0  0  0  0  0
    2.5941    0.2694    0.3425 H   0  0  0  0  0  0  0  0  0  0  0  0
   -0.1845   -1.8942   -1.9815 H   0  0  0  0  0  0  0  0  0  0  0  0
   -1.3878   -0.9957   -1.0733 H   0  0  0  0  0  0  0  0  0  0  0  0
    0.9036    1.4569   -1.0679 H   0  0  0  0  0  0  0  0  0  0  0  0
    0.8057    0.0641   -2.1407 H   0  0  0  0  0  0  0  0  0  0  0  0
   -2.5018   -2.7759   -2.1870 H   0  0  0  0  0  0  0  0  0  0  0  0
   -2.5465   -3.1400   -0.4662 H   0  0  0  0  0  0  0  0  0  0  0  0
    3.2465    0.2589   -2.6407 H   0  0  0  0  0  0  0  0  0  0  0  0
    3.3610    1.6637   -1.5769 H   0  0  0  0  0  0  0  0  0  0  0  0
   -0.5360   -4.4002   -2.4119 H   0  0  0  0  0  0  0  0  0  0  0  0
   -2.1152   -5.0854   -2.0716 H   0  0  0  0  0  0  0  0  0  0  0  0
    2.6817    3.2031   -4.9370 H   0  0  0  0  0  0  0  0  0  0  0  0
   -2.5609   -6.1536   -0.0862 H   0  0  0  0  0  0  0  0  0  0  0  0
    4.7529    1.6041   -3.6961 H   0  0  0  0  0  0  0  0  0  0  0  0
   -0.3575   -6.1877    1.7905 H   0  0  0  0  0  0  0  0  0  0  0  0
    1.3872    2.4439   -3.2439 H   0  0  0  0  0  0  0  0  0  0  0  0
    0.1062   -4.8974   -0.1301 H   0  0  0  0  0  0  0  0  0  0  0  0
  1 16  1  0  0  0  0
  1 15  1  0  0  0  0
  2  1  1  0  0  0  0
  2 17  1  0  0  0  0
  3 20  1  0  0  0  0
  3  1  1  0  0  0  0
  4 22  1  0  0  0  0
  4  2  1  0  0  0  0
  5 23  1  0  0  0  0
  5  3  1  0  0  0  0
  6  4  1  0  0  0  0
  6 26  1  0  0  0  0
  7 28  1  0  0  0  0
  7  5  1  0  0  0  0
  8  6  1  0  0  0  0
  8 14  1  0  0  0  0
  9 13  1  0  0  0  0
 10 12  2  0  0  0  0
 11  9  2  0  0  0  0
 11 33  1  0  0  0  0
 12 34  1  0  0  0  0
 13 35  1  0  0  0  0
 13  7  1  0  0  0  0
 14 36  1  0  0  0  0
 14 10  1  0  0  0  0
 18  2  1  0  0  0  0
 19  3  1  0  0  0  0
 21  4  1  0  0  0  0
 24  5  1  0  0  0  0
 25  6  1  0  0  0  0
 27  7  1  0  0  0  0
 29  8  1  0  0  0  0
 30  8  1  0  0  0  0
 31  9  1  0  0  0  0
 32 10  1  0  0  0  0
M  END
>  <HBA>
4

>  <HBD>
2

>  <TPSA>
76.76

>  <cid>
44906

>  <dipole>
2.59

>  <excitation_energy_1>
5.331

>  <excitation_energy_2>
5.476

>  <excitation_energy_3>
5.589

>  <excitation_energy_4>
5.741

>  <homo_energy>
-6.112

>  <homo_lumo_gap>
7.189

>  <logP>
2.702

>  <lumo_energy>
1.078

>  <melting_point>
115.01

>  <molecular_refractivity>
62.97

>  <oscillator_strength_1>
0.0014

>  <oscillator_strength_2>
0.0025

>  <oscillator_strength_3>
0.022

>  <oscillator_strength_4>
0.0129

>  <open_babel_can_smiles>
N=CNCCCCCCCCNC=N

>  <mulliken_charges>
36
1   -0.264674
2   -0.260403
3   -0.258106
4   -0.260875
5   -0.294972
6   -0.258811
7   -0.111004
8   -0.147401
9   0.211169
10   0.223209
11   -0.58347
12   -0.58386
13   -0.556129
14   -0.540299
15   0.138096
16   0.133294
17   0.144531
18   0.116066
19   0.132988
20   0.138592
21   0.136464
22   0.135518
23   0.133596
24   0.155565
25   0.135838
26   0.145466
27   0.151996
28   0.143624
29   0.147018
30   0.158643
31   0.136053
32   0.137818
33   0.273615
34   0.257169
35   0.318117
36   0.315561

>  <lowdin_charges>
36
1   -0.276724
2   -0.279929
3   -0.277928
4   -0.281414
5   -0.285989
6   -0.290691
7   -0.200535
8   -0.199375
9   -0.043133
10   -0.038691
11   -0.433303
12   -0.43151
13   -0.304208
14   -0.298064
15   0.147737
16   0.141918
17   0.148721
18   0.130634
19   0.141715
20   0.147252
21   0.140166
22   0.14433
23   0.140432
24   0.151455
25   0.149364
26   0.148133
27   0.147699
28   0.137229
29   0.148278
30   0.157148
31   0.148297
32   0.146098
33   0.243463
34   0.235441
35   0.277659
36   0.268327

$$$$

