PCCDB-ID:  55487
public computational chemistry database (PCCDB) project, http://pccdb.org

 30 32  0  0  1  0  0  0  0  0999 V2000
    1.2149    0.0642   -0.0777 C   0  0  0  0  0  0  0  0  0  0  0  0
    5.5201   -5.6920    0.9016 C   0  0  0  0  0  0  0  0  0  0  0  0
    6.8383   -4.9822    1.0498 C   0  0  0  0  0  0  0  0  0  0  0  0
    4.3406   -4.7533    1.1945 C   0  0  0  0  0  0  0  0  0  0  0  0
    6.9547   -3.6408    0.9923 C   0  0  0  0  0  0  0  0  0  0  0  0
    3.2668   -2.4828    0.7910 C   0  0  0  0  0  0  0  0  0  0  0  0
    5.9956   -1.4131    0.6046 C   0  0  0  0  0  0  0  0  0  0  0  0
    2.7087    0.0318    0.0140 C   0  0  0  0  0  0  0  0  0  0  0  0
    4.4682   -3.4056    0.4647 C   0  0  1  0  0  0  0  0  0  0  0  0
    5.8319   -2.7595    0.7315 C   0  0  0  0  0  0  0  0  0  0  0  0
    3.5358   -1.0729    0.3478 C   0  0  0  0  0  0  0  0  0  0  0  0
    4.8397   -0.6234    0.3132 C   0  0  0  0  0  0  0  0  0  0  0  0
    3.5990    1.0710   -0.2049 C   0  0  0  0  0  0  0  0  0  0  0  0
    3.3782    2.4148   -0.5796 N   0  0  0  0  0  0  0  0  0  0  0  0
    2.1917    2.7502   -0.7420 O   0  0  0  0  0  0  0  0  0  0  0  0
    4.3535    3.1581   -0.7184 O   0  0  0  0  0  0  0  0  0  0  0  0
    4.8955    0.6883   -0.0239 O   0  0  0  0  0  0  0  0  0  0  0  0
    0.7936   -0.9212    0.1414 H   0  0  0  0  0  0  0  0  0  0  0  0
    0.8890    0.3764   -1.0746 H   0  0  0  0  0  0  0  0  0  0  0  0
    0.7943    0.7911    0.6242 H   0  0  0  0  0  0  0  0  0  0  0  0
    5.4365   -6.1018   -0.1181 H   0  0  0  0  0  0  0  0  0  0  0  0
    5.4849   -6.5618    1.5706 H   0  0  0  0  0  0  0  0  0  0  0  0
    7.7281   -5.5896    1.2021 H   0  0  0  0  0  0  0  0  0  0  0  0
    4.2974   -4.5641    2.2758 H   0  0  0  0  0  0  0  0  0  0  0  0
    3.3944   -5.2338    0.9177 H   0  0  0  0  0  0  0  0  0  0  0  0
    7.9309   -3.1744    1.1134 H   0  0  0  0  0  0  0  0  0  0  0  0
    3.0883   -2.4931    1.8783 H   0  0  0  0  0  0  0  0  0  0  0  0
    2.3621   -2.8920    0.3272 H   0  0  0  0  0  0  0  0  0  0  0  0
    6.9677   -0.9388    0.7006 H   0  0  0  0  0  0  0  0  0  0  0  0
    4.4461   -3.6064   -0.6207 H   0  0  0  0  0  0  0  0  0  0  0  0
  1  8  1  0  0  0  0
  1 18  1  0  0  0  0
  1 20  1  0  0  0  0
  2  3  1  0  0  0  0
  2  4  1  0  0  0  0
  2 22  1  0  0  0  0
  3 23  1  0  0  0  0
  4 24  1  0  0  0  0
  5  3  2  0  0  0  0
  5 26  1  0  0  0  0
  6 27  1  0  0  0  0
  7 29  1  0  0  0  0
  7 10  2  0  0  0  0
  8 11  1  0  0  0  0
  9 30  1  6  0  0  0
  9 10  1  0  0  0  0
  9  6  1  0  0  0  0
  9  4  1  0  0  0  0
 10  5  1  0  0  0  0
 11  6  1  0  0  0  0
 12 11  2  0  0  0  0
 12  7  1  0  0  0  0
 13 17  1  0  0  0  0
 13  8  2  0  0  0  0
 14 13  1  0  0  0  0
 15 14  2  0  0  0  0
 16 14  2  0  0  0  0
 17 12  1  0  0  0  0
 19  1  1  0  0  0  0
 21  2  1  0  0  0  0
 25  4  1  0  0  0  0
 28  6  1  0  0  0  0
M  END
>  <HBA>
1

>  <HBD>
0

>  <TPSA>
58.96

>  <cid>
55487

>  <dipole>
7.87

>  <excitation_energy_1>
3.172

>  <excitation_energy_2>
3.691

>  <excitation_energy_3>
4.05

>  <excitation_energy_4>
4.233

>  <homo_energy>
-5.652

>  <homo_lumo_gap>
3.325

>  <logP>
3.925

>  <lumo_energy>
-2.327

>  <melting_point>
130.59

>  <molecular_refractivity>
66.89

>  <oscillator_strength_1>
0.7455

>  <oscillator_strength_2>
0.0004

>  <oscillator_strength_3>
0.0668

>  <oscillator_strength_4>
0.0004

>  <open_babel_can_smiles>
O=N(=O)c1oc2c(c1C)C[C@H]1C(=C2)C=CCC1

>  <mulliken_charges>
30
1   -0.510752
2   -0.307997
3   -0.131077
4   -0.274741
5   -0.129967
6   -0.350899
7   -0.247443
8   0.120833
9   -0.171054
10   0.153237
11   0.047988
12   0.325863
13   0.456699
14   0.314777
15   -0.43013
16   -0.408789
17   -0.477
18   0.150153
19   0.189601
20   0.188877
21   0.157181
22   0.152236
23   0.138899
24   0.146701
25   0.13931
26   0.133306
27   0.15923
28   0.154575
29   0.154593
30   0.155791

>  <lowdin_charges>
30
1   -0.436041
2   -0.275537
3   -0.148751
4   -0.270517
5   -0.17213
6   -0.264914
7   -0.188326
8   0.001153
9   -0.120668
10   0.015857
11   -0.058787
12   0.09022
13   0.05123
14   0.300261
15   -0.279714
16   -0.258382
17   -0.069125
18   0.155933
19   0.179267
20   0.180571
21   0.155245
22   0.156747
23   0.161216
24   0.145785
25   0.148814
26   0.160545
27   0.153888
28   0.158619
29   0.174548
30   0.152993

$$$$

