PCCDB-ID:  48221
public computational chemistry database (PCCDB) project, http://pccdb.org

 35 34  0  0  0  0  0  0  0  0999 V2000
    6.9480    0.7433   -3.9964 C   0  0  0  0  0  0  0  0  0  0  0  0
    3.9620   -1.9124   -3.8112 C   0  0  0  0  0  0  0  0  0  0  0  0
    6.1518   -4.0429    0.4186 C   0  0  0  0  0  0  0  0  0  0  0  0
    2.3505   -6.5255   -1.4671 C   0  0  0  0  0  0  0  0  0  0  0  0
    6.6246    0.7030   -2.7040 C   0  0  0  0  0  0  0  0  0  0  0  0
    4.9723   -2.8710   -3.1748 C   0  0  0  0  0  0  0  0  0  0  0  0
    6.0963   -3.8322   -1.0982 C   0  0  0  0  0  0  0  0  0  0  0  0
    3.6489   -5.7189   -1.5355 C   0  0  0  0  0  0  0  0  0  0  0  0
    6.7837   -0.5066   -1.8137 C   0  0  0  0  0  0  0  0  0  0  0  0
    4.8329   -1.6581   -0.8798 C   0  0  0  0  0  0  0  0  0  0  0  0
    4.8816   -3.0296   -1.6328 C   0  0  0  0  0  0  0  0  0  0  0  0
    5.6162   -0.6677   -0.9727 N   0  0  0  0  0  0  0  0  0  0  0  0
    3.8374   -1.5103    0.0403 O   0  0  0  0  0  0  0  0  0  0  0  0
    3.2508   -3.9414   -1.2831 S   0  0  0  0  0  0  0  0  0  0  0  0
    6.8383    1.6505   -4.5846 H   0  0  0  0  0  0  0  0  0  0  0  0
    7.3399   -0.1275   -4.5189 H   0  0  0  0  0  0  0  0  0  0  0  0
    4.0841   -1.9104   -4.9000 H   0  0  0  0  0  0  0  0  0  0  0  0
    4.1079   -0.8873   -3.4587 H   0  0  0  0  0  0  0  0  0  0  0  0
    2.9340   -2.2138   -3.5877 H   0  0  0  0  0  0  0  0  0  0  0  0
    7.0468   -4.6149    0.6861 H   0  0  0  0  0  0  0  0  0  0  0  0
    5.2784   -4.5899    0.7891 H   0  0  0  0  0  0  0  0  0  0  0  0
    6.1954   -3.0870    0.9509 H   0  0  0  0  0  0  0  0  0  0  0  0
    2.5686   -7.5889   -1.6164 H   0  0  0  0  0  0  0  0  0  0  0  0
    1.6436   -6.2090   -2.2404 H   0  0  0  0  0  0  0  0  0  0  0  0
    1.8634   -6.4145   -0.4928 H   0  0  0  0  0  0  0  0  0  0  0  0
    6.2248    1.5859   -2.2069 H   0  0  0  0  0  0  0  0  0  0  0  0
    5.9860   -2.5576   -3.4457 H   0  0  0  0  0  0  0  0  0  0  0  0
    4.8515   -3.8722   -3.6083 H   0  0  0  0  0  0  0  0  0  0  0  0
    6.1371   -4.7973   -1.6170 H   0  0  0  0  0  0  0  0  0  0  0  0
    6.9980   -3.2921   -1.4108 H   0  0  0  0  0  0  0  0  0  0  0  0
    4.1207   -5.8415   -2.5162 H   0  0  0  0  0  0  0  0  0  0  0  0
    4.3511   -6.0599   -0.7698 H   0  0  0  0  0  0  0  0  0  0  0  0
    7.6272   -0.3162   -1.1302 H   0  0  0  0  0  0  0  0  0  0  0  0
    7.0764   -1.3701   -2.4251 H   0  0  0  0  0  0  0  0  0  0  0  0
    3.3958   -2.3701    0.1805 H   0  0  0  0  0  0  0  0  0  0  0  0
  1  5  2  0  0  0  0
  2 19  1  0  0  0  0
  2 18  1  0  0  0  0
  2  6  1  0  0  0  0
  3 20  1  0  0  0  0
  3 21  1  0  0  0  0
  3 22  1  0  0  0  0
  4 25  1  0  0  0  0
  5 26  1  0  0  0  0
  5  9  1  0  0  0  0
  6 11  1  0  0  0  0
  7  3  1  0  0  0  0
  8  4  1  0  0  0  0
  8 14  1  0  0  0  0
  8 32  1  0  0  0  0
  9 33  1  0  0  0  0
  9 12  1  0  0  0  0
 10 13  1  0  0  0  0
 11 14  1  0  0  0  0
 11  7  1  0  0  0  0
 11 10  1  0  0  0  0
 12 10  2  0  0  0  0
 13 35  1  0  0  0  0
 15  1  1  0  0  0  0
 16  1  1  0  0  0  0
 17  2  1  0  0  0  0
 23  4  1  0  0  0  0
 24  4  1  0  0  0  0
 27  6  1  0  0  0  0
 28  6  1  0  0  0  0
 29  7  1  0  0  0  0
 30  7  1  0  0  0  0
 31  8  1  0  0  0  0
 34  9  1  0  0  0  0
M  END
>  <HBA>
3

>  <HBD>
1

>  <TPSA>
54.4

>  <cid>
48221

>  <dipole>
4.66

>  <excitation_energy_1>
5.256

>  <excitation_energy_2>
5.303

>  <excitation_energy_3>
5.677

>  <excitation_energy_4>
5.771

>  <homo_energy>
-6.294

>  <homo_lumo_gap>
6.697

>  <logP>
2.991

>  <lumo_energy>
0.403

>  <melting_point>
18.08

>  <molecular_refractivity>
65.15

>  <oscillator_strength_1>
0.0014

>  <oscillator_strength_2>
0.0013

>  <oscillator_strength_3>
0.01

>  <oscillator_strength_4>
0.0033

>  <open_babel_can_smiles>
C=CC/N=C(\C(SCC)(CC)CC)/O

>  <mulliken_charges>
35
1   -0.344489
2   -0.460003
3   -0.467907
4   -0.45619
5   -0.034351
6   -0.252011
7   -0.263404
8   -0.408865
9   -0.193854
10   0.490234
11   -0.171384
12   -0.42095
13   -0.584822
14   0.044081
15   0.14186
16   0.130345
17   0.141828
18   0.172001
19   0.16796
20   0.148911
21   0.157839
22   0.175149
23   0.158192
24   0.171017
25   0.168182
26   0.145461
27   0.148639
28   0.138553
29   0.1436
30   0.159394
31   0.176371
32   0.179097
33   0.159419
34   0.121764
35   0.418331

>  <lowdin_charges>
35
1   -0.347005
2   -0.449926
3   -0.454881
4   -0.442418
5   -0.143067
6   -0.272591
7   -0.275185
8   -0.369107
9   -0.199317
10   0.13133
11   -0.103105
12   -0.210719
13   -0.370581
14   0.064275
15   0.160439
16   0.151855
17   0.150527
18   0.16147
19   0.158893
20   0.155562
21   0.154711
22   0.163453
23   0.158017
24   0.163469
25   0.160719
26   0.162035
27   0.146564
28   0.144857
29   0.14649
30   0.156646
31   0.157316
32   0.159829
33   0.156897
34   0.128371
35   0.344176

$$$$

