PCCDB-ID:  7021
public computational chemistry database (PCCDB) project, http://pccdb.org

 31 31  0  0  0  0  0  0  0  0999 V2000
    1.7480    0.2376    0.1570 C   0  0  0  0  0  0  0  0  0  0  0  0
    6.9889   -4.6608    0.7741 C   0  0  0  0  0  0  0  0  0  0  0  0
    6.2312   -0.0660    0.0002 C   0  0  0  0  0  0  0  0  0  0  0  0
    2.0387   -4.9111   -0.4977 C   0  0  0  0  0  0  0  0  0  0  0  0
    0.7528   -4.8271   -0.8925 C   0  0  0  0  0  0  0  0  0  0  0  0
    2.5050   -2.4817   -0.0502 C   0  0  0  0  0  0  0  0  0  0  0  0
    4.2747   -4.1320    0.1645 C   0  0  0  0  0  0  0  0  0  0  0  0
    2.9373   -3.8169   -0.1261 C   0  0  0  0  0  0  0  0  0  0  0  0
    3.4026   -1.4769    0.3121 C   0  0  0  0  0  0  0  0  0  0  0  0
    5.1786   -3.1268    0.5236 C   0  0  0  0  0  0  0  0  0  0  0  0
   -0.0843   -5.9770   -1.3134 C   0  0  0  0  0  0  0  0  0  0  0  0
    4.7444   -1.7927    0.6110 C   0  0  0  0  0  0  0  0  0  0  0  0
   -1.0455   -5.8539   -2.0375 O   0  0  0  0  0  0  0  0  0  0  0  0
    0.2743   -7.2163   -0.8635 O   0  0  0  0  0  0  0  0  0  0  0  0
    3.0885   -0.1559    0.4120 O   0  0  0  0  0  0  0  0  0  0  0  0
    6.4940   -3.3312    0.8077 O   0  0  0  0  0  0  0  0  0  0  0  0
    5.6066   -0.8235    1.0404 O   0  0  0  0  0  0  0  0  0  0  0  0
    1.0496   -0.2389    0.8569 H   0  0  0  0  0  0  0  0  0  0  0  0
    1.4463    0.0028   -0.8722 H   0  0  0  0  0  0  0  0  0  0  0  0
    1.7239    1.3187    0.3030 H   0  0  0  0  0  0  0  0  0  0  0  0
    6.9011   -5.1013   -0.2280 H   0  0  0  0  0  0  0  0  0  0  0  0
    6.4698   -5.3026    1.4981 H   0  0  0  0  0  0  0  0  0  0  0  0
    8.0436   -4.5913    1.0459 H   0  0  0  0  0  0  0  0  0  0  0  0
    6.8813    0.6554    0.5002 H   0  0  0  0  0  0  0  0  0  0  0  0
    5.4864    0.4687   -0.6002 H   0  0  0  0  0  0  0  0  0  0  0  0
    6.8357   -0.7134   -0.6469 H   0  0  0  0  0  0  0  0  0  0  0  0
    2.5085   -5.8957   -0.4679 H   0  0  0  0  0  0  0  0  0  0  0  0
    0.2570   -3.8703   -1.0210 H   0  0  0  0  0  0  0  0  0  0  0  0
    1.4737   -2.2373   -0.2687 H   0  0  0  0  0  0  0  0  0  0  0  0
    4.5999   -5.1639    0.0973 H   0  0  0  0  0  0  0  0  0  0  0  0
    0.9336   -7.1280   -0.1565 H   0  0  0  0  0  0  0  0  0  0  0  0
  1 20  1  0  0  0  0
  1 15  1  0  0  0  0
  1 18  1  0  0  0  0
  2 16  1  0  0  0  0
  2 23  1  0  0  0  0
  2 22  1  0  0  0  0
  3 24  1  0  0  0  0
  3 17  1  0  0  0  0
  4 27  1  0  0  0  0
  4  8  1  0  0  0  0
  5  4  2  0  0  0  0
  6  9  1  0  0  0  0
  7 10  2  0  0  0  0
  8  6  2  0  0  0  0
  8  7  1  0  0  0  0
  9 15  1  0  0  0  0
  9 12  2  0  0  0  0
 10 12  1  0  0  0  0
 10 16  1  0  0  0  0
 11  5  1  0  0  0  0
 11 14  1  0  0  0  0
 12 17  1  0  0  0  0
 13 11  2  0  0  0  0
 14 31  1  0  0  0  0
 19  1  1  0  0  0  0
 21  2  1  0  0  0  0
 25  3  1  0  0  0  0
 26  3  1  0  0  0  0
 28  5  1  0  0  0  0
 29  6  1  0  0  0  0
 30  7  1  0  0  0  0
M  END
>  <HBA>
5

>  <HBD>
1

>  <TPSA>
64.99

>  <cid>
7021

>  <dipole>
4.53

>  <excitation_energy_1>
3.755

>  <excitation_energy_2>
3.857

>  <excitation_energy_3>
4.308

>  <excitation_energy_4>
4.775

>  <homo_energy>
-5.97

>  <homo_lumo_gap>
4.112

>  <logP>
1.81

>  <lumo_energy>
-1.859

>  <melting_point>
121.66

>  <molecular_refractivity>
62.59

>  <oscillator_strength_1>
0.1239

>  <oscillator_strength_2>
0.3559

>  <oscillator_strength_3>
0.0004

>  <oscillator_strength_4>
0.0016

>  <open_babel_can_smiles>
COc1cc(/C=C/C(=O)O)cc(c1OC)OC

>  <mulliken_charges>
31
1   -0.217868
2   -0.216395
3   -0.206488
4   -0.181328
5   -0.206135
6   -0.276419
7   -0.290765
8   0.185011
9   0.367624
10   0.358335
11   0.57808
12   0.256741
13   -0.454326
14   -0.576666
15   -0.507602
16   -0.504267
17   -0.509105
18   0.157849
19   0.155804
20   0.175616
21   0.152917
22   0.153958
23   0.17585
24   0.162504
25   0.153306
26   0.147723
27   0.126871
28   0.160596
29   0.139361
30   0.133686
31   0.40553

>  <lowdin_charges>
31
1   -0.274719
2   -0.27561
3   -0.274259
4   -0.129919
5   -0.209755
6   -0.219276
7   -0.22224
8   0.00031
9   0.090801
10   0.088503
11   0.187622
12   0.053918
13   -0.24117
14   -0.366522
15   -0.189155
16   -0.187677
17   -0.210254
18   0.150056
19   0.146175
20   0.164142
21   0.144885
22   0.147878
23   0.164588
24   0.15985
25   0.147271
26   0.144842
27   0.151839
28   0.175044
29   0.165406
30   0.161977
31   0.355451

$$$$

