PCCDB-ID:  67513
public computational chemistry database (PCCDB) project, http://pccdb.org

 23 24  0  0  1  0  0  0  0  0999 V2000
    1.5164   -1.2968   -0.1457 C   0  0  0  0  0  0  0  0  0  0  0  0
    0.1533   -1.9825    0.1802 C   0  0  0  0  0  0  0  0  0  0  0  0
    1.9249   -0.0102    0.6223 C   0  0  0  0  0  0  0  0  0  0  0  0
   -1.1163   -1.5699   -0.6137 C   0  0  0  0  0  0  0  0  0  0  0  0
    1.4540    1.3449    0.0340 C   0  0  0  0  0  0  0  0  0  0  0  0
   -1.9338   -0.3695   -0.0698 C   0  0  0  0  0  0  0  0  0  0  0  0
    0.0371    1.2159   -0.4769 C   0  0  1  0  0  0  0  0  0  0  0  0
   -0.9952    0.7076    0.4238 C   0  0  1  0  0  0  0  0  0  0  0  0
   -1.0389    2.0688   -0.0432 O   0  0  0  0  0  0  0  0  0  0  0  0
    1.5875   -1.1287   -1.2304 H   0  0  0  0  0  0  0  0  0  0  0  0
    2.2881   -2.0437    0.0799 H   0  0  0  0  0  0  0  0  0  0  0  0
   -0.0379   -1.9155    1.2613 H   0  0  0  0  0  0  0  0  0  0  0  0
    0.3016   -3.0515   -0.0189 H   0  0  0  0  0  0  0  0  0  0  0  0
    3.0196    0.0137    0.6961 H   0  0  0  0  0  0  0  0  0  0  0  0
    1.5608   -0.0987    1.6548 H   0  0  0  0  0  0  0  0  0  0  0  0
   -1.7845   -2.4387   -0.6686 H   0  0  0  0  0  0  0  0  0  0  0  0
   -0.8178   -1.3606   -1.6498 H   0  0  0  0  0  0  0  0  0  0  0  0
    2.1226    1.6599   -0.7771 H   0  0  0  0  0  0  0  0  0  0  0  0
    1.4996    2.1218    0.8062 H   0  0  0  0  0  0  0  0  0  0  0  0
   -2.5954   -0.6969    0.7420 H   0  0  0  0  0  0  0  0  0  0  0  0
   -2.5755    0.0332   -0.8624 H   0  0  0  0  0  0  0  0  0  0  0  0
   -0.0549    0.9392   -1.5290 H   0  0  0  0  0  0  0  0  0  0  0  0
   -0.7295    0.6434    1.4807 H   0  0  0  0  0  0  0  0  0  0  0  0
  1 11  1  0  0  0  0
  1  2  1  0  0  0  0
  1  3  1  0  0  0  0
  2 12  1  0  0  0  0
  3 14  1  0  0  0  0
  3 15  1  0  0  0  0
  4  6  1  0  0  0  0
  4  2  1  0  0  0  0
  5  3  1  0  0  0  0
  5 19  1  0  0  0  0
  6  8  1  0  0  0  0
  6 20  1  0  0  0  0
  7 22  1  6  0  0  0
  7  9  1  0  0  0  0
  7  5  1  0  0  0  0
  7  8  1  0  0  0  0
  8 23  1  1  0  0  0
  9  8  1  0  0  0  0
 10  1  1  0  0  0  0
 13  2  1  0  0  0  0
 16  4  1  0  0  0  0
 17  4  1  0  0  0  0
 18  5  1  0  0  0  0
 21  6  1  0  0  0  0
M  END
>  <HBA>
1

>  <HBD>
0

>  <TPSA>
12.53

>  <cid>
67513

>  <dipole>
2.36

>  <excitation_energy_1>
6.616

>  <excitation_energy_2>
6.687

>  <excitation_energy_3>
6.901

>  <excitation_energy_4>
7.027

>  <homo_energy>
-6.928

>  <homo_lumo_gap>
8.985

>  <logP>
2.108

>  <lumo_energy>
2.057

>  <melting_point>
8.32

>  <molecular_refractivity>
37.43

>  <oscillator_strength_1>
0.0043

>  <oscillator_strength_2>
0.0075

>  <oscillator_strength_3>
0.0013

>  <oscillator_strength_4>
0.0094

>  <open_babel_can_smiles>
C1CCC[C@H]2[C@H](CC1)O2

>  <mulliken_charges>
23
1   -0.260869
2   -0.260661
3   -0.264353
4   -0.26442
5   -0.292752
6   -0.292735
7   0.094348
8   0.094814
9   -0.474568
10   0.13
11   0.135288
12   0.129936
13   0.135213
14   0.133787
15   0.134827
16   0.133816
17   0.134784
18   0.137286
19   0.153288
20   0.137278
21   0.15324
22   0.136285
23   0.136167

>  <lowdin_charges>
23
1   -0.281732
2   -0.279683
3   -0.275453
4   -0.277962
5   -0.288931
6   -0.289023
7   -0.03064
8   -0.028193
9   -0.284221
10   0.137564
11   0.148483
12   0.137559
13   0.145842
14   0.142439
15   0.13956
16   0.145161
17   0.139557
18   0.147527
19   0.159185
20   0.147482
21   0.159689
22   0.142973
23   0.142818

$$$$

