PCCDB-ID:  21899
public computational chemistry database (PCCDB) project, http://pccdb.org

 30 30  0  0  1  0  0  0  0  0999 V2000
    4.5934   -0.6152   -1.4929 C   0  0  0  0  0  0  0  0  0  0  0  0
    4.9590    1.4958    4.5829 C   0  0  0  0  0  0  0  0  0  0  0  0
    4.0998   -0.4138   -0.0566 C   0  0  0  0  0  0  0  0  0  0  0  0
    5.0882    0.3765    0.8110 C   0  0  0  0  0  0  0  0  0  0  0  0
    4.5847    0.5810    2.2431 C   0  0  0  0  0  0  0  0  0  0  0  0
    7.7382    3.0600    1.2593 C   0  0  0  0  0  0  0  0  0  0  0  0
    7.7852    1.6668    3.4208 C   0  0  0  0  0  0  0  0  0  0  0  0
    7.2271    2.9000    2.6911 C   0  0  2  0  0  0  0  0  0  0  0  0
    5.5362    1.3414    3.1719 C   0  0  2  0  0  0  0  0  0  0  0  0
    6.9651    4.0073    0.5472 O   0  0  0  0  0  0  0  0  0  0  0  0
    6.7920    0.6719    3.2049 O   0  0  0  0  0  0  0  0  0  0  0  0
    5.8118    2.6501    2.6364 O   0  0  0  0  0  0  0  0  0  0  0  0
    3.8690   -1.1814   -2.0893 H   0  0  0  0  0  0  0  0  0  0  0  0
    5.5429   -1.1642   -1.5116 H   0  0  0  0  0  0  0  0  0  0  0  0
    4.7587    0.3469   -1.9932 H   0  0  0  0  0  0  0  0  0  0  0  0
    4.7463    0.5140    5.0179 H   0  0  0  0  0  0  0  0  0  0  0  0
    4.0324    2.0770    4.5505 H   0  0  0  0  0  0  0  0  0  0  0  0
    5.6646    2.0198    5.2351 H   0  0  0  0  0  0  0  0  0  0  0  0
    3.9118   -1.3930    0.4066 H   0  0  0  0  0  0  0  0  0  0  0  0
    3.1308    0.1056   -0.0723 H   0  0  0  0  0  0  0  0  0  0  0  0
    5.2777    1.3529    0.3465 H   0  0  0  0  0  0  0  0  0  0  0  0
    6.0515   -0.1473    0.8410 H   0  0  0  0  0  0  0  0  0  0  0  0
    4.3829   -0.3934    2.7069 H   0  0  0  0  0  0  0  0  0  0  0  0
    3.6314    1.1253    2.2325 H   0  0  0  0  0  0  0  0  0  0  0  0
    7.7289    2.0750    0.7644 H   0  0  0  0  0  0  0  0  0  0  0  0
    8.7713    3.4265    1.2657 H   0  0  0  0  0  0  0  0  0  0  0  0
    7.9337    1.8609    4.4923 H   0  0  0  0  0  0  0  0  0  0  0  0
    8.7258    1.3003    2.9982 H   0  0  0  0  0  0  0  0  0  0  0  0
    7.3901    3.8295    3.2494 H   0  0  0  0  0  0  0  0  0  0  0  0
    6.0397    3.7738    0.7349 H   0  0  0  0  0  0  0  0  0  0  0  0
  1  3  1  0  0  0  0
  2 16  1  0  0  0  0
  2 18  1  0  0  0  0
  3 19  1  0  0  0  0
  3  4  1  0  0  0  0
  4 22  1  0  0  0  0
  4  5  1  0  0  0  0
  5 23  1  0  0  0  0
  6 26  1  0  0  0  0
  6  8  1  0  0  0  0
  7 27  1  0  0  0  0
  8 29  1  1  0  0  0
  8  7  1  0  0  0  0
  9  5  1  6  0  0  0
  9 11  1  0  0  0  0
  9  2  1  0  0  0  0
 10 30  1  0  0  0  0
 10  6  1  0  0  0  0
 11  7  1  0  0  0  0
 12  8  1  0  0  0  0
 12  9  1  0  0  0  0
 13  1  1  0  0  0  0
 14  1  1  0  0  0  0
 15  1  1  0  0  0  0
 17  2  1  0  0  0  0
 20  3  1  0  0  0  0
 21  4  1  0  0  0  0
 24  5  1  0  0  0  0
 25  6  1  0  0  0  0
 28  7  1  0  0  0  0
M  END
>  <HBA>
3

>  <HBD>
1

>  <TPSA>
38.69

>  <cid>
21899

>  <dipole>
1.96

>  <excitation_energy_1>
6.474

>  <excitation_energy_2>
6.615

>  <excitation_energy_3>
6.682

>  <excitation_energy_4>
6.859

>  <homo_energy>
-6.833

>  <homo_lumo_gap>
8.879

>  <logP>
1.3

>  <lumo_energy>
2.046

>  <melting_point>
5.76

>  <molecular_refractivity>
46.63

>  <oscillator_strength_1>
0.0093

>  <oscillator_strength_2>
0.0004

>  <oscillator_strength_3>
0.0042

>  <oscillator_strength_4>
0.0085

>  <open_babel_can_smiles>
CCCC[C@@]1(C)OC[C@H](O1)CO

>  <mulliken_charges>
30
1   -0.441975
2   -0.453274
3   -0.250517
4   -0.261111
5   -0.278475
6   -0.029488
7   -0.076053
8   0.110839
9   0.533455
10   -0.630596
11   -0.499205
12   -0.547474
13   0.141834
14   0.142596
15   0.144423
16   0.152341
17   0.155048
18   0.146386
19   0.130761
20   0.12945
21   0.13511
22   0.147893
23   0.14211
24   0.139811
25   0.130583
26   0.138183
27   0.139753
28   0.157941
29   0.142512
30   0.407138

>  <lowdin_charges>
30
1   -0.445457
2   -0.460616
3   -0.270602
4   -0.277898
5   -0.284527
6   -0.147351
7   -0.143338
8   -0.029753
9   0.219507
10   -0.464005
11   -0.258866
12   -0.283761
13   0.150789
14   0.14691
15   0.147743
16   0.157895
17   0.160562
18   0.156727
19   0.13839
20   0.13762
21   0.140257
22   0.147407
23   0.1528
24   0.151279
25   0.131131
26   0.144985
27   0.135866
28   0.157215
29   0.1461
30   0.342992

$$$$

