PCCDB-ID:  33773
public computational chemistry database (PCCDB) project, http://pccdb.org

 24 23  0  0  0  0  0  0  0  0999 V2000
    0.1912   -0.4038   -1.3537 C   0  0  0  0  0  0  0  0  0  0  0  0
    1.6347   -0.0086   -1.2743 C   0  0  0  0  0  0  0  0  0  0  0  0
    2.6749   -0.8565   -1.3398 C   0  0  0  0  0  0  0  0  0  0  0  0
    4.0683   -0.4483   -1.2550 C   0  0  0  0  0  0  0  0  0  0  0  0
    5.1158   -1.2854   -1.3276 C   0  0  0  0  0  0  0  0  0  0  0  0
    9.1890   -2.2623    0.8431 C   0  0  0  0  0  0  0  0  0  0  0  0
    6.5463   -0.8502   -1.2816 C   0  0  0  0  0  0  0  0  0  0  0  0
    8.6193   -1.3231   -0.2094 C   0  0  0  0  0  0  0  0  0  0  0  0
    8.9086   -3.6147    0.5270 O   0  0  0  0  0  0  0  0  0  0  0  0
    7.2191   -1.5606   -0.2461 O   0  0  0  0  0  0  0  0  0  0  0  0
   -0.3108    0.0884   -2.1982 H   0  0  0  0  0  0  0  0  0  0  0  0
   -0.3542   -0.1013   -0.4490 H   0  0  0  0  0  0  0  0  0  0  0  0
    0.0750   -1.4861   -1.4737 H   0  0  0  0  0  0  0  0  0  0  0  0
    1.8378    1.0568   -1.1518 H   0  0  0  0  0  0  0  0  0  0  0  0
    2.4844   -1.9239   -1.4620 H   0  0  0  0  0  0  0  0  0  0  0  0
    4.2535    0.6198   -1.1280 H   0  0  0  0  0  0  0  0  0  0  0  0
    4.9502   -2.3563   -1.4455 H   0  0  0  0  0  0  0  0  0  0  0  0
    8.7829   -1.9866    1.8300 H   0  0  0  0  0  0  0  0  0  0  0  0
   10.2785   -2.1594    0.8850 H   0  0  0  0  0  0  0  0  0  0  0  0
    6.6174    0.2364   -1.1106 H   0  0  0  0  0  0  0  0  0  0  0  0
    7.0446   -1.0613   -2.2455 H   0  0  0  0  0  0  0  0  0  0  0  0
    9.0679   -1.5418   -1.1923 H   0  0  0  0  0  0  0  0  0  0  0  0
    8.8340   -0.2709    0.0423 H   0  0  0  0  0  0  0  0  0  0  0  0
    7.9568   -3.6370    0.3309 H   0  0  0  0  0  0  0  0  0  0  0  0
  1  2  1  0  0  0  0
  1 12  1  0  0  0  0
  2 14  1  0  0  0  0
  3  2  2  0  0  0  0
  3  4  1  0  0  0  0
  4 16  1  0  0  0  0
  5  7  1  0  0  0  0
  5  4  2  0  0  0  0
  6 19  1  0  0  0  0
  6 18  1  0  0  0  0
  7 20  1  0  0  0  0
  7 10  1  0  0  0  0
  8 23  1  0  0  0  0
  8  6  1  0  0  0  0
  9  6  1  0  0  0  0
 10  8  1  0  0  0  0
 11  1  1  0  0  0  0
 13  1  1  0  0  0  0
 15  3  1  0  0  0  0
 17  5  1  0  0  0  0
 21  7  1  0  0  0  0
 22  8  1  0  0  0  0
 24  9  1  0  0  0  0
M  END
>  <HBA>
2

>  <HBD>
1

>  <TPSA>
29.46

>  <cid>
33773

>  <dipole>
2.86

>  <excitation_energy_1>
5.4

>  <excitation_energy_2>
5.747

>  <excitation_energy_3>
5.789

>  <excitation_energy_4>
5.84

>  <homo_energy>
-6.014

>  <homo_lumo_gap>
5.369

>  <logP>
1.128

>  <lumo_energy>
-0.645

>  <melting_point>
1.36

>  <molecular_refractivity>
41.87

>  <oscillator_strength_1>
0.9085

>  <oscillator_strength_2>
0.0005

>  <oscillator_strength_3>
0.079

>  <oscillator_strength_4>
0.0067

>  <open_babel_can_smiles>
C/C=C/C=C/COCCO

>  <mulliken_charges>
24
1   -0.490796
2   -0.104783
3   -0.098572
4   -0.104688
5   -0.122818
6   -0.033715
7   -0.05842
8   -0.031126
9   -0.622743
10   -0.489897
11   0.159274
12   0.16003
13   0.155953
14   0.125552
15   0.12017
16   0.121768
17   0.131674
18   0.13062
19   0.143238
20   0.128735
21   0.13121
22   0.129887
23   0.119632
24   0.399819

>  <lowdin_charges>
24
1   -0.43813
2   -0.147998
3   -0.164223
4   -0.145763
5   -0.170888
6   -0.136186
7   -0.120784
8   -0.146654
9   -0.467417
10   -0.284733
11   0.160258
12   0.16023
13   0.154743
14   0.14793
15   0.149612
16   0.149525
17   0.153305
18   0.131797
19   0.147191
20   0.130631
21   0.134215
22   0.132182
23   0.129457
24   0.341703

$$$$

