PCCDB-ID:  7303
public computational chemistry database (PCCDB) project, http://pccdb.org

 10 10  0  0  0  0  0  0  0  0999 V2000
   -0.7921   -1.0088   -0.2243 C   0  0  0  0  0  0  0  0  0  0  0  0
    0.7337   -1.0306    0.0234 C   0  0  0  0  0  0  0  0  0  0  0  0
    0.0130    1.1429   -0.1699 C   0  0  0  0  0  0  0  0  0  0  0  0
    0.0362    2.3366   -0.2077 O   0  0  0  0  0  0  0  0  0  0  0  0
   -1.1059    0.3835   -0.3249 O   0  0  0  0  0  0  0  0  0  0  0  0
    1.1019    0.3519    0.0336 O   0  0  0  0  0  0  0  0  0  0  0  0
   -1.3655   -1.4391    0.6014 H   0  0  0  0  0  0  0  0  0  0  0  0
   -1.0813   -1.5018   -1.1565 H   0  0  0  0  0  0  0  0  0  0  0  0
    1.2889   -1.5359   -0.7716 H   0  0  0  0  0  0  0  0  0  0  0  0
    1.0042   -1.4729    0.9862 H   0  0  0  0  0  0  0  0  0  0  0  0
  1  2  1  0  0  0  0
  1  7  1  0  0  0  0
  2  6  1  0  0  0  0
  2 10  1  0  0  0  0
  3  6  1  0  0  0  0
  4  3  2  0  0  0  0
  5  1  1  0  0  0  0
  5  3  1  0  0  0  0
  8  1  1  0  0  0  0
  9  2  1  0  0  0  0
M  END
>  <HBA>
3

>  <HBD>
0

>  <TPSA>
35.53

>  <cid>
7303

>  <dipole>
5.33

>  <excitation_energy_1>
6.984

>  <excitation_energy_2>
7.331

>  <excitation_energy_3>
7.509

>  <excitation_energy_4>
7.539

>  <homo_energy>
-8.022

>  <homo_lumo_gap>
9.089

>  <logP>
0.153

>  <lumo_energy>
1.067

>  <melting_point>
11.83

>  <molecular_refractivity>
17.18

>  <oscillator_strength_1>
0.0

>  <oscillator_strength_2>
0.0115

>  <oscillator_strength_3>
0.0

>  <oscillator_strength_4>
0.0054

>  <open_babel_can_smiles>
O=C1OCCO1

>  <mulliken_charges>
10
1   -0.066724
2   -0.066791
3   0.781777
4   -0.451213
5   -0.447583
6   -0.447586
7   0.174527
8   0.174538
9   0.174538
10   0.174517

>  <lowdin_charges>
10
1   -0.137823
2   -0.137672
3   0.228161
4   -0.224973
5   -0.185368
6   -0.185209
7   0.161131
8   0.160389
9   0.161351
10   0.160012

$$$$

