PCCDB-ID:  35525
public computational chemistry database (PCCDB) project, http://pccdb.org

 26 26  0  0  0  0  0  0  0  0999 V2000
    1.0391   -0.0347   -1.8118 C   0  0  0  0  0  0  0  0  0  0  0  0
   10.2402    2.2938    0.7061 C   0  0  0  0  0  0  0  0  0  0  0  0
    2.4803   -0.2949   -1.4767 C   0  0  0  0  0  0  0  0  0  0  0  0
    9.1031    1.3852    0.3349 C   0  0  0  0  0  0  0  0  0  0  0  0
    3.3353    0.6744   -1.1222 C   0  0  0  0  0  0  0  0  0  0  0  0
    7.8790    1.8316    0.0205 C   0  0  0  0  0  0  0  0  0  0  0  0
    5.3802   -0.7741   -0.8505 C   0  0  0  0  0  0  0  0  0  0  0  0
    6.7986   -0.4165   -0.3437 C   0  0  0  0  0  0  0  0  0  0  0  0
    5.5257    1.5668   -0.5458 C   0  0  0  0  0  0  0  0  0  0  0  0
    4.6743    0.4942   -0.7884 N   0  0  0  0  0  0  0  0  0  0  0  0
    6.7944    1.0366   -0.3384 N   0  0  0  0  0  0  0  0  0  0  0  0
    5.2180    2.7461   -0.5190 O   0  0  0  0  0  0  0  0  0  0  0  0
    0.3622   -0.5857   -1.1442 H   0  0  0  0  0  0  0  0  0  0  0  0
    0.7960   -0.3501   -2.8360 H   0  0  0  0  0  0  0  0  0  0  0  0
    0.7984    1.0303   -1.7249 H   0  0  0  0  0  0  0  0  0  0  0  0
   11.0885    2.1836    0.0162 H   0  0  0  0  0  0  0  0  0  0  0  0
   10.6232    2.0733    1.7121 H   0  0  0  0  0  0  0  0  0  0  0  0
    9.9324    3.3449    0.6898 H   0  0  0  0  0  0  0  0  0  0  0  0
    2.8187   -1.3288   -1.5303 H   0  0  0  0  0  0  0  0  0  0  0  0
    9.3115    0.3162    0.3289 H   0  0  0  0  0  0  0  0  0  0  0  0
    3.0384    1.7172   -1.0618 H   0  0  0  0  0  0  0  0  0  0  0  0
    7.6281    2.8881    0.0181 H   0  0  0  0  0  0  0  0  0  0  0  0
    4.8940   -1.5262   -0.2194 H   0  0  0  0  0  0  0  0  0  0  0  0
    5.3942   -1.1564   -1.8803 H   0  0  0  0  0  0  0  0  0  0  0  0
    7.5824   -0.8052   -1.0031 H   0  0  0  0  0  0  0  0  0  0  0  0
    6.9856   -0.8040    0.6671 H   0  0  0  0  0  0  0  0  0  0  0  0
  1 15  1  0  0  0  0
  1  3  1  0  0  0  0
  1 13  1  0  0  0  0
  2 17  1  0  0  0  0
  3  5  2  0  0  0  0
  4  2  1  0  0  0  0
  5 21  1  0  0  0  0
  5 10  1  0  0  0  0
  6  4  2  0  0  0  0
  7 10  1  0  0  0  0
  7  8  1  0  0  0  0
  7 23  1  0  0  0  0
  8 11  1  0  0  0  0
  8 26  1  0  0  0  0
  9 12  2  0  0  0  0
  9 11  1  0  0  0  0
 10  9  1  0  0  0  0
 11  6  1  0  0  0  0
 14  1  1  0  0  0  0
 16  2  1  0  0  0  0
 18  2  1  0  0  0  0
 19  3  1  0  0  0  0
 20  4  1  0  0  0  0
 22  6  1  0  0  0  0
 24  7  1  0  0  0  0
 25  8  1  0  0  0  0
M  END
>  <HBA>
3

>  <HBD>
0

>  <TPSA>
23.55

>  <cid>
35525

>  <dipole>
3.9

>  <excitation_energy_1>
4.751

>  <excitation_energy_2>
4.96

>  <excitation_energy_3>
5.164

>  <excitation_energy_4>
5.404

>  <homo_energy>
-5.347

>  <homo_lumo_gap>
5.608

>  <logP>
1.667

>  <lumo_energy>
0.261

>  <melting_point>
50.6

>  <molecular_refractivity>
56.53

>  <oscillator_strength_1>
0.0001

>  <oscillator_strength_2>
0.7349

>  <oscillator_strength_3>
0.0299

>  <oscillator_strength_4>
0.0001

>  <open_babel_can_smiles>
C/C=C/N1CCN(C1=O)/C=C/C

>  <mulliken_charges>
26
1   -0.482341
2   -0.482347
3   -0.156816
4   -0.157117
5   0.074565
6   0.074669
7   -0.14168
8   -0.141613
9   0.813186
10   -0.515087
11   -0.51505
12   -0.531712
13   0.1515
14   0.151761
15   0.15524
16   0.151637
17   0.151763
18   0.15527
19   0.117003
20   0.117057
21   0.171116
22   0.171179
23   0.167692
24   0.166179
25   0.167712
26   0.166234

>  <lowdin_charges>
26
1   -0.430578
2   -0.42998
3   -0.217739
4   -0.21662
5   -0.103225
6   -0.105462
7   -0.190944
8   -0.190598
9   0.17651
10   -0.081956
11   -0.082124
12   -0.310582
13   0.154322
14   0.152245
15   0.154764
16   0.153508
17   0.152541
18   0.154889
19   0.146008
20   0.145376
21   0.17635
22   0.176265
23   0.157913
24   0.150538
25   0.157664
26   0.150917

$$$$

