PCCDB-ID:  9231
public computational chemistry database (PCCDB) project, http://pccdb.org

 18 19  0  0  0  0  0  0  0  0999 V2000
    2.1315    1.7249    0.5372 C   0  0  0  0  0  0  0  0  0  0  0  0
    3.1920    2.5870    0.6094 C   0  0  0  0  0  0  0  0  0  0  0  0
    2.6482    0.3734    0.3475 C   0  0  0  0  0  0  0  0  0  0  0  0
    6.6424    0.0754   -1.7245 C   0  0  0  0  0  0  0  0  0  0  0  0
    4.5681    2.2210    0.2872 C   0  0  0  0  0  0  0  0  0  0  0  0
    3.0157   -0.0720   -0.8933 C   0  0  0  0  0  0  0  0  0  0  0  0
    6.5063    1.1034   -0.8254 C   0  0  0  0  0  0  0  0  0  0  0  0
    5.3757   -0.6007   -1.8894 C   0  0  0  0  0  0  0  0  0  0  0  0
    5.1317    1.1329   -0.3710 C   0  0  0  0  0  0  0  0  0  0  0  0
    4.4540   -0.0353   -1.0405 C   0  0  0  0  0  0  0  0  0  0  0  0
    1.0947    2.0524    0.5735 H   0  0  0  0  0  0  0  0  0  0  0  0
    3.0300    3.6363    0.8525 H   0  0  0  0  0  0  0  0  0  0  0  0
    3.4158    0.1654    1.0958 H   0  0  0  0  0  0  0  0  0  0  0  0
    7.5566   -0.2000   -2.2395 H   0  0  0  0  0  0  0  0  0  0  0  0
    5.2883    3.0049    0.5256 H   0  0  0  0  0  0  0  0  0  0  0  0
    2.3635   -0.0201   -1.7662 H   0  0  0  0  0  0  0  0  0  0  0  0
    7.2770    1.7985   -0.5131 H   0  0  0  0  0  0  0  0  0  0  0  0
    5.1952   -1.4310   -2.5630 H   0  0  0  0  0  0  0  0  0  0  0  0
  1 11  1  0  0  0  0
  1  2  2  0  0  0  0
  2 12  1  0  0  0  0
  3  1  1  0  0  0  0
  3 13  1  0  0  0  0
  4  7  2  0  0  0  0
  5 15  1  0  0  0  0
  5  2  1  0  0  0  0
  6  3  1  0  0  0  0
  7 17  1  0  0  0  0
  7  9  1  0  0  0  0
  8  4  1  0  0  0  0
  8 10  2  0  0  0  0
  9  5  2  0  0  0  0
 10  6  1  0  0  0  0
 10  9  1  0  0  0  0
 14  4  1  0  0  0  0
 16  6  1  0  0  0  0
 18  8  1  0  0  0  0
M  RAD  2   3   2   6   2
M  END
>  <HBA>
0

>  <HBD>
0

>  <TPSA>
0.0

>  <cid>
9231

>  <dipole>
1.39

>  <excitation_energy_1>
2.394

>  <excitation_energy_2>
3.03

>  <excitation_energy_3>
3.68

>  <excitation_energy_4>
3.942

>  <homo_energy>
-5.306

>  <homo_lumo_gap>
3.148

>  <logP>
2.791

>  <lumo_energy>
-2.158

>  <melting_point>
39.82

>  <molecular_refractivity>
43.06

>  <oscillator_strength_1>
0.02

>  <oscillator_strength_2>
0.0173

>  <oscillator_strength_3>
0.0747

>  <oscillator_strength_4>
0.0447

>  <open_babel_can_smiles>
C1=CC=C2C(=CC=C2)[CH][CH]1

>  <mulliken_charges>
18
1   -0.099824
2   -0.128756
3   -0.227767
4   -0.142651
5   -0.175323
6   -0.124385
7   -0.180386
8   -0.205571
9   0.086425
10   0.08276
11   0.14982
12   0.136712
13   0.162642
14   0.127717
15   0.141011
16   0.142882
17   0.125146
18   0.129546

>  <lowdin_charges>
18
1   -0.113477
2   -0.180387
3   -0.167265
4   -0.160415
5   -0.116944
6   -0.134853
7   -0.197735
8   -0.176395
9   -0.003513
10   -0.037065
11   0.165525
12   0.158031
13   0.164531
14   0.156959
15   0.164725
16   0.160802
17   0.158483
18   0.158994

$$$$

