PCCDB-ID:  43171
public computational chemistry database (PCCDB) project, http://pccdb.org

 24 25  0  0  1  0  0  0  0  0999 V2000
   -1.9027   -0.6409    1.2854 C   0  0  0  0  0  0  0  0  0  0  0  0
   -0.1105   -1.9982    0.1926 C   0  0  0  0  0  0  0  0  0  0  0  0
   -1.9648   -1.0460   -1.1903 C   0  0  0  0  0  0  0  0  0  0  0  0
   -2.0878    0.8806    1.2244 C   0  0  0  0  0  0  0  0  0  0  0  0
    1.1275   -1.1807   -0.2068 C   0  0  0  0  0  0  0  0  0  0  0  0
   -1.6905    0.3487   -1.8048 C   0  0  0  0  0  0  0  0  0  0  0  0
   -1.3640   -1.2761    0.1026 N   0  0  2  0  0  0  0  0  0  0  0  0
   -0.9602    1.6589    0.7837 O   0  0  0  0  0  0  0  0  0  0  0  0
    1.0871    0.1064    0.4314 O   0  0  0  0  0  0  0  0  0  0  0  0
   -0.3313    0.7601   -1.6088 O   0  0  0  0  0  0  0  0  0  0  0  0
    0.2723    1.3573   -0.2159 P   0  0  1  0  0  0  0  0  0  0  0  0
    1.3614    2.9291   -0.4686 S   0  0  0  0  0  0  0  0  0  0  0  0
   -2.9016   -1.0436    1.5400 H   0  0  0  0  0  0  0  0  0  0  0  0
   -1.2417   -0.8818    2.1216 H   0  0  0  0  0  0  0  0  0  0  0  0
    0.0091   -2.3284    1.2299 H   0  0  0  0  0  0  0  0  0  0  0  0
   -0.1483   -2.9076   -0.4261 H   0  0  0  0  0  0  0  0  0  0  0  0
   -1.5786   -1.8107   -1.8740 H   0  0  0  0  0  0  0  0  0  0  0  0
   -3.0572   -1.1887   -1.1432 H   0  0  0  0  0  0  0  0  0  0  0  0
   -2.3138    1.2450    2.2315 H   0  0  0  0  0  0  0  0  0  0  0  0
   -2.9373    1.1440    0.5857 H   0  0  0  0  0  0  0  0  0  0  0  0
    1.1976   -1.0546   -1.2903 H   0  0  0  0  0  0  0  0  0  0  0  0
    2.0421   -1.6649    0.1484 H   0  0  0  0  0  0  0  0  0  0  0  0
   -2.3613    1.1150   -1.4074 H   0  0  0  0  0  0  0  0  0  0  0  0
   -1.8369    0.3175   -2.8886 H   0  0  0  0  0  0  0  0  0  0  0  0
  1 13  1  0  0  0  0
  1 14  1  0  0  0  0
  2 15  1  0  0  0  0
  3 18  1  0  0  0  0
  4  1  1  0  0  0  0
  4 19  1  0  0  0  0
  5 22  1  0  0  0  0
  5  2  1  0  0  0  0
  5  9  1  0  0  0  0
  6 10  1  0  0  0  0
  6 23  1  0  0  0  0
  6  3  1  0  0  0  0
  7  3  1  6  0  0  0
  7  2  1  0  0  0  0
  7  1  1  0  0  0  0
  8  4  1  0  0  0  0
 10 11  1  0  0  0  0
 11 12  1  6  0  0  0
 11  9  1  0  0  0  0
 11  8  1  0  0  0  0
 16  2  1  0  0  0  0
 17  3  1  0  0  0  0
 20  4  1  0  0  0  0
 21  5  1  0  0  0  0
 24  6  1  0  0  0  0
M  RAD  1  12   2
M  END
>  <HBA>
5

>  <HBD>
0

>  <TPSA>
72.83

>  <cid>
43171

>  <dipole>
7.83

>  <excitation_energy_1>
5.203

>  <excitation_energy_2>
5.331

>  <excitation_energy_3>
5.479

>  <excitation_energy_4>
5.482

>  <homo_energy>
-5.951

>  <homo_lumo_gap>
6.953

>  <logP>
1.178

>  <lumo_energy>
1.001

>  <melting_point>
10.8

>  <molecular_refractivity>
52.36

>  <oscillator_strength_1>
0.0302

>  <oscillator_strength_2>
0.0068

>  <oscillator_strength_3>
0.0046

>  <oscillator_strength_4>
0.0032

>  <open_babel_can_smiles>
[S][P@]12OCCN(CCO1)CCO2

>  <mulliken_charges>
24
1   -0.1517
2   -0.142968
3   -0.150155
4   -0.039561
5   -0.052279
6   -0.057586
7   -0.39399
8   -0.528591
9   -0.522809
10   -0.5419
11   1.071504
12   -0.369187
13   0.136858
14   0.167902
15   0.155792
16   0.143421
17   0.155725
18   0.142649
19   0.170079
20   0.151695
21   0.167267
22   0.160817
23   0.160102
24   0.166913

>  <lowdin_charges>
24
1   -0.207934
2   -0.204306
3   -0.21095
4   -0.132964
5   -0.140352
6   -0.138988
7   -0.18019
8   -0.393231
9   -0.394213
10   -0.397953
11   0.923841
12   -0.360935
13   0.139756
14   0.162875
15   0.152723
16   0.146174
17   0.156921
18   0.143973
19   0.164095
20   0.144911
21   0.154299
22   0.159462
23   0.152822
24   0.160165

$$$$

