PCCDB-ID:  24078
public computational chemistry database (PCCDB) project, http://pccdb.org

 28 29  0  0  1  0  0  0  0  0999 V2000
   -1.8277   -2.9432   -3.2417 C   0  0  0  0  0  0  0  0  0  0  0  0
   -1.9318   -1.5072   -3.6199 C   0  0  0  0  0  0  0  0  0  0  0  0
   -3.4074    1.8412    1.9369 C   0  0  0  0  0  0  0  0  0  0  0  0
   -3.5135    3.2765    1.5566 C   0  0  0  0  0  0  0  0  0  0  0  0
   -1.9579   -1.6433   -1.1222 C   0  0  0  0  0  0  0  0  0  0  0  0
   -3.3982    1.9734   -0.5613 C   0  0  0  0  0  0  0  0  0  0  0  0
   -2.7697   -0.5119   -0.4796 C   0  0  1  0  0  0  0  0  0  0  0  0
   -2.5925    0.8401   -1.2087 C   0  0  2  0  0  0  0  0  0  0  0  0
   -2.5765   -2.0113   -2.4021 N   0  0  0  0  0  0  0  0  0  0  0  0
   -2.7705    2.3424    0.7139 N   0  0  0  0  0  0  0  0  0  0  0  0
   -4.1459   -0.8772   -0.4272 O   0  0  0  0  0  0  0  0  0  0  0  0
   -1.2161    1.2032   -1.2692 O   0  0  0  0  0  0  0  0  0  0  0  0
   -0.8650   -3.2960   -2.8716 H   0  0  0  0  0  0  0  0  0  0  0  0
   -2.4199   -3.6952   -3.7591 H   0  0  0  0  0  0  0  0  0  0  0  0
   -2.6063   -1.1985   -4.4157 H   0  0  0  0  0  0  0  0  0  0  0  0
   -1.0490   -0.8810   -3.4974 H   0  0  0  0  0  0  0  0  0  0  0  0
   -4.2918    1.2158    1.8225 H   0  0  0  0  0  0  0  0  0  0  0  0
   -2.7282    1.5344    2.7294 H   0  0  0  0  0  0  0  0  0  0  0  0
   -2.9180    4.0298    2.0680 H   0  0  0  0  0  0  0  0  0  0  0  0
   -4.4785    3.6285    1.1918 H   0  0  0  0  0  0  0  0  0  0  0  0
   -2.0108   -2.5231   -0.4699 H   0  0  0  0  0  0  0  0  0  0  0  0
   -0.9041   -1.3445   -1.2240 H   0  0  0  0  0  0  0  0  0  0  0  0
   -4.4518    1.6763   -0.4520 H   0  0  0  0  0  0  0  0  0  0  0  0
   -3.3487    2.8522   -1.2152 H   0  0  0  0  0  0  0  0  0  0  0  0
   -2.4290   -0.3924    0.5562 H   0  0  0  0  0  0  0  0  0  0  0  0
   -2.9400    0.7212   -2.2424 H   0  0  0  0  0  0  0  0  0  0  0  0
   -4.2982   -1.3699   -1.2569 H   0  0  0  0  0  0  0  0  0  0  0  0
   -1.0582    1.6972   -0.4413 H   0  0  0  0  0  0  0  0  0  0  0  0
  1 13  1  0  0  0  0
  1  9  1  0  0  0  0
  2 16  1  0  0  0  0
  2  1  1  0  0  0  0
  2  9  1  0  0  0  0
  3 18  1  0  0  0  0
  4  3  1  0  0  0  0
  4 19  1  0  0  0  0
  5  7  1  0  0  0  0
  5 21  1  0  0  0  0
  6 23  1  0  0  0  0
  6 10  1  0  0  0  0
  7 11  1  0  0  0  0
  7 25  1  1  0  0  0
  8 26  1  6  0  0  0
  8  6  1  0  0  0  0
  8  7  1  0  0  0  0
  9  5  1  0  0  0  0
 10  4  1  0  0  0  0
 10  3  1  0  0  0  0
 12  8  1  0  0  0  0
 12 28  1  0  0  0  0
 14  1  1  0  0  0  0
 15  2  1  0  0  0  0
 17  3  1  0  0  0  0
 20  4  1  0  0  0  0
 22  5  1  0  0  0  0
 24  6  1  0  0  0  0
 27 11  1  0  0  0  0
M  END
>  <HBA>
4

>  <HBD>
2

>  <TPSA>
46.48

>  <cid>
24078

>  <dipole>
0.02

>  <excitation_energy_1>
6.178

>  <excitation_energy_2>
6.23

>  <excitation_energy_3>
6.33

>  <excitation_energy_4>
6.411

>  <homo_energy>
-6.275

>  <homo_lumo_gap>
8.768

>  <logP>
-1.785

>  <lumo_energy>
2.493

>  <melting_point>
31.92

>  <molecular_refractivity>
52.29

>  <oscillator_strength_1>
0.018

>  <oscillator_strength_2>
0.0

>  <oscillator_strength_3>
0.0101

>  <oscillator_strength_4>
0.0

>  <open_babel_can_smiles>
O[C@H]([C@@H](CN1CC1)O)CN1CC1

>  <mulliken_charges>
28
1   -0.188025
2   -0.19929
3   -0.199118
4   -0.188151
5   -0.152668
6   -0.15323
7   0.123674
8   0.124672
9   -0.399551
10   -0.399409
11   -0.654831
12   -0.654927
13   0.15056
14   0.158466
15   0.157374
16   0.175062
17   0.174658
18   0.157495
19   0.158572
20   0.15068
21   0.147347
22   0.146411
23   0.146567
24   0.1475
25   0.128837
26   0.128859
27   0.406201
28   0.406262

>  <lowdin_charges>
28
1   -0.239391
2   -0.243408
3   -0.243404
4   -0.23939
5   -0.218123
6   -0.218135
7   -0.024
8   -0.023979
9   -0.20944
10   -0.209318
11   -0.475553
12   -0.475633
13   0.151825
14   0.160661
15   0.159097
16   0.162278
17   0.162061
18   0.159172
19   0.160705
20   0.151849
21   0.150124
22   0.142662
23   0.142695
24   0.150206
25   0.141352
26   0.141428
27   0.341802
28   0.341858

$$$$

