PCCDB-ID:  32041
public computational chemistry database (PCCDB) project, http://pccdb.org

 29 29  0  0  1  0  0  0  0  0999 V2000
    1.6457    0.4314    0.6388 C   0  0  0  0  0  0  0  0  0  0  0  0
    4.4673   -0.1128    1.9231 C   0  0  0  0  0  0  0  0  0  0  0  0
    2.9806    0.4306   -0.1147 C   0  0  0  0  0  0  0  0  0  0  0  0
    3.7915   -4.1716    0.3212 C   0  0  0  0  0  0  0  0  0  0  0  0
    4.7509   -5.3136   -0.0089 C   0  0  0  0  0  0  0  0  0  0  0  0
    4.6561   -7.7101   -0.6309 C   0  0  0  0  0  0  0  0  0  0  0  0
    3.4068   -7.0719   -1.1330 C   0  0  0  0  0  0  0  0  0  0  0  0
    4.0740   -0.4555    0.4888 C   0  0  2  0  0  0  0  0  0  0  0  0
    4.4767   -2.8200    0.3345 C   0  0  0  0  0  0  0  0  0  0  0  0
    4.0524   -6.5933    0.0900 N   0  0  0  0  0  0  0  0  0  0  0  0
    5.6765   -2.6468    0.2668 O   0  0  0  0  0  0  0  0  0  0  0  0
    3.5697   -1.8244    0.4390 O   0  0  0  0  0  0  0  0  0  0  0  0
    0.9053    1.0370    0.1048 H   0  0  0  0  0  0  0  0  0  0  0  0
    1.7451    0.8481    1.6471 H   0  0  0  0  0  0  0  0  0  0  0  0
    1.2484   -0.5844    0.7306 H   0  0  0  0  0  0  0  0  0  0  0  0
    4.7972    0.9308    1.9840 H   0  0  0  0  0  0  0  0  0  0  0  0
    5.2935   -0.7504    2.2495 H   0  0  0  0  0  0  0  0  0  0  0  0
    3.6265   -0.2496    2.6103 H   0  0  0  0  0  0  0  0  0  0  0  0
    3.3796    1.4523   -0.1725 H   0  0  0  0  0  0  0  0  0  0  0  0
    2.8160    0.1024   -1.1488 H   0  0  0  0  0  0  0  0  0  0  0  0
    3.3387   -4.3407    1.3065 H   0  0  0  0  0  0  0  0  0  0  0  0
    2.9563   -4.1362   -0.3886 H   0  0  0  0  0  0  0  0  0  0  0  0
    5.5790   -5.3168    0.7072 H   0  0  0  0  0  0  0  0  0  0  0  0
    5.1951   -5.1514   -1.0078 H   0  0  0  0  0  0  0  0  0  0  0  0
    5.5712   -7.5220   -1.1943 H   0  0  0  0  0  0  0  0  0  0  0  0
    4.6239   -8.6724   -0.1245 H   0  0  0  0  0  0  0  0  0  0  0  0
    2.4425   -7.5583   -1.0024 H   0  0  0  0  0  0  0  0  0  0  0  0
    3.4901   -6.4568   -2.0308 H   0  0  0  0  0  0  0  0  0  0  0  0
    4.9644   -0.4169   -0.1456 H   0  0  0  0  0  0  0  0  0  0  0  0
  1 15  1  0  0  0  0
  1 14  1  0  0  0  0
  2 16  1  0  0  0  0
  2 17  1  0  0  0  0
  2 18  1  0  0  0  0
  3  8  1  0  0  0  0
  3  1  1  0  0  0  0
  4  9  1  0  0  0  0
  4 21  1  0  0  0  0
  5 10  1  0  0  0  0
  5  4  1  0  0  0  0
  5 23  1  0  0  0  0
  6 26  1  0  0  0  0
  6 10  1  0  0  0  0
  7 27  1  0  0  0  0
  7  6  1  0  0  0  0
  7 10  1  0  0  0  0
  8 29  1  6  0  0  0
  8  2  1  0  0  0  0
  9 12  1  0  0  0  0
 11  9  2  0  0  0  0
 12  8  1  0  0  0  0
 13  1  1  0  0  0  0
 19  3  1  0  0  0  0
 20  3  1  0  0  0  0
 22  4  1  0  0  0  0
 24  5  1  0  0  0  0
 25  6  1  0  0  0  0
 28  7  1  0  0  0  0
M  END
>  <HBA>
3

>  <HBD>
0

>  <TPSA>
29.31

>  <cid>
32041

>  <dipole>
1.63

>  <excitation_energy_1>
5.796

>  <excitation_energy_2>
5.965

>  <excitation_energy_3>
6.053

>  <excitation_energy_4>
6.262

>  <homo_energy>
-6.357

>  <homo_lumo_gap>
6.806

>  <logP>
0.972

>  <lumo_energy>
0.449

>  <melting_point>
-4.82

>  <molecular_refractivity>
51.36

>  <oscillator_strength_1>
0.0011

>  <oscillator_strength_2>
0.0089

>  <oscillator_strength_3>
0.0115

>  <oscillator_strength_4>
0.0275

>  <open_babel_can_smiles>
CC[C@H](OC(=O)CCN1CC1)C

>  <mulliken_charges>
29
1   -0.451685
2   -0.46733
3   -0.264836
4   -0.3659
5   -0.120305
6   -0.191613
7   -0.197218
8   0.129899
9   0.631743
10   -0.35767
11   -0.486254
12   -0.478959
13   0.145041
14   0.14623
15   0.162185
16   0.147108
17   0.172724
18   0.156192
19   0.137637
20   0.143615
21   0.187211
22   0.169951
23   0.164497
24   0.123641
25   0.146932
26   0.157533
27   0.157131
28   0.143155
29   0.159349

>  <lowdin_charges>
29
1   -0.449115
2   -0.456878
3   -0.27715
4   -0.303653
5   -0.1949
6   -0.240279
7   -0.246785
8   0.009116
9   0.195574
10   -0.194858
11   -0.272333
12   -0.197617
13   0.153541
14   0.147757
15   0.155756
16   0.155491
17   0.166966
18   0.156192
19   0.147264
20   0.14826
21   0.177124
22   0.168119
23   0.15786
24   0.127032
25   0.149021
26   0.158546
27   0.158143
28   0.146433
29   0.155373

$$$$

