PCCDB-ID:  16484
public computational chemistry database (PCCDB) project, http://pccdb.org

 30 31  0  0  0  0  0  0  0  0999 V2000
    3.1938   -1.2281    0.0741 C   0  0  0  0  0  0  0  0  0  0  0  0
    5.6765    8.6300   -5.4935 C   0  0  0  0  0  0  0  0  0  0  0  0
    2.8621    3.2797   -1.5595 C   0  0  0  0  0  0  0  0  0  0  0  0
    4.5692    1.8615   -2.4703 C   0  0  0  0  0  0  0  0  0  0  0  0
    4.3850    5.5507   -2.8935 C   0  0  0  0  0  0  0  0  0  0  0  0
    4.8420    3.9740   -4.6428 C   0  0  0  0  0  0  0  0  0  0  0  0
    2.4393    2.2499   -0.7312 C   0  0  0  0  0  0  0  0  0  0  0  0
    4.1537    0.8126   -1.6471 C   0  0  0  0  0  0  0  0  0  0  0  0
    4.8055    6.6003   -3.7133 C   0  0  0  0  0  0  0  0  0  0  0  0
    5.2676    5.0042   -5.4691 C   0  0  0  0  0  0  0  0  0  0  0  0
    3.9400    3.1137   -2.4510 C   0  0  0  0  0  0  0  0  0  0  0  0
    4.3901    4.2193   -3.3314 C   0  0  0  0  0  0  0  0  0  0  0  0
    3.0818    1.0039   -0.7686 C   0  0  0  0  0  0  0  0  0  0  0  0
    5.2519    6.3297   -5.0112 C   0  0  0  0  0  0  0  0  0  0  0  0
    2.5903    0.0547    0.0823 O   0  0  0  0  0  0  0  0  0  0  0  0
    5.6874    7.2718   -5.8998 O   0  0  0  0  0  0  0  0  0  0  0  0
    2.6451   -1.8227    0.8070 H   0  0  0  0  0  0  0  0  0  0  0  0
    4.2516   -1.1801    0.3659 H   0  0  0  0  0  0  0  0  0  0  0  0
    3.1155   -1.7059   -0.9118 H   0  0  0  0  0  0  0  0  0  0  0  0
    6.0442    9.2019   -6.3476 H   0  0  0  0  0  0  0  0  0  0  0  0
    6.3368    8.8005   -4.6324 H   0  0  0  0  0  0  0  0  0  0  0  0
    4.6629    8.9686   -5.2400 H   0  0  0  0  0  0  0  0  0  0  0  0
    2.3313    4.2274   -1.5348 H   0  0  0  0  0  0  0  0  0  0  0  0
    5.4219    1.7024   -3.1247 H   0  0  0  0  0  0  0  0  0  0  0  0
    4.0690    5.7778   -1.8790 H   0  0  0  0  0  0  0  0  0  0  0  0
    4.8353    2.9582   -5.0285 H   0  0  0  0  0  0  0  0  0  0  0  0
    1.6020    2.3816   -0.0528 H   0  0  0  0  0  0  0  0  0  0  0  0
    4.6781   -0.1352   -1.6919 H   0  0  0  0  0  0  0  0  0  0  0  0
    4.7921    7.6128   -3.3260 H   0  0  0  0  0  0  0  0  0  0  0  0
    5.6060    4.8093   -6.4822 H   0  0  0  0  0  0  0  0  0  0  0  0
  1 15  1  0  0  0  0
  1 18  1  0  0  0  0
  1 17  1  0  0  0  0
  2 22  1  0  0  0  0
  2 21  1  0  0  0  0
  3 23  1  0  0  0  0
  3  7  2  0  0  0  0
  4 11  2  0  0  0  0
  4  8  1  0  0  0  0
  5 25  1  0  0  0  0
  6 12  2  0  0  0  0
  7 27  1  0  0  0  0
  8 13  2  0  0  0  0
  9 29  1  0  0  0  0
  9  5  2  0  0  0  0
 10 14  2  0  0  0  0
 10  6  1  0  0  0  0
 11  3  1  0  0  0  0
 12  5  1  0  0  0  0
 12 11  1  0  0  0  0
 13  7  1  0  0  0  0
 13 15  1  0  0  0  0
 14  9  1  0  0  0  0
 16  2  1  0  0  0  0
 16 14  1  0  0  0  0
 19  1  1  0  0  0  0
 20  2  1  0  0  0  0
 24  4  1  0  0  0  0
 26  6  1  0  0  0  0
 28  8  1  0  0  0  0
 30 10  1  0  0  0  0
M  END
>  <HBA>
2

>  <HBD>
0

>  <TPSA>
18.46

>  <cid>
16484

>  <dipole>
0.73

>  <excitation_energy_1>
4.443

>  <excitation_energy_2>
4.524

>  <excitation_energy_3>
4.633

>  <excitation_energy_4>
4.951

>  <homo_energy>
-5.255

>  <homo_lumo_gap>
5.007

>  <logP>
3.371

>  <lumo_energy>
-0.248

>  <melting_point>
52.8

>  <molecular_refractivity>
64.86

>  <oscillator_strength_1>
0.0035

>  <oscillator_strength_2>
0.5427

>  <oscillator_strength_3>
0.1433

>  <oscillator_strength_4>
0.0006

>  <open_babel_can_smiles>
COc1ccc(cc1)c1ccc(cc1)OC

>  <mulliken_charges>
30
1   -0.214035
2   -0.214045
3   -0.179899
4   -0.188059
5   -0.188106
6   -0.180033
7   -0.177676
8   -0.19997
9   -0.199942
10   -0.177483
11   0.091026
12   0.091264
13   0.376992
14   0.376808
15   -0.507738
16   -0.50767
17   0.168864
18   0.151294
19   0.15131
20   0.168867
21   0.151279
22   0.151304
23   0.130586
24   0.130884
25   0.130896
26   0.130571
27   0.136493
28   0.129869
29   0.129889
30   0.136459

>  <lowdin_charges>
30
1   -0.276302
2   -0.277365
3   -0.153205
4   -0.153162
5   -0.152269
6   -0.152654
7   -0.180605
8   -0.213435
9   -0.212178
10   -0.179355
11   -0.019137
12   -0.019201
13   0.098989
14   0.098239
15   -0.199455
16   -0.199564
17   0.16376
18   0.142871
19   0.144378
20   0.163334
21   0.144977
22   0.144159
23   0.159071
24   0.158876
25   0.157694
26   0.158396
27   0.166161
28   0.161338
29   0.160685
30   0.164958

$$$$

