PCCDB-ID:  31018
public computational chemistry database (PCCDB) project, http://pccdb.org

 16 16  0  0  0  0  0  0  0  0999 V2000
   -0.6799    1.2641    0.2573 C   0  0  0  0  0  0  0  0  0  0  0  0
   -1.4397    0.1038    0.1150 C   0  0  0  0  0  0  0  0  0  0  0  0
    0.7036    1.1721    0.1093 C   0  0  0  0  0  0  0  0  0  0  0  0
   -1.5756   -2.4027   -0.2886 C   0  0  0  0  0  0  0  0  0  0  0  0
    0.5963   -1.0771   -0.2953 C   0  0  0  0  0  0  0  0  0  0  0  0
   -0.7999   -1.1067   -0.1615 C   0  0  0  0  0  0  0  0  0  0  0  0
   -1.0221   -3.2613   -1.3408 N   0  0  0  0  0  0  0  0  0  0  0  0
    1.3416    0.0268   -0.1655 N   0  0  0  0  0  0  0  0  0  0  0  0
   -1.1490    2.2203    0.4709 H   0  0  0  0  0  0  0  0  0  0  0  0
   -2.5229    0.1375    0.2157 H   0  0  0  0  0  0  0  0  0  0  0  0
    1.3303    2.0567    0.2127 H   0  0  0  0  0  0  0  0  0  0  0  0
   -2.6466   -2.1600   -0.4125 H   0  0  0  0  0  0  0  0  0  0  0  0
   -1.4990   -2.9623    0.6543 H   0  0  0  0  0  0  0  0  0  0  0  0
    1.1262   -1.9971   -0.5301 H   0  0  0  0  0  0  0  0  0  0  0  0
   -1.1725   -2.8313   -2.2522 H   0  0  0  0  0  0  0  0  0  0  0  0
   -1.5131   -4.1532   -1.3528 H   0  0  0  0  0  0  0  0  0  0  0  0
  1  9  1  0  0  0  0
  2 10  1  0  0  0  0
  2  1  1  0  0  0  0
  3 11  1  0  0  0  0
  3  1  2  0  0  0  0
  4  6  1  0  0  0  0
  4 13  1  0  0  0  0
  5  8  2  0  0  0  0
  5  6  1  0  0  0  0
  6  2  2  0  0  0  0
  7  4  1  0  0  0  0
  8  3  1  0  0  0  0
 12  4  1  0  0  0  0
 14  5  1  0  0  0  0
 15  7  1  0  0  0  0
 16  7  1  0  0  0  0
M  END
>  <HBA>
2

>  <HBD>
1

>  <TPSA>
38.91

>  <cid>
31018

>  <dipole>
3.55

>  <excitation_energy_1>
4.719

>  <excitation_energy_2>
4.961

>  <excitation_energy_3>
5.227

>  <excitation_energy_4>
5.46

>  <homo_energy>
-6.395

>  <homo_lumo_gap>
5.935

>  <logP>
1.241

>  <lumo_energy>
-0.46

>  <melting_point>
76.9

>  <molecular_refractivity>
31.91

>  <oscillator_strength_1>
0.0057

>  <oscillator_strength_2>
0.0011

>  <oscillator_strength_3>
0.0395

>  <oscillator_strength_4>
0.0133

>  <open_babel_can_smiles>
NCc1cccnc1

>  <mulliken_charges>
16
1   -0.137531
2   -0.156431
3   0.03608
4   -0.211999
5   0.005953
6   0.12878
7   -0.712802
8   -0.410436
9   0.13406
10   0.13281
11   0.138484
12   0.123291
13   0.162875
14   0.163562
15   0.301143
16   0.302161

>  <lowdin_charges>
16
1   -0.177227
2   -0.140131
3   -0.094247
4   -0.198616
5   -0.091371
6   -0.033884
7   -0.551427
8   -0.149062
9   0.162437
10   0.155463
11   0.155634
12   0.1231
13   0.155708
14   0.168069
15   0.256886
16   0.258668

$$$$

