PCCDB-ID:  7109
public computational chemistry database (PCCDB) project, http://pccdb.org

 22 24  0  0  0  0  0  0  0  0999 V2000
    3.6290    0.7176    0.7572 C   0  0  0  0  0  0  0  0  0  0  0  0
    3.6289   -0.6785    0.7565 C   0  0  0  0  0  0  0  0  0  0  0  0
   -3.6281    0.7191    0.7586 C   0  0  0  0  0  0  0  0  0  0  0  0
   -3.6284   -0.6770    0.7584 C   0  0  0  0  0  0  0  0  0  0  0  0
    2.5021    1.4154    0.3246 C   0  0  0  0  0  0  0  0  0  0  0  0
    2.5017   -1.3757    0.3237 C   0  0  0  0  0  0  0  0  0  0  0  0
   -2.5011    1.4165    0.3254 C   0  0  0  0  0  0  0  0  0  0  0  0
   -2.5017   -1.3747    0.3248 C   0  0  0  0  0  0  0  0  0  0  0  0
    1.3829    0.7220   -0.1508 C   0  0  0  0  0  0  0  0  0  0  0  0
    1.3828   -0.6816   -0.1516 C   0  0  0  0  0  0  0  0  0  0  0  0
   -1.3824    0.7225   -0.1505 C   0  0  0  0  0  0  0  0  0  0  0  0
   -1.3827   -0.6811   -0.1506 C   0  0  0  0  0  0  0  0  0  0  0  0
    0.0003    1.6493   -0.7992 S   0  0  0  0  0  0  0  0  0  0  0  0
   -0.0002   -1.6082   -0.7997 S   0  0  0  0  0  0  0  0  0  0  0  0
    4.4990    1.2654    1.1081 H   0  0  0  0  0  0  0  0  0  0  0  0
    4.4989   -1.2267    1.1067 H   0  0  0  0  0  0  0  0  0  0  0  0
   -4.4977    1.2672    1.1098 H   0  0  0  0  0  0  0  0  0  0  0  0
   -4.4981   -1.2250    1.1096 H   0  0  0  0  0  0  0  0  0  0  0  0
    2.4857    2.5012    0.3464 H   0  0  0  0  0  0  0  0  0  0  0  0
    2.4850   -2.4615    0.3442 H   0  0  0  0  0  0  0  0  0  0  0  0
   -2.4844    2.5022    0.3468 H   0  0  0  0  0  0  0  0  0  0  0  0
   -2.4854   -2.4605    0.3461 H   0  0  0  0  0  0  0  0  0  0  0  0
  1 15  1  0  0  0  0
  2  1  1  0  0  0  0
  2 16  1  0  0  0  0
  3 17  1  0  0  0  0
  4  3  1  0  0  0  0
  4 18  1  0  0  0  0
  5 19  1  0  0  0  0
  5  1  2  0  0  0  0
  6 20  1  0  0  0  0
  6  2  2  0  0  0  0
  7 21  1  0  0  0  0
  7  3  2  0  0  0  0
  8 22  1  0  0  0  0
  8  4  2  0  0  0  0
  9  5  1  0  0  0  0
 10  9  2  0  0  0  0
 10  6  1  0  0  0  0
 11  7  1  0  0  0  0
 12 11  2  0  0  0  0
 12  8  1  0  0  0  0
 13  9  1  0  0  0  0
 13 11  1  0  0  0  0
 14 10  1  0  0  0  0
 14 12  1  0  0  0  0
M  END
>  <HBA>
2

>  <HBD>
0

>  <TPSA>
50.6

>  <cid>
7109

>  <dipole>
1.67

>  <excitation_energy_1>
4.034

>  <excitation_energy_2>
4.304

>  <excitation_energy_3>
4.446

>  <excitation_energy_4>
4.728

>  <homo_energy>
-5.701

>  <homo_lumo_gap>
5.012

>  <logP>
4.302

>  <lumo_energy>
-0.688

>  <melting_point>
89.77

>  <molecular_refractivity>
61.13

>  <oscillator_strength_1>
0.0

>  <oscillator_strength_2>
0.0047

>  <oscillator_strength_3>
0.0102

>  <oscillator_strength_4>
0.0453

>  <open_babel_can_smiles>
c1ccc2c(c1)Sc1c(S2)cccc1

>  <mulliken_charges>
22
1   -0.122457
2   -0.122591
3   -0.122428
4   -0.122607
5   -0.150409
6   -0.150397
7   -0.150453
8   -0.150404
9   -0.093213
10   -0.09313
11   -0.093166
12   -0.093138
13   0.15507
14   0.155081
15   0.138499
16   0.138511
17   0.138503
18   0.138508
19   0.150055
20   0.150051
21   0.150049
22   0.150066

>  <lowdin_charges>
22
1   -0.153967
2   -0.153964
3   -0.153967
4   -0.153965
5   -0.153682
6   -0.153686
7   -0.153684
8   -0.153688
9   -0.12913
10   -0.129146
11   -0.129138
12   -0.129083
13   0.211293
14   0.21129
15   0.163698
16   0.163702
17   0.163703
18   0.163703
19   0.167429
20   0.167424
21   0.167426
22   0.167431

$$$$

