PCCDB-ID:  11717
public computational chemistry database (PCCDB) project, http://pccdb.org

 14 13  0  0  1  0  0  0  0  0999 V2000
    1.0699    0.0331    0.0678 C   0  0  0  0  0  0  0  0  0  0  0  0
    3.1047   -0.1707   -1.4504 C   0  0  0  0  0  0  0  0  0  0  0  0
    2.5943    0.0972   -0.0294 C   0  0  1  0  0  0  0  0  0  0  0  0
    4.5572   -0.3251   -1.4714 N   0  0  0  0  0  0  0  0  0  0  0  0
    3.2576    1.6954    0.6510 S   0  0  0  0  0  0  0  0  0  0  0  0
    0.7098   -0.9535   -0.2507 H   0  0  0  0  0  0  0  0  0  0  0  0
    0.6000    0.7844   -0.5789 H   0  0  0  0  0  0  0  0  0  0  0  0
    0.7316    0.2097    1.0925 H   0  0  0  0  0  0  0  0  0  0  0  0
    2.7120    0.6203   -2.1187 H   0  0  0  0  0  0  0  0  0  0  0  0
    2.6616   -1.1166   -1.7919 H   0  0  0  0  0  0  0  0  0  0  0  0
    3.0455   -0.6506    0.6320 H   0  0  0  0  0  0  0  0  0  0  0  0
    4.9885    0.5557   -1.1928 H   0  0  0  0  0  0  0  0  0  0  0  0
    4.8708   -0.5184   -2.4206 H   0  0  0  0  0  0  0  0  0  0  0  0
    2.5191    2.5082   -0.1393 H   0  0  0  0  0  0  0  0  0  0  0  0
  1  8  1  0  0  0  0
  2  3  1  0  0  0  0
  3  1  1  0  0  0  0
  3 11  1  1  0  0  0
  3  5  1  0  0  0  0
  4  2  1  0  0  0  0
  4 12  1  0  0  0  0
  6  1  1  0  0  0  0
  7  1  1  0  0  0  0
  9  2  1  0  0  0  0
 10  2  1  0  0  0  0
 13  4  1  0  0  0  0
 14  5  1  0  0  0  0
M  END
>  <HBA>
2

>  <HBD>
2

>  <TPSA>
64.82

>  <cid>
11717

>  <dipole>
2.32

>  <excitation_energy_1>
5.406

>  <excitation_energy_2>
5.701

>  <excitation_energy_3>
5.913

>  <excitation_energy_4>
6.104

>  <homo_energy>
-6.289

>  <homo_lumo_gap>
7.023

>  <logP>
0.964

>  <lumo_energy>
0.735

>  <melting_point>
49.94

>  <molecular_refractivity>
27.17

>  <oscillator_strength_1>
0.0101

>  <oscillator_strength_2>
0.0027

>  <oscillator_strength_3>
0.0565

>  <oscillator_strength_4>
0.0101

>  <open_babel_can_smiles>
C[C@@H](CN)S

>  <mulliken_charges>
14
1   -0.439993
2   -0.113419
3   -0.235398
4   -0.722482
5   -0.099269
6   0.1516
7   0.145828
8   0.169328
9   0.111946
10   0.143555
11   0.187031
12   0.316179
13   0.296628
14   0.088467

>  <lowdin_charges>
14
1   -0.446411
2   -0.209192
3   -0.216526
4   -0.558587
5   -0.099027
6   0.153466
7   0.150773
8   0.163469
9   0.118224
10   0.145988
11   0.171576
12   0.260904
13   0.254786
14   0.110556

$$$$

