PCCDB-ID:  47386
public computational chemistry database (PCCDB) project, http://pccdb.org

 43 42  0  0  0  0  0  0  0  0999 V2000
    1.0775    2.5657   -0.9086 C   0  0  0  0  0  0  0  0  0  0  0  0
    4.9756   -0.7409    3.6387 C   0  0  0  0  0  0  0  0  0  0  0  0
    5.3945   -0.6496   -3.2137 C   0  0  0  0  0  0  0  0  0  0  0  0
    6.4619    4.3629    2.7993 C   0  0  0  0  0  0  0  0  0  0  0  0
    2.6063    2.4477   -0.9348 C   0  0  0  0  0  0  0  0  0  0  0  0
    4.5408    0.3907    2.7001 C   0  0  0  0  0  0  0  0  0  0  0  0
    4.6918   -0.3712   -1.8793 C   0  0  0  0  0  0  0  0  0  0  0  0
    7.0517    4.0386    1.4237 C   0  0  0  0  0  0  0  0  0  0  0  0
    3.1260    1.4613    0.1242 C   0  0  0  0  0  0  0  0  0  0  0  0
    4.9643    0.1325    1.2468 C   0  0  0  0  0  0  0  0  0  0  0  0
    5.2704    0.8610   -1.1640 C   0  0  0  0  0  0  0  0  0  0  0  0
    6.6797    2.6455    0.8965 C   0  0  0  0  0  0  0  0  0  0  0  0
    4.6629    1.2559    0.2175 C   0  0  0  0  0  0  0  0  0  0  0  0
    5.2315    2.5361    0.7080 N   0  0  0  0  0  0  0  0  0  0  0  0
    0.7181    3.2748   -1.6631 H   0  0  0  0  0  0  0  0  0  0  0  0
    0.7235    2.9110    0.0704 H   0  0  0  0  0  0  0  0  0  0  0  0
    0.6026    1.5971   -1.1082 H   0  0  0  0  0  0  0  0  0  0  0  0
    4.6617   -0.5460    4.6707 H   0  0  0  0  0  0  0  0  0  0  0  0
    6.0666   -0.8603    3.6404 H   0  0  0  0  0  0  0  0  0  0  0  0
    4.5411   -1.7020    3.3355 H   0  0  0  0  0  0  0  0  0  0  0  0
    4.9711   -1.5291   -3.7126 H   0  0  0  0  0  0  0  0  0  0  0  0
    6.4661   -0.8331   -3.0671 H   0  0  0  0  0  0  0  0  0  0  0  0
    5.2969    0.2015   -3.8992 H   0  0  0  0  0  0  0  0  0  0  0  0
    6.7329    5.3758    3.1187 H   0  0  0  0  0  0  0  0  0  0  0  0
    6.8333    3.6636    3.5591 H   0  0  0  0  0  0  0  0  0  0  0  0
    5.3711    4.2845    2.7813 H   0  0  0  0  0  0  0  0  0  0  0  0
    3.0349    3.4461   -0.7711 H   0  0  0  0  0  0  0  0  0  0  0  0
    2.9245    2.1371   -1.9382 H   0  0  0  0  0  0  0  0  0  0  0  0
    4.9612    1.3430    3.0411 H   0  0  0  0  0  0  0  0  0  0  0  0
    3.4509    0.5031    2.7588 H   0  0  0  0  0  0  0  0  0  0  0  0
    4.7813   -1.2572   -1.2379 H   0  0  0  0  0  0  0  0  0  0  0  0
    3.6183   -0.2338   -2.0623 H   0  0  0  0  0  0  0  0  0  0  0  0
    8.1471    4.1102    1.4591 H   0  0  0  0  0  0  0  0  0  0  0  0
    6.7246    4.7946    0.6935 H   0  0  0  0  0  0  0  0  0  0  0  0
    2.6537    0.4853   -0.0514 H   0  0  0  0  0  0  0  0  0  0  0  0
    2.7778    1.8023    1.1057 H   0  0  0  0  0  0  0  0  0  0  0  0
    4.4782   -0.7877    0.8978 H   0  0  0  0  0  0  0  0  0  0  0  0
    6.0423   -0.0827    1.2278 H   0  0  0  0  0  0  0  0  0  0  0  0
    5.1823    1.7262   -1.8377 H   0  0  0  0  0  0  0  0  0  0  0  0
    6.3487    0.6995   -1.0310 H   0  0  0  0  0  0  0  0  0  0  0  0
    6.9951    1.8938    1.6304 H   0  0  0  0  0  0  0  0  0  0  0  0
    7.2632    2.4513   -0.0216 H   0  0  0  0  0  0  0  0  0  0  0  0
    4.9454    3.2760    0.0688 H   0  0  0  0  0  0  0  0  0  0  0  0
  1 16  1  0  0  0  0
  2 19  1  0  0  0  0
  2 18  1  0  0  0  0
  3 22  1  0  0  0  0
  3  7  1  0  0  0  0
  4 24  1  0  0  0  0
  4 25  1  0  0  0  0
  5  1  1  0  0  0  0
  5 27  1  0  0  0  0
  5  9  1  0  0  0  0
  6 30  1  0  0  0  0
  6 29  1  0  0  0  0
  6  2  1  0  0  0  0
  7 31  1  0  0  0  0
  7 11  1  0  0  0  0
  8 33  1  0  0  0  0
  8  4  1  0  0  0  0
  9 13  1  0  0  0  0
  9 36  1  0  0  0  0
 10  6  1  0  0  0  0
 11 40  1  0  0  0  0
 11 13  1  0  0  0  0
 12  8  1  0  0  0  0
 12 41  1  0  0  0  0
 13 14  1  0  0  0  0
 13 10  1  0  0  0  0
 14 12  1  0  0  0  0
 15  1  1  0  0  0  0
 17  1  1  0  0  0  0
 20  2  1  0  0  0  0
 21  3  1  0  0  0  0
 23  3  1  0  0  0  0
 26  4  1  0  0  0  0
 28  5  1  0  0  0  0
 32  7  1  0  0  0  0
 34  8  1  0  0  0  0
 35  9  1  0  0  0  0
 37 10  1  0  0  0  0
 38 10  1  0  0  0  0
 39 11  1  0  0  0  0
 42 12  1  0  0  0  0
 43 14  1  0  0  0  0
M  END
>  <HBA>
1

>  <HBD>
1

>  <TPSA>
12.03

>  <cid>
47386

>  <dipole>
0.88

>  <excitation_energy_1>
5.215

>  <excitation_energy_2>
5.447

>  <excitation_energy_3>
5.531

>  <excitation_energy_4>
5.611

>  <homo_energy>
-5.641

>  <homo_lumo_gap>
7.777

>  <logP>
4.516

>  <lumo_energy>
2.136

>  <melting_point>
6.99

>  <molecular_refractivity>
67.44

>  <oscillator_strength_1>
0.0033

>  <oscillator_strength_2>
0.0031

>  <oscillator_strength_3>
0.0151

>  <oscillator_strength_4>
0.0003

>  <open_babel_can_smiles>
CCCNC(CCC)(CCC)CCC

>  <mulliken_charges>
43
1   -0.441935
2   -0.444064
3   -0.442102
4   -0.434735
5   -0.269689
6   -0.254441
7   -0.260858
8   -0.264302
9   -0.267723
10   -0.274212
11   -0.269197
12   -0.113276
13   0.22014
14   -0.58166
15   0.141168
16   0.144748
17   0.14182
18   0.140214
19   0.137351
20   0.137501
21   0.141041
22   0.141693
23   0.140393
24   0.135173
25   0.137114
26   0.163251
27   0.128703
28   0.137742
29   0.156121
30   0.131895
31   0.137182
32   0.135729
33   0.130717
34   0.124185
35   0.126524
36   0.145323
37   0.129773
38   0.123866
39   0.118909
40   0.129294
41   0.137308
42   0.113065
43   0.29025

>  <lowdin_charges>
43
1   -0.443383
2   -0.441037
3   -0.442977
4   -0.445722
5   -0.277118
6   -0.274654
7   -0.276519
8   -0.274381
9   -0.282732
10   -0.280033
11   -0.29016
12   -0.206519
13   0.061533
14   -0.364391
15   0.14988
16   0.14761
17   0.14623
18   0.147184
19   0.141673
20   0.143481
21   0.1494
22   0.144466
23   0.145935
24   0.145373
25   0.145553
26   0.154808
27   0.136278
28   0.140227
29   0.150925
30   0.138509
31   0.141983
32   0.138603
33   0.140463
34   0.136132
35   0.140777
36   0.150015
37   0.142646
38   0.135956
39   0.136312
40   0.13917
41   0.141144
42   0.119283
43   0.248075

$$$$

