PCCDB-ID:  44691
public computational chemistry database (PCCDB) project, http://pccdb.org

 35 34  0  0  1  0  0  0  0  0999 V2000
    3.3543   -3.0198    0.2026 C   0  0  0  0  0  0  0  0  0  0  0  0
    3.4981    0.1064    6.2437 C   0  0  0  0  0  0  0  0  0  0  0  0
    2.4806    1.9556    4.8537 C   0  0  0  0  0  0  0  0  0  0  0  0
    1.2710   -3.7433    2.2270 C   0  0  0  0  0  0  0  0  0  0  0  0
    0.4895   -0.0312    5.7371 C   0  0  0  0  0  0  0  0  0  0  0  0
    2.9587    0.2390    2.3590 C   0  0  0  0  0  0  0  0  0  0  0  0
    3.3795   -0.7320    1.2420 C   0  0  0  0  0  0  0  0  0  0  0  0
    3.5896   -0.0479    3.7343 C   0  0  0  0  0  0  0  0  0  0  0  0
    3.0578   -2.2227    1.4793 C   0  0  1  0  0  0  0  0  0  0  0  0
    2.7611    0.4465    4.9381 C   0  0  0  0  0  0  0  0  0  0  0  0
    1.6550   -2.3776    1.8819 N   0  0  0  0  0  0  0  0  0  0  0  0
    1.5421   -0.3284    4.8408 O   0  0  0  0  0  0  0  0  0  0  0  0
    4.3773   -2.8235   -0.1384 H   0  0  0  0  0  0  0  0  0  0  0  0
    2.6602   -2.7281   -0.5943 H   0  0  0  0  0  0  0  0  0  0  0  0
    3.2619   -4.0995    0.3585 H   0  0  0  0  0  0  0  0  0  0  0  0
    4.4687    0.6135    6.2789 H   0  0  0  0  0  0  0  0  0  0  0  0
    3.6697   -0.9730    6.3137 H   0  0  0  0  0  0  0  0  0  0  0  0
    2.9324    0.4226    7.1269 H   0  0  0  0  0  0  0  0  0  0  0  0
    3.4228    2.5065    4.7568 H   0  0  0  0  0  0  0  0  0  0  0  0
    1.9766    2.3264    5.7528 H   0  0  0  0  0  0  0  0  0  0  0  0
    1.8555    2.1938    3.9878 H   0  0  0  0  0  0  0  0  0  0  0  0
    0.2814   -3.7261    2.6958 H   0  0  0  0  0  0  0  0  0  0  0  0
    1.9693   -4.2485    2.9227 H   0  0  0  0  0  0  0  0  0  0  0  0
    1.1942   -4.3632    1.3274 H   0  0  0  0  0  0  0  0  0  0  0  0
   -0.2975   -0.7635    5.5363 H   0  0  0  0  0  0  0  0  0  0  0  0
    0.0744    0.9745    5.5817 H   0  0  0  0  0  0  0  0  0  0  0  0
    0.7889   -0.1269    6.7906 H   0  0  0  0  0  0  0  0  0  0  0  0
    1.8678    0.2174    2.4521 H   0  0  0  0  0  0  0  0  0  0  0  0
    3.2119    1.2587    2.0412 H   0  0  0  0  0  0  0  0  0  0  0  0
    4.4606   -0.6463    1.0617 H   0  0  0  0  0  0  0  0  0  0  0  0
    2.8805   -0.4195    0.3149 H   0  0  0  0  0  0  0  0  0  0  0  0
    4.5947    0.3902    3.7897 H   0  0  0  0  0  0  0  0  0  0  0  0
    3.7167   -1.1283    3.8721 H   0  0  0  0  0  0  0  0  0  0  0  0
    3.7389   -2.6077    2.2670 H   0  0  0  0  0  0  0  0  0  0  0  0
    1.4945   -1.7971    2.7033 H   0  0  0  0  0  0  0  0  0  0  0  0
  1 15  1  0  0  0  0
  1  9  1  0  0  0  0
  2 16  1  0  0  0  0
  2 17  1  0  0  0  0
  2 18  1  0  0  0  0
  3 10  1  0  0  0  0
  3 20  1  0  0  0  0
  4 22  1  0  0  0  0
  4 23  1  0  0  0  0
  5 27  1  0  0  0  0
  6 28  1  0  0  0  0
  6  8  1  0  0  0  0
  7  9  1  0  0  0  0
  7  6  1  0  0  0  0
  8 32  1  0  0  0  0
  8 33  1  0  0  0  0
  8 10  1  0  0  0  0
  9 11  1  0  0  0  0
  9 34  1  1  0  0  0
 10  2  1  0  0  0  0
 11  4  1  0  0  0  0
 11 35  1  0  0  0  0
 12 10  1  0  0  0  0
 12  5  1  0  0  0  0
 13  1  1  0  0  0  0
 14  1  1  0  0  0  0
 19  3  1  0  0  0  0
 21  3  1  0  0  0  0
 24  4  1  0  0  0  0
 25  5  1  0  0  0  0
 26  5  1  0  0  0  0
 29  6  1  0  0  0  0
 30  7  1  0  0  0  0
 31  7  1  0  0  0  0
M  END
>  <HBA>
2

>  <HBD>
1

>  <TPSA>
21.26

>  <cid>
44691

>  <dipole>
2.23

>  <excitation_energy_1>
5.311

>  <excitation_energy_2>
5.606

>  <excitation_energy_3>
5.676

>  <excitation_energy_4>
5.735

>  <homo_energy>
-5.584

>  <homo_lumo_gap>
7.587

>  <logP>
2.58

>  <lumo_energy>
2.003

>  <melting_point>
0.03

>  <molecular_refractivity>
54.11

>  <oscillator_strength_1>
0.0044

>  <oscillator_strength_2>
0.0169

>  <oscillator_strength_3>
0.0134

>  <oscillator_strength_4>
0.0188

>  <open_babel_can_smiles>
CN[C@H](CCCC(OC)(C)C)C

>  <mulliken_charges>
35
1   -0.448935
2   -0.460979
3   -0.473195
4   -0.300367
5   -0.198739
6   -0.294829
7   -0.255607
8   -0.26945
9   0.059119
10   0.322817
11   -0.56589
12   -0.49357
13   0.136307
14   0.149995
15   0.14211
16   0.142935
17   0.152349
18   0.141207
19   0.145995
20   0.142898
21   0.16064
22   0.14175
23   0.113737
24   0.149834
25   0.156746
26   0.135651
27   0.131771
28   0.16142
29   0.128692
30   0.120882
31   0.134567
32   0.126922
33   0.146318
34   0.096071
35   0.320828

>  <lowdin_charges>
35
1   -0.44738
2   -0.454153
3   -0.46064
4   -0.361361
5   -0.281087
6   -0.285136
7   -0.277247
8   -0.28223
9   -0.062275
10   0.129903
11   -0.372269
12   -0.282208
13   0.148068
14   0.152709
15   0.146711
16   0.15345
17   0.153826
18   0.14928
19   0.156262
20   0.150626
21   0.15942
22   0.147945
23   0.119325
24   0.145712
25   0.155672
26   0.133737
27   0.130826
28   0.149889
29   0.141196
30   0.13618
31   0.146653
32   0.142436
33   0.147471
34   0.1086
35   0.260088

$$$$

