PCCDB-ID:  31550
public computational chemistry database (PCCDB) project, http://pccdb.org

 22 22  0  0  0  0  0  0  0  0999 V2000
    1.7095   -0.5882    3.3462 C   0  0  0  0  0  0  0  0  0  0  0  0
    6.8114    3.1177    4.6105 C   0  0  0  0  0  0  0  0  0  0  0  0
    6.4289    0.8666    5.4638 C   0  0  0  0  0  0  0  0  0  0  0  0
    6.1806    2.7636    3.4207 C   0  0  0  0  0  0  0  0  0  0  0  0
    5.8172    0.5149    4.2662 C   0  0  0  0  0  0  0  0  0  0  0  0
    6.9202    2.1629    5.6178 C   0  0  0  0  0  0  0  0  0  0  0  0
    5.6830    1.4652    3.2433 C   0  0  0  0  0  0  0  0  0  0  0  0
    3.4413    0.2761    2.0189 C   0  0  0  0  0  0  0  0  0  0  0  0
    3.0104    0.0505    3.1834 N   0  0  0  0  0  0  0  0  0  0  0  0
    7.5744    2.5322    6.8820 N   0  0  0  0  0  0  0  0  0  0  0  0
    2.8610   -0.0065    0.8182 O   0  0  0  0  0  0  0  0  0  0  0  0
    8.0102    3.6789    6.9870 O   0  0  0  0  0  0  0  0  0  0  0  0
    7.6481    1.6727    7.7602 O   0  0  0  0  0  0  0  0  0  0  0  0
    5.0094    1.0643    1.6369 S   0  0  0  0  0  0  0  0  0  0  0  0
    1.4970   -0.6930    4.4126 H   0  0  0  0  0  0  0  0  0  0  0  0
    1.6784   -1.5976    2.9055 H   0  0  0  0  0  0  0  0  0  0  0  0
    0.8924    0.0052    2.9065 H   0  0  0  0  0  0  0  0  0  0  0  0
    7.2025    4.1146    4.7706 H   0  0  0  0  0  0  0  0  0  0  0  0
    6.5410    0.1538    6.2713 H   0  0  0  0  0  0  0  0  0  0  0  0
    6.0671    3.4984    2.6301 H   0  0  0  0  0  0  0  0  0  0  0  0
    5.4347   -0.4879    4.1271 H   0  0  0  0  0  0  0  0  0  0  0  0
    2.0119   -0.4538    0.9737 H   0  0  0  0  0  0  0  0  0  0  0  0
  1 15  1  0  0  0  0
  2 18  1  0  0  0  0
  2  6  2  0  0  0  0
  3  6  1  0  0  0  0
  3 19  1  0  0  0  0
  4  2  1  0  0  0  0
  5  3  2  0  0  0  0
  6 10  1  0  0  0  0
  7  4  2  0  0  0  0
  7  5  1  0  0  0  0
  8  9  2  0  0  0  0
  9  1  1  0  0  0  0
 10 12  2  0  0  0  0
 10 13  2  0  0  0  0
 11 22  1  0  0  0  0
 11  8  1  0  0  0  0
 14  8  1  0  0  0  0
 14  7  1  0  0  0  0
 16  1  1  0  0  0  0
 17  1  1  0  0  0  0
 20  4  1  0  0  0  0
 21  5  1  0  0  0  0
M  END
>  <HBA>
3

>  <HBD>
1

>  <TPSA>
100.22

>  <cid>
31550

>  <dipole>
5.92

>  <excitation_energy_1>
3.515

>  <excitation_energy_2>
3.732

>  <excitation_energy_3>
4.124

>  <excitation_energy_4>
4.244

>  <homo_energy>
-6.651

>  <homo_lumo_gap>
4.182

>  <logP>
2.94

>  <lumo_energy>
-2.468

>  <melting_point>
114.17

>  <molecular_refractivity>
55.18

>  <oscillator_strength_1>
0.1399

>  <oscillator_strength_2>
0.009

>  <oscillator_strength_3>
0.0138

>  <oscillator_strength_4>
0.0009

>  <open_babel_can_smiles>
C/N=C(/Sc1ccc(cc1)N(=O)=O)\O

>  <mulliken_charges>
22
1   -0.367577
2   -0.138763
3   -0.145599
4   -0.165654
5   -0.120427
6   0.268943
7   -0.064585
8   0.311968
9   -0.386006
10   0.380391
11   -0.58445
12   -0.394806
13   -0.394412
14   0.182706
15   0.182973
16   0.150832
17   0.153749
18   0.186303
19   0.185372
20   0.16487
21   0.167708
22   0.426465

>  <lowdin_charges>
22
1   -0.366926
2   -0.135335
3   -0.137651
4   -0.151853
5   -0.129823
6   0.00373
7   -0.100121
8   0.01791
9   -0.231764
10   0.308323
11   -0.363718
12   -0.245878
13   -0.247052
14   0.218603
15   0.167274
16   0.143002
17   0.146503
18   0.189322
19   0.190225
20   0.177481
21   0.17968
22   0.368069

$$$$

