PCCDB-ID:  32893
public computational chemistry database (PCCDB) project, http://pccdb.org

 23 23  0  0  1  0  0  0  0  0999 V2000
    2.9919    2.1640   -0.4629 C   0  0  0  0  0  0  0  0  0  0  0  0
   -0.9780    1.2821   -3.8818 C   0  0  0  0  0  0  0  0  0  0  0  0
   -0.1504    0.1573   -3.8567 C   0  0  0  0  0  0  0  0  0  0  0  0
   -1.0853    2.0810   -2.7430 C   0  0  0  0  0  0  0  0  0  0  0  0
    0.5626   -0.1614   -2.7010 C   0  0  0  0  0  0  0  0  0  0  0  0
   -0.3681    1.7575   -1.5896 C   0  0  0  0  0  0  0  0  0  0  0  0
    1.2605    0.2897   -0.3065 C   0  0  0  0  0  0  0  0  0  0  0  0
    2.7612    0.6543   -0.3836 C   0  0  2  0  0  0  0  0  0  0  0  0
    0.4688    0.6342   -1.5493 C   0  0  0  0  0  0  0  0  0  0  0  0
    3.4136    0.1404    0.8306 N   0  0  0  0  0  0  0  0  0  0  0  0
    2.4866    2.5957   -1.3320 H   0  0  0  0  0  0  0  0  0  0  0  0
    4.0621    2.3907   -0.5501 H   0  0  0  0  0  0  0  0  0  0  0  0
    2.6170    2.6518    0.4443 H   0  0  0  0  0  0  0  0  0  0  0  0
   -1.5376    1.5299   -4.7799 H   0  0  0  0  0  0  0  0  0  0  0  0
   -0.0644   -0.4757   -4.7363 H   0  0  0  0  0  0  0  0  0  0  0  0
   -1.7307    2.9557   -2.7492 H   0  0  0  0  0  0  0  0  0  0  0  0
    1.1977   -1.0451   -2.6885 H   0  0  0  0  0  0  0  0  0  0  0  0
   -0.4613    2.3826   -0.7043 H   0  0  0  0  0  0  0  0  0  0  0  0
    1.1849   -0.7910   -0.1182 H   0  0  0  0  0  0  0  0  0  0  0  0
    0.8353    0.7888    0.5723 H   0  0  0  0  0  0  0  0  0  0  0  0
    3.1653    0.2006   -1.3084 H   0  0  0  0  0  0  0  0  0  0  0  0
    3.3509   -0.8774    0.8514 H   0  0  0  0  0  0  0  0  0  0  0  0
    4.4085    0.3612    0.8030 H   0  0  0  0  0  0  0  0  0  0  0  0
  1  8  1  0  0  0  0
  1 13  1  0  0  0  0
  2  3  2  0  0  0  0
  2  4  1  0  0  0  0
  3  5  1  0  0  0  0
  4  6  2  0  0  0  0
  5 17  1  0  0  0  0
  5  9  2  0  0  0  0
  6  9  1  0  0  0  0
  6 18  1  0  0  0  0
  7 19  1  0  0  0  0
  7 20  1  0  0  0  0
  8 21  1  6  0  0  0
  8  7  1  0  0  0  0
  8 10  1  0  0  0  0
  9  7  1  0  0  0  0
 10 22  1  0  0  0  0
 11  1  1  0  0  0  0
 12  1  1  0  0  0  0
 14  2  1  0  0  0  0
 15  3  1  0  0  0  0
 16  4  1  0  0  0  0
 23 10  1  0  0  0  0
M  END
>  <HBA>
1

>  <HBD>
1

>  <TPSA>
26.02

>  <cid>
32893

>  <dipole>
1.31

>  <excitation_energy_1>
5.285

>  <excitation_energy_2>
5.596

>  <excitation_energy_3>
5.743

>  <excitation_energy_4>
5.775

>  <homo_energy>
-6.297

>  <homo_lumo_gap>
6.368

>  <logP>
2.277

>  <lumo_energy>
0.071

>  <melting_point>
60.07

>  <molecular_refractivity>
43.73

>  <oscillator_strength_1>
0.002

>  <oscillator_strength_2>
0.0118

>  <oscillator_strength_3>
0.0161

>  <oscillator_strength_4>
0.0008

>  <open_babel_can_smiles>
C[C@H](Cc1ccccc1)N

>  <mulliken_charges>
23
1   -0.446929
2   -0.131845
3   -0.128212
4   -0.127995
5   -0.180152
6   -0.185355
7   -0.342436
8   0.042364
9   0.17297
10   -0.718317
11   0.156195
12   0.133606
13   0.152516
14   0.126907
15   0.126891
16   0.127742
17   0.119372
18   0.125774
19   0.133509
20   0.151965
21   0.108693
22   0.290363
23   0.292372

>  <lowdin_charges>
23
1   -0.451229
2   -0.162457
3   -0.156672
4   -0.155647
5   -0.167706
6   -0.168857
7   -0.276371
8   -0.058957
9   -0.000987
10   -0.552043
11   0.159039
12   0.143952
13   0.153873
14   0.156831
15   0.156639
16   0.156753
17   0.152387
18   0.155866
19   0.144945
20   0.155671
21   0.116285
22   0.247907
23   0.250776

$$$$

