PCCDB-ID:  62143
public computational chemistry database (PCCDB) project, http://pccdb.org

 21 21  0  0  0  0  0  0  0  0999 V2000
    1.3693   -0.7123    0.2264 C   0  0  0  0  0  0  0  0  0  0  0  0
    2.8984   -0.7076    0.2292 C   0  0  0  0  0  0  0  0  0  0  0  0
    9.1204   -2.4371   -3.5917 C   0  0  0  0  0  0  0  0  0  0  0  0
    7.8421   -1.7999   -3.7048 C   0  0  0  0  0  0  0  0  0  0  0  0
    8.9454   -3.4799   -2.7351 C   0  0  0  0  0  0  0  0  0  0  0  0
    5.5410   -2.3644   -2.5987 C   0  0  0  0  0  0  0  0  0  0  0  0
    6.9820   -2.5050   -2.9125 C   0  0  0  0  0  0  0  0  0  0  0  0
    3.4886   -1.3732   -1.0078 C   0  0  0  0  0  0  0  0  0  0  0  0
    2.8383   -1.7207   -1.9695 O   0  0  0  0  0  0  0  0  0  0  0  0
    7.6517   -3.5385   -2.3107 O   0  0  0  0  0  0  0  0  0  0  0  0
    5.2819   -1.5848   -0.9297 S   0  0  0  0  0  0  0  0  0  0  0  0
    0.9878   -0.2041    1.1178 H   0  0  0  0  0  0  0  0  0  0  0  0
    0.9788   -1.7345    0.2191 H   0  0  0  0  0  0  0  0  0  0  0  0
    0.9782   -0.2028   -0.6584 H   0  0  0  0  0  0  0  0  0  0  0  0
    3.2991   -1.2090    1.1193 H   0  0  0  0  0  0  0  0  0  0  0  0
    3.2868    0.3197    0.2647 H   0  0  0  0  0  0  0  0  0  0  0  0
   10.0404   -2.1540   -4.0836 H   0  0  0  0  0  0  0  0  0  0  0  0
    7.5927   -0.9323   -4.3000 H   0  0  0  0  0  0  0  0  0  0  0  0
    9.6002   -4.2436   -2.3439 H   0  0  0  0  0  0  0  0  0  0  0  0
    5.0354   -3.3328   -2.5895 H   0  0  0  0  0  0  0  0  0  0  0  0
    5.0463   -1.7288   -3.3348 H   0  0  0  0  0  0  0  0  0  0  0  0
  1  2  1  0  0  0  0
  1 12  1  0  0  0  0
  2 16  1  0  0  0  0
  2 15  1  0  0  0  0
  3  5  2  0  0  0  0
  4  3  1  0  0  0  0
  4  7  2  0  0  0  0
  5 19  1  0  0  0  0
  5 10  1  0  0  0  0
  6 20  1  0  0  0  0
  6 11  1  0  0  0  0
  7  6  1  0  0  0  0
  7 10  1  0  0  0  0
  8 11  1  0  0  0  0
  8  2  1  0  0  0  0
  9  8  2  0  0  0  0
 13  1  1  0  0  0  0
 14  1  1  0  0  0  0
 17  3  1  0  0  0  0
 18  4  1  0  0  0  0
 21  6  1  0  0  0  0
M  END
>  <HBA>
3

>  <HBD>
0

>  <TPSA>
55.51

>  <cid>
62143

>  <dipole>
1.16

>  <excitation_energy_1>
4.697

>  <excitation_energy_2>
5.112

>  <excitation_energy_3>
5.28

>  <excitation_energy_4>
5.462

>  <homo_energy>
-6.09

>  <homo_lumo_gap>
5.704

>  <logP>
2.449

>  <lumo_energy>
-0.386

>  <melting_point>
34.75

>  <molecular_refractivity>
45.89

>  <oscillator_strength_1>
0.001

>  <oscillator_strength_2>
0.0003

>  <oscillator_strength_3>
0.165

>  <oscillator_strength_4>
0.0099

>  <open_babel_can_smiles>
CCC(=O)SCc1ccco1

>  <mulliken_charges>
21
1   -0.43763
2   -0.346635
3   -0.180038
4   -0.192403
5   0.085905
6   -0.496699
7   0.336053
8   0.27346
9   -0.425223
10   -0.425754
11   0.11288
12   0.147073
13   0.162445
14   0.167538
15   0.175863
16   0.180528
17   0.143559
18   0.143542
19   0.156854
20   0.210058
21   0.208626

>  <lowdin_charges>
21
1   -0.439213
2   -0.302732
3   -0.204158
4   -0.20575
5   -0.077035
6   -0.35743
7   0.054251
8   0.045513
9   -0.240519
10   -0.098264
11   0.12074
12   0.154777
13   0.158557
14   0.162682
15   0.170392
16   0.171872
17   0.170731
18   0.170861
19   0.173491
20   0.183778
21   0.187455

$$$$

