PCCDB-ID:  7081
public computational chemistry database (PCCDB) project, http://pccdb.org

 33 35  0  0  0  0  0  0  0  0999 V2000
    0.9533    0.1075    0.0525 C   0  0  0  0  0  0  0  0  0  0  0  0
    9.7103   -4.7139    0.0248 C   0  0  0  0  0  0  0  0  0  0  0  0
    3.1503   -1.1116    0.0694 C   0  0  0  0  0  0  0  0  0  0  0  0
    7.5052   -3.5094    0.0560 C   0  0  0  0  0  0  0  0  0  0  0  0
    5.2991   -2.3623    0.0648 C   0  0  0  0  0  0  0  0  0  0  0  0
    4.5885    1.2893   -0.0073 C   0  0  0  0  0  0  0  0  0  0  0  0
    8.7644   -1.0102   -0.0235 C   0  0  0  0  0  0  0  0  0  0  0  0
    2.4609    0.0731    0.0508 C   0  0  0  0  0  0  0  0  0  0  0  0
    8.8748   -3.4586    0.0293 C   0  0  0  0  0  0  0  0  0  0  0  0
    4.5748   -1.1687    0.0467 C   0  0  0  0  0  0  0  0  0  0  0  0
    6.6950   -2.3362    0.0398 C   0  0  0  0  0  0  0  0  0  0  0  0
    3.2091    1.3097    0.0121 C   0  0  0  0  0  0  0  0  0  0  0  0
    9.5193   -2.1650   -0.0114 C   0  0  0  0  0  0  0  0  0  0  0  0
    5.3183    0.0692    0.0019 C   0  0  0  0  0  0  0  0  0  0  0  0
    7.3432   -1.0459   -0.0056 C   0  0  0  0  0  0  0  0  0  0  0  0
    2.5030    2.5119   -0.0719 N   0  0  0  0  0  0  0  0  0  0  0  0
   10.9122   -2.1183   -0.1046 N   0  0  0  0  0  0  0  0  0  0  0  0
    6.6632    0.1154   -0.0222 N   0  0  0  0  0  0  0  0  0  0  0  0
    0.5403   -0.9050    0.0276 H   0  0  0  0  0  0  0  0  0  0  0  0
    0.5629    0.6562   -0.8143 H   0  0  0  0  0  0  0  0  0  0  0  0
    0.5500    0.5987    0.9511 H   0  0  0  0  0  0  0  0  0  0  0  0
    9.0759   -5.6047    0.0088 H   0  0  0  0  0  0  0  0  0  0  0  0
   10.3508   -4.7895    0.9166 H   0  0  0  0  0  0  0  0  0  0  0  0
   10.3736   -4.7519   -0.8491 H   0  0  0  0  0  0  0  0  0  0  0  0
    2.5976   -2.0492    0.0982 H   0  0  0  0  0  0  0  0  0  0  0  0
    7.0083   -4.4777    0.0864 H   0  0  0  0  0  0  0  0  0  0  0  0
    4.7739   -3.3161    0.0976 H   0  0  0  0  0  0  0  0  0  0  0  0
    5.1607    2.2128   -0.0359 H   0  0  0  0  0  0  0  0  0  0  0  0
    9.2388   -0.0329   -0.0529 H   0  0  0  0  0  0  0  0  0  0  0  0
    3.0554    3.3364    0.1302 H   0  0  0  0  0  0  0  0  0  0  0  0
    1.6131    2.5338    0.4097 H   0  0  0  0  0  0  0  0  0  0  0  0
   11.3145   -1.2108    0.0963 H   0  0  0  0  0  0  0  0  0  0  0  0
   11.4098   -2.8592    0.3726 H   0  0  0  0  0  0  0  0  0  0  0  0
  1 21  1  0  0  0  0
  2  9  1  0  0  0  0
  2 23  1  0  0  0  0
  3 25  1  0  0  0  0
  4 26  1  0  0  0  0
  5 27  1  0  0  0  0
  6 14  2  0  0  0  0
  6 12  1  0  0  0  0
  7 13  2  0  0  0  0
  7 15  1  0  0  0  0
  8  1  1  0  0  0  0
  8  3  1  0  0  0  0
  9  4  2  0  0  0  0
 10  5  1  0  0  0  0
 10  3  2  0  0  0  0
 11  4  1  0  0  0  0
 11  5  2  0  0  0  0
 12  8  2  0  0  0  0
 13  9  1  0  0  0  0
 14 10  1  0  0  0  0
 15 11  1  0  0  0  0
 16 12  1  0  0  0  0
 16 30  1  0  0  0  0
 16 31  1  0  0  0  0
 17 13  1  0  0  0  0
 17 32  1  0  0  0  0
 17 33  1  0  0  0  0
 18 15  2  0  0  0  0
 18 14  1  0  0  0  0
 19  1  1  0  0  0  0
 20  1  1  0  0  0  0
 22  2  1  0  0  0  0
 24  2  1  0  0  0  0
 28  6  1  0  0  0  0
 29  7  1  0  0  0  0
M  END
>  <HBA>
3

>  <HBD>
2

>  <TPSA>
64.93

>  <cid>
7081

>  <dipole>
2.23

>  <excitation_energy_1>
3.091

>  <excitation_energy_2>
3.417

>  <excitation_energy_3>
3.92

>  <excitation_energy_4>
4.286

>  <homo_energy>
-4.898

>  <homo_lumo_gap>
3.543

>  <logP>
4.332

>  <lumo_energy>
-1.355

>  <melting_point>
218.49

>  <molecular_refractivity>
77.99

>  <oscillator_strength_1>
0.021

>  <oscillator_strength_2>
0.2682

>  <oscillator_strength_3>
0.0005

>  <oscillator_strength_4>
0.0622

>  <open_babel_can_smiles>
Nc1cc2nc3cc(N)c(cc3cc2cc1C)C

>  <mulliken_charges>
33
1   -0.554012
2   -0.55375
3   -0.282577
4   -0.282569
5   -0.240517
6   -0.230902
7   -0.230818
8   0.173003
9   0.17316
10   0.165739
11   0.165793
12   0.265351
13   0.265137
14   0.263924
15   0.263821
16   -0.794921
17   -0.794892
18   -0.639311
19   0.162124
20   0.17214
21   0.14868
22   0.162048
23   0.148502
24   0.172202
25   0.119997
26   0.119946
27   0.126831
28   0.121109
29   0.121091
30   0.324575
31   0.322255
32   0.324587
33   0.322255

>  <lowdin_charges>
33
1   -0.445171
2   -0.44471
3   -0.162106
4   -0.161674
5   -0.131379
6   -0.219338
7   -0.219972
8   -0.026732
9   -0.028035
10   -0.035065
11   -0.035499
12   0.055657
13   0.058374
14   0.052242
15   0.053066
16   -0.482808
17   -0.485449
18   -0.184911
19   0.161255
20   0.163735
21   0.150649
22   0.162117
23   0.150323
24   0.163418
25   0.153527
26   0.153257
27   0.155673
28   0.160585
29   0.160186
30   0.278029
31   0.275942
32   0.277387
33   0.277424

$$$$

