PCCDB-ID:  35821
public computational chemistry database (PCCDB) project, http://pccdb.org

 36 36  0  0  1  0  0  0  0  0999 V2000
    1.0888   -0.4067    0.2126 C   0  0  0  0  0  0  0  0  0  0  0  0
    3.8624   -0.4954    5.4216 C   0  0  0  0  0  0  0  0  0  0  0  0
    4.8772   -1.0356   -1.8548 C   0  0  0  0  0  0  0  0  0  0  0  0
    6.0140   -1.9283    0.1716 C   0  0  0  0  0  0  0  0  0  0  0  0
    4.3997    1.5838   -0.3758 C   0  0  0  0  0  0  0  0  0  0  0  0
    2.9669    1.1677   -0.1818 C   0  0  0  0  0  0  0  0  0  0  0  0
    3.8145   -0.8128    2.8545 C   0  0  0  0  0  0  0  0  0  0  0  0
    3.4742   -1.7909    1.7267 C   0  0  0  0  0  0  0  0  0  0  0  0
    5.3921    0.5059    0.0800 C   0  0  0  0  0  0  0  0  0  0  0  0
    2.5595   -0.0816    0.0878 C   0  0  0  0  0  0  0  0  0  0  0  0
    3.3305   -1.2727    4.2275 C   0  0  0  0  0  0  0  0  0  0  0  0
    3.5341   -1.2413    0.2709 C   0  0  1  0  0  0  0  0  0  0  0  0
    4.9535   -0.9235   -0.3146 C   0  0  0  0  0  0  0  0  0  0  0  0
    2.5581   -2.2022    4.3692 O   0  0  0  0  0  0  0  0  0  0  0  0
    0.4678    0.4706    0.0050 H   0  0  0  0  0  0  0  0  0  0  0  0
    0.8268   -0.7704    1.2146 H   0  0  0  0  0  0  0  0  0  0  0  0
    0.7998   -1.2005   -0.4904 H   0  0  0  0  0  0  0  0  0  0  0  0
    3.7977    0.5862    5.2538 H   0  0  0  0  0  0  0  0  0  0  0  0
    4.9237   -0.7328    5.5730 H   0  0  0  0  0  0  0  0  0  0  0  0
    3.3064   -0.7687    6.3208 H   0  0  0  0  0  0  0  0  0  0  0  0
    5.8207   -0.7188   -2.3167 H   0  0  0  0  0  0  0  0  0  0  0  0
    4.0725   -0.4212   -2.2707 H   0  0  0  0  0  0  0  0  0  0  0  0
    4.6919   -2.0733   -2.1581 H   0  0  0  0  0  0  0  0  0  0  0  0
    6.9654   -1.7512   -0.3450 H   0  0  0  0  0  0  0  0  0  0  0  0
    5.7136   -2.9626   -0.0377 H   0  0  0  0  0  0  0  0  0  0  0  0
    6.2068   -1.8461    1.2470 H   0  0  0  0  0  0  0  0  0  0  0  0
    4.5941    2.5236    0.1602 H   0  0  0  0  0  0  0  0  0  0  0  0
    4.5598    1.8227   -1.4391 H   0  0  0  0  0  0  0  0  0  0  0  0
    2.2147    1.9458   -0.3177 H   0  0  0  0  0  0  0  0  0  0  0  0
    3.3534    0.1694    2.6656 H   0  0  0  0  0  0  0  0  0  0  0  0
    4.8922   -0.6128    2.9213 H   0  0  0  0  0  0  0  0  0  0  0  0
    2.4611   -2.1613    1.9109 H   0  0  0  0  0  0  0  0  0  0  0  0
    4.1148   -2.6754    1.8078 H   0  0  0  0  0  0  0  0  0  0  0  0
    5.5066    0.5598    1.1689 H   0  0  0  0  0  0  0  0  0  0  0  0
    6.3849    0.7108   -0.3430 H   0  0  0  0  0  0  0  0  0  0  0  0
    3.1447   -2.0744   -0.3375 H   0  0  0  0  0  0  0  0  0  0  0  0
  1 16  1  0  0  0  0
  2 19  1  0  0  0  0
  2 20  1  0  0  0  0
  3 13  1  0  0  0  0
  4 26  1  0  0  0  0
  5  6  1  0  0  0  0
  5  9  1  0  0  0  0
  5 27  1  0  0  0  0
  6 10  2  0  0  0  0
  7 31  1  0  0  0  0
  7 11  1  0  0  0  0
  8 33  1  0  0  0  0
  8 32  1  0  0  0  0
  8  7  1  0  0  0  0
  9 34  1  0  0  0  0
 10  1  1  0  0  0  0
 10 12  1  0  0  0  0
 11 14  2  0  0  0  0
 11  2  1  0  0  0  0
 12 36  1  6  0  0  0
 12  8  1  0  0  0  0
 13  9  1  0  0  0  0
 13  4  1  0  0  0  0
 13 12  1  0  0  0  0
 15  1  1  0  0  0  0
 17  1  1  0  0  0  0
 18  2  1  0  0  0  0
 21  3  1  0  0  0  0
 22  3  1  0  0  0  0
 23  3  1  0  0  0  0
 24  4  1  0  0  0  0
 25  4  1  0  0  0  0
 28  5  1  0  0  0  0
 29  6  1  0  0  0  0
 30  7  1  0  0  0  0
 35  9  1  0  0  0  0
M  END
>  <HBA>
1

>  <HBD>
0

>  <TPSA>
17.07

>  <cid>
35821

>  <dipole>
2.5

>  <excitation_energy_1>
4.448

>  <excitation_energy_2>
5.25

>  <excitation_energy_3>
5.663

>  <excitation_energy_4>
5.979

>  <homo_energy>
-6.264

>  <homo_lumo_gap>
6.041

>  <logP>
3.738

>  <lumo_energy>
-0.223

>  <melting_point>
44.65

>  <molecular_refractivity>
61.96

>  <oscillator_strength_1>
0.0001

>  <oscillator_strength_2>
0.0146

>  <oscillator_strength_3>
0.0018

>  <oscillator_strength_4>
0.0166

>  <open_babel_can_smiles>
CC(=O)CC[C@H]1C(=CCCC1(C)C)C

>  <mulliken_charges>
36
1   -0.522234
2   -0.528814
3   -0.456945
4   -0.459853
5   -0.304505
6   -0.179471
7   -0.367394
8   -0.278389
9   -0.268519
10   0.180925
11   0.453638
12   -0.150407
13   0.094851
14   -0.439021
15   0.150073
16   0.161636
17   0.150523
18   0.1631
19   0.171167
20   0.178706
21   0.135346
22   0.152343
23   0.137965
24   0.138411
25   0.140889
26   0.138598
27   0.137274
28   0.146528
29   0.111724
30   0.170213
31   0.15413
32   0.164365
33   0.144169
34   0.131804
35   0.124893
36   0.122283

>  <lowdin_charges>
36
1   -0.443047
2   -0.472368
3   -0.446993
4   -0.44011
5   -0.275921
6   -0.19793
7   -0.316142
8   -0.278174
9   -0.27537
10   -0.018271
11   0.163875
12   -0.128824
13   0.010147
14   -0.237847
15   0.155115
16   0.156893
17   0.154405
18   0.163914
19   0.170345
20   0.172544
21   0.145245
22   0.15511
23   0.145675
24   0.148106
25   0.146559
26   0.143679
27   0.148816
28   0.146933
29   0.147493
30   0.168097
31   0.152532
32   0.159012
33   0.150905
34   0.139048
35   0.140663
36   0.145886

$$$$

