PCCDB-ID:  7041
public computational chemistry database (PCCDB) project, http://pccdb.org

 21 21  0  0  0  0  0  0  0  0999 V2000
    1.6055   -0.8290   -0.3477 C   0  0  0  0  0  0  0  0  0  0  0  0
    7.3592    1.4907   -2.4653 C   0  0  0  0  0  0  0  0  0  0  0  0
    3.3333    2.8943   -2.5484 C   0  0  0  0  0  0  0  0  0  0  0  0
    2.4064    2.2325   -1.7499 C   0  0  0  0  0  0  0  0  0  0  0  0
    4.6681    2.4748   -2.5858 C   0  0  0  0  0  0  0  0  0  0  0  0
    2.7947    1.1426   -0.9610 C   0  0  0  0  0  0  0  0  0  0  0  0
    5.0560    1.3909   -1.8019 C   0  0  0  0  0  0  0  0  0  0  0  0
    4.1308    0.7232   -0.9769 C   0  0  0  0  0  0  0  0  0  0  0  0
    4.5440   -0.3178   -0.1932 O   0  0  0  0  0  0  0  0  0  0  0  0
    1.8576    0.5634   -0.1419 O   0  0  0  0  0  0  0  0  0  0  0  0
    6.3269    0.8653   -1.7196 O   0  0  0  0  0  0  0  0  0  0  0  0
    0.7830   -1.0852    0.3241 H   0  0  0  0  0  0  0  0  0  0  0  0
    2.4814   -1.4386   -0.1087 H   0  0  0  0  0  0  0  0  0  0  0  0
    1.2987   -1.0198   -1.3850 H   0  0  0  0  0  0  0  0  0  0  0  0
    8.2725    0.9357   -2.2435 H   0  0  0  0  0  0  0  0  0  0  0  0
    7.4864    2.5392   -2.1669 H   0  0  0  0  0  0  0  0  0  0  0  0
    7.1567    1.4433   -3.5430 H   0  0  0  0  0  0  0  0  0  0  0  0
    3.0214    3.7390   -3.1553 H   0  0  0  0  0  0  0  0  0  0  0  0
    1.3672    2.5425   -1.7101 H   0  0  0  0  0  0  0  0  0  0  0  0
    5.3850    2.9904   -3.2146 H   0  0  0  0  0  0  0  0  0  0  0  0
    5.4984   -0.4198   -0.3565 H   0  0  0  0  0  0  0  0  0  0  0  0
  1 10  1  0  0  0  0
  1 13  1  0  0  0  0
  1 12  1  0  0  0  0
  2 15  1  0  0  0  0
  2 16  1  0  0  0  0
  2 11  1  0  0  0  0
  3  4  1  0  0  0  0
  4 19  1  0  0  0  0
  4  6  2  0  0  0  0
  5  3  2  0  0  0  0
  5  7  1  0  0  0  0
  6 10  1  0  0  0  0
  7 11  1  0  0  0  0
  7  8  2  0  0  0  0
  8  6  1  0  0  0  0
  8  9  1  0  0  0  0
 14  1  1  0  0  0  0
 17  2  1  0  0  0  0
 18  3  1  0  0  0  0
 20  5  1  0  0  0  0
 21  9  1  0  0  0  0
M  END
>  <HBA>
3

>  <HBD>
1

>  <TPSA>
38.69

>  <cid>
7041

>  <dipole>
3.17

>  <excitation_energy_1>
4.996

>  <excitation_energy_2>
5.058

>  <excitation_energy_3>
5.269

>  <excitation_energy_4>
5.491

>  <homo_energy>
-5.535

>  <homo_lumo_gap>
5.973

>  <logP>
1.409

>  <lumo_energy>
0.438

>  <melting_point>
55.51

>  <molecular_refractivity>
41.45

>  <oscillator_strength_1>
0.0136

>  <oscillator_strength_2>
0.0007

>  <oscillator_strength_3>
0.0001

>  <oscillator_strength_4>
0.0093

>  <open_babel_can_smiles>
COc1cccc(c1O)OC

>  <mulliken_charges>
21
1   -0.215093
2   -0.211858
3   -0.15051
4   -0.177846
5   -0.201745
6   0.321446
7   0.347459
8   0.252743
9   -0.657804
10   -0.521342
11   -0.554336
12   0.156218
13   0.173787
14   0.137285
15   0.169959
16   0.158771
17   0.157528
18   0.127122
19   0.132839
20   0.1295
21   0.425876

>  <lowdin_charges>
21
1   -0.276245
2   -0.271317
3   -0.16522
4   -0.185293
5   -0.217979
6   0.070912
7   0.061099
8   0.053937
9   -0.378
10   -0.222099
11   -0.222939
12   0.155677
13   0.155687
14   0.137027
15   0.163236
16   0.147682
17   0.146185
18   0.158808
19   0.164758
20   0.163085
21   0.361

$$$$

