PCCDB-ID:  69361
public computational chemistry database (PCCDB) project, http://pccdb.org

 21 20  0  0  0  0  0  0  0  0999 V2000
    2.1137    0.3790    1.1916 C   0  0  0  0  0  0  0  0  0  0  0  0
    1.5606   -2.1562   -2.6295 C   0  0  0  0  0  0  0  0  0  0  0  0
    1.0668    0.2605   -3.1846 C   0  0  0  0  0  0  0  0  0  0  0  0
    2.6050   -0.2931   -1.2435 C   0  0  0  0  0  0  0  0  0  0  0  0
    1.5877   -0.2060   -0.1118 C   0  0  0  0  0  0  0  0  0  0  0  0
    2.1211   -0.7200   -2.6471 C   0  0  0  0  0  0  0  0  0  0  0  0
    3.3125   -0.5940   -3.5193 N   0  0  0  0  0  0  0  0  0  0  0  0
    0.4269   -0.5612   -0.2121 O   0  0  0  0  0  0  0  0  0  0  0  0
    3.0675   -0.0781    1.4802 H   0  0  0  0  0  0  0  0  0  0  0  0
    1.3758    0.2366    1.9838 H   0  0  0  0  0  0  0  0  0  0  0  0
    2.2995    1.4536    1.0653 H   0  0  0  0  0  0  0  0  0  0  0  0
    0.6826   -2.2370   -1.9831 H   0  0  0  0  0  0  0  0  0  0  0  0
    2.3197   -2.8641   -2.2697 H   0  0  0  0  0  0  0  0  0  0  0  0
    1.2747   -2.4623   -3.6438 H   0  0  0  0  0  0  0  0  0  0  0  0
    0.1693    0.2490   -2.5625 H   0  0  0  0  0  0  0  0  0  0  0  0
    0.7768   -0.0176   -4.2061 H   0  0  0  0  0  0  0  0  0  0  0  0
    1.4724    1.2776   -3.2178 H   0  0  0  0  0  0  0  0  0  0  0  0
    3.3938   -0.9845   -0.9036 H   0  0  0  0  0  0  0  0  0  0  0  0
    3.1076    0.6804   -1.3298 H   0  0  0  0  0  0  0  0  0  0  0  0
    3.0397   -0.8141   -4.4782 H   0  0  0  0  0  0  0  0  0  0  0  0
    3.9955   -1.3087   -3.2610 H   0  0  0  0  0  0  0  0  0  0  0  0
  1  9  1  0  0  0  0
  1 10  1  0  0  0  0
  2 13  1  0  0  0  0
  2 12  1  0  0  0  0
  3  6  1  0  0  0  0
  3 15  1  0  0  0  0
  4 18  1  0  0  0  0
  4  5  1  0  0  0  0
  5  1  1  0  0  0  0
  6  2  1  0  0  0  0
  6  4  1  0  0  0  0
  7 21  1  0  0  0  0
  7  6  1  0  0  0  0
  8  5  2  0  0  0  0
 11  1  1  0  0  0  0
 14  2  1  0  0  0  0
 16  3  1  0  0  0  0
 17  3  1  0  0  0  0
 19  4  1  0  0  0  0
 20  7  1  0  0  0  0
M  END
>  <HBA>
2

>  <HBD>
1

>  <TPSA>
43.09

>  <cid>
69361

>  <dipole>
1.99

>  <excitation_energy_1>
4.375

>  <excitation_energy_2>
5.267

>  <excitation_energy_3>
5.721

>  <excitation_energy_4>
6.083

>  <homo_energy>
-6.37

>  <homo_lumo_gap>
5.997

>  <logP>
1.403

>  <lumo_energy>
-0.373

>  <melting_point>
60.1

>  <molecular_refractivity>
33.9

>  <oscillator_strength_1>
0.0001

>  <oscillator_strength_2>
0.0038

>  <oscillator_strength_3>
0.0422

>  <oscillator_strength_4>
0.0342

>  <open_babel_can_smiles>
CC(=O)CC(N)(C)C

>  <mulliken_charges>
21
1   -0.528066
2   -0.456112
3   -0.45378
4   -0.352719
5   0.458976
6   0.195001
7   -0.71544
8   -0.44104
9   0.163497
10   0.179227
11   0.174416
12   0.177511
13   0.121966
14   0.12972
15   0.174268
16   0.130048
17   0.147072
18   0.147878
19   0.172361
20   0.29043
21   0.284786

>  <lowdin_charges>
21
1   -0.473605
2   -0.464463
3   -0.449005
4   -0.314087
5   0.168959
6   0.070867
7   -0.548482
8   -0.239011
9   0.165727
10   0.173239
11   0.171944
12   0.166889
13   0.139827
14   0.142993
15   0.165862
16   0.14367
17   0.151325
18   0.160132
19   0.170008
20   0.249925
21   0.247284

$$$$

