PCCDB-ID:  9027
public computational chemistry database (PCCDB) project, http://pccdb.org

 33 32  0  0  1  0  0  0  0  0999 V2000
    1.0730   -0.5209   -2.8529 C   0  0  0  0  0  0  0  0  0  0  0  0
    7.4545    0.5665   -3.0349 C   0  0  0  0  0  0  0  0  0  0  0  0
    2.6422   -2.6392   -1.1105 C   0  0  0  0  0  0  0  0  0  0  0  0
    7.7570   -2.5895   -2.9906 C   0  0  0  0  0  0  0  0  0  0  0  0
    2.5956   -0.6728   -2.7499 C   0  0  0  0  0  0  0  0  0  0  0  0
    7.5956   -0.3406   -1.8068 C   0  0  0  0  0  0  0  0  0  0  0  0
    4.6242   -1.0194   -1.2193 C   0  0  0  0  0  0  0  0  0  0  0  0
    5.4956   -1.7875   -2.2251 C   0  0  0  0  0  0  0  0  0  0  0  0
    3.0962   -1.1957   -1.3870 C   0  0  2  0  0  0  0  0  0  0  0  0
    7.0093   -1.7660   -1.9292 C   0  0  1  0  0  0  0  0  0  0  0  0
    7.1488   -2.4221   -0.6534 O   0  0  0  0  0  0  0  0  0  0  0  0
    0.7855   -0.0899   -3.8190 H   0  0  0  0  0  0  0  0  0  0  0  0
    0.6879    0.1406   -2.0666 H   0  0  0  0  0  0  0  0  0  0  0  0
    0.5577   -1.4832   -2.7578 H   0  0  0  0  0  0  0  0  0  0  0  0
    7.9077    1.5452   -2.8413 H   0  0  0  0  0  0  0  0  0  0  0  0
    6.4032    0.7369   -3.2926 H   0  0  0  0  0  0  0  0  0  0  0  0
    7.9499    0.1450   -3.9166 H   0  0  0  0  0  0  0  0  0  0  0  0
    1.5503   -2.7150   -1.0646 H   0  0  0  0  0  0  0  0  0  0  0  0
    3.0378   -2.9970   -0.1526 H   0  0  0  0  0  0  0  0  0  0  0  0
    2.9855   -3.3302   -1.8901 H   0  0  0  0  0  0  0  0  0  0  0  0
    7.6233   -2.1821   -3.9988 H   0  0  0  0  0  0  0  0  0  0  0  0
    7.3928   -3.6219   -2.9855 H   0  0  0  0  0  0  0  0  0  0  0  0
    8.8348   -2.6081   -2.7795 H   0  0  0  0  0  0  0  0  0  0  0  0
    3.0605    0.3054   -2.9408 H   0  0  0  0  0  0  0  0  0  0  0  0
    2.9454   -1.3379   -3.5520 H   0  0  0  0  0  0  0  0  0  0  0  0
    7.1318    0.1403   -0.9380 H   0  0  0  0  0  0  0  0  0  0  0  0
    8.6644   -0.4427   -1.5615 H   0  0  0  0  0  0  0  0  0  0  0  0
    4.8480    0.0545   -1.2858 H   0  0  0  0  0  0  0  0  0  0  0  0
    4.9079   -1.3342   -0.2083 H   0  0  0  0  0  0  0  0  0  0  0  0
    5.3349   -1.4061   -3.2407 H   0  0  0  0  0  0  0  0  0  0  0  0
    5.1979   -2.8429   -2.2376 H   0  0  0  0  0  0  0  0  0  0  0  0
    2.6358   -0.5599   -0.6140 H   0  0  0  0  0  0  0  0  0  0  0  0
    8.0907   -2.3996   -0.4197 H   0  0  0  0  0  0  0  0  0  0  0  0
  1 14  1  0  0  0  0
  1  5  1  0  0  0  0
  1 13  1  0  0  0  0
  2 15  1  0  0  0  0
  2  6  1  0  0  0  0
  3 18  1  0  0  0  0
  3 19  1  0  0  0  0
  4 22  1  0  0  0  0
  4 23  1  0  0  0  0
  4 10  1  0  0  0  0
  5  9  1  0  0  0  0
  6 27  1  0  0  0  0
  6 26  1  0  0  0  0
  7 29  1  0  0  0  0
  8 10  1  0  0  0  0
  8  7  1  0  0  0  0
  9  7  1  0  0  0  0
  9  3  1  0  0  0  0
  9 32  1  1  0  0  0
 10  6  1  0  0  0  0
 10 11  1  1  0  0  0
 11 33  1  0  0  0  0
 12  1  1  0  0  0  0
 16  2  1  0  0  0  0
 17  2  1  0  0  0  0
 20  3  1  0  0  0  0
 21  4  1  0  0  0  0
 24  5  1  0  0  0  0
 25  5  1  0  0  0  0
 28  7  1  0  0  0  0
 30  8  1  0  0  0  0
 31  8  1  0  0  0  0
M  END
>  <HBA>
1

>  <HBD>
1

>  <TPSA>
20.23

>  <cid>
9027

>  <dipole>
1.46

>  <excitation_energy_1>
6.354

>  <excitation_energy_2>
6.93

>  <excitation_energy_3>
7.094

>  <excitation_energy_4>
7.222

>  <homo_energy>
-6.974

>  <homo_lumo_gap>
8.849

>  <logP>
2.974

>  <lumo_energy>
1.875

>  <melting_point>
0.42

>  <molecular_refractivity>
51.38

>  <oscillator_strength_1>
0.0152

>  <oscillator_strength_2>
0.0059

>  <oscillator_strength_3>
0.0024

>  <oscillator_strength_4>
0.0099

>  <open_babel_can_smiles>
CC[C@H](CC[C@@](CC)(O)C)C

>  <mulliken_charges>
33
1   -0.447819
2   -0.457223
3   -0.452833
4   -0.460804
5   -0.24904
6   -0.273861
7   -0.275015
8   -0.268959
9   -0.065006
10   0.31145
11   -0.642885
12   0.139931
13   0.140186
14   0.145724
15   0.145624
16   0.151999
17   0.146443
18   0.141405
19   0.145112
20   0.140492
21   0.142547
22   0.153998
23   0.126248
24   0.124243
25   0.130067
26   0.14992
27   0.112589
28   0.122511
29   0.152879
30   0.13155
31   0.142196
32   0.114721
33   0.381608

>  <lowdin_charges>
33
1   -0.447276
2   -0.448237
3   -0.448367
4   -0.45436
5   -0.276508
6   -0.289814
7   -0.278763
8   -0.281325
9   -0.123851
10   0.12142
11   -0.463351
12   0.148609
13   0.146463
14   0.147312
15   0.152569
16   0.149116
17   0.148932
18   0.146089
19   0.150998
20   0.145882
21   0.150264
22   0.155437
23   0.140409
24   0.137316
25   0.139191
26   0.151254
27   0.132137
28   0.13451
29   0.151763
30   0.142272
31   0.14885
32   0.135969
33   0.335093

$$$$

