PCCDB-ID:  61657
public computational chemistry database (PCCDB) project, http://pccdb.org

 16 16  0  0  0  0  0  0  0  0999 V2000
    1.2119    0.2371   -0.1074 C   0  0  0  0  0  0  0  0  0  0  0  0
    6.1023    1.8079   -2.2871 C   0  0  0  0  0  0  0  0  0  0  0  0
    3.3053   -1.3412   -0.0066 C   0  0  0  0  0  0  0  0  0  0  0  0
    4.7002   -1.0593   -0.1500 C   0  0  0  0  0  0  0  0  0  0  0  0
    2.6495   -0.1499   -0.1361 C   0  0  0  0  0  0  0  0  0  0  0  0
    4.8091    0.2882   -0.3510 C   0  0  0  0  0  0  0  0  0  0  0  0
    3.5517    0.8562   -0.3372 O   0  0  0  0  0  0  0  0  0  0  0  0
    6.1984    1.3401   -0.5104 S   0  0  0  0  0  0  0  0  0  0  0  0
    0.5936   -0.6436    0.0869 H   0  0  0  0  0  0  0  0  0  0  0  0
    0.8944    0.6757   -1.0616 H   0  0  0  0  0  0  0  0  0  0  0  0
    1.0124    0.9781    0.6763 H   0  0  0  0  0  0  0  0  0  0  0  0
    6.9442    2.4799   -2.4759 H   0  0  0  0  0  0  0  0  0  0  0  0
    5.1686    2.3338   -2.4970 H   0  0  0  0  0  0  0  0  0  0  0  0
    6.1912    0.9258   -2.9257 H   0  0  0  0  0  0  0  0  0  0  0  0
    2.8455   -2.3053    0.1636 H   0  0  0  0  0  0  0  0  0  0  0  0
    5.5229   -1.7592   -0.1104 H   0  0  0  0  0  0  0  0  0  0  0  0
  1  9  1  0  0  0  0
  1 11  1  0  0  0  0
  2  8  1  0  0  0  0
  3 15  1  0  0  0  0
  4 16  1  0  0  0  0
  4  3  1  0  0  0  0
  5  1  1  0  0  0  0
  5  3  2  0  0  0  0
  6  7  1  0  0  0  0
  6  4  2  0  0  0  0
  7  5  1  0  0  0  0
  8  6  1  0  0  0  0
 10  1  1  0  0  0  0
 12  2  1  0  0  0  0
 13  2  1  0  0  0  0
 14  2  1  0  0  0  0
M  END
>  <HBA>
2

>  <HBD>
0

>  <TPSA>
38.44

>  <cid>
61657

>  <dipole>
2.0

>  <excitation_energy_1>
4.818

>  <excitation_energy_2>
5.31

>  <excitation_energy_3>
5.451

>  <excitation_energy_4>
5.742

>  <homo_energy>
-5.755

>  <homo_lumo_gap>
5.701

>  <logP>
2.31

>  <lumo_energy>
-0.054

>  <melting_point>
20.2

>  <molecular_refractivity>
35.4

>  <oscillator_strength_1>
0.1031

>  <oscillator_strength_2>
0.0082

>  <oscillator_strength_3>
0.1611

>  <oscillator_strength_4>
0.0602

>  <open_babel_can_smiles>
CSc1ccc(o1)C

>  <mulliken_charges>
16
1   -0.525485
2   -0.584796
3   -0.204786
4   -0.171565
5   0.349819
6   0.103536
7   -0.439359
8   0.115436
9   0.166501
10   0.171746
11   0.175158
12   0.180547
13   0.191643
14   0.185092
15   0.136083
16   0.150429

>  <lowdin_charges>
16
1   -0.442041
2   -0.546019
3   -0.224587
4   -0.192222
5   0.078565
6   -0.084511
7   -0.110702
8   0.161759
9   0.169075
10   0.167356
11   0.169757
12   0.174707
13   0.170033
14   0.16756
15   0.166744
16   0.174527

$$$$

