PCCDB-ID:  13386
public computational chemistry database (PCCDB) project, http://pccdb.org

 15 15  0  0  0  0  0  0  0  0999 V2000
    2.3458   -1.4575   -0.9503 C   0  0  0  0  0  0  0  0  0  0  0  0
    3.5249    1.0559   -3.5434 C   0  0  0  0  0  0  0  0  0  0  0  0
    2.1544    0.0137   -0.5930 C   0  0  0  0  0  0  0  0  0  0  0  0
    3.2044    2.2763   -1.1540 C   0  0  0  0  0  0  0  0  0  0  0  0
    3.4310    1.3424   -2.2522 C   0  0  0  0  0  0  0  0  0  0  0  0
    3.3341    0.8012   -0.9753 N   0  0  0  0  0  0  0  0  0  0  0  0
    1.4834   -2.0460   -0.6179 H   0  0  0  0  0  0  0  0  0  0  0  0
    3.2457   -1.8571   -0.4720 H   0  0  0  0  0  0  0  0  0  0  0  0
    2.4465   -1.5879   -2.0332 H   0  0  0  0  0  0  0  0  0  0  0  0
    3.5716    1.8475   -4.2839 H   0  0  0  0  0  0  0  0  0  0  0  0
    3.5835    0.0299   -3.8941 H   0  0  0  0  0  0  0  0  0  0  0  0
    2.0257    0.1280    0.4896 H   0  0  0  0  0  0  0  0  0  0  0  0
    1.2452    0.4061   -1.0808 H   0  0  0  0  0  0  0  0  0  0  0  0
    2.2080    2.7166   -1.0669 H   0  0  0  0  0  0  0  0  0  0  0  0
    4.0068    2.8704   -0.7193 H   0  0  0  0  0  0  0  0  0  0  0  0
  1  7  1  0  0  0  0
  1  3  1  0  0  0  0
  1  8  1  0  0  0  0
  2  5  2  0  0  0  0
  3 12  1  0  0  0  0
  4 14  1  0  0  0  0
  4  6  1  0  0  0  0
  4 15  1  0  0  0  0
  5  4  1  0  0  0  0
  5  6  1  0  0  0  0
  6  3  1  0  0  0  0
  9  1  1  0  0  0  0
 10  2  1  0  0  0  0
 11  2  1  0  0  0  0
 13  3  1  0  0  0  0
M  END
>  <HBA>
1

>  <HBD>
0

>  <TPSA>
3.01

>  <cid>
13386

>  <dipole>
1.28

>  <excitation_energy_1>
5.683

>  <excitation_energy_2>
5.922

>  <excitation_energy_3>
6.08

>  <excitation_energy_4>
6.116

>  <homo_energy>
-5.954

>  <homo_lumo_gap>
6.8

>  <logP>
0.773

>  <lumo_energy>
0.846

>  <melting_point>
-31.79

>  <molecular_refractivity>
30.37

>  <oscillator_strength_1>
0.0814

>  <oscillator_strength_2>
0.1257

>  <oscillator_strength_3>
0.0227

>  <oscillator_strength_4>
0.0164

>  <open_babel_can_smiles>
CCN1CC1=C

>  <mulliken_charges>
15
1   -0.446195
2   -0.474482
3   -0.124409
4   -0.259264
5   0.348391
6   -0.390779
7   0.14583
8   0.161482
9   0.154556
10   0.143826
11   0.142744
12   0.148465
13   0.126739
14   0.154444
15   0.168652

>  <lowdin_charges>
15
1   -0.446345
2   -0.395048
3   -0.186871
4   -0.238215
5   0.028731
6   -0.155001
7   0.154765
8   0.158666
9   0.151934
10   0.168848
11   0.163426
12   0.145446
13   0.129736
14   0.153275
15   0.166652

$$$$

