PCCDB-ID:  33702
public computational chemistry database (PCCDB) project, http://pccdb.org

 22 23  0  0  0  0  0  0  0  0999 V2000
    1.0360   -0.0902    0.1932 C   0  0  0  0  0  0  0  0  0  0  0  0
    3.1875    1.1096   -0.3986 C   0  0  0  0  0  0  0  0  0  0  0  0
    4.5666    1.1976   -0.5350 C   0  0  0  0  0  0  0  0  0  0  0  0
    8.2491   -1.9696    0.3679 C   0  0  0  0  0  0  0  0  0  0  0  0
    8.2257   -3.1840    1.1880 C   0  0  0  0  0  0  0  0  0  0  0  0
    3.3057   -1.1641    0.4570 C   0  0  0  0  0  0  0  0  0  0  0  0
    2.5441   -0.0539    0.0905 C   0  0  0  0  0  0  0  0  0  0  0  0
    5.3374    0.0858   -0.1718 C   0  0  0  0  0  0  0  0  0  0  0  0
    4.6917   -1.0739    0.3150 C   0  0  0  0  0  0  0  0  0  0  0  0
    6.8946   -1.3136    0.2538 C   0  0  0  0  0  0  0  0  0  0  0  0
    8.1556   -4.1504    1.8268 N   0  0  0  0  0  0  0  0  0  0  0  0
    6.7152   -0.0981   -0.1952 N   0  0  0  0  0  0  0  0  0  0  0  0
    5.7231   -1.9617    0.5749 N   0  0  0  0  0  0  0  0  0  0  0  0
    0.6441    0.8232    0.6556 H   0  0  0  0  0  0  0  0  0  0  0  0
    0.6946   -0.9418    0.7904 H   0  0  0  0  0  0  0  0  0  0  0  0
    0.5697   -0.1741   -0.7974 H   0  0  0  0  0  0  0  0  0  0  0  0
    2.5727    1.9633   -0.6736 H   0  0  0  0  0  0  0  0  0  0  0  0
    5.0440    2.0987   -0.9074 H   0  0  0  0  0  0  0  0  0  0  0  0
    8.6277   -2.2284   -0.6302 H   0  0  0  0  0  0  0  0  0  0  0  0
    8.9567   -1.2497    0.7933 H   0  0  0  0  0  0  0  0  0  0  0  0
    2.8295   -2.0639    0.8378 H   0  0  0  0  0  0  0  0  0  0  0  0
    5.6489   -2.8861    0.9769 H   0  0  0  0  0  0  0  0  0  0  0  0
  1 14  1  0  0  0  0
  1 15  1  0  0  0  0
  2  7  1  0  0  0  0
  3  2  2  0  0  0  0
  3  8  1  0  0  0  0
  4 20  1  0  0  0  0
  4  5  1  0  0  0  0
  5 11  3  0  0  0  0
  6 21  1  0  0  0  0
  7  1  1  0  0  0  0
  7  6  2  0  0  0  0
  8  9  2  0  0  0  0
  9  6  1  0  0  0  0
  9 13  1  0  0  0  0
 10  4  1  0  0  0  0
 10 13  1  0  0  0  0
 12  8  1  0  0  0  0
 12 10  2  0  0  0  0
 13 22  1  0  0  0  0
 16  1  1  0  0  0  0
 17  2  1  0  0  0  0
 18  3  1  0  0  0  0
 19  4  1  0  0  0  0
M  END
>  <HBA>
2

>  <HBD>
1

>  <TPSA>
52.47

>  <cid>
33702

>  <dipole>
1.47

>  <excitation_energy_1>
4.88

>  <excitation_energy_2>
5.129

>  <excitation_energy_3>
5.314

>  <excitation_energy_4>
5.572

>  <homo_energy>
-6.057

>  <homo_lumo_gap>
5.516

>  <logP>
1.937

>  <lumo_energy>
-0.542

>  <melting_point>
153.35

>  <molecular_refractivity>
50.58

>  <oscillator_strength_1>
0.1149

>  <oscillator_strength_2>
0.0818

>  <oscillator_strength_3>
0.0014

>  <oscillator_strength_4>
0.0028

>  <open_babel_can_smiles>
N#CCc1nc2c([nH]1)cc(cc2)C

>  <mulliken_charges>
22
1   -0.530858
2   -0.18993
3   -0.17927
4   -0.409726
5   0.347917
6   -0.229363
7   0.161523
8   0.226192
9   0.358589
10   0.517789
11   -0.466216
12   -0.544236
13   -0.741592
14   0.160954
15   0.153891
16   0.165138
17   0.121801
18   0.140507
19   0.22902
20   0.233552
21   0.126128
22   0.34819

>  <lowdin_charges>
22
1   -0.441828
2   -0.177537
3   -0.154745
4   -0.270393
5   -0.01728
6   -0.195485
7   0.002282
8   0.007093
9   0.019894
10   0.069144
11   -0.118714
12   -0.199965
13   -0.198569
14   0.160389
15   0.156658
16   0.160934
17   0.156842
18   0.167707
19   0.20258
20   0.209534
21   0.158245
22   0.303214

$$$$

