PCCDB-ID:  13826
public computational chemistry database (PCCDB) project, http://pccdb.org

 14 13  0  0  0  0  0  0  0  0999 V2000
    0.2144   -0.5083   -0.1407 C   0  0  0  0  0  0  0  0  0  0  0  0
   -0.5260    0.7812    0.2506 C   0  0  0  0  0  0  0  0  0  0  0  0
    1.4269   -1.5027   -1.9860 N   0  0  0  0  0  0  0  0  0  0  0  0
   -1.7765    1.7587    2.0799 N   0  0  0  0  0  0  0  0  0  0  0  0
    0.7359   -0.4376   -1.3826 N   0  0  0  0  0  0  0  0  0  0  0  0
   -1.0301    0.7181    1.5001 N   0  0  0  0  0  0  0  0  0  0  0  0
    0.3028   -1.4778    0.6089 O   0  0  0  0  0  0  0  0  0  0  0  0
   -0.6334    1.7423   -0.5072 O   0  0  0  0  0  0  0  0  0  0  0  0
    0.8397   -2.3337   -1.8953 H   0  0  0  0  0  0  0  0  0  0  0  0
    2.2544   -1.6921   -1.4178 H   0  0  0  0  0  0  0  0  0  0  0  0
   -2.5221    1.9984    1.4242 H   0  0  0  0  0  0  0  0  0  0  0  0
   -1.1740    2.5827    2.1191 H   0  0  0  0  0  0  0  0  0  0  0  0
    0.5803    0.3941   -1.9379 H   0  0  0  0  0  0  0  0  0  0  0  0
   -0.9130   -0.1307    2.0386 H   0  0  0  0  0  0  0  0  0  0  0  0
  1  2  1  0  0  0  0
  1  7  2  0  0  0  0
  2  6  1  0  0  0  0
  3  9  1  0  0  0  0
  3 10  1  0  0  0  0
  3  5  1  0  0  0  0
  4 12  1  0  0  0  0
  5  1  1  0  0  0  0
  6 14  1  0  0  0  0
  6  4  1  0  0  0  0
  8  2  2  0  0  0  0
 11  4  1  0  0  0  0
 13  5  1  0  0  0  0
M  END
>  <HBA>
6

>  <HBD>
4

>  <TPSA>
110.24

>  <cid>
13826

>  <dipole>
0.15

>  <excitation_energy_1>
4.171

>  <excitation_energy_2>
5.577

>  <excitation_energy_3>
5.617

>  <excitation_energy_4>
5.769

>  <homo_energy>
-6.787

>  <homo_lumo_gap>
5.636

>  <logP>
-0.851

>  <lumo_energy>
-1.151

>  <melting_point>
181.73

>  <molecular_refractivity>
23.15

>  <oscillator_strength_1>
0.0003

>  <oscillator_strength_2>
0.0008

>  <oscillator_strength_3>
0.0128

>  <oscillator_strength_4>
0.0002

>  <open_babel_can_smiles>
NNC(=O)C(=O)NN

>  <mulliken_charges>
14
1   0.54661
2   0.546482
3   -0.552584
4   -0.552547
5   -0.490857
6   -0.490857
7   -0.533793
8   -0.533693
9   0.33089
10   0.330684
11   0.330836
12   0.330705
13   0.369062
14   0.369061

>  <lowdin_charges>
14
1   0.116269
2   0.11634
3   -0.447392
4   -0.447619
5   -0.200998
6   -0.200899
7   -0.314575
8   -0.314529
9   0.270745
10   0.270272
11   0.27101
12   0.270321
13   0.305644
14   0.305411

$$$$

