PCCDB-ID:  9088
public computational chemistry database (PCCDB) project, http://pccdb.org

 13 14  0  0  0  0  0  0  0  0999 V2000
   -1.2731   -0.7076   -0.2897 C   0  0  0  0  0  0  0  0  0  0  0  0
   -1.2731    0.7076    0.2897 C   0  0  0  0  0  0  0  0  0  0  0  0
    1.2731    0.2900   -0.7076 C   0  0  0  0  0  0  0  0  0  0  0  0
    1.2731   -0.2900    0.7076 C   0  0  0  0  0  0  0  0  0  0  0  0
    0.0000    0.0000    0.0000 C   0  0  0  0  0  0  0  0  0  0  0  0
   -1.5781   -0.8303   -1.3271 H   0  0  0  0  0  0  0  0  0  0  0  0
   -1.5778   -1.5223    0.3641 H   0  0  0  0  0  0  0  0  0  0  0  0
   -1.5781    0.8303    1.3271 H   0  0  0  0  0  0  0  0  0  0  0  0
   -1.5778    1.5223   -0.3641 H   0  0  0  0  0  0  0  0  0  0  0  0
    1.5782   -0.3634   -1.5225 H   0  0  0  0  0  0  0  0  0  0  0  0
    1.5778    1.3275   -0.8296 H   0  0  0  0  0  0  0  0  0  0  0  0
    1.5782    0.3634    1.5225 H   0  0  0  0  0  0  0  0  0  0  0  0
    1.5778   -1.3275    0.8296 H   0  0  0  0  0  0  0  0  0  0  0  0
  1  5  1  0  0  0  0
  1  2  1  0  0  0  0
  1  7  1  0  0  0  0
  2  8  1  0  0  0  0
  3  5  1  0  0  0  0
  3  4  1  0  0  0  0
  4 13  1  0  0  0  0
  4 12  1  0  0  0  0
  5  2  1  0  0  0  0
  5  4  1  0  0  0  0
  6  1  1  0  0  0  0
  9  2  1  0  0  0  0
 10  3  1  0  0  0  0
 11  3  1  0  0  0  0
M  END
>  <HBA>
0

>  <HBD>
0

>  <TPSA>
0.0

>  <cid>
9088

>  <dipole>
0.0

>  <excitation_energy_1>
7.061

>  <excitation_energy_2>
7.277

>  <excitation_energy_3>
7.277

>  <excitation_energy_4>
7.335

>  <homo_energy>
-7.219

>  <homo_lumo_gap>
10.066

>  <logP>
1.56

>  <lumo_energy>
2.846

>  <melting_point>
37.94

>  <molecular_refractivity>
21.66

>  <oscillator_strength_1>
0.0123

>  <oscillator_strength_2>
0.0269

>  <oscillator_strength_3>
0.0269

>  <oscillator_strength_4>
0.0

>  <open_babel_can_smiles>
C1CC21CC2

>  <mulliken_charges>
13
1   -0.32828
2   -0.328377
3   -0.328357
4   -0.328398
5   0.11949
6   0.149237
7   0.149231
8   0.149244
9   0.149237
10   0.149241
11   0.149242
12   0.149243
13   0.149246

>  <lowdin_charges>
13
1   -0.305193
2   -0.305205
3   -0.305198
4   -0.305204
5   -0.035942
6   0.15612
7   0.158065
8   0.156121
9   0.158066
10   0.158064
11   0.156121
12   0.158064
13   0.156121

$$$$

