PCCDB-ID:  13392
public computational chemistry database (PCCDB) project, http://pccdb.org

 16 16  0  0  0  0  0  0  0  0999 V2000
    1.0274    0.0547    0.1126 C   0  0  0  0  0  0  0  0  0  0  0  0
    3.3322   -1.1925   -0.0235 C   0  0  0  0  0  0  0  0  0  0  0  0
    4.6326   -0.7316    0.0260 C   0  0  0  0  0  0  0  0  0  0  0  0
    5.4484    2.6757    0.4255 C   0  0  0  0  0  0  0  0  0  0  0  0
    2.5250   -0.0360    0.1098 C   0  0  0  0  0  0  0  0  0  0  0  0
    5.6582    1.4252    0.2731 N   0  0  0  0  0  0  0  0  0  0  0  0
    3.2746    1.0654    0.2346 N   0  0  0  0  0  0  0  0  0  0  0  0
    4.5496    0.6152    0.1800 N   0  0  0  0  0  0  0  0  0  0  0  0
    6.4802    3.5308    0.5232 O   0  0  0  0  0  0  0  0  0  0  0  0
    0.5808   -0.9440    0.1131 H   0  0  0  0  0  0  0  0  0  0  0  0
    0.6588    0.5901   -0.7705 H   0  0  0  0  0  0  0  0  0  0  0  0
    0.6655    0.5931    0.9953 H   0  0  0  0  0  0  0  0  0  0  0  0
    3.0043   -2.2155   -0.1399 H   0  0  0  0  0  0  0  0  0  0  0  0
    5.5930   -1.2207   -0.0311 H   0  0  0  0  0  0  0  0  0  0  0  0
    4.4771    3.1572    0.4889 H   0  0  0  0  0  0  0  0  0  0  0  0
    7.2996    3.0059    0.4518 H   0  0  0  0  0  0  0  0  0  0  0  0
  1 10  1  0  0  0  0
  1 12  1  0  0  0  0
  2  3  2  0  0  0  0
  2  5  1  0  0  0  0
  3  8  1  0  0  0  0
  4 15  1  0  0  0  0
  4  9  1  0  0  0  0
  5  1  1  0  0  0  0
  5  7  2  0  0  0  0
  6  4  2  0  0  0  0
  8  7  1  0  0  0  0
  8  6  1  0  0  0  0
 11  1  1  0  0  0  0
 13  2  1  0  0  0  0
 14  3  1  0  0  0  0
 16  9  1  0  0  0  0
M  END
>  <HBA>
4

>  <HBD>
1

>  <TPSA>
46.92

>  <cid>
13392

>  <dipole>
1.11

>  <excitation_energy_1>
4.992

>  <excitation_energy_2>
5.479

>  <excitation_energy_3>
5.549

>  <excitation_energy_4>
5.887

>  <homo_energy>
-5.984

>  <homo_lumo_gap>
5.54

>  <logP>
0.6

>  <lumo_energy>
-0.444

>  <melting_point>
74.39

>  <molecular_refractivity>
32.83

>  <oscillator_strength_1>
0.3159

>  <oscillator_strength_2>
0.0881

>  <oscillator_strength_3>
0.0012

>  <oscillator_strength_4>
0.0055

>  <open_babel_can_smiles>
Cc1ccn(n1)/N=C/O

>  <mulliken_charges>
16
1   -0.513158
2   -0.287181
3   0.108544
4   0.314286
5   0.336824
6   -0.32987
7   -0.367741
8   -0.113445
9   -0.555376
10   0.153874
11   0.168833
12   0.169323
13   0.13196
14   0.165097
15   0.202219
16   0.415811

>  <lowdin_charges>
16
1   -0.442067
2   -0.241572
3   -0.128238
4   0.013761
5   0.017743
6   -0.166856
7   -0.190001
8   0.101159
9   -0.34064
10   0.158916
11   0.166287
12   0.167277
13   0.165911
14   0.17798
15   0.176435
16   0.363904

$$$$

