PCCDB-ID:  2355
public computational chemistry database (PCCDB) project, http://pccdb.org

 24 26  0  0  0  0  0  0  0  0999 V2000
    2.0440   -0.4424   -0.2307 C   0  0  0  0  0  0  0  0  0  0  0  0
    3.0821    3.0140    0.8928 C   0  0  0  0  0  0  0  0  0  0  0  0
    3.0360    4.2819    1.3607 C   0  0  0  0  0  0  0  0  0  0  0  0
    4.1560   -1.8366    2.1454 C   0  0  0  0  0  0  0  0  0  0  0  0
    4.5570   -2.2001    3.3859 C   0  0  0  0  0  0  0  0  0  0  0  0
    4.1880    1.2645    4.0165 C   0  0  0  0  0  0  0  0  0  0  0  0
    3.4677    1.9227    1.7499 C   0  0  0  0  0  0  0  0  0  0  0  0
    3.9311   -0.4100    2.2040 C   0  0  0  0  0  0  0  0  0  0  0  0
    4.2399   -0.0336    3.5300 C   0  0  0  0  0  0  0  0  0  0  0  0
    3.8014    2.2340    3.0958 C   0  0  0  0  0  0  0  0  0  0  0  0
    3.3729    4.6027    2.7421 C   0  0  0  0  0  0  0  0  0  0  0  0
    3.5293    0.5860    1.3074 C   0  0  0  0  0  0  0  0  0  0  0  0
    3.3595    5.6994    3.2479 O   0  0  0  0  0  0  0  0  0  0  0  0
    3.2387    0.3141   -0.0062 O   0  0  0  0  0  0  0  0  0  0  0  0
    4.6160   -1.1298    4.2503 O   0  0  0  0  0  0  0  0  0  0  0  0
    3.7471    3.5216    3.5467 O   0  0  0  0  0  0  0  0  0  0  0  0
    1.9745   -0.5844   -1.3109 H   0  0  0  0  0  0  0  0  0  0  0  0
    1.1628    0.1054    0.1263 H   0  0  0  0  0  0  0  0  0  0  0  0
    2.0820   -1.4192    0.2644 H   0  0  0  0  0  0  0  0  0  0  0  0
    2.8386    2.7890   -0.1405 H   0  0  0  0  0  0  0  0  0  0  0  0
    2.7516    5.1234    0.7399 H   0  0  0  0  0  0  0  0  0  0  0  0
    4.0513   -2.4881    1.2903 H   0  0  0  0  0  0  0  0  0  0  0  0
    4.8400   -3.1486    3.8169 H   0  0  0  0  0  0  0  0  0  0  0  0
    4.4381    1.5253    5.0373 H   0  0  0  0  0  0  0  0  0  0  0  0
  1 14  1  0  0  0  0
  1 18  1  0  0  0  0
  1 19  1  0  0  0  0
  2  3  2  0  0  0  0
  2  7  1  0  0  0  0
  3 11  1  0  0  0  0
  4  8  1  0  0  0  0
  4  5  2  0  0  0  0
  5 23  1  0  0  0  0
  5 15  1  0  0  0  0
  6 24  1  0  0  0  0
  7 10  1  0  0  0  0
  8  9  2  0  0  0  0
  9  6  1  0  0  0  0
  9 15  1  0  0  0  0
 10 16  1  0  0  0  0
 10  6  2  0  0  0  0
 11 13  2  0  0  0  0
 11 16  1  0  0  0  0
 12  7  2  0  0  0  0
 12  8  1  0  0  0  0
 14 12  1  0  0  0  0
 17  1  1  0  0  0  0
 20  2  1  0  0  0  0
 21  3  1  0  0  0  0
 22  4  1  0  0  0  0
M  END
>  <HBA>
4

>  <HBD>
0

>  <TPSA>
52.58

>  <cid>
2355

>  <dipole>
6.52

>  <excitation_energy_1>
3.707

>  <excitation_energy_2>
4.238

>  <excitation_energy_3>
4.493

>  <excitation_energy_4>
4.937

>  <homo_energy>
-6.076

>  <homo_lumo_gap>
4.343

>  <logP>
2.548

>  <lumo_energy>
-1.733

>  <melting_point>
133.0

>  <molecular_refractivity>
58.75

>  <oscillator_strength_1>
0.0328

>  <oscillator_strength_2>
0.27

>  <oscillator_strength_3>
0.0

>  <oscillator_strength_4>
0.0328

>  <open_babel_can_smiles>
COc1c2ccc(=O)oc2cc2c1cco2

>  <mulliken_charges>
24
1   -0.217798
2   -0.105908
3   -0.226574
4   -0.210412
5   0.08118
6   -0.242465
7   0.083279
8   0.113009
9   0.329347
10   0.311525
11   0.596545
12   0.179312
13   -0.464452
14   -0.527023
15   -0.479163
16   -0.525324
17   0.171775
18   0.155469
19   0.153755
20   0.166108
21   0.161984
22   0.156999
23   0.169642
24   0.16919

>  <lowdin_charges>
24
1   -0.269029
2   -0.10307
3   -0.207173
4   -0.209419
5   -0.050583
6   -0.201476
7   -0.069117
8   -0.06112
9   0.102704
10   0.120081
11   0.195648
12   0.099562
13   -0.239574
14   -0.221426
15   -0.106254
16   -0.136922
17   0.161161
18   0.147911
19   0.145884
20   0.176538
21   0.182195
22   0.178433
23   0.178052
24   0.186995

$$$$

