PCCDB-ID:  40859
public computational chemistry database (PCCDB) project, http://pccdb.org

 20 21  0  0  0  0  0  0  0  0999 V2000
    0.8910    0.1101    0.2429 C   0  0  0  0  0  0  0  0  0  0  0  0
    5.5677    2.8713    0.0976 C   0  0  0  0  0  0  0  0  0  0  0  0
    6.9177    3.2959    0.0089 C   0  0  0  0  0  0  0  0  0  0  0  0
    4.6727   -0.8354   -0.2315 C   0  0  0  0  0  0  0  0  0  0  0  0
    2.3739   -0.0345    0.0889 C   0  0  0  0  0  0  0  0  0  0  0  0
    4.5164    0.5175   -0.0640 C   0  0  0  0  0  0  0  0  0  0  0  0
    5.5763    1.5021   -0.0585 C   0  0  0  0  0  0  0  0  0  0  0  0
    7.6459    2.1548   -0.1949 C   0  0  0  0  0  0  0  0  0  0  0  0
    3.2153    0.9543    0.1150 N   0  0  0  0  0  0  0  0  0  0  0  0
    9.0462    1.9621   -0.3579 N   0  0  0  0  0  0  0  0  0  0  0  0
    9.7412    2.9841   -0.3124 O   0  0  0  0  0  0  0  0  0  0  0  0
    9.4587    0.8139   -0.5294 O   0  0  0  0  0  0  0  0  0  0  0  0
    6.8521    1.0560   -0.2390 O   0  0  0  0  0  0  0  0  0  0  0  0
    3.1322   -1.6137   -0.1632 S   0  0  0  0  0  0  0  0  0  0  0  0
    0.6650    1.1522    0.4795 H   0  0  0  0  0  0  0  0  0  0  0  0
    0.5052   -0.5279    1.0454 H   0  0  0  0  0  0  0  0  0  0  0  0
    0.3660   -0.1614   -0.6804 H   0  0  0  0  0  0  0  0  0  0  0  0
    4.6884    3.4771    0.2564 H   0  0  0  0  0  0  0  0  0  0  0  0
    7.3183    4.2954    0.0816 H   0  0  0  0  0  0  0  0  0  0  0  0
    5.5899   -1.3869   -0.3816 H   0  0  0  0  0  0  0  0  0  0  0  0
  1 15  1  0  0  0  0
  1 16  1  0  0  0  0
  2 18  1  0  0  0  0
  3 19  1  0  0  0  0
  3  2  1  0  0  0  0
  4 14  1  0  0  0  0
  4  6  2  0  0  0  0
  5  9  2  0  0  0  0
  5  1  1  0  0  0  0
  6  7  1  0  0  0  0
  6  9  1  0  0  0  0
  7  2  2  0  0  0  0
  8  3  2  0  0  0  0
 10 11  2  0  0  0  0
 10  8  1  0  0  0  0
 12 10  2  0  0  0  0
 13  8  1  0  0  0  0
 13  7  1  0  0  0  0
 14  5  1  0  0  0  0
 17  1  1  0  0  0  0
 20  4  1  0  0  0  0
M  END
>  <HBA>
3

>  <HBD>
0

>  <TPSA>
100.09

>  <cid>
40859

>  <dipole>
6.23

>  <excitation_energy_1>
3.438

>  <excitation_energy_2>
3.72

>  <excitation_energy_3>
4.239

>  <excitation_energy_4>
4.572

>  <homo_energy>
-6.324

>  <homo_lumo_gap>
3.812

>  <logP>
3.143

>  <lumo_energy>
-2.512

>  <melting_point>
99.19

>  <molecular_refractivity>
53.6

>  <oscillator_strength_1>
0.4109

>  <oscillator_strength_2>
0.0

>  <oscillator_strength_3>
0.0003

>  <oscillator_strength_4>
0.0687

>  <open_babel_can_smiles>
Cc1scc(n1)c1ccc(o1)N(=O)=O

>  <mulliken_charges>
20
1   -0.51478
2   -0.193455
3   -0.146639
4   -0.378889
5   0.120241
6   0.243932
7   0.337481
8   0.539495
9   -0.449215
10   0.322652
11   -0.408306
12   -0.398258
13   -0.465727
14   0.257847
15   0.195334
16   0.180786
17   0.184103
18   0.176426
19   0.188371
20   0.208602

>  <lowdin_charges>
20
1   -0.441989
2   -0.187833
3   -0.1496
4   -0.321338
5   -0.067971
6   0.001751
7   0.103104
8   0.066863
9   -0.16138
10   0.303399
11   -0.261426
12   -0.245484
13   -0.069852
14   0.311967
15   0.18193
16   0.174596
17   0.175361
18   0.189342
19   0.194696
20   0.203866

$$$$

