PCCDB-ID:  16841
public computational chemistry database (PCCDB) project, http://pccdb.org

 18 17  0  0  0  0  0  0  0  0999 V2000
    7.1804   -0.2602    0.4942 C   0  0  0  0  0  0  0  0  0  0  0  0
    6.0346    5.8704    2.2015 C   0  0  0  0  0  0  0  0  0  0  0  0
    5.6580   -0.1598    0.5440 C   0  0  0  0  0  0  0  0  0  0  0  0
    4.6524    5.2359    2.0691 C   0  0  0  0  0  0  0  0  0  0  0  0
    5.0933    2.4997    1.4034 C   0  0  0  0  0  0  0  0  0  0  0  0
    5.5513    3.0106   -0.0989 S   0  0  0  0  0  0  0  0  0  0  0  0
    5.0216    0.8176    1.9640 S   0  0  0  0  0  0  0  0  0  0  0  0
    4.5478    3.5292    2.7413 S   0  0  0  0  0  0  0  0  0  0  0  0
    7.4777   -0.9002   -0.3457 H   0  0  0  0  0  0  0  0  0  0  0  0
    7.5822   -0.6944    1.4150 H   0  0  0  0  0  0  0  0  0  0  0  0
    7.6315    0.7244    0.3456 H   0  0  0  0  0  0  0  0  0  0  0  0
    6.0067    6.8932    1.8059 H   0  0  0  0  0  0  0  0  0  0  0  0
    6.7791    5.3074    1.6327 H   0  0  0  0  0  0  0  0  0  0  0  0
    6.3539    5.9165    3.2473 H   0  0  0  0  0  0  0  0  0  0  0  0
    5.1950   -1.1423    0.6834 H   0  0  0  0  0  0  0  0  0  0  0  0
    5.2517    0.2878   -0.3666 H   0  0  0  0  0  0  0  0  0  0  0  0
    4.3236    5.1953    1.0274 H   0  0  0  0  0  0  0  0  0  0  0  0
    3.9020    5.7851    2.6474 H   0  0  0  0  0  0  0  0  0  0  0  0
  1  3  1  0  0  0  0
  1 10  1  0  0  0  0
  2 14  1  0  0  0  0
  3 15  1  0  0  0  0
  3  7  1  0  0  0  0
  4  2  1  0  0  0  0
  4 18  1  0  0  0  0
  4  8  1  0  0  0  0
  5  7  1  0  0  0  0
  5  8  1  0  0  0  0
  6  5  2  0  0  0  0
  9  1  1  0  0  0  0
 11  1  1  0  0  0  0
 12  2  1  0  0  0  0
 13  2  1  0  0  0  0
 16  3  1  0  0  0  0
 17  4  1  0  0  0  0
M  END
>  <HBA>
3

>  <HBD>
0

>  <TPSA>
82.69

>  <cid>
16841

>  <dipole>
0.35

>  <excitation_energy_1>
3.039

>  <excitation_energy_2>
4.249

>  <excitation_energy_3>
4.41

>  <excitation_energy_4>
5.001

>  <homo_energy>
-6.172

>  <homo_lumo_gap>
4.392

>  <logP>
2.777

>  <lumo_energy>
-1.78

>  <melting_point>
22.4

>  <molecular_refractivity>
49.12

>  <oscillator_strength_1>
0.0001

>  <oscillator_strength_2>
0.1316

>  <oscillator_strength_3>
0.1111

>  <oscillator_strength_4>
0.078

>  <open_babel_can_smiles>
CCSC(=S)SCC

>  <mulliken_charges>
18
1   -0.438315
2   -0.437615
3   -0.431622
4   -0.431974
5   -0.344406
6   -0.1517
7   0.225089
8   0.225775
9   0.155528
10   0.15972
11   0.182047
12   0.155567
13   0.182187
14   0.159154
15   0.183143
16   0.21228
17   0.211961
18   0.183182

>  <lowdin_charges>
18
1   -0.445927
2   -0.444455
3   -0.370792
4   -0.370572
5   -0.341058
6   -0.1364
7   0.216648
8   0.216181
9   0.158587
10   0.157406
11   0.167705
12   0.157056
13   0.169389
14   0.155579
15   0.171284
16   0.184117
17   0.182643
18   0.17261

$$$$

