PCCDB-ID:  11424
public computational chemistry database (PCCDB) project, http://pccdb.org

 18 18  0  0  1  0  0  0  0  0999 V2000
    1.2757    0.0101   -1.1659 C   0  0  0  0  0  0  0  0  0  0  0  0
    4.5435   -1.2182   -0.5582 C   0  0  0  0  0  0  0  0  0  0  0  0
    3.4245   -0.8783    0.1388 C   0  0  0  0  0  0  0  0  0  0  0  0
    5.7588   -0.7355    0.0387 C   0  0  0  0  0  0  0  0  0  0  0  0
    3.2153    1.3633   -0.2319 C   0  0  0  0  0  0  0  0  0  0  0  0
    2.5835    0.1894   -0.4608 C   0  0  0  0  0  0  0  0  0  0  0  0
    5.6574    0.5027    0.6294 C   0  0  2  0  0  0  0  0  0  0  0  0
    4.5125    1.5383    0.5119 C   0  0  0  0  0  0  0  0  0  0  0  0
    6.7076    1.0811    1.2615 O   0  0  0  0  0  0  0  0  0  0  0  0
    4.7245    2.6294    1.0243 O   0  0  0  0  0  0  0  0  0  0  0  0
    0.5372   -0.4520   -0.4980 H   0  0  0  0  0  0  0  0  0  0  0  0
    1.3877   -0.6681   -2.0222 H   0  0  0  0  0  0  0  0  0  0  0  0
    0.8759    0.9620   -1.5279 H   0  0  0  0  0  0  0  0  0  0  0  0
    4.5117   -1.4062   -1.6340 H   0  0  0  0  0  0  0  0  0  0  0  0
    3.5249   -0.8246    1.2233 H   0  0  0  0  0  0  0  0  0  0  0  0
    6.7428   -1.1865   -0.1090 H   0  0  0  0  0  0  0  0  0  0  0  0
    2.7543    2.3210   -0.4700 H   0  0  0  0  0  0  0  0  0  0  0  0
    7.4201    0.4252    1.3345 H   0  0  0  0  0  0  0  0  0  0  0  0
  1 11  1  0  0  0  0
  1  6  1  0  0  0  0
  2  4  1  0  0  0  0
  2  3  1  0  0  0  0
  3 15  1  0  0  0  0
  4  7  1  0  0  0  0
  5  8  1  0  0  0  0
  6  5  2  0  0  0  0
  6  3  1  0  0  0  0
  7  9  1  6  0  0  0
  8  7  1  0  0  0  0
  8 10  2  0  0  0  0
  9 18  1  0  0  0  0
 12  1  1  0  0  0  0
 13  1  1  0  0  0  0
 14  2  1  0  0  0  0
 16  4  1  0  0  0  0
 17  5  1  0  0  0  0
M  RAD  4   2   2   3   2   4   2   7   2
M  END
>  <HBA>
2

>  <HBD>
1

>  <TPSA>
37.3

>  <cid>
11424

>  <dipole>
3.71

>  <excitation_energy_1>
3.413

>  <excitation_energy_2>
3.61

>  <excitation_energy_3>
4.014

>  <excitation_energy_4>
4.508

>  <homo_energy>
-6.033

>  <homo_lumo_gap>
4.185

>  <logP>
1.061

>  <lumo_energy>
-1.848

>  <melting_point>
83.57

>  <molecular_refractivity>
39.7

>  <oscillator_strength_1>
0.0006

>  <oscillator_strength_2>
0.0651

>  <oscillator_strength_3>
0.0038

>  <oscillator_strength_4>
0.0613

>  <open_babel_can_smiles>
CC1=CC(=O)[C]([CH][CH][CH]1)O

>  <mulliken_charges>
18
1   -0.523012
2   -0.107229
3   -0.256301
4   -0.213511
5   -0.227733
6   0.173384
7   0.27694
8   0.415293
9   -0.579763
10   -0.458273
11   0.172913
12   0.169676
13   0.167144
14   0.1435
15   0.161331
16   0.12693
17   0.147979
18   0.410732

>  <lowdin_charges>
18
1   -0.439341
2   -0.142262
3   -0.176768
4   -0.217911
5   -0.210351
6   0.0358
7   0.078777
8   0.135047
9   -0.336121
10   -0.227896
11   0.169767
12   0.167797
13   0.163737
14   0.156309
15   0.162525
16   0.150964
17   0.169534
18   0.360393

$$$$

