PCCDB-ID:  70477
public computational chemistry database (PCCDB) project, http://pccdb.org

 10  9  0  0  0  0  0  0  0  0999 V2000
    1.0775    0.0103   -0.0616 C   0  0  0  0  0  0  0  0  0  0  0  0
    0.5788   -0.7319   -1.2250 C   0  0  0  0  0  0  0  0  0  0  0  0
    2.6174    0.0743   -0.0469 C   0  0  0  0  0  0  0  0  0  0  0  0
    0.2121   -1.3233   -2.1540 N   0  0  0  0  0  0  0  0  0  0  0  0
    3.2875    0.9385    1.4282 S   0  0  0  0  0  0  0  0  0  0  0  0
    0.7139   -0.4678    0.8547 H   0  0  0  0  0  0  0  0  0  0  0  0
    0.6538    1.0214   -0.0833 H   0  0  0  0  0  0  0  0  0  0  0  0
    2.9960    0.5417   -0.9593 H   0  0  0  0  0  0  0  0  0  0  0  0
    3.0345   -0.9352    0.0003 H   0  0  0  0  0  0  0  0  0  0  0  0
    2.8618    2.1766    1.0936 H   0  0  0  0  0  0  0  0  0  0  0  0
  1  3  1  0  0  0  0
  1  6  1  0  0  0  0
  2  1  1  0  0  0  0
  3  9  1  0  0  0  0
  3  5  1  0  0  0  0
  4  2  3  0  0  0  0
  7  1  1  0  0  0  0
  8  3  1  0  0  0  0
 10  5  1  0  0  0  0
M  END
>  <HBA>
2

>  <HBD>
1

>  <TPSA>
62.59

>  <cid>
70477

>  <dipole>
2.7

>  <excitation_energy_1>
5.279

>  <excitation_energy_2>
6.036

>  <excitation_energy_3>
6.74

>  <excitation_energy_4>
6.874

>  <homo_energy>
-7.061

>  <homo_lumo_gap>
6.904

>  <logP>
0.83

>  <lumo_energy>
-0.158

>  <melting_point>
29.59

>  <molecular_refractivity>
24.21

>  <oscillator_strength_1>
0.0068

>  <oscillator_strength_2>
0.0343

>  <oscillator_strength_3>
0.021

>  <oscillator_strength_4>
0.0103

>  <open_babel_can_smiles>
SCCC#N

>  <mulliken_charges>
10
1   -0.32936
2   0.347717
3   -0.425369
4   -0.46054
5   -0.050335
6   0.213244
7   0.197378
8   0.202587
9   0.205834
10   0.098843

>  <lowdin_charges>
10
1   -0.278904
2   -0.019809
3   -0.366261
4   -0.118922
5   -0.060206
6   0.191366
7   0.182284
8   0.174247
9   0.181001
10   0.115206

$$$$

