PCCDB-ID:  25793
public computational chemistry database (PCCDB) project, http://pccdb.org

 24 23  0  0  1  0  0  0  0  0999 V2000
    0.9725    2.3682    1.9346 C   0  0  0  0  0  0  0  0  0  0  0  0
    4.9519    0.9083   -0.8600 C   0  0  0  0  0  0  0  0  0  0  0  0
    2.4904    2.1565    1.9446 C   0  0  0  0  0  0  0  0  0  0  0  0
    3.0453    1.7673    0.5676 C   0  0  0  0  0  0  0  0  0  0  0  0
    5.4734    2.5532    1.0287 C   0  0  0  0  0  0  0  0  0  0  0  0
    5.4183    3.8580    0.2394 C   0  0  0  0  0  0  0  0  0  0  0  0
    4.5487    1.4179    0.5343 C   0  0  2  0  0  0  0  0  0  0  0  0
    6.3560    4.7505    0.8391 O   0  0  0  0  0  0  0  0  0  0  0  0
    0.6004    2.6484    2.9267 H   0  0  0  0  0  0  0  0  0  0  0  0
    0.4467    1.4560    1.6263 H   0  0  0  0  0  0  0  0  0  0  0  0
    0.6876    3.1645    1.2356 H   0  0  0  0  0  0  0  0  0  0  0  0
    4.3832    0.0095   -1.1269 H   0  0  0  0  0  0  0  0  0  0  0  0
    6.0177    0.6528   -0.8980 H   0  0  0  0  0  0  0  0  0  0  0  0
    4.7613    1.6565   -1.6391 H   0  0  0  0  0  0  0  0  0  0  0  0
    2.7451    1.3721    2.6720 H   0  0  0  0  0  0  0  0  0  0  0  0
    2.9791    3.0721    2.3020 H   0  0  0  0  0  0  0  0  0  0  0  0
    2.8346    2.5743   -0.1500 H   0  0  0  0  0  0  0  0  0  0  0  0
    2.4862    0.8941    0.2001 H   0  0  0  0  0  0  0  0  0  0  0  0
    5.2508    2.7894    2.0763 H   0  0  0  0  0  0  0  0  0  0  0  0
    6.5125    2.1991    1.0119 H   0  0  0  0  0  0  0  0  0  0  0  0
    4.4021    4.2834    0.2677 H   0  0  0  0  0  0  0  0  0  0  0  0
    5.6687    3.6811   -0.8186 H   0  0  0  0  0  0  0  0  0  0  0  0
    4.6977    0.5836    1.2369 H   0  0  0  0  0  0  0  0  0  0  0  0
    6.3283    5.5842    0.3460 H   0  0  0  0  0  0  0  0  0  0  0  0
  1  3  1  0  0  0  0
  1  9  1  0  0  0  0
  2  7  1  0  0  0  0
  3 16  1  0  0  0  0
  3 15  1  0  0  0  0
  4  3  1  0  0  0  0
  5 19  1  0  0  0  0
  6 21  1  0  0  0  0
  6  8  1  0  0  0  0
  6  5  1  0  0  0  0
  7  4  1  0  0  0  0
  7  5  1  0  0  0  0
  7 23  1  1  0  0  0
 10  1  1  0  0  0  0
 11  1  1  0  0  0  0
 12  2  1  0  0  0  0
 13  2  1  0  0  0  0
 14  2  1  0  0  0  0
 17  4  1  0  0  0  0
 18  4  1  0  0  0  0
 20  5  1  0  0  0  0
 22  6  1  0  0  0  0
 24  8  1  0  0  0  0
M  END
>  <HBA>
1

>  <HBD>
1

>  <TPSA>
20.23

>  <cid>
25793

>  <dipole>
1.43

>  <excitation_energy_1>
6.299

>  <excitation_energy_2>
7.094

>  <excitation_energy_3>
7.344

>  <excitation_energy_4>
7.396

>  <homo_energy>
-7.083

>  <homo_lumo_gap>
9.184

>  <logP>
1.805

>  <lumo_energy>
2.101

>  <melting_point>
-8.61

>  <molecular_refractivity>
36.92

>  <oscillator_strength_1>
0.0004

>  <oscillator_strength_2>
0.0029

>  <oscillator_strength_3>
0.0127

>  <oscillator_strength_4>
0.0142

>  <open_babel_can_smiles>
CCC[C@H](CCO)C

>  <mulliken_charges>
24
1   -0.442129
2   -0.4507
3   -0.255658
4   -0.248023
5   -0.268388
6   -0.03603
7   -0.078961
8   -0.621677
9   0.142266
10   0.141201
11   0.140075
12   0.140478
13   0.141819
14   0.139537
15   0.130853
16   0.139376
17   0.123974
18   0.125209
19   0.14679
20   0.141295
21   0.118666
22   0.119221
23   0.122003
24   0.388802

>  <lowdin_charges>
24
1   -0.444804
2   -0.447026
3   -0.27651
4   -0.280343
5   -0.283377
6   -0.134399
7   -0.124056
8   -0.474347
9   0.149071
10   0.146307
11   0.146434
12   0.148673
13   0.147181
14   0.144761
15   0.140188
16   0.142556
17   0.135648
18   0.140288
19   0.148321
20   0.147888
21   0.122801
22   0.1231
23   0.139118
24   0.342526

$$$$

