PCCDB-ID:  10882
public computational chemistry database (PCCDB) project, http://pccdb.org

 23 22  0  0  0  0  0  0  0  0999 V2000
    0.8163    0.1823    0.1436 C   0  0  0  0  0  0  0  0  0  0  0  0
    7.0231   -4.6281   -1.6615 C   0  0  0  0  0  0  0  0  0  0  0  0
    2.3440    0.1071    0.0555 C   0  0  0  0  0  0  0  0  0  0  0  0
    6.8331   -3.3829   -2.5149 C   0  0  0  0  0  0  0  0  0  0  0  0
    2.8359   -1.0753   -0.7879 C   0  0  0  0  0  0  0  0  0  0  0  0
    4.3614   -1.1462   -0.8745 C   0  0  0  0  0  0  0  0  0  0  0  0
    4.8614   -2.3167   -1.6997 C   0  0  0  0  0  0  0  0  0  0  0  0
    4.1616   -3.1472   -2.2394 O   0  0  0  0  0  0  0  0  0  0  0  0
    6.2147   -2.3137   -1.7605 O   0  0  0  0  0  0  0  0  0  0  0  0
    0.4928    1.0351    0.7510 H   0  0  0  0  0  0  0  0  0  0  0  0
    0.4010   -0.7267    0.5954 H   0  0  0  0  0  0  0  0  0  0  0  0
    0.3674    0.2912   -0.8512 H   0  0  0  0  0  0  0  0  0  0  0  0
    7.5607   -5.3934   -2.2334 H   0  0  0  0  0  0  0  0  0  0  0  0
    6.0554   -5.0408   -1.3627 H   0  0  0  0  0  0  0  0  0  0  0  0
    7.6045   -4.3992   -0.7623 H   0  0  0  0  0  0  0  0  0  0  0  0
    2.7658    0.0341    1.0684 H   0  0  0  0  0  0  0  0  0  0  0  0
    2.7329    1.0447   -0.3672 H   0  0  0  0  0  0  0  0  0  0  0  0
    6.2190   -3.5960   -3.3935 H   0  0  0  0  0  0  0  0  0  0  0  0
    7.7921   -2.9679   -2.8357 H   0  0  0  0  0  0  0  0  0  0  0  0
    2.4199   -1.0092   -1.8012 H   0  0  0  0  0  0  0  0  0  0  0  0
    2.4545   -2.0159   -0.3709 H   0  0  0  0  0  0  0  0  0  0  0  0
    4.8121   -1.2261    0.1243 H   0  0  0  0  0  0  0  0  0  0  0  0
    4.7786   -0.2270   -1.3075 H   0  0  0  0  0  0  0  0  0  0  0  0
  1 11  1  0  0  0  0
  1 10  1  0  0  0  0
  2 14  1  0  0  0  0
  2 15  1  0  0  0  0
  3  1  1  0  0  0  0
  3 16  1  0  0  0  0
  4  9  1  0  0  0  0
  4  2  1  0  0  0  0
  5 21  1  0  0  0  0
  5  3  1  0  0  0  0
  6  5  1  0  0  0  0
  6 22  1  0  0  0  0
  7  6  1  0  0  0  0
  8  7  2  0  0  0  0
  9  7  1  0  0  0  0
 12  1  1  0  0  0  0
 13  2  1  0  0  0  0
 17  3  1  0  0  0  0
 18  4  1  0  0  0  0
 19  4  1  0  0  0  0
 20  5  1  0  0  0  0
 23  6  1  0  0  0  0
M  END
>  <HBA>
2

>  <HBD>
0

>  <TPSA>
26.3

>  <cid>
10882

>  <dipole>
1.58

>  <excitation_energy_1>
5.84

>  <excitation_energy_2>
7.014

>  <excitation_energy_3>
7.471

>  <excitation_energy_4>
7.604

>  <homo_energy>
-7.263

>  <homo_lumo_gap>
7.742

>  <logP>
1.74

>  <lumo_energy>
0.479

>  <melting_point>
-14.79

>  <molecular_refractivity>
37.05

>  <oscillator_strength_1>
0.0006

>  <oscillator_strength_2>
0.0158

>  <oscillator_strength_3>
0.0206

>  <oscillator_strength_4>
0.0615

>  <open_babel_can_smiles>
CCCCC(=O)OCC

>  <mulliken_charges>
23
1   -0.441897
2   -0.461336
3   -0.251392
4   -0.043076
5   -0.241203
6   -0.3622
7   0.622904
8   -0.481296
9   -0.464762
10   0.142388
11   0.144359
12   0.144391
13   0.149424
14   0.175585
15   0.155833
16   0.129976
17   0.130148
18   0.169064
19   0.150815
20   0.147165
21   0.147605
22   0.16865
23   0.168856

>  <lowdin_charges>
23
1   -0.444624
2   -0.456668
3   -0.272033
4   -0.129379
5   -0.269865
6   -0.302672
7   0.202189
8   -0.270169
9   -0.20184
10   0.150487
11   0.14847
12   0.147576
13   0.159469
14   0.164923
15   0.15565
16   0.137677
17   0.138686
18   0.158283
19   0.151259
20   0.148886
21   0.15006
22   0.166368
23   0.167266

$$$$

