PCCDB-ID:  6465
public computational chemistry database (PCCDB) project, http://pccdb.org

 27 27  0  0  0  0  0  0  0  0999 V2000
    1.1759   -0.3250   -0.7107 C   0  0  0  0  0  0  0  0  0  0  0  0
    4.9093   -1.9031    2.5782 C   0  0  0  0  0  0  0  0  0  0  0  0
    2.3938   -0.0430    0.1746 C   0  0  0  0  0  0  0  0  0  0  0  0
    4.2349   -0.8218    1.7276 C   0  0  0  0  0  0  0  0  0  0  0  0
    3.2325   -3.6929   -0.1306 C   0  0  0  0  0  0  0  0  0  0  0  0
    1.7670   -3.8819    0.2932 C   0  0  0  0  0  0  0  0  0  0  0  0
    3.5847   -2.2277   -0.2368 C   0  0  0  0  0  0  0  0  0  0  0  0
    1.9613   -2.0132    1.7024 C   0  0  0  0  0  0  0  0  0  0  0  0
    3.0240   -1.2936    0.8611 C   0  0  0  0  0  0  0  0  0  0  0  0
    1.3890   -3.1207    1.4725 N   0  0  0  0  0  0  0  0  0  0  0  0
    4.2935   -1.7773   -1.1168 O   0  0  0  0  0  0  0  0  0  0  0  0
    1.5384   -1.3373    2.8138 O   0  0  0  0  0  0  0  0  0  0  0  0
    0.7935    0.6098   -1.1344 H   0  0  0  0  0  0  0  0  0  0  0  0
    0.3623   -0.7941   -0.1466 H   0  0  0  0  0  0  0  0  0  0  0  0
    1.4358   -0.9807   -1.5491 H   0  0  0  0  0  0  0  0  0  0  0  0
    5.7249   -1.4677    3.1656 H   0  0  0  0  0  0  0  0  0  0  0  0
    5.3437   -2.6943    1.9573 H   0  0  0  0  0  0  0  0  0  0  0  0
    4.2038   -2.3663    3.2765 H   0  0  0  0  0  0  0  0  0  0  0  0
    2.1164    0.6799    0.9536 H   0  0  0  0  0  0  0  0  0  0  0  0
    3.1847    0.4223   -0.4226 H   0  0  0  0  0  0  0  0  0  0  0  0
    4.9613   -0.3830    1.0350 H   0  0  0  0  0  0  0  0  0  0  0  0
    3.9129    0.0052    2.3779 H   0  0  0  0  0  0  0  0  0  0  0  0
    3.4684   -4.1896   -1.0763 H   0  0  0  0  0  0  0  0  0  0  0  0
    3.8741   -4.1305    0.6487 H   0  0  0  0  0  0  0  0  0  0  0  0
    1.5817   -4.9418    0.4994 H   0  0  0  0  0  0  0  0  0  0  0  0
    1.0966   -3.6129   -0.5360 H   0  0  0  0  0  0  0  0  0  0  0  0
    2.0442   -0.5157    2.9041 H   0  0  0  0  0  0  0  0  0  0  0  0
  1 14  1  0  0  0  0
  1  3  1  0  0  0  0
  2 16  1  0  0  0  0
  2 18  1  0  0  0  0
  3  9  1  0  0  0  0
  3 19  1  0  0  0  0
  4 22  1  0  0  0  0
  4  2  1  0  0  0  0
  5  6  1  0  0  0  0
  5 24  1  0  0  0  0
  6 25  1  0  0  0  0
  6 10  1  0  0  0  0
  7  5  1  0  0  0  0
  7  9  1  0  0  0  0
  8 12  1  0  0  0  0
  9  8  1  0  0  0  0
  9  4  1  0  0  0  0
 10  8  2  0  0  0  0
 11  7  2  0  0  0  0
 12 27  1  0  0  0  0
 13  1  1  0  0  0  0
 15  1  1  0  0  0  0
 17  2  1  0  0  0  0
 20  3  1  0  0  0  0
 21  4  1  0  0  0  0
 23  5  1  0  0  0  0
 26  6  1  0  0  0  0
M  END
>  <HBA>
3

>  <HBD>
1

>  <TPSA>
46.17

>  <cid>
6465

>  <dipole>
1.73

>  <excitation_energy_1>
4.197

>  <excitation_energy_2>
4.955

>  <excitation_energy_3>
5.218

>  <excitation_energy_4>
5.576

>  <homo_energy>
-6.642

>  <homo_lumo_gap>
5.834

>  <logP>
1.211

>  <lumo_energy>
-0.808

>  <melting_point>
82.67

>  <molecular_refractivity>
50.12

>  <oscillator_strength_1>
0.0006

>  <oscillator_strength_2>
0.0042

>  <oscillator_strength_3>
0.0029

>  <oscillator_strength_4>
0.0009

>  <open_babel_can_smiles>
CCC1(CC)C(=O)CCN=C1O

>  <mulliken_charges>
27
1   -0.469928
2   -0.465455
3   -0.256935
4   -0.28553
5   -0.374135
6   -0.157841
7   0.471273
8   0.510326
9   -0.098666
10   -0.430149
11   -0.468094
12   -0.599818
13   0.153331
14   0.168627
15   0.157645
16   0.156331
17   0.156911
18   0.16843
19   0.123358
20   0.172188
21   0.174787
22   0.123572
23   0.168152
24   0.176368
25   0.157946
26   0.156331
27   0.410975

>  <lowdin_charges>
27
1   -0.454929
2   -0.456879
3   -0.2677
4   -0.272291
5   -0.319286
6   -0.199709
7   0.164991
8   0.118291
9   -0.063286
10   -0.204019
11   -0.231708
12   -0.364287
13   0.158031
14   0.160019
15   0.154579
16   0.16001
17   0.154451
18   0.160516
19   0.138615
20   0.164191
21   0.166165
22   0.136486
23   0.169492
24   0.172293
25   0.153291
26   0.149731
27   0.352943

$$$$

