PCCDB-ID:  34366
public computational chemistry database (PCCDB) project, http://pccdb.org

 21 21  0  0  0  0  0  0  0  0999 V2000
    0.9130   -1.1419    0.8120 C   0  0  0  0  0  0  0  0  0  0  0  0
    1.9609   -0.3340    0.0208 C   0  0  0  0  0  0  0  0  0  0  0  0
   -0.4009   -1.4089    0.0582 C   0  0  0  0  0  0  0  0  0  0  0  0
    1.3388    0.7625   -0.8523 C   0  0  0  0  0  0  0  0  0  0  0  0
   -0.9633    0.9308   -0.0589 C   0  0  0  0  0  0  0  0  0  0  0  0
   -1.3374   -0.2873   -0.0242 N   0  0  0  0  0  0  0  0  0  0  0  0
    0.2809    1.5036   -0.1553 N   0  0  0  0  0  0  0  0  0  0  0  0
   -2.0515    1.8511    0.1536 N   0  0  0  0  0  0  0  0  0  0  0  0
   -2.2473    3.0382   -0.5404 N   0  0  0  0  0  0  0  0  0  0  0  0
   -3.4120    3.4052   -0.6338 O   0  0  0  0  0  0  0  0  0  0  0  0
   -1.2588    3.6543   -0.9454 O   0  0  0  0  0  0  0  0  0  0  0  0
    0.6663   -0.6137    1.7409 H   0  0  0  0  0  0  0  0  0  0  0  0
    1.3507   -2.1020    1.1132 H   0  0  0  0  0  0  0  0  0  0  0  0
    2.5386   -0.9981   -0.6356 H   0  0  0  0  0  0  0  0  0  0  0  0
    2.6741    0.1131    0.7239 H   0  0  0  0  0  0  0  0  0  0  0  0
   -0.9404   -2.2142    0.5707 H   0  0  0  0  0  0  0  0  0  0  0  0
   -0.1965   -1.7903   -0.9537 H   0  0  0  0  0  0  0  0  0  0  0  0
    0.9376    0.3271   -1.7782 H   0  0  0  0  0  0  0  0  0  0  0  0
    2.1005    1.4898   -1.1474 H   0  0  0  0  0  0  0  0  0  0  0  0
    0.2474    2.5014   -0.3314 H   0  0  0  0  0  0  0  0  0  0  0  0
   -2.9384    1.3673    0.2550 H   0  0  0  0  0  0  0  0  0  0  0  0
  1 13  1  0  0  0  0
  1 12  1  0  0  0  0
  2 15  1  0  0  0  0
  2  1  1  0  0  0  0
  3 16  1  0  0  0  0
  3  1  1  0  0  0  0
  4  7  1  0  0  0  0
  4  2  1  0  0  0  0
  5  6  2  0  0  0  0
  5  8  1  0  0  0  0
  6  3  1  0  0  0  0
  7  5  1  0  0  0  0
  8 21  1  0  0  0  0
  9  8  1  0  0  0  0
 10  9  2  0  0  0  0
 11  9  2  0  0  0  0
 14  2  1  0  0  0  0
 17  3  1  0  0  0  0
 18  4  1  0  0  0  0
 19  4  1  0  0  0  0
 20  7  1  0  0  0  0
M  END
>  <HBA>
3

>  <HBD>
2

>  <TPSA>
82.24

>  <cid>
34366

>  <dipole>
3.74

>  <excitation_energy_1>
3.653

>  <excitation_energy_2>
4.252

>  <excitation_energy_3>
4.596

>  <excitation_energy_4>
5.365

>  <homo_energy>
-6.362

>  <homo_lumo_gap>
4.58

>  <logP>
0.186

>  <lumo_energy>
-1.782

>  <melting_point>
99.66

>  <molecular_refractivity>
48.67

>  <oscillator_strength_1>
0.0116

>  <oscillator_strength_2>
0.0077

>  <oscillator_strength_3>
0.0173

>  <oscillator_strength_4>
0.0585

>  <open_babel_can_smiles>
O=N(=O)NC1=NCCCCN1

>  <mulliken_charges>
21
1   -0.279471
2   -0.251889
3   -0.151268
4   -0.153993
5   0.653967
6   -0.483409
7   -0.607584
8   -0.456204
9   0.621622
10   -0.389623
11   -0.422839
12   0.156692
13   0.140394
14   0.138099
15   0.145604
16   0.15149
17   0.144105
18   0.157256
19   0.156183
20   0.361499
21   0.36937

>  <lowdin_charges>
21
1   -0.292191
2   -0.28642
3   -0.201888
4   -0.197849
5   0.122907
6   -0.261261
7   -0.298771
8   -0.21368
9   0.343195
10   -0.246184
11   -0.273491
12   0.152936
13   0.151778
14   0.147963
15   0.151193
16   0.15331
17   0.142442
18   0.144578
19   0.15993
20   0.291213
21   0.310291

$$$$

