PCCDB-ID:  37192
public computational chemistry database (PCCDB) project, http://pccdb.org

 29 29  0  0  0  0  0  0  0  0999 V2000
    2.2601   -2.4268    0.5959 C   0  0  0  0  0  0  0  0  0  0  0  0
    3.7927   -1.7072   -4.1647 C   0  0  0  0  0  0  0  0  0  0  0  0
    2.4860   -0.6652   -2.4119 C   0  0  0  0  0  0  0  0  0  0  0  0
    3.1679   -0.5630   -3.6332 C   0  0  0  0  0  0  0  0  0  0  0  0
    3.6993   -2.9135   -3.4850 C   0  0  0  0  0  0  0  0  0  0  0  0
    2.3906   -1.8813   -1.7296 C   0  0  0  0  0  0  0  0  0  0  0  0
    2.9913   -3.0262   -2.2760 C   0  0  0  0  0  0  0  0  0  0  0  0
    3.2776    0.7561   -4.3027 C   0  0  0  0  0  0  0  0  0  0  0  0
    2.7577    0.4117   -7.7937 C   0  0  0  0  0  0  0  0  0  0  0  0
    2.1442   -0.4508   -8.5215 N   0  0  0  0  0  0  0  0  0  0  0  0
    3.2749    1.6469   -8.1439 N   0  0  0  0  0  0  0  0  0  0  0  0
    3.2550    1.0327   -5.5527 N   0  0  0  0  0  0  0  0  0  0  0  0
    3.0442    0.0341   -6.4736 N   0  0  0  0  0  0  0  0  0  0  0  0
    4.2679   -4.0908   -3.9140 O   0  0  0  0  0  0  0  0  0  0  0  0
    2.8781   -4.2355   -1.6605 O   0  0  0  0  0  0  0  0  0  0  0  0
    3.3796    1.8488   -3.4773 O   0  0  0  0  0  0  0  0  0  0  0  0
    1.6380   -1.9146   -0.5887 O   0  0  0  0  0  0  0  0  0  0  0  0
    1.5458   -2.2481    1.4022 H   0  0  0  0  0  0  0  0  0  0  0  0
    3.1909   -1.8854    0.8099 H   0  0  0  0  0  0  0  0  0  0  0  0
    2.4681   -3.4962    0.5139 H   0  0  0  0  0  0  0  0  0  0  0  0
    4.3619   -1.6449   -5.0876 H   0  0  0  0  0  0  0  0  0  0  0  0
    1.9796    0.1928   -1.9820 H   0  0  0  0  0  0  0  0  0  0  0  0
    2.0662   -0.1232   -9.4853 H   0  0  0  0  0  0  0  0  0  0  0  0
    2.8103    2.0926   -8.9228 H   0  0  0  0  0  0  0  0  0  0  0  0
    3.4405    2.2579   -7.3501 H   0  0  0  0  0  0  0  0  0  0  0  0
    2.5169   -0.7894   -6.1919 H   0  0  0  0  0  0  0  0  0  0  0  0
    4.5944   -3.9875   -4.8208 H   0  0  0  0  0  0  0  0  0  0  0  0
    3.3391   -4.8855   -2.2203 H   0  0  0  0  0  0  0  0  0  0  0  0
    3.7340    1.5455   -2.6265 H   0  0  0  0  0  0  0  0  0  0  0  0
  1 19  1  0  0  0  0
  1 18  1  0  0  0  0
  2  4  2  0  0  0  0
  2  5  1  0  0  0  0
  3 22  1  0  0  0  0
  3  6  2  0  0  0  0
  4  3  1  0  0  0  0
  5  7  2  0  0  0  0
  6 17  1  0  0  0  0
  7  6  1  0  0  0  0
  7 15  1  0  0  0  0
  8  4  1  0  0  0  0
  8 16  1  0  0  0  0
  9 13  1  0  0  0  0
 10  9  1  0  0  0  0
 11  9  2  0  0  0  0
 11 25  1  0  0  0  0
 12  8  2  0  0  0  0
 13 26  1  0  0  0  0
 13 12  1  0  0  0  0
 14  5  1  0  0  0  0
 16 29  1  0  0  0  0
 17  1  1  0  0  0  0
 20  1  1  0  0  0  0
 21  2  1  0  0  0  0
 23 10  1  0  0  0  0
 24 11  1  0  0  0  0
 27 14  1  0  0  0  0
 28 15  1  0  0  0  0
M  RAD  1  10   2
M  END
>  <HBA>
8

>  <HBD>
5

>  <TPSA>
143.19

>  <cid>
37192

>  <dipole>
3.24

>  <excitation_energy_1>
3.823

>  <excitation_energy_2>
4.29

>  <excitation_energy_3>
4.444

>  <excitation_energy_4>
4.792

>  <homo_energy>
-5.295

>  <homo_lumo_gap>
4.378

>  <logP>
0.816

>  <lumo_energy>
-0.917

>  <melting_point>
279.81

>  <molecular_refractivity>
59.08

>  <oscillator_strength_1>
0.1933

>  <oscillator_strength_2>
0.0233

>  <oscillator_strength_3>
0.0006

>  <oscillator_strength_4>
0.0452

>  <open_babel_can_smiles>
COc1cc(cc(c1O)O)/C(=N\NC(=[NH2])[NH])/O

>  <mulliken_charges>
29
1   -0.220654
2   -0.253112
3   -0.257826
4   0.042137
5   0.317712
6   0.33651
7   0.284404
8   0.43124
9   0.61244
10   -0.668082
11   -0.753815
12   -0.317501
13   -0.462354
14   -0.680824
15   -0.647835
16   -0.594219
17   -0.519518
18   0.164897
19   0.141069
20   0.180774
21   0.167317
22   0.15422
23   0.26786
24   0.320953
25   0.353139
26   0.332798
27   0.426934
28   0.435353
29   0.405984

>  <lowdin_charges>
29
1   -0.275487
2   -0.214229
3   -0.196023
4   -0.054197
5   0.065388
6   0.078464
7   0.058715
8   0.096685
9   0.130373
10   -0.492965
11   -0.499925
12   -0.137481
13   -0.217899
14   -0.393865
15   -0.368498
16   -0.372833
17   -0.213957
18   0.160497
19   0.140941
20   0.156993
21   0.175307
22   0.175992
23   0.247901
24   0.280595
25   0.292092
26   0.278454
27   0.371066
28   0.371436
29   0.356462

$$$$

