PCCDB-ID:  8013
public computational chemistry database (PCCDB) project, http://pccdb.org

 13 12  0  0  0  0  0  0  0  0999 V2000
    1.2606   -0.0607   -0.1900 C   0  0  0  0  0  0  0  0  0  0  0  0
    0.7584   -0.4650   -1.5802 C   0  0  0  0  0  0  0  0  0  0  0  0
    2.7914   -0.0227   -0.1324 C   0  0  0  0  0  0  0  0  0  0  0  0
   -1.0758   -0.4457   -1.7537 S   0  0  0  0  0  0  0  0  0  0  0  0
    3.4731    0.3662    1.5347 S   0  0  0  0  0  0  0  0  0  0  0  0
    0.8882   -0.7655    0.5629 H   0  0  0  0  0  0  0  0  0  0  0  0
    0.8508    0.9225    0.0701 H   0  0  0  0  0  0  0  0  0  0  0  0
    1.1357   -1.4526   -1.8654 H   0  0  0  0  0  0  0  0  0  0  0  0
    1.1070    0.2438   -2.3393 H   0  0  0  0  0  0  0  0  0  0  0  0
    3.1975    0.6871   -0.8606 H   0  0  0  0  0  0  0  0  0  0  0  0
    3.2126   -1.0053   -0.3722 H   0  0  0  0  0  0  0  0  0  0  0  0
   -1.3315   -1.3989   -0.8307 H   0  0  0  0  0  0  0  0  0  0  0  0
    2.9323    1.6000    1.6407 H   0  0  0  0  0  0  0  0  0  0  0  0
  1  3  1  0  0  0  0
  1  7  1  0  0  0  0
  1  6  1  0  0  0  0
  2  1  1  0  0  0  0
  3  5  1  0  0  0  0
  4  2  1  0  0  0  0
  4 12  1  0  0  0  0
  5 13  1  0  0  0  0
  8  2  1  0  0  0  0
  9  2  1  0  0  0  0
 10  3  1  0  0  0  0
 11  3  1  0  0  0  0
M  END
>  <HBA>
2

>  <HBD>
2

>  <TPSA>
77.6

>  <cid>
8013

>  <dipole>
0.67

>  <excitation_energy_1>
5.138

>  <excitation_energy_2>
5.292

>  <excitation_energy_3>
5.76

>  <excitation_energy_4>
5.783

>  <homo_energy>
-6.438

>  <homo_lumo_gap>
6.702

>  <logP>
1.236

>  <lumo_energy>
0.264

>  <melting_point>
15.95

>  <molecular_refractivity>
32.39

>  <oscillator_strength_1>
0.0031

>  <oscillator_strength_2>
0.0056

>  <oscillator_strength_3>
0.0509

>  <oscillator_strength_4>
0.019

>  <open_babel_can_smiles>
SCCCS

>  <mulliken_charges>
13
1   -0.237028
2   -0.419241
3   -0.419101
4   -0.074526
5   -0.074441
6   0.159166
7   0.159133
8   0.178608
9   0.179551
10   0.178567
11   0.179489
12   0.094942
13   0.094879

>  <lowdin_charges>
13
1   -0.285659
2   -0.374205
3   -0.374126
4   -0.080525
5   -0.079382
6   0.156448
7   0.155
8   0.159345
9   0.168433
10   0.160836
11   0.16715
12   0.114158
13   0.112527

$$$$

