PCCDB-ID:  156
public computational chemistry database (PCCDB) project, http://pccdb.org

 18 19  0  0  0  0  0  0  0  0999 V2000
    2.3415   -0.7601   -0.3561 C   0  0  0  0  0  0  0  0  0  0  0  0
    2.4098    0.6847    0.1548 C   0  0  0  0  0  0  0  0  0  0  0  0
   -1.2732   -1.3136    0.1243 C   0  0  0  0  0  0  0  0  0  0  0  0
   -2.3485    0.6823   -0.0545 C   0  0  0  0  0  0  0  0  0  0  0  0
   -0.0303   -0.7416    0.1171 C   0  0  0  0  0  0  0  0  0  0  0  0
    0.0865    0.7135    0.0116 C   0  0  0  0  0  0  0  0  0  0  0  0
   -2.4563   -0.6023    0.0526 N   0  0  0  0  0  0  0  0  0  0  0  0
    1.1763   -1.4169    0.2423 N   0  0  0  0  0  0  0  0  0  0  0  0
    1.1603    1.4231    0.0127 N   0  0  0  0  0  0  0  0  0  0  0  0
   -1.1527    1.3465   -0.0916 N   0  0  0  0  0  0  0  0  0  0  0  0
    3.2403   -1.3127   -0.0634 H   0  0  0  0  0  0  0  0  0  0  0  0
    2.2893   -0.7581   -1.4577 H   0  0  0  0  0  0  0  0  0  0  0  0
    3.1952    1.2191   -0.3944 H   0  0  0  0  0  0  0  0  0  0  0  0
    2.7121    0.6810    1.2126 H   0  0  0  0  0  0  0  0  0  0  0  0
   -1.3814   -2.3940    0.2025 H   0  0  0  0  0  0  0  0  0  0  0  0
   -3.2363    1.3060   -0.1237 H   0  0  0  0  0  0  0  0  0  0  0  0
    1.1144   -2.4151    0.0771 H   0  0  0  0  0  0  0  0  0  0  0  0
   -1.1198    2.3574   -0.1591 H   0  0  0  0  0  0  0  0  0  0  0  0
  1 11  1  0  0  0  0
  1  2  1  0  0  0  0
  1  8  1  0  0  0  0
  2 14  1  0  0  0  0
  3 15  1  0  0  0  0
  4  7  2  0  0  0  0
  5  3  2  0  0  0  0
  5  8  1  0  0  0  0
  6  9  2  0  0  0  0
  6  5  1  0  0  0  0
  7  3  1  0  0  0  0
  9  2  1  0  0  0  0
 10  4  1  0  0  0  0
 10  6  1  0  0  0  0
 12  1  1  0  0  0  0
 13  2  1  0  0  0  0
 16  4  1  0  0  0  0
 17  8  1  0  0  0  0
 18 10  1  0  0  0  0
M  END
>  <HBA>
4

>  <HBD>
2

>  <TPSA>
49.84

>  <cid>
156

>  <dipole>
1.37

>  <excitation_energy_1>
3.93

>  <excitation_energy_2>
4.373

>  <excitation_energy_3>
4.612

>  <excitation_energy_4>
4.863

>  <homo_energy>
-5.001

>  <homo_lumo_gap>
4.446

>  <logP>
0.59

>  <lumo_energy>
-0.555

>  <melting_point>
127.02

>  <molecular_refractivity>
44.4

>  <oscillator_strength_1>
0.1443

>  <oscillator_strength_2>
0.0082

>  <oscillator_strength_3>
0.0007

>  <oscillator_strength_4>
0.0892

>  <open_babel_can_smiles>
C1CN=c2c(N1)cnc[nH]2

>  <mulliken_charges>
18
1   -0.157679
2   -0.132045
3   -0.06236
4   0.234884
5   0.316148
6   0.509731
7   -0.431727
8   -0.654933
9   -0.514522
10   -0.633127
11   0.145824
12   0.142644
13   0.140991
14   0.150068
15   0.129953
16   0.158899
17   0.317701
18   0.33955

>  <lowdin_charges>
18
1   -0.207314
2   -0.201301
3   -0.149755
4   -0.046839
5   0.002866
6   0.07439
7   -0.184192
8   -0.290764
9   -0.269876
10   -0.191513
11   0.152766
12   0.13104
13   0.148666
14   0.144613
15   0.151757
16   0.166
17   0.273086
18   0.29637

$$$$

