PCCDB-ID:  67000
public computational chemistry database (PCCDB) project, http://pccdb.org

 21 21  0  0  0  0  0  0  0  0999 V2000
    1.0830   -0.0628   -0.2804 C   0  0  0  0  0  0  0  0  0  0  0  0
    2.9007   -0.0285    1.5060 C   0  0  0  0  0  0  0  0  0  0  0  0
    2.8857    2.3974   -0.7930 C   0  0  0  0  0  0  0  0  0  0  0  0
    3.2856   -1.2336   -0.6985 C   0  0  0  0  0  0  0  0  0  0  0  0
    4.0383    0.4754   -1.7745 C   0  0  0  0  0  0  0  0  0  0  0  0
    2.6021   -0.0532   -0.0044 C   0  0  0  0  0  0  0  0  0  0  0  0
    4.0748   -0.9444   -1.6642 N   0  0  0  0  0  0  0  0  0  0  0  0
    3.3041    1.0122   -0.7162 N   0  0  0  0  0  0  0  0  0  0  0  0
    1.9688    2.6586   -1.8348 O   0  0  0  0  0  0  0  0  0  0  0  0
    3.0688   -2.4982   -0.3203 O   0  0  0  0  0  0  0  0  0  0  0  0
    4.5422    1.1395   -2.6602 O   0  0  0  0  0  0  0  0  0  0  0  0
    0.6092   -0.9473    0.1627 H   0  0  0  0  0  0  0  0  0  0  0  0
    0.8818   -0.0532   -1.3542 H   0  0  0  0  0  0  0  0  0  0  0  0
    0.6120    0.8214    0.1598 H   0  0  0  0  0  0  0  0  0  0  0  0
    2.4384   -0.8778    2.0248 H   0  0  0  0  0  0  0  0  0  0  0  0
    2.4902    0.8822    1.9548 H   0  0  0  0  0  0  0  0  0  0  0  0
    3.9787   -0.0494    1.6896 H   0  0  0  0  0  0  0  0  0  0  0  0
    3.7926    3.0008   -0.9052 H   0  0  0  0  0  0  0  0  0  0  0  0
    2.3897    2.6691    0.1417 H   0  0  0  0  0  0  0  0  0  0  0  0
    2.4749    2.5612   -2.6601 H   0  0  0  0  0  0  0  0  0  0  0  0
    2.4414   -2.5184    0.4204 H   0  0  0  0  0  0  0  0  0  0  0  0
  1  6  1  0  0  0  0
  1 14  1  0  0  0  0
  1 12  1  0  0  0  0
  2 17  1  0  0  0  0
  2 16  1  0  0  0  0
  2 15  1  0  0  0  0
  3  8  1  0  0  0  0
  3 19  1  0  0  0  0
  4 10  1  0  0  0  0
  4  6  1  0  0  0  0
  5  7  1  0  0  0  0
  5  8  1  0  0  0  0
  6  2  1  0  0  0  0
  7  4  2  0  0  0  0
  8  6  1  0  0  0  0
  9  3  1  0  0  0  0
 10 21  1  0  0  0  0
 11  5  2  0  0  0  0
 13  1  1  0  0  0  0
 18  3  1  0  0  0  0
 20  9  1  0  0  0  0
M  END
>  <HBA>
5

>  <HBD>
2

>  <TPSA>
69.64

>  <cid>
67000

>  <dipole>
6.33

>  <excitation_energy_1>
4.999

>  <excitation_energy_2>
5.403

>  <excitation_energy_3>
5.689

>  <excitation_energy_4>
5.815

>  <homo_energy>
-6.996

>  <homo_lumo_gap>
6.191

>  <logP>
-0.467

>  <lumo_energy>
-0.805

>  <melting_point>
108.59

>  <molecular_refractivity>
44.36

>  <oscillator_strength_1>
0.0034

>  <oscillator_strength_2>
0.0361

>  <oscillator_strength_3>
0.0006

>  <oscillator_strength_4>
0.0042

>  <open_babel_can_smiles>
OCN1C(=O)N=C(C1(C)C)O

>  <mulliken_charges>
21
1   -0.435949
2   -0.448997
3   0.058326
4   0.532985
5   0.705645
6   0.107029
7   -0.483779
8   -0.459404
9   -0.61355
10   -0.576782
11   -0.521776
12   0.133445
13   0.187143
14   0.174229
15   0.135562
16   0.168816
17   0.180286
18   0.169547
19   0.150676
20   0.412651
21   0.423896

>  <lowdin_charges>
21
1   -0.443399
2   -0.445653
3   -0.077801
4   0.142457
5   0.177575
6   0.040695
7   -0.187024
8   -0.141242
9   -0.463723
10   -0.313309
11   -0.288491
12   0.148042
13   0.172728
14   0.168415
15   0.148026
16   0.164795
17   0.167937
18   0.156249
19   0.150471
20   0.354976
21   0.368274

$$$$

