PCCDB-ID:  20576
public computational chemistry database (PCCDB) project, http://pccdb.org

 24 25  0  0  1  0  0  0  0  0999 V2000
    1.1196    0.0262    0.1994 C   0  0  0  0  0  0  0  0  0  0  0  0
    2.6402    0.0357    0.0365 C   0  0  0  0  0  0  0  0  0  0  0  0
    4.5469   -3.2386   -2.0189 C   0  0  0  0  0  0  0  0  0  0  0  0
    3.1062   -3.3914   -1.4278 C   0  0  0  0  0  0  0  0  0  0  0  0
    4.5641   -2.5586    0.2848 C   0  0  0  0  0  0  0  0  0  0  0  0
    4.5165   -0.8278   -1.3229 C   0  0  0  0  0  0  0  0  0  0  0  0
    5.1924   -2.1934   -1.0762 C   0  0  2  0  0  0  0  0  0  0  0  0
    3.1265   -2.3915   -0.2516 C   0  0  1  0  0  0  0  0  0  0  0  0
    3.1190   -1.0275   -0.8456 N   0  0  0  0  0  0  0  0  0  0  0  0
    0.7953    0.8739    0.8145 H   0  0  0  0  0  0  0  0  0  0  0  0
    0.7653   -0.8887    0.6874 H   0  0  0  0  0  0  0  0  0  0  0  0
    0.6331    0.0953   -0.7791 H   0  0  0  0  0  0  0  0  0  0  0  0
    3.1243    0.0085    1.0343 H   0  0  0  0  0  0  0  0  0  0  0  0
    2.9363    0.9881   -0.4201 H   0  0  0  0  0  0  0  0  0  0  0  0
    4.5413   -2.9006   -3.0608 H   0  0  0  0  0  0  0  0  0  0  0  0
    5.0977   -4.1856   -1.9840 H   0  0  0  0  0  0  0  0  0  0  0  0
    2.9226   -4.4130   -1.0748 H   0  0  0  0  0  0  0  0  0  0  0  0
    2.3228   -3.1292   -2.1437 H   0  0  0  0  0  0  0  0  0  0  0  0
    4.8151   -1.8531    1.0850 H   0  0  0  0  0  0  0  0  0  0  0  0
    4.7972   -3.5762    0.6189 H   0  0  0  0  0  0  0  0  0  0  0  0
    4.5341   -0.5314   -2.3800 H   0  0  0  0  0  0  0  0  0  0  0  0
    5.0276   -0.0412   -0.7459 H   0  0  0  0  0  0  0  0  0  0  0  0
    6.2844   -2.1524   -1.1221 H   0  0  0  0  0  0  0  0  0  0  0  0
    2.3098   -2.5187    0.4617 H   0  0  0  0  0  0  0  0  0  0  0  0
  1 11  1  0  0  0  0
  1 10  1  0  0  0  0
  2  1  1  0  0  0  0
  2 13  1  0  0  0  0
  3 16  1  0  0  0  0
  3  4  1  0  0  0  0
  3  7  1  0  0  0  0
  4 17  1  0  0  0  0
  4  8  1  0  0  0  0
  5 20  1  0  0  0  0
  5 19  1  0  0  0  0
  6  7  1  0  0  0  0
  6  9  1  0  0  0  0
  6 22  1  0  0  0  0
  7 23  1  6  0  0  0
  7  5  1  0  0  0  0
  8  5  1  0  0  0  0
  8 24  1  1  0  0  0
  9  8  1  0  0  0  0
  9  2  1  0  0  0  0
 12  1  1  0  0  0  0
 14  2  1  0  0  0  0
 15  3  1  0  0  0  0
 18  4  1  0  0  0  0
 21  6  1  0  0  0  0
M  END
>  <HBA>
1

>  <HBD>
0

>  <TPSA>
3.24

>  <cid>
20576

>  <dipole>
0.81

>  <excitation_energy_1>
4.936

>  <excitation_energy_2>
5.396

>  <excitation_energy_3>
5.437

>  <excitation_energy_4>
5.553

>  <homo_energy>
-5.374

>  <homo_lumo_gap>
7.636

>  <logP>
1.429

>  <lumo_energy>
2.261

>  <melting_point>
19.9

>  <molecular_refractivity>
43.15

>  <oscillator_strength_1>
0.0123

>  <oscillator_strength_2>
0.0157

>  <oscillator_strength_3>
0.0164

>  <oscillator_strength_4>
0.0239

>  <open_babel_can_smiles>
CCN1C[C@H]2C[C@@H]1CC2

>  <mulliken_charges>
24
1   -0.442245
2   -0.114019
3   -0.27107
4   -0.25103
5   -0.275174
6   -0.117698
7   -0.12694
8   0.004816
9   -0.390961
10   0.137273
11   0.14399
12   0.154043
13   0.106047
14   0.137435
15   0.136468
16   0.133188
17   0.127449
18   0.145252
19   0.134718
20   0.131923
21   0.134598
22   0.121612
23   0.119169
24   0.121157

>  <lowdin_charges>
24
1   -0.451095
2   -0.196867
3   -0.283183
4   -0.289179
5   -0.298225
6   -0.203081
7   -0.137946
8   -0.069376
9   -0.202622
10   0.149725
11   0.146584
12   0.153968
13   0.112662
14   0.143328
15   0.143748
16   0.143299
17   0.140224
18   0.152531
19   0.144812
20   0.144041
21   0.137813
22   0.133363
23   0.141578
24   0.143898

$$$$

