PCCDB-ID:  53520
public computational chemistry database (PCCDB) project, http://pccdb.org

 26 27  0  0  0  0  0  0  0  0999 V2000
    1.0313   -0.4515    0.0447 C   0  0  0  0  0  0  0  0  0  0  0  0
    4.7717    0.8006    4.3635 C   0  0  0  0  0  0  0  0  0  0  0  0
    2.5239   -0.0870   -0.0666 C   0  0  0  0  0  0  0  0  0  0  0  0
    1.8433    4.2698   -0.2052 C   0  0  0  0  0  0  0  0  0  0  0  0
    2.2803    5.0804    0.8682 C   0  0  0  0  0  0  0  0  0  0  0  0
    2.0576    2.9082   -0.1832 C   0  0  0  0  0  0  0  0  0  0  0  0
    2.9275    4.5141    1.9435 C   0  0  0  0  0  0  0  0  0  0  0  0
    3.6481    0.4325    2.1166 C   0  0  0  0  0  0  0  0  0  0  0  0
    4.0500    1.3280    3.1477 C   0  0  0  0  0  0  0  0  0  0  0  0
    2.9809    0.8843    1.0003 C   0  0  0  0  0  0  0  0  0  0  0  0
    2.7188    2.2906    0.9120 C   0  0  0  0  0  0  0  0  0  0  0  0
    3.1638    3.1153    1.9947 C   0  0  0  0  0  0  0  0  0  0  0  0
    3.8155    2.6249    3.0918 N   0  0  0  0  0  0  0  0  0  0  0  0
    0.7505   -1.1682   -0.7352 H   0  0  0  0  0  0  0  0  0  0  0  0
    0.3931    0.4321   -0.0592 H   0  0  0  0  0  0  0  0  0  0  0  0
    0.8141   -0.9048    1.0179 H   0  0  0  0  0  0  0  0  0  0  0  0
    5.6883    0.2675    4.0811 H   0  0  0  0  0  0  0  0  0  0  0  0
    4.1454    0.0911    4.9195 H   0  0  0  0  0  0  0  0  0  0  0  0
    5.0343    1.6292    5.0245 H   0  0  0  0  0  0  0  0  0  0  0  0
    2.7276    0.3244   -1.0630 H   0  0  0  0  0  0  0  0  0  0  0  0
    3.1215   -1.0026    0.0141 H   0  0  0  0  0  0  0  0  0  0  0  0
    1.3364    4.7244   -1.0521 H   0  0  0  0  0  0  0  0  0  0  0  0
    2.1054    6.1526    0.8390 H   0  0  0  0  0  0  0  0  0  0  0  0
    1.7176    2.3011   -1.0165 H   0  0  0  0  0  0  0  0  0  0  0  0
    3.2781    5.1092    2.7809 H   0  0  0  0  0  0  0  0  0  0  0  0
    3.8749   -0.6265    2.2204 H   0  0  0  0  0  0  0  0  0  0  0  0
  1 16  1  0  0  0  0
  2 18  1  0  0  0  0
  2 19  1  0  0  0  0
  3 21  1  0  0  0  0
  3  1  1  0  0  0  0
  3 10  1  0  0  0  0
  4  6  2  0  0  0  0
  4  5  1  0  0  0  0
  5  7  2  0  0  0  0
  6 11  1  0  0  0  0
  7 12  1  0  0  0  0
  7 25  1  0  0  0  0
  8 26  1  0  0  0  0
  8  9  2  0  0  0  0
  9  2  1  0  0  0  0
 10  8  1  0  0  0  0
 11 10  2  0  0  0  0
 11 12  1  0  0  0  0
 12 13  2  0  0  0  0
 13  9  1  0  0  0  0
 14  1  1  0  0  0  0
 15  1  1  0  0  0  0
 17  2  1  0  0  0  0
 20  3  1  0  0  0  0
 22  4  1  0  0  0  0
 23  5  1  0  0  0  0
 24  6  1  0  0  0  0
M  END
>  <HBA>
1

>  <HBD>
0

>  <TPSA>
12.89

>  <cid>
53520

>  <dipole>
2.16

>  <excitation_energy_1>
4.356

>  <excitation_energy_2>
4.38

>  <excitation_energy_3>
4.463

>  <excitation_energy_4>
5.166

>  <homo_energy>
-6.076

>  <homo_lumo_gap>
4.904

>  <logP>
3.106

>  <lumo_energy>
-1.173

>  <melting_point>
72.17

>  <molecular_refractivity>
56.48

>  <oscillator_strength_1>
0.002

>  <oscillator_strength_2>
0.055

>  <oscillator_strength_3>
0.031

>  <oscillator_strength_4>
0.0

>  <open_babel_can_smiles>
CCc1cc(C)nc2c1cccc2

>  <mulliken_charges>
26
1   -0.441096
2   -0.523893
3   -0.344326
4   -0.133784
5   -0.135702
6   -0.204024
7   -0.147567
8   -0.247135
9   0.324622
10   0.162992
11   0.101765
12   0.236294
13   -0.556922
14   0.148269
15   0.157336
16   0.153557
17   0.158648
18   0.159913
19   0.176618
20   0.151403
21   0.147833
22   0.129923
23   0.131848
24   0.130907
25   0.141096
26   0.121425

>  <lowdin_charges>
26
1   -0.442401
2   -0.451236
3   -0.273317
4   -0.159359
5   -0.152606
6   -0.164832
7   -0.153584
8   -0.197771
9   0.058181
10   0.024862
11   -0.026246
12   0.042611
13   -0.166051
14   0.153192
15   0.154322
16   0.153232
17   0.160882
18   0.162633
19   0.171461
20   0.151936
21   0.152915
22   0.159184
23   0.157761
24   0.159863
25   0.169093
26   0.155275

$$$$

