PCCDB-ID:  69136
public computational chemistry database (PCCDB) project, http://pccdb.org

 23 23  0  0  1  0  0  0  0  0999 V2000
    2.6033    1.9118   -3.2807 C   0  0  0  0  0  0  0  0  0  0  0  0
    3.0349    0.4935   -2.9412 C   0  0  0  0  0  0  0  0  0  0  0  0
    7.9391    0.3313   -0.2819 C   0  0  0  0  0  0  0  0  0  0  0  0
    6.7945    1.2961    0.1052 C   0  0  0  0  0  0  0  0  0  0  0  0
    7.4385   -1.0495    0.1640 C   0  0  0  0  0  0  0  0  0  0  0  0
    5.4992    0.5067   -0.1567 C   0  0  2  0  0  0  0  0  0  0  0  0
    5.9168   -0.9873    0.0231 C   0  0  0  0  0  0  0  0  0  0  0  0
    4.9731    0.6927   -1.5723 C   0  0  0  0  0  0  0  0  0  0  0  0
    5.1520   -1.9211    0.0530 O   0  0  0  0  0  0  0  0  0  0  0  0
    5.6585    1.0054   -2.5254 O   0  0  0  0  0  0  0  0  0  0  0  0
    3.6552    0.4315   -1.6316 O   0  0  0  0  0  0  0  0  0  0  0  0
    2.0665    1.9175   -4.2364 H   0  0  0  0  0  0  0  0  0  0  0  0
    3.4732    2.5682   -3.3723 H   0  0  0  0  0  0  0  0  0  0  0  0
    1.9360    2.3111   -2.5099 H   0  0  0  0  0  0  0  0  0  0  0  0
    3.7377    0.1034   -3.6812 H   0  0  0  0  0  0  0  0  0  0  0  0
    2.1786   -0.1801   -2.8615 H   0  0  0  0  0  0  0  0  0  0  0  0
    8.8924    0.6092    0.1773 H   0  0  0  0  0  0  0  0  0  0  0  0
    8.0699    0.3501   -1.3685 H   0  0  0  0  0  0  0  0  0  0  0  0
    6.8330    2.2293   -0.4619 H   0  0  0  0  0  0  0  0  0  0  0  0
    6.8530    1.5447    1.1720 H   0  0  0  0  0  0  0  0  0  0  0  0
    7.6574   -1.2332    1.2263 H   0  0  0  0  0  0  0  0  0  0  0  0
    7.8404   -1.8990   -0.3964 H   0  0  0  0  0  0  0  0  0  0  0  0
    4.6846    0.7172    0.5415 H   0  0  0  0  0  0  0  0  0  0  0  0
  1  2  1  0  0  0  0
  1 14  1  0  0  0  0
  2 16  1  0  0  0  0
  2 11  1  0  0  0  0
  3  4  1  0  0  0  0
  3  5  1  0  0  0  0
  3 17  1  0  0  0  0
  4 20  1  0  0  0  0
  5 21  1  0  0  0  0
  6  7  1  0  0  0  0
  6  4  1  0  0  0  0
  6 23  1  1  0  0  0
  7  9  2  0  0  0  0
  7  5  1  0  0  0  0
  8  6  1  0  0  0  0
 10  8  2  0  0  0  0
 11  8  1  0  0  0  0
 12  1  1  0  0  0  0
 13  1  1  0  0  0  0
 15  2  1  0  0  0  0
 18  3  1  0  0  0  0
 19  4  1  0  0  0  0
 22  5  1  0  0  0  0
M  END
>  <HBA>
3

>  <HBD>
0

>  <TPSA>
43.37

>  <cid>
69136

>  <dipole>
1.68

>  <excitation_energy_1>
4.137

>  <excitation_energy_2>
5.459

>  <excitation_energy_3>
6.016

>  <excitation_energy_4>
6.266

>  <homo_energy>
-6.691

>  <homo_lumo_gap>
5.845

>  <logP>
0.919

>  <lumo_energy>
-0.846

>  <melting_point>
28.52

>  <molecular_refractivity>
39.94

>  <oscillator_strength_1>
0.0024

>  <oscillator_strength_2>
0.0112

>  <oscillator_strength_3>
0.0373

>  <oscillator_strength_4>
0.0101

>  <open_babel_can_smiles>
CCOC(=O)[C@@H]1CCCC1=O

>  <mulliken_charges>
23
1   -0.463214
2   -0.04558
3   -0.288062
4   -0.280225
5   -0.35099
6   -0.264321
7   0.442776
8   0.629315
9   -0.427215
10   -0.482048
11   -0.448141
12   0.152173
13   0.175527
14   0.15843
15   0.17135
16   0.160007
17   0.144292
18   0.175505
19   0.163354
20   0.142575
21   0.172981
22   0.177687
23   0.183823

>  <lowdin_charges>
23
1   -0.456153
2   -0.127677
3   -0.28097
4   -0.274844
5   -0.311841
6   -0.19224
7   0.165786
8   0.202766
9   -0.211472
10   -0.275626
11   -0.181779
12   0.159701
13   0.165409
14   0.157774
15   0.160901
16   0.156913
17   0.151084
18   0.15888
19   0.162044
20   0.14641
21   0.169469
22   0.173514
23   0.181952

$$$$

