PCCDB-ID:  12086
public computational chemistry database (PCCDB) project, http://pccdb.org

 21 21  0  0  0  0  0  0  0  0999 V2000
    1.1847    0.5883    0.3964 C   0  0  0  0  0  0  0  0  0  0  0  0
    2.5163   -0.0700   -0.0110 C   0  0  0  0  0  0  0  0  0  0  0  0
    2.6349   -2.4063    0.9703 C   0  0  0  0  0  0  0  0  0  0  0  0
    3.8503   -0.6410    2.0692 C   0  0  0  0  0  0  0  0  0  0  0  0
    3.0633   -3.3088    1.9377 C   0  0  0  0  0  0  0  0  0  0  0  0
    4.2852   -1.5360    3.0427 C   0  0  0  0  0  0  0  0  0  0  0  0
    3.0184   -1.0575    1.0196 C   0  0  0  0  0  0  0  0  0  0  0  0
    3.8925   -2.8803    2.9827 C   0  0  0  0  0  0  0  0  0  0  0  0
    4.3265   -3.8825    3.9873 C   0  0  0  0  0  0  0  0  0  0  0  0
    5.1366   -3.3607    4.9470 O   0  0  0  0  0  0  0  0  0  0  0  0
    4.0108   -5.0565    3.9857 O   0  0  0  0  0  0  0  0  0  0  0  0
    0.8517    1.2975   -0.3697 H   0  0  0  0  0  0  0  0  0  0  0  0
    1.2885    1.1316    1.3421 H   0  0  0  0  0  0  0  0  0  0  0  0
    0.3992   -0.1638    0.5295 H   0  0  0  0  0  0  0  0  0  0  0  0
    3.2709    0.7105   -0.1693 H   0  0  0  0  0  0  0  0  0  0  0  0
    2.3865   -0.5798   -0.9738 H   0  0  0  0  0  0  0  0  0  0  0  0
    1.9959   -2.7505    0.1602 H   0  0  0  0  0  0  0  0  0  0  0  0
    4.1639    0.3993    2.1202 H   0  0  0  0  0  0  0  0  0  0  0  0
    2.7705   -4.3530    1.8992 H   0  0  0  0  0  0  0  0  0  0  0  0
    4.9318   -1.2006    3.8462 H   0  0  0  0  0  0  0  0  0  0  0  0
    5.3495   -4.1049    5.5396 H   0  0  0  0  0  0  0  0  0  0  0  0
  1 14  1  0  0  0  0
  1 13  1  0  0  0  0
  2  1  1  0  0  0  0
  2  7  1  0  0  0  0
  3  7  2  0  0  0  0
  3  5  1  0  0  0  0
  4 18  1  0  0  0  0
  4  6  2  0  0  0  0
  5  8  2  0  0  0  0
  6 20  1  0  0  0  0
  7  4  1  0  0  0  0
  8  6  1  0  0  0  0
  8  9  1  0  0  0  0
  9 10  1  0  0  0  0
 10 21  1  0  0  0  0
 11  9  2  0  0  0  0
 12  1  1  0  0  0  0
 15  2  1  0  0  0  0
 16  2  1  0  0  0  0
 17  3  1  0  0  0  0
 19  5  1  0  0  0  0
M  END
>  <HBA>
2

>  <HBD>
1

>  <TPSA>
37.3

>  <cid>
12086

>  <dipole>
2.33

>  <excitation_energy_1>
4.863

>  <excitation_energy_2>
4.905

>  <excitation_energy_3>
5.177

>  <excitation_energy_4>
6.209

>  <homo_energy>
-6.827

>  <homo_lumo_gap>
5.616

>  <logP>
1.947

>  <lumo_energy>
-1.211

>  <melting_point>
98.82

>  <molecular_refractivity>
43.17

>  <oscillator_strength_1>
0.0164

>  <oscillator_strength_2>
0.0

>  <oscillator_strength_3>
0.3613

>  <oscillator_strength_4>
0.1528

>  <open_babel_can_smiles>
CCc1ccc(cc1)C(=O)O

>  <mulliken_charges>
21
1   -0.43557
2   -0.342594
3   -0.189577
4   -0.188413
5   -0.154305
6   -0.159377
7   0.186167
8   0.068966
9   0.53452
10   -0.584836
11   -0.477222
12   0.148326
13   0.152145
14   0.152824
15   0.147355
16   0.147933
17   0.130925
18   0.129614
19   0.163366
20   0.159156
21   0.410596

>  <lowdin_charges>
21
1   -0.440897
2   -0.272335
3   -0.167399
4   -0.167007
5   -0.125132
6   -0.135926
7   0.017939
8   -0.053964
9   0.193154
10   -0.3638
11   -0.274594
12   0.153087
13   0.152038
14   0.153106
15   0.152021
16   0.151391
17   0.159212
18   0.156546
19   0.175547
20   0.173897
21   0.363116

$$$$

