PCCDB-ID:  18983
public computational chemistry database (PCCDB) project, http://pccdb.org

 21 21  0  0  0  0  0  0  0  0999 V2000
    1.5513    0.1459    0.2087 C   0  0  0  0  0  0  0  0  0  0  0  0
    2.9638   -0.2609   -0.2211 C   0  0  0  0  0  0  0  0  0  0  0  0
    6.9573   -2.5047   -0.1664 C   0  0  0  0  0  0  0  0  0  0  0  0
    7.4523   -1.0736    0.0969 C   0  0  0  0  0  0  0  0  0  0  0  0
    3.7876   -0.7898    0.9590 C   0  0  0  0  0  0  0  0  0  0  0  0
    5.4651   -2.4781    0.1589 C   0  0  0  0  0  0  0  0  0  0  0  0
    6.2186   -0.3030    0.5633 C   0  0  0  0  0  0  0  0  0  0  0  0
    5.1395   -1.1863    0.5715 N   0  0  0  0  0  0  0  0  0  0  0  0
    4.6776   -3.3987    0.0882 O   0  0  0  0  0  0  0  0  0  0  0  0
    6.1550    0.8660    0.8825 O   0  0  0  0  0  0  0  0  0  0  0  0
    0.9770    0.5258   -0.6429 H   0  0  0  0  0  0  0  0  0  0  0  0
    1.5788    0.9346    0.9702 H   0  0  0  0  0  0  0  0  0  0  0  0
    1.0018   -0.7055    0.6280 H   0  0  0  0  0  0  0  0  0  0  0  0
    3.4857    0.5987   -0.6590 H   0  0  0  0  0  0  0  0  0  0  0  0
    2.9127   -1.0387   -0.9929 H   0  0  0  0  0  0  0  0  0  0  0  0
    7.4406   -3.2564    0.4655 H   0  0  0  0  0  0  0  0  0  0  0  0
    7.0868   -2.8290   -1.2035 H   0  0  0  0  0  0  0  0  0  0  0  0
    7.8601   -0.5816   -0.7916 H   0  0  0  0  0  0  0  0  0  0  0  0
    8.2193   -1.0131    0.8753 H   0  0  0  0  0  0  0  0  0  0  0  0
    3.3114   -1.6728    1.3947 H   0  0  0  0  0  0  0  0  0  0  0  0
    3.8904   -0.0210    1.7303 H   0  0  0  0  0  0  0  0  0  0  0  0
  1 13  1  0  0  0  0
  1 12  1  0  0  0  0
  2  1  1  0  0  0  0
  2  5  1  0  0  0  0
  3  4  1  0  0  0  0
  3  6  1  0  0  0  0
  3 16  1  0  0  0  0
  4  7  1  0  0  0  0
  4 19  1  0  0  0  0
  5 20  1  0  0  0  0
  5 21  1  0  0  0  0
  6  8  1  0  0  0  0
  7  8  1  0  0  0  0
  7 10  2  0  0  0  0
  8  5  1  0  0  0  0
  9  6  2  0  0  0  0
 11  1  1  0  0  0  0
 14  2  1  0  0  0  0
 15  2  1  0  0  0  0
 17  3  1  0  0  0  0
 18  4  1  0  0  0  0
M  END
>  <HBA>
3

>  <HBD>
0

>  <TPSA>
37.38

>  <cid>
18983

>  <dipole>
1.32

>  <excitation_energy_1>
4.97

>  <excitation_energy_2>
5.523

>  <excitation_energy_3>
6.422

>  <excitation_energy_4>
6.513

>  <homo_energy>
-7.01

>  <homo_lumo_gap>
6.523

>  <logP>
0.483

>  <lumo_energy>
-0.487

>  <melting_point>
40.77

>  <molecular_refractivity>
40.86

>  <oscillator_strength_1>
0.0011

>  <oscillator_strength_2>
0.0008

>  <oscillator_strength_3>
0.2216

>  <oscillator_strength_4>
0.018

>  <open_babel_can_smiles>
CCCN1C(=O)CCC1=O

>  <mulliken_charges>
21
1   -0.44927
2   -0.260751
3   -0.383766
4   -0.383931
5   -0.143692
6   0.593365
7   0.593354
8   -0.465971
9   -0.483546
10   -0.483828
11   0.151868
12   0.149796
13   0.149863
14   0.155083
15   0.153849
16   0.19047
17   0.189798
18   0.189911
19   0.1904
20   0.173835
21   0.173163

>  <lowdin_charges>
21
1   -0.446031
2   -0.279709
3   -0.307691
4   -0.306967
5   -0.197487
6   0.167596
7   0.16131
8   -0.075636
9   -0.264938
10   -0.262611
11   0.156712
12   0.151153
13   0.151548
14   0.152574
15   0.151706
16   0.179803
17   0.177159
18   0.178871
19   0.179126
20   0.167107
21   0.166404

$$$$

