PCCDB-ID:  55155
public computational chemistry database (PCCDB) project, http://pccdb.org

 34 35  0  0  0  0  0  0  0  0999 V2000
    2.2851   -1.8316   -2.6943 C   0  0  0  0  0  0  0  0  0  0  0  0
    2.3722   -0.6186   -1.7590 C   0  0  0  0  0  0  0  0  0  0  0  0
    3.2146    0.5469   -2.2999 C   0  0  0  0  0  0  0  0  0  0  0  0
   10.5673    1.2315    2.2246 C   0  0  0  0  0  0  0  0  0  0  0  0
   11.0434   -0.0224    1.8258 C   0  0  0  0  0  0  0  0  0  0  0  0
    9.5721    1.8589    1.4800 C   0  0  0  0  0  0  0  0  0  0  0  0
   10.5192   -0.6584    0.7001 C   0  0  0  0  0  0  0  0  0  0  0  0
    4.7124    0.2314   -2.4387 C   0  0  0  0  0  0  0  0  0  0  0  0
    8.0650    1.8738   -0.5427 C   0  0  0  0  0  0  0  0  0  0  0  0
    7.6678   -0.3440   -1.4873 C   0  0  0  0  0  0  0  0  0  0  0  0
    9.0255    1.2391    0.3462 C   0  0  0  0  0  0  0  0  0  0  0  0
    7.4138    1.1524   -1.4817 C   0  0  0  0  0  0  0  0  0  0  0  0
    9.5032   -0.0368   -0.0238 C   0  0  0  0  0  0  0  0  0  0  0  0
    6.5155    1.7944   -2.4871 C   0  0  0  0  0  0  0  0  0  0  0  0
    5.4082    1.3939   -2.9583 N   0  0  0  0  0  0  0  0  0  0  0  0
    6.9670    3.0080   -2.9482 O   0  0  0  0  0  0  0  0  0  0  0  0
    9.0285   -0.6524   -1.1479 O   0  0  0  0  0  0  0  0  0  0  0  0
    1.6189   -2.5986   -2.2830 H   0  0  0  0  0  0  0  0  0  0  0  0
    3.2629   -2.3006   -2.8535 H   0  0  0  0  0  0  0  0  0  0  0  0
    1.8936   -1.5428   -3.6777 H   0  0  0  0  0  0  0  0  0  0  0  0
    2.7693   -0.9369   -0.7838 H   0  0  0  0  0  0  0  0  0  0  0  0
    1.3572   -0.2486   -1.5630 H   0  0  0  0  0  0  0  0  0  0  0  0
    3.1108    1.4133   -1.6342 H   0  0  0  0  0  0  0  0  0  0  0  0
    2.8364    0.8647   -3.2800 H   0  0  0  0  0  0  0  0  0  0  0  0
   10.9788    1.7183    3.1036 H   0  0  0  0  0  0  0  0  0  0  0  0
   11.8251   -0.5132    2.3991 H   0  0  0  0  0  0  0  0  0  0  0  0
    9.2108    2.8438    1.7668 H   0  0  0  0  0  0  0  0  0  0  0  0
   10.8774   -1.6304    0.3764 H   0  0  0  0  0  0  0  0  0  0  0  0
    4.8429   -0.5969   -3.1495 H   0  0  0  0  0  0  0  0  0  0  0  0
    5.0891   -0.1145   -1.4620 H   0  0  0  0  0  0  0  0  0  0  0  0
    7.9033    2.9460   -0.4505 H   0  0  0  0  0  0  0  0  0  0  0  0
    7.5116   -0.7783   -2.4764 H   0  0  0  0  0  0  0  0  0  0  0  0
    7.0068   -0.8636   -0.7756 H   0  0  0  0  0  0  0  0  0  0  0  0
    7.9153    3.0701   -2.7532 H   0  0  0  0  0  0  0  0  0  0  0  0
  1 18  1  0  0  0  0
  1  2  1  0  0  0  0
  2 22  1  0  0  0  0
  2 21  1  0  0  0  0
  3  2  1  0  0  0  0
  3 23  1  0  0  0  0
  4 25  1  0  0  0  0
  5  4  1  0  0  0  0
  5 26  1  0  0  0  0
  6 27  1  0  0  0  0
  6  4  2  0  0  0  0
  7  5  2  0  0  0  0
  8  3  1  0  0  0  0
  8 30  1  0  0  0  0
  9 31  1  0  0  0  0
  9 11  1  0  0  0  0
 10 12  1  0  0  0  0
 10 17  1  0  0  0  0
 10 33  1  0  0  0  0
 11  6  1  0  0  0  0
 12  9  2  0  0  0  0
 13 11  2  0  0  0  0
 13  7  1  0  0  0  0
 14 12  1  0  0  0  0
 15 14  2  0  0  0  0
 15  8  1  0  0  0  0
 16 34  1  0  0  0  0
 16 14  1  0  0  0  0
 17 13  1  0  0  0  0
 19  1  1  0  0  0  0
 20  1  1  0  0  0  0
 24  3  1  0  0  0  0
 28  7  1  0  0  0  0
 29  8  1  0  0  0  0
 32 10  1  0  0  0  0
M  END
>  <HBA>
3

>  <HBD>
1

>  <TPSA>
38.33

>  <cid>
55155

>  <dipole>
3.34

>  <excitation_energy_1>
3.721

>  <excitation_energy_2>
4.042

>  <excitation_energy_3>
4.341

>  <excitation_energy_4>
4.754

>  <homo_energy>
-5.987

>  <homo_lumo_gap>
4.324

>  <logP>
2.77

>  <lumo_energy>
-1.663

>  <melting_point>
104.2

>  <molecular_refractivity>
67.95

>  <oscillator_strength_1>
0.182

>  <oscillator_strength_2>
0.0064

>  <oscillator_strength_3>
0.2317

>  <oscillator_strength_4>
0.0087

>  <open_babel_can_smiles>
CCCC/N=C(\C1=Cc2c(OC1)cccc2)/O

>  <mulliken_charges>
34
1   -0.443996
2   -0.256371
3   -0.243316
4   -0.135222
5   -0.1324
6   -0.200848
7   -0.177583
8   -0.152624
9   -0.191987
10   -0.090679
11   0.119558
12   0.003825
13   0.314237
14   0.438006
15   -0.416504
16   -0.583887
17   -0.523464
18   0.142478
19   0.142116
20   0.145413
21   0.127073
22   0.135818
23   0.136311
24   0.145737
25   0.133949
26   0.138081
27   0.136138
28   0.144967
29   0.143816
30   0.116087
31   0.151552
32   0.175715
33   0.15833
34   0.399676

>  <lowdin_charges>
34
1   -0.448035
2   -0.274227
3   -0.277451
4   -0.173102
5   -0.139586
6   -0.145648
7   -0.181152
8   -0.204287
9   -0.14461
10   -0.121718
11   -0.048819
12   -0.075955
13   0.105137
14   0.118585
15   -0.192388
16   -0.370516
17   -0.199159
18   0.150994
19   0.144474
20   0.147849
21   0.136508
22   0.144124
23   0.14637
24   0.148542
25   0.161695
26   0.163783
27   0.160141
28   0.169827
29   0.145153
30   0.123643
31   0.165848
32   0.167042
33   0.147642
34   0.349296

$$$$

