PCCDB-ID:  14337
public computational chemistry database (PCCDB) project, http://pccdb.org

 35 35  0  0  0  0  0  0  0  0999 V2000
    2.5740    1.6333   -0.0531 C   0  0  0  0  0  0  0  0  0  0  0  0
    7.4152   -2.2687   -1.6058 C   0  0  0  0  0  0  0  0  0  0  0  0
    2.5943    0.1034    0.0078 C   0  0  0  0  0  0  0  0  0  0  0  0
    6.8257   -1.2517   -2.5791 C   0  0  0  0  0  0  0  0  0  0  0  0
   -0.7565   -1.7377   -1.4245 C   0  0  0  0  0  0  0  0  0  0  0  0
   -0.3226   -0.2898   -1.7013 C   0  0  0  0  0  0  0  0  0  0  0  0
    0.4014   -2.5805   -0.8678 C   0  0  0  0  0  0  0  0  0  0  0  0
    0.9158   -0.2321   -2.6143 C   0  0  0  0  0  0  0  0  0  0  0  0
    1.6146   -2.5579   -1.8120 C   0  0  0  0  0  0  0  0  0  0  0  0
    2.1037   -1.1431   -2.2129 C   0  0  0  0  0  0  0  0  0  0  0  0
    4.4021   -0.5992   -1.3971 C   0  0  0  0  0  0  0  0  0  0  0  0
    3.0432   -0.5391   -1.2435 N   0  0  0  0  0  0  0  0  0  0  0  0
    5.1878   -0.1127   -0.5950 O   0  0  0  0  0  0  0  0  0  0  0  0
    5.0260   -1.4706   -2.8849 S   0  0  0  0  0  0  0  0  0  0  0  0
    2.2869    2.0405    0.9238 H   0  0  0  0  0  0  0  0  0  0  0  0
    1.8612    2.0032   -0.7974 H   0  0  0  0  0  0  0  0  0  0  0  0
    3.5688    2.0126   -0.3007 H   0  0  0  0  0  0  0  0  0  0  0  0
    8.4930   -2.0954   -1.4925 H   0  0  0  0  0  0  0  0  0  0  0  0
    7.2687   -3.2941   -1.9607 H   0  0  0  0  0  0  0  0  0  0  0  0
    6.9491   -2.1664   -0.6226 H   0  0  0  0  0  0  0  0  0  0  0  0
    1.6053   -0.2847    0.2477 H   0  0  0  0  0  0  0  0  0  0  0  0
    3.2760   -0.2149    0.8007 H   0  0  0  0  0  0  0  0  0  0  0  0
    7.2796   -1.3336   -3.5721 H   0  0  0  0  0  0  0  0  0  0  0  0
    6.9628   -0.2320   -2.2143 H   0  0  0  0  0  0  0  0  0  0  0  0
   -1.1089   -2.1923   -2.3626 H   0  0  0  0  0  0  0  0  0  0  0  0
   -1.6077   -1.7527   -0.7326 H   0  0  0  0  0  0  0  0  0  0  0  0
   -0.1340    0.2268   -0.7525 H   0  0  0  0  0  0  0  0  0  0  0  0
   -1.1405    0.2605   -2.1837 H   0  0  0  0  0  0  0  0  0  0  0  0
    0.0758   -3.6189   -0.7258 H   0  0  0  0  0  0  0  0  0  0  0  0
    0.6834   -2.2146    0.1282 H   0  0  0  0  0  0  0  0  0  0  0  0
    1.2682    0.7978   -2.7376 H   0  0  0  0  0  0  0  0  0  0  0  0
    0.6034   -0.5688   -3.6128 H   0  0  0  0  0  0  0  0  0  0  0  0
    1.3321   -3.0743   -2.7410 H   0  0  0  0  0  0  0  0  0  0  0  0
    2.4541   -3.1203   -1.3885 H   0  0  0  0  0  0  0  0  0  0  0  0
    2.6940   -1.2603   -3.1242 H   0  0  0  0  0  0  0  0  0  0  0  0
  1  3  1  0  0  0  0
  1 15  1  0  0  0  0
  2 18  1  0  0  0  0
  2 20  1  0  0  0  0
  3 21  1  0  0  0  0
  3 22  1  0  0  0  0
  4 24  1  0  0  0  0
  4  2  1  0  0  0  0
  5  7  1  0  0  0  0
  5 26  1  0  0  0  0
  6  5  1  0  0  0  0
  6 27  1  0  0  0  0
  7 29  1  0  0  0  0
  7 30  1  0  0  0  0
  8 10  1  0  0  0  0
  8  6  1  0  0  0  0
  9 34  1  0  0  0  0
  9  7  1  0  0  0  0
 10  9  1  0  0  0  0
 10 12  1  0  0  0  0
 11 12  1  0  0  0  0
 11 13  2  0  0  0  0
 12  3  1  0  0  0  0
 14  4  1  0  0  0  0
 14 11  1  0  0  0  0
 16  1  1  0  0  0  0
 17  1  1  0  0  0  0
 19  2  1  0  0  0  0
 23  4  1  0  0  0  0
 25  5  1  0  0  0  0
 28  6  1  0  0  0  0
 31  8  1  0  0  0  0
 32  8  1  0  0  0  0
 33  9  1  0  0  0  0
 35 10  1  0  0  0  0
M  END
>  <HBA>
3

>  <HBD>
0

>  <TPSA>
45.61

>  <cid>
14337

>  <dipole>
2.41

>  <excitation_energy_1>
5.6

>  <excitation_energy_2>
5.689

>  <excitation_energy_3>
5.885

>  <excitation_energy_4>
5.909

>  <homo_energy>
-6.251

>  <homo_lumo_gap>
7.159

>  <logP>
3.514

>  <lumo_energy>
0.909

>  <melting_point>
36.03

>  <molecular_refractivity>
63.95

>  <oscillator_strength_1>
0.0057

>  <oscillator_strength_2>
0.0067

>  <oscillator_strength_3>
0.0828

>  <oscillator_strength_4>
0.0011

>  <open_babel_can_smiles>
CCN(C(=O)SCC)C1CCCCC1

>  <mulliken_charges>
35
1   -0.44999
2   -0.436575
3   -0.145865
4   -0.404806
5   -0.259456
6   -0.270757
7   -0.268888
8   -0.276773
9   -0.256
10   -0.009869
11   0.413518
12   -0.407254
13   -0.499643
14   0.065936
15   0.142987
16   0.146968
17   0.179104
18   0.145509
19   0.150972
20   0.177518
21   0.147804
22   0.174876
23   0.166214
24   0.2006
25   0.130083
26   0.134682
27   0.141523
28   0.137314
29   0.137557
30   0.139278
31   0.150576
32   0.141365
33   0.135099
34   0.15334
35   0.173052

>  <lowdin_charges>
35
1   -0.454058
2   -0.443418
3   -0.196531
4   -0.363552
5   -0.278938
6   -0.285367
7   -0.280897
8   -0.284842
9   -0.287661
10   -0.065416
11   0.058585
12   -0.104003
13   -0.313439
14   0.074528
15   0.152686
16   0.148594
17   0.166582
18   0.150286
19   0.151216
20   0.164831
21   0.148219
22   0.166064
23   0.163142
24   0.176889
25   0.13869
26   0.146263
27   0.141681
28   0.14861
29   0.146553
30   0.13989
31   0.152287
32   0.149824
33   0.146418
34   0.156673
35   0.169612

$$$$

