PCCDB-ID:  25827
public computational chemistry database (PCCDB) project, http://pccdb.org

 22 23  0  0  0  0  0  0  0  0999 V2000
   -2.2052    0.6225    0.0870 C   0  0  0  0  0  0  0  0  0  0  0  0
   -1.3445    1.5745   -0.4632 C   0  0  0  0  0  0  0  0  0  0  0  0
   -1.6695   -0.5240    0.6779 C   0  0  0  0  0  0  0  0  0  0  0  0
    0.0361    1.3830   -0.4394 C   0  0  0  0  0  0  0  0  0  0  0  0
   -0.2901   -0.7140    0.7188 C   0  0  0  0  0  0  0  0  0  0  0  0
    3.4644    0.1577   -3.0298 C   0  0  0  0  0  0  0  0  0  0  0  0
    3.5364    1.5623   -2.5711 C   0  0  0  0  0  0  0  0  0  0  0  0
    0.5798    0.2264    0.1439 C   0  0  0  0  0  0  0  0  0  0  0  0
    2.8181    0.1908   -0.6416 C   0  0  0  0  0  0  0  0  0  0  0  0
    1.9605   -0.0154    0.2744 N   0  0  0  0  0  0  0  0  0  0  0  0
    2.5592    0.6304   -1.9577 N   0  0  0  0  0  0  0  0  0  0  0  0
    4.1322   -0.0511   -0.3679 O   0  0  0  0  0  0  0  0  0  0  0  0
   -3.2805    0.7770    0.0639 H   0  0  0  0  0  0  0  0  0  0  0  0
   -1.7497    2.4762   -0.9159 H   0  0  0  0  0  0  0  0  0  0  0  0
   -2.3273   -1.2687    1.1189 H   0  0  0  0  0  0  0  0  0  0  0  0
    0.6982    2.1279   -0.8661 H   0  0  0  0  0  0  0  0  0  0  0  0
    0.1382   -1.5937    1.1902 H   0  0  0  0  0  0  0  0  0  0  0  0
    4.2764   -0.5053   -2.7469 H   0  0  0  0  0  0  0  0  0  0  0  0
    2.9472   -0.0926   -3.9524 H   0  0  0  0  0  0  0  0  0  0  0  0
    3.0778    2.3579   -3.1529 H   0  0  0  0  0  0  0  0  0  0  0  0
    4.3973    1.8494   -1.9735 H   0  0  0  0  0  0  0  0  0  0  0  0
    4.1496   -0.3558    0.5575 H   0  0  0  0  0  0  0  0  0  0  0  0
  1  3  2  0  0  0  0
  2  4  2  0  0  0  0
  2  1  1  0  0  0  0
  3  5  1  0  0  0  0
  3 15  1  0  0  0  0
  4  8  1  0  0  0  0
  5 17  1  0  0  0  0
  6 18  1  0  0  0  0
  6  7  1  0  0  0  0
  6 11  1  0  0  0  0
  7 21  1  0  0  0  0
  7 11  1  0  0  0  0
  8 10  1  0  0  0  0
  8  5  2  0  0  0  0
  9 12  1  0  0  0  0
  9 10  2  0  0  0  0
 11  9  1  0  0  0  0
 12 22  1  0  0  0  0
 13  1  1  0  0  0  0
 14  2  1  0  0  0  0
 16  4  1  0  0  0  0
 19  6  1  0  0  0  0
 20  7  1  0  0  0  0
M  END
>  <HBA>
3

>  <HBD>
1

>  <TPSA>
32.11

>  <cid>
25827

>  <dipole>
2.27

>  <excitation_energy_1>
4.777

>  <excitation_energy_2>
4.93

>  <excitation_energy_3>
5.313

>  <excitation_energy_4>
5.58

>  <homo_energy>
-5.712

>  <homo_lumo_gap>
5.448

>  <logP>
1.545

>  <lumo_energy>
-0.264

>  <melting_point>
79.55

>  <molecular_refractivity>
50.65

>  <oscillator_strength_1>
0.2625

>  <oscillator_strength_2>
0.0027

>  <oscillator_strength_3>
0.0123

>  <oscillator_strength_4>
0.0202

>  <open_babel_can_smiles>
O/C(=N/c1ccccc1)/N1CC1

>  <mulliken_charges>
22
1   -0.129138
2   -0.145872
3   -0.13718
4   -0.126985
5   -0.152444
6   -0.19179
7   -0.198903
8   0.268309
9   0.63783
10   -0.554546
11   -0.41949
12   -0.601096
13   0.121933
14   0.123374
15   0.124223
16   0.128058
17   0.125346
18   0.184327
19   0.173191
20   0.170797
21   0.181927
22   0.418127

>  <lowdin_charges>
22
1   -0.167529
2   -0.157242
3   -0.158553
4   -0.171892
5   -0.169367
6   -0.223093
7   -0.226078
8   0.052676
9   0.169502
10   -0.210698
11   -0.184323
12   -0.376753
13   0.152708
14   0.155008
15   0.156656
16   0.161716
17   0.16002
18   0.169672
19   0.167541
20   0.166775
21   0.167843
22   0.365412

$$$$

