PCCDB-ID:  44005
public computational chemistry database (PCCDB) project, http://pccdb.org

 20 20  0  0  0  0  0  0  0  0999 V2000
    0.8671    0.0613    0.1420 C   0  0  0  0  0  0  0  0  0  0  0  0
    3.4339    2.9826   -3.9807 C   0  0  0  0  0  0  0  0  0  0  0  0
    2.3616    0.0813   -0.0120 C   0  0  0  0  0  0  0  0  0  0  0  0
    4.9202    1.6261   -2.2880 C   0  0  0  0  0  0  0  0  0  0  0  0
    4.5938    0.7266   -1.0650 C   0  0  0  0  0  0  0  0  0  0  0  0
    2.5713    1.5796   -2.0370 C   0  0  0  0  0  0  0  0  0  0  0  0
    3.5667    2.0826   -2.7926 C   0  0  0  0  0  0  0  0  0  0  0  0
    3.0668    0.7370   -0.9503 C   0  0  0  0  0  0  0  0  0  0  0  0
    0.5633    0.4474    1.1253 H   0  0  0  0  0  0  0  0  0  0  0  0
    0.4741   -0.9633    0.0765 H   0  0  0  0  0  0  0  0  0  0  0  0
    0.3590    0.6598   -0.6199 H   0  0  0  0  0  0  0  0  0  0  0  0
    3.8787    2.5262   -4.8765 H   0  0  0  0  0  0  0  0  0  0  0  0
    3.9665    3.9311   -3.8215 H   0  0  0  0  0  0  0  0  0  0  0  0
    2.3872    3.2143   -4.2022 H   0  0  0  0  0  0  0  0  0  0  0  0
    2.9160   -0.5014    0.7252 H   0  0  0  0  0  0  0  0  0  0  0  0
    5.4727    1.0845   -3.0695 H   0  0  0  0  0  0  0  0  0  0  0  0
    5.5505    2.4857   -2.0176 H   0  0  0  0  0  0  0  0  0  0  0  0
    5.0590    1.1092   -0.1494 H   0  0  0  0  0  0  0  0  0  0  0  0
    4.9695   -0.2934   -1.2052 H   0  0  0  0  0  0  0  0  0  0  0  0
    1.5180    1.7770   -2.2124 H   0  0  0  0  0  0  0  0  0  0  0  0
  1  9  1  0  0  0  0
  2 13  1  0  0  0  0
  2  7  1  0  0  0  0
  3  1  1  0  0  0  0
  3 15  1  0  0  0  0
  4 17  1  0  0  0  0
  4  5  1  0  0  0  0
  5  8  1  0  0  0  0
  5 18  1  0  0  0  0
  6  8  1  0  0  0  0
  7  4  1  0  0  0  0
  7  6  2  0  0  0  0
  8  3  2  0  0  0  0
 10  1  1  0  0  0  0
 11  1  1  0  0  0  0
 12  2  1  0  0  0  0
 14  2  1  0  0  0  0
 16  4  1  0  0  0  0
 19  5  1  0  0  0  0
 20  6  1  0  0  0  0
M  END
>  <HBA>
0

>  <HBD>
0

>  <TPSA>
0.0

>  <cid>
44005

>  <dipole>
0.71

>  <excitation_energy_1>
4.963

>  <excitation_energy_2>
5.062

>  <excitation_energy_3>
5.325

>  <excitation_energy_4>
5.454

>  <homo_energy>
-5.276

>  <homo_lumo_gap>
5.233

>  <logP>
2.673

>  <lumo_energy>
-0.044

>  <melting_point>
21.11

>  <molecular_refractivity>
37.51

>  <oscillator_strength_1>
0.0008

>  <oscillator_strength_2>
0.5638

>  <oscillator_strength_3>
0.0

>  <oscillator_strength_4>
0.0049

>  <open_babel_can_smiles>
C/C=C\1/CCC(=C1)C

>  <mulliken_charges>
20
1   -0.482119
2   -0.519597
3   -0.193745
4   -0.334995
5   -0.345083
6   -0.164315
7   0.14613
8   0.156036
9   0.150454
10   0.150428
11   0.149168
12   0.155907
13   0.155928
14   0.15623
15   0.10996
16   0.143386
17   0.143608
18   0.152549
19   0.152759
20   0.117312

>  <lowdin_charges>
20
1   -0.438199
2   -0.440552
3   -0.19689
4   -0.280003
5   -0.276905
6   -0.187201
7   -0.000374
8   -0.016423
9   0.153202
10   0.152688
11   0.153107
12   0.158251
13   0.1577
14   0.157241
15   0.146883
16   0.148797
17   0.1483
18   0.154949
19   0.153849
20   0.15158

$$$$

