PCCDB-ID:  8900
public computational chemistry database (PCCDB) project, http://pccdb.org

 23 22  0  0  0  0  0  0  0  0999 V2000
    0.8935    0.0124   -0.0298 C   0  0  0  0  0  0  0  0  0  0  0  0
    7.2580    0.1167    4.2827 C   0  0  0  0  0  0  0  0  0  0  0  0
    2.4255    0.0197   -0.0149 C   0  0  0  0  0  0  0  0  0  0  0  0
    6.6758    0.0558    2.8668 C   0  0  0  0  0  0  0  0  0  0  0  0
    3.0172    0.0503    1.4004 C   0  0  0  0  0  0  0  0  0  0  0  0
    5.1422    0.0822    2.8406 C   0  0  0  0  0  0  0  0  0  0  0  0
    4.5509    0.0398    1.4257 C   0  0  0  0  0  0  0  0  0  0  0  0
    0.5019   -0.0024   -1.0534 H   0  0  0  0  0  0  0  0  0  0  0  0
    0.4884    0.9014    0.4693 H   0  0  0  0  0  0  0  0  0  0  0  0
    0.4967   -0.8675    0.4917 H   0  0  0  0  0  0  0  0  0  0  0  0
    8.3538    0.0980    4.2672 H   0  0  0  0  0  0  0  0  0  0  0  0
    6.9189   -0.7333    4.8878 H   0  0  0  0  0  0  0  0  0  0  0  0
    6.9477    1.0333    4.7996 H   0  0  0  0  0  0  0  0  0  0  0  0
    2.7933    0.8884   -0.5795 H   0  0  0  0  0  0  0  0  0  0  0  0
    2.8013   -0.8672   -0.5449 H   0  0  0  0  0  0  0  0  0  0  0  0
    7.0302   -0.8553    2.3638 H   0  0  0  0  0  0  0  0  0  0  0  0
    7.0622    0.8982    2.2753 H   0  0  0  0  0  0  0  0  0  0  0  0
    2.6382   -0.8116    1.9699 H   0  0  0  0  0  0  0  0  0  0  0  0
    2.6509    0.9446    1.9266 H   0  0  0  0  0  0  0  0  0  0  0  0
    4.7871    0.9869    3.3565 H   0  0  0  0  0  0  0  0  0  0  0  0
    4.7557   -0.7684    3.4221 H   0  0  0  0  0  0  0  0  0  0  0  0
    4.9292    0.8970    0.8487 H   0  0  0  0  0  0  0  0  0  0  0  0
    4.9159   -0.8589    0.9063 H   0  0  0  0  0  0  0  0  0  0  0  0
  1  3  1  0  0  0  0
  1  9  1  0  0  0  0
  1 10  1  0  0  0  0
  2 13  1  0  0  0  0
  2 12  1  0  0  0  0
  3  5  1  0  0  0  0
  4  2  1  0  0  0  0
  5  7  1  0  0  0  0
  5 19  1  0  0  0  0
  5 18  1  0  0  0  0
  6  4  1  0  0  0  0
  6 20  1  0  0  0  0
  6 21  1  0  0  0  0
  7  6  1  0  0  0  0
  8  1  1  0  0  0  0
 11  2  1  0  0  0  0
 14  3  1  0  0  0  0
 15  3  1  0  0  0  0
 16  4  1  0  0  0  0
 17  4  1  0  0  0  0
 22  7  1  0  0  0  0
 23  7  1  0  0  0  0
M  END
>  <HBA>
0

>  <HBD>
0

>  <TPSA>
0.0

>  <cid>
8900

>  <dipole>
0.05

>  <excitation_energy_1>
8.023

>  <excitation_energy_2>
8.134

>  <excitation_energy_3>
8.151

>  <excitation_energy_4>
8.354

>  <homo_energy>
-8.147

>  <homo_lumo_gap>
10.651

>  <logP>
2.977

>  <lumo_energy>
2.503

>  <melting_point>
-27.23

>  <molecular_refractivity>
35.76

>  <oscillator_strength_1>
0.025

>  <oscillator_strength_2>
0.0001

>  <oscillator_strength_3>
0.0164

>  <oscillator_strength_4>
0.0

>  <open_babel_can_smiles>
CCCCCCC

>  <mulliken_charges>
23
1   -0.441171
2   -0.441317
3   -0.246514
4   -0.246439
5   -0.24559
6   -0.245585
7   -0.252128
8   0.140904
9   0.14077
10   0.140804
11   0.140919
12   0.140824
13   0.140825
14   0.129536
15   0.129479
16   0.129528
17   0.129454
18   0.125837
19   0.125879
20   0.125853
21   0.125876
22   0.126136
23   0.12612

>  <lowdin_charges>
23
1   -0.445086
2   -0.443562
3   -0.273399
4   -0.273461
5   -0.275829
6   -0.275833
7   -0.275843
8   0.147975
9   0.146525
10   0.146577
11   0.146737
12   0.146676
13   0.146253
14   0.139155
15   0.139023
16   0.138878
17   0.139258
18   0.137673
19   0.137507
20   0.137396
21   0.137774
22   0.137938
23   0.137665

$$$$

