PCCDB-ID:  29524
public computational chemistry database (PCCDB) project, http://pccdb.org

 30 30  0  0  1  0  0  0  0  0999 V2000
    1.6445    0.2869   -0.2118 C   0  0  0  0  0  0  0  0  0  0  0  0
    3.2366    2.8227    2.3582 C   0  0  0  0  0  0  0  0  0  0  0  0
    0.9538    1.8035    2.4970 C   0  0  0  0  0  0  0  0  0  0  0  0
    2.9939    0.3439    2.5064 C   0  0  0  0  0  0  0  0  0  0  0  0
    1.0800    5.1560   -1.6988 C   0  0  0  0  0  0  0  0  0  0  0  0
    0.1326    4.2551   -1.2104 C   0  0  0  0  0  0  0  0  0  0  0  0
    2.4366    4.8784   -1.5278 C   0  0  0  0  0  0  0  0  0  0  0  0
    0.5381    3.0915   -0.5547 C   0  0  0  0  0  0  0  0  0  0  0  0
    2.8349    3.7134   -0.8709 C   0  0  0  0  0  0  0  0  0  0  0  0
    2.3731    1.5300    0.3396 C   0  0  1  0  0  0  0  0  0  0  0  0
    1.8983    2.7996   -0.3646 C   0  0  0  0  0  0  0  0  0  0  0  0
    2.3694    1.6264    1.9151 C   0  0  0  0  0  0  0  0  0  0  0  0
    1.6893    0.2803   -1.3060 H   0  0  0  0  0  0  0  0  0  0  0  0
    0.5871    0.2596    0.0721 H   0  0  0  0  0  0  0  0  0  0  0  0
    2.1058   -0.6386    0.1451 H   0  0  0  0  0  0  0  0  0  0  0  0
    3.2835    2.8743    3.4527 H   0  0  0  0  0  0  0  0  0  0  0  0
    2.8355    3.7736    1.9944 H   0  0  0  0  0  0  0  0  0  0  0  0
    4.2653    2.7278    1.9875 H   0  0  0  0  0  0  0  0  0  0  0  0
    1.0018    1.8472    3.5919 H   0  0  0  0  0  0  0  0  0  0  0  0
    0.2931    0.9692    2.2343 H   0  0  0  0  0  0  0  0  0  0  0  0
    0.4875    2.7312    2.1500 H   0  0  0  0  0  0  0  0  0  0  0  0
    3.1276    0.4524    3.5894 H   0  0  0  0  0  0  0  0  0  0  0  0
    3.9803    0.1421    2.0694 H   0  0  0  0  0  0  0  0  0  0  0  0
    2.3658   -0.5380    2.3433 H   0  0  0  0  0  0  0  0  0  0  0  0
    0.7642    6.0601   -2.2126 H   0  0  0  0  0  0  0  0  0  0  0  0
   -0.9277    4.4537   -1.3452 H   0  0  0  0  0  0  0  0  0  0  0  0
    3.1874    5.5650   -1.9108 H   0  0  0  0  0  0  0  0  0  0  0  0
   -0.2184    2.3991   -0.1975 H   0  0  0  0  0  0  0  0  0  0  0  0
    3.8957    3.5052   -0.7498 H   0  0  0  0  0  0  0  0  0  0  0  0
    3.4328    1.4120    0.0700 H   0  0  0  0  0  0  0  0  0  0  0  0
  1 14  1  0  0  0  0
  1 15  1  0  0  0  0
  1 10  1  0  0  0  0
  2 16  1  0  0  0  0
  3 19  1  0  0  0  0
  4 22  1  0  0  0  0
  5  7  2  0  0  0  0
  5  6  1  0  0  0  0
  6  8  2  0  0  0  0
  7  9  1  0  0  0  0
  8 11  1  0  0  0  0
  8 28  1  0  0  0  0
  9 29  1  0  0  0  0
  9 11  2  0  0  0  0
 10 30  1  6  0  0  0
 10 12  1  0  0  0  0
 11 10  1  0  0  0  0
 12  2  1  0  0  0  0
 12  3  1  0  0  0  0
 12  4  1  0  0  0  0
 13  1  1  0  0  0  0
 17  2  1  0  0  0  0
 18  2  1  0  0  0  0
 20  3  1  0  0  0  0
 21  3  1  0  0  0  0
 23  4  1  0  0  0  0
 24  4  1  0  0  0  0
 25  5  1  0  0  0  0
 26  6  1  0  0  0  0
 27  7  1  0  0  0  0
M  END
>  <HBA>
0

>  <HBD>
0

>  <TPSA>
0.0

>  <cid>
29524

>  <dipole>
0.19

>  <excitation_energy_1>
5.292

>  <excitation_energy_2>
5.877

>  <excitation_energy_3>
5.946

>  <excitation_energy_4>
6.161

>  <homo_energy>
-6.4

>  <homo_lumo_gap>
6.512

>  <logP>
3.836

>  <lumo_energy>
0.112

>  <melting_point>
22.52

>  <molecular_refractivity>
55.18

>  <oscillator_strength_1>
0.0005

>  <oscillator_strength_2>
0.0412

>  <oscillator_strength_3>
0.0012

>  <oscillator_strength_4>
0.0031

>  <open_babel_can_smiles>
C[C@H](C(C)(C)C)c1ccccc1

>  <mulliken_charges>
30
1   -0.464507
2   -0.451324
3   -0.456083
4   -0.448214
5   -0.131721
6   -0.13283
7   -0.127043
8   -0.183192
9   -0.188891
10   -0.154099
11   0.168216
12   0.108737
13   0.151042
14   0.145857
15   0.147325
16   0.135332
17   0.156051
18   0.131631
19   0.137735
20   0.136257
21   0.151802
22   0.138757
23   0.136132
24   0.14284
25   0.126401
26   0.126634
27   0.12667
28   0.126565
29   0.1227
30   0.121221

>  <lowdin_charges>
30
1   -0.444152
2   -0.442651
3   -0.448245
4   -0.442266
5   -0.161851
6   -0.155733
7   -0.159173
8   -0.170425
9   -0.166808
10   -0.122538
11   0.000831
12   0.017517
13   0.152895
14   0.145738
15   0.151887
16   0.144048
17   0.155635
18   0.142308
19   0.146318
20   0.145484
21   0.154304
22   0.146254
23   0.144936
24   0.148106
25   0.156412
26   0.154363
27   0.157529
28   0.157448
29   0.151732
30   0.140092

$$$$

