PCCDB-ID:  39035
public computational chemistry database (PCCDB) project, http://pccdb.org

 25 26  0  0  0  0  0  0  0  0999 V2000
    0.9020   -0.0416   -0.0485 C   0  0  0  0  0  0  0  0  0  0  0  0
    3.0402    1.2828   -0.0443 C   0  0  0  0  0  0  0  0  0  0  0  0
    2.3959    0.0932   -0.0467 C   0  0  0  0  0  0  0  0  0  0  0  0
    4.5075    1.4059   -0.0413 C   0  0  0  0  0  0  0  0  0  0  0  0
    5.2850    0.1779   -0.0386 C   0  0  0  0  0  0  0  0  0  0  0  0
    4.6321   -1.0860   -0.0410 C   0  0  0  0  0  0  0  0  0  0  0  0
    3.1831   -1.1746   -0.0471 C   0  0  0  0  0  0  0  0  0  0  0  0
    6.6810    0.2319   -0.0336 C   0  0  0  0  0  0  0  0  0  0  0  0
    5.4040   -2.2543   -0.0379 C   0  0  0  0  0  0  0  0  0  0  0  0
    7.4580   -0.9576   -0.0299 C   0  0  0  0  0  0  0  0  0  0  0  0
    6.8226   -2.1935   -0.0321 C   0  0  0  0  0  0  0  0  0  0  0  0
    5.0490    2.5336   -0.0405 O   0  0  0  0  0  0  0  0  0  0  0  0
    2.5875   -2.2745   -0.0523 O   0  0  0  0  0  0  0  0  0  0  0  0
    7.3773    1.3840   -0.0319 O   0  0  0  0  0  0  0  0  0  0  0  0
    4.8761   -3.4926   -0.0398 O   0  0  0  0  0  0  0  0  0  0  0  0
    8.8068   -0.8831   -0.0244 O   0  0  0  0  0  0  0  0  0  0  0  0
    7.5488   -3.3337   -0.0287 O   0  0  0  0  0  0  0  0  0  0  0  0
    0.4156    0.9372   -0.0538 H   0  0  0  0  0  0  0  0  0  0  0  0
    0.5652   -0.6041    0.8298 H   0  0  0  0  0  0  0  0  0  0  0  0
    0.5679   -0.6129   -0.9221 H   0  0  0  0  0  0  0  0  0  0  0  0
    2.4939    2.2225   -0.0441 H   0  0  0  0  0  0  0  0  0  0  0  0
    6.6933    2.1160   -0.0358 H   0  0  0  0  0  0  0  0  0  0  0  0
    3.8834   -3.3679   -0.0447 H   0  0  0  0  0  0  0  0  0  0  0  0
    9.0398    0.0637   -0.0249 H   0  0  0  0  0  0  0  0  0  0  0  0
    6.9155   -4.0749   -0.0323 H   0  0  0  0  0  0  0  0  0  0  0  0
  1  3  1  0  0  0  0
  1 19  1  0  0  0  0
  2 21  1  0  0  0  0
  2  4  1  0  0  0  0
  3  2  2  0  0  0  0
  4 12  2  0  0  0  0
  4  5  1  0  0  0  0
  5  8  1  0  0  0  0
  6  5  2  0  0  0  0
  6  9  1  0  0  0  0
  7  3  1  0  0  0  0
  7  6  1  0  0  0  0
  8 14  1  0  0  0  0
  8 10  2  0  0  0  0
  9 11  2  0  0  0  0
 10 16  1  0  0  0  0
 11 10  1  0  0  0  0
 11 17  1  0  0  0  0
 13  7  2  0  0  0  0
 15  9  1  0  0  0  0
 18  1  1  0  0  0  0
 20  1  1  0  0  0  0
 22 14  1  0  0  0  0
 23 15  1  0  0  0  0
 24 16  1  0  0  0  0
 25 17  1  0  0  0  0
M  END
>  <HBA>
6

>  <HBD>
4

>  <TPSA>
115.06

>  <cid>
39035

>  <dipole>
1.97

>  <excitation_energy_1>
2.517

>  <excitation_energy_2>
2.647

>  <excitation_energy_3>
3.04

>  <excitation_energy_4>
3.364

>  <homo_energy>
-6.125

>  <homo_lumo_gap>
2.893

>  <logP>
0.834

>  <lumo_energy>
-3.233

>  <melting_point>
273.14

>  <molecular_refractivity>
57.14

>  <oscillator_strength_1>
0.026

>  <oscillator_strength_2>
0.1225

>  <oscillator_strength_3>
0.0

>  <oscillator_strength_4>
0.0

>  <open_babel_can_smiles>
CC1=CC(=O)c2c(C1=O)c(O)c(c(c2O)O)O

>  <mulliken_charges>
25
1   -0.514464
2   -0.234745
3   0.153489
4   0.411142
5   0.003175
6   0.020929
7   0.350545
8   0.247808
9   0.245395
10   0.296384
11   0.294345
12   -0.565524
13   -0.560659
14   -0.682519
15   -0.68169
16   -0.627476
17   -0.629125
18   0.161369
19   0.184305
20   0.184536
21   0.156748
22   0.455001
23   0.455541
24   0.438062
25   0.437426

>  <lowdin_charges>
25
1   -0.435591
2   -0.166595
3   0.009157
4   0.153307
5   -0.098812
6   -0.098809
7   0.151577
8   0.095102
9   0.096456
10   0.070509
11   0.066955
12   -0.298074
13   -0.298049
14   -0.377035
15   -0.374044
16   -0.342194
17   -0.346061
18   0.161794
19   0.177369
20   0.177499
21   0.176922
22   0.378141
23   0.375729
24   0.371283
25   0.373464

$$$$

