PCCDB-ID:  7061
public computational chemistry database (PCCDB) project, http://pccdb.org

 26 26  0  0  0  0  0  0  0  0999 V2000
    3.9748    0.7917    0.8403 C   0  0  0  0  0  0  0  0  0  0  0  0
    3.0660   -2.4675    2.4813 C   0  0  0  0  0  0  0  0  0  0  0  0
    3.9953   -0.4170   -0.1084 C   0  0  0  0  0  0  0  0  0  0  0  0
    3.3880   -2.5837    0.9831 C   0  0  0  0  0  0  0  0  0  0  0  0
    8.5367   -2.5535    1.0433 C   0  0  0  0  0  0  0  0  0  0  0  0
    7.5506   -3.4382    1.4797 C   0  0  0  0  0  0  0  0  0  0  0  0
    8.1317   -1.3606    0.4446 C   0  0  0  0  0  0  0  0  0  0  0  0
    6.1975   -3.1489    1.3224 C   0  0  0  0  0  0  0  0  0  0  0  0
    6.7830   -1.0552    0.2790 C   0  0  0  0  0  0  0  0  0  0  0  0
    5.7711   -1.9505    0.7013 C   0  0  0  0  0  0  0  0  0  0  0  0
    4.4203   -1.6752    0.4959 N   0  0  0  0  0  0  0  0  0  0  0  0
    3.6951    1.7004    0.2932 H   0  0  0  0  0  0  0  0  0  0  0  0
    4.9568    0.9553    1.2949 H   0  0  0  0  0  0  0  0  0  0  0  0
    3.2506    0.6463    1.6488 H   0  0  0  0  0  0  0  0  0  0  0  0
    2.3209   -3.2192    2.7696 H   0  0  0  0  0  0  0  0  0  0  0  0
    2.6610   -1.4790    2.7221 H   0  0  0  0  0  0  0  0  0  0  0  0
    3.9606   -2.6217    3.0928 H   0  0  0  0  0  0  0  0  0  0  0  0
    4.6354   -0.2010   -0.9726 H   0  0  0  0  0  0  0  0  0  0  0  0
    2.9902   -0.5749   -0.5147 H   0  0  0  0  0  0  0  0  0  0  0  0
    2.4802   -2.3851    0.4029 H   0  0  0  0  0  0  0  0  0  0  0  0
    3.6755   -3.6148    0.7437 H   0  0  0  0  0  0  0  0  0  0  0  0
    9.5899   -2.7830    1.1738 H   0  0  0  0  0  0  0  0  0  0  0  0
    7.8311   -4.3734    1.9586 H   0  0  0  0  0  0  0  0  0  0  0  0
    8.8740   -0.6440    0.1009 H   0  0  0  0  0  0  0  0  0  0  0  0
    5.4732   -3.8656    1.6898 H   0  0  0  0  0  0  0  0  0  0  0  0
    6.5233   -0.1103   -0.1824 H   0  0  0  0  0  0  0  0  0  0  0  0
  1 13  1  0  0  0  0
  1 14  1  0  0  0  0
  2 16  1  0  0  0  0
  2 15  1  0  0  0  0
  2 17  1  0  0  0  0
  3 11  1  0  0  0  0
  3  1  1  0  0  0  0
  4  2  1  0  0  0  0
  5 22  1  0  0  0  0
  5  6  2  0  0  0  0
  6 23  1  0  0  0  0
  7  5  1  0  0  0  0
  8  6  1  0  0  0  0
  8 25  1  0  0  0  0
  9  7  2  0  0  0  0
  9 10  1  0  0  0  0
 10  8  2  0  0  0  0
 11 10  1  0  0  0  0
 11  4  1  0  0  0  0
 12  1  1  0  0  0  0
 18  3  1  0  0  0  0
 19  3  1  0  0  0  0
 20  4  1  0  0  0  0
 21  4  1  0  0  0  0
 24  7  1  0  0  0  0
 26  9  1  0  0  0  0
M  END
>  <HBA>
1

>  <HBD>
0

>  <TPSA>
3.24

>  <cid>
7061

>  <dipole>
1.88

>  <excitation_energy_1>
4.414

>  <excitation_energy_2>
4.46

>  <excitation_energy_3>
4.879

>  <excitation_energy_4>
4.905

>  <homo_energy>
-4.914

>  <homo_lumo_gap>
5.263

>  <logP>
2.533

>  <lumo_energy>
0.348

>  <melting_point>
11.33

>  <molecular_refractivity>
50.26

>  <oscillator_strength_1>
0.0356

>  <oscillator_strength_2>
0.067

>  <oscillator_strength_3>
0.0332

>  <oscillator_strength_4>
0.033

>  <open_babel_can_smiles>
CCN(c1ccccc1)CC

>  <mulliken_charges>
26
1   -0.444751
2   -0.444964
3   -0.142412
4   -0.142461
5   -0.138426
6   -0.137776
7   -0.137787
8   -0.195447
9   -0.195397
10   0.366833
11   -0.480151
12   0.14086
13   0.163476
14   0.149653
15   0.140869
16   0.149725
17   0.163564
18   0.152069
19   0.140661
20   0.140645
21   0.152019
22   0.116401
23   0.120458
24   0.120429
25   0.120935
26   0.120974

>  <lowdin_charges>
26
1   -0.459428
2   -0.459909
3   -0.193577
4   -0.193681
5   -0.193042
6   -0.147092
7   -0.148998
8   -0.217183
9   -0.214842
10   0.063927
11   -0.11711
12   0.151187
13   0.157713
14   0.150947
15   0.151716
16   0.150009
17   0.158441
18   0.147553
19   0.146326
20   0.147482
21   0.145913
22   0.151524
23   0.153365
24   0.15469
25   0.15774
26   0.156327

$$$$

