PCCDB-ID:  66338
public computational chemistry database (PCCDB) project, http://pccdb.org

 28 27  0  0  0  0  0  0  0  0999 V2000
    4.5542    2.5440   -1.7479 C   0  0  0  0  0  0  0  0  0  0  0  0
   11.3784   -3.4917    1.1685 C   0  0  0  0  0  0  0  0  0  0  0  0
    4.1366    1.3132   -0.9365 C   0  0  0  0  0  0  0  0  0  0  0  0
   10.9530   -2.1878    0.5095 C   0  0  0  0  0  0  0  0  0  0  0  0
    4.7695    0.0128   -1.4481 C   0  0  0  0  0  0  0  0  0  0  0  0
    4.3434   -1.2210   -0.6447 C   0  0  0  0  0  0  0  0  0  0  0  0
    4.9634   -2.5413   -1.1560 C   0  0  0  0  0  0  0  0  0  0  0  0
    6.4192   -2.5961   -1.0345 C   0  0  0  0  0  0  0  0  0  0  0  0
    7.6235   -2.6384   -0.9109 C   0  0  0  0  0  0  0  0  0  0  0  0
    9.0632   -2.7347   -0.8281 C   0  0  0  0  0  0  0  0  0  0  0  0
    9.7640   -3.2721   -1.6623 O   0  0  0  0  0  0  0  0  0  0  0  0
    9.5199   -2.1458    0.3001 O   0  0  0  0  0  0  0  0  0  0  0  0
    4.0884    3.4562   -1.3584 H   0  0  0  0  0  0  0  0  0  0  0  0
    4.2610    2.4423   -2.8000 H   0  0  0  0  0  0  0  0  0  0  0  0
    5.6414    2.6859   -1.7203 H   0  0  0  0  0  0  0  0  0  0  0  0
   12.4500   -3.4597    1.3966 H   0  0  0  0  0  0  0  0  0  0  0  0
   11.1942   -4.3391    0.5024 H   0  0  0  0  0  0  0  0  0  0  0  0
   10.8314   -3.6494    2.1037 H   0  0  0  0  0  0  0  0  0  0  0  0
    3.0417    1.2156   -0.9544 H   0  0  0  0  0  0  0  0  0  0  0  0
    4.4118    1.4585    0.1178 H   0  0  0  0  0  0  0  0  0  0  0  0
   11.4565   -2.0441   -0.4496 H   0  0  0  0  0  0  0  0  0  0  0  0
   11.1508   -1.3290    1.1556 H   0  0  0  0  0  0  0  0  0  0  0  0
    5.8640    0.1023   -1.4217 H   0  0  0  0  0  0  0  0  0  0  0  0
    4.4992   -0.1332   -2.5048 H   0  0  0  0  0  0  0  0  0  0  0  0
    3.2512   -1.3283   -0.6826 H   0  0  0  0  0  0  0  0  0  0  0  0
    4.6110   -1.0882    0.4114 H   0  0  0  0  0  0  0  0  0  0  0  0
    4.6821   -2.7009   -2.2064 H   0  0  0  0  0  0  0  0  0  0  0  0
    4.5386   -3.3855   -0.5953 H   0  0  0  0  0  0  0  0  0  0  0  0
  1 15  1  0  0  0  0
  1 13  1  0  0  0  0
  1  3  1  0  0  0  0
  2 16  1  0  0  0  0
  2 18  1  0  0  0  0
  3 20  1  0  0  0  0
  4 22  1  0  0  0  0
  4  2  1  0  0  0  0
  5 23  1  0  0  0  0
  5  3  1  0  0  0  0
  5  6  1  0  0  0  0
  6 26  1  0  0  0  0
  7  8  1  0  0  0  0
  7  6  1  0  0  0  0
  7 28  1  0  0  0  0
  8  9  3  0  0  0  0
  9 10  1  0  0  0  0
 10 12  1  0  0  0  0
 11 10  2  0  0  0  0
 12  4  1  0  0  0  0
 14  1  1  0  0  0  0
 17  2  1  0  0  0  0
 19  3  1  0  0  0  0
 21  4  1  0  0  0  0
 24  5  1  0  0  0  0
 25  6  1  0  0  0  0
 27  7  1  0  0  0  0
M  END
>  <HBA>
2

>  <HBD>
0

>  <TPSA>
26.3

>  <cid>
66338

>  <dipole>
2.39

>  <excitation_energy_1>
4.722

>  <excitation_energy_2>
5.554

>  <excitation_energy_3>
5.723

>  <excitation_energy_4>
6.654

>  <homo_energy>
-7.108

>  <homo_lumo_gap>
6.28

>  <logP>
2.133

>  <lumo_energy>
-0.827

>  <melting_point>
0.57

>  <molecular_refractivity>
49.63

>  <oscillator_strength_1>
0.0004

>  <oscillator_strength_2>
0.0006

>  <oscillator_strength_3>
0.1614

>  <oscillator_strength_4>
0.133

>  <open_babel_can_smiles>
CCCCCC#CC(=O)OCC

>  <mulliken_charges>
28
1   -0.442434
2   -0.463453
3   -0.248998
4   -0.039263
5   -0.249315
6   -0.255717
7   -0.408636
8   -0.010383
9   0.167832
10   0.440158
11   -0.467844
12   -0.450151
13   0.143315
14   0.142632
15   0.14532
16   0.150311
17   0.178064
18   0.159151
19   0.130412
20   0.133853
21   0.171209
22   0.154358
23   0.147914
24   0.128328
25   0.139216
26   0.148155
27   0.177197
28   0.178769

>  <lowdin_charges>
28
1   -0.441079
2   -0.453977
3   -0.267844
4   -0.127554
5   -0.274301
6   -0.263187
7   -0.261472
8   -0.01163
9   -0.102261
10   0.208233
11   -0.253253
12   -0.184953
13   0.150562
14   0.145649
15   0.1465
16   0.157352
17   0.166946
18   0.157104
19   0.136336
20   0.139106
21   0.159261
22   0.154084
23   0.146628
24   0.137204
25   0.14367
26   0.147884
27   0.168765
28   0.176229

$$$$

