PCCDB-ID:  14123
public computational chemistry database (PCCDB) project, http://pccdb.org

 24 24  0  0  0  0  0  0  0  0999 V2000
    3.2632   -6.0082   -1.7843 C   0  0  0  0  0  0  0  0  0  0  0  0
    9.1400   -4.2741   -1.0534 C   0  0  0  0  0  0  0  0  0  0  0  0
    7.6277   -5.8467   -0.0488 C   0  0  0  0  0  0  0  0  0  0  0  0
   10.0774   -5.3044   -1.1275 C   0  0  0  0  0  0  0  0  0  0  0  0
    8.6433   -6.7958   -0.1605 C   0  0  0  0  0  0  0  0  0  0  0  0
    3.8393   -4.7279   -1.2541 C   0  0  0  0  0  0  0  0  0  0  0  0
    7.8783   -4.5466   -0.5038 C   0  0  0  0  0  0  0  0  0  0  0  0
    6.8858   -3.4455   -0.3814 C   0  0  0  0  0  0  0  0  0  0  0  0
    2.8046   -3.6281   -0.9851 C   0  0  0  0  0  0  0  0  0  0  0  0
    9.8494   -6.5463   -0.6871 N   0  0  0  0  0  0  0  0  0  0  0  0
    5.1189   -4.6810   -1.0830 N   0  0  0  0  0  0  0  0  0  0  0  0
    5.6175   -3.4728   -0.6027 N   0  0  0  0  0  0  0  0  0  0  0  0
    7.3697   -2.2380   -0.0177 O   0  0  0  0  0  0  0  0  0  0  0  0
    3.2371   -2.4427   -0.5546 O   0  0  0  0  0  0  0  0  0  0  0  0
    1.6305   -3.8658   -1.1744 O   0  0  0  0  0  0  0  0  0  0  0  0
    2.7250   -5.8234   -2.7203 H   0  0  0  0  0  0  0  0  0  0  0  0
    2.5258   -6.4141   -1.0835 H   0  0  0  0  0  0  0  0  0  0  0  0
    4.0600   -6.7354   -1.9526 H   0  0  0  0  0  0  0  0  0  0  0  0
    9.3799   -3.2921   -1.4523 H   0  0  0  0  0  0  0  0  0  0  0  0
    6.6697   -6.1089    0.3804 H   0  0  0  0  0  0  0  0  0  0  0  0
   11.0581   -5.1204   -1.5618 H   0  0  0  0  0  0  0  0  0  0  0  0
    8.4778   -7.8115    0.1929 H   0  0  0  0  0  0  0  0  0  0  0  0
    8.2809   -2.3422    0.3015 H   0  0  0  0  0  0  0  0  0  0  0  0
    4.2292   -2.4854   -0.4679 H   0  0  0  0  0  0  0  0  0  0  0  0
  1  6  1  0  0  0  0
  1 17  1  0  0  0  0
  2  7  1  0  0  0  0
  3 20  1  0  0  0  0
  4  2  2  0  0  0  0
  4 10  1  0  0  0  0
  5  3  1  0  0  0  0
  5 22  1  0  0  0  0
  6 11  2  0  0  0  0
  6  9  1  0  0  0  0
  7  8  1  0  0  0  0
  7  3  2  0  0  0  0
  8 13  1  0  0  0  0
  9 14  1  0  0  0  0
 10  5  2  0  0  0  0
 11 12  1  0  0  0  0
 12  8  2  0  0  0  0
 13 23  1  0  0  0  0
 14 24  1  0  0  0  0
 15  9  2  0  0  0  0
 16  1  1  0  0  0  0
 18  1  1  0  0  0  0
 19  2  1  0  0  0  0
 21  4  1  0  0  0  0
M  END
>  <HBA>
6

>  <HBD>
2

>  <TPSA>
91.65

>  <cid>
14123

>  <dipole>
6.17

>  <excitation_energy_1>
3.253

>  <excitation_energy_2>
4.043

>  <excitation_energy_3>
4.27

>  <excitation_energy_4>
4.334

>  <homo_energy>
-6.74

>  <homo_lumo_gap>
4.283

>  <logP>
0.663

>  <lumo_energy>
-2.457

>  <melting_point>
174.59

>  <molecular_refractivity>
52.3

>  <oscillator_strength_1>
0.0007

>  <oscillator_strength_2>
0.0003

>  <oscillator_strength_3>
0.0127

>  <oscillator_strength_4>
0.0112

>  <open_babel_can_smiles>
O/C(=N/N=C(\C(=O)O)/C)/c1ccncc1

>  <mulliken_charges>
24
1   -0.494469
2   -0.202392
3   -0.131326
4   0.043805
5   0.033393
6   0.244027
7   0.091078
8   0.498781
9   0.584963
10   -0.392187
11   -0.320757
12   -0.389392
13   -0.563051
14   -0.586003
15   -0.455997
16   0.185478
17   0.183935
18   0.164515
19   0.158017
20   0.171571
21   0.157756
22   0.159493
23   0.424086
24   0.434677

>  <lowdin_charges>
24
1   -0.440629
2   -0.182512
3   -0.14547
4   -0.081888
5   -0.081626
6   0.020016
7   -0.018694
8   0.151499
9   0.166402
10   -0.129418
11   -0.1064
12   -0.151238
13   -0.326386
14   -0.350484
15   -0.246455
16   0.178768
17   0.178914
18   0.165327
19   0.170597
20   0.18323
21   0.164947
22   0.165452
23   0.367134
24   0.348915

$$$$

