PCCDB-ID:  25483
public computational chemistry database (PCCDB) project, http://pccdb.org

 26 25  0  0  1  0  0  0  0  0999 V2000
    6.3586    0.7142    2.4822 C   0  0  0  0  0  0  0  0  0  0  0  0
    5.3887   -0.9086   -1.4056 C   0  0  0  0  0  0  0  0  0  0  0  0
    4.6140   -4.7714    0.1246 C   0  0  0  0  0  0  0  0  0  0  0  0
    8.2118    1.2419    0.8145 C   0  0  0  0  0  0  0  0  0  0  0  0
    5.7765   -2.7347    0.3209 C   0  0  0  0  0  0  0  0  0  0  0  0
    6.7983    0.6885    1.0187 C   0  0  1  0  0  0  0  0  0  0  0  0
    5.6388   -1.2338    0.0650 C   0  0  1  0  0  0  0  0  0  0  0  0
    9.1839    0.4412    1.4661 O   0  0  0  0  0  0  0  0  0  0  0  0
    4.5780   -3.3738   -0.0702 O   0  0  0  0  0  0  0  0  0  0  0  0
    6.8637   -0.6578    0.5246 O   0  0  0  0  0  0  0  0  0  0  0  0
    7.1058    0.2096    3.1012 H   0  0  0  0  0  0  0  0  0  0  0  0
    5.3924    0.2166    2.6184 H   0  0  0  0  0  0  0  0  0  0  0  0
    6.2562    1.7477    2.8337 H   0  0  0  0  0  0  0  0  0  0  0  0
    4.4792   -1.4080   -1.7525 H   0  0  0  0  0  0  0  0  0  0  0  0
    6.2327   -1.2520   -2.0147 H   0  0  0  0  0  0  0  0  0  0  0  0
    5.2722    0.1701   -1.5583 H   0  0  0  0  0  0  0  0  0  0  0  0
    3.6498   -5.1684   -0.2035 H   0  0  0  0  0  0  0  0  0  0  0  0
    4.7661   -5.0318    1.1846 H   0  0  0  0  0  0  0  0  0  0  0  0
    5.4157   -5.2443   -0.4651 H   0  0  0  0  0  0  0  0  0  0  0  0
    8.2918    2.2481    1.2391 H   0  0  0  0  0  0  0  0  0  0  0  0
    8.4123    1.3086   -0.2668 H   0  0  0  0  0  0  0  0  0  0  0  0
    5.9826   -2.9029    1.3905 H   0  0  0  0  0  0  0  0  0  0  0  0
    6.6368   -3.1263   -0.2493 H   0  0  0  0  0  0  0  0  0  0  0  0
    6.1010    1.2774    0.4028 H   0  0  0  0  0  0  0  0  0  0  0  0
    4.8002   -0.8645    0.6727 H   0  0  0  0  0  0  0  0  0  0  0  0
    9.0105   -0.4658    1.1625 H   0  0  0  0  0  0  0  0  0  0  0  0
  1 12  1  0  0  0  0
  1 13  1  0  0  0  0
  1 11  1  0  0  0  0
  2  7  1  0  0  0  0
  3 18  1  0  0  0  0
  4  6  1  0  0  0  0
  4 20  1  0  0  0  0
  4  8  1  0  0  0  0
  5 22  1  0  0  0  0
  6 24  1  6  0  0  0
  6  1  1  0  0  0  0
  7  5  1  0  0  0  0
  7 10  1  0  0  0  0
  7 25  1  1  0  0  0
  9  3  1  0  0  0  0
  9  5  1  0  0  0  0
 10  6  1  0  0  0  0
 14  2  1  0  0  0  0
 15  2  1  0  0  0  0
 16  2  1  0  0  0  0
 17  3  1  0  0  0  0
 19  3  1  0  0  0  0
 21  4  1  0  0  0  0
 23  5  1  0  0  0  0
 26  8  1  0  0  0  0
M  END
>  <HBA>
3

>  <HBD>
1

>  <TPSA>
38.69

>  <cid>
25483

>  <dipole>
1.84

>  <excitation_energy_1>
6.464

>  <excitation_energy_2>
6.614

>  <excitation_energy_3>
6.693

>  <excitation_energy_4>
6.869

>  <homo_energy>
-6.852

>  <homo_lumo_gap>
8.966

>  <logP>
0.419

>  <lumo_energy>
2.114

>  <melting_point>
-26.51

>  <molecular_refractivity>
39.09

>  <oscillator_strength_1>
0.0078

>  <oscillator_strength_2>
0.025

>  <oscillator_strength_3>
0.001

>  <oscillator_strength_4>
0.0028

>  <open_babel_can_smiles>
C[C@H](O[C@H](CO)C)COC

>  <mulliken_charges>
26
1   -0.453934
2   -0.453257
3   -0.190731
4   -0.030102
5   -0.019172
6   0.12701
7   0.134631
8   -0.623114
9   -0.466366
10   -0.52615
11   0.167801
12   0.14605
13   0.141567
14   0.167344
15   0.147055
16   0.143097
17   0.159358
18   0.132366
19   0.132511
20   0.139926
21   0.125136
22   0.128369
23   0.122714
24   0.116483
25   0.129665
26   0.401743

>  <lowdin_charges>
26
1   -0.459882
2   -0.457927
3   -0.276465
4   -0.136719
5   -0.136928
6   -0.013702
7   0.000366
8   -0.466101
9   -0.272232
10   -0.285976
11   0.163825
12   0.151141
13   0.152045
14   0.165813
15   0.153405
16   0.148484
17   0.15578
18   0.131547
19   0.134261
20   0.146279
21   0.128847
22   0.13121
23   0.129689
24   0.133057
25   0.136305
26   0.343875

$$$$

