PCCDB-ID:  8494
public computational chemistry database (PCCDB) project, http://pccdb.org

 19 19  0  0  0  0  0  0  0  0999 V2000
    1.8702    0.4522    1.0695 C   0  0  0  0  0  0  0  0  0  0  0  0
    3.4923    3.3820   -1.7887 C   0  0  0  0  0  0  0  0  0  0  0  0
    2.9836    2.4446   -0.8868 C   0  0  0  0  0  0  0  0  0  0  0  0
    4.2298    2.9631   -2.8928 C   0  0  0  0  0  0  0  0  0  0  0  0
    3.9489    0.6469   -2.1859 C   0  0  0  0  0  0  0  0  0  0  0  0
    2.6842    0.0190   -0.1366 C   0  0  0  0  0  0  0  0  0  0  0  0
    3.2067    1.0728   -1.0765 C   0  0  0  0  0  0  0  0  0  0  0  0
    4.4439    1.5953   -3.0695 C   0  0  0  0  0  0  0  0  0  0  0  0
    5.2250    1.1458   -4.2386 N   0  0  0  0  0  0  0  0  0  0  0  0
    2.9167   -1.1590   -0.3483 O   0  0  0  0  0  0  0  0  0  0  0  0
    5.6539    2.0115   -5.0009 O   0  0  0  0  0  0  0  0  0  0  0  0
    5.3986   -0.0625   -4.3784 O   0  0  0  0  0  0  0  0  0  0  0  0
    0.9788    1.0133    0.7646 H   0  0  0  0  0  0  0  0  0  0  0  0
    2.4582    1.1037    1.7274 H   0  0  0  0  0  0  0  0  0  0  0  0
    1.5655   -0.4373    1.6229 H   0  0  0  0  0  0  0  0  0  0  0  0
    3.3139    4.4411   -1.6304 H   0  0  0  0  0  0  0  0  0  0  0  0
    2.4102    2.7905   -0.0327 H   0  0  0  0  0  0  0  0  0  0  0  0
    4.6364    3.6644   -3.6109 H   0  0  0  0  0  0  0  0  0  0  0  0
    4.1279   -0.4096   -2.3424 H   0  0  0  0  0  0  0  0  0  0  0  0
  1 15  1  0  0  0  0
  1 14  1  0  0  0  0
  2 16  1  0  0  0  0
  2  3  2  0  0  0  0
  3 17  1  0  0  0  0
  4  2  1  0  0  0  0
  5  7  2  0  0  0  0
  6  1  1  0  0  0  0
  7  3  1  0  0  0  0
  7  6  1  0  0  0  0
  8  4  2  0  0  0  0
  8  5  1  0  0  0  0
  9  8  1  0  0  0  0
 10  6  2  0  0  0  0
 11  9  2  0  0  0  0
 12  9  2  0  0  0  0
 13  1  1  0  0  0  0
 18  4  1  0  0  0  0
 19  5  1  0  0  0  0
M  END
>  <HBA>
1

>  <HBD>
0

>  <TPSA>
62.89

>  <cid>
8494

>  <dipole>
6.08

>  <excitation_energy_1>
3.625

>  <excitation_energy_2>
3.734

>  <excitation_energy_3>
3.964

>  <excitation_energy_4>
4.266

>  <homo_energy>
-7.26

>  <homo_lumo_gap>
4.64

>  <logP>
2.321

>  <lumo_energy>
-2.62

>  <melting_point>
78.01

>  <molecular_refractivity>
45.46

>  <oscillator_strength_1>
0.0001

>  <oscillator_strength_2>
0.0

>  <oscillator_strength_3>
0.0

>  <oscillator_strength_4>
0.0003

>  <open_babel_can_smiles>
CC(=O)c1cccc(c1)N(=O)=O

>  <mulliken_charges>
19
1   -0.547452
2   -0.141563
3   -0.161991
4   -0.13819
5   -0.183947
6   0.420112
7   0.058216
8   0.274023
9   0.384245
10   -0.436258
11   -0.392211
12   -0.384117
13   0.174717
14   0.175472
15   0.190626
16   0.155369
17   0.150631
18   0.190115
19   0.212203

>  <lowdin_charges>
19
1   -0.477209
2   -0.147117
3   -0.129939
4   -0.125345
5   -0.106769
6   0.162981
7   -0.045464
8   0.002728
9   0.307434
10   -0.225369
11   -0.245004
12   -0.232803
13   0.17245
14   0.173879
15   0.180809
16   0.169329
17   0.170364
18   0.19253
19   0.202515

$$$$

