PCCDB-ID:  15650
public computational chemistry database (PCCDB) project, http://pccdb.org

 17 17  0  0  1  0  0  0  0  0999 V2000
    0.9284   -0.0416    0.0598 C   0  0  0  0  0  0  0  0  0  0  0  0
    3.0204   -1.2823    0.8791 C   0  0  0  0  0  0  0  0  0  0  0  0
    3.0085   -0.8553    2.3570 C   0  0  0  0  0  0  0  0  0  0  0  0
    3.0359    1.1436    0.8751 C   0  0  0  0  0  0  0  0  0  0  0  0
    2.4631   -0.0587    0.0969 C   0  0  2  0  0  0  0  0  0  0  0  0
    3.1529    0.6720    2.3293 C   0  0  0  0  0  0  0  0  0  0  0  0
    3.3324    1.3830    3.2933 O   0  0  0  0  0  0  0  0  0  0  0  0
    0.5379   -0.9240   -0.4606 H   0  0  0  0  0  0  0  0  0  0  0  0
    0.5579    0.8484   -0.4621 H   0  0  0  0  0  0  0  0  0  0  0  0
    0.4957   -0.0330    1.0684 H   0  0  0  0  0  0  0  0  0  0  0  0
    2.4409   -2.1921    0.6897 H   0  0  0  0  0  0  0  0  0  0  0  0
    4.0508   -1.4828    0.5596 H   0  0  0  0  0  0  0  0  0  0  0  0
    3.7946   -1.3049    2.9718 H   0  0  0  0  0  0  0  0  0  0  0  0
    2.0542   -1.0916    2.8468 H   0  0  0  0  0  0  0  0  0  0  0  0
    2.4465    2.0636    0.8067 H   0  0  0  0  0  0  0  0  0  0  0  0
    4.0521    1.3876    0.5323 H   0  0  0  0  0  0  0  0  0  0  0  0
    2.8327   -0.0695   -0.9349 H   0  0  0  0  0  0  0  0  0  0  0  0
  1  5  1  0  0  0  0
  1 10  1  0  0  0  0
  2  3  1  0  0  0  0
  3 14  1  0  0  0  0
  3 13  1  0  0  0  0
  4  6  1  0  0  0  0
  5 17  1  6  0  0  0
  5  4  1  0  0  0  0
  5  2  1  0  0  0  0
  6  3  1  0  0  0  0
  6  7  2  0  0  0  0
  8  1  1  0  0  0  0
  9  1  1  0  0  0  0
 11  2  1  0  0  0  0
 12  2  1  0  0  0  0
 15  4  1  0  0  0  0
 16  4  1  0  0  0  0
M  END
>  <HBA>
1

>  <HBD>
0

>  <TPSA>
17.07

>  <cid>
15650

>  <dipole>
2.94

>  <excitation_energy_1>
4.198

>  <excitation_energy_2>
5.921

>  <excitation_energy_3>
6.57

>  <excitation_energy_4>
6.641

>  <homo_energy>
-6.4

>  <homo_lumo_gap>
6.008

>  <logP>
1.375

>  <lumo_energy>
-0.392

>  <melting_point>
17.41

>  <molecular_refractivity>
29.04

>  <oscillator_strength_1>
0.0002

>  <oscillator_strength_2>
0.0135

>  <oscillator_strength_3>
0.0155

>  <oscillator_strength_4>
0.0058

>  <open_babel_can_smiles>
C[C@@H]1CCC(=O)C1

>  <mulliken_charges>
17
1   -0.448419
2   -0.282835
3   -0.356748
4   -0.353516
5   -0.0961
6   0.443794
7   -0.446833
8   0.146806
9   0.148998
10   0.144789
11   0.142414
12   0.142868
13   0.171904
14   0.174237
15   0.168121
16   0.169673
17   0.130846

>  <lowdin_charges>
17
1   -0.447368
2   -0.283136
3   -0.321474
4   -0.317282
5   -0.12743
6   0.159937
7   -0.231297
8   0.151614
9   0.152781
10   0.147035
11   0.149646
12   0.14573
13   0.171394
14   0.170068
15   0.167599
16   0.169814
17   0.14237

$$$$

