PCCDB-ID:  70713
public computational chemistry database (PCCDB) project, http://pccdb.org

 13 13  0  0  0  0  0  0  0  0999 V2000
    1.0104    0.0263    0.0496 C   0  0  0  0  0  0  0  0  0  0  0  0
    4.5936   -0.7619   -0.0451 C   0  0  0  0  0  0  0  0  0  0  0  0
    4.5606    0.7690   -0.3001 C   0  0  0  0  0  0  0  0  0  0  0  0
    2.4970   -0.0878   -0.0256 C   0  0  0  0  0  0  0  0  0  0  0  0
    3.1836   -1.1517    0.1084 N   0  0  0  0  0  0  0  0  0  0  0  0
    3.1502    1.0926   -0.2645 O   0  0  0  0  0  0  0  0  0  0  0  0
    0.5761   -0.9553    0.2423 H   0  0  0  0  0  0  0  0  0  0  0  0
    0.6123    0.4273   -0.8891 H   0  0  0  0  0  0  0  0  0  0  0  0
    0.7227    0.7193    0.8480 H   0  0  0  0  0  0  0  0  0  0  0  0
    5.1522   -1.0246    0.8609 H   0  0  0  0  0  0  0  0  0  0  0  0
    5.0442   -1.3165   -0.8766 H   0  0  0  0  0  0  0  0  0  0  0  0
    4.9534    1.0608   -1.2790 H   0  0  0  0  0  0  0  0  0  0  0  0
    5.0654    1.3553    0.4738 H   0  0  0  0  0  0  0  0  0  0  0  0
  1  7  1  0  0  0  0
  1  9  1  0  0  0  0
  2  5  1  0  0  0  0
  2 10  1  0  0  0  0
  3  6  1  0  0  0  0
  3  2  1  0  0  0  0
  3 13  1  0  0  0  0
  4  1  1  0  0  0  0
  4  5  2  0  0  0  0
  6  4  1  0  0  0  0
  8  1  1  0  0  0  0
 11  2  1  0  0  0  0
 12  3  1  0  0  0  0
M  END
>  <HBA>
2

>  <HBD>
0

>  <TPSA>
21.59

>  <cid>
70713

>  <dipole>
1.3

>  <excitation_energy_1>
6.077

>  <excitation_energy_2>
6.461

>  <excitation_energy_3>
6.584

>  <excitation_energy_4>
6.732

>  <homo_energy>
-6.544

>  <homo_lumo_gap>
7.391

>  <logP>
-0.129

>  <lumo_energy>
0.846

>  <melting_point>
6.26

>  <molecular_refractivity>
27.32

>  <oscillator_strength_1>
0.0004

>  <oscillator_strength_2>
0.0

>  <oscillator_strength_3>
0.0071

>  <oscillator_strength_4>
0.0905

>  <open_babel_can_smiles>
CC1=NCCO1

>  <mulliken_charges>
13
1   -0.512069
2   -0.182521
3   -0.058388
4   0.516317
5   -0.442925
6   -0.479736
7   0.185539
8   0.175658
9   0.175653
10   0.156372
11   0.156351
12   0.154863
13   0.154886

>  <lowdin_charges>
13
1   -0.444932
2   -0.218988
3   -0.142544
4   0.128171
5   -0.229887
6   -0.223256
7   0.178171
8   0.172961
9   0.173548
10   0.152469
11   0.1531
12   0.149781
13   0.151407

$$$$

