PCCDB-ID:  28500
public computational chemistry database (PCCDB) project, http://pccdb.org

 23 24  0  0  0  0  0  0  0  0999 V2000
    2.0099    0.3353    1.4185 C   0  0  0  0  0  0  0  0  0  0  0  0
    2.6744   -0.1461    0.1140 C   0  0  0  0  0  0  0  0  0  0  0  0
    7.4129   -1.2218    0.6898 C   0  0  0  0  0  0  0  0  0  0  0  0
    8.5206   -0.5190    0.1902 C   0  0  0  0  0  0  0  0  0  0  0  0
    3.4020    0.9555   -0.6004 C   0  0  0  0  0  0  0  0  0  0  0  0
    6.1057   -0.7897    0.4608 C   0  0  0  0  0  0  0  0  0  0  0  0
    8.3356    0.6448   -0.5537 C   0  0  0  0  0  0  0  0  0  0  0  0
    5.9133    0.3742   -0.2927 C   0  0  0  0  0  0  0  0  0  0  0  0
    7.0294    1.0684   -0.7784 C   0  0  0  0  0  0  0  0  0  0  0  0
    4.7260    1.1205   -0.7330 C   0  0  0  0  0  0  0  0  0  0  0  0
    6.5581    2.2566   -1.5135 C   0  0  0  0  0  0  0  0  0  0  0  0
    7.1676    3.1248   -2.0844 O   0  0  0  0  0  0  0  0  0  0  0  0
    5.1744    2.2384   -1.4482 O   0  0  0  0  0  0  0  0  0  0  0  0
    1.4383   -0.4750    1.8849 H   0  0  0  0  0  0  0  0  0  0  0  0
    1.3216    1.1659    1.2257 H   0  0  0  0  0  0  0  0  0  0  0  0
    2.7609    0.6846    2.1350 H   0  0  0  0  0  0  0  0  0  0  0  0
    1.8941   -0.5343   -0.5555 H   0  0  0  0  0  0  0  0  0  0  0  0
    3.3371   -0.9895    0.3261 H   0  0  0  0  0  0  0  0  0  0  0  0
    7.5753   -2.1238    1.2735 H   0  0  0  0  0  0  0  0  0  0  0  0
    9.5236   -0.8847    0.3899 H   0  0  0  0  0  0  0  0  0  0  0  0
    2.7850    1.7303   -1.0521 H   0  0  0  0  0  0  0  0  0  0  0  0
    5.2755   -1.3522    0.8716 H   0  0  0  0  0  0  0  0  0  0  0  0
    9.1713    1.2139   -0.9493 H   0  0  0  0  0  0  0  0  0  0  0  0
  1 14  1  0  0  0  0
  1 16  1  0  0  0  0
  2 18  1  0  0  0  0
  2  1  1  0  0  0  0
  3 19  1  0  0  0  0
  4 20  1  0  0  0  0
  4  3  2  0  0  0  0
  5  2  1  0  0  0  0
  6  3  1  0  0  0  0
  6 22  1  0  0  0  0
  7  4  1  0  0  0  0
  8  6  2  0  0  0  0
  9  7  2  0  0  0  0
  9  8  1  0  0  0  0
 10  5  2  0  0  0  0
 10  8  1  0  0  0  0
 11 13  1  0  0  0  0
 11  9  1  0  0  0  0
 12 11  2  0  0  0  0
 13 10  1  0  0  0  0
 15  1  1  0  0  0  0
 17  2  1  0  0  0  0
 21  5  1  0  0  0  0
 23  7  1  0  0  0  0
M  END
>  <HBA>
2

>  <HBD>
0

>  <TPSA>
26.3

>  <cid>
28500

>  <dipole>
5.08

>  <excitation_energy_1>
4.206

>  <excitation_energy_2>
4.521

>  <excitation_energy_3>
4.623

>  <excitation_energy_4>
5.117

>  <homo_energy>
-6.31

>  <homo_lumo_gap>
4.599

>  <logP>
2.608

>  <lumo_energy>
-1.712

>  <melting_point>
68.22

>  <molecular_refractivity>
50.51

>  <oscillator_strength_1>
0.1833

>  <oscillator_strength_2>
0.0002

>  <oscillator_strength_3>
0.2786

>  <oscillator_strength_4>
0.0738

>  <open_babel_can_smiles>
CC/C=C\1/OC(=O)c2c1cccc2

>  <mulliken_charges>
23
1   -0.439227
2   -0.310226
3   -0.125178
4   -0.132686
5   -0.209229
6   -0.19886
7   -0.170867
8   0.090814
9   0.022265
10   0.352002
11   0.569931
12   -0.458261
13   -0.515044
14   0.148799
15   0.153864
16   0.155371
17   0.156107
18   0.149998
19   0.1434
20   0.144797
21   0.155257
22   0.150877
23   0.166096

>  <lowdin_charges>
23
1   -0.443181
2   -0.269866
3   -0.136501
4   -0.149715
5   -0.170548
6   -0.156931
7   -0.126076
8   -0.007077
9   -0.051725
10   0.084479
11   0.197098
12   -0.228751
13   -0.160189
14   0.153723
15   0.153787
16   0.154586
17   0.157837
18   0.149686
19   0.164827
20   0.16503
21   0.174005
22   0.166592
23   0.178909

$$$$

