PCCDB-ID:  27538
public computational chemistry database (PCCDB) project, http://pccdb.org

 19 20  0  0  0  0  0  0  0  0999 V2000
    0.9248    0.1350   -0.0623 C   0  0  0  0  0  0  0  0  0  0  0  0
    1.5767   -3.4973   -0.0610 C   0  0  0  0  0  0  0  0  0  0  0  0
    2.4258   -0.0300   -0.0620 C   0  0  0  0  0  0  0  0  0  0  0  0
    2.8081   -2.6591   -0.0611 C   0  0  0  0  0  0  0  0  0  0  0  0
    3.0957   -1.3039   -0.0621 C   0  0  0  0  0  0  0  0  0  0  0  0
    4.5199   -1.2832   -0.0618 C   0  0  0  0  0  0  0  0  0  0  0  0
    5.1789   -0.0076   -0.0622 C   0  0  0  0  0  0  0  0  0  0  0  0
    3.1208    1.0825   -0.0617 N   0  0  0  0  0  0  0  0  0  0  0  0
    4.4999    1.1003   -0.0619 N   0  0  0  0  0  0  0  0  0  0  0  0
    5.0681   -2.4829   -0.0608 N   0  0  0  0  0  0  0  0  0  0  0  0
    6.5264    0.0717   -0.0617 O   0  0  0  0  0  0  0  0  0  0  0  0
    3.9691   -3.3432   -0.0604 O   0  0  0  0  0  0  0  0  0  0  0  0
    0.3970   -0.8210   -0.0631 H   0  0  0  0  0  0  0  0  0  0  0  0
    0.6093    0.7028   -0.9434 H   0  0  0  0  0  0  0  0  0  0  0  0
    0.6088    0.7015    0.8195 H   0  0  0  0  0  0  0  0  0  0  0  0
    0.6806   -2.8765   -0.0600 H   0  0  0  0  0  0  0  0  0  0  0  0
    1.5525   -4.1449    0.8228 H   0  0  0  0  0  0  0  0  0  0  0  0
    1.5515   -4.1437   -0.9456 H   0  0  0  0  0  0  0  0  0  0  0  0
    6.8877   -0.8314   -0.0673 H   0  0  0  0  0  0  0  0  0  0  0  0
  1  3  1  0  0  0  0
  1 15  1  0  0  0  0
  2 16  1  0  0  0  0
  2 17  1  0  0  0  0
  3  8  2  0  0  0  0
  4  2  1  0  0  0  0
  4 12  1  0  0  0  0
  5  3  1  0  0  0  0
  5  6  1  0  0  0  0
  5  4  2  0  0  0  0
  6 10  2  0  0  0  0
  7  9  2  0  0  0  0
  7  6  1  0  0  0  0
  7 11  1  0  0  0  0
  9  8  1  0  0  0  0
 10 12  1  0  0  0  0
 13  1  1  0  0  0  0
 14  1  1  0  0  0  0
 18  2  1  0  0  0  0
 19 11  1  0  0  0  0
M  END
>  <HBA>
4

>  <HBD>
1

>  <TPSA>
71.78

>  <cid>
27538

>  <dipole>
5.76

>  <excitation_energy_1>
3.275

>  <excitation_energy_2>
3.915

>  <excitation_energy_3>
4.687

>  <excitation_energy_4>
5.186

>  <homo_energy>
-6.449

>  <homo_lumo_gap>
4.289

>  <logP>
0.528

>  <lumo_energy>
-2.161

>  <melting_point>
170.29

>  <molecular_refractivity>
42.36

>  <oscillator_strength_1>
0.0

>  <oscillator_strength_2>
0.1286

>  <oscillator_strength_3>
0.0052

>  <oscillator_strength_4>
0.0004

>  <open_babel_can_smiles>
Oc1nnc(c2c1noc2C)C

>  <mulliken_charges>
19
1   -0.508145
2   -0.533613
3   0.274135
4   0.358557
5   -0.020975
6   0.271143
7   0.538914
8   -0.337376
9   -0.339675
10   -0.300892
11   -0.596301
12   -0.347746
13   0.146375
14   0.188642
15   0.188629
16   0.190271
17   0.197572
18   0.197571
19   0.432914

>  <lowdin_charges>
19
1   -0.444391
2   -0.443357
3   0.040629
4   0.110967
5   -0.088444
6   -0.023112
7   0.118868
8   -0.110011
9   -0.118381
10   -0.095885
11   -0.333189
12   -0.040474
13   0.150892
14   0.179183
15   0.179172
16   0.177523
17   0.184456
18   0.184445
19   0.37111

$$$$

