PCCDB-ID:  14477
public computational chemistry database (PCCDB) project, http://pccdb.org

 29 28  0  0  0  0  0  0  0  0999 V2000
    2.3650    1.5906    8.5524 C   0  0  0  0  0  0  0  0  0  0  0  0
    5.8910    2.5495    7.0447 C   0  0  0  0  0  0  0  0  0  0  0  0
    5.4741    0.1168    6.5630 C   0  0  0  0  0  0  0  0  0  0  0  0
    6.4376    1.6082    4.7926 C   0  0  0  0  0  0  0  0  0  0  0  0
    1.7553    2.1041    5.0865 C   0  0  0  0  0  0  0  0  0  0  0  0
    2.9131    3.7263    6.5779 C   0  0  0  0  0  0  0  0  0  0  0  0
    2.5748    1.2946    7.2679 C   0  0  0  0  0  0  0  0  0  0  0  0
    5.4433    1.5465    5.9708 C   0  0  0  0  0  0  0  0  0  0  0  0
    2.8913    2.2533    6.1268 C   0  0  0  0  0  0  0  0  0  0  0  0
    4.1340    1.9220    5.3774 N   0  0  0  0  0  0  0  0  0  0  0  0
    2.1268    0.8166    9.2775 H   0  0  0  0  0  0  0  0  0  0  0  0
    2.4197    2.6060    8.9350 H   0  0  0  0  0  0  0  0  0  0  0  0
    6.9148    2.3162    7.3588 H   0  0  0  0  0  0  0  0  0  0  0  0
    5.2550    2.5015    7.9333 H   0  0  0  0  0  0  0  0  0  0  0  0
    5.8798    3.5724    6.6554 H   0  0  0  0  0  0  0  0  0  0  0  0
    6.4928   -0.1575    6.8647 H   0  0  0  0  0  0  0  0  0  0  0  0
    5.1413   -0.6190    5.8191 H   0  0  0  0  0  0  0  0  0  0  0  0
    4.8302    0.0306    7.4418 H   0  0  0  0  0  0  0  0  0  0  0  0
    7.4478    1.3319    5.1165 H   0  0  0  0  0  0  0  0  0  0  0  0
    6.4654    2.6166    4.3683 H   0  0  0  0  0  0  0  0  0  0  0  0
    6.1440    0.9143    3.9939 H   0  0  0  0  0  0  0  0  0  0  0  0
    0.7951    2.4077    5.5143 H   0  0  0  0  0  0  0  0  0  0  0  0
    1.6590    1.0628    4.7526 H   0  0  0  0  0  0  0  0  0  0  0  0
    1.9672    2.7279    4.2110 H   0  0  0  0  0  0  0  0  0  0  0  0
    1.9278    4.0289    6.9497 H   0  0  0  0  0  0  0  0  0  0  0  0
    3.1722    4.3566    5.7223 H   0  0  0  0  0  0  0  0  0  0  0  0
    3.6403    3.9172    7.3697 H   0  0  0  0  0  0  0  0  0  0  0  0
    2.4930    0.2519    6.9552 H   0  0  0  0  0  0  0  0  0  0  0  0
    3.9079    1.2112    4.6849 H   0  0  0  0  0  0  0  0  0  0  0  0
  1 12  1  0  0  0  0
  1 11  1  0  0  0  0
  2 13  1  0  0  0  0
  2 14  1  0  0  0  0
  3 16  1  0  0  0  0
  3 18  1  0  0  0  0
  4 19  1  0  0  0  0
  4  8  1  0  0  0  0
  5 22  1  0  0  0  0
  5  9  1  0  0  0  0
  6 25  1  0  0  0  0
  6 27  1  0  0  0  0
  7  1  2  0  0  0  0
  8  3  1  0  0  0  0
  8  2  1  0  0  0  0
  9  6  1  0  0  0  0
  9  7  1  0  0  0  0
 10  8  1  0  0  0  0
 10  9  1  0  0  0  0
 15  2  1  0  0  0  0
 17  3  1  0  0  0  0
 20  4  1  0  0  0  0
 21  4  1  0  0  0  0
 23  5  1  0  0  0  0
 24  5  1  0  0  0  0
 26  6  1  0  0  0  0
 28  7  1  0  0  0  0
 29 10  1  0  0  0  0
M  END
>  <HBA>
1

>  <HBD>
1

>  <TPSA>
12.03

>  <cid>
14477

>  <dipole>
0.64

>  <excitation_energy_1>
5.08

>  <excitation_energy_2>
5.23

>  <excitation_energy_3>
5.743

>  <excitation_energy_4>
5.837

>  <homo_energy>
-5.636

>  <homo_lumo_gap>
6.207

>  <logP>
2.73

>  <lumo_energy>
0.571

>  <melting_point>
0.07

>  <molecular_refractivity>
47.78

>  <oscillator_strength_1>
0.0342

>  <oscillator_strength_2>
0.0252

>  <oscillator_strength_3>
0.0016

>  <oscillator_strength_4>
0.0015

>  <open_babel_can_smiles>
C=CC(NC(C)(C)C)(C)C

>  <mulliken_charges>
29
1   -0.354774
2   -0.452851
3   -0.447803
4   -0.431921
5   -0.468049
6   -0.45026
7   -0.040251
8   0.220936
9   0.18751
10   -0.582306
11   0.13708
12   0.139891
13   0.136865
14   0.152588
15   0.149296
16   0.133787
17   0.123984
18   0.153091
19   0.134036
20   0.150722
21   0.127948
22   0.153645
23   0.134239
24   0.156113
25   0.13713
26   0.150341
27   0.147869
28   0.116465
29   0.284678

>  <lowdin_charges>
29
1   -0.354444
2   -0.446352
3   -0.462931
4   -0.442705
5   -0.442142
6   -0.450048
7   -0.152721
8   0.076017
9   0.072211
10   -0.363198
11   0.159152
12   0.156779
13   0.148923
14   0.153573
15   0.152039
16   0.145767
17   0.140904
18   0.156347
19   0.144702
20   0.153151
21   0.142814
22   0.156328
23   0.142592
24   0.156129
25   0.147616
26   0.157536
27   0.153902
28   0.146589
29   0.251469

$$$$

