PCCDB-ID:  19304
public computational chemistry database (PCCDB) project, http://pccdb.org

 28 28  0  0  0  0  0  0  0  0999 V2000
    1.2571   -0.6005   -1.3174 C   0  0  0  0  0  0  0  0  0  0  0  0
    4.5973   -1.9364   -0.0337 C   0  0  0  0  0  0  0  0  0  0  0  0
    5.2359   -0.7706    0.4014 C   0  0  0  0  0  0  0  0  0  0  0  0
    3.3190   -1.8709   -0.5865 C   0  0  0  0  0  0  0  0  0  0  0  0
    4.5850    0.4509    0.2856 C   0  0  0  0  0  0  0  0  0  0  0  0
    1.8882    4.6009    1.2600 C   0  0  0  0  0  0  0  0  0  0  0  0
    2.2737    3.9480   -0.0725 C   0  0  0  0  0  0  0  0  0  0  0  0
    4.0025    5.9312    1.4914 C   0  0  0  0  0  0  0  0  0  0  0  0
    2.7269    5.3949    3.4784 C   0  0  0  0  0  0  0  0  0  0  0  0
    2.6427   -0.6522   -0.7197 C   0  0  0  0  0  0  0  0  0  0  0  0
    3.1311    4.9345    2.1395 C   0  0  0  0  0  0  0  0  0  0  0  0
    3.2948    0.5131   -0.2636 C   0  0  0  0  0  0  0  0  0  0  0  0
    4.6749    6.7014    0.9438 N   0  0  0  0  0  0  0  0  0  0  0  0
    2.3783    5.7331    4.5316 N   0  0  0  0  0  0  0  0  0  0  0  0
    3.0392    2.7223    0.1785 N   0  0  0  0  0  0  0  0  0  0  0  0
    2.5791    1.7330   -0.4345 N   0  0  0  0  0  0  0  0  0  0  0  0
    0.9830   -1.5728   -1.7378 H   0  0  0  0  0  0  0  0  0  0  0  0
    1.1890    0.1547   -2.1060 H   0  0  0  0  0  0  0  0  0  0  0  0
    0.5051   -0.3357   -0.5648 H   0  0  0  0  0  0  0  0  0  0  0  0
    5.1005   -2.8960    0.0489 H   0  0  0  0  0  0  0  0  0  0  0  0
    6.2369   -0.8172    0.8209 H   0  0  0  0  0  0  0  0  0  0  0  0
    2.8338   -2.7815   -0.9288 H   0  0  0  0  0  0  0  0  0  0  0  0
    5.0591    1.3734    0.6022 H   0  0  0  0  0  0  0  0  0  0  0  0
    1.2512    3.9218    1.8363 H   0  0  0  0  0  0  0  0  0  0  0  0
    1.3179    5.5165    1.0759 H   0  0  0  0  0  0  0  0  0  0  0  0
    2.9261    4.6246   -0.6415 H   0  0  0  0  0  0  0  0  0  0  0  0
    1.3794    3.7378   -0.6715 H   0  0  0  0  0  0  0  0  0  0  0  0
    3.7139    4.0106    2.2524 H   0  0  0  0  0  0  0  0  0  0  0  0
  1 10  1  0  0  0  0
  1 19  1  0  0  0  0
  2 20  1  0  0  0  0
  2  3  2  0  0  0  0
  3 21  1  0  0  0  0
  4  2  1  0  0  0  0
  5  3  1  0  0  0  0
  5 23  1  0  0  0  0
  6 24  1  0  0  0  0
  6 11  1  0  0  0  0
  7 15  1  0  0  0  0
  7  6  1  0  0  0  0
  8 11  1  0  0  0  0
  9 14  3  0  0  0  0
 10  4  2  0  0  0  0
 10 12  1  0  0  0  0
 11 28  1  0  0  0  0
 11  9  1  0  0  0  0
 12  5  2  0  0  0  0
 13  8  3  0  0  0  0
 16 12  1  0  0  0  0
 16 15  1  0  0  0  0
 17  1  1  0  0  0  0
 18  1  1  0  0  0  0
 22  4  1  0  0  0  0
 25  6  1  0  0  0  0
 26  7  1  0  0  0  0
 27  7  1  0  0  0  0
M  RAD  2  15   2  16   2
M  END
>  <HBA>
4

>  <HBD>
0

>  <TPSA>
72.3

>  <cid>
19304

>  <dipole>
5.49

>  <excitation_energy_1>
2.9

>  <excitation_energy_2>
3.994

>  <excitation_energy_3>
4.306

>  <excitation_energy_4>
5.352

>  <homo_energy>
-6.593

>  <homo_lumo_gap>
4.348

>  <logP>
3.132

>  <lumo_energy>
-2.245

>  <melting_point>
96.2

>  <molecular_refractivity>
60.51

>  <oscillator_strength_1>
0.0016

>  <oscillator_strength_2>
0.0549

>  <oscillator_strength_3>
0.3462

>  <oscillator_strength_4>
0.0073

>  <open_babel_can_smiles>
N#CC(CC[N][N]c1ccccc1C)C#N

>  <mulliken_charges>
28
1   -0.517492
2   -0.109397
3   -0.147372
4   -0.19555
5   -0.125479
6   -0.277584
7   -0.149489
8   0.373882
9   0.370423
10   0.161007
11   -0.227267
12   0.202318
13   -0.450992
14   -0.450983
15   -0.201812
16   -0.287224
17   0.152056
18   0.177549
19   0.168536
20   0.139321
21   0.140308
22   0.132633
23   0.152105
24   0.182815
25   0.183123
26   0.185971
27   0.163474
28   0.255123

>  <lowdin_charges>
28
1   -0.442586
2   -0.138329
3   -0.15536
4   -0.167369
5   -0.147202
6   -0.262746
7   -0.224156
8   -0.008414
9   -0.010003
10   0.015616
11   -0.121042
12   -0.007495
13   -0.096091
14   -0.094706
15   -0.106673
16   -0.0675
17   0.155809
18   0.171265
19   0.166834
20   0.162775
21   0.16166
22   0.160168
23   0.171138
24   0.170968
25   0.172213
26   0.170303
27   0.156566
28   0.214357

$$$$

