PCCDB-ID:  61023
public computational chemistry database (PCCDB) project, http://pccdb.org

 27 26  0  0  0  0  0  0  0  0999 V2000
    2.8077    1.0476   -1.9049 C   0  0  0  0  0  0  0  0  0  0  0  0
    4.5566    2.1248   -0.3978 C   0  0  0  0  0  0  0  0  0  0  0  0
    7.9918   -1.8074   -3.2427 C   0  0  0  0  0  0  0  0  0  0  0  0
    7.8907   -1.4614   -0.7263 C   0  0  0  0  0  0  0  0  0  0  0  0
    7.4977   -3.7598   -1.7051 C   0  0  0  0  0  0  0  0  0  0  0  0
    4.3058    1.1510   -1.5580 C   0  0  0  0  0  0  0  0  0  0  0  0
    4.8101   -0.2383   -1.1780 C   0  0  0  0  0  0  0  0  0  0  0  0
    7.3496   -2.2484   -1.9236 C   0  0  0  0  0  0  0  0  0  0  0  0
    4.5831   -0.8157   -0.1465 O   0  0  0  0  0  0  0  0  0  0  0  0
    5.5440   -0.7347   -2.2248 O   0  0  0  0  0  0  0  0  0  0  0  0
    5.9025   -2.1293   -2.0072 O   0  0  0  0  0  0  0  0  0  0  0  0
    2.4173    2.0337   -2.1796 H   0  0  0  0  0  0  0  0  0  0  0  0
    2.2408    0.6783   -1.0439 H   0  0  0  0  0  0  0  0  0  0  0  0
    2.6387    0.3669   -2.7460 H   0  0  0  0  0  0  0  0  0  0  0  0
    4.1544    3.1141   -0.6415 H   0  0  0  0  0  0  0  0  0  0  0  0
    5.6266    2.2348   -0.1894 H   0  0  0  0  0  0  0  0  0  0  0  0
    4.0699    1.7635    0.5131 H   0  0  0  0  0  0  0  0  0  0  0  0
    9.0749   -1.9703   -3.2121 H   0  0  0  0  0  0  0  0  0  0  0  0
    7.8119   -0.7444   -3.4274 H   0  0  0  0  0  0  0  0  0  0  0  0
    7.5780   -2.3787   -4.0799 H   0  0  0  0  0  0  0  0  0  0  0  0
    8.9540   -1.6816   -0.5801 H   0  0  0  0  0  0  0  0  0  0  0  0
    7.3448   -1.7292    0.1825 H   0  0  0  0  0  0  0  0  0  0  0  0
    7.7929   -0.3831   -0.8864 H   0  0  0  0  0  0  0  0  0  0  0  0
    8.5598   -4.0215   -1.6552 H   0  0  0  0  0  0  0  0  0  0  0  0
    7.0418   -4.3163   -2.5299 H   0  0  0  0  0  0  0  0  0  0  0  0
    7.0173   -4.0646   -0.7706 H   0  0  0  0  0  0  0  0  0  0  0  0
    4.8515    1.4844   -2.4478 H   0  0  0  0  0  0  0  0  0  0  0  0
  1  6  1  0  0  0  0
  1 13  1  0  0  0  0
  2 16  1  0  0  0  0
  2 17  1  0  0  0  0
  3 18  1  0  0  0  0
  3  8  1  0  0  0  0
  4 21  1  0  0  0  0
  4 22  1  0  0  0  0
  5 24  1  0  0  0  0
  5 26  1  0  0  0  0
  6  7  1  0  0  0  0
  6  2  1  0  0  0  0
  7  9  2  0  0  0  0
  8  5  1  0  0  0  0
  8  4  1  0  0  0  0
 10 11  1  0  0  0  0
 10  7  1  0  0  0  0
 11  8  1  0  0  0  0
 12  1  1  0  0  0  0
 14  1  1  0  0  0  0
 15  2  1  0  0  0  0
 19  3  1  0  0  0  0
 20  3  1  0  0  0  0
 23  4  1  0  0  0  0
 25  5  1  0  0  0  0
 27  6  1  0  0  0  0
M  END
>  <HBA>
3

>  <HBD>
0

>  <TPSA>
35.53

>  <cid>
61023

>  <dipole>
2.33

>  <excitation_energy_1>
5.618

>  <excitation_energy_2>
5.748

>  <excitation_energy_3>
6.37

>  <excitation_energy_4>
6.651

>  <homo_energy>
-7.23

>  <homo_lumo_gap>
7.423

>  <logP>
1.916

>  <lumo_energy>
0.193

>  <melting_point>
-8.68

>  <molecular_refractivity>
42.98

>  <oscillator_strength_1>
0.0011

>  <oscillator_strength_2>
0.0034

>  <oscillator_strength_3>
0.0061

>  <oscillator_strength_4>
0.0318

>  <open_babel_can_smiles>
O=C(C(C)C)OOC(C)(C)C

>  <mulliken_charges>
27
1   -0.4507
2   -0.446783
3   -0.449738
4   -0.462492
5   -0.463978
6   -0.169449
7   0.65578
8   0.317783
9   -0.460679
10   -0.299679
11   -0.279463
12   0.151873
13   0.169059
14   0.1605
15   0.147169
16   0.150255
17   0.172994
18   0.14233
19   0.159657
20   0.153884
21   0.143181
22   0.17519
23   0.147689
24   0.151598
25   0.161226
26   0.168582
27   0.15421

>  <lowdin_charges>
27
1   -0.437812
2   -0.437338
3   -0.452164
4   -0.453475
5   -0.444141
6   -0.145493
7   0.192652
8   0.127893
9   -0.23952
10   -0.097397
11   -0.137629
12   0.154495
13   0.162023
14   0.158684
15   0.152602
16   0.151845
17   0.164352
18   0.152009
19   0.15751
20   0.15818
21   0.153397
22   0.16781
23   0.151557
24   0.157855
25   0.161512
26   0.164266
27   0.15633

$$$$

