PCCDB-ID:  21396
public computational chemistry database (PCCDB) project, http://pccdb.org

 18 19  0  0  0  0  0  0  0  0999 V2000
   -2.4313   -0.7525    0.1378 C   0  0  0  0  0  0  0  0  0  0  0  0
   -2.5323    0.6406    0.0899 C   0  0  0  0  0  0  0  0  0  0  0  0
   -1.1835   -1.3626    0.0552 C   0  0  0  0  0  0  0  0  0  0  0  0
   -1.3796    1.4167   -0.0203 C   0  0  0  0  0  0  0  0  0  0  0  0
    2.4903    0.6633    0.5739 C   0  0  0  0  0  0  0  0  0  0  0  0
   -0.0095   -0.6023   -0.0690 C   0  0  0  0  0  0  0  0  0  0  0  0
   -0.1236    0.8067   -0.0912 C   0  0  0  0  0  0  0  0  0  0  0  0
    2.3112   -0.7367    0.0150 C   0  0  0  0  0  0  0  0  0  0  0  0
    1.1961   -1.2988   -0.2268 N   0  0  0  0  0  0  0  0  0  0  0  0
    3.4348   -1.4680   -0.2042 O   0  0  0  0  0  0  0  0  0  0  0  0
    1.3381    1.8083   -0.2691 S   0  0  0  0  0  0  0  0  0  0  0  0
   -3.3253   -1.3624    0.2325 H   0  0  0  0  0  0  0  0  0  0  0  0
   -3.5036    1.1241    0.1452 H   0  0  0  0  0  0  0  0  0  0  0  0
   -1.0817   -2.4433    0.0699 H   0  0  0  0  0  0  0  0  0  0  0  0
   -1.4494    2.5010   -0.0385 H   0  0  0  0  0  0  0  0  0  0  0  0
    3.4968    1.0538    0.3958 H   0  0  0  0  0  0  0  0  0  0  0  0
    2.3073    0.6637    1.6558 H   0  0  0  0  0  0  0  0  0  0  0  0
    4.2167   -0.9437    0.0259 H   0  0  0  0  0  0  0  0  0  0  0  0
  1 12  1  0  0  0  0
  2  1  1  0  0  0  0
  2 13  1  0  0  0  0
  3 14  1  0  0  0  0
  3  1  2  0  0  0  0
  4  2  2  0  0  0  0
  5 17  1  0  0  0  0
  6  3  1  0  0  0  0
  7  6  2  0  0  0  0
  7  4  1  0  0  0  0
  8  5  1  0  0  0  0
  9  6  1  0  0  0  0
  9  8  2  0  0  0  0
 10  8  1  0  0  0  0
 10 18  1  0  0  0  0
 11  7  1  0  0  0  0
 11  5  1  0  0  0  0
 15  4  1  0  0  0  0
 16  5  1  0  0  0  0
M  END
>  <HBA>
3

>  <HBD>
1

>  <TPSA>
54.4

>  <cid>
21396

>  <dipole>
2.9

>  <excitation_energy_1>
3.969

>  <excitation_energy_2>
4.362

>  <excitation_energy_3>
4.742

>  <excitation_energy_4>
4.955

>  <homo_energy>
-5.796

>  <homo_lumo_gap>
4.846

>  <logP>
1.869

>  <lumo_energy>
-0.95

>  <melting_point>
95.66

>  <molecular_refractivity>
48.49

>  <oscillator_strength_1>
0.0283

>  <oscillator_strength_2>
0.026

>  <oscillator_strength_3>
0.0899

>  <oscillator_strength_4>
0.0461

>  <open_babel_can_smiles>
OC1=Nc2c(SC1)cccc2

>  <mulliken_charges>
18
1   -0.139851
2   -0.119357
3   -0.147123
4   -0.169444
5   -0.521945
6   0.260785
7   -0.119291
8   0.490419
9   -0.481687
10   -0.563387
11   0.16569
12   0.132269
13   0.131422
14   0.143372
15   0.140645
16   0.174562
17   0.212857
18   0.410063

>  <lowdin_charges>
18
1   -0.159343
2   -0.159325
3   -0.151646
4   -0.159967
5   -0.407469
6   0.031557
7   -0.150976
8   0.132907
9   -0.173206
10   -0.344464
11   0.183368
12   0.160477
13   0.15968
14   0.167305
15   0.162201
16   0.171744
17   0.177812
18   0.359347

$$$$

