PCCDB-ID:  5916
public computational chemistry database (PCCDB) project, http://pccdb.org

 35 36  0  0  0  0  0  0  0  0999 V2000
    1.1839    0.1418    0.8843 C   0  0  0  0  0  0  0  0  0  0  0  0
    4.5941    3.8835    0.0274 C   0  0  0  0  0  0  0  0  0  0  0  0
    6.4770    2.7597   -1.1939 C   0  0  0  0  0  0  0  0  0  0  0  0
    0.7435   -6.8160   -0.5946 C   0  0  0  0  0  0  0  0  0  0  0  0
    1.9921   -6.7325   -1.2134 C   0  0  0  0  0  0  0  0  0  0  0  0
    0.1749   -5.6735   -0.0172 C   0  0  0  0  0  0  0  0  0  0  0  0
    2.6680   -5.5143   -1.2545 C   0  0  0  0  0  0  0  0  0  0  0  0
    0.8440   -4.4555   -0.0550 C   0  0  0  0  0  0  0  0  0  0  0  0
    5.0659    0.2963   -1.0208 C   0  0  0  0  0  0  0  0  0  0  0  0
    4.3706   -0.8954   -0.9630 C   0  0  0  0  0  0  0  0  0  0  0  0
    3.2448    1.3816    0.1557 C   0  0  0  0  0  0  0  0  0  0  0  0
    2.5387    0.1839    0.2179 C   0  0  0  0  0  0  0  0  0  0  0  0
    2.1020   -4.3680   -0.6781 C   0  0  0  0  0  0  0  0  0  0  0  0
    4.5179    1.4773   -0.4555 C   0  0  0  0  0  0  0  0  0  0  0  0
    3.1063   -0.9809   -0.3502 C   0  0  0  0  0  0  0  0  0  0  0  0
    2.8797   -3.1883   -0.7799 N   0  0  0  0  0  0  0  0  0  0  0  0
    2.3517   -2.1601   -0.2616 N   0  0  0  0  0  0  0  0  0  0  0  0
    5.2033    2.6739   -0.4988 N   0  0  0  0  0  0  0  0  0  0  0  0
    0.9077    1.1296    1.2667 H   0  0  0  0  0  0  0  0  0  0  0  0
    1.1731   -0.5667    1.7192 H   0  0  0  0  0  0  0  0  0  0  0  0
    0.4068   -0.1877    0.1865 H   0  0  0  0  0  0  0  0  0  0  0  0
    5.2889    4.7164   -0.0924 H   0  0  0  0  0  0  0  0  0  0  0  0
    4.3659    3.7867    1.0972 H   0  0  0  0  0  0  0  0  0  0  0  0
    3.6618    4.1396   -0.4968 H   0  0  0  0  0  0  0  0  0  0  0  0
    6.8636    3.7765   -1.1091 H   0  0  0  0  0  0  0  0  0  0  0  0
    6.3832    2.5188   -2.2628 H   0  0  0  0  0  0  0  0  0  0  0  0
    7.2207    2.0800   -0.7575 H   0  0  0  0  0  0  0  0  0  0  0  0
    0.2135   -7.7641   -0.5599 H   0  0  0  0  0  0  0  0  0  0  0  0
    2.4388   -7.6154   -1.6629 H   0  0  0  0  0  0  0  0  0  0  0  0
   -0.7973   -5.7390    0.4653 H   0  0  0  0  0  0  0  0  0  0  0  0
    3.6401   -5.4206   -1.7294 H   0  0  0  0  0  0  0  0  0  0  0  0
    0.4177   -3.5620    0.3868 H   0  0  0  0  0  0  0  0  0  0  0  0
    6.0355    0.3169   -1.5038 H   0  0  0  0  0  0  0  0  0  0  0  0
    4.7893   -1.7978   -1.3951 H   0  0  0  0  0  0  0  0  0  0  0  0
    2.7910    2.2624    0.5945 H   0  0  0  0  0  0  0  0  0  0  0  0
  1 19  1  0  0  0  0
  1 20  1  0  0  0  0
  2 23  1  0  0  0  0
  3 25  1  0  0  0  0
  3 27  1  0  0  0  0
  3 18  1  0  0  0  0
  4 28  1  0  0  0  0
  4  6  2  0  0  0  0
  5  4  1  0  0  0  0
  6 30  1  0  0  0  0
  7  5  2  0  0  0  0
  7 13  1  0  0  0  0
  8  6  1  0  0  0  0
  8 32  1  0  0  0  0
  9 10  2  0  0  0  0
  9 14  1  0  0  0  0
 10 15  1  0  0  0  0
 11 12  1  0  0  0  0
 11 35  1  0  0  0  0
 12  1  1  0  0  0  0
 13  8  2  0  0  0  0
 14 11  2  0  0  0  0
 15 17  1  0  0  0  0
 15 12  2  0  0  0  0
 16 13  1  0  0  0  0
 16 17  1  0  0  0  0
 18 14  1  0  0  0  0
 18  2  1  0  0  0  0
 21  1  1  0  0  0  0
 22  2  1  0  0  0  0
 24  2  1  0  0  0  0
 26  3  1  0  0  0  0
 29  5  1  0  0  0  0
 31  7  1  0  0  0  0
 33  9  1  0  0  0  0
 34 10  1  0  0  0  0
M  RAD  2  16   2  17   2
M  END
>  <HBA>
3

>  <HBD>
0

>  <TPSA>
27.96

>  <cid>
5916

>  <dipole>
3.94

>  <excitation_energy_1>
2.607

>  <excitation_energy_2>
3.041

>  <excitation_energy_3>
3.987

>  <excitation_energy_4>
4.112

>  <homo_energy>
-5.021

>  <homo_lumo_gap>
3.284

>  <logP>
4.476

>  <lumo_energy>
-1.736

>  <melting_point>
76.0

>  <molecular_refractivity>
76.23

>  <oscillator_strength_1>
0.0

>  <oscillator_strength_2>
0.8918

>  <oscillator_strength_3>
0.0035

>  <oscillator_strength_4>
0.0055

>  <open_babel_can_smiles>
Cc1cc(ccc1[N][N]c1ccccc1)N(C)C

>  <mulliken_charges>
35
1   -0.516813
2   -0.311562
3   -0.313196
4   -0.121831
5   -0.138469
6   -0.14597
7   -0.144693
8   -0.130411
9   -0.211533
10   -0.134854
11   -0.282684
12   0.165683
13   0.275669
14   0.399482
15   0.217636
16   -0.327544
17   -0.322637
18   -0.477649
19   0.140928
20   0.17045
21   0.170313
22   0.157632
23   0.16554
24   0.161749
25   0.157785
26   0.162239
27   0.165978
28   0.12768
29   0.128906
30   0.129202
31   0.134537
32   0.148344
33   0.127114
34   0.153545
35   0.119434

>  <lowdin_charges>
35
1   -0.440657
2   -0.348832
3   -0.347818
4   -0.15551
5   -0.159479
6   -0.15388
7   -0.151836
8   -0.158748
9   -0.209241
10   -0.13631
11   -0.22715
12   0.023343
13   0.015181
14   0.069097
15   -0.02948
16   -0.104839
17   -0.083906
18   -0.10131
19   0.148948
20   0.167297
21   0.167651
22   0.159878
23   0.151316
24   0.149589
25   0.158532
26   0.147779
27   0.154376
28   0.156914
29   0.158195
30   0.156008
31   0.16339
32   0.170367
33   0.159589
34   0.173323
35   0.158224

$$$$

