PCCDB-ID:  16856
public computational chemistry database (PCCDB) project, http://pccdb.org

 36 36  0  0  1  0  0  0  0  0999 V2000
    0.3445   -1.7196   -1.6013 C   0  0  0  0  0  0  0  0  0  0  0  0
    7.2661    0.0830   -2.2802 C   0  0  0  0  0  0  0  0  0  0  0  0
    1.6060   -2.5889   -1.6011 C   0  0  0  0  0  0  0  0  0  0  0  0
    2.8899   -1.7701   -1.7873 C   0  0  0  0  0  0  0  0  0  0  0  0
    8.1183   -4.1272   -1.8469 C   0  0  0  0  0  0  0  0  0  0  0  0
    6.7966   -3.6766   -1.8245 C   0  0  0  0  0  0  0  0  0  0  0  0
    4.1424   -2.6354   -1.7779 C   0  0  0  0  0  0  0  0  0  0  0  0
    8.8799   -1.8706   -2.1481 C   0  0  0  0  0  0  0  0  0  0  0  0
   10.6161   -3.7245   -2.0393 C   0  0  0  0  0  0  0  0  0  0  0  0
    7.5733   -1.3852   -2.1322 C   0  0  0  0  0  0  0  0  0  0  0  0
    9.1838   -3.2368   -2.0041 C   0  0  0  0  0  0  0  0  0  0  0  0
    6.5218   -2.3126   -1.9657 C   0  0  0  0  0  0  0  0  0  0  0  0
   11.1453   -4.0139   -3.4373 C   0  0  2  0  0  0  0  0  0  0  0  0
   12.2384   -4.6283   -3.6965 N   0  0  0  0  0  0  0  0  0  0  0  0
   10.4388   -3.5833   -4.5122 O   0  0  0  0  0  0  0  0  0  0  0  0
   12.8909   -4.9820   -2.4785 O   0  0  0  0  0  0  0  0  0  0  0  0
    5.2680   -1.7746   -1.9542 O   0  0  0  0  0  0  0  0  0  0  0  0
   -0.5570   -2.3279   -1.4690 H   0  0  0  0  0  0  0  0  0  0  0  0
    0.2418   -1.1709   -2.5452 H   0  0  0  0  0  0  0  0  0  0  0  0
    0.3720   -0.9820   -0.7903 H   0  0  0  0  0  0  0  0  0  0  0  0
    8.1856    0.6654   -2.3905 H   0  0  0  0  0  0  0  0  0  0  0  0
    6.7174    0.4636   -1.4107 H   0  0  0  0  0  0  0  0  0  0  0  0
    6.6306    0.2708   -3.1537 H   0  0  0  0  0  0  0  0  0  0  0  0
    1.5315   -3.3407   -2.3995 H   0  0  0  0  0  0  0  0  0  0  0  0
    1.6626   -3.1499   -0.6575 H   0  0  0  0  0  0  0  0  0  0  0  0
    2.9762   -1.0194   -0.9911 H   0  0  0  0  0  0  0  0  0  0  0  0
    2.8502   -1.2188   -2.7357 H   0  0  0  0  0  0  0  0  0  0  0  0
    8.3171   -5.1902   -1.7337 H   0  0  0  0  0  0  0  0  0  0  0  0
    5.9938   -4.3934   -1.6969 H   0  0  0  0  0  0  0  0  0  0  0  0
    4.1106   -3.3784   -2.5883 H   0  0  0  0  0  0  0  0  0  0  0  0
    4.2344   -3.1789   -0.8261 H   0  0  0  0  0  0  0  0  0  0  0  0
    9.6948   -1.1581   -2.2643 H   0  0  0  0  0  0  0  0  0  0  0  0
   10.7354   -4.6393   -1.4498 H   0  0  0  0  0  0  0  0  0  0  0  0
   11.2874   -2.9901   -1.5753 H   0  0  0  0  0  0  0  0  0  0  0  0
    9.5998   -3.2153   -4.1841 H   0  0  0  0  0  0  0  0  0  0  0  0
   13.6620   -5.4627   -2.8139 H   0  0  0  0  0  0  0  0  0  0  0  0
  1  3  1  0  0  0  0
  1 18  1  0  0  0  0
  1 20  1  0  0  0  0
  2 10  1  0  0  0  0
  2 22  1  0  0  0  0
  3 25  1  0  0  0  0
  4  7  1  0  0  0  0
  4  3  1  0  0  0  0
  4 26  1  0  0  0  0
  5  6  1  0  0  0  0
  5 28  1  0  0  0  0
  6 29  1  0  0  0  0
  7 31  1  0  0  0  0
  8 10  2  0  0  0  0
  8 11  1  0  0  0  0
  9 11  1  0  0  0  0
  9 34  1  0  0  0  0
  9 33  1  0  0  0  0
 10 12  1  0  0  0  0
 11  5  2  0  0  0  0
 12 17  1  0  0  0  0
 12  6  2  0  0  0  0
 13 15  1  1  0  0  0
 13  9  1  0  0  0  0
 14 13  1  0  0  0  0
 14 16  1  0  0  0  0
 15 35  1  0  0  0  0
 17  7  1  0  0  0  0
 19  1  1  0  0  0  0
 21  2  1  0  0  0  0
 23  2  1  0  0  0  0
 24  3  1  0  0  0  0
 27  4  1  0  0  0  0
 30  7  1  0  0  0  0
 32  8  1  0  0  0  0
 36 16  1  0  0  0  0
M  RAD  2  13   2  14   2
M  END
>  <HBA>
4

>  <HBD>
2

>  <TPSA>
58.56

>  <cid>
16856

>  <dipole>
4.62

>  <excitation_energy_1>
4.889

>  <excitation_energy_2>
4.974

>  <excitation_energy_3>
5.135

>  <excitation_energy_4>
5.438

>  <homo_energy>
-5.777

>  <homo_lumo_gap>
5.505

>  <logP>
2.613

>  <lumo_energy>
-0.272

>  <melting_point>
117.92

>  <molecular_refractivity>
65.83

>  <oscillator_strength_1>
0.0276

>  <oscillator_strength_2>
0.0073

>  <oscillator_strength_3>
0.0019

>  <oscillator_strength_4>
0.1044

>  <open_babel_can_smiles>
CCCCOc1ccc(cc1C)C[C]([N]O)O

>  <mulliken_charges>
36
1   -0.440913
2   -0.514092
3   -0.259824
4   -0.270291
5   -0.180944
6   -0.191176
7   -0.031046
8   -0.253625
9   -0.411411
10   0.132715
11   0.084972
12   0.331112
13   0.506616
14   -0.252715
15   -0.592849
16   -0.531821
17   -0.523506
18   0.147322
19   0.146564
20   0.146367
21   0.151273
22   0.168203
23   0.167667
24   0.136343
25   0.135954
26   0.148704
27   0.148961
28   0.136709
29   0.139559
30   0.14022
31   0.140307
32   0.131616
33   0.190581
34   0.186839
35   0.419997
36   0.415613

>  <lowdin_charges>
36
1   -0.443119
2   -0.438052
3   -0.273038
4   -0.280899
5   -0.155914
6   -0.20998
7   -0.127168
8   -0.179113
9   -0.300131
10   -0.021299
11   -0.046252
12   0.097172
13   0.096137
14   -0.114105
15   -0.362341
16   -0.402628
17   -0.198632
18   0.15266
19   0.149196
20   0.149584
21   0.156277
22   0.165616
23   0.165003
24   0.142044
25   0.141269
26   0.150825
27   0.150299
28   0.159445
29   0.16622
30   0.138962
31   0.138381
32   0.15953
33   0.179933
34   0.178097
35   0.360972
36   0.355049

$$$$

