PCCDB-ID:  15197
public computational chemistry database (PCCDB) project, http://pccdb.org

 17 17  0  0  0  0  0  0  0  0999 V2000
    2.9918   -1.2783   -0.1887 C   0  0  0  0  0  0  0  0  0  0  0  0
    3.5233    3.2592   -1.6775 C   0  0  0  0  0  0  0  0  0  0  0  0
    4.6219    1.4905   -2.9312 C   0  0  0  0  0  0  0  0  0  0  0  0
    3.0034    2.3237   -0.7998 C   0  0  0  0  0  0  0  0  0  0  0  0
    4.1064    0.5440   -2.0582 C   0  0  0  0  0  0  0  0  0  0  0  0
    4.3349    2.8502   -2.7473 C   0  0  0  0  0  0  0  0  0  0  0  0
    3.2922    0.9591   -0.9849 C   0  0  0  0  0  0  0  0  0  0  0  0
    4.8207    3.8911   -3.5964 N   0  0  0  0  0  0  0  0  0  0  0  0
    5.5270    3.5177   -4.5282 O   0  0  0  0  0  0  0  0  0  0  0  0
    2.7402    0.1186   -0.0778 O   0  0  0  0  0  0  0  0  0  0  0  0
    2.4610   -1.7405    0.6447 H   0  0  0  0  0  0  0  0  0  0  0  0
    4.0630   -1.4990   -0.1062 H   0  0  0  0  0  0  0  0  0  0  0  0
    2.6066   -1.6799   -1.1339 H   0  0  0  0  0  0  0  0  0  0  0  0
    3.3176    4.3191   -1.5598 H   0  0  0  0  0  0  0  0  0  0  0  0
    5.2518    1.2045   -3.7673 H   0  0  0  0  0  0  0  0  0  0  0  0
    2.3740    2.6103    0.0361 H   0  0  0  0  0  0  0  0  0  0  0  0
    4.3325   -0.5054   -2.2083 H   0  0  0  0  0  0  0  0  0  0  0  0
  1 12  1  0  0  0  0
  1 10  1  0  0  0  0
  1 11  1  0  0  0  0
  2 14  1  0  0  0  0
  2  4  2  0  0  0  0
  3  6  2  0  0  0  0
  3  5  1  0  0  0  0
  4 16  1  0  0  0  0
  5  7  2  0  0  0  0
  6  2  1  0  0  0  0
  7  4  1  0  0  0  0
  7 10  1  0  0  0  0
  8  6  1  0  0  0  0
  9  8  2  0  0  0  0
 13  1  1  0  0  0  0
 15  3  1  0  0  0  0
 17  5  1  0  0  0  0
M  END
>  <HBA>
3

>  <HBD>
0

>  <TPSA>
38.66

>  <cid>
15197

>  <dipole>
5.23

>  <excitation_energy_1>
1.575

>  <excitation_energy_2>
3.938

>  <excitation_energy_3>
4.235

>  <excitation_energy_4>
4.259

>  <homo_energy>
-5.663

>  <homo_lumo_gap>
3.295

>  <logP>
2.093

>  <lumo_energy>
-2.367

>  <melting_point>
36.51

>  <molecular_refractivity>
38.39

>  <oscillator_strength_1>
0.0003

>  <oscillator_strength_2>
0.2557

>  <oscillator_strength_3>
0.0852

>  <oscillator_strength_4>
0.0

>  <open_babel_can_smiles>
COc1ccc(cc1)N=O

>  <mulliken_charges>
17
1   -0.223793
2   -0.127291
3   -0.128962
4   -0.183269
5   -0.204299
6   0.215121
7   0.395718
8   -0.068592
9   -0.305115
10   -0.494549
11   0.180294
12   0.162456
13   0.162459
14   0.156798
15   0.165336
16   0.152108
17   0.145579

>  <lowdin_charges>
17
1   -0.275464
2   -0.119097
3   -0.119979
4   -0.182472
5   -0.205734
6   -0.041817
7   0.123338
8   0.036822
9   -0.199433
10   -0.180494
11   0.16982
12   0.149971
13   0.151731
14   0.173731
15   0.17867
16   0.173859
17   0.166548

$$$$

