PCCDB-ID:  37153
public computational chemistry database (PCCDB) project, http://pccdb.org

 34 33  0  0  0  0  0  0  0  0999 V2000
    1.4114   -0.9366   -0.0320 C   0  0  0  0  0  0  0  0  0  0  0  0
    1.3257   -1.8513    1.1980 C   0  0  0  0  0  0  0  0  0  0  0  0
    2.8232   -0.8486   -0.6269 C   0  0  0  0  0  0  0  0  0  0  0  0
   -0.0626   -1.9154    1.8570 C   0  0  0  0  0  0  0  0  0  0  0  0
    2.9127    0.0777   -1.8457 C   0  0  0  0  0  0  0  0  0  0  0  0
   -1.1477   -2.5895    1.0043 C   0  0  0  0  0  0  0  0  0  0  0  0
    4.3168    0.1535   -2.4571 C   0  0  0  0  0  0  0  0  0  0  0  0
   -2.4983   -2.6972    1.7241 C   0  0  0  0  0  0  0  0  0  0  0  0
    4.4233    1.1395   -3.6230 C   0  0  0  0  0  0  0  0  0  0  0  0
   -3.5829   -3.3628    0.8752 C   0  0  0  0  0  0  0  0  0  0  0  0
    4.0948    2.4785   -3.2606 O   0  0  0  0  0  0  0  0  0  0  0  0
   -4.8189   -3.5116    1.5661 O   0  0  0  0  0  0  0  0  0  0  0  0
    1.0714    0.0727    0.2448 H   0  0  0  0  0  0  0  0  0  0  0  0
    0.7194   -1.2872   -0.8101 H   0  0  0  0  0  0  0  0  0  0  0  0
    2.0528   -1.5042    1.9459 H   0  0  0  0  0  0  0  0  0  0  0  0
    1.6413   -2.8677    0.9184 H   0  0  0  0  0  0  0  0  0  0  0  0
    3.1627   -1.8572   -0.9074 H   0  0  0  0  0  0  0  0  0  0  0  0
    3.5222   -0.4996    0.1481 H   0  0  0  0  0  0  0  0  0  0  0  0
   -0.3872   -0.8968    2.1172 H   0  0  0  0  0  0  0  0  0  0  0  0
    0.0224   -2.4584    2.8088 H   0  0  0  0  0  0  0  0  0  0  0  0
    2.5928    1.0903   -1.5690 H   0  0  0  0  0  0  0  0  0  0  0  0
    2.2058   -0.2641   -2.6164 H   0  0  0  0  0  0  0  0  0  0  0  0
   -0.8069   -3.5962    0.7195 H   0  0  0  0  0  0  0  0  0  0  0  0
   -1.2832   -2.0363    0.0648 H   0  0  0  0  0  0  0  0  0  0  0  0
    4.6301   -0.8398   -2.8107 H   0  0  0  0  0  0  0  0  0  0  0  0
    5.0444    0.4402   -1.6805 H   0  0  0  0  0  0  0  0  0  0  0  0
   -2.8388   -1.6901    2.0133 H   0  0  0  0  0  0  0  0  0  0  0  0
   -2.3884   -3.2671    2.6563 H   0  0  0  0  0  0  0  0  0  0  0  0
    3.7083    0.8728   -4.4095 H   0  0  0  0  0  0  0  0  0  0  0  0
    5.4308    1.0890   -4.0673 H   0  0  0  0  0  0  0  0  0  0  0  0
   -3.2783   -4.3800    0.6048 H   0  0  0  0  0  0  0  0  0  0  0  0
   -3.7195   -2.8055   -0.0673 H   0  0  0  0  0  0  0  0  0  0  0  0
    4.7370    2.7621   -2.5909 H   0  0  0  0  0  0  0  0  0  0  0  0
   -5.1290   -2.6224    1.7982 H   0  0  0  0  0  0  0  0  0  0  0  0
  1 13  1  0  0  0  0
  1  2  1  0  0  0  0
  2  4  1  0  0  0  0
  2 15  1  0  0  0  0
  3  1  1  0  0  0  0
  3 18  1  0  0  0  0
  4 19  1  0  0  0  0
  4 20  1  0  0  0  0
  5 21  1  0  0  0  0
  5  3  1  0  0  0  0
  6  8  1  0  0  0  0
  6  4  1  0  0  0  0
  7  5  1  0  0  0  0
  7 26  1  0  0  0  0
  8 27  1  0  0  0  0
  8 28  1  0  0  0  0
  9 11  1  0  0  0  0
  9  7  1  0  0  0  0
 10 12  1  0  0  0  0
 10  8  1  0  0  0  0
 11 33  1  0  0  0  0
 12 34  1  0  0  0  0
 14  1  1  0  0  0  0
 16  2  1  0  0  0  0
 17  3  1  0  0  0  0
 22  5  1  0  0  0  0
 23  6  1  0  0  0  0
 24  6  1  0  0  0  0
 25  7  1  0  0  0  0
 29  9  1  0  0  0  0
 30  9  1  0  0  0  0
 31 10  1  0  0  0  0
 32 10  1  0  0  0  0
M  END
>  <HBA>
2

>  <HBD>
2

>  <TPSA>
40.46

>  <cid>
37153

>  <dipole>
2.24

>  <excitation_energy_1>
6.414

>  <excitation_energy_2>
6.504

>  <excitation_energy_3>
7.125

>  <excitation_energy_4>
7.175

>  <homo_energy>
-7.04

>  <homo_lumo_gap>
9.01

>  <logP>
2.092

>  <lumo_energy>
1.97

>  <melting_point>
8.02

>  <molecular_refractivity>
52.51

>  <oscillator_strength_1>
0.0092

>  <oscillator_strength_2>
0.0053

>  <oscillator_strength_3>
0.0053

>  <oscillator_strength_4>
0.0321

>  <open_babel_can_smiles>
OCCCCCCCCCCO

>  <mulliken_charges>
34
1   -0.254271
2   -0.255311
3   -0.252952
4   -0.253342
5   -0.246111
6   -0.262162
7   -0.280975
8   -0.277381
9   -0.032155
10   -0.025917
11   -0.610683
12   -0.615826
13   0.12738
14   0.132414
15   0.127469
16   0.126747
17   0.125846
18   0.124573
19   0.126955
20   0.129624
21   0.145031
22   0.12702
23   0.130741
24   0.134997
25   0.130284
26   0.119768
27   0.11893
28   0.144634
29   0.144793
30   0.11966
31   0.144225
32   0.116285
33   0.384985
34   0.384723

>  <lowdin_charges>
34
1   -0.276806
2   -0.275655
3   -0.274122
4   -0.273077
5   -0.276789
6   -0.276425
7   -0.294395
8   -0.292554
9   -0.134179
10   -0.134135
11   -0.470763
12   -0.468148
13   0.13712
14   0.139935
15   0.141503
16   0.136814
17   0.135913
18   0.136999
19   0.136894
20   0.141278
21   0.14623
22   0.139539
23   0.138748
24   0.13986
25   0.144065
26   0.13452
27   0.132925
28   0.14677
29   0.146516
30   0.125771
31   0.144538
32   0.122604
33   0.34028
34   0.338229

$$$$

