PCCDB-ID:  36081
public computational chemistry database (PCCDB) project, http://pccdb.org

 36 36  0  0  1  0  0  0  0  0999 V2000
    0.8778    0.9554    0.0237 C   0  0  0  0  0  0  0  0  0  0  0  0
    9.1883    1.7136   -3.2712 C   0  0  0  0  0  0  0  0  0  0  0  0
    9.3154    3.2503   -1.3158 C   0  0  0  0  0  0  0  0  0  0  0  0
    9.4475    0.7709   -0.9615 C   0  0  0  0  0  0  0  0  0  0  0  0
    6.6727    2.1832   -0.2624 C   0  0  0  0  0  0  0  0  0  0  0  0
    6.5606    0.5454   -2.1655 C   0  0  0  0  0  0  0  0  0  0  0  0
    5.1355    2.2436   -0.2255 C   0  0  0  0  0  0  0  0  0  0  0  0
    5.0239    0.6064   -2.1368 C   0  0  0  0  0  0  0  0  0  0  0  0
    2.3577    0.7995    0.2929 C   0  0  0  0  0  0  0  0  0  0  0  0
    7.2108    1.8590   -1.6745 C   0  0  2  0  0  0  0  0  0  0  0  0
    4.5197    0.9434   -0.7385 C   0  0  2  0  0  0  0  0  0  0  0  0
    8.7755    1.8838   -1.7924 C   0  0  0  0  0  0  0  0  0  0  0  0
    2.8440    0.4752    1.3550 O   0  0  0  0  0  0  0  0  0  0  0  0
    3.0731    1.0654   -0.8243 O   0  0  0  0  0  0  0  0  0  0  0  0
    0.3193    0.7738    0.9425 H   0  0  0  0  0  0  0  0  0  0  0  0
    0.5608    0.2473   -0.7493 H   0  0  0  0  0  0  0  0  0  0  0  0
    0.6664    1.9622   -0.3507 H   0  0  0  0  0  0  0  0  0  0  0  0
   10.2738    1.8252   -3.3793 H   0  0  0  0  0  0  0  0  0  0  0  0
    8.7123    2.4710   -3.9070 H   0  0  0  0  0  0  0  0  0  0  0  0
    8.9242    0.7277   -3.6675 H   0  0  0  0  0  0  0  0  0  0  0  0
   10.3882    3.3304   -1.5280 H   0  0  0  0  0  0  0  0  0  0  0  0
    9.1868    3.3948   -0.2380 H   0  0  0  0  0  0  0  0  0  0  0  0
    8.8128    4.0795   -1.8301 H   0  0  0  0  0  0  0  0  0  0  0  0
   10.5387    0.8457   -1.0436 H   0  0  0  0  0  0  0  0  0  0  0  0
    9.1627   -0.2284   -1.3090 H   0  0  0  0  0  0  0  0  0  0  0  0
    9.1950    0.8428    0.1023 H   0  0  0  0  0  0  0  0  0  0  0  0
    7.0175    1.4210    0.4504 H   0  0  0  0  0  0  0  0  0  0  0  0
    7.0662    3.1403    0.0937 H   0  0  0  0  0  0  0  0  0  0  0  0
    6.8814    0.3072   -3.1846 H   0  0  0  0  0  0  0  0  0  0  0  0
    6.8941   -0.2882   -1.5319 H   0  0  0  0  0  0  0  0  0  0  0  0
    4.7798    3.0688   -0.8582 H   0  0  0  0  0  0  0  0  0  0  0  0
    4.7862    2.4377    0.7944 H   0  0  0  0  0  0  0  0  0  0  0  0
    4.5971   -0.3487   -2.4664 H   0  0  0  0  0  0  0  0  0  0  0  0
    4.6655    1.3747   -2.8356 H   0  0  0  0  0  0  0  0  0  0  0  0
    6.8519    2.6612   -2.3412 H   0  0  0  0  0  0  0  0  0  0  0  0
    4.7440    0.1297   -0.0407 H   0  0  0  0  0  0  0  0  0  0  0  0
  1  9  1  0  0  0  0
  1 15  1  0  0  0  0
  2 12  1  0  0  0  0
  3 22  1  0  0  0  0
  4 26  1  0  0  0  0
  5  7  1  0  0  0  0
  5 28  1  0  0  0  0
  5 27  1  0  0  0  0
  6  8  1  0  0  0  0
  6 10  1  0  0  0  0
  6 30  1  0  0  0  0
  7 32  1  0  0  0  0
  8 11  1  0  0  0  0
  9 13  2  0  0  0  0
 10 35  1  6  0  0  0
 10  5  1  0  0  0  0
 11  7  1  0  0  0  0
 11 36  1  1  0  0  0
 12 10  1  0  0  0  0
 12  3  1  0  0  0  0
 12  4  1  0  0  0  0
 14 11  1  0  0  0  0
 14  9  1  0  0  0  0
 16  1  1  0  0  0  0
 17  1  1  0  0  0  0
 18  2  1  0  0  0  0
 19  2  1  0  0  0  0
 20  2  1  0  0  0  0
 21  3  1  0  0  0  0
 23  3  1  0  0  0  0
 24  4  1  0  0  0  0
 25  4  1  0  0  0  0
 29  6  1  0  0  0  0
 31  7  1  0  0  0  0
 33  8  1  0  0  0  0
 34  8  1  0  0  0  0
M  END
>  <HBA>
2

>  <HBD>
0

>  <TPSA>
26.3

>  <cid>
36081

>  <dipole>
1.96

>  <excitation_energy_1>
5.79

>  <excitation_energy_2>
6.851

>  <excitation_energy_3>
7.06

>  <excitation_energy_4>
7.164

>  <homo_energy>
-7.165

>  <homo_lumo_gap>
7.674

>  <logP>
3.154

>  <lumo_energy>
0.509

>  <melting_point>
23.16

>  <molecular_refractivity>
58.71

>  <oscillator_strength_1>
0.0014

>  <oscillator_strength_2>
0.0228

>  <oscillator_strength_3>
0.0261

>  <oscillator_strength_4>
0.0028

>  <open_babel_can_smiles>
CC(=O)O[C@@H]1CC[C@H](CC1)C(C)(C)C

>  <mulliken_charges>
36
1   -0.524088
2   -0.451373
3   -0.452477
4   -0.455832
5   -0.288991
6   -0.288626
7   -0.284668
8   -0.278593
9   0.604133
10   -0.064859
11   0.138553
12   0.104179
13   -0.472243
14   -0.475218
15   0.180373
16   0.180003
17   0.179145
18   0.138218
19   0.136918
20   0.142888
21   0.137946
22   0.144753
23   0.136871
24   0.138906
25   0.142614
26   0.143601
27   0.137391
28   0.141167
29   0.139878
30   0.135093
31   0.134468
32   0.156387
33   0.140238
34   0.139368
35   0.109967
36   0.153913

>  <lowdin_charges>
36
1   -0.466017
2   -0.443773
3   -0.442066
4   -0.442533
5   -0.282836
6   -0.281906
7   -0.287748
8   -0.282877
9   0.19974
10   -0.130513
11   0.001525
12   0.014771
13   -0.270456
14   -0.198697
15   0.174593
16   0.177692
17   0.175516
18   0.145743
19   0.147157
20   0.146752
21   0.145946
22   0.146508
23   0.14688
24   0.146885
25   0.146974
26   0.146458
27   0.143222
28   0.150062
29   0.148073
30   0.142224
31   0.143887
32   0.15683
33   0.14967
34   0.146532
35   0.13394
36   0.151843

$$$$

