PCCDB-ID:  59853
public computational chemistry database (PCCDB) project, http://pccdb.org

 24 25  0  0  0  0  0  0  0  0999 V2000
    0.3608    0.6084   -0.0226 C   0  0  0  0  0  0  0  0  0  0  0  0
    2.7619    1.4163    0.0091 C   0  0  0  0  0  0  0  0  0  0  0  0
    4.1353    1.2143    0.0282 C   0  0  0  0  0  0  0  0  0  0  0  0
    2.3386   -0.9669   -0.0092 C   0  0  0  0  0  0  0  0  0  0  0  0
    1.8482    0.3415   -0.0093 C   0  0  0  0  0  0  0  0  0  0  0  0
    4.6324   -0.0956    0.0317 C   0  0  0  0  0  0  0  0  0  0  0  0
    3.7176   -1.1729    0.0165 C   0  0  0  0  0  0  0  0  0  0  0  0
    8.5682   -1.8458    0.3419 C   0  0  0  0  0  0  0  0  0  0  0  0
    8.5975   -0.5101    1.0913 C   0  0  0  0  0  0  0  0  0  0  0  0
    6.1078   -1.7293    0.0274 C   0  0  0  0  0  0  0  0  0  0  0  0
    5.9752   -0.4464    0.0209 N   0  0  0  0  0  0  0  0  0  0  0  0
    7.3286   -2.3877    0.0464 N   0  0  0  0  0  0  0  0  0  0  0  0
    9.5976   -2.4564    0.1320 O   0  0  0  0  0  0  0  0  0  0  0  0
    9.2136    0.4397    0.3729 O   0  0  0  0  0  0  0  0  0  0  0  0
    8.2287   -0.3957    2.2347 O   0  0  0  0  0  0  0  0  0  0  0  0
    4.6088   -2.6921    0.0310 S   0  0  0  0  0  0  0  0  0  0  0  0
    0.0747    1.2332   -0.8776 H   0  0  0  0  0  0  0  0  0  0  0  0
    0.0423    1.1387    0.8836 H   0  0  0  0  0  0  0  0  0  0  0  0
   -0.2130   -0.3215   -0.0824 H   0  0  0  0  0  0  0  0  0  0  0  0
    2.3758    2.4327    0.0068 H   0  0  0  0  0  0  0  0  0  0  0  0
    4.8312    2.0470    0.0387 H   0  0  0  0  0  0  0  0  0  0  0  0
    1.6498   -1.8068   -0.0231 H   0  0  0  0  0  0  0  0  0  0  0  0
    7.3751   -3.3408   -0.2972 H   0  0  0  0  0  0  0  0  0  0  0  0
    9.2675    1.2293    0.9456 H   0  0  0  0  0  0  0  0  0  0  0  0
  1  5  1  0  0  0  0
  1 18  1  0  0  0  0
  2  3  2  0  0  0  0
  3  6  1  0  0  0  0
  3 21  1  0  0  0  0
  4  7  1  0  0  0  0
  5  4  2  0  0  0  0
  5  2  1  0  0  0  0
  7 16  1  0  0  0  0
  7  6  2  0  0  0  0
  8  9  1  0  0  0  0
  9 15  2  0  0  0  0
 10 16  1  0  0  0  0
 10 12  1  0  0  0  0
 11 10  2  0  0  0  0
 11  6  1  0  0  0  0
 12  8  1  0  0  0  0
 13  8  2  0  0  0  0
 14 24  1  0  0  0  0
 14  9  1  0  0  0  0
 17  1  1  0  0  0  0
 19  1  1  0  0  0  0
 20  2  1  0  0  0  0
 22  4  1  0  0  0  0
 23 12  1  0  0  0  0
M  END
>  <HBA>
6

>  <HBD>
2

>  <TPSA>
107.53

>  <cid>
59853

>  <dipole>
4.05

>  <excitation_energy_1>
4.21

>  <excitation_energy_2>
4.445

>  <excitation_energy_3>
4.556

>  <excitation_energy_4>
4.707

>  <homo_energy>
-6.24

>  <homo_lumo_gap>
4.816

>  <logP>
1.701

>  <lumo_energy>
-1.423

>  <melting_point>
200.67

>  <molecular_refractivity>
60.67

>  <oscillator_strength_1>
0.2991

>  <oscillator_strength_2>
0.0133

>  <oscillator_strength_3>
0.004

>  <oscillator_strength_4>
0.0343

>  <open_babel_can_smiles>
Cc1ccc2c(c1)sc(n2)NC(=O)C(=O)O

>  <mulliken_charges>
24
1   -0.532193
2   -0.193942
3   -0.143611
4   -0.241846
5   0.189789
6   0.300435
7   -0.119822
8   0.566742
9   0.538036
10   0.335176
11   -0.513439
12   -0.662411
13   -0.449245
14   -0.538691
15   -0.434818
16   0.215199
17   0.166234
18   0.168178
19   0.157666
20   0.130865
21   0.145655
22   0.140377
23   0.358746
24   0.41692

>  <lowdin_charges>
24
1   -0.442109
2   -0.162481
3   -0.153982
4   -0.173455
5   0.004564
6   0.023494
7   -0.143091
8   0.169838
9   0.176106
10   -0.022929
11   -0.17246
12   -0.220464
13   -0.237016
14   -0.321423
15   -0.233633
16   0.253361
17   0.163485
18   0.164071
19   0.158273
20   0.159113
21   0.171675
22   0.16522
23   0.305904
24   0.36794

$$$$

