PCCDB-ID:  58378
public computational chemistry database (PCCDB) project, http://pccdb.org

 42 44  0  0  1  0  0  0  0  0999 V2000
    4.3132   -5.2619   -0.7649 C   0  0  0  0  0  0  0  0  0  0  0  0
    4.2380   -3.7417   -0.9420 C   0  0  0  0  0  0  0  0  0  0  0  0
    4.8539   -2.9747    0.2359 C   0  0  0  0  0  0  0  0  0  0  0  0
    4.3205    1.4088    3.4160 C   0  0  0  0  0  0  0  0  0  0  0  0
    6.7734    1.3761    2.8423 C   0  0  0  0  0  0  0  0  0  0  0  0
    5.7915   -0.4447    4.2754 C   0  0  0  0  0  0  0  0  0  0  0  0
    5.0656    0.8851    1.0673 C   0  0  0  0  0  0  0  0  0  0  0  0
    4.0801   -0.9235    2.4905 C   0  0  0  0  0  0  0  0  0  0  0  0
    6.5337   -0.9642    1.9255 C   0  0  0  0  0  0  0  0  0  0  0  0
    5.1865   -0.5645   -2.0618 C   0  0  0  0  0  0  0  0  0  0  0  0
    5.3625    1.7247    2.3255 C   0  0  1  0  0  0  0  0  0  0  0  0
    4.3820   -0.0929    3.7561 C   0  0  2  0  0  0  0  0  0  0  0  0
    6.8358   -0.1257    3.1859 C   0  0  1  0  0  0  0  0  0  0  0  0
    4.7802   -1.4398    0.0818 C   0  0  1  0  0  0  0  0  0  0  0  0
    5.1219   -0.6349    1.3774 C   0  0  2  0  0  0  0  0  0  0  0  0
    5.6800   -1.0483   -1.0039 N   0  0  0  0  0  0  0  0  0  0  0  0
    5.9438   -0.1855   -3.1154 O   0  0  0  0  0  0  0  0  0  0  0  0
    3.8650   -5.7856   -1.6171 H   0  0  0  0  0  0  0  0  0  0  0  0
    3.7839   -5.5848    0.1403 H   0  0  0  0  0  0  0  0  0  0  0  0
    5.3533   -5.5989   -0.6767 H   0  0  0  0  0  0  0  0  0  0  0  0
    3.1870   -3.4401   -1.0618 H   0  0  0  0  0  0  0  0  0  0  0  0
    4.7480   -3.4582   -1.8710 H   0  0  0  0  0  0  0  0  0  0  0  0
    5.9048   -3.2688    0.3488 H   0  0  0  0  0  0  0  0  0  0  0  0
    4.3383   -3.2760    1.1556 H   0  0  0  0  0  0  0  0  0  0  0  0
    3.3137    1.6751    3.0646 H   0  0  0  0  0  0  0  0  0  0  0  0
    4.5144    2.0103    4.3151 H   0  0  0  0  0  0  0  0  0  0  0  0
    7.0127    1.9783    3.7299 H   0  0  0  0  0  0  0  0  0  0  0  0
    7.5247    1.6197    2.0782 H   0  0  0  0  0  0  0  0  0  0  0  0
    5.8401   -1.5093    4.5443 H   0  0  0  0  0  0  0  0  0  0  0  0
    6.0101    0.1247    5.1897 H   0  0  0  0  0  0  0  0  0  0  0  0
    5.7919    1.1274    0.2832 H   0  0  0  0  0  0  0  0  0  0  0  0
    4.0716    1.1425    0.6704 H   0  0  0  0  0  0  0  0  0  0  0  0
    3.0704   -0.6885    2.1221 H   0  0  0  0  0  0  0  0  0  0  0  0
    4.0805   -1.9881    2.7553 H   0  0  0  0  0  0  0  0  0  0  0  0
    6.6025   -2.0310    2.1763 H   0  0  0  0  0  0  0  0  0  0  0  0
    7.2815   -0.7704    1.1468 H   0  0  0  0  0  0  0  0  0  0  0  0
    4.1250   -0.3899   -2.2678 H   0  0  0  0  0  0  0  0  0  0  0  0
    5.3165    2.7912    2.0671 H   0  0  0  0  0  0  0  0  0  0  0  0
    3.6360   -0.3292    4.5267 H   0  0  0  0  0  0  0  0  0  0  0  0
    7.8393   -0.3783    3.5542 H   0  0  0  0  0  0  0  0  0  0  0  0
    3.7340   -1.1810   -0.1738 H   0  0  0  0  0  0  0  0  0  0  0  0
    6.8682   -0.3694   -2.8618 H   0  0  0  0  0  0  0  0  0  0  0  0
  1 20  1  0  0  0  0
  1 19  1  0  0  0  0
  2  1  1  0  0  0  0
  2  3  1  0  0  0  0
  3 23  1  0  0  0  0
  3 24  1  0  0  0  0
  4 12  1  0  0  0  0
  4 26  1  0  0  0  0
  5 13  1  0  0  0  0
  5 27  1  0  0  0  0
  6 29  1  0  0  0  0
  6 30  1  0  0  0  0
  7 15  1  0  0  0  0
  7 11  1  0  0  0  0
  8 34  1  0  0  0  0
  8 12  1  0  0  0  0
  9 35  1  0  0  0  0
  9 13  1  0  0  0  0
 10 16  2  0  0  0  0
 11 38  1  6  0  0  0
 11  5  1  0  0  0  0
 11  4  1  0  0  0  0
 12  6  1  0  0  0  0
 12 39  1  1  0  0  0
 13 40  1  1  0  0  0
 13  6  1  0  0  0  0
 14 41  1  6  0  0  0
 14  3  1  0  0  0  0
 15 14  1  6  0  0  0
 15  9  1  0  0  0  0
 15  8  1  0  0  0  0
 16 14  1  0  0  0  0
 17 42  1  0  0  0  0
 17 10  1  0  0  0  0
 18  1  1  0  0  0  0
 21  2  1  0  0  0  0
 22  2  1  0  0  0  0
 25  4  1  0  0  0  0
 28  5  1  0  0  0  0
 31  7  1  0  0  0  0
 32  7  1  0  0  0  0
 33  8  1  0  0  0  0
 36  9  1  0  0  0  0
 37 10  1  0  0  0  0
M  END
>  <HBA>
2

>  <HBD>
1

>  <TPSA>
29.1

>  <cid>
58378

>  <dipole>
0.4

>  <excitation_energy_1>
5.968

>  <excitation_energy_2>
6.325

>  <excitation_energy_3>
6.454

>  <excitation_energy_4>
6.499

>  <homo_energy>
-6.841

>  <homo_lumo_gap>
7.51

>  <logP>
4.144

>  <lumo_energy>
0.669

>  <melting_point>
102.45

>  <molecular_refractivity>
71.01

>  <oscillator_strength_1>
0.0014

>  <oscillator_strength_2>
0.0001

>  <oscillator_strength_3>
0.008

>  <oscillator_strength_4>
0.0193

>  <open_babel_can_smiles>
CCC[C@@H]([C@]12C[C@H]3C[C@@H](C2)C[C@@H](C1)C3)/N=C/O

>  <mulliken_charges>
42
1   -0.441758
2   -0.256425
3   -0.25824
4   -0.262387
5   -0.26327
6   -0.264353
7   -0.281959
8   -0.282702
9   -0.279728
10   0.285683
11   -0.090045
12   -0.089668
13   -0.091727
14   0.006107
15   0.087421
16   -0.408916
17   -0.562864
18   0.141555
19   0.140016
20   0.14269
21   0.124645
22   0.13995
23   0.143792
24   0.132758
25   0.122641
26   0.123414
27   0.122576
28   0.124782
29   0.123138
30   0.123578
31   0.138469
32   0.113922
33   0.12062
34   0.128989
35   0.124943
36   0.141441
37   0.140401
38   0.112929
39   0.113134
40   0.112913
41   0.097056
42   0.404478

>  <lowdin_charges>
42
1   -0.443951
2   -0.274048
3   -0.281691
4   -0.281033
5   -0.282337
6   -0.279838
7   -0.283148
8   -0.279344
9   -0.280973
10   0.011085
11   -0.128867
12   -0.130968
13   -0.129877
14   -0.053935
15   -0.002731
16   -0.222958
17   -0.360265
18   0.150007
19   0.145477
20   0.145904
21   0.134377
22   0.143437
23   0.146584
24   0.143708
25   0.137445
26   0.139049
27   0.138815
28   0.140186
29   0.13667
30   0.139037
31   0.146867
32   0.134015
33   0.136267
34   0.13844
35   0.137925
36   0.148638
37   0.137423
38   0.136065
39   0.138629
40   0.137052
41   0.117468
42   0.355396

$$$$

