PCCDB-ID:  23661
public computational chemistry database (PCCDB) project, http://pccdb.org

 25 26  0  0  0  0  0  0  0  0999 V2000
    2.6934   -0.1615    0.0772 C   0  0  0  0  0  0  0  0  0  0  0  0
    2.0371    1.0388   -0.6206 C   0  0  0  0  0  0  0  0  0  0  0  0
    1.7235   -1.3491    0.1689 C   0  0  0  0  0  0  0  0  0  0  0  0
    0.7196    1.4376    0.0630 C   0  0  0  0  0  0  0  0  0  0  0  0
    0.4026   -0.9425    0.8409 C   0  0  0  0  0  0  0  0  0  0  0  0
   -0.9112   -0.1347   -1.1929 C   0  0  0  0  0  0  0  0  0  0  0  0
   -1.5547    0.6733    0.9318 C   0  0  0  0  0  0  0  0  0  0  0  0
   -2.3173   -0.5994   -0.8278 C   0  0  0  0  0  0  0  0  0  0  0  0
   -0.2791    0.2683    0.1564 C   0  0  0  0  0  0  0  0  0  0  0  0
   -3.0822   -1.2587   -1.4811 O   0  0  0  0  0  0  0  0  0  0  0  0
   -2.6271   -0.1412    0.4208 O   0  0  0  0  0  0  0  0  0  0  0  0
    3.0013    0.1339    1.0912 H   0  0  0  0  0  0  0  0  0  0  0  0
    3.6071   -0.4559   -0.4536 H   0  0  0  0  0  0  0  0  0  0  0  0
    1.8405    0.7860   -1.6725 H   0  0  0  0  0  0  0  0  0  0  0  0
    2.7219    1.8958   -0.6316 H   0  0  0  0  0  0  0  0  0  0  0  0
    2.1800   -2.1737    0.7301 H   0  0  0  0  0  0  0  0  0  0  0  0
    1.5288   -1.7384   -0.8403 H   0  0  0  0  0  0  0  0  0  0  0  0
    0.2550    2.2804   -0.4665 H   0  0  0  0  0  0  0  0  0  0  0  0
    0.9396    1.7930    1.0815 H   0  0  0  0  0  0  0  0  0  0  0  0
    0.6096   -0.6702    1.8862 H   0  0  0  0  0  0  0  0  0  0  0  0
   -0.2897   -1.7939    0.8753 H   0  0  0  0  0  0  0  0  0  0  0  0
   -1.0015    0.7262   -1.8696 H   0  0  0  0  0  0  0  0  0  0  0  0
   -0.3927   -0.9245   -1.7404 H   0  0  0  0  0  0  0  0  0  0  0  0
   -1.8106    1.7283    0.7662 H   0  0  0  0  0  0  0  0  0  0  0  0
   -1.4859    0.4922    2.0079 H   0  0  0  0  0  0  0  0  0  0  0  0
  1  3  1  0  0  0  0
  1 12  1  0  0  0  0
  2  4  1  0  0  0  0
  2  1  1  0  0  0  0
  3 16  1  0  0  0  0
  3  5  1  0  0  0  0
  4  9  1  0  0  0  0
  4 19  1  0  0  0  0
  5 21  1  0  0  0  0
  5 20  1  0  0  0  0
  6  8  1  0  0  0  0
  6  9  1  0  0  0  0
  7 25  1  0  0  0  0
  8 11  1  0  0  0  0
  9  5  1  0  0  0  0
  9  7  1  0  0  0  0
 10  8  2  0  0  0  0
 11  7  1  0  0  0  0
 13  1  1  0  0  0  0
 14  2  1  0  0  0  0
 15  2  1  0  0  0  0
 17  3  1  0  0  0  0
 18  4  1  0  0  0  0
 22  6  1  0  0  0  0
 23  6  1  0  0  0  0
 24  7  1  0  0  0  0
M  END
>  <HBA>
2

>  <HBD>
0

>  <TPSA>
26.3

>  <cid>
23661

>  <dipole>
4.78

>  <excitation_energy_1>
5.643

>  <excitation_energy_2>
6.639

>  <excitation_energy_3>
7.008

>  <excitation_energy_4>
7.155

>  <homo_energy>
-7.119

>  <homo_lumo_gap>
7.508

>  <logP>
1.884

>  <lumo_energy>
0.389

>  <melting_point>
47.73

>  <molecular_refractivity>
42.17

>  <oscillator_strength_1>
0.0007

>  <oscillator_strength_2>
0.0083

>  <oscillator_strength_3>
0.0176

>  <oscillator_strength_4>
0.0005

>  <open_babel_can_smiles>
O=C1OCC2(C1)CCCCC2

>  <mulliken_charges>
25
1   -0.2574
2   -0.263578
3   -0.26717
4   -0.285103
5   -0.276487
6   -0.400053
7   -0.044733
8   0.611452
9   0.058903
10   -0.457664
11   -0.447212
12   0.130804
13   0.137007
14   0.136522
15   0.138088
16   0.140474
17   0.136397
18   0.132069
19   0.133004
20   0.13224
21   0.147917
22   0.175987
23   0.183054
24   0.148347
25   0.157138

>  <lowdin_charges>
25
1   -0.277338
2   -0.277432
3   -0.279405
4   -0.278044
5   -0.278875
6   -0.320326
7   -0.127542
8   0.193539
9   -0.01094
10   -0.237571
11   -0.19191
12   0.138236
13   0.147384
14   0.139685
15   0.148375
16   0.150479
17   0.139931
18   0.144412
19   0.140886
20   0.140509
21   0.151516
22   0.172788
23   0.174983
24   0.143121
25   0.153539

$$$$

