PCCDB-ID:  61228
public computational chemistry database (PCCDB) project, http://pccdb.org

 18 18  0  0  0  0  0  0  0  0999 V2000
    1.2148   -0.9994    0.4516 C   0  0  0  0  0  0  0  0  0  0  0  0
    0.0916    3.8143   -0.8060 C   0  0  0  0  0  0  0  0  0  0  0  0
    1.4434    3.3692   -0.7886 C   0  0  0  0  0  0  0  0  0  0  0  0
   -0.6625    2.7356   -0.4424 C   0  0  0  0  0  0  0  0  0  0  0  0
    2.4961    1.1073   -0.2353 C   0  0  0  0  0  0  0  0  0  0  0  0
    3.7526   -0.8857    0.2206 C   0  0  0  0  0  0  0  0  0  0  0  0
    2.4494   -0.1999    0.1330 C   0  0  0  0  0  0  0  0  0  0  0  0
    1.4264    2.0430   -0.4131 C   0  0  0  0  0  0  0  0  0  0  0  0
    3.9087   -2.0541    0.5306 O   0  0  0  0  0  0  0  0  0  0  0  0
    0.1233    1.6560   -0.2005 O   0  0  0  0  0  0  0  0  0  0  0  0
    0.6585   -0.5623    1.2879 H   0  0  0  0  0  0  0  0  0  0  0  0
    1.5084   -2.0183    0.7144 H   0  0  0  0  0  0  0  0  0  0  0  0
    0.5287   -1.0354   -0.4017 H   0  0  0  0  0  0  0  0  0  0  0  0
   -0.2743    4.8001   -1.0556 H   0  0  0  0  0  0  0  0  0  0  0  0
    2.3274    3.9478   -1.0192 H   0  0  0  0  0  0  0  0  0  0  0  0
   -1.7231    2.5808   -0.3136 H   0  0  0  0  0  0  0  0  0  0  0  0
    3.4777    1.5381   -0.4330 H   0  0  0  0  0  0  0  0  0  0  0  0
    4.6297   -0.2451   -0.0253 H   0  0  0  0  0  0  0  0  0  0  0  0
  1 12  1  0  0  0  0
  1 11  1  0  0  0  0
  2  3  1  0  0  0  0
  2  4  2  0  0  0  0
  3  8  2  0  0  0  0
  4 16  1  0  0  0  0
  4 10  1  0  0  0  0
  5  7  2  0  0  0  0
  6  9  2  0  0  0  0
  7  6  1  0  0  0  0
  7  1  1  0  0  0  0
  8  5  1  0  0  0  0
  8 10  1  0  0  0  0
 13  1  1  0  0  0  0
 14  2  1  0  0  0  0
 15  3  1  0  0  0  0
 17  5  1  0  0  0  0
 18  6  1  0  0  0  0
M  END
>  <HBA>
2

>  <HBD>
0

>  <TPSA>
30.21

>  <cid>
61228

>  <dipole>
4.88

>  <excitation_energy_1>
3.494

>  <excitation_energy_2>
4.087

>  <excitation_energy_3>
5.332

>  <excitation_energy_4>
5.418

>  <homo_energy>
-6.016

>  <homo_lumo_gap>
4.09

>  <logP>
1.882

>  <lumo_energy>
-1.927

>  <melting_point>
59.88

>  <molecular_refractivity>
38.61

>  <oscillator_strength_1>
0.0001

>  <oscillator_strength_2>
0.7084

>  <oscillator_strength_3>
0.0261

>  <oscillator_strength_4>
0.0011

>  <open_babel_can_smiles>
O=C/C(=C/c1ccco1)/C

>  <mulliken_charges>
18
1   -0.522538
2   -0.186941
3   -0.184116
4   0.103147
5   -0.229714
6   0.203587
7   0.113983
8   0.344792
9   -0.425515
10   -0.446862
11   0.166431
12   0.182644
13   0.166411
14   0.153054
15   0.152998
16   0.166611
17   0.145326
18   0.096704

>  <lowdin_charges>
18
1   -0.448837
2   -0.199576
3   -0.188135
4   -0.058345
5   -0.147249
6   0.026849
7   -0.038693
8   0.065835
9   -0.237776
10   -0.088147
11   0.166674
12   0.172163
13   0.166282
14   0.174519
15   0.175107
16   0.174926
17   0.168961
18   0.115442

$$$$

