PCCDB-ID:  24688
public computational chemistry database (PCCDB) project, http://pccdb.org

 19 18  0  0  1  0  0  0  0  0999 V2000
    3.2298   -1.2666   -0.3527 C   0  0  0  0  0  0  0  0  0  0  0  0
    1.8962    1.6325    1.9495 C   0  0  0  0  0  0  0  0  0  0  0  0
    2.6292   -0.5402    0.8569 C   0  0  0  0  0  0  0  0  0  0  0  0
    4.0951    1.5585    0.7004 C   0  0  0  0  0  0  0  0  0  0  0  0
    2.6696    0.9993    0.7823 C   0  0  2  0  0  0  0  0  0  0  0  0
    5.9559    0.4052    1.5762 N   0  0  0  0  0  0  0  0  0  0  0  0
    6.5696    0.1377    2.5495 O   0  0  0  0  0  0  0  0  0  0  0  0
    4.8488    1.2404    1.8890 O   0  0  0  0  0  0  0  0  0  0  0  0
    3.0734   -2.3479   -0.2703 H   0  0  0  0  0  0  0  0  0  0  0  0
    4.3094   -1.1020   -0.4388 H   0  0  0  0  0  0  0  0  0  0  0  0
    2.7630   -0.9356   -1.2891 H   0  0  0  0  0  0  0  0  0  0  0  0
    0.8596    1.2778    1.9680 H   0  0  0  0  0  0  0  0  0  0  0  0
    1.8759    2.7260    1.8690 H   0  0  0  0  0  0  0  0  0  0  0  0
    2.3585    1.3761    2.9089 H   0  0  0  0  0  0  0  0  0  0  0  0
    3.1377   -0.8657    1.7742 H   0  0  0  0  0  0  0  0  0  0  0  0
    1.5798   -0.8426    0.9705 H   0  0  0  0  0  0  0  0  0  0  0  0
    4.0759    2.6520    0.6321 H   0  0  0  0  0  0  0  0  0  0  0  0
    4.6419    1.1654   -0.1628 H   0  0  0  0  0  0  0  0  0  0  0  0
    2.1853    1.3062   -0.1586 H   0  0  0  0  0  0  0  0  0  0  0  0
  1  9  1  0  0  0  0
  1  3  1  0  0  0  0
  2 12  1  0  0  0  0
  2 14  1  0  0  0  0
  3 16  1  0  0  0  0
  3 15  1  0  0  0  0
  4  5  1  0  0  0  0
  4  8  1  0  0  0  0
  5 19  1  6  0  0  0
  5  3  1  0  0  0  0
  5  2  1  0  0  0  0
  6  8  1  0  0  0  0
  6  7  1  0  0  0  0
 10  1  1  0  0  0  0
 11  1  1  0  0  0  0
 13  2  1  0  0  0  0
 17  4  1  0  0  0  0
 18  4  1  0  0  0  0
M  RAD  2   6   2   7   2
M  END
>  <HBA>
1

>  <HBD>
0

>  <TPSA>
38.66

>  <cid>
24688

>  <dipole>
2.51

>  <excitation_energy_1>
3.404

>  <excitation_energy_2>
5.314

>  <excitation_energy_3>
5.795

>  <excitation_energy_4>
5.851

>  <homo_energy>
-7.372

>  <homo_lumo_gap>
5.312

>  <logP>
1.73

>  <lumo_energy>
-2.06

>  <melting_point>
-13.45

>  <molecular_refractivity>
31.97

>  <oscillator_strength_1>
0.0011

>  <oscillator_strength_2>
0.0581

>  <oscillator_strength_3>
0.0015

>  <oscillator_strength_4>
0.0007

>  <open_babel_can_smiles>
C[C@H](CC)CO[N][O]

>  <mulliken_charges>
19
1   -0.458339
2   -0.45261
3   -0.254824
4   -0.050645
5   -0.086208
6   0.280716
7   -0.238922
8   -0.355271
9   0.149051
10   0.154275
11   0.140635
12   0.145454
13   0.140668
14   0.16434
15   0.144833
16   0.136139
17   0.153104
18   0.160386
19   0.127218

>  <lowdin_charges>
19
1   -0.447478
2   -0.444129
3   -0.277012
4   -0.147614
5   -0.134723
6   0.13411
7   -0.127347
8   -0.193012
9   0.152602
10   0.148406
11   0.145981
12   0.150087
13   0.146772
14   0.157565
15   0.146478
16   0.144209
17   0.149137
18   0.152829
19   0.14314

$$$$

