PCCDB-ID:  70487
public computational chemistry database (PCCDB) project, http://pccdb.org

 18 18  0  0  1  0  0  0  0  0999 V2000
   -0.7914    1.2168   -0.0054 C   0  0  0  0  0  0  0  0  0  0  0  0
   -1.4315    0.0120   -0.0184 C   0  0  2  0  0  0  0  0  0  0  0  0
    0.6674    1.2554    0.0198 C   0  0  0  0  0  0  0  0  0  0  0  0
    0.6813   -1.2383    0.0230 C   0  0  0  0  0  0  0  0  0  0  0  0
   -1.5912    2.4037   -0.0403 N   0  0  0  0  0  0  0  0  0  0  0  0
   -2.8078   -0.1192    0.0364 N   0  0  0  0  0  0  0  0  0  0  0  0
    1.4386    2.2865    0.0386 N   0  0  0  0  0  0  0  0  0  0  0  0
    1.3917   -2.3019    0.0999 N   0  0  0  0  0  0  0  0  0  0  0  0
   -0.7215   -1.1791   -0.0493 N   0  0  0  0  0  0  0  0  0  0  0  0
    1.2842   -0.0005   -0.0116 N   0  0  0  0  0  0  0  0  0  0  0  0
   -1.5010    2.9472    0.8177 H   0  0  0  0  0  0  0  0  0  0  0  0
   -1.3195    3.0153   -0.8097 H   0  0  0  0  0  0  0  0  0  0  0  0
   -3.2444    0.7933   -0.0721 H   0  0  0  0  0  0  0  0  0  0  0  0
   -3.1929   -0.8085   -0.6022 H   0  0  0  0  0  0  0  0  0  0  0  0
    0.8710    3.1359    0.0653 H   0  0  0  0  0  0  0  0  0  0  0  0
    0.8126   -3.1416    0.0794 H   0  0  0  0  0  0  0  0  0  0  0  0
   -1.2116   -2.0110    0.2508 H   0  0  0  0  0  0  0  0  0  0  0  0
    2.2960   -0.0048    0.0199 H   0  0  0  0  0  0  0  0  0  0  0  0
  1  3  2  0  0  0  0
  2  1  1  0  0  0  0
  2  6  1  1  0  0  0
  3  7  1  0  0  0  0
  4  8  2  0  0  0  0
  5  1  1  0  0  0  0
  5 11  1  0  0  0  0
  7 15  1  0  0  0  0
  9  2  1  0  0  0  0
  9  4  1  0  0  0  0
  9 17  1  0  0  0  0
 10  3  1  0  0  0  0
 10 18  1  0  0  0  0
 10  4  1  0  0  0  0
 12  5  1  0  0  0  0
 13  6  1  0  0  0  0
 14  6  1  0  0  0  0
 16  8  1  0  0  0  0
M  RAD  2   2   2   7   2
M  END
>  <HBA>
6

>  <HBD>
4

>  <TPSA>
129.86

>  <cid>
70487

>  <dipole>
5.5

>  <excitation_energy_1>
4.506

>  <excitation_energy_2>
4.874

>  <excitation_energy_3>
4.91

>  <excitation_energy_4>
5.134

>  <homo_energy>
-5.559

>  <homo_lumo_gap>
5.516

>  <logP>
1.13

>  <lumo_energy>
-0.044

>  <melting_point>
233.96

>  <molecular_refractivity>
39.65

>  <oscillator_strength_1>
0.0056

>  <oscillator_strength_2>
0.0141

>  <oscillator_strength_3>
0.0859

>  <oscillator_strength_4>
0.0056

>  <open_babel_can_smiles>
N=C1N[C](N)C(=C(N1)[NH])N

>  <mulliken_charges>
18
1   0.10225
2   0.519021
3   0.497016
4   0.68175
5   -0.822506
6   -0.777661
7   -0.658553
8   -0.653158
9   -0.734251
10   -0.683033
11   0.320219
12   0.31629
13   0.356815
14   0.323818
15   0.257364
16   0.269651
17   0.334221
18   0.350746

>  <lowdin_charges>
18
1   -0.116906
2   0.110593
3   0.086047
4   0.1413
5   -0.526145
6   -0.480499
7   -0.460056
8   -0.470782
9   -0.260873
10   -0.225511
11   0.268535
12   0.26727
13   0.294867
14   0.280203
15   0.241464
16   0.251137
17   0.293744
18   0.305614

$$$$

