PCCDB-ID:  25220
public computational chemistry database (PCCDB) project, http://pccdb.org

 35 35  0  0  1  0  0  0  0  0999 V2000
   10.7434   -5.8961   -3.4286 C   0  0  0  0  0  0  0  0  0  0  0  0
    9.9085   -4.8972   -4.2398 C   0  0  0  0  0  0  0  0  0  0  0  0
    8.5192   -4.5962   -3.6530 C   0  0  0  0  0  0  0  0  0  0  0  0
    7.8624   -0.1637    1.6872 C   0  0  0  0  0  0  0  0  0  0  0  0
    5.6179   -0.4803    0.8595 C   0  0  0  0  0  0  0  0  0  0  0  0
    7.3630    0.4837    2.8147 C   0  0  0  0  0  0  0  0  0  0  0  0
    5.1001    0.1681    1.9749 C   0  0  0  0  0  0  0  0  0  0  0  0
    8.5523   -3.8324   -2.3270 C   0  0  0  0  0  0  0  0  0  0  0  0
    7.0818   -2.8504   -0.5928 C   0  0  0  0  0  0  0  0  0  0  0  0
    7.0017   -0.6637    0.7029 C   0  0  0  0  0  0  0  0  0  0  0  0
    5.9855    0.6373    2.9448 C   0  0  0  0  0  0  0  0  0  0  0  0
    7.5464   -1.3788   -0.5326 C   0  0  1  0  0  0  0  0  0  0  0  0
    7.1986   -3.4361   -1.9222 N   0  0  0  0  0  0  0  0  0  0  0  0
    5.4515    1.3189    4.1329 N   0  0  0  0  0  0  0  0  0  0  0  0
    8.9649   -1.2681   -0.6302 O   0  0  0  0  0  0  0  0  0  0  0  0
    6.2566    1.7145    4.9760 O   0  0  0  0  0  0  0  0  0  0  0  0
    4.2302    1.4520    4.2165 O   0  0  0  0  0  0  0  0  0  0  0  0
   11.7076   -6.0859   -3.9135 H   0  0  0  0  0  0  0  0  0  0  0  0
   10.2244   -6.8580   -3.3324 H   0  0  0  0  0  0  0  0  0  0  0  0
   10.9515   -5.5290   -2.4173 H   0  0  0  0  0  0  0  0  0  0  0  0
    9.7778   -5.2857   -5.2582 H   0  0  0  0  0  0  0  0  0  0  0  0
   10.4636   -3.9545   -4.3437 H   0  0  0  0  0  0  0  0  0  0  0  0
    7.9700   -5.5418   -3.5202 H   0  0  0  0  0  0  0  0  0  0  0  0
    7.9412   -3.9988   -4.3694 H   0  0  0  0  0  0  0  0  0  0  0  0
    8.9335   -0.2616    1.5515 H   0  0  0  0  0  0  0  0  0  0  0  0
    4.9339   -0.8418    0.0957 H   0  0  0  0  0  0  0  0  0  0  0  0
    8.0186    0.8746    3.5832 H   0  0  0  0  0  0  0  0  0  0  0  0
    4.0355    0.3192    2.1044 H   0  0  0  0  0  0  0  0  0  0  0  0
    9.1514   -2.9241   -2.4435 H   0  0  0  0  0  0  0  0  0  0  0  0
    9.0492   -4.4419   -1.5458 H   0  0  0  0  0  0  0  0  0  0  0  0
    6.0278   -2.8951   -0.3002 H   0  0  0  0  0  0  0  0  0  0  0  0
    7.6455   -3.4082    0.1878 H   0  0  0  0  0  0  0  0  0  0  0  0
    7.1594   -0.8790   -1.4279 H   0  0  0  0  0  0  0  0  0  0  0  0
    6.5962   -4.2563   -1.9631 H   0  0  0  0  0  0  0  0  0  0  0  0
    9.3528   -1.9732   -0.0864 H   0  0  0  0  0  0  0  0  0  0  0  0
  1 19  1  0  0  0  0
  1 20  1  0  0  0  0
  2  3  1  0  0  0  0
  2  1  1  0  0  0  0
  3 23  1  0  0  0  0
  3  8  1  0  0  0  0
  4  6  2  0  0  0  0
  5  7  1  0  0  0  0
  6 11  1  0  0  0  0
  6 27  1  0  0  0  0
  7 28  1  0  0  0  0
  7 11  2  0  0  0  0
  8 13  1  0  0  0  0
  8 30  1  0  0  0  0
  9 12  1  0  0  0  0
  9 31  1  0  0  0  0
  9 32  1  0  0  0  0
 10  5  2  0  0  0  0
 10  4  1  0  0  0  0
 11 14  1  0  0  0  0
 12 33  1  6  0  0  0
 12 10  1  0  0  0  0
 13  9  1  0  0  0  0
 14 17  2  0  0  0  0
 14 16  2  0  0  0  0
 15 12  1  0  0  0  0
 15 35  1  0  0  0  0
 18  1  1  0  0  0  0
 21  2  1  0  0  0  0
 22  2  1  0  0  0  0
 24  3  1  0  0  0  0
 25  4  1  0  0  0  0
 26  5  1  0  0  0  0
 29  8  1  0  0  0  0
 34 13  1  0  0  0  0
M  END
>  <HBA>
2

>  <HBD>
2

>  <TPSA>
78.08

>  <cid>
25220

>  <dipole>
5.66

>  <excitation_energy_1>
3.417

>  <excitation_energy_2>
3.748

>  <excitation_energy_3>
4.269

>  <excitation_energy_4>
4.273

>  <homo_energy>
-6.338

>  <homo_lumo_gap>
3.995

>  <logP>
2.932

>  <lumo_energy>
-2.343

>  <melting_point>
89.43

>  <molecular_refractivity>
68.23

>  <oscillator_strength_1>
0.0036

>  <oscillator_strength_2>
0.0

>  <oscillator_strength_3>
0.001

>  <oscillator_strength_4>
0.0124

>  <open_babel_can_smiles>
CCCCNC[C@@H](c1ccc(cc1)N(=O)=O)O

>  <mulliken_charges>
35
1   -0.444148
2   -0.253132
3   -0.269703
4   -0.195342
5   -0.191833
6   -0.148568
7   -0.151914
8   -0.127792
9   -0.156622
10   0.153051
11   0.275445
12   0.074222
13   -0.552933
14   0.378111
15   -0.614905
16   -0.396259
17   -0.39697
18   0.145988
19   0.141542
20   0.144119
21   0.136468
22   0.136712
23   0.121464
24   0.148872
25   0.147835
26   0.145216
27   0.182387
28   0.182213
29   0.167849
30   0.102677
31   0.148132
32   0.106611
33   0.173155
34   0.297398
35   0.390654

>  <lowdin_charges>
35
1   -0.446399
2   -0.271012
3   -0.28257
4   -0.158396
5   -0.16178
6   -0.135044
7   -0.134687
8   -0.214565
9   -0.217172
10   0.002604
11   -0.002286
12   -0.0065
13   -0.359783
14   0.307669
15   -0.447781
16   -0.249072
17   -0.247056
18   0.151479
19   0.146023
20   0.144902
21   0.144047
22   0.142257
23   0.134036
24   0.152536
25   0.167671
26   0.165823
27   0.188406
28   0.185661
29   0.153673
30   0.113244
31   0.153098
32   0.11688
33   0.16608
34   0.255866
35   0.342146

$$$$

