PCCDB-ID:  49386
public computational chemistry database (PCCDB) project, http://pccdb.org

 23 23  0  0  0  0  0  0  0  0999 V2000
    2.6508    0.2627   -1.5196 C   0  0  0  0  0  0  0  0  0  0  0  0
    1.6746   -1.0661    0.3248 C   0  0  0  0  0  0  0  0  0  0  0  0
    8.0948    2.5393    1.0413 C   0  0  0  0  0  0  0  0  0  0  0  0
    6.7976    2.0885    0.6197 C   0  0  0  0  0  0  0  0  0  0  0  0
    7.8836    3.3639    2.1008 C   0  0  0  0  0  0  0  0  0  0  0  0
    4.4002    2.6272    1.5687 C   0  0  0  0  0  0  0  0  0  0  0  0
    3.1768    0.8041    0.8040 C   0  0  0  0  0  0  0  0  0  0  0  0
    5.8952    2.6741    1.4550 C   0  0  0  0  0  0  0  0  0  0  0  0
    3.8157    1.8648    0.4832 N   0  0  0  0  0  0  0  0  0  0  0  0
    2.6249   -0.0597   -0.1037 N   0  0  0  0  0  0  0  0  0  0  0  0
    6.5458    3.4596    2.3693 O   0  0  0  0  0  0  0  0  0  0  0  0
    2.7588   -0.6581   -2.1045 H   0  0  0  0  0  0  0  0  0  0  0  0
    3.4950    0.9252   -1.7115 H   0  0  0  0  0  0  0  0  0  0  0  0
    1.7283    0.7716   -1.8388 H   0  0  0  0  0  0  0  0  0  0  0  0
    1.8509   -2.0069   -0.2112 H   0  0  0  0  0  0  0  0  0  0  0  0
    0.6324   -0.7601    0.1406 H   0  0  0  0  0  0  0  0  0  0  0  0
    1.7921   -1.2560    1.3955 H   0  0  0  0  0  0  0  0  0  0  0  0
    9.0512    2.2819    0.6069 H   0  0  0  0  0  0  0  0  0  0  0  0
    6.5600    1.4249   -0.1983 H   0  0  0  0  0  0  0  0  0  0  0  0
    8.5317    3.9363    2.7470 H   0  0  0  0  0  0  0  0  0  0  0  0
    4.0148    3.6576    1.5309 H   0  0  0  0  0  0  0  0  0  0  0  0
    4.1252    2.2352    2.5676 H   0  0  0  0  0  0  0  0  0  0  0  0
    3.0334    0.4798    1.8460 H   0  0  0  0  0  0  0  0  0  0  0  0
  1 10  1  0  0  0  0
  2 17  1  0  0  0  0
  3  5  2  0  0  0  0
  4  3  1  0  0  0  0
  4  8  2  0  0  0  0
  5 11  1  0  0  0  0
  5 20  1  0  0  0  0
  6 22  1  0  0  0  0
  7 23  1  0  0  0  0
  8  6  1  0  0  0  0
  8 11  1  0  0  0  0
  9  7  2  0  0  0  0
  9  6  1  0  0  0  0
 10  2  1  0  0  0  0
 10  7  1  0  0  0  0
 12  1  1  0  0  0  0
 13  1  1  0  0  0  0
 14  1  1  0  0  0  0
 15  2  1  0  0  0  0
 16  2  1  0  0  0  0
 18  3  1  0  0  0  0
 19  4  1  0  0  0  0
 21  6  1  0  0  0  0
M  END
>  <HBA>
3

>  <HBD>
0

>  <TPSA>
28.74

>  <cid>
49386

>  <dipole>
3.0

>  <excitation_energy_1>
5.163

>  <excitation_energy_2>
5.311

>  <excitation_energy_3>
5.412

>  <excitation_energy_4>
5.579

>  <homo_energy>
-5.521

>  <homo_lumo_gap>
6.34

>  <logP>
1.369

>  <lumo_energy>
0.819

>  <melting_point>
24.89

>  <molecular_refractivity>
44.68

>  <oscillator_strength_1>
0.0411

>  <oscillator_strength_2>
0.0136

>  <oscillator_strength_3>
0.0377

>  <oscillator_strength_4>
0.0234

>  <open_babel_can_smiles>
CN(/C=N/Cc1ccco1)C

>  <mulliken_charges>
23
1   -0.311903
2   -0.308894
3   -0.186574
4   -0.198135
5   0.078459
6   -0.219186
7   0.264835
8   0.347272
9   -0.436014
10   -0.371688
11   -0.445391
12   0.147526
13   0.199973
14   0.14945
15   0.158912
16   0.152242
17   0.162385
18   0.132791
19   0.137685
20   0.145768
21   0.160401
22   0.127437
23   0.112649

>  <lowdin_charges>
23
1   -0.353972
2   -0.343626
3   -0.207335
4   -0.220114
5   -0.090934
6   -0.189771
7   -0.035583
8   0.059208
9   -0.247882
10   -0.101925
11   -0.111121
12   0.149904
13   0.18157
14   0.145237
15   0.152089
16   0.141574
17   0.157878
18   0.164963
19   0.170426
20   0.168035
21   0.154655
22   0.131182
23   0.12554

$$$$

