PCCDB-ID:  12132
public computational chemistry database (PCCDB) project, http://pccdb.org

 28 30  0  0  0  0  0  0  0  0999 V2000
   -2.3604   -1.1041    0.1898 C   0  0  0  0  0  0  0  0  0  0  0  0
   -1.5722   -0.3882    1.0899 C   0  0  0  0  0  0  0  0  0  0  0  0
   -1.7518   -1.8071   -0.8541 C   0  0  0  0  0  0  0  0  0  0  0  0
    4.8601   -6.2826    0.1076 C   0  0  0  0  0  0  0  0  0  0  0  0
    4.0390   -6.4975    1.2323 C   0  0  0  0  0  0  0  0  0  0  0  0
   -0.1819   -0.3755    0.9463 C   0  0  0  0  0  0  0  0  0  0  0  0
   -0.3653   -1.7928   -0.9943 C   0  0  0  0  0  0  0  0  0  0  0  0
    4.7700   -5.1141   -0.6430 C   0  0  0  0  0  0  0  0  0  0  0  0
    3.1030   -5.5502    1.6422 C   0  0  0  0  0  0  0  0  0  0  0  0
    1.9497   -1.0655   -0.2515 C   0  0  0  0  0  0  0  0  0  0  0  0
    0.4379   -1.0739   -0.0962 C   0  0  0  0  0  0  0  0  0  0  0  0
    3.8356   -4.1483   -0.2503 C   0  0  0  0  0  0  0  0  0  0  0  0
    3.0208   -4.3807    0.8852 C   0  0  0  0  0  0  0  0  0  0  0  0
    2.5872   -2.4133   -0.0632 C   0  0  0  0  0  0  0  0  0  0  0  0
    3.5361   -2.9151   -0.8174 N   0  0  0  0  0  0  0  0  0  0  0  0
    2.2375   -3.2437    0.9834 N   0  0  0  0  0  0  0  0  0  0  0  0
   -3.4415   -1.1152    0.2981 H   0  0  0  0  0  0  0  0  0  0  0  0
   -2.0357    0.1636    1.9035 H   0  0  0  0  0  0  0  0  0  0  0  0
   -2.3593   -2.3656   -1.5613 H   0  0  0  0  0  0  0  0  0  0  0  0
    5.5775   -7.0477   -0.1763 H   0  0  0  0  0  0  0  0  0  0  0  0
    4.1373   -7.4225    1.7938 H   0  0  0  0  0  0  0  0  0  0  0  0
    0.4274    0.1918    1.6469 H   0  0  0  0  0  0  0  0  0  0  0  0
    0.1042   -2.3437   -1.8061 H   0  0  0  0  0  0  0  0  0  0  0  0
    5.3998   -4.9436   -1.5108 H   0  0  0  0  0  0  0  0  0  0  0  0
    2.4719   -5.7193    2.5103 H   0  0  0  0  0  0  0  0  0  0  0  0
    2.3839   -0.3565    0.4668 H   0  0  0  0  0  0  0  0  0  0  0  0
    2.2419   -0.7190   -1.2480 H   0  0  0  0  0  0  0  0  0  0  0  0
    1.4796   -3.0804    1.6302 H   0  0  0  0  0  0  0  0  0  0  0  0
  1 17  1  0  0  0  0
  1  2  2  0  0  0  0
  2 18  1  0  0  0  0
  3  1  1  0  0  0  0
  4  5  2  0  0  0  0
  5  9  1  0  0  0  0
  5 21  1  0  0  0  0
  6  2  1  0  0  0  0
  6 22  1  0  0  0  0
  7  3  2  0  0  0  0
  7 11  1  0  0  0  0
  8 12  2  0  0  0  0
  8  4  1  0  0  0  0
  9 25  1  0  0  0  0
 10 11  1  0  0  0  0
 10 14  1  0  0  0  0
 10 26  1  0  0  0  0
 11  6  2  0  0  0  0
 12 13  1  0  0  0  0
 13 16  1  0  0  0  0
 13  9  2  0  0  0  0
 14 16  1  0  0  0  0
 15 12  1  0  0  0  0
 15 14  2  0  0  0  0
 16 28  1  0  0  0  0
 19  3  1  0  0  0  0
 20  4  1  0  0  0  0
 23  7  1  0  0  0  0
 24  8  1  0  0  0  0
 27 10  1  0  0  0  0
M  END
>  <HBA>
1

>  <HBD>
1

>  <TPSA>
28.68

>  <cid>
12132

>  <dipole>
3.52

>  <excitation_energy_1>
4.839

>  <excitation_energy_2>
4.885

>  <excitation_energy_3>
4.993

>  <excitation_energy_4>
5.04

>  <homo_energy>
-5.88

>  <homo_lumo_gap>
5.508

>  <logP>
3.154

>  <lumo_energy>
-0.373

>  <melting_point>
145.66

>  <molecular_refractivity>
65.55

>  <oscillator_strength_1>
0.1361

>  <oscillator_strength_2>
0.0097

>  <oscillator_strength_3>
0.0263

>  <oscillator_strength_4>
0.0008

>  <open_babel_can_smiles>
c1ccc(cc1)Cc1nc2c([nH]1)cccc2

>  <mulliken_charges>
28
1   -0.13036
2   -0.125851
3   -0.128688
4   -0.142976
5   -0.150192
6   -0.204343
7   -0.171905
8   -0.183099
9   -0.17325
10   -0.43245
11   0.151691
12   0.226768
13   0.349033
14   0.516201
15   -0.548517
16   -0.729038
17   0.133454
18   0.133261
19   0.135945
20   0.12343
21   0.124508
22   0.127944
23   0.145474
24   0.136557
25   0.125155
26   0.16826
27   0.189972
28   0.333016

>  <lowdin_charges>
28
1   -0.155323
2   -0.155575
3   -0.152725
4   -0.17334
5   -0.16268
6   -0.177857
7   -0.160397
8   -0.158489
9   -0.187521
10   -0.278094
11   -0.012183
12   0.008797
13   0.018764
14   0.077072
15   -0.206839
16   -0.20782
17   0.157654
18   0.160307
19   0.162036
20   0.157023
21   0.156416
22   0.156956
23   0.16544
24   0.165423
25   0.157346
26   0.16669
27   0.181897
28   0.297022

$$$$

