PCCDB-ID:  61311
public computational chemistry database (PCCDB) project, http://pccdb.org

 21 20  0  0  0  0  0  0  0  0999 V2000
    1.7385   -0.9622   -0.9369 C   0  0  0  0  0  0  0  0  0  0  0  0
    6.3177    0.8455    5.7792 C   0  0  0  0  0  0  0  0  0  0  0  0
    2.5219    0.1157   -0.1681 C   0  0  0  0  0  0  0  0  0  0  0  0
    2.9232   -0.3286    1.2123 C   0  0  0  0  0  0  0  0  0  0  0  0
    4.1791   -0.4344    1.6516 C   0  0  0  0  0  0  0  0  0  0  0  0
    4.5606   -0.9039    3.0297 C   0  0  0  0  0  0  0  0  0  0  0  0
    5.5575    0.0261    3.7047 C   0  0  0  0  0  0  0  0  0  0  0  0
    6.4187    0.6610    3.1363 O   0  0  0  0  0  0  0  0  0  0  0  0
    5.3867    0.0318    5.0459 O   0  0  0  0  0  0  0  0  0  0  0  0
    1.4346   -0.5982   -1.9249 H   0  0  0  0  0  0  0  0  0  0  0  0
    0.8308   -1.2541   -0.3948 H   0  0  0  0  0  0  0  0  0  0  0  0
    2.3460   -1.8633   -1.0768 H   0  0  0  0  0  0  0  0  0  0  0  0
    6.0389    0.7361    6.8277 H   0  0  0  0  0  0  0  0  0  0  0  0
    6.2416    1.8906    5.4678 H   0  0  0  0  0  0  0  0  0  0  0  0
    7.3423    0.5007    5.6157 H   0  0  0  0  0  0  0  0  0  0  0  0
    1.8968    1.0180   -0.0916 H   0  0  0  0  0  0  0  0  0  0  0  0
    3.4151    0.4034   -0.7366 H   0  0  0  0  0  0  0  0  0  0  0  0
    2.1029   -0.5945    1.8838 H   0  0  0  0  0  0  0  0  0  0  0  0
    5.0098   -0.1656    1.0007 H   0  0  0  0  0  0  0  0  0  0  0  0
    5.0586   -1.8857    2.9723 H   0  0  0  0  0  0  0  0  0  0  0  0
    3.6859   -1.0361    3.6731 H   0  0  0  0  0  0  0  0  0  0  0  0
  1 11  1  0  0  0  0
  1  3  1  0  0  0  0
  2 13  1  0  0  0  0
  3 16  1  0  0  0  0
  3  4  1  0  0  0  0
  4  5  2  0  0  0  0
  4 18  1  0  0  0  0
  5  6  1  0  0  0  0
  6 21  1  0  0  0  0
  6  7  1  0  0  0  0
  7  9  1  0  0  0  0
  8  7  2  0  0  0  0
  9  2  1  0  0  0  0
 10  1  1  0  0  0  0
 12  1  1  0  0  0  0
 14  2  1  0  0  0  0
 15  2  1  0  0  0  0
 17  3  1  0  0  0  0
 19  5  1  0  0  0  0
 20  6  1  0  0  0  0
M  END
>  <HBA>
2

>  <HBD>
0

>  <TPSA>
26.3

>  <cid>
61311

>  <dipole>
1.57

>  <excitation_energy_1>
5.706

>  <excitation_energy_2>
6.047

>  <excitation_energy_3>
6.318

>  <excitation_energy_4>
6.559

>  <homo_energy>
-6.607

>  <homo_lumo_gap>
6.977

>  <logP>
1.516

>  <lumo_energy>
0.37

>  <melting_point>
-5.0

>  <molecular_refractivity>
36.57

>  <oscillator_strength_1>
0.0048

>  <oscillator_strength_2>
0.0124

>  <oscillator_strength_3>
0.0282

>  <oscillator_strength_4>
0.0454

>  <open_babel_can_smiles>
CC/C=C/CC(=O)OC

>  <mulliken_charges>
21
1   -0.440182
2   -0.21885
3   -0.295642
4   -0.088786
5   -0.089977
6   -0.411231
7   0.621523
8   -0.473449
9   -0.448686
10   0.144537
11   0.142769
12   0.150092
13   0.163867
14   0.172014
15   0.16954
16   0.143603
17   0.14331
18   0.115767
19   0.145427
20   0.182729
21   0.171626

>  <lowdin_charges>
21
1   -0.442741
2   -0.275885
3   -0.268303
4   -0.162816
5   -0.168071
6   -0.295897
7   0.201111
8   -0.26645
9   -0.194634
10   0.149964
11   0.147473
12   0.150856
13   0.158711
14   0.158799
15   0.157827
16   0.148891
17   0.148809
18   0.145375
19   0.162135
20   0.176154
21   0.16869

$$$$

