PCCDB-ID:  7833
public computational chemistry database (PCCDB) project, http://pccdb.org

 22 24  0  0  1  0  0  0  0  0999 V2000
   -1.3769    0.8689   -0.1716 C   0  0  0  0  0  0  0  0  0  0  0  0
   -0.0033    1.6093   -0.4096 C   0  0  0  0  0  0  0  0  0  0  0  0
   -0.1655   -1.4581    0.4372 C   0  0  0  0  0  0  0  0  0  0  0  0
   -1.6112   -2.5900   -2.1105 C   0  0  0  0  0  0  0  0  0  0  0  0
   -1.4089   -0.7210   -0.2267 C   0  0  2  0  0  0  0  0  0  0  0  0
    0.8443    0.7487    0.4996 C   0  0  1  0  0  0  0  0  0  0  0  0
    0.9560   -0.5829   -0.0710 C   0  0  1  0  0  0  0  0  0  0  0  0
   -1.6924   -1.1947   -1.6526 C   0  0  1  0  0  0  0  0  0  0  0  0
   -0.6161   -1.6311   -2.4963 O   0  0  0  0  0  0  0  0  0  0  0  0
    2.1252    0.0788    0.4750 O   0  0  0  0  0  0  0  0  0  0  0  0
   -2.1297    1.2468   -0.8742 H   0  0  0  0  0  0  0  0  0  0  0  0
   -1.7255    1.1646    0.8259 H   0  0  0  0  0  0  0  0  0  0  0  0
   -0.1010    2.6649   -0.1266 H   0  0  0  0  0  0  0  0  0  0  0  0
    0.3135    1.5569   -1.4555 H   0  0  0  0  0  0  0  0  0  0  0  0
   -0.1227   -2.5068    0.1253 H   0  0  0  0  0  0  0  0  0  0  0  0
   -0.2552   -1.4353    1.5278 H   0  0  0  0  0  0  0  0  0  0  0  0
   -2.2651   -2.9299   -2.9143 H   0  0  0  0  0  0  0  0  0  0  0  0
   -1.2678   -3.3747   -1.4377 H   0  0  0  0  0  0  0  0  0  0  0  0
   -2.3042   -1.0052    0.3451 H   0  0  0  0  0  0  0  0  0  0  0  0
    0.4836    0.7902    1.5308 H   0  0  0  0  0  0  0  0  0  0  0  0
    1.0346   -0.6310   -1.1556 H   0  0  0  0  0  0  0  0  0  0  0  0
   -2.4137   -0.5631   -2.1788 H   0  0  0  0  0  0  0  0  0  0  0  0
  1 12  1  0  0  0  0
  2  1  1  0  0  0  0
  2 13  1  0  0  0  0
  2  6  1  0  0  0  0
  3 16  1  0  0  0  0
  4  8  1  0  0  0  0
  4 18  1  0  0  0  0
  5  1  1  0  0  0  0
  5 19  1  1  0  0  0
  5  3  1  0  0  0  0
  6 20  1  1  0  0  0
  7 21  1  6  0  0  0
  7  3  1  0  0  0  0
  7 10  1  0  0  0  0
  7  6  1  0  0  0  0
  8 22  1  6  0  0  0
  8  5  1  0  0  0  0
  9  4  1  0  0  0  0
  9  8  1  0  0  0  0
 10  6  1  0  0  0  0
 11  1  1  0  0  0  0
 14  2  1  0  0  0  0
 15  3  1  0  0  0  0
 17  4  1  0  0  0  0
M  END
>  <HBA>
2

>  <HBD>
0

>  <TPSA>
25.06

>  <cid>
7833

>  <dipole>
4.13

>  <excitation_energy_1>
6.192

>  <excitation_energy_2>
6.427

>  <excitation_energy_3>
6.626

>  <excitation_energy_4>
6.653

>  <homo_energy>
-6.833

>  <homo_lumo_gap>
8.583

>  <logP>
0.953

>  <lumo_energy>
1.75

>  <melting_point>
21.94

>  <molecular_refractivity>
36.4

>  <oscillator_strength_1>
0.0046

>  <oscillator_strength_2>
0.0049

>  <oscillator_strength_3>
0.0288

>  <oscillator_strength_4>
0.0113

>  <open_babel_can_smiles>
C1O[C@@H]1[C@@H]1CC[C@H]2[C@H](C1)O2

>  <mulliken_charges>
22
1   -0.303569
2   -0.281453
3   -0.310884
4   -0.118455
5   -0.121693
6   0.089204
7   0.078786
8   0.098233
9   -0.439102
10   -0.462023
11   0.144046
12   0.144185
13   0.138489
14   0.158319
15   0.145696
16   0.147693
17   0.152617
18   0.155137
19   0.144078
20   0.127277
21   0.174175
22   0.139244

>  <lowdin_charges>
22
1   -0.279402
2   -0.276621
3   -0.275031
4   -0.171896
5   -0.133292
6   -0.043901
7   -0.045999
8   -0.028457
9   -0.2868
10   -0.266681
11   0.151188
12   0.146984
13   0.143868
14   0.15575
15   0.147471
16   0.152016
17   0.155828
18   0.153835
19   0.156826
20   0.137975
21   0.158309
22   0.148031

$$$$

