PCCDB-ID:  4198
public computational chemistry database (PCCDB) project, http://pccdb.org

 28 29  0  0  0  0  0  0  0  0999 V2000
    0.9447    0.0126   -0.0518 C   0  0  0  0  0  0  0  0  0  0  0  0
    8.8467    1.4195    0.0771 C   0  0  0  0  0  0  0  0  0  0  0  0
    2.9830   -3.5837   -0.1934 C   0  0  0  0  0  0  0  0  0  0  0  0
    5.2748    2.5749    0.1299 C   0  0  0  0  0  0  0  0  0  0  0  0
    6.7098    0.2084   -0.0045 C   0  0  0  0  0  0  0  0  0  0  0  0
    2.4475    0.0431   -0.0389 C   0  0  0  0  0  0  0  0  0  0  0  0
    4.6093    1.3868    0.0546 C   0  0  0  0  0  0  0  0  0  0  0  0
    5.3357    0.1577   -0.0138 C   0  0  0  0  0  0  0  0  0  0  0  0
    6.7225    2.6472    0.1429 C   0  0  0  0  0  0  0  0  0  0  0  0
    3.1084    1.3565    0.0416 C   0  0  0  0  0  0  0  0  0  0  0  0
    4.6680   -1.1460   -0.0984 C   0  0  0  0  0  0  0  0  0  0  0  0
    3.1685   -1.1210   -0.1026 C   0  0  0  0  0  0  0  0  0  0  0  0
    7.3823    1.3770    0.0684 N   0  0  0  0  0  0  0  0  0  0  0  0
    7.3995    3.6661    0.2085 O   0  0  0  0  0  0  0  0  0  0  0  0
    2.4685    2.4036    0.0980 O   0  0  0  0  0  0  0  0  0  0  0  0
    5.3009   -2.2005   -0.1635 O   0  0  0  0  0  0  0  0  0  0  0  0
    2.4430   -2.2515   -0.1842 O   0  0  0  0  0  0  0  0  0  0  0  0
    0.5702   -0.4522   -0.9717 H   0  0  0  0  0  0  0  0  0  0  0  0
    0.5545    1.0284    0.0218 H   0  0  0  0  0  0  0  0  0  0  0  0
    0.5583   -0.5865    0.7811 H   0  0  0  0  0  0  0  0  0  0  0  0
    9.2323    0.4004    0.0281 H   0  0  0  0  0  0  0  0  0  0  0  0
    9.1942    1.9124    0.9880 H   0  0  0  0  0  0  0  0  0  0  0  0
    9.2030    2.0003   -0.7769 H   0  0  0  0  0  0  0  0  0  0  0  0
    2.0989   -4.2244   -0.2152 H   0  0  0  0  0  0  0  0  0  0  0  0
    3.5725   -3.7832    0.7029 H   0  0  0  0  0  0  0  0  0  0  0  0
    3.6004   -3.7588   -1.0755 H   0  0  0  0  0  0  0  0  0  0  0  0
    4.7309    3.5107    0.1812 H   0  0  0  0  0  0  0  0  0  0  0  0
    7.2945   -0.7038   -0.0560 H   0  0  0  0  0  0  0  0  0  0  0  0
  1  6  1  0  0  0  0
  1 19  1  0  0  0  0
  1 20  1  0  0  0  0
  2 22  1  0  0  0  0
  3 17  1  0  0  0  0
  3 25  1  0  0  0  0
  4  9  1  0  0  0  0
  4 27  1  0  0  0  0
  5 13  1  0  0  0  0
  6 10  1  0  0  0  0
  7  4  2  0  0  0  0
  8  5  2  0  0  0  0
  8  7  1  0  0  0  0
  9 14  2  0  0  0  0
 10  7  1  0  0  0  0
 10 15  2  0  0  0  0
 11  8  1  0  0  0  0
 12 11  1  0  0  0  0
 12  6  2  0  0  0  0
 13  2  1  0  0  0  0
 13  9  1  0  0  0  0
 16 11  2  0  0  0  0
 17 12  1  0  0  0  0
 18  1  1  0  0  0  0
 21  2  1  0  0  0  0
 23  2  1  0  0  0  0
 24  3  1  0  0  0  0
 26  3  1  0  0  0  0
 28  5  1  0  0  0  0
M  END
>  <HBA>
5

>  <HBD>
0

>  <TPSA>
65.37

>  <cid>
4198

>  <dipole>
4.94

>  <excitation_energy_1>
2.924

>  <excitation_energy_2>
2.925

>  <excitation_energy_3>
3.215

>  <excitation_energy_4>
3.505

>  <homo_energy>
-6.332

>  <homo_lumo_gap>
3.461

>  <logP>
0.685

>  <lumo_energy>
-2.871

>  <melting_point>
141.65

>  <molecular_refractivity>
60.46

>  <oscillator_strength_1>
0.0523

>  <oscillator_strength_2>
0.0037

>  <oscillator_strength_3>
0.0007

>  <oscillator_strength_4>
0.2025

>  <open_babel_can_smiles>
COC1=C(C)C(=O)c2c(C1=O)cn(c(=O)c2)C

>  <mulliken_charges>
28
1   -0.516791
2   -0.316997
3   -0.199883
4   -0.30472
5   0.073739
6   0.024009
7   0.133081
8   -0.039284
9   0.620801
10   0.362165
11   0.36569
12   0.291212
13   -0.466897
14   -0.519467
15   -0.483654
16   -0.510602
17   -0.50022
18   0.16849
19   0.188884
20   0.167566
21   0.167265
22   0.199106
23   0.198541
24   0.1621
25   0.17337
26   0.17622
27   0.18718
28   0.199095

>  <lowdin_charges>
28
1   -0.441178
2   -0.342795
3   -0.268976
4   -0.165958
5   -0.041292
6   -0.059006
7   -0.007598
8   -0.103221
9   0.15388
10   0.142646
11   0.136731
12   0.082133
13   -0.015463
14   -0.289907
15   -0.242803
16   -0.26267
17   -0.172561
18   0.167445
19   0.17615
20   0.16757
21   0.16311
22   0.179006
23   0.178933
24   0.157703
25   0.161218
26   0.162522
27   0.195928
28   0.188453

$$$$

