PCCDB-ID:  14217
public computational chemistry database (PCCDB) project, http://pccdb.org

 12 11  0  0  0  0  0  0  0  0999 V2000
    3.1074   -0.6222    1.0776 C   0  0  0  0  0  0  0  0  0  0  0  0
    1.6797    3.7527   -0.3810 C   0  0  0  0  0  0  0  0  0  0  0  0
    2.2301    0.2759    0.6420 C   0  0  0  0  0  0  0  0  0  0  0  0
    2.5809    2.8314   -0.0479 C   0  0  0  0  0  0  0  0  0  0  0  0
    4.0144    0.8938   -1.2603 O   0  0  0  0  0  0  0  0  0  0  0  0
    2.5917    1.2174   -0.8632 S   0  0  0  0  0  0  0  0  0  0  0  0
    2.9066   -1.2382    1.9495 H   0  0  0  0  0  0  0  0  0  0  0  0
    4.0538   -0.7528    0.5583 H   0  0  0  0  0  0  0  0  0  0  0  0
    1.6724    4.7338    0.0870 H   0  0  0  0  0  0  0  0  0  0  0  0
    0.9144    3.5602   -1.1295 H   0  0  0  0  0  0  0  0  0  0  0  0
    1.2538    0.4662    1.0818 H   0  0  0  0  0  0  0  0  0  0  0  0
    3.3801    2.9877    0.6742 H   0  0  0  0  0  0  0  0  0  0  0  0
  1  7  1  0  0  0  0
  2  4  2  0  0  0  0
  2  9  1  0  0  0  0
  3  1  2  0  0  0  0
  3 11  1  0  0  0  0
  4 12  1  0  0  0  0
  5  6  2  0  0  0  0
  6  4  1  0  0  0  0
  6  3  1  0  0  0  0
  8  1  1  0  0  0  0
 10  2  1  0  0  0  0
M  END
>  <HBA>
1

>  <HBD>
0

>  <TPSA>
36.28

>  <cid>
14217

>  <dipole>
3.8

>  <excitation_energy_1>
4.332

>  <excitation_energy_2>
5.007

>  <excitation_energy_3>
5.326

>  <excitation_energy_4>
5.759

>  <homo_energy>
-6.245

>  <homo_lumo_gap>
5.342

>  <logP>
1.888

>  <lumo_energy>
-0.903

>  <melting_point>
-47.13

>  <molecular_refractivity>
28.67

>  <oscillator_strength_1>
0.0035

>  <oscillator_strength_2>
0.0412

>  <oscillator_strength_3>
0.0064

>  <oscillator_strength_4>
0.0044

>  <open_babel_can_smiles>
C=CS(=O)C=C

>  <mulliken_charges>
12
1   -0.301006
2   -0.306277
3   -0.316302
4   -0.287054
5   -0.623351
6   0.768602
7   0.162183
8   0.198667
9   0.168773
10   0.171511
11   0.172269
12   0.191985

>  <lowdin_charges>
12
1   -0.301366
2   -0.29859
3   -0.329639
4   -0.307251
5   -0.662594
6   0.836446
7   0.172074
8   0.186669
9   0.173034
10   0.172285
11   0.177523
12   0.18141

$$$$

