PCCDB-ID:  11419
public computational chemistry database (PCCDB) project, http://pccdb.org

 20 20  0  0  1  0  0  0  0  0999 V2000
    0.9647   -0.0897   -0.0175 C   0  0  0  0  0  0  0  0  0  0  0  0
    4.6202    1.1952    0.6403 C   0  0  0  0  0  0  0  0  0  0  0  0
    5.1751   -0.0629    1.3214 C   0  0  0  0  0  0  0  0  0  0  0  0
    3.0854    1.1951    0.6398 C   0  0  0  0  0  0  0  0  0  0  0  0
    4.6237   -1.3453    0.6640 C   0  0  0  0  0  0  0  0  0  0  0  0
    2.4929   -0.0648   -0.0399 C   0  0  1  0  0  0  0  0  0  0  0  0
    3.1014   -1.3234    0.5859 C   0  0  0  0  0  0  0  0  0  0  0  0
    2.4197   -2.2419    1.0023 O   0  0  0  0  0  0  0  0  0  0  0  0
    0.5583    0.8015   -0.5088 H   0  0  0  0  0  0  0  0  0  0  0  0
    0.5906   -0.1167    1.0114 H   0  0  0  0  0  0  0  0  0  0  0  0
    0.5769   -0.9762   -0.5272 H   0  0  0  0  0  0  0  0  0  0  0  0
    4.9862    1.2422   -0.3960 H   0  0  0  0  0  0  0  0  0  0  0  0
    4.9957    2.0942    1.1447 H   0  0  0  0  0  0  0  0  0  0  0  0
    4.8932   -0.0556    2.3835 H   0  0  0  0  0  0  0  0  0  0  0  0
    6.2713   -0.0721    1.2892 H   0  0  0  0  0  0  0  0  0  0  0  0
    2.7004    2.0891    0.1333 H   0  0  0  0  0  0  0  0  0  0  0  0
    2.7190    1.2429    1.6758 H   0  0  0  0  0  0  0  0  0  0  0  0
    4.9285   -2.2473    1.2029 H   0  0  0  0  0  0  0  0  0  0  0  0
    5.0164   -1.4189   -0.3616 H   0  0  0  0  0  0  0  0  0  0  0  0
    2.8388   -0.0550   -1.0876 H   0  0  0  0  0  0  0  0  0  0  0  0
  1 10  1  0  0  0  0
  2 13  1  0  0  0  0
  2  3  1  0  0  0  0
  3 14  1  0  0  0  0
  4  2  1  0  0  0  0
  4 17  1  0  0  0  0
  5 18  1  0  0  0  0
  5  3  1  0  0  0  0
  6 20  1  6  0  0  0
  6  1  1  0  0  0  0
  6  7  1  0  0  0  0
  6  4  1  0  0  0  0
  7  5  1  0  0  0  0
  7  8  2  0  0  0  0
  9  1  1  0  0  0  0
 11  1  1  0  0  0  0
 12  2  1  0  0  0  0
 15  3  1  0  0  0  0
 16  4  1  0  0  0  0
 19  5  1  0  0  0  0
M  END
>  <HBA>
1

>  <HBD>
0

>  <TPSA>
17.07

>  <cid>
11419

>  <dipole>
2.93

>  <excitation_energy_1>
4.213

>  <excitation_energy_2>
6.053

>  <excitation_energy_3>
6.341

>  <excitation_energy_4>
6.476

>  <homo_energy>
-6.378

>  <homo_lumo_gap>
6.063

>  <logP>
1.766

>  <lumo_energy>
-0.316

>  <melting_point>
16.74

>  <molecular_refractivity>
33.85

>  <oscillator_strength_1>
0.0

>  <oscillator_strength_2>
0.0018

>  <oscillator_strength_3>
0.0024

>  <oscillator_strength_4>
0.0148

>  <open_babel_can_smiles>
C[C@H]1CCCCC1=O

>  <mulliken_charges>
20
1   -0.437877
2   -0.265924
3   -0.268993
4   -0.264573
5   -0.341186
6   -0.166554
7   0.450735
8   -0.449554
9   0.135061
10   0.154005
11   0.159635
12   0.13238
13   0.140069
14   0.144965
15   0.14269
16   0.140599
17   0.140025
18   0.162151
19   0.15148
20   0.140865

>  <lowdin_charges>
20
1   -0.440277
2   -0.279011
3   -0.270375
4   -0.274008
5   -0.307003
6   -0.158333
7   0.158929
8   -0.235655
9   0.147963
10   0.154896
11   0.161353
12   0.138503
13   0.149826
14   0.143681
15   0.147313
16   0.149013
17   0.142465
18   0.163586
19   0.156917
20   0.150216

$$$$

