PCCDB-ID:  69751
public computational chemistry database (PCCDB) project, http://pccdb.org

 27 29  0  0  0  0  0  0  0  0999 V2000
    1.0944    0.0217    0.3982 C   0  0  0  0  0  0  0  0  0  0  0  0
    4.6404   -3.6259   -0.0982 C   0  0  0  0  0  0  0  0  0  0  0  0
    4.6070    3.7125   -0.0339 C   0  0  0  0  0  0  0  0  0  0  0  0
    3.2393   -3.6031   -0.1353 C   0  0  0  0  0  0  0  0  0  0  0  0
    3.2062    3.6776   -0.0729 C   0  0  0  0  0  0  0  0  0  0  0  0
    5.3243   -2.4261   -0.0015 C   0  0  0  0  0  0  0  0  0  0  0  0
    5.3016    2.5174    0.0423 C   0  0  0  0  0  0  0  0  0  0  0  0
    2.5379   -2.4077   -0.0589 C   0  0  0  0  0  0  0  0  0  0  0  0
    2.5157    2.4748   -0.0180 C   0  0  0  0  0  0  0  0  0  0  0  0
    4.6414   -1.2014    0.0731 C   0  0  0  0  0  0  0  0  0  0  0  0
    4.6299    1.2854    0.0949 C   0  0  0  0  0  0  0  0  0  0  0  0
    3.2251   -1.1791    0.0651 C   0  0  0  0  0  0  0  0  0  0  0  0
    3.2138    1.2505    0.0858 C   0  0  0  0  0  0  0  0  0  0  0  0
    5.4238    0.0451    0.1473 C   0  0  0  0  0  0  0  0  0  0  0  0
    2.5369    0.0316    0.1708 N   0  0  0  0  0  0  0  0  0  0  0  0
    6.6549    0.0502    0.2152 O   0  0  0  0  0  0  0  0  0  0  0  0
    0.8237   -0.8580    0.9828 H   0  0  0  0  0  0  0  0  0  0  0  0
    0.5213    0.0181   -0.5383 H   0  0  0  0  0  0  0  0  0  0  0  0
    0.8115    0.8966    0.9838 H   0  0  0  0  0  0  0  0  0  0  0  0
    5.1776   -4.5676   -0.1569 H   0  0  0  0  0  0  0  0  0  0  0  0
    5.1358    4.6599   -0.0754 H   0  0  0  0  0  0  0  0  0  0  0  0
    2.6830   -4.5314   -0.2360 H   0  0  0  0  0  0  0  0  0  0  0  0
    2.6416    4.6024   -0.1582 H   0  0  0  0  0  0  0  0  0  0  0  0
    6.4086   -2.3836    0.0171 H   0  0  0  0  0  0  0  0  0  0  0  0
    6.3863    2.4843    0.0604 H   0  0  0  0  0  0  0  0  0  0  0  0
    1.4575   -2.4336   -0.1271 H   0  0  0  0  0  0  0  0  0  0  0  0
    1.4353    2.4923   -0.0882 H   0  0  0  0  0  0  0  0  0  0  0  0
  1 17  1  0  0  0  0
  1 19  1  0  0  0  0
  2  6  1  0  0  0  0
  3  7  1  0  0  0  0
  4  2  2  0  0  0  0
  4  8  1  0  0  0  0
  5  3  2  0  0  0  0
  5  9  1  0  0  0  0
  6 24  1  0  0  0  0
  6 10  2  0  0  0  0
  7 25  1  0  0  0  0
  7 11  2  0  0  0  0
  8 12  2  0  0  0  0
  9 13  2  0  0  0  0
 10 14  1  0  0  0  0
 11 14  1  0  0  0  0
 12 10  1  0  0  0  0
 12 15  1  0  0  0  0
 13 11  1  0  0  0  0
 13 15  1  0  0  0  0
 14 16  2  0  0  0  0
 15  1  1  0  0  0  0
 18  1  1  0  0  0  0
 20  2  1  0  0  0  0
 21  3  1  0  0  0  0
 22  4  1  0  0  0  0
 23  5  1  0  0  0  0
 26  8  1  0  0  0  0
 27  9  1  0  0  0  0
M  END
>  <HBA>
2

>  <HBD>
0

>  <TPSA>
22.0

>  <cid>
69751

>  <dipole>
5.11

>  <excitation_energy_1>
3.496

>  <excitation_energy_2>
3.55

>  <excitation_energy_3>
4.356

>  <excitation_energy_4>
4.694

>  <homo_energy>
-5.57

>  <homo_lumo_gap>
4.06

>  <logP>
2.692

>  <lumo_energy>
-1.51

>  <melting_point>
131.6

>  <molecular_refractivity>
66.98

>  <oscillator_strength_1>
0.0899

>  <oscillator_strength_2>
0.0001

>  <oscillator_strength_3>
0.0328

>  <oscillator_strength_4>
0.0187

>  <open_babel_can_smiles>
Cn1c2ccccc2c(=O)c2c1cccc2

>  <mulliken_charges>
27
1   -0.333495
2   -0.136814
3   -0.136828
4   -0.128058
5   -0.128036
6   -0.176012
7   -0.175966
8   -0.193519
9   -0.193706
10   0.034294
11   0.034074
12   0.32537
13   0.325726
14   0.377147
15   -0.640383
16   -0.522552
17   0.17904
18   0.169709
19   0.179085
20   0.134286
21   0.13428
22   0.134856
23   0.134863
24   0.165886
25   0.165906
26   0.135402
27   0.135448

>  <lowdin_charges>
27
1   -0.353321
2   -0.172992
3   -0.172949
4   -0.134462
5   -0.134511
6   -0.116534
7   -0.116521
8   -0.198985
9   -0.199014
10   -0.066505
11   -0.06658
12   0.061121
13   0.061287
14   0.133938
15   -0.0496
16   -0.290649
17   0.169524
18   0.15627
19   0.169764
20   0.161213
21   0.161155
22   0.161275
23   0.161309
24   0.177468
25   0.177473
26   0.160443
27   0.160382

$$$$

