PCCDB-ID:  15331
public computational chemistry database (PCCDB) project, http://pccdb.org

 23 22  0  0  1  0  0  0  0  0999 V2000
    1.0356    2.2847   -0.7456 C   0  0  0  0  0  0  0  0  0  0  0  0
    2.7101    3.3098    0.6394 C   0  0  0  0  0  0  0  0  0  0  0  0
    3.5918   -0.3625    0.3684 C   0  0  0  0  0  0  0  0  0  0  0  0
    2.9995   -1.7195   -0.0571 C   0  0  0  0  0  0  0  0  0  0  0  0
    3.8682    0.5987   -0.7741 C   0  0  1  0  0  0  0  0  0  0  0  0
    4.0043   -2.6956   -0.6532 C   0  0  0  0  0  0  0  0  0  0  0  0
    3.2956    1.7267   -0.9834 N   0  0  0  0  0  0  0  0  0  0  0  0
    2.2786    2.0657   -0.0032 N   0  0  0  0  0  0  0  0  0  0  0  0
    4.8235    0.2431   -1.6565 O   0  0  0  0  0  0  0  0  0  0  0  0
    5.1371   -2.4097   -0.9813 O   0  0  0  0  0  0  0  0  0  0  0  0
    3.5761   -3.9657   -0.8126 O   0  0  0  0  0  0  0  0  0  0  0  0
    0.2572    2.6032   -0.0438 H   0  0  0  0  0  0  0  0  0  0  0  0
    0.7206    1.3464   -1.2127 H   0  0  0  0  0  0  0  0  0  0  0  0
    1.1447    3.0452   -1.5370 H   0  0  0  0  0  0  0  0  0  0  0  0
    1.9372    3.6268    1.3481 H   0  0  0  0  0  0  0  0  0  0  0  0
    2.8908    4.1192   -0.0877 H   0  0  0  0  0  0  0  0  0  0  0  0
    3.6370    3.1297    1.1919 H   0  0  0  0  0  0  0  0  0  0  0  0
    4.5231   -0.5368    0.9214 H   0  0  0  0  0  0  0  0  0  0  0  0
    2.8825    0.1376    1.0297 H   0  0  0  0  0  0  0  0  0  0  0  0
    2.1872   -1.5778   -0.7841 H   0  0  0  0  0  0  0  0  0  0  0  0
    2.5430   -2.2013    0.8188 H   0  0  0  0  0  0  0  0  0  0  0  0
    5.1724   -0.6418   -1.4161 H   0  0  0  0  0  0  0  0  0  0  0  0
    2.6609   -4.0580   -0.4984 H   0  0  0  0  0  0  0  0  0  0  0  0
  1 12  1  0  0  0  0
  1  8  1  0  0  0  0
  2 17  1  0  0  0  0
  2 15  1  0  0  0  0
  3 18  1  0  0  0  0
  3 19  1  0  0  0  0
  4  3  1  0  0  0  0
  4 21  1  0  0  0  0
  5  9  1  1  0  0  0
  5  3  1  0  0  0  0
  6  4  1  0  0  0  0
  7  5  1  0  0  0  0
  7  8  1  0  0  0  0
  8  2  1  0  0  0  0
  9 22  1  0  0  0  0
 10  6  2  0  0  0  0
 11  6  1  0  0  0  0
 11 23  1  0  0  0  0
 13  1  1  0  0  0  0
 14  1  1  0  0  0  0
 16  2  1  0  0  0  0
 20  4  1  0  0  0  0
M  RAD  2   5   2   7   2
M  END
>  <HBA>
5

>  <HBD>
2

>  <TPSA>
69.64

>  <cid>
15331

>  <dipole>
5.75

>  <excitation_energy_1>
4.098

>  <excitation_energy_2>
4.153

>  <excitation_energy_3>
4.782

>  <excitation_energy_4>
5.009

>  <homo_energy>
-5.339

>  <homo_lumo_gap>
4.762

>  <logP>
-0.165

>  <lumo_energy>
-0.577

>  <melting_point>
101.8

>  <molecular_refractivity>
38.63

>  <oscillator_strength_1>
0.0008

>  <oscillator_strength_2>
0.0014

>  <oscillator_strength_3>
0.003

>  <oscillator_strength_4>
0.0049

>  <open_babel_can_smiles>
O[C]([N]N(C)C)CCC(=O)O

>  <mulliken_charges>
23
1   -0.26923
2   -0.272694
3   -0.36397
4   -0.412222
5   0.51459
6   0.624595
7   -0.335906
8   -0.31869
9   -0.608254
10   -0.458355
11   -0.547759
12   0.139868
13   0.138118
14   0.139082
15   0.139501
16   0.138642
17   0.147817
18   0.173484
19   0.195701
20   0.199169
21   0.172998
22   0.443226
23   0.420288

>  <lowdin_charges>
23
1   -0.361842
2   -0.362871
3   -0.314291
4   -0.320508
5   0.121142
6   0.207233
7   -0.174333
8   -0.131868
9   -0.367739
10   -0.249309
11   -0.331705
12   0.147692
13   0.14506
14   0.135389
15   0.147602
16   0.135401
17   0.149965
18   0.167604
19   0.184835
20   0.179804
21   0.169097
22   0.358847
23   0.364796

$$$$

