PCCDB-ID:  70346
public computational chemistry database (PCCDB) project, http://pccdb.org

 22 23  0  0  0  0  0  0  0  0999 V2000
    1.0291   -0.1504   -0.1445 C   0  0  0  0  0  0  0  0  0  0  0  0
    5.2199    2.3532    0.0346 C   0  0  0  0  0  0  0  0  0  0  0  0
    4.5987   -1.3370    0.0929 C   0  0  0  0  0  0  0  0  0  0  0  0
    3.2276   -1.2735    0.0123 C   0  0  0  0  0  0  0  0  0  0  0  0
    5.3812   -0.1248    0.1048 C   0  0  0  0  0  0  0  0  0  0  0  0
    3.9217   -3.3502    0.1092 C   0  0  0  0  0  0  0  0  0  0  0  0
    3.1605    1.1055   -0.0535 C   0  0  0  0  0  0  0  0  0  0  0  0
    5.0217   -2.6646    0.1531 N   0  0  0  0  0  0  0  0  0  0  0  0
    2.7778   -2.5746    0.0227 N   0  0  0  0  0  0  0  0  0  0  0  0
    2.4836   -0.1282   -0.0620 N   0  0  0  0  0  0  0  0  0  0  0  0
    4.5490    1.0480    0.0291 N   0  0  0  0  0  0  0  0  0  0  0  0
    6.5948   -0.0318    0.1701 O   0  0  0  0  0  0  0  0  0  0  0  0
    3.7782   -4.6865    0.1377 O   0  0  0  0  0  0  0  0  0  0  0  0
    2.5495    2.1634   -0.1162 O   0  0  0  0  0  0  0  0  0  0  0  0
    0.7001   -0.6749   -1.0495 H   0  0  0  0  0  0  0  0  0  0  0  0
    0.6952    0.8853   -0.1850 H   0  0  0  0  0  0  0  0  0  0  0  0
    0.5987   -0.6370    0.7389 H   0  0  0  0  0  0  0  0  0  0  0  0
    6.2892    2.1628    0.0965 H   0  0  0  0  0  0  0  0  0  0  0  0
    4.8846    2.9431    0.8912 H   0  0  0  0  0  0  0  0  0  0  0  0
    4.9788    2.9023   -0.8788 H   0  0  0  0  0  0  0  0  0  0  0  0
    1.8288   -2.9142   -0.0306 H   0  0  0  0  0  0  0  0  0  0  0  0
    4.6766   -5.0546    0.2017 H   0  0  0  0  0  0  0  0  0  0  0  0
  1 10  1  0  0  0  0
  1 17  1  0  0  0  0
  2 18  1  0  0  0  0
  2 19  1  0  0  0  0
  3  5  1  0  0  0  0
  3  8  1  0  0  0  0
  4  9  1  0  0  0  0
  4  3  2  0  0  0  0
  5 12  2  0  0  0  0
  6 13  1  0  0  0  0
  6  8  2  0  0  0  0
  7 11  1  0  0  0  0
  9  6  1  0  0  0  0
 10  7  1  0  0  0  0
 10  4  1  0  0  0  0
 11  2  1  0  0  0  0
 11  5  1  0  0  0  0
 13 22  1  0  0  0  0
 14  7  2  0  0  0  0
 15  1  1  0  0  0  0
 16  1  1  0  0  0  0
 20  2  1  0  0  0  0
 21  9  1  0  0  0  0
M  END
>  <HBA>
5

>  <HBD>
2

>  <TPSA>
92.65

>  <cid>
70346

>  <dipole>
5.97

>  <excitation_energy_1>
4.508

>  <excitation_energy_2>
4.86

>  <excitation_energy_3>
5.102

>  <excitation_energy_4>
5.193

>  <homo_energy>
-5.709

>  <homo_lumo_gap>
5.369

>  <logP>
-1.746

>  <lumo_energy>
-0.34

>  <melting_point>
254.86

>  <molecular_refractivity>
49.96

>  <oscillator_strength_1>
0.0023

>  <oscillator_strength_2>
0.1198

>  <oscillator_strength_3>
0.0001

>  <oscillator_strength_4>
0.001

>  <open_babel_can_smiles>
Oc1nc2c([nH]1)n(C)c(=O)n(c2=O)C

>  <mulliken_charges>
22
1   -0.353049
2   -0.314994
3   0.126667
4   0.613308
5   0.598757
6   0.697788
7   0.787267
8   -0.532035
9   -0.713136
10   -0.590997
11   -0.571117
12   -0.500162
13   -0.622987
14   -0.528098
15   0.16815
16   0.229023
17   0.168005
18   0.20357
19   0.174316
20   0.174554
21   0.348645
22   0.436525

>  <lowdin_charges>
22
1   -0.354772
2   -0.349669
3   -0.065334
4   0.070787
5   0.16253
6   0.14173
7   0.192143
8   -0.201995
9   -0.207768
10   -0.06662
11   -0.09618
12   -0.273062
13   -0.355615
14   -0.312738
15   0.157521
16   0.199267
17   0.157781
18   0.182857
19   0.165104
20   0.164882
21   0.306958
22   0.382194

$$$$

