PCCDB-ID:  34056
public computational chemistry database (PCCDB) project, http://pccdb.org

 19 19  0  0  0  0  0  0  0  0999 V2000
    1.0795    0.5489    1.9771 C   0  0  0  0  0  0  0  0  0  0  0  0
    0.2361    0.9883    1.0192 C   0  0  0  0  0  0  0  0  0  0  0  0
   -1.9584    0.5574    2.1995 C   0  0  0  0  0  0  0  0  0  0  0  0
   -1.9342    1.5296   -0.0176 C   0  0  0  0  0  0  0  0  0  0  0  0
   -3.3447    0.6084    2.2115 C   0  0  0  0  0  0  0  0  0  0  0  0
   -3.3231    1.5873   -0.0205 C   0  0  0  0  0  0  0  0  0  0  0  0
    2.4938    0.5658    1.8066 C   0  0  0  0  0  0  0  0  0  0  0  0
   -1.2256    1.0168    1.0861 C   0  0  0  0  0  0  0  0  0  0  0  0
   -4.0102    1.1241    1.0983 C   0  0  0  0  0  0  0  0  0  0  0  0
    3.6518    0.5721    1.6844 N   0  0  0  0  0  0  0  0  0  0  0  0
   -5.4808    1.1797    1.1083 N   0  0  0  0  0  0  0  0  0  0  0  0
   -6.0590    0.7657    2.1124 O   0  0  0  0  0  0  0  0  0  0  0  0
   -6.0401    1.6366    0.1122 O   0  0  0  0  0  0  0  0  0  0  0  0
    0.7238    0.1605    2.9276 H   0  0  0  0  0  0  0  0  0  0  0  0
    0.6699    1.3647    0.0952 H   0  0  0  0  0  0  0  0  0  0  0  0
   -1.4436    0.1549    3.0658 H   0  0  0  0  0  0  0  0  0  0  0  0
   -1.3843    1.8870   -0.8837 H   0  0  0  0  0  0  0  0  0  0  0  0
   -3.9187    0.2588    3.0606 H   0  0  0  0  0  0  0  0  0  0  0  0
   -3.8759    1.9799   -0.8648 H   0  0  0  0  0  0  0  0  0  0  0  0
  1 14  1  0  0  0  0
  2  8  1  0  0  0  0
  2  1  2  0  0  0  0
  3  5  1  0  0  0  0
  3 16  1  0  0  0  0
  4  8  1  0  0  0  0
  5 18  1  0  0  0  0
  6  4  2  0  0  0  0
  6  9  1  0  0  0  0
  7  1  1  0  0  0  0
  8  3  2  0  0  0  0
  9 11  1  0  0  0  0
  9  5  2  0  0  0  0
 10  7  3  0  0  0  0
 11 12  2  0  0  0  0
 13 11  2  0  0  0  0
 15  2  1  0  0  0  0
 17  4  1  0  0  0  0
 19  6  1  0  0  0  0
M  END
>  <HBA>
1

>  <HBD>
0

>  <TPSA>
69.61

>  <cid>
34056

>  <dipole>
0.03

>  <excitation_energy_1>
3.634

>  <excitation_energy_2>
3.831

>  <excitation_energy_3>
4.125

>  <excitation_energy_4>
4.14

>  <homo_energy>
-7.306

>  <homo_lumo_gap>
4.12

>  <logP>
2.655

>  <lumo_energy>
-3.186

>  <melting_point>
99.87

>  <molecular_refractivity>
49.91

>  <oscillator_strength_1>
0.0

>  <oscillator_strength_2>
0.6283

>  <oscillator_strength_3>
0.0276

>  <oscillator_strength_4>
0.0003

>  <open_babel_can_smiles>
N#C/C=C/c1ccc(cc1)N(=O)=O

>  <mulliken_charges>
19
1   -0.147368
2   -0.142567
3   -0.185383
4   -0.20387
5   -0.149437
6   -0.147515
7   0.316545
8   0.189543
9   0.278344
10   -0.46636
11   0.382639
12   -0.389667
13   -0.389259
14   0.18741
15   0.170405
16   0.15289
17   0.158627
18   0.192304
19   0.192719

>  <lowdin_charges>
19
1   -0.161862
2   -0.105359
3   -0.142118
4   -0.143742
5   -0.133291
6   -0.133214
7   -0.014495
8   0.011106
9   0.011273
10   -0.105772
11   0.309867
12   -0.242
13   -0.24176
14   0.185107
15   0.177351
16   0.169904
17   0.17225
18   0.19311
19   0.193643

$$$$

