PCCDB-ID:  9338
public computational chemistry database (PCCDB) project, http://pccdb.org

 17 17  0  0  0  0  0  0  0  0999 V2000
   -1.2243   -0.6812    0.1013 C   0  0  0  0  0  0  0  0  0  0  0  0
   -0.0327   -1.3998    0.0733 C   0  0  0  0  0  0  0  0  0  0  0  0
   -1.2097    0.7041    0.0101 C   0  0  0  0  0  0  0  0  0  0  0  0
    1.1726   -0.7088   -0.0452 C   0  0  0  0  0  0  0  0  0  0  0  0
    0.0059    1.3953   -0.1016 C   0  0  0  0  0  0  0  0  0  0  0  0
    1.2408    0.6986   -0.1261 C   0  0  0  0  0  0  0  0  0  0  0  0
    2.5382    1.4686   -0.2076 C   0  0  0  0  0  0  0  0  0  0  0  0
    2.3599   -1.4070   -0.0824 O   0  0  0  0  0  0  0  0  0  0  0  0
    0.0142    2.7437   -0.2148 O   0  0  0  0  0  0  0  0  0  0  0  0
    2.6374    2.6291    0.1108 O   0  0  0  0  0  0  0  0  0  0  0  0
    3.6217    0.8085   -0.6829 O   0  0  0  0  0  0  0  0  0  0  0  0
   -2.1703   -1.2069    0.1924 H   0  0  0  0  0  0  0  0  0  0  0  0
   -0.0330   -2.4850    0.1437 H   0  0  0  0  0  0  0  0  0  0  0  0
   -2.1407    1.2664    0.0255 H   0  0  0  0  0  0  0  0  0  0  0  0
    2.1774   -2.3592   -0.0850 H   0  0  0  0  0  0  0  0  0  0  0  0
   -0.9046    3.0569   -0.2169 H   0  0  0  0  0  0  0  0  0  0  0  0
    3.4270   -0.1411   -0.7874 H   0  0  0  0  0  0  0  0  0  0  0  0
  1 12  1  0  0  0  0
  2  1  1  0  0  0  0
  2 13  1  0  0  0  0
  3 14  1  0  0  0  0
  3  1  2  0  0  0  0
  4  2  2  0  0  0  0
  5  3  1  0  0  0  0
  6  5  2  0  0  0  0
  6  4  1  0  0  0  0
  7  6  1  0  0  0  0
  7 10  2  0  0  0  0
  8  4  1  0  0  0  0
  9  5  1  0  0  0  0
 11  7  1  0  0  0  0
 15  8  1  0  0  0  0
 16  9  1  0  0  0  0
 17 11  1  0  0  0  0
M  END
>  <HBA>
4

>  <HBD>
3

>  <TPSA>
77.76

>  <cid>
9338

>  <dipole>
7.09

>  <excitation_energy_1>
4.555

>  <excitation_energy_2>
4.579

>  <excitation_energy_3>
5.22

>  <excitation_energy_4>
5.382

>  <homo_energy>
-6.419

>  <homo_lumo_gap>
5.358

>  <logP>
0.796

>  <lumo_energy>
-1.061

>  <melting_point>
176.59

>  <molecular_refractivity>
37.45

>  <oscillator_strength_1>
0.0057

>  <oscillator_strength_2>
0.0488

>  <oscillator_strength_3>
0.0006

>  <oscillator_strength_4>
0.0903

>  <open_babel_can_smiles>
OC(=O)c1c(O)cccc1O

>  <mulliken_charges>
17
1   -0.131574
2   -0.194726
3   -0.19701
4   0.307788
5   0.311279
6   -0.031168
7   0.573592
8   -0.677593
9   -0.594236
10   -0.437243
11   -0.596264
12   0.145321
13   0.125513
14   0.126426
15   0.426033
16   0.411287
17   0.432574

>  <lowdin_charges>
17
1   -0.121068
2   -0.230158
3   -0.229722
4   0.113867
5   0.136288
6   -0.113892
7   0.191987
8   -0.379913
9   -0.331928
10   -0.233567
11   -0.365096
12   0.16687
13   0.156163
14   0.158907
15   0.36754
16   0.358352
17   0.355372

$$$$

