PCCDB-ID:  20744
public computational chemistry database (PCCDB) project, http://pccdb.org

 30 31  0  0  0  0  0  0  0  0999 V2000
    1.1744   -0.5082    0.0854 C   0  0  0  0  0  0  0  0  0  0  0  0
   -0.0366   -1.1118    0.0908 C   0  0  0  0  0  0  0  0  0  0  0  0
    2.6833   -2.5410    0.0403 C   0  0  0  0  0  0  0  0  0  0  0  0
    3.6396   -0.3374    0.0964 C   0  0  0  0  0  0  0  0  0  0  0  0
   -1.5098    0.9494    0.1298 C   0  0  0  0  0  0  0  0  0  0  0  0
   -2.5027   -1.2529    0.0799 C   0  0  0  0  0  0  0  0  0  0  0  0
    3.9530   -3.0938    0.0291 C   0  0  0  0  0  0  0  0  0  0  0  0
    4.9171   -0.8789    0.0857 C   0  0  0  0  0  0  0  0  0  0  0  0
   -2.7717    1.5224    0.1344 C   0  0  0  0  0  0  0  0  0  0  0  0
   -3.7734   -0.6948    0.0855 C   0  0  0  0  0  0  0  0  0  0  0  0
    2.4851   -1.1445    0.0747 C   0  0  0  0  0  0  0  0  0  0  0  0
   -1.3390   -0.4533    0.1001 C   0  0  0  0  0  0  0  0  0  0  0  0
    5.0991   -2.2728    0.0522 C   0  0  0  0  0  0  0  0  0  0  0  0
   -3.8968    0.6940    0.1123 C   0  0  0  0  0  0  0  0  0  0  0  0
    6.3703   -2.8305    0.0961 N   0  0  0  0  0  0  0  0  0  0  0  0
   -5.2293    1.2956    0.1184 N   0  0  0  0  0  0  0  0  0  0  0  0
   -5.3052    2.5266    0.1354 O   0  0  0  0  0  0  0  0  0  0  0  0
   -6.2032    0.5389    0.1059 O   0  0  0  0  0  0  0  0  0  0  0  0
    1.2111    0.5805    0.0910 H   0  0  0  0  0  0  0  0  0  0  0  0
   -0.0826   -2.1994    0.0873 H   0  0  0  0  0  0  0  0  0  0  0  0
    1.8275   -3.2092    0.0176 H   0  0  0  0  0  0  0  0  0  0  0  0
    3.5263    0.7442    0.1198 H   0  0  0  0  0  0  0  0  0  0  0  0
   -0.6432    1.6020    0.1506 H   0  0  0  0  0  0  0  0  0  0  0  0
   -2.3983   -2.3345    0.0579 H   0  0  0  0  0  0  0  0  0  0  0  0
    4.0722   -4.1747    0.0054 H   0  0  0  0  0  0  0  0  0  0  0  0
    5.7853   -0.2242    0.1053 H   0  0  0  0  0  0  0  0  0  0  0  0
   -2.9050    2.5970    0.1576 H   0  0  0  0  0  0  0  0  0  0  0  0
   -4.6649   -1.3096    0.0694 H   0  0  0  0  0  0  0  0  0  0  0  0
    6.4546   -3.7739   -0.2596 H   0  0  0  0  0  0  0  0  0  0  0  0
    7.1283   -2.2335   -0.2079 H   0  0  0  0  0  0  0  0  0  0  0  0
  1  2  2  0  0  0  0
  1 19  1  0  0  0  0
  2 12  1  0  0  0  0
  3 11  1  0  0  0  0
  4 22  1  0  0  0  0
  5  9  1  0  0  0  0
  5 23  1  0  0  0  0
  6 10  2  0  0  0  0
  6 12  1  0  0  0  0
  7  3  2  0  0  0  0
  7 13  1  0  0  0  0
  8  4  1  0  0  0  0
  8 26  1  0  0  0  0
  9 27  1  0  0  0  0
 10 14  1  0  0  0  0
 11  1  1  0  0  0  0
 11  4  2  0  0  0  0
 12  5  2  0  0  0  0
 13  8  2  0  0  0  0
 13 15  1  0  0  0  0
 14 16  1  0  0  0  0
 14  9  2  0  0  0  0
 16 17  2  0  0  0  0
 18 16  2  0  0  0  0
 20  2  1  0  0  0  0
 21  3  1  0  0  0  0
 24  6  1  0  0  0  0
 25  7  1  0  0  0  0
 28 10  1  0  0  0  0
 29 15  1  0  0  0  0
 30 15  1  0  0  0  0
M  END
>  <HBA>
1

>  <HBD>
1

>  <TPSA>
71.84

>  <cid>
20744

>  <dipole>
9.42

>  <excitation_energy_1>
2.782

>  <excitation_energy_2>
3.683

>  <excitation_energy_3>
3.895

>  <excitation_energy_4>
4.096

>  <homo_energy>
-5.404

>  <homo_lumo_gap>
3.069

>  <logP>
4.452

>  <lumo_energy>
-2.335

>  <melting_point>
157.75

>  <molecular_refractivity>
75.04

>  <oscillator_strength_1>
0.7547

>  <oscillator_strength_2>
0.0

>  <oscillator_strength_3>
0.3479

>  <oscillator_strength_4>
0.0726

>  <open_babel_can_smiles>
Nc1ccc(cc1)/C=C/c1ccc(cc1)N(=O)=O

>  <mulliken_charges>
30
1   -0.180229
2   -0.201561
3   -0.184788
4   -0.203284
5   -0.19428
6   -0.215132
7   -0.172468
8   -0.173999
9   -0.152358
10   -0.149549
11   0.177547
12   0.205751
13   0.32652
14   0.274129
15   -0.788966
16   0.37222
17   -0.404876
18   -0.404397
19   0.131064
20   0.128043
21   0.133914
22   0.131905
23   0.141265
24   0.140066
25   0.124729
26   0.124405
27   0.179126
28   0.17938
29   0.327889
30   0.327934

>  <lowdin_charges>
30
1   -0.131011
2   -0.177111
3   -0.138658
4   -0.139115
5   -0.157348
6   -0.15765
7   -0.191539
8   -0.200236
9   -0.134287
10   -0.13668
11   -0.030983
12   0.024583
13   0.069885
14   -0.006842
15   -0.474827
16   0.30567
17   -0.255733
18   -0.258221
19   0.15267
20   0.1521
21   0.160367
22   0.156487
23   0.163833
24   0.160767
25   0.154302
26   0.157041
27   0.183938
28   0.186749
29   0.28001
30   0.281841

$$$$

