PCCDB-ID:  33257
public computational chemistry database (PCCDB) project, http://pccdb.org

 17 16  0  0  0  0  0  0  0  0999 V2000
    1.3827    2.0906    0.0408 C   0  0  0  0  0  0  0  0  0  0  0  0
    2.4122    1.1909   -0.6213 C   0  0  0  0  0  0  0  0  0  0  0  0
    4.3860    1.2497    2.6049 C   0  0  0  0  0  0  0  0  0  0  0  0
    4.8490    0.4998    3.5230 N   0  0  0  0  0  0  0  0  0  0  0  0
    3.8014    2.4626    2.7013 O   0  0  0  0  0  0  0  0  0  0  0  0
    5.1241   -0.8300    1.1606 O   0  0  0  0  0  0  0  0  0  0  0  0
    5.3611    1.5443   -0.0040 O   0  0  0  0  0  0  0  0  0  0  0  0
    3.0643    0.3472    0.3670 O   0  0  0  0  0  0  0  0  0  0  0  0
    4.5663    0.6415    0.8589 P   0  0  2  0  0  0  0  0  0  0  0  0
    0.8565    2.6738   -0.7239 H   0  0  0  0  0  0  0  0  0  0  0  0
    1.8604    2.7848    0.7392 H   0  0  0  0  0  0  0  0  0  0  0  0
    0.6441    1.4977    0.5902 H   0  0  0  0  0  0  0  0  0  0  0  0
    3.1733    1.7671   -1.1537 H   0  0  0  0  0  0  0  0  0  0  0  0
    1.9424    0.4957   -1.3229 H   0  0  0  0  0  0  0  0  0  0  0  0
    4.7668    0.8757    4.4733 H   0  0  0  0  0  0  0  0  0  0  0  0
    3.7666    2.7474    3.6329 H   0  0  0  0  0  0  0  0  0  0  0  0
    5.3047   -0.8996    2.1257 H   0  0  0  0  0  0  0  0  0  0  0  0
  1 12  1  0  0  0  0
  1 11  1  0  0  0  0
  2  1  1  0  0  0  0
  2  8  1  0  0  0  0
  3  5  1  0  0  0  0
  3  4  2  0  0  0  0
  4 15  1  0  0  0  0
  5 16  1  0  0  0  0
  6 17  1  0  0  0  0
  8  9  1  0  0  0  0
  9  7  2  6  0  0  0
  9  6  1  0  0  0  0
  9  3  1  0  0  0  0
 10  1  1  0  0  0  0
 13  2  1  0  0  0  0
 14  2  1  0  0  0  0
M  END
>  <HBA>
5

>  <HBD>
2

>  <TPSA>
99.43

>  <cid>
33257

>  <dipole>
5.32

>  <excitation_energy_1>
5.934

>  <excitation_energy_2>
6.099

>  <excitation_energy_3>
6.45

>  <excitation_energy_4>
6.527

>  <homo_energy>
-7.796

>  <homo_lumo_gap>
7.127

>  <logP>
0.987

>  <lumo_energy>
-0.669

>  <melting_point>
103.33

>  <molecular_refractivity>
30.74

>  <oscillator_strength_1>
0.0146

>  <oscillator_strength_2>
0.0031

>  <oscillator_strength_3>
0.0419

>  <oscillator_strength_4>
0.0518

>  <open_babel_can_smiles>
CCO[P@@](=O)(C(=N)O)O

>  <mulliken_charges>
17
1   -0.460348
2   -0.046844
3   0.284651
4   -0.615706
5   -0.551887
6   -0.641314
7   -0.532987
8   -0.515617
9   1.100915
10   0.151145
11   0.170645
12   0.158667
13   0.185683
14   0.159873
15   0.290917
16   0.406592
17   0.455616

>  <lowdin_charges>
17
1   -0.459483
2   -0.120832
3   -0.010174
4   -0.410427
5   -0.338055
6   -0.557894
7   -0.570537
8   -0.394699
9   1.055172
10   0.160356
11   0.1629
12   0.15832
13   0.169623
14   0.155739
15   0.258494
16   0.358377
17   0.383118

$$$$

