PCCDB-ID:  52404
public computational chemistry database (PCCDB) project, http://pccdb.org

 30 31  0  0  0  0  0  0  0  0999 V2000
    4.3670    0.5237   -0.9620 C   0  0  0  0  0  0  0  0  0  0  0  0
    3.0837    1.1331   -1.5216 C   0  0  0  0  0  0  0  0  0  0  0  0
   -0.1944    6.6958   -3.9663 C   0  0  0  0  0  0  0  0  0  0  0  0
    0.9323    6.0095   -3.4561 C   0  0  0  0  0  0  0  0  0  0  0  0
   -2.8062    2.6051   -3.7268 C   0  0  0  0  0  0  0  0  0  0  0  0
   -1.3839    6.0283   -4.1553 C   0  0  0  0  0  0  0  0  0  0  0  0
   -2.7267    3.9402   -4.0367 C   0  0  0  0  0  0  0  0  0  0  0  0
    0.8495    4.6697   -3.1441 C   0  0  0  0  0  0  0  0  0  0  0  0
   -1.6864    1.9040   -3.2138 C   0  0  0  0  0  0  0  0  0  0  0  0
    0.6013    0.6034   -2.1845 C   0  0  0  0  0  0  0  0  0  0  0  0
   -1.5073    4.6475   -3.8464 C   0  0  0  0  0  0  0  0  0  0  0  0
    1.9543    0.1302   -1.6446 C   0  0  0  0  0  0  0  0  0  0  0  0
   -0.3640    3.9586   -3.3296 C   0  0  0  0  0  0  0  0  0  0  0  0
   -0.4907    2.5658   -3.0187 C   0  0  0  0  0  0  0  0  0  0  0  0
    2.0618   -1.0401   -1.3335 O   0  0  0  0  0  0  0  0  0  0  0  0
    0.6448    1.9769   -2.5283 O   0  0  0  0  0  0  0  0  0  0  0  0
    5.1531    1.2825   -0.8932 H   0  0  0  0  0  0  0  0  0  0  0  0
    4.7260   -0.2897   -1.5996 H   0  0  0  0  0  0  0  0  0  0  0  0
    4.2014    0.1059    0.0356 H   0  0  0  0  0  0  0  0  0  0  0  0
    3.2437    1.5779   -2.5140 H   0  0  0  0  0  0  0  0  0  0  0  0
    2.7247    1.9670   -0.9019 H   0  0  0  0  0  0  0  0  0  0  0  0
   -0.1180    7.7525   -4.2082 H   0  0  0  0  0  0  0  0  0  0  0  0
    1.8676    6.5432   -3.3106 H   0  0  0  0  0  0  0  0  0  0  0  0
   -3.7374    2.0642   -3.8717 H   0  0  0  0  0  0  0  0  0  0  0  0
   -2.2526    6.5519   -4.5473 H   0  0  0  0  0  0  0  0  0  0  0  0
   -3.5892    4.4724   -4.4287 H   0  0  0  0  0  0  0  0  0  0  0  0
    1.7120    4.1418   -2.7533 H   0  0  0  0  0  0  0  0  0  0  0  0
   -1.7874    0.8506   -2.9810 H   0  0  0  0  0  0  0  0  0  0  0  0
   -0.1571    0.4137   -1.4112 H   0  0  0  0  0  0  0  0  0  0  0  0
    0.3476   -0.0164   -3.0563 H   0  0  0  0  0  0  0  0  0  0  0  0
  1 17  1  0  0  0  0
  1 19  1  0  0  0  0
  2  1  1  0  0  0  0
  2 21  1  0  0  0  0
  3  4  1  0  0  0  0
  4 23  1  0  0  0  0
  4  8  2  0  0  0  0
  5  9  2  0  0  0  0
  6  3  2  0  0  0  0
  6 11  1  0  0  0  0
  7 11  2  0  0  0  0
  7  5  1  0  0  0  0
  8 27  1  0  0  0  0
  9 14  1  0  0  0  0
  9 28  1  0  0  0  0
 10 12  1  0  0  0  0
 10 29  1  0  0  0  0
 11 13  1  0  0  0  0
 12  2  1  0  0  0  0
 12 15  2  0  0  0  0
 13  8  1  0  0  0  0
 13 14  2  0  0  0  0
 14 16  1  0  0  0  0
 16 10  1  0  0  0  0
 18  1  1  0  0  0  0
 20  2  1  0  0  0  0
 22  3  1  0  0  0  0
 24  5  1  0  0  0  0
 25  6  1  0  0  0  0
 26  7  1  0  0  0  0
 30 10  1  0  0  0  0
M  END
>  <HBA>
2

>  <HBD>
0

>  <TPSA>
26.3

>  <cid>
52404

>  <dipole>
1.74

>  <excitation_energy_1>
4.176

>  <excitation_energy_2>
4.28

>  <excitation_energy_3>
4.45

>  <excitation_energy_4>
4.476

>  <homo_energy>
-5.611

>  <homo_lumo_gap>
4.683

>  <logP>
3.198

>  <lumo_energy>
-0.928

>  <melting_point>
73.16

>  <molecular_refractivity>
65.06

>  <oscillator_strength_1>
0.0982

>  <oscillator_strength_2>
0.0285

>  <oscillator_strength_3>
0.003

>  <oscillator_strength_4>
0.0

>  <open_babel_can_smiles>
CCC(=O)COc1cccc2c1cccc2

>  <mulliken_charges>
30
1   -0.436549
2   -0.34936
3   -0.127995
4   -0.139275
5   -0.143285
6   -0.201219
7   -0.189064
8   -0.173258
9   -0.208654
10   -0.111591
11   0.137387
12   0.426028
13   0.05572
14   0.329097
15   -0.443132
16   -0.529606
17   0.143178
18   0.161959
19   0.161648
20   0.175573
21   0.174733
22   0.130507
23   0.129562
24   0.132452
25   0.130556
26   0.127519
27   0.144902
28   0.137987
29   0.176911
30   0.177266

>  <lowdin_charges>
30
1   -0.440937
2   -0.306572
3   -0.153498
4   -0.159849
5   -0.149178
6   -0.158027
7   -0.176135
8   -0.154158
9   -0.220442
10   -0.160572
11   0.006598
12   0.157383
13   -0.022214
14   0.101324
15   -0.231491
16   -0.199253
17   0.152733
18   0.160384
19   0.158707
20   0.169694
21   0.170714
22   0.157284
23   0.15852
24   0.160285
25   0.158925
26   0.158896
27   0.16649
28   0.162764
29   0.165669
30   0.165955

$$$$

