PCCDB-ID:  29269
public computational chemistry database (PCCDB) project, http://pccdb.org

 35 34  0  0  1  0  0  0  0  0999 V2000
    1.1273   -0.1318   -1.2535 C   0  0  0  0  0  0  0  0  0  0  0  0
    0.6631   -1.5192   -1.7278 C   0  0  0  0  0  0  0  0  0  0  0  0
    2.6330   -0.0409   -0.9285 C   0  0  0  0  0  0  0  0  0  0  0  0
   -0.8193   -1.5753   -2.1094 C   0  0  0  0  0  0  0  0  0  0  0  0
   -2.5277   -0.7505   -3.7096 C   0  0  0  0  0  0  0  0  0  0  0  0
    3.0427   -0.4445    0.5125 C   0  0  1  0  0  0  0  0  0  0  0  0
   -3.2126    0.4714   -3.0605 C   0  0  1  0  0  0  0  0  0  0  0  0
    2.4364    0.5479    1.5244 C   0  0  0  0  0  0  0  0  0  0  0  0
   -2.5840    1.8180   -3.5040 C   0  0  0  0  0  0  0  0  0  0  0  0
    2.6797   -1.8262    0.8203 N   0  0  0  0  0  0  0  0  0  0  0  0
   -4.6500    0.3994   -3.2954 N   0  0  0  0  0  0  0  0  0  0  0  0
   -1.0963   -0.8298   -3.3517 N   0  0  0  0  0  0  0  0  0  0  0  0
    1.5014    0.2767    2.2388 O   0  0  0  0  0  0  0  0  0  0  0  0
    2.9804    1.7918    1.5573 O   0  0  0  0  0  0  0  0  0  0  0  0
   -3.2647    2.7865   -3.7605 O   0  0  0  0  0  0  0  0  0  0  0  0
   -1.2434    1.8489   -3.5547 O   0  0  0  0  0  0  0  0  0  0  0  0
    0.5364    0.1695   -0.3773 H   0  0  0  0  0  0  0  0  0  0  0  0
    0.8987    0.6048   -2.0317 H   0  0  0  0  0  0  0  0  0  0  0  0
    0.8558   -2.2667   -0.9520 H   0  0  0  0  0  0  0  0  0  0  0  0
    1.2689   -1.8317   -2.5922 H   0  0  0  0  0  0  0  0  0  0  0  0
    2.9728    0.9892   -1.1037 H   0  0  0  0  0  0  0  0  0  0  0  0
    3.2018   -0.6776   -1.6162 H   0  0  0  0  0  0  0  0  0  0  0  0
   -1.4252   -1.1330   -1.3093 H   0  0  0  0  0  0  0  0  0  0  0  0
   -1.1449   -2.6242   -2.2068 H   0  0  0  0  0  0  0  0  0  0  0  0
   -2.6016   -0.6654   -4.8009 H   0  0  0  0  0  0  0  0  0  0  0  0
   -3.0828   -1.6515   -3.4139 H   0  0  0  0  0  0  0  0  0  0  0  0
    4.1374   -0.3638    0.5694 H   0  0  0  0  0  0  0  0  0  0  0  0
   -3.0542    0.4027   -1.9741 H   0  0  0  0  0  0  0  0  0  0  0  0
    3.2382   -2.1464    1.6108 H   0  0  0  0  0  0  0  0  0  0  0  0
    1.7219   -1.8172    1.1743 H   0  0  0  0  0  0  0  0  0  0  0  0
   -4.8214    0.5830   -4.2853 H   0  0  0  0  0  0  0  0  0  0  0  0
   -5.0825    1.1937   -2.8249 H   0  0  0  0  0  0  0  0  0  0  0  0
   -0.5818   -1.2699   -4.1126 H   0  0  0  0  0  0  0  0  0  0  0  0
    3.7212    1.8504    0.9309 H   0  0  0  0  0  0  0  0  0  0  0  0
   -0.9116    0.9127   -3.4105 H   0  0  0  0  0  0  0  0  0  0  0  0
  1  3  1  0  0  0  0
  1 17  1  0  0  0  0
  2  1  1  0  0  0  0
  2 19  1  0  0  0  0
  3  6  1  0  0  0  0
  4  2  1  0  0  0  0
  4 23  1  0  0  0  0
  5 26  1  0  0  0  0
  5 12  1  0  0  0  0
  5  7  1  0  0  0  0
  6 27  1  1  0  0  0
  6 10  1  0  0  0  0
  6  8  1  0  0  0  0
  7 28  1  1  0  0  0
  8 14  1  0  0  0  0
  8 13  2  0  0  0  0
  9  7  1  0  0  0  0
 10 30  1  0  0  0  0
 10 29  1  0  0  0  0
 11  7  1  0  0  0  0
 11 32  1  0  0  0  0
 12  4  1  0  0  0  0
 15  9  2  0  0  0  0
 16  9  1  0  0  0  0
 16 35  1  0  0  0  0
 18  1  1  0  0  0  0
 20  2  1  0  0  0  0
 21  3  1  0  0  0  0
 22  3  1  0  0  0  0
 24  4  1  0  0  0  0
 25  5  1  0  0  0  0
 31 11  1  0  0  0  0
 33 12  1  0  0  0  0
 34 14  1  0  0  0  0
M  END
>  <HBA>
7

>  <HBD>
5

>  <TPSA>
138.67

>  <cid>
29269

>  <dipole>
6.55

>  <excitation_energy_1>
5.53

>  <excitation_energy_2>
5.534

>  <excitation_energy_3>
5.798

>  <excitation_energy_4>
5.854

>  <homo_energy>
-6.534

>  <homo_lumo_gap>
6.476

>  <logP>
0.362

>  <lumo_energy>
-0.057

>  <melting_point>
261.44

>  <molecular_refractivity>
57.14

>  <oscillator_strength_1>
0.002

>  <oscillator_strength_2>
0.0036

>  <oscillator_strength_3>
0.0035

>  <oscillator_strength_4>
0.001

>  <open_babel_can_smiles>
N[C@H](C(=O)O)CCCCNC[C@@H](C(=O)O)N

>  <mulliken_charges>
35
1   -0.2843
2   -0.273107
3   -0.255477
4   -0.134759
5   -0.140028
6   -0.109397
7   -0.102684
8   0.590683
9   0.568609
10   -0.698119
11   -0.697539
12   -0.620378
13   -0.448917
14   -0.559077
15   -0.468015
16   -0.608351
17   0.155308
18   0.157233
19   0.167287
20   0.129161
21   0.126368
22   0.157418
23   0.158522
24   0.137077
25   0.149511
26   0.165154
27   0.139867
28   0.16659
29   0.307689
30   0.318442
31   0.299613
32   0.316403
33   0.319642
34   0.413696
35   0.455875

>  <lowdin_charges>
35
1   -0.287216
2   -0.284395
3   -0.276787
4   -0.204294
5   -0.210151
6   -0.112209
7   -0.119896
8   0.176442
9   0.165602
10   -0.535716
11   -0.532253
12   -0.356809
13   -0.244852
14   -0.349074
15   -0.268718
16   -0.381304
17   0.152244
18   0.154928
19   0.16178
20   0.140192
21   0.139991
22   0.157997
23   0.150668
24   0.133428
25   0.148296
26   0.152746
27   0.147002
28   0.156842
29   0.263075
30   0.264016
31   0.255488
32   0.268215
33   0.267597
34   0.360236
35   0.346887

$$$$

