PCCDB-ID:  11163
public computational chemistry database (PCCDB) project, http://pccdb.org

 17 16  0  0  0  0  0  0  0  0999 V2000
    0.8769   -0.3096    0.2995 C   0  0  0  0  0  0  0  0  0  0  0  0
    3.0449    1.7472    0.2359 C   0  0  0  0  0  0  0  0  0  0  0  0
    0.7273    1.1956    0.1051 C   0  0  0  0  0  0  0  0  0  0  0  0
    3.8925    3.0316    0.1835 C   0  0  0  0  0  0  0  0  0  0  0  0
    0.5848   -0.7737    1.6608 N   0  0  0  0  0  0  0  0  0  0  0  0
    1.6367    2.0809    0.1036 N   0  0  0  0  0  0  0  0  0  0  0  0
   -0.5559    1.6473    0.0199 O   0  0  0  0  0  0  0  0  0  0  0  0
    5.0958    3.0094    0.2841 O   0  0  0  0  0  0  0  0  0  0  0  0
    3.1809    4.1541    0.0170 O   0  0  0  0  0  0  0  0  0  0  0  0
    1.8923   -0.6195    0.0425 H   0  0  0  0  0  0  0  0  0  0  0  0
    0.2052   -0.8335   -0.3948 H   0  0  0  0  0  0  0  0  0  0  0  0
    3.2828    1.2496    1.1859 H   0  0  0  0  0  0  0  0  0  0  0  0
    3.4092    1.0930   -0.5677 H   0  0  0  0  0  0  0  0  0  0  0  0
    1.2499   -0.3684    2.3173 H   0  0  0  0  0  0  0  0  0  0  0  0
   -0.3369   -0.4564    1.9578 H   0  0  0  0  0  0  0  0  0  0  0  0
   -1.1563    0.8974   -0.1151 H   0  0  0  0  0  0  0  0  0  0  0  0
    2.2358    3.8675   -0.0253 H   0  0  0  0  0  0  0  0  0  0  0  0
  1  5  1  0  0  0  0
  2 12  1  0  0  0  0
  3  1  1  0  0  0  0
  4  2  1  0  0  0  0
  4  8  2  0  0  0  0
  5 15  1  0  0  0  0
  5 14  1  0  0  0  0
  6  3  2  0  0  0  0
  6  2  1  0  0  0  0
  7  3  1  0  0  0  0
  9  4  1  0  0  0  0
 10  1  1  0  0  0  0
 11  1  1  0  0  0  0
 13  2  1  0  0  0  0
 16  7  1  0  0  0  0
 17  9  1  0  0  0  0
M  END
>  <HBA>
5

>  <HBD>
3

>  <TPSA>
92.42

>  <cid>
11163

>  <dipole>
7.0

>  <excitation_energy_1>
5.061

>  <excitation_energy_2>
5.496

>  <excitation_energy_3>
5.7

>  <excitation_energy_4>
5.852

>  <homo_energy>
-6.863

>  <homo_lumo_gap>
6.172

>  <logP>
-0.763

>  <lumo_energy>
-0.691

>  <melting_point>
154.74

>  <molecular_refractivity>
28.82

>  <oscillator_strength_1>
0.0203

>  <oscillator_strength_2>
0.0133

>  <oscillator_strength_3>
0.001

>  <oscillator_strength_4>
0.0047

>  <open_babel_can_smiles>
NC/C(=N\CC(=O)O)/O

>  <mulliken_charges>
17
1   -0.243834
2   -0.245428
3   0.496952
4   0.589741
5   -0.68723
6   -0.472934
7   -0.572661
8   -0.46448
9   -0.570875
10   0.183894
11   0.160646
12   0.176722
13   0.186448
14   0.316236
15   0.3033
16   0.411759
17   0.431745

>  <lowdin_charges>
17
1   -0.236306
2   -0.245841
3   0.125053
4   0.174751
5   -0.53398
6   -0.228327
7   -0.357677
8   -0.258568
9   -0.347132
10   0.169421
11   0.158044
12   0.165512
13   0.171344
14   0.267511
15   0.258245
16   0.359796
17   0.358153

$$$$

