PCCDB-ID:  15906
public computational chemistry database (PCCDB) project, http://pccdb.org

 18 17  0  0  0  0  0  0  0  0999 V2000
   -0.1752   -2.2562   -1.1982 C   0  0  0  0  0  0  0  0  0  0  0  0
    0.5744   -1.7060    4.6282 C   0  0  0  0  0  0  0  0  0  0  0  0
    0.4763   -1.3510   -0.1530 C   0  0  0  0  0  0  0  0  0  0  0  0
    0.8129   -2.6819    3.4764 C   0  0  0  0  0  0  0  0  0  0  0  0
   -1.3458   -1.6904   -1.7547 O   0  0  0  0  0  0  0  0  0  0  0  0
   -0.5013   -2.0971    5.4589 O   0  0  0  0  0  0  0  0  0  0  0  0
   -0.6172   -1.0081    1.2995 S   0  0  0  0  0  0  0  0  0  0  0  0
   -0.6340   -2.8272    2.3322 S   0  0  0  0  0  0  0  0  0  0  0  0
   -0.3658   -3.2485   -0.7607 H   0  0  0  0  0  0  0  0  0  0  0  0
    0.5242   -2.3908   -2.0314 H   0  0  0  0  0  0  0  0  0  0  0  0
    0.4370   -0.6893    4.2282 H   0  0  0  0  0  0  0  0  0  0  0  0
    1.4643   -1.6924    5.2680 H   0  0  0  0  0  0  0  0  0  0  0  0
    0.6599   -0.3583   -0.5804 H   0  0  0  0  0  0  0  0  0  0  0  0
    1.4285   -1.7590    0.2009 H   0  0  0  0  0  0  0  0  0  0  0  0
    0.9390   -3.6983    3.8672 H   0  0  0  0  0  0  0  0  0  0  0  0
    1.7044   -2.4181    2.8983 H   0  0  0  0  0  0  0  0  0  0  0  0
   -1.9843   -1.5895   -1.0289 H   0  0  0  0  0  0  0  0  0  0  0  0
   -1.3025   -2.0870    4.9087 H   0  0  0  0  0  0  0  0  0  0  0  0
  1  9  1  0  0  0  0
  1  3  1  0  0  0  0
  2 12  1  0  0  0  0
  2  6  1  0  0  0  0
  3 14  1  0  0  0  0
  3  7  1  0  0  0  0
  4 15  1  0  0  0  0
  4  2  1  0  0  0  0
  5  1  1  0  0  0  0
  5 17  1  0  0  0  0
  7  8  1  0  0  0  0
  8  4  1  0  0  0  0
 10  1  1  0  0  0  0
 11  2  1  0  0  0  0
 13  3  1  0  0  0  0
 16  4  1  0  0  0  0
 18  6  1  0  0  0  0
M  END
>  <HBA>
4

>  <HBD>
2

>  <TPSA>
91.06

>  <cid>
15906

>  <dipole>
2.27

>  <excitation_energy_1>
4.588

>  <excitation_energy_2>
4.754

>  <excitation_energy_3>
5.813

>  <excitation_energy_4>
5.878

>  <homo_energy>
-6.803

>  <homo_lumo_gap>
5.761

>  <logP>
0.352

>  <lumo_energy>
-1.042

>  <melting_point>
29.94

>  <molecular_refractivity>
38.85

>  <oscillator_strength_1>
0.0092

>  <oscillator_strength_2>
0.0014

>  <oscillator_strength_3>
0.0

>  <oscillator_strength_4>
0.0099

>  <open_babel_can_smiles>
OCCSSCCO

>  <mulliken_charges>
18
1   -0.026901
2   -0.027011
3   -0.434688
4   -0.434669
5   -0.611951
6   -0.611995
7   -0.010286
8   -0.010205
9   0.150225
10   0.156856
11   0.150343
12   0.156874
13   0.19511
14   0.17597
15   0.195126
16   0.175971
17   0.405618
18   0.405613

>  <lowdin_charges>
18
1   -0.14033
2   -0.140015
3   -0.39758
4   -0.397915
5   -0.463544
6   -0.462888
7   0.017903
8   0.017678
9   0.139124
10   0.155204
11   0.138943
12   0.154702
13   0.177636
14   0.16463
15   0.177318
16   0.165079
17   0.34707
18   0.346983

$$$$

