PCCDB-ID:  30213
public computational chemistry database (PCCDB) project, http://pccdb.org

 31 30  0  0  0  0  0  0  0  0999 V2000
    4.1487    2.7126    2.4080 C   0  0  0  0  0  0  0  0  0  0  0  0
    7.9021    1.4344   -1.2125 C   0  0  0  0  0  0  0  0  0  0  0  0
    7.8923    0.2903    1.0726 C   0  0  0  0  0  0  0  0  0  0  0  0
    5.8272   -1.2936   -2.5940 C   0  0  0  0  0  0  0  0  0  0  0  0
    5.8213   -2.4462   -0.3202 C   0  0  0  0  0  0  0  0  0  0  0  0
    4.6272    3.0432    1.0021 C   0  0  0  0  0  0  0  0  0  0  0  0
    7.3928    0.2471   -0.3801 C   0  0  0  0  0  0  0  0  0  0  0  0
    5.4230   -1.1951   -1.1160 C   0  0  0  0  0  0  0  0  0  0  0  0
    4.9874    0.9421   -0.0528 C   0  0  0  0  0  0  0  0  0  0  0  0
    5.9280    0.0453   -0.4856 N   0  0  0  0  0  0  0  0  0  0  0  0
    3.7762    0.7927   -0.1434 O   0  0  0  0  0  0  0  0  0  0  0  0
    5.5528    2.0522    0.5050 O   0  0  0  0  0  0  0  0  0  0  0  0
    3.5055    3.5178    2.7822 H   0  0  0  0  0  0  0  0  0  0  0  0
    4.9954    2.6032    3.0943 H   0  0  0  0  0  0  0  0  0  0  0  0
    3.5712    1.7843    2.4040 H   0  0  0  0  0  0  0  0  0  0  0  0
    8.9985    1.4447   -1.2097 H   0  0  0  0  0  0  0  0  0  0  0  0
    7.5482    2.3848   -0.8079 H   0  0  0  0  0  0  0  0  0  0  0  0
    7.5665    1.3526   -2.2518 H   0  0  0  0  0  0  0  0  0  0  0  0
    8.9886    0.2834    1.0881 H   0  0  0  0  0  0  0  0  0  0  0  0
    7.5385   -0.5830    1.6306 H   0  0  0  0  0  0  0  0  0  0  0  0
    7.5464    1.1911    1.5837 H   0  0  0  0  0  0  0  0  0  0  0  0
    5.3566   -2.1714   -3.0514 H   0  0  0  0  0  0  0  0  0  0  0  0
    6.9111   -1.3995   -2.7236 H   0  0  0  0  0  0  0  0  0  0  0  0
    5.5000   -0.4059   -3.1452 H   0  0  0  0  0  0  0  0  0  0  0  0
    5.3611   -3.3346   -0.7677 H   0  0  0  0  0  0  0  0  0  0  0  0
    5.4784   -2.3715    0.7169 H   0  0  0  0  0  0  0  0  0  0  0  0
    6.9059   -2.6089   -0.3133 H   0  0  0  0  0  0  0  0  0  0  0  0
    5.1991    3.9751    0.9846 H   0  0  0  0  0  0  0  0  0  0  0  0
    3.7863    3.1206    0.3095 H   0  0  0  0  0  0  0  0  0  0  0  0
    7.8164   -0.6555   -0.8308 H   0  0  0  0  0  0  0  0  0  0  0  0
    4.3375   -1.0990   -1.0703 H   0  0  0  0  0  0  0  0  0  0  0  0
  1 13  1  0  0  0  0
  1 14  1  0  0  0  0
  2 16  1  0  0  0  0
  2 17  1  0  0  0  0
  2  7  1  0  0  0  0
  3 19  1  0  0  0  0
  3 21  1  0  0  0  0
  3 20  1  0  0  0  0
  4  8  1  0  0  0  0
  5 27  1  0  0  0  0
  5 26  1  0  0  0  0
  6  1  1  0  0  0  0
  7  3  1  0  0  0  0
  8 31  1  0  0  0  0
  8 10  1  0  0  0  0
  8  5  1  0  0  0  0
  9 12  1  0  0  0  0
 10  7  1  0  0  0  0
 10  9  1  0  0  0  0
 11  9  2  0  0  0  0
 12  6  1  0  0  0  0
 15  1  1  0  0  0  0
 18  2  1  0  0  0  0
 22  4  1  0  0  0  0
 23  4  1  0  0  0  0
 24  4  1  0  0  0  0
 25  5  1  0  0  0  0
 28  6  1  0  0  0  0
 29  6  1  0  0  0  0
 30  7  1  0  0  0  0
M  END
>  <HBA>
3

>  <HBD>
0

>  <TPSA>
29.54

>  <cid>
30213

>  <dipole>
2.01

>  <excitation_energy_1>
5.803

>  <excitation_energy_2>
6.259

>  <excitation_energy_3>
6.321

>  <excitation_energy_4>
6.37

>  <homo_energy>
-6.291

>  <homo_lumo_gap>
7.946

>  <logP>
2.262

>  <lumo_energy>
1.654

>  <melting_point>
-3.14

>  <molecular_refractivity>
49.95

>  <oscillator_strength_1>
0.0104

>  <oscillator_strength_2>
0.0226

>  <oscillator_strength_3>
0.0254

>  <oscillator_strength_4>
0.0003

>  <open_babel_can_smiles>
CCOC(=O)N(C(C)C)C(C)C

>  <mulliken_charges>
31
1   -0.461458
2   -0.450251
3   -0.450337
4   -0.444567
5   -0.444718
6   -0.033718
7   0.046816
8   0.015541
9   0.804338
10   -0.463912
11   -0.540182
12   -0.495541
13   0.145437
14   0.151061
15   0.17865
16   0.138044
17   0.170593
18   0.147297
19   0.138006
20   0.147219
21   0.169554
22   0.14754
23   0.141316
24   0.157029
25   0.14756
26   0.156395
27   0.141586
28   0.144363
29   0.170549
30   0.139066
31   0.186724

>  <lowdin_charges>
31
1   -0.458263
2   -0.451647
3   -0.454161
4   -0.451624
5   -0.449611
6   -0.126778
7   -0.04412
8   -0.052123
9   0.204809
10   -0.1135
11   -0.330133
12   -0.210875
13   0.157231
14   0.152991
15   0.166725
16   0.147506
17   0.161423
18   0.150686
19   0.14746
20   0.152506
21   0.161101
22   0.1554
23   0.143912
24   0.157356
25   0.155283
26   0.155368
27   0.144024
28   0.147711
29   0.159855
30   0.148315
31   0.173176

$$$$

