PCCDB-ID:  61319
public computational chemistry database (PCCDB) project, http://pccdb.org

 18 17  0  0  0  0  0  0  0  0999 V2000
    4.2461    0.1455    0.9640 C   0  0  0  0  0  0  0  0  0  0  0  0
    5.4105    5.4998   -1.7509 C   0  0  0  0  0  0  0  0  0  0  0  0
    3.3041    0.7119    0.2106 C   0  0  0  0  0  0  0  0  0  0  0  0
    4.1561    4.6302   -1.6962 C   0  0  0  0  0  0  0  0  0  0  0  0
    3.4705    1.0031   -1.2521 C   0  0  0  0  0  0  0  0  0  0  0  0
    4.4673    3.1618   -1.4736 C   0  0  0  0  0  0  0  0  0  0  0  0
    5.5710    2.6987   -1.2873 O   0  0  0  0  0  0  0  0  0  0  0  0
    3.3293    2.4238   -1.5173 O   0  0  0  0  0  0  0  0  0  0  0  0
    4.0855   -0.0663    2.0178 H   0  0  0  0  0  0  0  0  0  0  0  0
    5.2162   -0.1245    0.5535 H   0  0  0  0  0  0  0  0  0  0  0  0
    5.1408    6.5507   -1.8977 H   0  0  0  0  0  0  0  0  0  0  0  0
    6.0657    5.1938   -2.5721 H   0  0  0  0  0  0  0  0  0  0  0  0
    5.9859    5.4150   -0.8245 H   0  0  0  0  0  0  0  0  0  0  0  0
    2.3448    0.9921    0.6449 H   0  0  0  0  0  0  0  0  0  0  0  0
    3.5659    4.7143   -2.6173 H   0  0  0  0  0  0  0  0  0  0  0  0
    3.4848    4.9500   -0.8882 H   0  0  0  0  0  0  0  0  0  0  0  0
    2.6726    0.5421   -1.8426 H   0  0  0  0  0  0  0  0  0  0  0  0
    4.4418    0.6630   -1.6168 H   0  0  0  0  0  0  0  0  0  0  0  0
  1  9  1  0  0  0  0
  2  4  1  0  0  0  0
  2 13  1  0  0  0  0
  3 14  1  0  0  0  0
  3  1  2  0  0  0  0
  4  6  1  0  0  0  0
  4 16  1  0  0  0  0
  5  3  1  0  0  0  0
  6  7  2  0  0  0  0
  8  6  1  0  0  0  0
  8  5  1  0  0  0  0
 10  1  1  0  0  0  0
 11  2  1  0  0  0  0
 12  2  1  0  0  0  0
 15  4  1  0  0  0  0
 17  5  1  0  0  0  0
 18  5  1  0  0  0  0
M  END
>  <HBA>
2

>  <HBD>
0

>  <TPSA>
26.3

>  <cid>
61319

>  <dipole>
1.58

>  <excitation_energy_1>
5.833

>  <excitation_energy_2>
6.413

>  <excitation_energy_3>
6.797

>  <excitation_energy_4>
6.88

>  <homo_energy>
-7.14

>  <homo_lumo_gap>
7.276

>  <logP>
1.126

>  <lumo_energy>
0.136

>  <melting_point>
-34.72

>  <molecular_refractivity>
31.77

>  <oscillator_strength_1>
0.0007

>  <oscillator_strength_2>
0.0297

>  <oscillator_strength_3>
0.062

>  <oscillator_strength_4>
0.0052

>  <open_babel_can_smiles>
CCC(=O)OCC=C

>  <mulliken_charges>
18
1   -0.318668
2   -0.435374
3   -0.065363
4   -0.352181
5   -0.096204
6   0.623638
7   -0.472758
8   -0.46684
9   0.146711
10   0.156388
11   0.142015
12   0.16037
13   0.163973
14   0.137822
15   0.171143
16   0.172661
17   0.156959
18   0.175706

>  <lowdin_charges>
18
1   -0.309418
2   -0.439045
3   -0.163402
4   -0.300537
5   -0.129594
6   0.198827
7   -0.264213
8   -0.203203
9   0.160658
10   0.164664
11   0.150122
12   0.159114
13   0.160388
14   0.155682
15   0.16802
16   0.169691
17   0.158416
18   0.163831

$$$$

