PCCDB-ID:  68123
public computational chemistry database (PCCDB) project, http://pccdb.org

 29 31  0  0  0  0  0  0  0  0999 V2000
    0.1615    1.0658   -0.6038 C   0  0  0  0  0  0  0  0  0  0  0  0
   -5.9585   -4.9965   -3.3453 C   0  0  0  0  0  0  0  0  0  0  0  0
   -0.5124   -0.1076   -0.9286 C   0  0  0  0  0  0  0  0  0  0  0  0
   -4.7692   -4.9558   -2.6265 C   0  0  0  0  0  0  0  0  0  0  0  0
   -0.7498   -3.6603    0.1628 C   0  0  0  0  0  0  0  0  0  0  0  0
    0.7764    1.1587    0.6456 C   0  0  0  0  0  0  0  0  0  0  0  0
   -6.7182   -3.8298   -3.4492 C   0  0  0  0  0  0  0  0  0  0  0  0
   -1.4475   -4.8246   -0.1515 C   0  0  0  0  0  0  0  0  0  0  0  0
   -2.4506   -2.4566   -1.0130 C   0  0  0  0  0  0  0  0  0  0  0  0
    0.0920   -0.9412    1.2309 C   0  0  0  0  0  0  0  0  0  0  0  0
   -5.2222   -2.6474   -2.1904 C   0  0  0  0  0  0  0  0  0  0  0  0
   -1.2566   -2.4304   -0.2812 C   0  0  0  0  0  0  0  0  0  0  0  0
   -0.5565   -1.1555    0.0022 C   0  0  0  0  0  0  0  0  0  0  0  0
   -4.3661   -3.7496   -2.0346 C   0  0  0  0  0  0  0  0  0  0  0  0
   -3.0946   -3.6757   -1.2691 C   0  0  0  0  0  0  0  0  0  0  0  0
    0.7444    0.1776    1.5560 N   0  0  0  0  0  0  0  0  0  0  0  0
   -6.3675   -2.6707   -2.8786 N   0  0  0  0  0  0  0  0  0  0  0  0
   -2.5868   -4.8498   -0.8457 N   0  0  0  0  0  0  0  0  0  0  0  0
    0.2203    1.8899   -1.3085 H   0  0  0  0  0  0  0  0  0  0  0  0
   -6.2935   -5.9142   -3.8200 H   0  0  0  0  0  0  0  0  0  0  0  0
   -0.9796   -0.2225   -1.9029 H   0  0  0  0  0  0  0  0  0  0  0  0
   -4.1429   -5.8337   -2.5105 H   0  0  0  0  0  0  0  0  0  0  0  0
    0.1853   -3.7157    0.7106 H   0  0  0  0  0  0  0  0  0  0  0  0
    1.3182    2.0589    0.9302 H   0  0  0  0  0  0  0  0  0  0  0  0
   -7.6519   -3.8241   -4.0093 H   0  0  0  0  0  0  0  0  0  0  0  0
   -1.0650   -5.7921    0.1703 H   0  0  0  0  0  0  0  0  0  0  0  0
   -2.8767   -1.5276   -1.3752 H   0  0  0  0  0  0  0  0  0  0  0  0
    0.0607   -1.7118    1.9995 H   0  0  0  0  0  0  0  0  0  0  0  0
   -4.9867   -1.6958   -1.7172 H   0  0  0  0  0  0  0  0  0  0  0  0
  1  6  1  0  0  0  0
  2  4  1  0  0  0  0
  3  1  2  0  0  0  0
  3 13  1  0  0  0  0
  4 22  1  0  0  0  0
  4 14  2  0  0  0  0
  5 23  1  0  0  0  0
  6 24  1  0  0  0  0
  6 16  2  0  0  0  0
  7  2  2  0  0  0  0
  7 17  1  0  0  0  0
  8  5  1  0  0  0  0
  8 26  1  0  0  0  0
  9 12  1  0  0  0  0
 10 16  1  0  0  0  0
 10 28  1  0  0  0  0
 11 14  1  0  0  0  0
 11 29  1  0  0  0  0
 12 13  1  0  0  0  0
 12  5  2  0  0  0  0
 13 10  2  0  0  0  0
 14 15  1  0  0  0  0
 15  9  2  0  0  0  0
 15 18  1  0  0  0  0
 17 11  2  0  0  0  0
 18  8  2  0  0  0  0
 19  1  1  0  0  0  0
 20  2  1  0  0  0  0
 21  3  1  0  0  0  0
 25  7  1  0  0  0  0
 27  9  1  0  0  0  0
M  END
>  <HBA>
3

>  <HBD>
0

>  <TPSA>
38.67

>  <cid>
68123

>  <dipole>
1.94

>  <excitation_energy_1>
4.269

>  <excitation_energy_2>
4.401

>  <excitation_energy_3>
4.415

>  <excitation_energy_4>
4.535

>  <homo_energy>
-6.574

>  <homo_lumo_gap>
4.893

>  <logP>
3.206

>  <lumo_energy>
-1.682

>  <melting_point>
125.38

>  <molecular_refractivity>
70.7

>  <oscillator_strength_1>
0.1408

>  <oscillator_strength_2>
0.0036

>  <oscillator_strength_3>
0.0034

>  <oscillator_strength_4>
0.0113

>  <open_babel_can_smiles>
c1ccc(cn1)c1ccnc(c1)c1cccnc1

>  <mulliken_charges>
29
1   -0.14545
2   -0.144508
3   -0.136007
4   -0.125691
5   -0.19244
6   0.044742
7   0.042093
8   0.045536
9   -0.214307
10   0.003397
11   -0.008665
12   0.11485
13   0.06622
14   0.086832
15   0.244115
16   -0.40928
17   -0.416939
18   -0.483672
19   0.14537
20   0.140191
21   0.152534
22   0.169324
23   0.14693
24   0.14867
25   0.14373
26   0.145442
27   0.146381
28   0.149583
29   0.14102

>  <lowdin_charges>
29
1   -0.17161
2   -0.174148
3   -0.129111
4   -0.117408
5   -0.180472
6   -0.083982
7   -0.085771
8   -0.08234
9   -0.181933
10   -0.091911
11   -0.09564
12   0.02381
13   -0.023211
14   -0.030045
15   0.05569
16   -0.141253
17   -0.146795
18   -0.154363
19   0.168785
20   0.165784
21   0.166916
22   0.178997
23   0.168567
24   0.16056
25   0.157251
26   0.159751
27   0.166975
28   0.161409
29   0.155498

$$$$

