PCCDB-ID:  12180
public computational chemistry database (PCCDB) project, http://pccdb.org

 17 16  0  0  0  0  0  0  0  0999 V2000
    0.9558    0.2217    0.1168 C   0  0  0  0  0  0  0  0  0  0  0  0
    6.4619   -1.9288    2.0263 C   0  0  0  0  0  0  0  0  0  0  0  0
    2.4780    0.0904    0.0128 C   0  0  0  0  0  0  0  0  0  0  0  0
    3.0586   -0.8359    1.0835 C   0  0  0  0  0  0  0  0  0  0  0  0
    4.5667   -0.9693    1.0021 C   0  0  0  0  0  0  0  0  0  0  0  0
    5.2775   -0.4765    0.1530 O   0  0  0  0  0  0  0  0  0  0  0  0
    5.0394   -1.7309    2.0174 O   0  0  0  0  0  0  0  0  0  0  0  0
    0.5643    0.8861   -0.6613 H   0  0  0  0  0  0  0  0  0  0  0  0
    0.6550    0.6336    1.0881 H   0  0  0  0  0  0  0  0  0  0  0  0
    0.4613   -0.7511    0.0032 H   0  0  0  0  0  0  0  0  0  0  0  0
    6.6659   -2.5525    2.8974 H   0  0  0  0  0  0  0  0  0  0  0  0
    6.9839   -0.9716    2.1086 H   0  0  0  0  0  0  0  0  0  0  0  0
    6.7875   -2.4302    1.1107 H   0  0  0  0  0  0  0  0  0  0  0  0
    2.9482    1.0771    0.0992 H   0  0  0  0  0  0  0  0  0  0  0  0
    2.7580   -0.2881   -0.9771 H   0  0  0  0  0  0  0  0  0  0  0  0
    2.6297   -1.8449    1.0058 H   0  0  0  0  0  0  0  0  0  0  0  0
    2.8023   -0.4887    2.0933 H   0  0  0  0  0  0  0  0  0  0  0  0
  1  9  1  0  0  0  0
  2 12  1  0  0  0  0
  2 11  1  0  0  0  0
  3 14  1  0  0  0  0
  3  1  1  0  0  0  0
  3  4  1  0  0  0  0
  4 17  1  0  0  0  0
  5  4  1  0  0  0  0
  5  7  1  0  0  0  0
  6  5  2  0  0  0  0
  7  2  1  0  0  0  0
  8  1  1  0  0  0  0
 10  1  1  0  0  0  0
 13  2  1  0  0  0  0
 15  3  1  0  0  0  0
 16  4  1  0  0  0  0
M  END
>  <HBA>
2

>  <HBD>
0

>  <TPSA>
26.3

>  <cid>
12180

>  <dipole>
1.58

>  <excitation_energy_1>
5.85

>  <excitation_energy_2>
7.001

>  <excitation_energy_3>
7.482

>  <excitation_energy_4>
7.702

>  <homo_energy>
-7.309

>  <homo_lumo_gap>
7.755

>  <logP>
0.96

>  <lumo_energy>
0.446

>  <melting_point>
-13.46

>  <molecular_refractivity>
27.43

>  <oscillator_strength_1>
0.0007

>  <oscillator_strength_2>
0.0198

>  <oscillator_strength_3>
0.0122

>  <oscillator_strength_4>
0.0193

>  <open_babel_can_smiles>
CCCC(=O)OC

>  <mulliken_charges>
17
1   -0.447205
2   -0.217116
3   -0.242667
4   -0.353216
5   0.61741
6   -0.477747
7   -0.4539
8   0.14833
9   0.142077
10   0.141924
11   0.162819
12   0.16912
13   0.168699
14   0.150504
15   0.152801
16   0.169775
17   0.168392

>  <lowdin_charges>
17
1   -0.445596
2   -0.278623
3   -0.267371
4   -0.300099
5   0.197117
6   -0.264978
7   -0.199469
8   0.154108
9   0.146423
10   0.146356
11   0.160071
12   0.158578
13   0.158709
14   0.150631
15   0.151813
16   0.166665
17   0.165665

$$$$

