PCCDB-ID:  55811
public computational chemistry database (PCCDB) project, http://pccdb.org

 31 31  0  0  1  0  0  0  0  0999 V2000
    1.0897    5.0598   -1.3392 C   0  0  0  0  0  0  0  0  0  0  0  0
    2.5987    4.8112   -1.2532 C   0  0  0  0  0  0  0  0  0  0  0  0
    7.4529   -1.0186   -4.3285 C   0  0  0  0  0  0  0  0  0  0  0  0
    7.0387    0.2380   -3.8904 C   0  0  0  0  0  0  0  0  0  0  0  0
    7.7365   -2.0369   -3.4169 C   0  0  0  0  0  0  0  0  0  0  0  0
    2.9783    3.3609   -1.5579 C   0  0  0  0  0  0  0  0  0  0  0  0
    7.1996   -0.5260   -1.6014 C   0  0  0  0  0  0  0  0  0  0  0  0
    4.8810    1.8045   -1.7888 C   0  0  0  0  0  0  0  0  0  0  0  0
    6.9093    0.4868   -2.5180 C   0  0  0  0  0  0  0  0  0  0  0  0
    7.6083   -1.7858   -2.0475 C   0  0  0  0  0  0  0  0  0  0  0  0
    6.4083    1.8272   -2.0180 C   0  0  1  0  0  0  0  0  0  0  0  0
    4.4296    3.1680   -1.4983 N   0  0  0  0  0  0  0  0  0  0  0  0
    7.8762   -2.7326   -1.0937 O   0  0  0  0  0  0  0  0  0  0  0  0
    6.7139    2.8520   -2.9455 O   0  0  0  0  0  0  0  0  0  0  0  0
    0.8487    6.1055   -1.1201 H   0  0  0  0  0  0  0  0  0  0  0  0
    0.5400    4.4347   -0.6251 H   0  0  0  0  0  0  0  0  0  0  0  0
    0.7075    4.8331   -2.3419 H   0  0  0  0  0  0  0  0  0  0  0  0
    2.9563    5.0743   -0.2467 H   0  0  0  0  0  0  0  0  0  0  0  0
    3.1331    5.4669   -1.9519 H   0  0  0  0  0  0  0  0  0  0  0  0
    7.5620   -1.2123   -5.3926 H   0  0  0  0  0  0  0  0  0  0  0  0
    6.8337    1.0376   -4.5929 H   0  0  0  0  0  0  0  0  0  0  0  0
    8.0635   -3.0156   -3.7646 H   0  0  0  0  0  0  0  0  0  0  0  0
    2.6510    3.0999   -2.5728 H   0  0  0  0  0  0  0  0  0  0  0  0
    2.4366    2.6838   -0.8706 H   0  0  0  0  0  0  0  0  0  0  0  0
    7.1237   -0.3533   -0.5309 H   0  0  0  0  0  0  0  0  0  0  0  0
    4.6189    1.0705   -1.0083 H   0  0  0  0  0  0  0  0  0  0  0  0
    4.3978    1.4822   -2.7189 H   0  0  0  0  0  0  0  0  0  0  0  0
    6.8930    2.0374   -1.0457 H   0  0  0  0  0  0  0  0  0  0  0  0
    4.7610    3.4373   -0.5711 H   0  0  0  0  0  0  0  0  0  0  0  0
    8.1605   -3.5476   -1.5354 H   0  0  0  0  0  0  0  0  0  0  0  0
    6.0301    3.5317   -2.7732 H   0  0  0  0  0  0  0  0  0  0  0  0
  1  2  1  0  0  0  0
  1 15  1  0  0  0  0
  1 16  1  0  0  0  0
  2 18  1  0  0  0  0
  3  4  2  0  0  0  0
  3  5  1  0  0  0  0
  4  9  1  0  0  0  0
  5 10  2  0  0  0  0
  6 12  1  0  0  0  0
  6  2  1  0  0  0  0
  6 24  1  0  0  0  0
  7 25  1  0  0  0  0
  8 12  1  0  0  0  0
  8 26  1  0  0  0  0
  9 11  1  0  0  0  0
  9  7  2  0  0  0  0
 10  7  1  0  0  0  0
 10 13  1  0  0  0  0
 11  8  1  0  0  0  0
 11 28  1  1  0  0  0
 12 29  1  0  0  0  0
 14 31  1  0  0  0  0
 14 11  1  0  0  0  0
 17  1  1  0  0  0  0
 19  2  1  0  0  0  0
 20  3  1  0  0  0  0
 21  4  1  0  0  0  0
 22  5  1  0  0  0  0
 23  6  1  0  0  0  0
 27  8  1  0  0  0  0
 30 13  1  0  0  0  0
M  END
>  <HBA>
3

>  <HBD>
3

>  <TPSA>
52.49

>  <cid>
55811

>  <dipole>
2.34

>  <excitation_energy_1>
4.987

>  <excitation_energy_2>
5.156

>  <excitation_energy_3>
5.556

>  <excitation_energy_4>
5.649

>  <homo_energy>
-5.796

>  <homo_lumo_gap>
5.902

>  <logP>
1.816

>  <lumo_energy>
0.106

>  <melting_point>
91.27

>  <molecular_refractivity>
56.62

>  <oscillator_strength_1>
0.0462

>  <oscillator_strength_2>
0.0

>  <oscillator_strength_3>
0.0014

>  <oscillator_strength_4>
0.0227

>  <open_babel_can_smiles>
CCCNC[C@@H](c1cccc(c1)O)O

>  <mulliken_charges>
31
1   -0.446441
2   -0.261142
3   -0.13702
4   -0.173915
5   -0.194386
6   -0.101758
7   -0.217816
8   -0.144294
9   0.134966
10   0.350826
11   0.082102
12   -0.591424
13   -0.646868
14   -0.65042
15   0.149345
16   0.144995
17   0.146759
18   0.12931
19   0.148226
20   0.12847
21   0.145462
22   0.113654
23   0.144522
24   0.117435
25   0.126972
26   0.128658
27   0.153427
28   0.111072
29   0.299712
30   0.405661
31   0.403911

>  <lowdin_charges>
31
1   -0.443785
2   -0.277907
3   -0.142451
4   -0.181928
5   -0.218476
6   -0.200294
7   -0.197893
8   -0.22374
9   0.000862
10   0.101393
11   -0.001618
12   -0.36225
13   -0.382783
14   -0.469057
15   0.15279
16   0.149494
17   0.148654
18   0.137612
19   0.149887
20   0.155692
21   0.169795
22   0.15064
23   0.143583
24   0.122526
25   0.159728
26   0.132917
27   0.151815
28   0.123811
29   0.253532
30   0.357014
31   0.340438

$$$$

