PCCDB-ID:  13624
public computational chemistry database (PCCDB) project, http://pccdb.org

 17 18  0  0  0  0  0  0  0  0999 V2000
    2.1388   -0.6971   -0.0596 C   0  0  0  0  0  0  0  0  0  0  0  0
    2.1276    0.6986   -0.0316 C   0  0  0  0  0  0  0  0  0  0  0  0
    0.9428   -1.4306   -0.1103 C   0  0  0  0  0  0  0  0  0  0  0  0
    0.9221    1.4168   -0.0537 C   0  0  0  0  0  0  0  0  0  0  0  0
   -0.2476   -0.7201   -0.1314 C   0  0  0  0  0  0  0  0  0  0  0  0
   -0.2601    0.6917   -0.1034 C   0  0  0  0  0  0  0  0  0  0  0  0
   -2.4478   -0.0232   -0.1854 C   0  0  0  0  0  0  0  0  0  0  0  0
   -3.7243    0.0714   -0.2238 N   0  0  0  0  0  0  0  0  0  0  0  0
   -1.5809   -1.1242   -0.1823 N   0  0  0  0  0  0  0  0  0  0  0  0
   -1.5935    1.0763   -0.1349 N   0  0  0  0  0  0  0  0  0  0  0  0
    3.0854   -1.2289   -0.0414 H   0  0  0  0  0  0  0  0  0  0  0  0
    3.0664    1.2431    0.0082 H   0  0  0  0  0  0  0  0  0  0  0  0
    0.9521   -2.5166   -0.1314 H   0  0  0  0  0  0  0  0  0  0  0  0
    0.9157    2.5026   -0.0304 H   0  0  0  0  0  0  0  0  0  0  0  0
   -4.1644   -0.8478   -0.2568 H   0  0  0  0  0  0  0  0  0  0  0  0
   -1.9061   -2.0771   -0.2096 H   0  0  0  0  0  0  0  0  0  0  0  0
   -1.9582    2.0156   -0.1281 H   0  0  0  0  0  0  0  0  0  0  0  0
  1 11  1  0  0  0  0
  1  2  2  0  0  0  0
  2 12  1  0  0  0  0
  3  1  1  0  0  0  0
  4  2  1  0  0  0  0
  4 14  1  0  0  0  0
  5  3  2  0  0  0  0
  5  6  1  0  0  0  0
  6  4  2  0  0  0  0
  7  9  1  0  0  0  0
  7 10  1  0  0  0  0
  8  7  2  0  0  0  0
  9  5  1  0  0  0  0
 10 17  1  0  0  0  0
 10  6  1  0  0  0  0
 13  3  1  0  0  0  0
 15  8  1  0  0  0  0
 16  9  1  0  0  0  0
M  END
>  <HBA>
2

>  <HBD>
2

>  <TPSA>
54.7

>  <cid>
13624

>  <dipole>
2.01

>  <excitation_energy_1>
4.395

>  <excitation_energy_2>
4.469

>  <excitation_energy_3>
4.95

>  <excitation_energy_4>
4.971

>  <homo_energy>
-5.091

>  <homo_lumo_gap>
5.129

>  <logP>
1.726

>  <lumo_energy>
0.038

>  <melting_point>
160.59

>  <molecular_refractivity>
40.5

>  <oscillator_strength_1>
0.0018

>  <oscillator_strength_2>
0.1849

>  <oscillator_strength_3>
0.0018

>  <oscillator_strength_4>
0.0259

>  <open_babel_can_smiles>
N=c1[nH]c2c([nH]1)cccc2

>  <mulliken_charges>
17
1   -0.146605
2   -0.14531
3   -0.188734
4   -0.18941
5   0.356325
6   0.363951
7   0.695813
8   -0.678539
9   -0.770949
10   -0.744845
11   0.126028
12   0.126568
13   0.127321
14   0.130181
15   0.271011
16   0.328254
17   0.338939

>  <lowdin_charges>
17
1   -0.169989
2   -0.167099
3   -0.188568
4   -0.188694
5   0.034708
6   0.038025
7   0.128394
8   -0.483457
9   -0.25343
10   -0.229973
11   0.158176
12   0.158492
13   0.156998
14   0.158515
15   0.253034
16   0.293239
17   0.30163

$$$$

