PCCDB-ID:  7507
public computational chemistry database (PCCDB) project, http://pccdb.org

 22 22  0  0  0  0  0  0  0  0999 V2000
    0.7785    1.3150   -0.3993 C   0  0  0  0  0  0  0  0  0  0  0  0
    1.5161    0.0767    0.1322 C   0  0  0  0  0  0  0  0  0  0  0  0
   -0.6586    1.3850    0.1400 C   0  0  0  0  0  0  0  0  0  0  0  0
    0.7346   -1.2150   -0.1678 C   0  0  0  0  0  0  0  0  0  0  0  0
   -1.4347    0.0933   -0.1686 C   0  0  0  0  0  0  0  0  0  0  0  0
   -0.8025   -1.3469    1.8672 C   0  0  0  0  0  0  0  0  0  0  0  0
   -0.7246   -1.1808    0.3392 C   0  0  0  0  0  0  0  0  0  0  0  0
   -2.1351   -1.5064    2.3474 O   0  0  0  0  0  0  0  0  0  0  0  0
    0.7476    1.2720   -1.4984 H   0  0  0  0  0  0  0  0  0  0  0  0
    1.3286    2.2282   -0.1387 H   0  0  0  0  0  0  0  0  0  0  0  0
    1.6685    0.1822    1.2156 H   0  0  0  0  0  0  0  0  0  0  0  0
    2.5177    0.0127   -0.3119 H   0  0  0  0  0  0  0  0  0  0  0  0
   -1.1854    2.2459   -0.2913 H   0  0  0  0  0  0  0  0  0  0  0  0
   -0.6283    1.5585    1.2257 H   0  0  0  0  0  0  0  0  0  0  0  0
    1.2591   -2.0819    0.2568 H   0  0  0  0  0  0  0  0  0  0  0  0
    0.7190   -1.3689   -1.2563 H   0  0  0  0  0  0  0  0  0  0  0  0
   -1.5600    0.0106   -1.2576 H   0  0  0  0  0  0  0  0  0  0  0  0
   -2.4527    0.1464    0.2414 H   0  0  0  0  0  0  0  0  0  0  0  0
   -0.2995   -0.5178    2.3882 H   0  0  0  0  0  0  0  0  0  0  0  0
   -0.2803   -2.2667    2.1534 H   0  0  0  0  0  0  0  0  0  0  0  0
   -1.2546   -2.0485   -0.0771 H   0  0  0  0  0  0  0  0  0  0  0  0
   -2.5805   -0.6493    2.2739 H   0  0  0  0  0  0  0  0  0  0  0  0
  1 10  1  0  0  0  0
  1  2  1  0  0  0  0
  1  3  1  0  0  0  0
  2 11  1  0  0  0  0
  3 14  1  0  0  0  0
  4  2  1  0  0  0  0
  4 15  1  0  0  0  0
  4  7  1  0  0  0  0
  5  3  1  0  0  0  0
  5 18  1  0  0  0  0
  5  7  1  0  0  0  0
  6 20  1  0  0  0  0
  6  8  1  0  0  0  0
  6 19  1  0  0  0  0
  7  6  1  0  0  0  0
  9  1  1  0  0  0  0
 12  2  1  0  0  0  0
 13  3  1  0  0  0  0
 16  4  1  0  0  0  0
 17  5  1  0  0  0  0
 21  7  1  0  0  0  0
 22  8  1  0  0  0  0
M  END
>  <HBA>
1

>  <HBD>
1

>  <TPSA>
20.23

>  <cid>
7507

>  <dipole>
1.76

>  <excitation_energy_1>
6.284

>  <excitation_energy_2>
6.869

>  <excitation_energy_3>
7.033

>  <excitation_energy_4>
7.283

>  <homo_energy>
-6.991

>  <homo_lumo_gap>
8.67

>  <logP>
1.559

>  <lumo_energy>
1.679

>  <melting_point>
13.97

>  <molecular_refractivity>
34.81

>  <oscillator_strength_1>
0.004

>  <oscillator_strength_2>
0.0116

>  <oscillator_strength_3>
0.0109

>  <oscillator_strength_4>
0.0029

>  <open_babel_can_smiles>
OCC1CCCCC1

>  <mulliken_charges>
22
1   -0.253773
2   -0.261737
3   -0.261065
4   -0.271538
5   -0.278193
6   -0.04081
7   -0.087079
8   -0.621101
9   0.128014
10   0.130496
11   0.131583
12   0.132158
13   0.132615
14   0.125783
15   0.12946
16   0.130495
17   0.133946
18   0.116457
19   0.120207
20   0.142295
21   0.130522
22   0.391264

>  <lowdin_charges>
22
1   -0.275552
2   -0.277864
3   -0.280376
4   -0.27866
5   -0.2811
6   -0.142076
7   -0.148693
8   -0.469304
9   0.135209
10   0.14362
11   0.13565
12   0.143784
13   0.145441
14   0.133009
15   0.143184
16   0.139673
17   0.141593
18   0.133861
19   0.125858
20   0.146791
21   0.146391
22   0.33956

$$$$

