PCCDB-ID:  28616
public computational chemistry database (PCCDB) project, http://pccdb.org

 30 31  0  0  0  0  0  0  0  0999 V2000
    1.0280   -0.1601   -0.7715 C   0  0  0  0  0  0  0  0  0  0  0  0
    5.3366   -2.2872    1.0597 C   0  0  0  0  0  0  0  0  0  0  0  0
    0.4844   -6.8870    0.7992 C   0  0  0  0  0  0  0  0  0  0  0  0
    1.5303   -6.7106    1.7067 C   0  0  0  0  0  0  0  0  0  0  0  0
    0.1708   -5.8709   -0.1124 C   0  0  0  0  0  0  0  0  0  0  0  0
    4.4666    1.2602    0.0190 C   0  0  0  0  0  0  0  0  0  0  0  0
    3.1356    1.1575   -0.3803 C   0  0  0  0  0  0  0  0  0  0  0  0
    5.1420    0.1320    0.4783 C   0  0  0  0  0  0  0  0  0  0  0  0
    2.2591   -5.5223    1.7038 C   0  0  0  0  0  0  0  0  0  0  0  0
    0.8924   -4.6827   -0.1187 C   0  0  0  0  0  0  0  0  0  0  0  0
    2.4683   -0.0660   -0.3237 C   0  0  0  0  0  0  0  0  0  0  0  0
    4.5167   -1.1160    0.5735 C   0  0  0  0  0  0  0  0  0  0  0  0
    1.9425   -4.5013    0.7976 C   0  0  0  0  0  0  0  0  0  0  0  0
    3.1552   -1.2054    0.1719 C   0  0  0  0  0  0  0  0  0  0  0  0
    2.7522   -3.3365    0.8853 N   0  0  0  0  0  0  0  0  0  0  0  0
    2.3712   -2.3797    0.1555 N   0  0  0  0  0  0  0  0  0  0  0  0
    0.6863    0.8037   -1.1621 H   0  0  0  0  0  0  0  0  0  0  0  0
    0.3648   -0.4478    0.0515 H   0  0  0  0  0  0  0  0  0  0  0  0
    0.9012   -0.9168   -1.5523 H   0  0  0  0  0  0  0  0  0  0  0  0
    6.3951   -2.0077    1.1001 H   0  0  0  0  0  0  0  0  0  0  0  0
    5.2289   -3.1599    0.4078 H   0  0  0  0  0  0  0  0  0  0  0  0
    5.0238   -2.6177    2.0545 H   0  0  0  0  0  0  0  0  0  0  0  0
   -0.0833   -7.8136    0.7957 H   0  0  0  0  0  0  0  0  0  0  0  0
    1.7780   -7.4969    2.4145 H   0  0  0  0  0  0  0  0  0  0  0  0
   -0.6395   -6.0131   -0.8229 H   0  0  0  0  0  0  0  0  0  0  0  0
    4.9816    2.2155   -0.0380 H   0  0  0  0  0  0  0  0  0  0  0  0
    2.6078    2.0338   -0.7478 H   0  0  0  0  0  0  0  0  0  0  0  0
    6.1863    0.2136    0.7701 H   0  0  0  0  0  0  0  0  0  0  0  0
    3.0785   -5.3596    2.3974 H   0  0  0  0  0  0  0  0  0  0  0  0
    0.6656   -3.8872   -0.8195 H   0  0  0  0  0  0  0  0  0  0  0  0
  1 11  1  0  0  0  0
  1 18  1  0  0  0  0
  2 20  1  0  0  0  0
  2 22  1  0  0  0  0
  3  4  2  0  0  0  0
  4 24  1  0  0  0  0
  5  3  1  0  0  0  0
  6  8  2  0  0  0  0
  7 11  2  0  0  0  0
  7  6  1  0  0  0  0
  8 12  1  0  0  0  0
  8 28  1  0  0  0  0
  9  4  1  0  0  0  0
  9 29  1  0  0  0  0
 10  5  2  0  0  0  0
 10 13  1  0  0  0  0
 11 14  1  0  0  0  0
 12  2  1  0  0  0  0
 13 15  1  0  0  0  0
 13  9  2  0  0  0  0
 14 12  2  0  0  0  0
 16 14  1  0  0  0  0
 16 15  1  0  0  0  0
 17  1  1  0  0  0  0
 19  1  1  0  0  0  0
 21  2  1  0  0  0  0
 23  3  1  0  0  0  0
 25  5  1  0  0  0  0
 26  6  1  0  0  0  0
 27  7  1  0  0  0  0
 30 10  1  0  0  0  0
M  RAD  2  15   2  16   2
M  END
>  <HBA>
2

>  <HBD>
0

>  <TPSA>
24.72

>  <cid>
28616

>  <dipole>
0.3

>  <excitation_energy_1>
2.477

>  <excitation_energy_2>
3.643

>  <excitation_energy_3>
3.673

>  <excitation_energy_4>
4.113

>  <homo_energy>
-5.802

>  <homo_lumo_gap>
3.728

>  <logP>
4.719

>  <lumo_energy>
-2.074

>  <melting_point>
70.49

>  <molecular_refractivity>
66.99

>  <oscillator_strength_1>
0.0132

>  <oscillator_strength_2>
0.5906

>  <oscillator_strength_3>
0.1223

>  <oscillator_strength_4>
0.0199

>  <open_babel_can_smiles>
Cc1cccc(c1[N][N]c1ccccc1)C

>  <mulliken_charges>
30
1   -0.511968
2   -0.49966
3   -0.118324
4   -0.139337
5   -0.146149
6   -0.104875
7   -0.202155
8   -0.20714
9   -0.141985
10   -0.126573
11   0.157331
12   0.187724
13   0.268304
14   0.175437
15   -0.319784
16   -0.315505
17   0.144392
18   0.168049
19   0.171174
20   0.139371
21   0.165971
22   0.175348
23   0.133686
24   0.134613
25   0.134925
26   0.131555
27   0.125076
28   0.125738
29   0.140938
30   0.153828

>  <lowdin_charges>
30
1   -0.441973
2   -0.438259
3   -0.148079
4   -0.15783
5   -0.153142
6   -0.143075
7   -0.176087
8   -0.170989
9   -0.148393
10   -0.153738
11   0.013478
12   0.014598
13   0.010943
14   -0.005282
15   -0.078084
16   -0.079527
17   0.151189
18   0.166011
19   0.166985
20   0.145963
21   0.165974
22   0.168219
23   0.159793
24   0.161087
25   0.15989
26   0.159387
27   0.157051
28   0.154313
29   0.166938
30   0.172639

$$$$

