PCCDB-ID:  62102
public computational chemistry database (PCCDB) project, http://pccdb.org

 19 19  0  0  0  0  0  0  0  0999 V2000
   -1.1395    1.3789    0.1831 C   0  0  0  0  0  0  0  0  0  0  0  0
   -1.5112   -0.0777    0.2766 C   0  0  0  0  0  0  0  0  0  0  0  0
    0.0868    1.5681   -0.7208 C   0  0  0  0  0  0  0  0  0  0  0  0
    0.7856   -0.8323   -0.3963 C   0  0  0  0  0  0  0  0  0  0  0  0
   -0.6485   -1.0733    0.0146 C   0  0  0  0  0  0  0  0  0  0  0  0
   -1.0536   -2.5157    0.0024 C   0  0  0  0  0  0  0  0  0  0  0  0
    2.3039    1.0601   -0.0015 N   0  0  0  0  0  0  0  0  0  0  0  0
    1.1067    0.5884   -0.3923 N   0  0  0  0  0  0  0  0  0  0  0  0
   -0.4952   -3.3377   -0.6856 O   0  0  0  0  0  0  0  0  0  0  0  0
   -2.0979   -2.8777    0.7938 O   0  0  0  0  0  0  0  0  0  0  0  0
    3.1333    0.2060    0.2899 O   0  0  0  0  0  0  0  0  0  0  0  0
   -0.9289    1.7738    1.1875 H   0  0  0  0  0  0  0  0  0  0  0  0
   -1.9839    1.9600   -0.2073 H   0  0  0  0  0  0  0  0  0  0  0  0
   -2.5454   -0.3046    0.5328 H   0  0  0  0  0  0  0  0  0  0  0  0
    0.5425    2.5530   -0.5971 H   0  0  0  0  0  0  0  0  0  0  0  0
   -0.2062    1.4495   -1.7725 H   0  0  0  0  0  0  0  0  0  0  0  0
    0.9697   -1.2789   -1.3827 H   0  0  0  0  0  0  0  0  0  0  0  0
    1.4876   -1.3168    0.2904 H   0  0  0  0  0  0  0  0  0  0  0  0
   -2.3148   -2.1531    1.4029 H   0  0  0  0  0  0  0  0  0  0  0  0
  1  2  1  0  0  0  0
  1 12  1  0  0  0  0
  2 14  1  0  0  0  0
  3 15  1  0  0  0  0
  3  8  1  0  0  0  0
  3  1  1  0  0  0  0
  4  8  1  0  0  0  0
  4  5  1  0  0  0  0
  4 18  1  0  0  0  0
  5  2  2  0  0  0  0
  6  5  1  0  0  0  0
  6 10  1  0  0  0  0
  7 11  2  0  0  0  0
  8  7  1  0  0  0  0
  9  6  2  0  0  0  0
 10 19  1  0  0  0  0
 13  1  1  0  0  0  0
 16  3  1  0  0  0  0
 17  4  1  0  0  0  0
M  END
>  <HBA>
5

>  <HBD>
1

>  <TPSA>
69.97

>  <cid>
62102

>  <dipole>
5.99

>  <excitation_energy_1>
3.366

>  <excitation_energy_2>
4.122

>  <excitation_energy_3>
4.623

>  <excitation_energy_4>
4.941

>  <homo_energy>
-6.324

>  <homo_lumo_gap>
4.727

>  <logP>
0.322

>  <lumo_energy>
-1.597

>  <melting_point>
108.07

>  <molecular_refractivity>
41.69

>  <oscillator_strength_1>
0.001

>  <oscillator_strength_2>
0.0018

>  <oscillator_strength_3>
0.014

>  <oscillator_strength_4>
0.0151

>  <open_babel_can_smiles>
O=NN1CCC=C(C1)C(=O)O

>  <mulliken_charges>
19
1   -0.310872
2   -0.179862
3   -0.144258
4   -0.174352
5   0.041426
6   0.568724
7   0.153049
8   -0.245596
9   -0.439855
10   -0.56887
11   -0.368544
12   0.179418
13   0.164048
14   0.141865
15   0.185287
16   0.168439
17   0.205238
18   0.21443
19   0.410284

>  <lowdin_charges>
19
1   -0.282162
2   -0.158308
3   -0.194497
4   -0.209908
5   -0.063537
6   0.196081
7   0.056888
8   -0.04701
9   -0.233436
10   -0.352291
11   -0.262415
12   0.168187
13   0.165117
14   0.158515
15   0.173437
16   0.153672
17   0.181103
18   0.191153
19   0.359412

$$$$

