PCCDB-ID:  69270
public computational chemistry database (PCCDB) project, http://pccdb.org

 26 25  0  0  0  0  0  0  0  0999 V2000
    0.9109    0.8618    1.8108 C   0  0  0  0  0  0  0  0  0  0  0  0
    6.3667   -1.1256   -1.7664 C   0  0  0  0  0  0  0  0  0  0  0  0
    2.4372    0.9875    1.8398 C   0  0  0  0  0  0  0  0  0  0  0  0
    5.5614    0.1317   -1.4240 C   0  0  0  0  0  0  0  0  0  0  0  0
    3.0268    1.3001    0.4553 C   0  0  0  0  0  0  0  0  0  0  0  0
    5.2769    0.2475    0.0803 C   0  0  0  0  0  0  0  0  0  0  0  0
    5.0625    2.6291    0.7455 C   0  0  0  0  0  0  0  0  0  0  0  0
    4.5382    3.7409    1.1161 N   0  0  0  0  0  0  0  0  0  0  0  0
    4.4799    1.4221    0.4455 N   0  0  0  0  0  0  0  0  0  0  0  0
    6.4190    2.5836    0.6009 O   0  0  0  0  0  0  0  0  0  0  0  0
    0.5134    0.6398    2.8068 H   0  0  0  0  0  0  0  0  0  0  0  0
    0.5884    0.0577    1.1376 H   0  0  0  0  0  0  0  0  0  0  0  0
    0.4401    1.7904    1.4653 H   0  0  0  0  0  0  0  0  0  0  0  0
    6.5671   -1.1873   -2.8415 H   0  0  0  0  0  0  0  0  0  0  0  0
    5.8304   -2.0378   -1.4759 H   0  0  0  0  0  0  0  0  0  0  0  0
    7.3333   -1.1304   -1.2477 H   0  0  0  0  0  0  0  0  0  0  0  0
    2.8842    0.0569    2.2134 H   0  0  0  0  0  0  0  0  0  0  0  0
    2.7384    1.7762    2.5403 H   0  0  0  0  0  0  0  0  0  0  0  0
    4.6111    0.1286   -1.9757 H   0  0  0  0  0  0  0  0  0  0  0  0
    6.1077    1.0274   -1.7416 H   0  0  0  0  0  0  0  0  0  0  0  0
    2.5864    2.2233    0.0570 H   0  0  0  0  0  0  0  0  0  0  0  0
    2.7537    0.5069   -0.2508 H   0  0  0  0  0  0  0  0  0  0  0  0
    6.2183    0.2791    0.6336 H   0  0  0  0  0  0  0  0  0  0  0  0
    4.7325   -0.6402    0.4272 H   0  0  0  0  0  0  0  0  0  0  0  0
    3.5295    3.6865    1.2308 H   0  0  0  0  0  0  0  0  0  0  0  0
    6.7076    3.4765    0.8605 H   0  0  0  0  0  0  0  0  0  0  0  0
  1  3  1  0  0  0  0
  1 11  1  0  0  0  0
  2 15  1  0  0  0  0
  2  4  1  0  0  0  0
  2 16  1  0  0  0  0
  3 17  1  0  0  0  0
  3 18  1  0  0  0  0
  4  6  1  0  0  0  0
  5  3  1  0  0  0  0
  6 24  1  0  0  0  0
  6  9  1  0  0  0  0
  6 23  1  0  0  0  0
  7  8  2  0  0  0  0
  8 25  1  0  0  0  0
  9  5  1  0  0  0  0
  9  7  1  0  0  0  0
 10  7  1  0  0  0  0
 10 26  1  0  0  0  0
 12  1  1  0  0  0  0
 13  1  1  0  0  0  0
 14  2  1  0  0  0  0
 19  4  1  0  0  0  0
 20  4  1  0  0  0  0
 21  5  1  0  0  0  0
 22  5  1  0  0  0  0
M  END
>  <HBA>
3

>  <HBD>
1

>  <TPSA>
46.33

>  <cid>
69270

>  <dipole>
2.56

>  <excitation_energy_1>
5.333

>  <excitation_energy_2>
5.687

>  <excitation_energy_3>
5.77

>  <excitation_energy_4>
5.796

>  <homo_energy>
-5.744

>  <homo_lumo_gap>
7.584

>  <logP>
1.887

>  <lumo_energy>
1.84

>  <melting_point>
61.38

>  <molecular_refractivity>
41.96

>  <oscillator_strength_1>
0.0122

>  <oscillator_strength_2>
0.0008

>  <oscillator_strength_3>
0.0092

>  <oscillator_strength_4>
0.0016

>  <open_babel_can_smiles>
CCCN(C(=N)O)CCC

>  <mulliken_charges>
26
1   -0.448011
2   -0.44894
3   -0.252364
4   -0.251192
5   -0.160437
6   -0.135266
7   0.662718
8   -0.687584
9   -0.427942
10   -0.617451
11   0.152202
12   0.1439
13   0.145969
14   0.148879
15   0.140312
16   0.148413
17   0.140845
18   0.151019
19   0.131888
20   0.157112
21   0.149066
22   0.147447
23   0.173409
24   0.136906
25   0.280171
26   0.41893

>  <lowdin_charges>
26
1   -0.446633
2   -0.443844
3   -0.286353
4   -0.283883
5   -0.199128
6   -0.197469
7   0.163352
8   -0.509215
9   -0.120933
10   -0.38557
11   0.15535
12   0.148371
13   0.148955
14   0.152372
15   0.145803
16   0.14954
17   0.145069
18   0.149959
19   0.139252
20   0.153541
21   0.147414
22   0.150149
23   0.163028
24   0.143041
25   0.252156
26   0.365676

$$$$

