PCCDB-ID:  37584
public computational chemistry database (PCCDB) project, http://pccdb.org

 26 26  0  0  0  0  0  0  0  0999 V2000
    0.9935   -0.9740   -1.3891 C   0  0  0  0  0  0  0  0  0  0  0  0
    3.9389    1.3222    0.6844 C   0  0  0  0  0  0  0  0  0  0  0  0
    2.5021   -3.3550    1.7689 C   0  0  0  0  0  0  0  0  0  0  0  0
    3.7047   -3.0108    2.3603 C   0  0  0  0  0  0  0  0  0  0  0  0
    1.9531   -2.5723    0.7453 C   0  0  0  0  0  0  0  0  0  0  0  0
    5.6603   -1.3998    2.4975 C   0  0  0  0  0  0  0  0  0  0  0  0
    6.0978   -3.0183    4.3443 C   0  0  0  0  0  0  0  0  0  0  0  0
    7.6454   -1.2222    3.8599 C   0  0  0  0  0  0  0  0  0  0  0  0
    6.4167   -1.8857    3.5277 C   0  0  0  0  0  0  0  0  0  0  0  0
    4.3952   -1.8479    1.9459 C   0  0  0  0  0  0  0  0  0  0  0  0
    2.6179   -1.4272    0.3052 C   0  0  0  0  0  0  0  0  0  0  0  0
    3.8383   -1.0546    0.9118 C   0  0  0  0  0  0  0  0  0  0  0  0
    5.8609   -3.9334    5.0236 N   0  0  0  0  0  0  0  0  0  0  0  0
    8.6403   -0.6813    4.1277 N   0  0  0  0  0  0  0  0  0  0  0  0
    2.1866   -0.6177   -0.7028 O   0  0  0  0  0  0  0  0  0  0  0  0
    4.5325    0.0332    0.4602 O   0  0  0  0  0  0  0  0  0  0  0  0
    0.8565   -0.2128   -2.1584 H   0  0  0  0  0  0  0  0  0  0  0  0
    0.1260   -0.9727   -0.7167 H   0  0  0  0  0  0  0  0  0  0  0  0
    1.0853   -1.9589   -1.8638 H   0  0  0  0  0  0  0  0  0  0  0  0
    2.9943    1.4205    0.1449 H   0  0  0  0  0  0  0  0  0  0  0  0
    3.7780    1.4895    1.7566 H   0  0  0  0  0  0  0  0  0  0  0  0
    4.6609    2.0480    0.3062 H   0  0  0  0  0  0  0  0  0  0  0  0
    1.9772   -4.2481    2.0937 H   0  0  0  0  0  0  0  0  0  0  0  0
    4.1149   -3.6386    3.1399 H   0  0  0  0  0  0  0  0  0  0  0  0
    1.0162   -2.8706    0.2890 H   0  0  0  0  0  0  0  0  0  0  0  0
    6.0708   -0.5267    2.0012 H   0  0  0  0  0  0  0  0  0  0  0  0
  1 18  1  0  0  0  0
  1 15  1  0  0  0  0
  2 21  1  0  0  0  0
  3 23  1  0  0  0  0
  3  4  2  0  0  0  0
  4 24  1  0  0  0  0
  5  3  1  0  0  0  0
  6  9  2  0  0  0  0
  7 13  3  0  0  0  0
  8 14  3  0  0  0  0
  9  8  1  0  0  0  0
  9  7  1  0  0  0  0
 10  4  1  0  0  0  0
 10  6  1  0  0  0  0
 11  5  2  0  0  0  0
 11 12  1  0  0  0  0
 12 10  2  0  0  0  0
 15 11  1  0  0  0  0
 16  2  1  0  0  0  0
 16 12  1  0  0  0  0
 17  1  1  0  0  0  0
 19  1  1  0  0  0  0
 20  2  1  0  0  0  0
 22  2  1  0  0  0  0
 25  5  1  0  0  0  0
 26  6  1  0  0  0  0
M  END
>  <HBA>
4

>  <HBD>
0

>  <TPSA>
66.04

>  <cid>
37584

>  <dipole>
9.07

>  <excitation_energy_1>
3.273

>  <excitation_energy_2>
3.904

>  <excitation_energy_3>
4.594

>  <excitation_energy_4>
5.199

>  <homo_energy>
-6.558

>  <homo_lumo_gap>
3.875

>  <logP>
2.134

>  <lumo_energy>
-2.683

>  <melting_point>
108.95

>  <molecular_refractivity>
58.63

>  <oscillator_strength_1>
0.0368

>  <oscillator_strength_2>
0.5808

>  <oscillator_strength_3>
0.0557

>  <oscillator_strength_4>
0.1035

>  <open_babel_can_smiles>
COc1c(cccc1OC)C=C(C#N)C#N

>  <mulliken_charges>
26
1   -0.222382
2   -0.221912
3   -0.136347
4   -0.202217
5   -0.196548
6   -0.159296
7   0.315417
8   0.28427
9   0.123566
10   0.116241
11   0.365246
12   0.252565
13   -0.496728
14   -0.466276
15   -0.508961
16   -0.519825
17   0.179529
18   0.158382
19   0.162058
20   0.17553
21   0.150556
22   0.172854
23   0.149086
24   0.1772
25   0.148812
26   0.19918

>  <lowdin_charges>
26
1   -0.276919
2   -0.2735
3   -0.149013
4   -0.158376
5   -0.186375
6   -0.069146
7   -0.001212
8   -0.00523
9   -0.053016
10   -0.035185
11   0.078783
12   0.086973
13   -0.104609
14   -0.104214
15   -0.190428
16   -0.214631
17   0.16903
18   0.149027
19   0.150679
20   0.157346
21   0.143582
22   0.1653
23   0.168884
24   0.185668
25   0.17032
26   0.196262

$$$$

