PCCDB-ID:  67423
public computational chemistry database (PCCDB) project, http://pccdb.org

 36 35  0  0  0  0  0  0  0  0999 V2000
    1.9069   -1.1197    2.6184 C   0  0  0  0  0  0  0  0  0  0  0  0
    0.8944   -0.5223   -0.8802 C   0  0  0  0  0  0  0  0  0  0  0  0
    6.6636   -4.0887    2.8854 C   0  0  0  0  0  0  0  0  0  0  0  0
    8.3671   -2.0910   -0.4680 C   0  0  0  0  0  0  0  0  0  0  0  0
    2.0136   -2.0896    1.4266 C   0  0  0  0  0  0  0  0  0  0  0  0
    2.3289   -0.4174   -0.3582 C   0  0  0  0  0  0  0  0  0  0  0  0
    6.8600   -4.1697    1.3705 C   0  0  0  0  0  0  0  0  0  0  0  0
    7.0065   -2.7736   -0.6209 C   0  0  0  0  0  0  0  0  0  0  0  0
    4.2538   -1.6350    0.5242 C   0  0  0  0  0  0  0  0  0  0  0  0
    4.8693   -3.0442    0.5166 C   0  0  0  0  0  0  0  0  0  0  0  0
    2.8108   -1.6478    0.2755 N   0  0  0  0  0  0  0  0  0  0  0  0
    6.3290   -2.9989    0.6623 N   0  0  0  0  0  0  0  0  0  0  0  0
    1.3231   -1.5810    3.4236 H   0  0  0  0  0  0  0  0  0  0  0  0
    1.4056   -0.1859    2.3405 H   0  0  0  0  0  0  0  0  0  0  0  0
    2.8903   -0.8630    3.0274 H   0  0  0  0  0  0  0  0  0  0  0  0
    0.6514    0.3625   -1.4795 H   0  0  0  0  0  0  0  0  0  0  0  0
    0.1571   -0.5807   -0.0724 H   0  0  0  0  0  0  0  0  0  0  0  0
    0.7810   -1.4103   -1.5115 H   0  0  0  0  0  0  0  0  0  0  0  0
    7.0951   -4.9700    3.3746 H   0  0  0  0  0  0  0  0  0  0  0  0
    5.6042   -4.0448    3.1614 H   0  0  0  0  0  0  0  0  0  0  0  0
    7.1510   -3.1928    3.2838 H   0  0  0  0  0  0  0  0  0  0  0  0
    8.8204   -1.9182   -1.4513 H   0  0  0  0  0  0  0  0  0  0  0  0
    9.0693   -2.6967    0.1157 H   0  0  0  0  0  0  0  0  0  0  0  0
    8.2537   -1.1276    0.0397 H   0  0  0  0  0  0  0  0  0  0  0  0
    1.0053   -2.3295    1.0700 H   0  0  0  0  0  0  0  0  0  0  0  0
    2.4341   -3.0387    1.7764 H   0  0  0  0  0  0  0  0  0  0  0  0
    2.4114    0.4668    0.3034 H   0  0  0  0  0  0  0  0  0  0  0  0
    2.9908   -0.2199   -1.2105 H   0  0  0  0  0  0  0  0  0  0  0  0
    6.4232   -5.1099    0.9800 H   0  0  0  0  0  0  0  0  0  0  0  0
    7.9343   -4.2272    1.1665 H   0  0  0  0  0  0  0  0  0  0  0  0
    7.1176   -3.7187   -1.1882 H   0  0  0  0  0  0  0  0  0  0  0  0
    6.3647   -2.1297   -1.2315 H   0  0  0  0  0  0  0  0  0  0  0  0
    4.7198   -1.0485   -0.2755 H   0  0  0  0  0  0  0  0  0  0  0  0
    4.5351   -1.1348    1.4677 H   0  0  0  0  0  0  0  0  0  0  0  0
    4.5578   -3.5689   -0.4045 H   0  0  0  0  0  0  0  0  0  0  0  0
    4.4626   -3.6215    1.3522 H   0  0  0  0  0  0  0  0  0  0  0  0
  1 15  1  0  0  0  0
  1 13  1  0  0  0  0
  2  6  1  0  0  0  0
  2 17  1  0  0  0  0
  3 20  1  0  0  0  0
  3 21  1  0  0  0  0
  3 19  1  0  0  0  0
  4 24  1  0  0  0  0
  4 23  1  0  0  0  0
  5 26  1  0  0  0  0
  5  1  1  0  0  0  0
  6 11  1  0  0  0  0
  6 27  1  0  0  0  0
  7  3  1  0  0  0  0
  8  4  1  0  0  0  0
  8 12  1  0  0  0  0
  9 34  1  0  0  0  0
 10  9  1  0  0  0  0
 10 12  1  0  0  0  0
 10 36  1  0  0  0  0
 11  9  1  0  0  0  0
 11  5  1  0  0  0  0
 12  7  1  0  0  0  0
 14  1  1  0  0  0  0
 16  2  1  0  0  0  0
 18  2  1  0  0  0  0
 22  4  1  0  0  0  0
 25  5  1  0  0  0  0
 28  6  1  0  0  0  0
 29  7  1  0  0  0  0
 30  7  1  0  0  0  0
 31  8  1  0  0  0  0
 32  8  1  0  0  0  0
 33  9  1  0  0  0  0
 35 10  1  0  0  0  0
M  END
>  <HBA>
2

>  <HBD>
0

>  <TPSA>
6.48

>  <cid>
67423

>  <dipole>
0.07

>  <excitation_energy_1>
4.979

>  <excitation_energy_2>
5.269

>  <excitation_energy_3>
5.293

>  <excitation_energy_4>
5.348

>  <homo_energy>
-5.391

>  <homo_lumo_gap>
7.456

>  <logP>
1.67

>  <lumo_energy>
2.065

>  <melting_point>
-23.95

>  <molecular_refractivity>
55.98

>  <oscillator_strength_1>
0.0079

>  <oscillator_strength_2>
0.0066

>  <oscillator_strength_3>
0.0095

>  <oscillator_strength_4>
0.0113

>  <open_babel_can_smiles>
CCN(CCN(CC)CC)CC

>  <mulliken_charges>
36
1   -0.459696
2   -0.45754
3   -0.439078
4   -0.438943
5   -0.137503
6   -0.105965
7   -0.121013
8   -0.12243
9   -0.116803
10   -0.13492
11   -0.386186
12   -0.380275
13   0.141089
14   0.148136
15   0.151019
16   0.142107
17   0.147314
18   0.155019
19   0.137564
20   0.143925
21   0.153288
22   0.137537
23   0.145156
24   0.152772
25   0.142593
26   0.138009
27   0.112552
28   0.135013
29   0.112841
30   0.136618
31   0.113224
32   0.138249
33   0.131642
34   0.124359
35   0.124759
36   0.135566

>  <lowdin_charges>
36
1   -0.467246
2   -0.453862
3   -0.449617
4   -0.450645
5   -0.204665
6   -0.197447
7   -0.195269
8   -0.198838
9   -0.207737
10   -0.208635
11   -0.193385
12   -0.193003
13   0.153197
14   0.148952
15   0.150038
16   0.153282
17   0.148532
18   0.154515
19   0.149714
20   0.144989
21   0.154171
22   0.148757
23   0.148394
24   0.152977
25   0.143755
26   0.143179
27   0.116572
28   0.142875
29   0.118528
30   0.14232
31   0.119192
32   0.145628
33   0.143939
34   0.125246
35   0.127795
36   0.143801

$$$$

