PCCDB-ID:  22600
public computational chemistry database (PCCDB) project, http://pccdb.org

 26 25  0  0  0  0  0  0  0  0999 V2000
    3.0461   -1.3002   -1.4058 C   0  0  0  0  0  0  0  0  0  0  0  0
    4.1206   -1.3616    0.8980 C   0  0  0  0  0  0  0  0  0  0  0  0
   -1.2189    2.0358    0.0683 C   0  0  0  0  0  0  0  0  0  0  0  0
    0.4770    3.1873    1.5605 C   0  0  0  0  0  0  0  0  0  0  0  0
    3.0951   -0.6529   -0.0066 C   0  0  0  0  0  0  0  0  0  0  0  0
    0.2269    2.5151    0.2104 C   0  0  0  0  0  0  0  0  0  0  0  0
    3.3388    0.8434   -0.1051 C   0  0  0  0  0  0  0  0  0  0  0  0
    1.1133    1.3435    0.0716 N   0  0  0  0  0  0  0  0  0  0  0  0
    2.4623    1.7698   -0.0716 N   0  0  0  0  0  0  0  0  0  0  0  0
    4.6292    1.2664   -0.2823 O   0  0  0  0  0  0  0  0  0  0  0  0
    2.8353   -2.3729   -1.3277 H   0  0  0  0  0  0  0  0  0  0  0  0
    4.0026   -1.1814   -1.9294 H   0  0  0  0  0  0  0  0  0  0  0  0
    2.2703   -0.8477   -2.0333 H   0  0  0  0  0  0  0  0  0  0  0  0
    3.8153   -2.4006    1.0624 H   0  0  0  0  0  0  0  0  0  0  0  0
    4.2026   -0.8750    1.8755 H   0  0  0  0  0  0  0  0  0  0  0  0
    5.1240   -1.4046    0.4498 H   0  0  0  0  0  0  0  0  0  0  0  0
   -1.9126    2.8772    0.1667 H   0  0  0  0  0  0  0  0  0  0  0  0
   -1.4592    1.2978    0.8423 H   0  0  0  0  0  0  0  0  0  0  0  0
   -1.3968    1.5728   -0.9115 H   0  0  0  0  0  0  0  0  0  0  0  0
   -0.1438    4.0847    1.6647 H   0  0  0  0  0  0  0  0  0  0  0  0
    1.5273    3.4789    1.6479 H   0  0  0  0  0  0  0  0  0  0  0  0
    0.2388    2.4993    2.3806 H   0  0  0  0  0  0  0  0  0  0  0  0
    2.1083   -0.7501    0.4597 H   0  0  0  0  0  0  0  0  0  0  0  0
    0.4439    3.2470   -0.5858 H   0  0  0  0  0  0  0  0  0  0  0  0
    0.8363    0.8404   -0.7736 H   0  0  0  0  0  0  0  0  0  0  0  0
    5.2219    0.5066   -0.1862 H   0  0  0  0  0  0  0  0  0  0  0  0
  1 11  1  0  0  0  0
  1  5  1  0  0  0  0
  2 14  1  0  0  0  0
  2 15  1  0  0  0  0
  3 17  1  0  0  0  0
  3  6  1  0  0  0  0
  3 18  1  0  0  0  0
  4 21  1  0  0  0  0
  4 20  1  0  0  0  0
  4 22  1  0  0  0  0
  5 23  1  0  0  0  0
  5  2  1  0  0  0  0
  6  4  1  0  0  0  0
  7  9  2  0  0  0  0
  7  5  1  0  0  0  0
  8  6  1  0  0  0  0
  9  8  1  0  0  0  0
 10 26  1  0  0  0  0
 10  7  1  0  0  0  0
 12  1  1  0  0  0  0
 13  1  1  0  0  0  0
 16  2  1  0  0  0  0
 19  3  1  0  0  0  0
 24  6  1  0  0  0  0
 25  8  1  0  0  0  0
M  END
>  <HBA>
3

>  <HBD>
2

>  <TPSA>
41.13

>  <cid>
22600

>  <dipole>
3.26

>  <excitation_energy_1>
4.709

>  <excitation_energy_2>
4.903

>  <excitation_energy_3>
5.233

>  <excitation_energy_4>
5.602

>  <homo_energy>
-5.304

>  <homo_lumo_gap>
6.095

>  <logP>
1.453

>  <lumo_energy>
0.792

>  <melting_point>
48.52

>  <molecular_refractivity>
41.57

>  <oscillator_strength_1>
0.0047

>  <oscillator_strength_2>
0.0151

>  <oscillator_strength_3>
0.0815

>  <oscillator_strength_4>
0.0403

>  <open_babel_can_smiles>
CC(N/N=C(\C(C)C)/O)C

>  <mulliken_charges>
26
1   -0.440252
2   -0.476577
3   -0.463149
4   -0.437428
5   -0.177949
6   0.083225
7   0.511536
8   -0.461787
9   -0.33102
10   -0.601108
11   0.152211
12   0.145177
13   0.152302
14   0.160693
15   0.171375
16   0.130945
17   0.149184
18   0.152128
19   0.131977
20   0.1318
21   0.171531
22   0.138796
23   0.175908
24   0.121279
25   0.299832
26   0.409369

>  <lowdin_charges>
26
1   -0.439233
2   -0.44716
3   -0.452076
4   -0.449659
5   -0.158439
6   -0.058636
7   0.104933
8   -0.286626
9   -0.159622
10   -0.37437
11   0.152039
12   0.148557
13   0.153886
14   0.159643
15   0.16185
16   0.138406
17   0.156245
18   0.153303
19   0.142689
20   0.146487
21   0.162937
22   0.147866
23   0.167244
24   0.12772
25   0.247706
26   0.354311

$$$$

