PCCDB-ID:  8072
public computational chemistry database (PCCDB) project, http://pccdb.org

 17 16  0  0  0  0  0  0  0  0999 V2000
    0.6350   -0.8818    0.0765 C   0  0  0  0  0  0  0  0  0  0  0  0
    1.9291   -0.1890    0.4951 C   0  0  0  0  0  0  0  0  0  0  0  0
    4.3577   -0.0684    0.0482 C   0  0  0  0  0  0  0  0  0  0  0  0
    5.0009   -0.8249    1.2164 C   0  0  0  0  0  0  0  0  0  0  0  0
    3.0671   -0.6888   -0.2820 N   0  0  0  0  0  0  0  0  0  0  0  0
    5.0572   -2.2083    0.9308 O   0  0  0  0  0  0  0  0  0  0  0  0
   -0.2080   -0.5292    0.6803 H   0  0  0  0  0  0  0  0  0  0  0  0
    0.7210   -1.9667    0.1975 H   0  0  0  0  0  0  0  0  0  0  0  0
    0.3983   -0.6768   -0.9755 H   0  0  0  0  0  0  0  0  0  0  0  0
    2.1256   -0.3906    1.5549 H   0  0  0  0  0  0  0  0  0  0  0  0
    1.8170    0.9078    0.4026 H   0  0  0  0  0  0  0  0  0  0  0  0
    5.0096   -0.1683   -0.8268 H   0  0  0  0  0  0  0  0  0  0  0  0
    4.2700    1.0076    0.2830 H   0  0  0  0  0  0  0  0  0  0  0  0
    4.4396   -0.6299    2.1474 H   0  0  0  0  0  0  0  0  0  0  0  0
    6.0257   -0.4708    1.3765 H   0  0  0  0  0  0  0  0  0  0  0  0
    2.8698   -0.5646   -1.2724 H   0  0  0  0  0  0  0  0  0  0  0  0
    4.2073   -2.3850    0.4819 H   0  0  0  0  0  0  0  0  0  0  0  0
  1  8  1  0  0  0  0
  1  2  1  0  0  0  0
  1  7  1  0  0  0  0
  2 10  1  0  0  0  0
  3 13  1  0  0  0  0
  3  4  1  0  0  0  0
  4 15  1  0  0  0  0
  4 14  1  0  0  0  0
  5  3  1  0  0  0  0
  5  2  1  0  0  0  0
  6  4  1  0  0  0  0
  9  1  1  0  0  0  0
 11  2  1  0  0  0  0
 12  3  1  0  0  0  0
 16  5  1  0  0  0  0
 17  6  1  0  0  0  0
M  END
>  <HBA>
2

>  <HBD>
2

>  <TPSA>
32.26

>  <cid>
8072

>  <dipole>
3.02

>  <excitation_energy_1>
5.742

>  <excitation_energy_2>
6.26

>  <excitation_energy_3>
6.387

>  <excitation_energy_4>
6.537

>  <homo_energy>
-6.365

>  <homo_lumo_gap>
8.373

>  <logP>
-0.021

>  <lumo_energy>
2.008

>  <melting_point>
20.56

>  <molecular_refractivity>
25.31

>  <oscillator_strength_1>
0.0009

>  <oscillator_strength_2>
0.0613

>  <oscillator_strength_3>
0.0246

>  <oscillator_strength_4>
0.0131

>  <open_babel_can_smiles>
OCCNCC

>  <mulliken_charges>
17
1   -0.451245
2   -0.116719
3   -0.15852
4   -0.0065
5   -0.571497
6   -0.630678
7   0.149739
8   0.159368
9   0.140711
10   0.150972
11   0.119197
12   0.145533
13   0.118726
14   0.113584
15   0.137003
16   0.302569
17   0.397756

>  <lowdin_charges>
17
1   -0.44561
2   -0.196151
3   -0.223537
4   -0.139077
5   -0.365626
6   -0.478589
7   0.156489
8   0.154509
9   0.144832
10   0.143862
11   0.118386
12   0.149615
13   0.12553
14   0.119942
15   0.143282
16   0.256017
17   0.336125

$$$$

