PCCDB-ID:  9198
public computational chemistry database (PCCDB) project, http://pccdb.org

 27 30  0  0  0  0  0  0  0  0999 V2000
    4.5156    0.2156   -0.0008 C   0  0  0  0  0  0  0  0  0  0  0  0
    3.9061    1.4912   -0.0007 C   0  0  0  0  0  0  0  0  0  0  0  0
   -4.3085   -0.7516   -0.0001 C   0  0  0  0  0  0  0  0  0  0  0  0
   -4.5423    0.6331   -0.0003 C   0  0  0  0  0  0  0  0  0  0  0  0
    3.7375   -0.9220   -0.0003 C   0  0  0  0  0  0  0  0  0  0  0  0
    2.5327    1.6068   -0.0004 C   0  0  0  0  0  0  0  0  0  0  0  0
   -3.0115   -1.2508   -0.0005 C   0  0  0  0  0  0  0  0  0  0  0  0
   -3.4800    1.5330    0.0000 C   0  0  0  0  0  0  0  0  0  0  0  0
    1.5036   -2.0116   -0.0004 C   0  0  0  0  0  0  0  0  0  0  0  0
    0.1351   -1.9273   -0.0000 C   0  0  0  0  0  0  0  0  0  0  0  0
    2.3214   -0.8420   -0.0005 C   0  0  0  0  0  0  0  0  0  0  0  0
    1.7067    0.4538   -0.0005 C   0  0  0  0  0  0  0  0  0  0  0  0
   -1.9226   -0.3641   -0.0003 C   0  0  0  0  0  0  0  0  0  0  0  0
   -0.5004   -0.6561   -0.0004 C   0  0  0  0  0  0  0  0  0  0  0  0
   -2.1786    1.0263    0.0000 C   0  0  0  0  0  0  0  0  0  0  0  0
    0.2840    0.4999   -0.0003 C   0  0  0  0  0  0  0  0  0  0  0  0
   -0.6900    1.9735    0.0007 S   0  0  0  0  0  0  0  0  0  0  0  0
    5.5991    0.1351   -0.0014 H   0  0  0  0  0  0  0  0  0  0  0  0
    4.5246    2.3844   -0.0000 H   0  0  0  0  0  0  0  0  0  0  0  0
   -5.1499   -1.4388    0.0010 H   0  0  0  0  0  0  0  0  0  0  0  0
   -5.5617    1.0086   -0.0017 H   0  0  0  0  0  0  0  0  0  0  0  0
    4.2022   -1.9052    0.0008 H   0  0  0  0  0  0  0  0  0  0  0  0
    2.0708    2.5908    0.0001 H   0  0  0  0  0  0  0  0  0  0  0  0
   -2.8399   -2.3239   -0.0011 H   0  0  0  0  0  0  0  0  0  0  0  0
   -3.6603    2.6040    0.0006 H   0  0  0  0  0  0  0  0  0  0  0  0
    1.9910   -2.9832   -0.0008 H   0  0  0  0  0  0  0  0  0  0  0  0
   -0.4692   -2.8302    0.0010 H   0  0  0  0  0  0  0  0  0  0  0  0
  1  2  2  0  0  0  0
  1  5  1  0  0  0  0
  2  6  1  0  0  0  0
  2 19  1  0  0  0  0
  3 20  1  0  0  0  0
  4  3  2  0  0  0  0
  4  8  1  0  0  0  0
  5 22  1  0  0  0  0
  6 23  1  0  0  0  0
  7 13  2  0  0  0  0
  7  3  1  0  0  0  0
  8 15  2  0  0  0  0
  8 25  1  0  0  0  0
  9 10  2  0  0  0  0
 10 27  1  0  0  0  0
 11  9  1  0  0  0  0
 11  5  2  0  0  0  0
 12 11  1  0  0  0  0
 12  6  2  0  0  0  0
 12 16  1  0  0  0  0
 13 15  1  0  0  0  0
 14 13  1  0  0  0  0
 14 16  2  0  0  0  0
 14 10  1  0  0  0  0
 15 17  1  0  0  0  0
 16 17  1  0  0  0  0
 18  1  1  0  0  0  0
 21  4  1  0  0  0  0
 24  7  1  0  0  0  0
 26  9  1  0  0  0  0
M  END
>  <HBA>
1

>  <HBD>
0

>  <TPSA>
28.24

>  <cid>
9198

>  <dipole>
0.76

>  <excitation_energy_1>
3.819

>  <excitation_energy_2>
3.949

>  <excitation_energy_3>
4.346

>  <excitation_energy_4>
4.447

>  <homo_energy>
-5.576

>  <homo_lumo_gap>
4.362

>  <logP>
5.208

>  <lumo_energy>
-1.214

>  <melting_point>
137.56

>  <molecular_refractivity>
76.84

>  <oscillator_strength_1>
0.0454

>  <oscillator_strength_2>
0.0101

>  <oscillator_strength_3>
0.3411

>  <oscillator_strength_4>
0.0793

>  <open_babel_can_smiles>
c1ccc2c(c1)c1sc3c(c1cc2)cccc3

>  <mulliken_charges>
27
1   -0.129211
2   -0.140223
3   -0.147556
4   -0.114621
5   -0.203153
6   -0.197341
7   -0.165465
8   -0.188613
9   -0.212633
10   -0.166207
11   0.16883
12   0.109697
13   0.092671
14   0.119029
15   -0.132811
16   -0.265775
17   0.221578
18   0.132131
19   0.133823
20   0.131897
21   0.132854
22   0.132155
23   0.147084
24   0.133521
25   0.142525
26   0.131768
27   0.134046

>  <lowdin_charges>
27
1   -0.155238
2   -0.154398
3   -0.161984
4   -0.153479
5   -0.153474
6   -0.157606
7   -0.15296
8   -0.159705
9   -0.160609
10   -0.156113
11   0.002923
12   -0.005184
13   -0.018257
14   -0.023104
15   -0.126441
16   -0.131808
17   0.261549
18   0.157902
19   0.161198
20   0.160407
21   0.159968
22   0.158545
23   0.165428
24   0.157973
25   0.16358
26   0.159313
27   0.161574

$$$$

