PCCDB-ID:  15261
public computational chemistry database (PCCDB) project, http://pccdb.org

 27 26  0  0  1  0  0  0  0  0999 V2000
    2.8326   -0.1233    2.6167 C   0  0  0  0  0  0  0  0  0  0  0  0
    5.5893    1.9896   -0.3909 C   0  0  0  0  0  0  0  0  0  0  0  0
    3.9306    0.1109    1.5733 C   0  0  0  0  0  0  0  0  0  0  0  0
    5.4014   -1.2698   -1.6830 C   0  0  0  0  0  0  0  0  0  0  0  0
    5.8518   -2.5664   -2.1932 C   0  0  0  0  0  0  0  0  0  0  0  0
    3.4080    0.8446    0.3317 C   0  0  0  0  0  0  0  0  0  0  0  0
    4.9489   -0.2099   -1.3123 C   0  0  0  0  0  0  0  0  0  0  0  0
    4.6688   -3.3801   -2.7588 C   0  0  0  0  0  0  0  0  0  0  0  0
    4.4248    1.0738   -0.8156 C   0  0  2  0  0  0  0  0  0  0  0  0
    4.0238   -2.7173   -3.8278 O   0  0  0  0  0  0  0  0  0  0  0  0
    3.7337    1.6713   -1.9307 O   0  0  0  0  0  0  0  0  0  0  0  0
    3.2233   -0.6535    3.4925 H   0  0  0  0  0  0  0  0  0  0  0  0
    2.0129   -0.7224    2.2020 H   0  0  0  0  0  0  0  0  0  0  0  0
    2.4046    0.8246    2.9659 H   0  0  0  0  0  0  0  0  0  0  0  0
    6.1989    1.5384    0.3976 H   0  0  0  0  0  0  0  0  0  0  0  0
    5.1963    2.9436   -0.0152 H   0  0  0  0  0  0  0  0  0  0  0  0
    6.2291    2.1909   -1.2542 H   0  0  0  0  0  0  0  0  0  0  0  0
    4.3586   -0.8510    1.2646 H   0  0  0  0  0  0  0  0  0  0  0  0
    4.7484    0.6821    2.0314 H   0  0  0  0  0  0  0  0  0  0  0  0
    6.3442   -3.1410   -1.3963 H   0  0  0  0  0  0  0  0  0  0  0  0
    6.5922   -2.4187   -2.9900 H   0  0  0  0  0  0  0  0  0  0  0  0
    3.0223    1.8328    0.6280 H   0  0  0  0  0  0  0  0  0  0  0  0
    2.5624    0.2926   -0.0965 H   0  0  0  0  0  0  0  0  0  0  0  0
    3.9677   -3.6106   -1.9408 H   0  0  0  0  0  0  0  0  0  0  0  0
    5.0390   -4.3277   -3.1628 H   0  0  0  0  0  0  0  0  0  0  0  0
    3.7471   -1.8464   -3.4945 H   0  0  0  0  0  0  0  0  0  0  0  0
    3.3775    2.5174   -1.6122 H   0  0  0  0  0  0  0  0  0  0  0  0
  1 14  1  0  0  0  0
  1 12  1  0  0  0  0
  2 16  1  0  0  0  0
  2 15  1  0  0  0  0
  3 19  1  0  0  0  0
  3  1  1  0  0  0  0
  4  7  3  0  0  0  0
  5  4  1  0  0  0  0
  5 20  1  0  0  0  0
  6 22  1  0  0  0  0
  6  3  1  0  0  0  0
  8  5  1  0  0  0  0
  8 24  1  0  0  0  0
  9  7  1  6  0  0  0
  9  2  1  0  0  0  0
  9  6  1  0  0  0  0
 10 26  1  0  0  0  0
 10  8  1  0  0  0  0
 11 27  1  0  0  0  0
 11  9  1  0  0  0  0
 13  1  1  0  0  0  0
 17  2  1  0  0  0  0
 18  3  1  0  0  0  0
 21  5  1  0  0  0  0
 23  6  1  0  0  0  0
 25  8  1  0  0  0  0
M  END
>  <HBA>
2

>  <HBD>
2

>  <TPSA>
40.46

>  <cid>
15261

>  <dipole>
3.26

>  <excitation_energy_1>
6.067

>  <excitation_energy_2>
6.251

>  <excitation_energy_3>
6.451

>  <excitation_energy_4>
6.543

>  <homo_energy>
-6.762

>  <homo_lumo_gap>
7.747

>  <logP>
0.923

>  <lumo_energy>
0.985

>  <melting_point>
37.05

>  <molecular_refractivity>
45.9

>  <oscillator_strength_1>
0.0048

>  <oscillator_strength_2>
0.0279

>  <oscillator_strength_3>
0.0091

>  <oscillator_strength_4>
0.0159

>  <open_babel_can_smiles>
CCC[C@@](C#CCCO)(O)C

>  <mulliken_charges>
27
1   -0.443587
2   -0.45602
3   -0.25923
4   -0.04111
5   -0.403277
6   -0.264997
7   0.12457
8   -0.020894
9   0.166286
10   -0.613616
11   -0.637135
12   0.145251
13   0.145725
14   0.141674
15   0.157716
16   0.133026
17   0.169358
18   0.147893
19   0.134498
20   0.163085
21   0.180657
22   0.117263
23   0.149518
24   0.126837
25   0.148043
26   0.400505
27   0.387961

>  <lowdin_charges>
27
1   -0.444533
2   -0.450845
3   -0.278618
4   -0.082334
5   -0.282349
6   -0.28274
7   -0.078429
8   -0.127768
9   0.134045
10   -0.463219
11   -0.452771
12   0.151905
13   0.149307
14   0.146276
15   0.16076
16   0.145317
17   0.166149
18   0.150128
19   0.14216
20   0.168686
21   0.172676
22   0.135279
23   0.154149
24   0.130199
25   0.148607
26   0.347994
27   0.339972

$$$$

