PCCDB-ID:  8795
public computational chemistry database (PCCDB) project, http://pccdb.org

 24 24  0  0  0  0  0  0  0  0999 V2000
    1.1293   -2.1563    0.9301 C   0  0  0  0  0  0  0  0  0  0  0  0
   -3.4165   -0.2532    1.0592 C   0  0  0  0  0  0  0  0  0  0  0  0
   -3.2785   -2.6520    0.9479 C   0  0  0  0  0  0  0  0  0  0  0  0
    0.1576   -1.2694    1.7164 C   0  0  0  0  0  0  0  0  0  0  0  0
   -2.0208   -0.2037    1.6797 C   0  0  0  0  0  0  0  0  0  0  0  0
   -1.8812   -2.5994    1.5657 C   0  0  0  0  0  0  0  0  0  0  0  0
    2.4939   -1.9494    1.4305 N   0  0  0  0  0  0  0  0  0  0  0  0
   -4.0601   -1.5135    1.4298 N   0  0  0  0  0  0  0  0  0  0  0  0
   -1.2164   -1.3392    1.2209 N   0  0  0  0  0  0  0  0  0  0  0  0
    0.9950   -1.9480   -0.1454 H   0  0  0  0  0  0  0  0  0  0  0  0
    0.8858   -3.2141    1.0827 H   0  0  0  0  0  0  0  0  0  0  0  0
   -3.3158   -0.1274   -0.0358 H   0  0  0  0  0  0  0  0  0  0  0  0
   -4.0177    0.5798    1.4423 H   0  0  0  0  0  0  0  0  0  0  0  0
   -3.7772   -3.5799    1.2516 H   0  0  0  0  0  0  0  0  0  0  0  0
   -3.1726   -2.6656   -0.1536 H   0  0  0  0  0  0  0  0  0  0  0  0
    0.4899   -0.2274    1.6118 H   0  0  0  0  0  0  0  0  0  0  0  0
    0.2343   -1.5172    2.7919 H   0  0  0  0  0  0  0  0  0  0  0  0
   -2.1207   -0.1893    2.7828 H   0  0  0  0  0  0  0  0  0  0  0  0
   -1.5191    0.7231    1.3767 H   0  0  0  0  0  0  0  0  0  0  0  0
   -1.2897   -3.4367    1.1819 H   0  0  0  0  0  0  0  0  0  0  0  0
   -1.9684   -2.7229    2.6632 H   0  0  0  0  0  0  0  0  0  0  0  0
    2.8226   -1.0245    1.1543 H   0  0  0  0  0  0  0  0  0  0  0  0
    3.1269   -2.6134    0.9886 H   0  0  0  0  0  0  0  0  0  0  0  0
   -5.0013   -1.5498    1.0443 H   0  0  0  0  0  0  0  0  0  0  0  0
  1 11  1  0  0  0  0
  1  7  1  0  0  0  0
  1  4  1  0  0  0  0
  2  8  1  0  0  0  0
  2 13  1  0  0  0  0
  2  5  1  0  0  0  0
  3 14  1  0  0  0  0
  3  8  1  0  0  0  0
  3  6  1  0  0  0  0
  4 17  1  0  0  0  0
  5 18  1  0  0  0  0
  6 21  1  0  0  0  0
  9  6  1  0  0  0  0
  9  5  1  0  0  0  0
  9  4  1  0  0  0  0
 10  1  1  0  0  0  0
 12  2  1  0  0  0  0
 15  3  1  0  0  0  0
 16  4  1  0  0  0  0
 19  5  1  0  0  0  0
 20  6  1  0  0  0  0
 22  7  1  0  0  0  0
 23  7  1  0  0  0  0
 24  8  1  0  0  0  0
M  END
>  <HBA>
3

>  <HBD>
2

>  <TPSA>
41.29

>  <cid>
8795

>  <dipole>
1.76

>  <excitation_energy_1>
5.281

>  <excitation_energy_2>
5.347

>  <excitation_energy_3>
5.418

>  <excitation_energy_4>
5.627

>  <homo_energy>
-5.644

>  <homo_lumo_gap>
7.88

>  <logP>
-0.183

>  <lumo_energy>
2.237

>  <melting_point>
80.08

>  <molecular_refractivity>
45.08

>  <oscillator_strength_1>
0.0022

>  <oscillator_strength_2>
0.0018

>  <oscillator_strength_3>
0.0111

>  <oscillator_strength_4>
0.0125

>  <open_babel_can_smiles>
NCCN1CCNCC1

>  <mulliken_charges>
24
1   -0.147024
2   -0.134301
3   -0.133802
4   -0.095164
5   -0.109802
6   -0.116465
7   -0.720284
8   -0.550981
9   -0.40698
10   0.124673
11   0.139976
12   0.117783
13   0.134313
14   0.134589
15   0.117869
16   0.123178
17   0.127693
18   0.120205
19   0.132138
20   0.136779
21   0.120504
22   0.292237
23   0.297237
24   0.295629

>  <lowdin_charges>
24
1   -0.207206
2   -0.207365
3   -0.206058
4   -0.199315
5   -0.200773
6   -0.203442
7   -0.559942
8   -0.367171
9   -0.194937
10   0.121463
11   0.139467
12   0.118256
13   0.146762
14   0.146079
15   0.118108
16   0.137692
17   0.125291
18   0.120174
19   0.144089
20   0.146706
21   0.120615
22   0.250743
23   0.257277
24   0.253489

$$$$

