PCCDB-ID:  72612
public computational chemistry database (PCCDB) project, http://pccdb.org

 24 25  0  0  1  0  0  0  0  0999 V2000
   -1.9986    0.1165   -0.4377 C   0  0  0  0  0  0  0  0  0  0  0  0
    1.8372    0.1318   -0.7830 C   0  0  0  0  0  0  0  0  0  0  0  0
   -1.1158    1.2540    0.0081 C   0  0  0  0  0  0  0  0  0  0  0  0
    1.3602    1.0302    0.3786 C   0  0  0  0  0  0  0  0  0  0  0  0
   -1.8877   -2.4492   -0.5857 C   0  0  0  0  0  0  0  0  0  0  0  0
   -1.4125   -1.0648   -0.2267 C   0  0  0  0  0  0  0  0  0  0  0  0
    1.1655   -1.2307   -0.5050 C   0  0  2  0  0  0  0  0  0  0  0  0
   -0.0595   -0.8615    0.4078 C   0  0  1  0  0  0  0  0  0  0  0  0
    0.0030    0.5833    0.6991 N   0  0  2  0  0  0  0  0  0  0  0  0
   -1.4963   -3.4390    0.3620 O   0  0  0  0  0  0  0  0  0  0  0  0
    2.0106   -2.2093    0.1001 O   0  0  0  0  0  0  0  0  0  0  0  0
   -2.9788    0.2739   -0.8787 H   0  0  0  0  0  0  0  0  0  0  0  0
    2.9247    0.0315   -0.8614 H   0  0  0  0  0  0  0  0  0  0  0  0
    1.4696    0.5318   -1.7359 H   0  0  0  0  0  0  0  0  0  0  0  0
   -1.6375    1.9477    0.6849 H   0  0  0  0  0  0  0  0  0  0  0  0
   -0.7781    1.8581   -0.8549 H   0  0  0  0  0  0  0  0  0  0  0  0
    1.3711    2.0979    0.1389 H   0  0  0  0  0  0  0  0  0  0  0  0
    2.0064    0.8950    1.2591 H   0  0  0  0  0  0  0  0  0  0  0  0
   -1.5236   -2.7181   -1.5925 H   0  0  0  0  0  0  0  0  0  0  0  0
   -2.9808   -2.4796   -0.6271 H   0  0  0  0  0  0  0  0  0  0  0  0
    0.8456   -1.7039   -1.4377 H   0  0  0  0  0  0  0  0  0  0  0  0
    0.0318   -1.4572    1.3300 H   0  0  0  0  0  0  0  0  0  0  0  0
   -0.5324   -3.5415    0.3010 H   0  0  0  0  0  0  0  0  0  0  0  0
    2.2894   -1.8673    0.9654 H   0  0  0  0  0  0  0  0  0  0  0  0
  1  6  2  0  0  0  0
  1  3  1  0  0  0  0
  2  7  1  0  0  0  0
  2  4  1  0  0  0  0
  3 15  1  0  0  0  0
  4  9  1  0  0  0  0
  4 18  1  0  0  0  0
  5  6  1  0  0  0  0
  5 10  1  0  0  0  0
  6  8  1  0  0  0  0
  7 21  1  6  0  0  0
  7 11  1  0  0  0  0
  7  8  1  0  0  0  0
  8  9  1  0  0  0  0
  8 22  1  1  0  0  0
  9  3  1  6  0  0  0
 11 24  1  0  0  0  0
 12  1  1  0  0  0  0
 13  2  1  0  0  0  0
 14  2  1  0  0  0  0
 16  3  1  0  0  0  0
 17  4  1  0  0  0  0
 19  5  1  0  0  0  0
 20  5  1  0  0  0  0
 23 10  1  0  0  0  0
M  END
>  <HBA>
3

>  <HBD>
2

>  <TPSA>
43.7

>  <cid>
72612

>  <dipole>
2.62

>  <excitation_energy_1>
4.85

>  <excitation_energy_2>
4.968

>  <excitation_energy_3>
5.387

>  <excitation_energy_4>
5.574

>  <homo_energy>
-5.633

>  <homo_lumo_gap>
6.093

>  <logP>
-0.708

>  <lumo_energy>
0.46

>  <melting_point>
70.35

>  <molecular_refractivity>
45.0

>  <oscillator_strength_1>
0.0235

>  <oscillator_strength_2>
0.0045

>  <oscillator_strength_3>
0.0035

>  <oscillator_strength_4>
0.0027

>  <open_babel_can_smiles>
OCC1=CCN2[C@@H]1[C@H](O)CC2

>  <mulliken_charges>
24
1   -0.197018
2   -0.299795
3   -0.143354
4   -0.157629
5   -0.112309
6   0.157204
7   0.11025
8   -0.057062
9   -0.414183
10   -0.616108
11   -0.632212
12   0.129038
13   0.150579
14   0.145285
15   0.149277
16   0.128203
17   0.147193
18   0.135286
19   0.138019
20   0.160602
21   0.143487
22   0.143725
23   0.40319
24   0.388331

>  <lowdin_charges>
24
1   -0.188547
2   -0.312195
3   -0.19239
4   -0.207927
5   -0.129169
6   -0.03441
7   -0.024722
8   -0.088813
9   -0.191763
10   -0.463118
11   -0.461368
12   0.157696
13   0.154161
14   0.151796
15   0.146389
16   0.132193
17   0.148274
18   0.136098
19   0.136074
20   0.156344
21   0.147112
22   0.143627
23   0.34462
24   0.340037

$$$$

