PCCDB-ID:  21922
public computational chemistry database (PCCDB) project, http://pccdb.org

 28 28  0  0  0  0  0  0  0  0999 V2000
    0.9982    0.8997   -3.7425 C   0  0  0  0  0  0  0  0  0  0  0  0
    1.6991    0.1928   -2.5727 C   0  0  0  0  0  0  0  0  0  0  0  0
   -0.4104    1.3685   -3.3471 C   0  0  0  0  0  0  0  0  0  0  0  0
    0.8408   -0.9597   -2.0245 C   0  0  0  0  0  0  0  0  0  0  0  0
   -1.2556    0.2078   -2.8007 C   0  0  0  0  0  0  0  0  0  0  0  0
   -1.5298    1.5188    1.4733 C   0  0  0  0  0  0  0  0  0  0  0  0
   -1.7389    0.5393    0.3082 C   0  0  0  0  0  0  0  0  0  0  0  0
   -0.5755   -0.5102   -1.6162 C   0  0  0  0  0  0  0  0  0  0  0  0
   -1.0970    2.8654    1.0954 N   0  0  0  0  0  0  0  0  0  0  0  0
   -0.4914    0.3693   -0.4379 N   0  0  0  0  0  0  0  0  0  0  0  0
    0.9239    0.2042   -4.5927 H   0  0  0  0  0  0  0  0  0  0  0  0
    1.6003    1.7498   -4.0880 H   0  0  0  0  0  0  0  0  0  0  0  0
    1.8905    0.9185   -1.7721 H   0  0  0  0  0  0  0  0  0  0  0  0
    2.6761   -0.1931   -2.8911 H   0  0  0  0  0  0  0  0  0  0  0  0
   -0.9157    1.8232   -4.2088 H   0  0  0  0  0  0  0  0  0  0  0  0
   -0.3309    2.1448   -2.5761 H   0  0  0  0  0  0  0  0  0  0  0  0
    1.3392   -1.4370   -1.1683 H   0  0  0  0  0  0  0  0  0  0  0  0
    0.7427   -1.7382   -2.7935 H   0  0  0  0  0  0  0  0  0  0  0  0
   -1.4207   -0.5348   -3.5942 H   0  0  0  0  0  0  0  0  0  0  0  0
   -2.2506    0.5661   -2.5096 H   0  0  0  0  0  0  0  0  0  0  0  0
   -0.7767    1.1015    2.1582 H   0  0  0  0  0  0  0  0  0  0  0  0
   -2.4584    1.5971    2.0515 H   0  0  0  0  0  0  0  0  0  0  0  0
   -2.4980    0.9509   -0.3686 H   0  0  0  0  0  0  0  0  0  0  0  0
   -2.1435   -0.4200    0.6892 H   0  0  0  0  0  0  0  0  0  0  0  0
   -1.1675   -1.4161   -1.3807 H   0  0  0  0  0  0  0  0  0  0  0  0
   -0.3246    2.7650    0.4363 H   0  0  0  0  0  0  0  0  0  0  0  0
   -1.8438    3.3183    0.5680 H   0  0  0  0  0  0  0  0  0  0  0  0
    0.2027   -0.0219    0.1998 H   0  0  0  0  0  0  0  0  0  0  0  0
  1  3  1  0  0  0  0
  1  2  1  0  0  0  0
  2  4  1  0  0  0  0
  2 13  1  0  0  0  0
  3  5  1  0  0  0  0
  3 16  1  0  0  0  0
  4  8  1  0  0  0  0
  4 17  1  0  0  0  0
  5 20  1  0  0  0  0
  5  8  1  0  0  0  0
  6 22  1  0  0  0  0
  6 21  1  0  0  0  0
  7 24  1  0  0  0  0
  7  6  1  0  0  0  0
  8 25  1  0  0  0  0
  8 10  1  0  0  0  0
  9  6  1  0  0  0  0
 10 28  1  0  0  0  0
 10  7  1  0  0  0  0
 11  1  1  0  0  0  0
 12  1  1  0  0  0  0
 14  2  1  0  0  0  0
 15  3  1  0  0  0  0
 18  4  1  0  0  0  0
 19  5  1  0  0  0  0
 23  7  1  0  0  0  0
 26  9  1  0  0  0  0
 27  9  1  0  0  0  0
M  END
>  <HBA>
2

>  <HBD>
2

>  <TPSA>
38.05

>  <cid>
21922

>  <dipole>
1.89

>  <excitation_energy_1>
5.422

>  <excitation_energy_2>
5.666

>  <excitation_energy_3>
5.823

>  <excitation_energy_4>
5.839

>  <homo_energy>
-6.038

>  <homo_lumo_gap>
7.962

>  <logP>
1.959

>  <lumo_energy>
1.924

>  <melting_point>
76.12

>  <molecular_refractivity>
43.97

>  <oscillator_strength_1>
0.0103

>  <oscillator_strength_2>
0.0236

>  <oscillator_strength_3>
0.002

>  <oscillator_strength_4>
0.04

>  <open_babel_can_smiles>
NCCNC1CCCCC1

>  <mulliken_charges>
28
1   -0.257985
2   -0.248822
3   -0.250919
4   -0.288518
5   -0.262334
6   -0.156975
7   -0.123637
8   0.061627
9   -0.703349
10   -0.566858
11   0.12315
12   0.129078
13   0.140087
14   0.127285
15   0.125218
16   0.141217
17   0.122983
18   0.132916
19   0.126171
20   0.130048
21   0.134618
22   0.139431
23   0.134762
24   0.107497
25   0.099999
26   0.30614
27   0.287105
28   0.290066

>  <lowdin_charges>
28
1   -0.278143
2   -0.279336
3   -0.280563
4   -0.284788
5   -0.28429
6   -0.214666
7   -0.224012
8   -0.063574
9   -0.555192
10   -0.369898
11   0.13509
12   0.143653
13   0.144712
14   0.141573
15   0.142162
16   0.144685
17   0.138964
18   0.144422
19   0.141041
20   0.141522
21   0.138722
22   0.145318
23   0.139566
24   0.117937
25   0.1172
26   0.255977
27   0.25072
28   0.251201

$$$$

