PCCDB-ID:  62231
public computational chemistry database (PCCDB) project, http://pccdb.org

 25 24  0  0  0  0  0  0  0  0999 V2000
    2.0994   -1.3941    0.4878 C   0  0  0  0  0  0  0  0  0  0  0  0
    2.0279   -0.0660    1.2633 C   0  0  0  0  0  0  0  0  0  0  0  0
    3.3633    0.6230    1.3701 C   0  0  0  0  0  0  0  0  0  0  0  0
    3.6703    1.8003    0.8098 C   0  0  0  0  0  0  0  0  0  0  0  0
    5.0218    2.4782    0.8859 C   0  0  0  0  0  0  0  0  0  0  0  0
    6.0869    1.9595   -0.1111 C   0  0  0  0  0  0  0  0  0  0  0  0
    5.8420    2.2194   -1.6069 C   0  0  0  0  0  0  0  0  0  0  0  0
    4.6111    1.5279   -2.2149 C   0  0  0  0  0  0  0  0  0  0  0  0
    4.5409    0.1387   -1.9192 O   0  0  0  0  0  0  0  0  0  0  0  0
    1.1200   -1.8848    0.4596 H   0  0  0  0  0  0  0  0  0  0  0  0
    2.8072   -2.0895    0.9551 H   0  0  0  0  0  0  0  0  0  0  0  0
    2.4252   -1.2273   -0.5453 H   0  0  0  0  0  0  0  0  0  0  0  0
    1.6389   -0.2643    2.2728 H   0  0  0  0  0  0  0  0  0  0  0  0
    1.3084    0.6052    0.7772 H   0  0  0  0  0  0  0  0  0  0  0  0
    4.1284    0.0967    1.9477 H   0  0  0  0  0  0  0  0  0  0  0  0
    2.8915    2.3166    0.2461 H   0  0  0  0  0  0  0  0  0  0  0  0
    5.4291    2.3468    1.8970 H   0  0  0  0  0  0  0  0  0  0  0  0
    4.8941    3.5596    0.7436 H   0  0  0  0  0  0  0  0  0  0  0  0
    6.2182    0.8805    0.0427 H   0  0  0  0  0  0  0  0  0  0  0  0
    7.0463    2.4207    0.1580 H   0  0  0  0  0  0  0  0  0  0  0  0
    6.7318    1.8764   -2.1510 H   0  0  0  0  0  0  0  0  0  0  0  0
    5.7588    3.3009   -1.7914 H   0  0  0  0  0  0  0  0  0  0  0  0
    4.6580    1.5996   -3.3071 H   0  0  0  0  0  0  0  0  0  0  0  0
    3.6892    2.0415   -1.9023 H   0  0  0  0  0  0  0  0  0  0  0  0
    4.3067    0.0690   -0.9783 H   0  0  0  0  0  0  0  0  0  0  0  0
  1 11  1  0  0  0  0
  1  2  1  0  0  0  0
  2  3  1  0  0  0  0
  2 13  1  0  0  0  0
  3 15  1  0  0  0  0
  4  5  1  0  0  0  0
  4  3  2  0  0  0  0
  5 17  1  0  0  0  0
  6 19  1  0  0  0  0
  6 20  1  0  0  0  0
  6  5  1  0  0  0  0
  7  6  1  0  0  0  0
  8  9  1  0  0  0  0
  8 24  1  0  0  0  0
  8  7  1  0  0  0  0
  9 25  1  0  0  0  0
 10  1  1  0  0  0  0
 12  1  1  0  0  0  0
 14  2  1  0  0  0  0
 16  4  1  0  0  0  0
 18  5  1  0  0  0  0
 21  7  1  0  0  0  0
 22  7  1  0  0  0  0
 23  8  1  0  0  0  0
M  END
>  <HBA>
1

>  <HBD>
1

>  <TPSA>
20.23

>  <cid>
62231

>  <dipole>
1.9

>  <excitation_energy_1>
6.167

>  <excitation_energy_2>
6.241

>  <excitation_energy_3>
6.38

>  <excitation_energy_4>
6.459

>  <homo_energy>
-6.697

>  <homo_lumo_gap>
6.98

>  <logP>
2.115

>  <lumo_energy>
0.283

>  <melting_point>
0.52

>  <molecular_refractivity>
41.26

>  <oscillator_strength_1>
0.1028

>  <oscillator_strength_2>
0.008

>  <oscillator_strength_3>
0.1233

>  <oscillator_strength_4>
0.0178

>  <open_babel_can_smiles>
OCCCC/C=C/CC

>  <mulliken_charges>
25
1   -0.455679
2   -0.293878
3   -0.102367
4   -0.127656
5   -0.296241
6   -0.269817
7   -0.263772
8   -0.032552
9   -0.636323
10   0.147196
11   0.145245
12   0.164577
13   0.144322
14   0.141758
15   0.122629
16   0.13004
17   0.146564
18   0.136442
19   0.140326
20   0.135424
21   0.141511
22   0.122594
23   0.141469
24   0.115641
25   0.402549

>  <lowdin_charges>
25
1   -0.448451
2   -0.269534
3   -0.174915
4   -0.176456
5   -0.276149
6   -0.277415
7   -0.293533
8   -0.13622
9   -0.475601
10   0.152051
11   0.149648
12   0.15495
13   0.148519
14   0.148518
15   0.148171
16   0.15052
17   0.152658
18   0.145099
19   0.141289
20   0.146703
21   0.149393
22   0.138813
23   0.143636
24   0.123979
25   0.334324

$$$$

