PCCDB-ID:  11535
public computational chemistry database (PCCDB) project, http://pccdb.org

 10  9  0  0  0  0  0  0  0  0999 V2000
    0.9151    0.0890   -0.0460 C   0  0  0  0  0  0  0  0  0  0  0  0
    4.3428    0.8253    1.1178 C   0  0  0  0  0  0  0  0  0  0  0  0
    2.2046   -0.0274    0.1378 C   0  0  0  0  0  0  0  0  0  0  0  0
    3.4953   -0.1396    0.3231 C   0  0  0  0  0  0  0  0  0  0  0  0
    0.5045    0.6353   -0.8936 H   0  0  0  0  0  0  0  0  0  0  0  0
    0.1971   -0.3563    0.6409 H   0  0  0  0  0  0  0  0  0  0  0  0
    5.1553    1.2304    0.5010 H   0  0  0  0  0  0  0  0  0  0  0  0
    4.8088    0.3229    1.9755 H   0  0  0  0  0  0  0  0  0  0  0  0
    3.7461    1.6615    1.4925 H   0  0  0  0  0  0  0  0  0  0  0  0
    4.0110   -0.9908   -0.1257 H   0  0  0  0  0  0  0  0  0  0  0  0
  1  3  2  0  0  0  0
  1  6  1  0  0  0  0
  2  9  1  0  0  0  0
  2  8  1  0  0  0  0
  3  4  2  0  0  0  0
  4  2  1  0  0  0  0
  5  1  1  0  0  0  0
  7  2  1  0  0  0  0
 10  4  1  0  0  0  0
M  END
>  <HBA>
0

>  <HBD>
0

>  <TPSA>
0.0

>  <cid>
11535

>  <dipole>
0.41

>  <excitation_energy_1>
5.513

>  <excitation_energy_2>
6.169

>  <excitation_energy_3>
6.495

>  <excitation_energy_4>
6.646

>  <homo_energy>
-6.7

>  <homo_lumo_gap>
7.372

>  <logP>
1.347

>  <lumo_energy>
0.672

>  <melting_point>
-45.17

>  <molecular_refractivity>
19.57

>  <oscillator_strength_1>
0.0001

>  <oscillator_strength_2>
0.0001

>  <oscillator_strength_3>
0.0039

>  <oscillator_strength_4>
0.0942

>  <open_babel_can_smiles>
CC=C=C

>  <mulliken_charges>
10
1   -0.531493
2   -0.465534
3   0.338446
4   -0.294718
5   0.161905
6   0.161793
7   0.157455
8   0.158455
9   0.161678
10   0.152014

>  <lowdin_charges>
10
1   -0.367578
2   -0.43053
3   -0.011196
4   -0.190061
5   0.174981
6   0.175483
7   0.15874
8   0.158869
9   0.16195
10   0.169342

$$$$

