PCCDB-ID:  67295
public computational chemistry database (PCCDB) project, http://pccdb.org

 40 40  0  0  0  0  0  0  0  0999 V2000
    1.1023    4.4925   -3.8360 C   0  0  0  0  0  0  0  0  0  0  0  0
   10.5864   -2.9802    1.0040 C   0  0  0  0  0  0  0  0  0  0  0  0
    2.5167    4.0534   -3.4446 C   0  0  0  0  0  0  0  0  0  0  0  0
   10.9806   -1.7754    0.1434 C   0  0  0  0  0  0  0  0  0  0  0  0
    2.5268    3.0029   -2.3272 C   0  0  0  0  0  0  0  0  0  0  0  0
   10.0476   -1.5686   -1.0574 C   0  0  0  0  0  0  0  0  0  0  0  0
    6.5619    1.4744   -1.7859 C   0  0  0  0  0  0  0  0  0  0  0  0
    7.8581    0.9325   -1.7985 C   0  0  0  0  0  0  0  0  0  0  0  0
    3.9224    2.5364   -1.9317 C   0  0  0  0  0  0  0  0  0  0  0  0
   10.4596   -0.3751   -1.9202 C   0  0  0  0  0  0  0  0  0  0  0  0
    6.3073    0.8159   -4.1018 C   0  0  0  0  0  0  0  0  0  0  0  0
    5.7878    1.4115   -2.9436 C   0  0  0  0  0  0  0  0  0  0  0  0
    7.5932    0.2805   -4.1211 C   0  0  0  0  0  0  0  0  0  0  0  0
    8.3780    0.3415   -2.9413 C   0  0  0  0  0  0  0  0  0  0  0  0
    8.1520   -0.2658   -5.2772 N   0  0  0  0  0  0  0  0  0  0  0  0
    4.5094    1.8934   -3.0582 O   0  0  0  0  0  0  0  0  0  0  0  0
    9.6376   -0.2090   -3.0737 O   0  0  0  0  0  0  0  0  0  0  0  0
    1.1251    5.2436   -4.6337 H   0  0  0  0  0  0  0  0  0  0  0  0
    0.5687    4.9292   -2.9824 H   0  0  0  0  0  0  0  0  0  0  0  0
    0.5092    3.6429   -4.1963 H   0  0  0  0  0  0  0  0  0  0  0  0
   11.2686   -3.1036    1.8526 H   0  0  0  0  0  0  0  0  0  0  0  0
   10.6086   -3.9078    0.4194 H   0  0  0  0  0  0  0  0  0  0  0  0
    9.5718   -2.8656    1.4039 H   0  0  0  0  0  0  0  0  0  0  0  0
    3.0969    4.9294   -3.1205 H   0  0  0  0  0  0  0  0  0  0  0  0
    3.0368    3.6467   -4.3195 H   0  0  0  0  0  0  0  0  0  0  0  0
   12.0129   -1.9031   -0.2126 H   0  0  0  0  0  0  0  0  0  0  0  0
   10.9839   -0.8688    0.7653 H   0  0  0  0  0  0  0  0  0  0  0  0
    1.9386    2.1272   -2.6329 H   0  0  0  0  0  0  0  0  0  0  0  0
    2.0414    3.4096   -1.4285 H   0  0  0  0  0  0  0  0  0  0  0  0
    9.0167   -1.4320   -0.7078 H   0  0  0  0  0  0  0  0  0  0  0  0
   10.0460   -2.4666   -1.6897 H   0  0  0  0  0  0  0  0  0  0  0  0
    6.1870    1.9250   -0.8753 H   0  0  0  0  0  0  0  0  0  0  0  0
    8.4468    0.9797   -0.8889 H   0  0  0  0  0  0  0  0  0  0  0  0
    3.8693    1.8339   -1.0866 H   0  0  0  0  0  0  0  0  0  0  0  0
    4.5439    3.3905   -1.6216 H   0  0  0  0  0  0  0  0  0  0  0  0
   11.4664   -0.5299   -2.3221 H   0  0  0  0  0  0  0  0  0  0  0  0
   10.4838    0.5534   -1.3329 H   0  0  0  0  0  0  0  0  0  0  0  0
    5.6874    0.7857   -4.9935 H   0  0  0  0  0  0  0  0  0  0  0  0
    8.9378   -0.8766   -5.0918 H   0  0  0  0  0  0  0  0  0  0  0  0
    7.4836   -0.6738   -5.9182 H   0  0  0  0  0  0  0  0  0  0  0  0
  1  3  1  0  0  0  0
  1 19  1  0  0  0  0
  2 23  1  0  0  0  0
  2 21  1  0  0  0  0
  3 24  1  0  0  0  0
  3  5  1  0  0  0  0
  4 27  1  0  0  0  0
  4  2  1  0  0  0  0
  5  9  1  0  0  0  0
  5 29  1  0  0  0  0
  6 30  1  0  0  0  0
  6  4  1  0  0  0  0
  7 32  1  0  0  0  0
  8  7  1  0  0  0  0
  8 33  1  0  0  0  0
  9 35  1  0  0  0  0
  9 34  1  0  0  0  0
 10 37  1  0  0  0  0
 10  6  1  0  0  0  0
 11 12  1  0  0  0  0
 12  7  2  0  0  0  0
 13 11  2  0  0  0  0
 13 14  1  0  0  0  0
 14  8  2  0  0  0  0
 15 39  1  0  0  0  0
 15 13  1  0  0  0  0
 16 12  1  0  0  0  0
 16  9  1  0  0  0  0
 17 14  1  0  0  0  0
 17 10  1  0  0  0  0
 18  1  1  0  0  0  0
 20  1  1  0  0  0  0
 22  2  1  0  0  0  0
 25  3  1  0  0  0  0
 26  4  1  0  0  0  0
 28  5  1  0  0  0  0
 31  6  1  0  0  0  0
 36 10  1  0  0  0  0
 38 11  1  0  0  0  0
 40 15  1  0  0  0  0
M  END
>  <HBA>
3

>  <HBD>
1

>  <TPSA>
44.48

>  <cid>
67295

>  <dipole>
2.11

>  <excitation_energy_1>
4.439

>  <excitation_energy_2>
4.573

>  <excitation_energy_3>
4.64

>  <excitation_energy_4>
4.927

>  <homo_energy>
-4.822

>  <homo_lumo_gap>
5.331

>  <logP>
4.208

>  <lumo_energy>
0.509

>  <melting_point>
60.7

>  <molecular_refractivity>
72.67

>  <oscillator_strength_1>
0.0519

>  <oscillator_strength_2>
0.036

>  <oscillator_strength_3>
0.0062

>  <oscillator_strength_4>
0.0086

>  <open_babel_can_smiles>
CCCCOc1ccc(c(c1)N)OCCCC

>  <mulliken_charges>
40
1   -0.442438
2   -0.440062
3   -0.247994
4   -0.256851
5   -0.270068
6   -0.274429
7   -0.217802
8   -0.206909
9   -0.0283
10   -0.031591
11   -0.248344
12   0.383898
13   0.264269
14   0.352574
15   -0.792268
16   -0.532074
17   -0.561226
18   0.143456
19   0.138406
20   0.142575
21   0.144635
22   0.144848
23   0.145642
24   0.128133
25   0.156803
26   0.133839
27   0.133773
28   0.144479
29   0.130431
30   0.150745
31   0.140771
32   0.123182
33   0.126294
34   0.133059
35   0.132702
36   0.147658
37   0.138105
38   0.121255
39   0.332969
40   0.315857

>  <lowdin_charges>
40
1   -0.446382
2   -0.442163
3   -0.275665
4   -0.271189
5   -0.281905
6   -0.291482
7   -0.238757
8   -0.199151
9   -0.128086
10   -0.128901
11   -0.22617
12   0.099387
13   0.045767
14   0.057324
15   -0.489596
16   -0.20997
17   -0.221064
18   0.150732
19   0.145318
20   0.147652
21   0.151354
22   0.148261
23   0.147803
24   0.139164
25   0.152481
26   0.139079
27   0.140195
28   0.148821
29   0.145422
30   0.149516
31   0.146596
32   0.159647
33   0.159176
34   0.13679
35   0.135162
36   0.149368
37   0.137091
38   0.161296
39   0.281649
40   0.275427

$$$$

