PCCDB-ID:  62199
public computational chemistry database (PCCDB) project, http://pccdb.org

 28 27  0  0  1  0  0  0  0  0999 V2000
    2.9666   -2.7896    0.1385 C   0  0  0  0  0  0  0  0  0  0  0  0
    8.6296   -2.9621    2.5113 C   0  0  0  0  0  0  0  0  0  0  0  0
    2.6885   -1.2781    0.2263 C   0  0  0  0  0  0  0  0  0  0  0  0
    3.2058   -0.6877    1.5089 C   0  0  0  0  0  0  0  0  0  0  0  0
    4.0886    0.3097    1.6066 C   0  0  0  0  0  0  0  0  0  0  0  0
    4.6575    0.8202    2.9026 C   0  0  0  0  0  0  0  0  0  0  0  0
    6.1826    0.6917    2.9644 C   0  0  0  0  0  0  0  0  0  0  0  0
    7.4641   -2.5368    1.6079 C   0  0  2  0  0  0  0  0  0  0  0  0
    7.2660   -1.0221    1.6718 C   0  0  0  0  0  0  0  0  0  0  0  0
    6.2659   -3.2342    1.9233 O   0  0  0  0  0  0  0  0  0  0  0  0
    7.7027   -0.2298    0.8695 O   0  0  0  0  0  0  0  0  0  0  0  0
    6.5665   -0.6926    2.7885 O   0  0  0  0  0  0  0  0  0  0  0  0
    2.6403   -3.1937   -0.8265 H   0  0  0  0  0  0  0  0  0  0  0  0
    2.4285   -3.3329    0.9251 H   0  0  0  0  0  0  0  0  0  0  0  0
    4.0339   -3.0003    0.2653 H   0  0  0  0  0  0  0  0  0  0  0  0
    9.5605   -2.4664    2.2136 H   0  0  0  0  0  0  0  0  0  0  0  0
    8.7661   -4.0450    2.4362 H   0  0  0  0  0  0  0  0  0  0  0  0
    8.4183   -2.7087    3.5560 H   0  0  0  0  0  0  0  0  0  0  0  0
    1.6037   -1.1095    0.1489 H   0  0  0  0  0  0  0  0  0  0  0  0
    3.1467   -0.7613   -0.6263 H   0  0  0  0  0  0  0  0  0  0  0  0
    2.8345   -1.1502    2.4274 H   0  0  0  0  0  0  0  0  0  0  0  0
    4.4723    0.7734    0.6957 H   0  0  0  0  0  0  0  0  0  0  0  0
    4.2087    0.2825    3.7471 H   0  0  0  0  0  0  0  0  0  0  0  0
    4.4244    1.8869    3.0442 H   0  0  0  0  0  0  0  0  0  0  0  0
    6.5651    0.9953    3.9434 H   0  0  0  0  0  0  0  0  0  0  0  0
    6.6712    1.2834    2.1874 H   0  0  0  0  0  0  0  0  0  0  0  0
    7.6961   -2.7738    0.5664 H   0  0  0  0  0  0  0  0  0  0  0  0
    5.8716   -2.7800    2.6862 H   0  0  0  0  0  0  0  0  0  0  0  0
  1  3  1  0  0  0  0
  1 15  1  0  0  0  0
  1 14  1  0  0  0  0
  2 18  1  0  0  0  0
  3  4  1  0  0  0  0
  4  5  2  0  0  0  0
  4 21  1  0  0  0  0
  5  6  1  0  0  0  0
  6  7  1  0  0  0  0
  6 24  1  0  0  0  0
  6 23  1  0  0  0  0
  7 25  1  0  0  0  0
  8 27  1  6  0  0  0
  8  9  1  0  0  0  0
  8 10  1  0  0  0  0
  8  2  1  0  0  0  0
  9 12  1  0  0  0  0
 10 28  1  0  0  0  0
 11  9  2  0  0  0  0
 12  7  1  0  0  0  0
 13  1  1  0  0  0  0
 16  2  1  0  0  0  0
 17  2  1  0  0  0  0
 19  3  1  0  0  0  0
 20  3  1  0  0  0  0
 22  5  1  0  0  0  0
 26  7  1  0  0  0  0
M  END
>  <HBA>
3

>  <HBD>
1

>  <TPSA>
46.53

>  <cid>
62199

>  <dipole>
2.32

>  <excitation_energy_1>
5.548

>  <excitation_energy_2>
5.812

>  <excitation_energy_3>
6.202

>  <excitation_energy_4>
6.402

>  <homo_energy>
-6.653

>  <homo_lumo_gap>
6.778

>  <logP>
1.267

>  <lumo_energy>
0.125

>  <melting_point>
12.29

>  <molecular_refractivity>
47.35

>  <oscillator_strength_1>
0.0024

>  <oscillator_strength_2>
0.0086

>  <oscillator_strength_3>
0.0235

>  <oscillator_strength_4>
0.1639

>  <open_babel_can_smiles>
CC/C=C/CCOC(=O)[C@H](O)C

>  <mulliken_charges>
28
1   -0.454782
2   -0.462288
3   -0.297593
4   -0.081813
5   -0.100259
6   -0.318357
7   -0.06599
8   0.068196
9   0.610368
10   -0.618232
11   -0.469665
12   -0.481055
13   0.141365
14   0.138552
15   0.174821
16   0.158888
17   0.168327
18   0.152212
19   0.141451
20   0.141559
21   0.113469
22   0.130436
23   0.147686
24   0.15027
25   0.155098
26   0.185092
27   0.168407
28   0.403838

>  <lowdin_charges>
28
1   -0.448033
2   -0.452052
3   -0.267545
4   -0.156434
5   -0.180225
6   -0.277258
7   -0.134385
8   -0.014931
9   0.187297
10   -0.454311
11   -0.255179
12   -0.206542
13   0.149314
14   0.146549
15   0.159867
16   0.16084
17   0.162785
18   0.153246
19   0.145416
20   0.148043
21   0.144065
22   0.152892
23   0.151678
24   0.155314
25   0.153342
26   0.167704
27   0.162274
28   0.346268

$$$$

