PCCDB-ID:  19526
public computational chemistry database (PCCDB) project, http://pccdb.org

 16 15  0  0  0  0  0  0  0  0999 V2000
    1.1415    1.0279    0.9513 C   0  0  0  0  0  0  0  0  0  0  0  0
    3.4744    1.3959    0.3799 C   0  0  0  0  0  0  0  0  0  0  0  0
    0.9105   -2.5938   -2.0651 C   0  0  0  0  0  0  0  0  0  0  0  0
    2.2739   -0.4485   -0.7313 C   0  0  0  0  0  0  0  0  0  0  0  0
    2.2849    0.5739    0.1609 N   0  0  0  0  0  0  0  0  0  0  0  0
    3.5933   -0.9022   -1.6558 S   0  0  0  0  0  0  0  0  0  0  0  0
    0.6674   -1.2880   -0.8194 S   0  0  0  0  0  0  0  0  0  0  0  0
    0.8910    2.0610    0.6793 H   0  0  0  0  0  0  0  0  0  0  0  0
    1.4012    1.0035    2.0163 H   0  0  0  0  0  0  0  0  0  0  0  0
    0.2629    0.4068    0.7960 H   0  0  0  0  0  0  0  0  0  0  0  0
    3.3029    2.4110   -0.0014 H   0  0  0  0  0  0  0  0  0  0  0  0
    4.3271    0.9573   -0.1324 H   0  0  0  0  0  0  0  0  0  0  0  0
    3.6756    1.4561    1.4559 H   0  0  0  0  0  0  0  0  0  0  0  0
    0.7060   -3.5616   -1.6025 H   0  0  0  0  0  0  0  0  0  0  0  0
    1.9472   -2.5505   -2.4114 H   0  0  0  0  0  0  0  0  0  0  0  0
    0.2263   -2.4200   -2.8983 H   0  0  0  0  0  0  0  0  0  0  0  0
  1  9  1  0  0  0  0
  2 13  1  0  0  0  0
  3 14  1  0  0  0  0
  3  7  1  0  0  0  0
  4  5  1  0  0  0  0
  5  2  1  0  0  0  0
  5  1  1  0  0  0  0
  6  4  2  0  0  0  0
  7  4  1  0  0  0  0
  8  1  1  0  0  0  0
 10  1  1  0  0  0  0
 11  2  1  0  0  0  0
 12  2  1  0  0  0  0
 15  3  1  0  0  0  0
 16  3  1  0  0  0  0
M  END
>  <HBA>
3

>  <HBD>
0

>  <TPSA>
60.63

>  <cid>
19526

>  <dipole>
3.35

>  <excitation_energy_1>
3.743

>  <excitation_energy_2>
4.72

>  <excitation_energy_3>
5.243

>  <excitation_energy_4>
5.334

>  <homo_energy>
-5.75

>  <homo_lumo_gap>
5.094

>  <logP>
1.196

>  <lumo_energy>
-0.656

>  <melting_point>
16.73

>  <molecular_refractivity>
39.62

>  <oscillator_strength_1>
0.0002

>  <oscillator_strength_2>
0.0744

>  <oscillator_strength_3>
0.0132

>  <oscillator_strength_4>
0.1033

>  <open_babel_can_smiles>
CSC(=S)N(C)C

>  <mulliken_charges>
16
1   -0.330811
2   -0.317749
3   -0.609998
4   -0.000707
5   -0.332881
6   -0.249107
7   0.13657
8   0.171838
9   0.171337
10   0.210129
11   0.164501
12   0.218325
13   0.159433
14   0.18832
15   0.232231
16   0.18857

>  <lowdin_charges>
16
1   -0.352527
2   -0.353108
3   -0.551668
4   -0.146809
5   -0.066604
6   -0.226742
7   0.141401
8   0.15896
9   0.158782
10   0.185109
11   0.155598
12   0.193212
13   0.153773
14   0.174536
15   0.201312
16   0.174775

$$$$

