PCCDB-ID:  67334
public computational chemistry database (PCCDB) project, http://pccdb.org

 36 35  0  0  0  0  0  0  0  0999 V2000
    1.3840   -0.2821    0.5896 C   0  0  0  0  0  0  0  0  0  0  0  0
    1.9612    3.0303    0.8938 C   0  0  0  0  0  0  0  0  0  0  0  0
    4.3793    2.4202    1.1685 C   0  0  0  0  0  0  0  0  0  0  0  0
    3.6139    3.6204   -0.8968 C   0  0  0  0  0  0  0  0  0  0  0  0
    2.9454   -3.1219   -0.3384 C   0  0  0  0  0  0  0  0  0  0  0  0
    4.4210   -1.6521   -1.7374 C   0  0  0  0  0  0  0  0  0  0  0  0
    5.3614   -2.8316    0.2670 C   0  0  0  0  0  0  0  0  0  0  0  0
    2.9633    1.2229   -0.6096 C   0  0  0  0  0  0  0  0  0  0  0  0
    3.7900   -0.9187    0.6411 C   0  0  0  0  0  0  0  0  0  0  0  0
    2.6446   -0.0079    0.2262 C   0  0  0  0  0  0  0  0  0  0  0  0
    3.2280    2.5618    0.1558 C   0  0  0  0  0  0  0  0  0  0  0  0
    4.1163   -2.1230   -0.3033 C   0  0  0  0  0  0  0  0  0  0  0  0
    0.5480    0.3379    0.2749 H   0  0  0  0  0  0  0  0  0  0  0  0
    1.1401   -1.1376    1.2149 H   0  0  0  0  0  0  0  0  0  0  0  0
    2.1425    3.9873    1.3984 H   0  0  0  0  0  0  0  0  0  0  0  0
    1.6460    2.3041    1.6500 H   0  0  0  0  0  0  0  0  0  0  0  0
    1.1261    3.1748    0.1968 H   0  0  0  0  0  0  0  0  0  0  0  0
    4.5922    3.3861    1.6431 H   0  0  0  0  0  0  0  0  0  0  0  0
    5.3029    2.0814    0.6825 H   0  0  0  0  0  0  0  0  0  0  0  0
    4.1323    1.7091    1.9642 H   0  0  0  0  0  0  0  0  0  0  0  0
    3.7952    4.5940   -0.4252 H   0  0  0  0  0  0  0  0  0  0  0  0
    2.8157    3.7515   -1.6377 H   0  0  0  0  0  0  0  0  0  0  0  0
    4.5270    3.3341   -1.4335 H   0  0  0  0  0  0  0  0  0  0  0  0
    3.1904   -3.9783   -0.9784 H   0  0  0  0  0  0  0  0  0  0  0  0
    2.0348   -2.6569   -0.7297 H   0  0  0  0  0  0  0  0  0  0  0  0
    2.7220   -3.5082    0.6642 H   0  0  0  0  0  0  0  0  0  0  0  0
    4.7113   -2.5030   -2.3660 H   0  0  0  0  0  0  0  0  0  0  0  0
    5.2475   -0.9305   -1.7572 H   0  0  0  0  0  0  0  0  0  0  0  0
    3.5474   -1.1819   -2.2020 H   0  0  0  0  0  0  0  0  0  0  0  0
    5.6316   -3.6996   -0.3465 H   0  0  0  0  0  0  0  0  0  0  0  0
    5.1840   -3.1874    1.2895 H   0  0  0  0  0  0  0  0  0  0  0  0
    6.2272   -2.1579    0.2928 H   0  0  0  0  0  0  0  0  0  0  0  0
    2.1325    1.4076   -1.3036 H   0  0  0  0  0  0  0  0  0  0  0  0
    3.8451    1.0222   -1.2304 H   0  0  0  0  0  0  0  0  0  0  0  0
    3.5763   -1.3347    1.6346 H   0  0  0  0  0  0  0  0  0  0  0  0
    4.7074   -0.3265    0.7458 H   0  0  0  0  0  0  0  0  0  0  0  0
  1 14  1  0  0  0  0
  2 15  1  0  0  0  0
  2 16  1  0  0  0  0
  3 18  1  0  0  0  0
  3 20  1  0  0  0  0
  4 21  1  0  0  0  0
  4 11  1  0  0  0  0
  5 12  1  0  0  0  0
  5 26  1  0  0  0  0
  6 12  1  0  0  0  0
  7 32  1  0  0  0  0
  7 31  1  0  0  0  0
  8 11  1  0  0  0  0
  8 10  1  0  0  0  0
  9 36  1  0  0  0  0
  9 35  1  0  0  0  0
 10  1  2  0  0  0  0
 10  9  1  0  0  0  0
 11  2  1  0  0  0  0
 11  3  1  0  0  0  0
 12  7  1  0  0  0  0
 12  9  1  0  0  0  0
 13  1  1  0  0  0  0
 17  2  1  0  0  0  0
 19  3  1  0  0  0  0
 22  4  1  0  0  0  0
 23  4  1  0  0  0  0
 24  5  1  0  0  0  0
 25  5  1  0  0  0  0
 27  6  1  0  0  0  0
 28  6  1  0  0  0  0
 29  6  1  0  0  0  0
 30  7  1  0  0  0  0
 33  8  1  0  0  0  0
 34  8  1  0  0  0  0
M  END
>  <HBA>
0

>  <HBD>
0

>  <TPSA>
0.0

>  <cid>
67334

>  <dipole>
0.33

>  <excitation_energy_1>
5.939

>  <excitation_energy_2>
6.073

>  <excitation_energy_3>
6.395

>  <excitation_energy_4>
6.457

>  <homo_energy>
-6.395

>  <homo_lumo_gap>
6.898

>  <logP>
4.415

>  <lumo_energy>
0.503

>  <melting_point>
-10.35

>  <molecular_refractivity>
58.8

>  <oscillator_strength_1>
0.0043

>  <oscillator_strength_2>
0.123

>  <oscillator_strength_3>
0.0023

>  <oscillator_strength_4>
0.0154

>  <open_babel_can_smiles>
C=C(CC(C)(C)C)CC(C)(C)C

>  <mulliken_charges>
36
1   -0.403253
2   -0.443198
3   -0.446927
4   -0.439126
5   -0.443809
6   -0.447307
7   -0.439367
8   -0.338618
9   -0.338536
10   0.226236
11   0.101821
12   0.102954
13   0.133573
14   0.133617
15   0.134903
16   0.150884
17   0.132071
18   0.137011
19   0.134969
20   0.149681
21   0.138277
22   0.137568
23   0.136524
24   0.134967
25   0.151012
26   0.132082
27   0.136926
28   0.135068
29   0.149857
30   0.138274
31   0.137492
32   0.136368
33   0.133896
34   0.135112
35   0.13394
36   0.135057

>  <lowdin_charges>
36
1   -0.364058
2   -0.447519
3   -0.446131
4   -0.442361
5   -0.446823
6   -0.447489
7   -0.441895
8   -0.281073
9   -0.279305
10   0.004223
11   0.018918
12   0.019271
13   0.154455
14   0.154035
15   0.145824
16   0.154913
17   0.144268
18   0.147179
19   0.144241
20   0.152413
21   0.146732
22   0.14692
23   0.145563
24   0.146561
25   0.154437
26   0.143195
27   0.147956
28   0.144465
29   0.152606
30   0.147697
31   0.145332
32   0.145517
33   0.148437
34   0.147273
35   0.147238
36   0.146986

$$$$

