PCCDB-ID:  12993
public computational chemistry database (PCCDB) project, http://pccdb.org

 14 13  0  0  0  0  0  0  0  0999 V2000
    0.8611    0.2038    0.0309 C   0  0  0  0  0  0  0  0  0  0  0  0
    2.3912    0.0669   -0.0705 C   0  0  0  0  0  0  0  0  0  0  0  0
    2.8084   -1.1084   -0.9024 C   0  0  0  0  0  0  0  0  0  0  0  0
    3.5799   -2.1298   -0.4980 C   0  0  0  0  0  0  0  0  0  0  0  0
    3.9164   -3.2370   -1.4037 C   0  0  0  0  0  0  0  0  0  0  0  0
    4.6120   -4.1890   -1.1019 O   0  0  0  0  0  0  0  0  0  0  0  0
    0.5912    1.0879    0.6180 H   0  0  0  0  0  0  0  0  0  0  0  0
    0.4193   -0.6741    0.5141 H   0  0  0  0  0  0  0  0  0  0  0  0
    0.4049    0.3069   -0.9606 H   0  0  0  0  0  0  0  0  0  0  0  0
    2.8312   -0.0101    0.9307 H   0  0  0  0  0  0  0  0  0  0  0  0
    2.7978    0.9823   -0.5261 H   0  0  0  0  0  0  0  0  0  0  0  0
    2.4300   -1.1252   -1.9279 H   0  0  0  0  0  0  0  0  0  0  0  0
    3.9878   -2.1814    0.5099 H   0  0  0  0  0  0  0  0  0  0  0  0
    3.4782   -3.1500   -2.4250 H   0  0  0  0  0  0  0  0  0  0  0  0
  1  8  1  0  0  0  0
  1  7  1  0  0  0  0
  2  1  1  0  0  0  0
  2 10  1  0  0  0  0
  3  4  2  0  0  0  0
  3  2  1  0  0  0  0
  4 13  1  0  0  0  0
  5  6  2  0  0  0  0
  5  4  1  0  0  0  0
  9  1  1  0  0  0  0
 11  2  1  0  0  0  0
 12  3  1  0  0  0  0
 14  5  1  0  0  0  0
M  END
>  <HBA>
1

>  <HBD>
0

>  <TPSA>
17.07

>  <cid>
12993

>  <dipole>
3.99

>  <excitation_energy_1>
3.706

>  <excitation_energy_2>
5.899

>  <excitation_energy_3>
6.512

>  <excitation_energy_4>
6.633

>  <homo_energy>
-6.751

>  <homo_lumo_gap>
5.26

>  <logP>
1.151

>  <lumo_energy>
-1.491

>  <melting_point>
15.62

>  <molecular_refractivity>
25.88

>  <oscillator_strength_1>
0.0002

>  <oscillator_strength_2>
0.5244

>  <oscillator_strength_3>
0.009

>  <oscillator_strength_4>
0.0726

>  <open_babel_can_smiles>
CC/C=C/C=O

>  <mulliken_charges>
14
1   -0.446258
2   -0.30668
3   -0.073371
4   -0.151359
5   0.229773
6   -0.41571
7   0.155424
8   0.159715
9   0.150594
10   0.154633
11   0.15961
12   0.140598
13   0.146777
14   0.096255

>  <lowdin_charges>
14
1   -0.441496
2   -0.270255
3   -0.10385
4   -0.203799
5   0.041465
6   -0.230644
7   0.157187
8   0.156275
9   0.151016
10   0.153213
11   0.159678
12   0.154646
13   0.16566
14   0.110905

$$$$

