PCCDB-ID:  68200
public computational chemistry database (PCCDB) project, http://pccdb.org

 12 11  0  0  0  0  0  0  0  0999 V2000
    0.5313    0.3120    0.3820 C   0  0  0  0  0  0  0  0  0  0  0  0
   -0.2096   -0.7296   -0.4804 C   0  0  0  0  0  0  0  0  0  0  0  0
    1.6443   -0.2075    0.9393 N   0  0  0  0  0  0  0  0  0  0  0  0
   -2.1805   -0.9743   -1.8663 N   0  0  0  0  0  0  0  0  0  0  0  0
   -1.3239   -0.2220   -1.0443 N   0  0  0  0  0  0  0  0  0  0  0  0
    0.1173    1.4580    0.5124 O   0  0  0  0  0  0  0  0  0  0  0  0
    0.1909   -1.8831   -0.6192 O   0  0  0  0  0  0  0  0  0  0  0  0
    1.8739   -1.1742    0.7507 H   0  0  0  0  0  0  0  0  0  0  0  0
    2.2295    0.3627    1.5317 H   0  0  0  0  0  0  0  0  0  0  0  0
   -2.4528   -1.8064   -1.3400 H   0  0  0  0  0  0  0  0  0  0  0  0
   -1.6250   -1.3196   -2.6510 H   0  0  0  0  0  0  0  0  0  0  0  0
   -1.5753    0.7409   -0.8604 H   0  0  0  0  0  0  0  0  0  0  0  0
  1  6  2  0  0  0  0
  1  3  1  0  0  0  0
  2  1  1  0  0  0  0
  3  9  1  0  0  0  0
  4 10  1  0  0  0  0
  4  5  1  0  0  0  0
  5 12  1  0  0  0  0
  5  2  1  0  0  0  0
  7  2  2  0  0  0  0
  8  3  1  0  0  0  0
 11  4  1  0  0  0  0
M  END
>  <HBA>
5

>  <HBD>
3

>  <TPSA>
98.21

>  <cid>
68200

>  <dipole>
1.58

>  <excitation_energy_1>
4.155

>  <excitation_energy_2>
5.636

>  <excitation_energy_3>
5.783

>  <excitation_energy_4>
5.884

>  <homo_energy>
-6.719

>  <homo_lumo_gap>
5.674

>  <logP>
-0.747

>  <lumo_energy>
-1.045

>  <melting_point>
154.55

>  <molecular_refractivity>
20.34

>  <oscillator_strength_1>
0.0001

>  <oscillator_strength_2>
0.0019

>  <oscillator_strength_3>
0.0133

>  <oscillator_strength_4>
0.0001

>  <open_babel_can_smiles>
NNC(=O)C(=O)N

>  <mulliken_charges>
12
1   0.551502
2   0.539316
3   -0.743805
4   -0.552989
5   -0.485603
6   -0.520697
7   -0.536
8   0.369091
9   0.349341
10   0.330051
11   0.329956
12   0.369837

>  <lowdin_charges>
12
1   0.132913
2   0.111699
3   -0.431212
4   -0.447854
5   -0.197361
6   -0.302456
7   -0.316343
8   0.306515
9   0.299591
10   0.269946
11   0.270502
12   0.304061

$$$$

