PCCDB-ID:  62007
public computational chemistry database (PCCDB) project, http://pccdb.org

 28 29  0  0  0  0  0  0  0  0999 V2000
    4.3222   -1.2051    3.6049 C   0  0  0  0  0  0  0  0  0  0  0  0
    3.6375   -0.9534    2.2693 C   0  0  0  0  0  0  0  0  0  0  0  0
    7.1674    5.7668   -0.3218 C   0  0  0  0  0  0  0  0  0  0  0  0
    7.6771    5.0855   -1.4298 C   0  0  0  0  0  0  0  0  0  0  0  0
    6.5198    5.0491    0.6840 C   0  0  0  0  0  0  0  0  0  0  0  0
    7.5407    3.7050   -1.5287 C   0  0  0  0  0  0  0  0  0  0  0  0
    6.3771    3.6655    0.5949 C   0  0  0  0  0  0  0  0  0  0  0  0
    6.4753   -0.7336   -0.7763 C   0  0  0  0  0  0  0  0  0  0  0  0
    7.3510   -0.3474   -1.7308 C   0  0  0  0  0  0  0  0  0  0  0  0
    6.8860    2.9703   -0.5173 C   0  0  0  0  0  0  0  0  0  0  0  0
    6.0902    0.4593   -0.0666 C   0  0  0  0  0  0  0  0  0  0  0  0
    6.7785    1.5150   -0.6618 C   0  0  0  0  0  0  0  0  0  0  0  0
    5.1208    0.4553    1.0410 C   0  0  0  0  0  0  0  0  0  0  0  0
    4.7939    1.3968    1.7435 O   0  0  0  0  0  0  0  0  0  0  0  0
    4.5994   -0.7886    1.2024 O   0  0  0  0  0  0  0  0  0  0  0  0
    7.5417    1.0023   -1.6738 O   0  0  0  0  0  0  0  0  0  0  0  0
    3.5696   -1.4057    4.3762 H   0  0  0  0  0  0  0  0  0  0  0  0
    4.9028   -0.3306    3.9108 H   0  0  0  0  0  0  0  0  0  0  0  0
    4.9902   -2.0706    3.5430 H   0  0  0  0  0  0  0  0  0  0  0  0
    3.0010   -0.0664    2.3112 H   0  0  0  0  0  0  0  0  0  0  0  0
    3.0400   -1.8142    1.9585 H   0  0  0  0  0  0  0  0  0  0  0  0
    7.2742    6.8456   -0.2455 H   0  0  0  0  0  0  0  0  0  0  0  0
    8.1823    5.6312   -2.2223 H   0  0  0  0  0  0  0  0  0  0  0  0
    6.1198    5.5675    1.5513 H   0  0  0  0  0  0  0  0  0  0  0  0
    7.9385    3.1862   -2.3931 H   0  0  0  0  0  0  0  0  0  0  0  0
    5.8659    3.1183    1.3754 H   0  0  0  0  0  0  0  0  0  0  0  0
    6.1232   -1.7322   -0.5707 H   0  0  0  0  0  0  0  0  0  0  0  0
    7.9101   -0.8663   -2.4940 H   0  0  0  0  0  0  0  0  0  0  0  0
  1 18  1  0  0  0  0
  1 17  1  0  0  0  0
  2 20  1  0  0  0  0
  2  1  1  0  0  0  0
  3 22  1  0  0  0  0
  3  5  2  0  0  0  0
  4  3  1  0  0  0  0
  5 24  1  0  0  0  0
  6  4  2  0  0  0  0
  6 10  1  0  0  0  0
  7  5  1  0  0  0  0
  7 26  1  0  0  0  0
  8 27  1  0  0  0  0
  8 11  1  0  0  0  0
  9 16  1  0  0  0  0
  9  8  2  0  0  0  0
 10  7  2  0  0  0  0
 11 13  1  0  0  0  0
 12 10  1  0  0  0  0
 12 11  2  0  0  0  0
 13 15  1  0  0  0  0
 13 14  2  0  0  0  0
 15  2  1  0  0  0  0
 16 12  1  0  0  0  0
 19  1  1  0  0  0  0
 21  2  1  0  0  0  0
 23  4  1  0  0  0  0
 25  6  1  0  0  0  0
 28  9  1  0  0  0  0
M  END
>  <HBA>
3

>  <HBD>
0

>  <TPSA>
39.44

>  <cid>
62007

>  <dipole>
1.62

>  <excitation_energy_1>
4.028

>  <excitation_energy_2>
4.514

>  <excitation_energy_3>
4.828

>  <excitation_energy_4>
5.276

>  <homo_energy>
-5.799

>  <homo_lumo_gap>
4.427

>  <logP>
3.123

>  <lumo_energy>
-1.371

>  <melting_point>
66.1

>  <molecular_refractivity>
60.23

>  <oscillator_strength_1>
0.4638

>  <oscillator_strength_2>
0.0057

>  <oscillator_strength_3>
0.0011

>  <oscillator_strength_4>
0.0196

>  <open_babel_can_smiles>
CCOC(=O)c1ccoc1c1ccccc1

>  <mulliken_charges>
28
1   -0.462473
2   -0.037726
3   -0.12083
4   -0.134019
5   -0.145548
6   -0.162527
7   -0.176836
8   -0.195323
9   0.084319
10   0.055462
11   -0.015645
12   0.270638
13   0.595633
14   -0.503894
15   -0.476647
16   -0.445239
17   0.149701
18   0.177335
19   0.156144
20   0.170928
21   0.151515
22   0.130519
23   0.130516
24   0.133497
25   0.148145
26   0.197494
27   0.161831
28   0.16303

>  <lowdin_charges>
28
1   -0.457185
2   -0.128925
3   -0.148017
4   -0.159217
5   -0.156779
6   -0.152724
7   -0.156284
8   -0.187337
9   -0.077455
10   -0.0188
11   -0.094499
12   0.107877
13   0.208445
14   -0.279349
15   -0.19629
16   -0.089736
17   0.159227
18   0.166559
19   0.155943
20   0.159593
21   0.15262
22   0.156276
23   0.159553
24   0.160251
25   0.167939
26   0.190865
27   0.181185
28   0.176261

$$$$

