PCCDB-ID:  23584
public computational chemistry database (PCCDB) project, http://pccdb.org

 35 35  0  0  0  0  0  0  0  0999 V2000
    4.8138    0.0195    0.8386 C   0  0  0  0  0  0  0  0  0  0  0  0
    9.3245    0.1952    4.1226 C   0  0  0  0  0  0  0  0  0  0  0  0
    3.9459   -3.7140    4.8587 C   0  0  0  0  0  0  0  0  0  0  0  0
    4.8173    0.2816    2.1443 C   0  0  0  0  0  0  0  0  0  0  0  0
    9.0058   -0.9056    3.0948 C   0  0  0  0  0  0  0  0  0  0  0  0
    4.8877   -3.8835    3.6531 C   0  0  0  0  0  0  0  0  0  0  0  0
    5.5524   -0.5071    3.1868 C   0  0  0  0  0  0  0  0  0  0  0  0
    9.0374   -2.9942    4.5126 C   0  0  0  0  0  0  0  0  0  0  0  0
    7.0886   -4.4008    4.7759 C   0  0  0  0  0  0  0  0  0  0  0  0
    8.3205   -2.1176    3.6952 C   0  0  0  0  0  0  0  0  0  0  0  0
    6.3348   -3.5543    3.9631 C   0  0  0  0  0  0  0  0  0  0  0  0
    8.4308   -4.1294    5.0611 C   0  0  0  0  0  0  0  0  0  0  0  0
    6.9657   -2.4077    3.4392 C   0  0  0  0  0  0  0  0  0  0  0  0
    9.1654   -5.0815    5.9303 C   0  0  0  0  0  0  0  0  0  0  0  0
   10.4620   -4.7262    6.1381 O   0  0  0  0  0  0  0  0  0  0  0  0
    8.6919   -6.0856    6.4262 O   0  0  0  0  0  0  0  0  0  0  0  0
    6.2571   -1.5889    2.5785 O   0  0  0  0  0  0  0  0  0  0  0  0
    4.2553    0.6383    0.1422 H   0  0  0  0  0  0  0  0  0  0  0  0
    5.3672   -0.8194    0.4294 H   0  0  0  0  0  0  0  0  0  0  0  0
    9.8288    1.0400    3.6401 H   0  0  0  0  0  0  0  0  0  0  0  0
    9.9799   -0.1797    4.9168 H   0  0  0  0  0  0  0  0  0  0  0  0
    8.4138    0.5739    4.6006 H   0  0  0  0  0  0  0  0  0  0  0  0
    2.9188   -3.9821    4.5864 H   0  0  0  0  0  0  0  0  0  0  0  0
    3.9399   -2.6796    5.2212 H   0  0  0  0  0  0  0  0  0  0  0  0
    4.2506   -4.3536    5.6945 H   0  0  0  0  0  0  0  0  0  0  0  0
    4.2563    1.1286    2.5392 H   0  0  0  0  0  0  0  0  0  0  0  0
    9.9447   -1.2311    2.6280 H   0  0  0  0  0  0  0  0  0  0  0  0
    8.3835   -0.4984    2.2932 H   0  0  0  0  0  0  0  0  0  0  0  0
    4.5452   -3.2616    2.8215 H   0  0  0  0  0  0  0  0  0  0  0  0
    4.8324   -4.9246    3.3092 H   0  0  0  0  0  0  0  0  0  0  0  0
    4.8443   -0.8926    3.9376 H   0  0  0  0  0  0  0  0  0  0  0  0
    6.2568    0.1458    3.7265 H   0  0  0  0  0  0  0  0  0  0  0  0
   10.0849   -2.7977    4.7180 H   0  0  0  0  0  0  0  0  0  0  0  0
    6.6437   -5.2996    5.1930 H   0  0  0  0  0  0  0  0  0  0  0  0
   10.8310   -5.4208    6.7140 H   0  0  0  0  0  0  0  0  0  0  0  0
  1  4  2  0  0  0  0
  2 22  1  0  0  0  0
  2 21  1  0  0  0  0
  3 24  1  0  0  0  0
  3 25  1  0  0  0  0
  4 26  1  0  0  0  0
  4  7  1  0  0  0  0
  5 10  1  0  0  0  0
  5  2  1  0  0  0  0
  6 11  1  0  0  0  0
  6  3  1  0  0  0  0
  7 32  1  0  0  0  0
  7 31  1  0  0  0  0
  8 33  1  0  0  0  0
  8 12  2  0  0  0  0
  9 12  1  0  0  0  0
  9 34  1  0  0  0  0
 10  8  1  0  0  0  0
 11  9  2  0  0  0  0
 12 14  1  0  0  0  0
 13 10  2  0  0  0  0
 13 11  1  0  0  0  0
 14 15  1  0  0  0  0
 14 16  2  0  0  0  0
 15 35  1  0  0  0  0
 17  7  1  0  0  0  0
 17 13  1  0  0  0  0
 18  1  1  0  0  0  0
 19  1  1  0  0  0  0
 20  2  1  0  0  0  0
 23  3  1  0  0  0  0
 27  5  1  0  0  0  0
 28  5  1  0  0  0  0
 29  6  1  0  0  0  0
 30  6  1  0  0  0  0
M  END
>  <HBA>
3

>  <HBD>
1

>  <TPSA>
46.53

>  <cid>
23584

>  <dipole>
2.43

>  <excitation_energy_1>
4.631

>  <excitation_energy_2>
4.943

>  <excitation_energy_3>
5.043

>  <excitation_energy_4>
5.219

>  <homo_energy>
-6.602

>  <homo_lumo_gap>
5.491

>  <logP>
3.074

>  <lumo_energy>
-1.11

>  <melting_point>
87.18

>  <molecular_refractivity>
68.58

>  <oscillator_strength_1>
0.018

>  <oscillator_strength_2>
0.0005

>  <oscillator_strength_3>
0.2777

>  <oscillator_strength_4>
0.0001

>  <open_babel_can_smiles>
C=CCOc1c(CC)cc(cc1CC)C(=O)O

>  <mulliken_charges>
35
1   -0.31868
2   -0.443912
3   -0.444614
4   -0.101722
5   -0.347132
6   -0.347401
7   -0.06198
8   -0.255131
9   -0.252359
10   0.171249
11   0.170736
12   0.096989
13   0.209015
14   0.537426
15   -0.586444
16   -0.479658
17   -0.540007
18   0.14088
19   0.163233
20   0.148217
21   0.15154
22   0.148118
23   0.148168
24   0.147061
25   0.154714
26   0.133532
27   0.151269
28   0.166121
29   0.165171
30   0.153136
31   0.15094
32   0.150206
33   0.153483
34   0.157821
35   0.410014

>  <lowdin_charges>
35
1   -0.332492
2   -0.443154
3   -0.439619
4   -0.167731
5   -0.277148
6   -0.275467
7   -0.122602
8   -0.145688
9   -0.138623
10   -0.020252
11   -0.019902
12   -0.054158
13   0.085979
14   0.197282
15   -0.3669
16   -0.277125
17   -0.224259
18   0.162344
19   0.17015
20   0.15292
21   0.151615
22   0.146407
23   0.151144
24   0.144432
25   0.15295
26   0.158017
27   0.154723
28   0.161922
29   0.161197
30   0.154409
31   0.146346
32   0.146477
33   0.169051
34   0.17461
35   0.363146

$$$$

