PCCDB-ID:  47289
public computational chemistry database (PCCDB) project, http://pccdb.org

 28 28  0  0  0  0  0  0  0  0999 V2000
    4.6098   -4.3428   -0.6440 C   0  0  0  0  0  0  0  0  0  0  0  0
   -0.4191   -1.7639   -7.2541 C   0  0  0  0  0  0  0  0  0  0  0  0
    2.3593   -2.0491   -1.6104 C   0  0  0  0  0  0  0  0  0  0  0  0
   -0.3194   -1.9131   -5.8772 C   0  0  0  0  0  0  0  0  0  0  0  0
    2.4155   -1.8925   -3.1314 C   0  0  0  0  0  0  0  0  0  0  0  0
    0.7509   -1.5290   -7.9829 C   0  0  0  0  0  0  0  0  0  0  0  0
    3.7384   -1.9741   -0.9390 C   0  0  0  0  0  0  0  0  0  0  0  0
    2.0478   -1.5879   -6.1029 C   0  0  0  0  0  0  0  0  0  0  0  0
    0.9424   -1.8240   -5.2720 C   0  0  0  0  0  0  0  0  0  0  0  0
    1.0438   -1.9871   -3.7844 C   0  0  0  0  0  0  0  0  0  0  0  0
    1.9668   -1.4410   -7.4304 N   0  0  0  0  0  0  0  0  0  0  0  0
    5.5962   -2.9150   -2.2547 N   0  0  0  0  0  0  0  0  0  0  0  0
    4.6437   -3.0599   -1.3207 N   0  0  0  0  0  0  0  0  0  0  0  0
    0.0385   -2.1934   -3.1196 O   0  0  0  0  0  0  0  0  0  0  0  0
    5.6190   -1.8249   -2.8225 O   0  0  0  0  0  0  0  0  0  0  0  0
    3.6337   -4.8265   -0.7662 H   0  0  0  0  0  0  0  0  0  0  0  0
    4.8103   -4.2240    0.4281 H   0  0  0  0  0  0  0  0  0  0  0  0
    5.3826   -4.9712   -1.0907 H   0  0  0  0  0  0  0  0  0  0  0  0
   -1.3777   -1.8257   -7.7606 H   0  0  0  0  0  0  0  0  0  0  0  0
    1.8635   -2.9932   -1.3568 H   0  0  0  0  0  0  0  0  0  0  0  0
    1.7289   -1.2604   -1.1833 H   0  0  0  0  0  0  0  0  0  0  0  0
   -1.1871   -2.0961   -5.2512 H   0  0  0  0  0  0  0  0  0  0  0  0
    3.0674   -2.6567   -3.5757 H   0  0  0  0  0  0  0  0  0  0  0  0
    2.8778   -0.9347   -3.4044 H   0  0  0  0  0  0  0  0  0  0  0  0
    0.7098   -1.4057   -9.0640 H   0  0  0  0  0  0  0  0  0  0  0  0
    3.6253   -2.0158    0.1503 H   0  0  0  0  0  0  0  0  0  0  0  0
    4.2489   -1.0441   -1.2033 H   0  0  0  0  0  0  0  0  0  0  0  0
    3.0506   -1.5123   -5.6876 H   0  0  0  0  0  0  0  0  0  0  0  0
  1 17  1  0  0  0  0
  2  4  2  0  0  0  0
  3 20  1  0  0  0  0
  3 21  1  0  0  0  0
  3  7  1  0  0  0  0
  4  9  1  0  0  0  0
  4 22  1  0  0  0  0
  5  3  1  0  0  0  0
  6 11  2  0  0  0  0
  6  2  1  0  0  0  0
  7 26  1  0  0  0  0
  8 28  1  0  0  0  0
  8  9  2  0  0  0  0
  9 10  1  0  0  0  0
 10  5  1  0  0  0  0
 10 14  2  0  0  0  0
 11  8  1  0  0  0  0
 12 13  1  0  0  0  0
 13  7  1  0  0  0  0
 13  1  1  0  0  0  0
 15 12  2  0  0  0  0
 16  1  1  0  0  0  0
 18  1  1  0  0  0  0
 19  2  1  0  0  0  0
 23  5  1  0  0  0  0
 24  5  1  0  0  0  0
 25  6  1  0  0  0  0
 27  7  1  0  0  0  0
M  END
>  <HBA>
5

>  <HBD>
0

>  <TPSA>
62.63

>  <cid>
47289

>  <dipole>
3.18

>  <excitation_energy_1>
3.397

>  <excitation_energy_2>
3.68

>  <excitation_energy_3>
3.927

>  <excitation_energy_4>
4.295

>  <homo_energy>
-6.199

>  <homo_lumo_gap>
4.414

>  <logP>
1.658

>  <lumo_energy>
-1.785

>  <melting_point>
73.41

>  <molecular_refractivity>
56.49

>  <oscillator_strength_1>
0.0009

>  <oscillator_strength_2>
0.0001

>  <oscillator_strength_3>
0.0005

>  <oscillator_strength_4>
0.0003

>  <open_babel_can_smiles>
O=NN(CCCC(=O)c1cccnc1)C

>  <mulliken_charges>
28
1   -0.312155
2   -0.144184
3   -0.255561
4   -0.1212
5   -0.370224
6   0.048982
7   -0.167211
8   -0.012084
9   0.062925
10   0.40384
11   -0.412319
12   0.144978
13   -0.201425
14   -0.468904
15   -0.382791
16   0.170168
17   0.166224
18   0.19323
19   0.146116
20   0.155796
21   0.160542
22   0.174229
23   0.180218
24   0.182707
25   0.151186
26   0.154857
27   0.187784
28   0.164277

>  <lowdin_charges>
28
1   -0.354213
2   -0.173665
3   -0.273628
4   -0.103474
5   -0.31409
6   -0.070317
7   -0.216716
8   -0.082511
9   -0.069288
10   0.163649
11   -0.144508
12   0.051115
13   -0.042514
14   -0.244868
15   -0.279467
16   0.157704
17   0.154607
18   0.178962
19   0.168144
20   0.153736
21   0.161861
22   0.181429
23   0.172286
24   0.172768
25   0.158922
26   0.154341
27   0.172284
28   0.16745

$$$$

