PCCDB-ID:  67258
public computational chemistry database (PCCDB) project, http://pccdb.org

 28 29  0  0  0  0  0  0  0  0999 V2000
    0.5419   -0.0938    0.1017 C   0  0  0  0  0  0  0  0  0  0  0  0
    2.7487   -1.2661   -0.3348 C   0  0  0  0  0  0  0  0  0  0  0  0
    2.7908    1.0559    0.2880 C   0  0  0  0  0  0  0  0  0  0  0  0
    4.1354   -1.2668   -0.4380 C   0  0  0  0  0  0  0  0  0  0  0  0
    4.1818    1.0569    0.2055 C   0  0  0  0  0  0  0  0  0  0  0  0
    8.5419    0.9911   -0.0444 C   0  0  0  0  0  0  0  0  0  0  0  0
    6.9363    1.2172    1.7429 C   0  0  0  0  0  0  0  0  0  0  0  0
    9.4504    1.7641    0.6658 C   0  0  0  0  0  0  0  0  0  0  0  0
    7.8436    1.9778    2.4714 C   0  0  0  0  0  0  0  0  0  0  0  0
    2.0501   -0.1046    0.0267 C   0  0  0  0  0  0  0  0  0  0  0  0
    4.8756   -0.1096   -0.1521 C   0  0  0  0  0  0  0  0  0  0  0  0
    7.2637    0.7184    0.4697 C   0  0  0  0  0  0  0  0  0  0  0  0
    9.1026    2.2619    1.9297 C   0  0  0  0  0  0  0  0  0  0  0  0
    6.3636   -0.1649   -0.3332 C   0  0  0  0  0  0  0  0  0  0  0  0
    9.9511    3.0215    2.6782 O   0  0  0  0  0  0  0  0  0  0  0  0
    6.8438   -0.9462   -1.1507 O   0  0  0  0  0  0  0  0  0  0  0  0
    0.1399   -1.1035    0.2333 H   0  0  0  0  0  0  0  0  0  0  0  0
    0.1035    0.3158   -0.8181 H   0  0  0  0  0  0  0  0  0  0  0  0
    0.1850    0.5249    0.9325 H   0  0  0  0  0  0  0  0  0  0  0  0
    2.1946   -2.1788   -0.5425 H   0  0  0  0  0  0  0  0  0  0  0  0
    2.2709    1.9731    0.5556 H   0  0  0  0  0  0  0  0  0  0  0  0
    4.6702   -2.1615   -0.7403 H   0  0  0  0  0  0  0  0  0  0  0  0
    4.7270    1.9760    0.3957 H   0  0  0  0  0  0  0  0  0  0  0  0
    8.8059    0.5806   -1.0136 H   0  0  0  0  0  0  0  0  0  0  0  0
    5.9714    0.9865    2.1820 H   0  0  0  0  0  0  0  0  0  0  0  0
   10.4320    1.9809    0.2477 H   0  0  0  0  0  0  0  0  0  0  0  0
    7.6007    2.3529    3.4604 H   0  0  0  0  0  0  0  0  0  0  0  0
   10.7878    3.1293    2.1989 H   0  0  0  0  0  0  0  0  0  0  0  0
  1 17  1  0  0  0  0
  1 19  1  0  0  0  0
  2 10  1  0  0  0  0
  3 21  1  0  0  0  0
  4  2  2  0  0  0  0
  4 11  1  0  0  0  0
  5  3  1  0  0  0  0
  5 23  1  0  0  0  0
  6 12  2  0  0  0  0
  6  8  1  0  0  0  0
  7 25  1  0  0  0  0
  7  9  2  0  0  0  0
  8 13  2  0  0  0  0
  9 27  1  0  0  0  0
 10  1  1  0  0  0  0
 10  3  2  0  0  0  0
 11  5  2  0  0  0  0
 12  7  1  0  0  0  0
 13  9  1  0  0  0  0
 13 15  1  0  0  0  0
 14 11  1  0  0  0  0
 14 12  1  0  0  0  0
 16 14  2  0  0  0  0
 18  1  1  0  0  0  0
 20  2  1  0  0  0  0
 22  4  1  0  0  0  0
 24  6  1  0  0  0  0
 26  8  1  0  0  0  0
 28 15  1  0  0  0  0
M  END
>  <HBA>
2

>  <HBD>
1

>  <TPSA>
37.3

>  <cid>
67258

>  <dipole>
2.35

>  <excitation_energy_1>
3.63

>  <excitation_energy_2>
4.299

>  <excitation_energy_3>
4.581

>  <excitation_energy_4>
4.673

>  <homo_energy>
-6.215

>  <homo_lumo_gap>
4.74

>  <logP>
2.932

>  <lumo_energy>
-1.475

>  <melting_point>
109.57

>  <molecular_refractivity>
63.31

>  <oscillator_strength_1>
0.0023

>  <oscillator_strength_2>
0.3585

>  <oscillator_strength_3>
0.0077

>  <oscillator_strength_4>
0.0992

>  <open_babel_can_smiles>
Cc1ccc(cc1)C(=O)c1ccc(cc1)O

>  <mulliken_charges>
28
1   -0.531248
2   -0.186147
3   -0.1866
4   -0.149552
5   -0.177561
6   -0.158147
7   -0.184685
8   -0.198843
9   -0.167414
10   0.184228
11   0.07151
12   0.070328
13   0.360706
14   0.316563
15   -0.633989
16   -0.4762
17   0.159727
18   0.170801
19   0.160933
20   0.128173
21   0.126311
22   0.156414
23   0.146147
24   0.162892
25   0.151671
26   0.126674
27   0.145527
28   0.411783

>  <lowdin_charges>
28
1   -0.443422
2   -0.167868
3   -0.170304
4   -0.129388
5   -0.152272
6   -0.115998
7   -0.138048
8   -0.21242
9   -0.188664
10   0.014922
11   -0.047132
12   -0.065015
13   0.11431
14   0.153432
15   -0.366299
16   -0.258304
17   0.15901
18   0.165794
19   0.161399
20   0.157755
21   0.156892
22   0.174081
23   0.165737
24   0.176521
25   0.168837
26   0.156201
27   0.169465
28   0.360778

$$$$

