PCCDB-ID:  19197
public computational chemistry database (PCCDB) project, http://pccdb.org

 19 19  0  0  0  0  0  0  0  0999 V2000
    0.9975   -0.1201    0.0770 C   0  0  0  0  0  0  0  0  0  0  0  0
    5.2537   -2.4933   -0.0756 C   0  0  0  0  0  0  0  0  0  0  0  0
    6.4329    2.2366   -0.5956 C   0  0  0  0  0  0  0  0  0  0  0  0
    2.4937   -0.1049   -0.0628 C   0  0  0  0  0  0  0  0  0  0  0  0
    4.4687   -1.2134   -0.1349 C   0  0  0  0  0  0  0  0  0  0  0  0
    4.4134    1.0289   -0.3220 C   0  0  0  0  0  0  0  0  0  0  0  0
    3.1379   -1.2869   -0.0166 N   0  0  0  0  0  0  0  0  0  0  0  0
    3.0807    1.0844   -0.2149 N   0  0  0  0  0  0  0  0  0  0  0  0
    5.1637   -0.0756   -0.2913 N   0  0  0  0  0  0  0  0  0  0  0  0
    5.0042    2.2166   -0.4753 O   0  0  0  0  0  0  0  0  0  0  0  0
    0.6214   -1.1437    0.0397 H   0  0  0  0  0  0  0  0  0  0  0  0
    0.5376    0.4815   -0.7131 H   0  0  0  0  0  0  0  0  0  0  0  0
    0.7095    0.3330    1.0333 H   0  0  0  0  0  0  0  0  0  0  0  0
    4.5877   -3.3523   -0.1721 H   0  0  0  0  0  0  0  0  0  0  0  0
    5.7804   -2.5615    0.8845 H   0  0  0  0  0  0  0  0  0  0  0  0
    6.0142   -2.5109   -0.8621 H   0  0  0  0  0  0  0  0  0  0  0  0
    6.6919    3.2904   -0.7048 H   0  0  0  0  0  0  0  0  0  0  0  0
    6.7593    1.6689   -1.4712 H   0  0  0  0  0  0  0  0  0  0  0  0
    6.9064    1.8158    0.2956 H   0  0  0  0  0  0  0  0  0  0  0  0
  1 13  1  0  0  0  0
  2 15  1  0  0  0  0
  3 10  1  0  0  0  0
  3 19  1  0  0  0  0
  4  7  2  0  0  0  0
  4  1  1  0  0  0  0
  5  2  1  0  0  0  0
  5  7  2  0  0  0  0
  6  9  2  0  0  0  0
  6  8  2  0  0  0  0
  8  4  1  0  0  0  0
  9  5  1  0  0  0  0
 10  6  1  0  0  0  0
 11  1  1  0  0  0  0
 12  1  1  0  0  0  0
 14  2  1  0  0  0  0
 16  2  1  0  0  0  0
 17  3  1  0  0  0  0
 18  3  1  0  0  0  0
M  END
>  <HBA>
4

>  <HBD>
0

>  <TPSA>
47.9

>  <cid>
19197

>  <dipole>
1.58

>  <excitation_energy_1>
4.7

>  <excitation_energy_2>
4.822

>  <excitation_energy_3>
5.277

>  <excitation_energy_4>
5.406

>  <homo_energy>
-7.108

>  <homo_lumo_gap>
6.071

>  <logP>
0.497

>  <lumo_energy>
-1.037

>  <melting_point>
64.62

>  <molecular_refractivity>
36.25

>  <oscillator_strength_1>
0.0017

>  <oscillator_strength_2>
0.0044

>  <oscillator_strength_3>
0.0011

>  <oscillator_strength_4>
0.004

>  <open_babel_can_smiles>
CO[C]1=NC(=[N]=C(N=1)C)C

>  <mulliken_charges>
19
1   -0.504513
2   -0.5051
3   -0.208732
4   0.429938
5   0.437587
6   0.660556
7   -0.466588
8   -0.460363
9   -0.495236
10   -0.456498
11   0.175115
12   0.178497
13   0.179039
14   0.178003
15   0.177563
16   0.174181
17   0.168907
18   0.168785
19   0.168859

>  <lowdin_charges>
19
1   -0.447407
2   -0.447307
3   -0.272595
4   0.123467
5   0.124573
6   0.168797
7   -0.206859
8   -0.1868
9   -0.217347
10   -0.159042
11   0.169326
12   0.175981
13   0.176033
14   0.172456
15   0.175019
16   0.172704
17   0.160807
18   0.159048
19   0.159147

$$$$

