PCCDB-ID:  44786
public computational chemistry database (PCCDB) project, http://pccdb.org

 31 30  0  0  1  0  0  0  0  0999 V2000
    5.1509    1.8359    1.5699 C   0  0  0  0  0  0  0  0  0  0  0  0
    5.5759    3.1659   -1.5962 C   0  0  0  0  0  0  0  0  0  0  0  0
    5.7908    0.9247   -2.7183 C   0  0  0  0  0  0  0  0  0  0  0  0
    3.6605    2.2285   -2.9122 C   0  0  0  0  0  0  0  0  0  0  0  0
    4.9104   -0.6237    0.9327 C   0  0  0  0  0  0  0  0  0  0  0  0
    4.2344    1.1637   -0.7230 C   0  0  0  0  0  0  0  0  0  0  0  0
    5.4956   -2.4983    2.4536 C   0  0  0  0  0  0  0  0  0  0  0  0
    5.2126    0.8043    0.4303 C   0  0  1  0  0  0  0  0  0  0  0  0
    5.8563   -1.1220    2.0350 C   0  0  1  0  0  0  0  0  0  0  0  0
    4.8294    1.8716   -1.9723 C   0  0  0  0  0  0  0  0  0  0  0  0
    5.2420   -3.5781    2.7966 N   0  0  0  0  0  0  0  0  0  0  0  0
    7.1836   -1.0814    1.5277 O   0  0  0  0  0  0  0  0  0  0  0  0
    5.9252    1.6598    2.3254 H   0  0  0  0  0  0  0  0  0  0  0  0
    4.1740    1.8109    2.0710 H   0  0  0  0  0  0  0  0  0  0  0  0
    5.2979    2.8513    1.1900 H   0  0  0  0  0  0  0  0  0  0  0  0
    5.9464    3.6710   -2.4967 H   0  0  0  0  0  0  0  0  0  0  0  0
    6.4415    2.9664   -0.9548 H   0  0  0  0  0  0  0  0  0  0  0  0
    4.9177    3.8685   -1.0702 H   0  0  0  0  0  0  0  0  0  0  0  0
    6.1894    1.4080   -3.6186 H   0  0  0  0  0  0  0  0  0  0  0  0
    5.2769    0.0078   -3.0329 H   0  0  0  0  0  0  0  0  0  0  0  0
    6.6451    0.6337   -2.0968 H   0  0  0  0  0  0  0  0  0  0  0  0
    4.0254    2.7036   -3.8310 H   0  0  0  0  0  0  0  0  0  0  0  0
    2.9615    2.9242   -2.4316 H   0  0  0  0  0  0  0  0  0  0  0  0
    3.0961    1.3334   -3.2017 H   0  0  0  0  0  0  0  0  0  0  0  0
    4.9780   -1.3278    0.0951 H   0  0  0  0  0  0  0  0  0  0  0  0
    3.8829   -0.6792    1.3169 H   0  0  0  0  0  0  0  0  0  0  0  0
    3.4273    1.7915   -0.3176 H   0  0  0  0  0  0  0  0  0  0  0  0
    3.7420    0.2478   -1.0793 H   0  0  0  0  0  0  0  0  0  0  0  0
    6.2370    0.7921    0.0419 H   0  0  0  0  0  0  0  0  0  0  0  0
    5.7576   -0.4824    2.9249 H   0  0  0  0  0  0  0  0  0  0  0  0
    7.7900   -1.3744    2.2264 H   0  0  0  0  0  0  0  0  0  0  0  0
  1 14  1  0  0  0  0
  1 13  1  0  0  0  0
  2 18  1  0  0  0  0
  2 17  1  0  0  0  0
  3 21  1  0  0  0  0
  3 10  1  0  0  0  0
  4 23  1  0  0  0  0
  4 10  1  0  0  0  0
  5 26  1  0  0  0  0
  5  9  1  0  0  0  0
  6 27  1  0  0  0  0
  6  8  1  0  0  0  0
  7 11  3  0  0  0  0
  8 29  1  6  0  0  0
  8  5  1  0  0  0  0
  8  1  1  0  0  0  0
  9  7  1  0  0  0  0
  9 30  1  1  0  0  0
 10  2  1  0  0  0  0
 10  6  1  0  0  0  0
 12  9  1  0  0  0  0
 12 31  1  0  0  0  0
 15  1  1  0  0  0  0
 16  2  1  0  0  0  0
 19  3  1  0  0  0  0
 20  3  1  0  0  0  0
 22  4  1  0  0  0  0
 24  4  1  0  0  0  0
 25  5  1  0  0  0  0
 28  6  1  0  0  0  0
M  END
>  <HBA>
2

>  <HBD>
1

>  <TPSA>
44.02

>  <cid>
44786

>  <dipole>
3.3

>  <excitation_energy_1>
6.743

>  <excitation_energy_2>
7.026

>  <excitation_energy_3>
7.389

>  <excitation_energy_4>
7.451

>  <homo_energy>
-8.139

>  <homo_lumo_gap>
8.427

>  <logP>
2.333

>  <lumo_energy>
0.288

>  <melting_point>
41.99

>  <molecular_refractivity>
50.83

>  <oscillator_strength_1>
0.009

>  <oscillator_strength_2>
0.0001

>  <oscillator_strength_3>
0.0149

>  <oscillator_strength_4>
0.0052

>  <open_babel_can_smiles>
C[C@H](CC(C)(C)C)C[C@@H](C#N)O

>  <mulliken_charges>
31
1   -0.473448
2   -0.446172
3   -0.447846
4   -0.441963
5   -0.288157
6   -0.270098
7   0.330127
8   -0.066019
9   0.074364
10   0.095119
11   -0.472086
12   -0.605172
13   0.144259
14   0.140372
15   0.156851
16   0.139333
17   0.144384
18   0.137616
19   0.139679
20   0.138147
21   0.14818
22   0.138807
23   0.137654
24   0.13871
25   0.164621
26   0.151941
27   0.127812
28   0.128786
29   0.157271
30   0.170044
31   0.406884

>  <lowdin_charges>
31
1   -0.450896
2   -0.447524
3   -0.446789
4   -0.443625
5   -0.275528
6   -0.27714
7   -0.036962
8   -0.127494
9   0.001516
10   0.015362
11   -0.117519
12   -0.441047
13   0.147659
14   0.144783
15   0.15604
16   0.149018
17   0.148835
18   0.14697
19   0.14873
20   0.14698
21   0.150311
22   0.147643
23   0.147166
24   0.147286
25   0.161503
26   0.154573
27   0.142495
28   0.142579
29   0.150446
30   0.158242
31   0.35639

$$$$

