PCCDB-ID:  635
public computational chemistry database (PCCDB) project, http://pccdb.org

 24 24  0  0  1  0  0  0  0  0999 V2000
    3.1567   -1.1579    3.2936 C   0  0  0  0  0  0  0  0  0  0  0  0
    0.4246    0.1010    1.5292 C   0  0  0  0  0  0  0  0  0  0  0  0
    2.8208   -0.8342    1.8226 C   0  0  2  0  0  0  0  0  0  0  0  0
    1.8597    0.4010    1.9337 C   0  0  2  0  0  0  0  0  0  0  0  0
    3.0106    0.1862    3.9819 C   0  0  1  0  0  0  0  0  0  0  0  0
    2.3074   -1.9148    1.0755 O   0  0  0  0  0  0  0  0  0  0  0  0
    4.1842    0.9240    3.7774 O   0  0  0  0  0  0  0  0  0  0  0  0
   -0.4166   -2.0575    4.4565 O   0  0  0  0  0  0  0  0  0  0  0  0
   -0.6774    0.5065    4.1977 O   0  0  0  0  0  0  0  0  0  0  0  0
   -2.5179   -1.0616    3.2906 O   0  0  0  0  0  0  0  0  0  0  0  0
   -0.0642   -1.0380    2.2677 O   0  0  0  0  0  0  0  0  0  0  0  0
    1.8896    0.8118    3.3259 O   0  0  0  0  0  0  0  0  0  0  0  0
   -1.0741   -0.8937    3.5352 P   0  0  0  0  0  0  0  0  0  0  0  0
    4.1552   -1.5811    3.4192 H   0  0  0  0  0  0  0  0  0  0  0  0
    2.4170   -1.8569    3.6985 H   0  0  0  0  0  0  0  0  0  0  0  0
    0.3969   -0.1759    0.4730 H   0  0  0  0  0  0  0  0  0  0  0  0
   -0.2175    0.9727    1.6851 H   0  0  0  0  0  0  0  0  0  0  0  0
    3.7271   -0.5290    1.2953 H   0  0  0  0  0  0  0  0  0  0  0  0
    2.2192    1.2363    1.3202 H   0  0  0  0  0  0  0  0  0  0  0  0
    2.7355    0.1406    5.0421 H   0  0  0  0  0  0  0  0  0  0  0  0
    1.4996   -2.2205    1.5246 H   0  0  0  0  0  0  0  0  0  0  0  0
    4.0460    1.8110    4.1477 H   0  0  0  0  0  0  0  0  0  0  0  0
   -1.1277   -2.5829    4.8595 H   0  0  0  0  0  0  0  0  0  0  0  0
    0.2842    0.7117    4.0815 H   0  0  0  0  0  0  0  0  0  0  0  0
  1 14  1  0  0  0  0
  1 15  1  0  0  0  0
  1  5  1  0  0  0  0
  2 17  1  0  0  0  0
  2  4  1  0  0  0  0
  2 11  1  0  0  0  0
  3 18  1  6  0  0  0
  3  4  1  0  0  0  0
  3  1  1  0  0  0  0
  4 19  1  6  0  0  0
  4 12  1  0  0  0  0
  5 20  1  1  0  0  0
  6 21  1  0  0  0  0
  6  3  1  0  0  0  0
  7  5  1  0  0  0  0
  7 22  1  0  0  0  0
  8 23  1  0  0  0  0
 10 13  2  0  0  0  0
 11 13  1  0  0  0  0
 12  5  1  0  0  0  0
 13  9  1  0  0  0  0
 13  8  1  0  0  0  0
 16  2  1  0  0  0  0
 24  9  1  0  0  0  0
M  END
>  <HBA>
7

>  <HBD>
4

>  <TPSA>
126.26

>  <cid>
635

>  <dipole>
4.05

>  <excitation_energy_1>
6.612

>  <excitation_energy_2>
6.789

>  <excitation_energy_3>
6.957

>  <excitation_energy_4>
6.982

>  <homo_energy>
-7.508

>  <homo_lumo_gap>
8.417

>  <logP>
-1.436

>  <lumo_energy>
0.909

>  <melting_point>
104.69

>  <molecular_refractivity>
39.52

>  <oscillator_strength_1>
0.005

>  <oscillator_strength_2>
0.0074

>  <oscillator_strength_3>
0.0086

>  <oscillator_strength_4>
0.0172

>  <open_babel_can_smiles>
O[C@@H]1C[C@H]([C@H](O1)COP(=O)(O)O)O

>  <mulliken_charges>
24
1   -0.324857
2   -0.105539
3   0.110998
4   0.124987
5   0.311934
6   -0.634649
7   -0.602916
8   -0.654581
9   -0.674682
10   -0.527266
11   -0.557814
12   -0.545643
13   1.15959
14   0.177187
15   0.176861
16   0.19001
17   0.184308
18   0.165584
19   0.153673
20   0.146054
21   0.419947
22   0.401508
23   0.443512
24   0.461792

>  <lowdin_charges>
24
1   -0.311935
2   -0.14055
3   -0.013545
4   -0.030083
5   0.092876
6   -0.448597
7   -0.438301
8   -0.575796
9   -0.576606
10   -0.571925
11   -0.407486
12   -0.292898
13   1.11173
14   0.171757
15   0.170267
16   0.17282
17   0.170323
18   0.160203
19   0.155609
20   0.139634
21   0.350289
22   0.35173
23   0.38834
24   0.372144

$$$$

