PCCDB-ID:  7144
public computational chemistry database (PCCDB) project, http://pccdb.org

 20 20  0  0  0  0  0  0  0  0999 V2000
    1.0615   -0.0157    0.3008 C   0  0  0  0  0  0  0  0  0  0  0  0
    6.3850   -2.5019    0.3471 C   0  0  0  0  0  0  0  0  0  0  0  0
    3.1920    1.3424    0.0642 C   0  0  0  0  0  0  0  0  0  0  0  0
    4.5708    1.4376   -0.1366 C   0  0  0  0  0  0  0  0  0  0  0  0
    3.3342   -1.0408   -0.1490 C   0  0  0  0  0  0  0  0  0  0  0  0
    2.5489    0.1018    0.0582 C   0  0  0  0  0  0  0  0  0  0  0  0
    5.3398    0.2946   -0.3530 C   0  0  0  0  0  0  0  0  0  0  0  0
    4.7105   -0.9656   -0.3510 C   0  0  0  0  0  0  0  0  0  0  0  0
    6.6915    0.3384   -0.5843 O   0  0  0  0  0  0  0  0  0  0  0  0
    5.4016   -2.1230   -0.6184 O   0  0  0  0  0  0  0  0  0  0  0  0
    0.5461    0.9249    0.0796 H   0  0  0  0  0  0  0  0  0  0  0  0
    0.8416   -0.2705    1.3464 H   0  0  0  0  0  0  0  0  0  0  0  0
    0.6138   -0.7978   -0.3227 H   0  0  0  0  0  0  0  0  0  0  0  0
    6.7995   -3.4503   -0.0029 H   0  0  0  0  0  0  0  0  0  0  0  0
    5.9257   -2.6497    1.3341 H   0  0  0  0  0  0  0  0  0  0  0  0
    7.1840   -1.7583    0.4233 H   0  0  0  0  0  0  0  0  0  0  0  0
    2.6152    2.2504    0.2217 H   0  0  0  0  0  0  0  0  0  0  0  0
    5.0543    2.4138   -0.1406 H   0  0  0  0  0  0  0  0  0  0  0  0
    2.8820   -2.0290   -0.1683 H   0  0  0  0  0  0  0  0  0  0  0  0
    6.9743    1.2659   -0.5714 H   0  0  0  0  0  0  0  0  0  0  0  0
  1 12  1  0  0  0  0
  2 16  1  0  0  0  0
  2 15  1  0  0  0  0
  3 17  1  0  0  0  0
  4  3  2  0  0  0  0
  5  6  2  0  0  0  0
  6  3  1  0  0  0  0
  6  1  1  0  0  0  0
  7  8  2  0  0  0  0
  7  4  1  0  0  0  0
  8  5  1  0  0  0  0
  9 20  1  0  0  0  0
  9  7  1  0  0  0  0
 10  8  1  0  0  0  0
 10  2  1  0  0  0  0
 11  1  1  0  0  0  0
 13  1  1  0  0  0  0
 14  2  1  0  0  0  0
 18  4  1  0  0  0  0
 19  5  1  0  0  0  0
M  END
>  <HBA>
2

>  <HBD>
1

>  <TPSA>
29.46

>  <cid>
7144

>  <dipole>
2.08

>  <excitation_energy_1>
4.873

>  <excitation_energy_2>
4.947

>  <excitation_energy_3>
5.514

>  <excitation_energy_4>
5.583

>  <homo_energy>
-5.655

>  <homo_lumo_gap>
5.815

>  <logP>
1.709

>  <lumo_energy>
0.161

>  <melting_point>
54.24

>  <molecular_refractivity>
39.92

>  <oscillator_strength_1>
0.0467

>  <oscillator_strength_2>
0.0005

>  <oscillator_strength_3>
0.0329

>  <oscillator_strength_4>
0.0004

>  <open_babel_can_smiles>
COc1cc(C)ccc1O

>  <mulliken_charges>
20
1   -0.529039
2   -0.212897
3   -0.186954
4   -0.198154
5   -0.232898
6   0.17402
7   0.310272
8   0.333177
9   -0.644418
10   -0.52104
11   0.152985
12   0.161712
13   0.158112
14   0.15714
15   0.13685
16   0.167762
17   0.120048
18   0.116706
19   0.128657
20   0.407958

>  <lowdin_charges>
20
1   -0.440974
2   -0.276407
3   -0.170207
4   -0.209148
5   -0.178596
6   -0.011933
7   0.075175
8   0.069203
9   -0.379069
10   -0.223583
11   0.156046
12   0.157826
13   0.159402
14   0.155364
15   0.136793
16   0.152614
17   0.155469
18   0.152136
19   0.163221
20   0.356669

$$$$

