PCCDB-ID:  8393
public computational chemistry database (PCCDB) project, http://pccdb.org

 32 32  0  0  0  0  0  0  0  0999 V2000
    0.7089    2.2088    1.8682 C   0  0  0  0  0  0  0  0  0  0  0  0
    2.8854    2.7822    0.6720 C   0  0  0  0  0  0  0  0  0  0  0  0
    4.4415   -0.7497    4.3132 C   0  0  0  0  0  0  0  0  0  0  0  0
    0.2245   -1.3325   -2.1000 C   0  0  0  0  0  0  0  0  0  0  0  0
    1.2124   -3.5730   -2.4632 C   0  0  0  0  0  0  0  0  0  0  0  0
    3.1976   -1.5022    2.1330 C   0  0  0  0  0  0  0  0  0  0  0  0
    1.8484    1.6961    0.9788 C   0  0  0  0  0  0  0  0  0  0  0  0
    3.6179   -0.5348    3.0794 C   0  0  0  0  0  0  0  0  0  0  0  0
    2.4826   -0.7659    1.2097 C   0  0  0  0  0  0  0  0  0  0  0  0
    1.9407   -2.2833   -0.5501 C   0  0  0  0  0  0  0  0  0  0  0  0
    3.1928    0.6881    2.7609 N   0  0  0  0  0  0  0  0  0  0  0  0
    1.1017   -2.3906   -1.6210 N   0  0  0  0  0  0  0  0  0  0  0  0
    2.4976    0.5374    1.6009 N   0  0  0  0  0  0  0  0  0  0  0  0
    2.7221   -3.1328   -0.1743 O   0  0  0  0  0  0  0  0  0  0  0  0
    1.7705   -1.0610    0.0754 O   0  0  0  0  0  0  0  0  0  0  0  0
    0.2086    3.0603    1.3932 H   0  0  0  0  0  0  0  0  0  0  0  0
    1.1026    2.5291    2.8372 H   0  0  0  0  0  0  0  0  0  0  0  0
   -0.0352    1.4241    2.0418 H   0  0  0  0  0  0  0  0  0  0  0  0
    2.4034    3.6342    0.1799 H   0  0  0  0  0  0  0  0  0  0  0  0
    3.6690    2.3979    0.0109 H   0  0  0  0  0  0  0  0  0  0  0  0
    3.3559    3.1292    1.5960 H   0  0  0  0  0  0  0  0  0  0  0  0
    3.9576   -1.4528    5.0022 H   0  0  0  0  0  0  0  0  0  0  0  0
    4.5823    0.2015    4.8341 H   0  0  0  0  0  0  0  0  0  0  0  0
    5.4292   -1.1605    4.0709 H   0  0  0  0  0  0  0  0  0  0  0  0
    0.6497   -0.8276   -2.9792 H   0  0  0  0  0  0  0  0  0  0  0  0
    0.0520   -0.5975   -1.3171 H   0  0  0  0  0  0  0  0  0  0  0  0
   -0.7383   -1.7692   -2.3895 H   0  0  0  0  0  0  0  0  0  0  0  0
    1.6295   -3.3150   -3.4463 H   0  0  0  0  0  0  0  0  0  0  0  0
    0.2214   -4.0180   -2.6138 H   0  0  0  0  0  0  0  0  0  0  0  0
    1.8657   -4.2942   -1.9751 H   0  0  0  0  0  0  0  0  0  0  0  0
    3.3949   -2.5598    2.1083 H   0  0  0  0  0  0  0  0  0  0  0  0
    1.4332    1.3225    0.0383 H   0  0  0  0  0  0  0  0  0  0  0  0
  1 18  1  0  0  0  0
  1 17  1  0  0  0  0
  2  7  1  0  0  0  0
  2 21  1  0  0  0  0
  3 23  1  0  0  0  0
  3 22  1  0  0  0  0
  4 12  1  0  0  0  0
  4 26  1  0  0  0  0
  5 30  1  0  0  0  0
  5 12  1  0  0  0  0
  6  8  1  0  0  0  0
  7 13  1  0  0  0  0
  7  1  1  0  0  0  0
  8  3  1  0  0  0  0
  9 13  1  0  0  0  0
  9  6  2  0  0  0  0
 10 14  2  0  0  0  0
 10 15  1  0  0  0  0
 11  8  2  0  0  0  0
 12 10  1  0  0  0  0
 13 11  1  0  0  0  0
 15  9  1  0  0  0  0
 16  1  1  0  0  0  0
 19  2  1  0  0  0  0
 20  2  1  0  0  0  0
 24  3  1  0  0  0  0
 25  4  1  0  0  0  0
 27  4  1  0  0  0  0
 28  5  1  0  0  0  0
 29  5  1  0  0  0  0
 31  6  1  0  0  0  0
 32  7  1  0  0  0  0
M  END
>  <HBA>
5

>  <HBD>
0

>  <TPSA>
47.36

>  <cid>
8393

>  <dipole>
4.46

>  <excitation_energy_1>
5.293

>  <excitation_energy_2>
5.57

>  <excitation_energy_3>
5.801

>  <excitation_energy_4>
5.848

>  <homo_energy>
-5.867

>  <homo_lumo_gap>
6.582

>  <logP>
1.833

>  <lumo_energy>
0.716

>  <melting_point>
63.64

>  <molecular_refractivity>
57.66

>  <oscillator_strength_1>
0.0016

>  <oscillator_strength_2>
0.0001

>  <oscillator_strength_3>
0.1646

>  <oscillator_strength_4>
0.0776

>  <open_babel_can_smiles>
O=C(N(C)C)Oc1cc(nn1C(C)C)C

>  <mulliken_charges>
32
1   -0.438689
2   -0.439788
3   -0.52356
4   -0.316511
5   -0.31935
6   -0.287825
7   0.015585
8   0.327533
9   0.594289
10   0.805408
11   -0.360112
12   -0.448904
13   -0.32106
14   -0.49973
15   -0.556583
16   0.141377
17   0.176562
18   0.149643
19   0.14045
20   0.152088
21   0.179088
22   0.156793
23   0.167109
24   0.158836
25   0.159424
26   0.194452
27   0.160496
28   0.157398
29   0.157128
30   0.207552
31   0.159927
32   0.150974

>  <lowdin_charges>
32
1   -0.4497
2   -0.449228
3   -0.443722
4   -0.35259
5   -0.350032
6   -0.268094
7   -0.049728
8   0.012412
9   0.111541
10   0.222902
11   -0.18139
12   -0.105679
13   0.020356
14   -0.292687
15   -0.163297
16   0.151936
17   0.165946
18   0.154907
19   0.151686
20   0.15688
21   0.167767
22   0.159876
23   0.166531
24   0.159222
25   0.150385
26   0.175702
27   0.155285
28   0.149273
29   0.15193
30   0.187618
31   0.181501
32   0.152492

$$$$

