PCCDB-ID:  33712
public computational chemistry database (PCCDB) project, http://pccdb.org

 27 27  0  0  0  0  0  0  0  0999 V2000
    0.8497   -0.5236   -0.2913 C   0  0  0  0  0  0  0  0  0  0  0  0
    1.5199    2.6189   -1.5132 C   0  0  0  0  0  0  0  0  0  0  0  0
    0.9496    2.3928    0.9566 C   0  0  0  0  0  0  0  0  0  0  0  0
    2.9624    3.6291    0.2303 C   0  0  0  0  0  0  0  0  0  0  0  0
    4.5570   -1.2484   -0.0112 C   0  0  0  0  0  0  0  0  0  0  0  0
    5.1256    0.0133    0.1142 C   0  0  0  0  0  0  0  0  0  0  0  0
    3.1760   -1.3453   -0.1541 C   0  0  0  0  0  0  0  0  0  0  0  0
    4.3061    1.1412    0.0920 C   0  0  0  0  0  0  0  0  0  0  0  0
    2.3338   -0.2227   -0.1715 C   0  0  0  0  0  0  0  0  0  0  0  0
    2.9087    1.0731   -0.0484 C   0  0  0  0  0  0  0  0  0  0  0  0
    2.0906    2.3922   -0.0903 C   0  0  0  0  0  0  0  0  0  0  0  0
    0.7062   -1.5289   -0.7003 H   0  0  0  0  0  0  0  0  0  0  0  0
    0.3098    0.1693   -0.9389 H   0  0  0  0  0  0  0  0  0  0  0  0
    0.3537   -0.5037    0.6873 H   0  0  0  0  0  0  0  0  0  0  0  0
    0.9588    3.5612   -1.5498 H   0  0  0  0  0  0  0  0  0  0  0  0
    0.8458    1.8221   -1.8369 H   0  0  0  0  0  0  0  0  0  0  0  0
    2.3325    2.6819   -2.2458 H   0  0  0  0  0  0  0  0  0  0  0  0
    0.4722    3.3798    0.9839 H   0  0  0  0  0  0  0  0  0  0  0  0
    1.3429    2.1843    1.9584 H   0  0  0  0  0  0  0  0  0  0  0  0
    0.1682    1.6626    0.7435 H   0  0  0  0  0  0  0  0  0  0  0  0
    2.3321    4.5251    0.2162 H   0  0  0  0  0  0  0  0  0  0  0  0
    3.7576    3.7823   -0.5070 H   0  0  0  0  0  0  0  0  0  0  0  0
    3.4210    3.5621    1.2233 H   0  0  0  0  0  0  0  0  0  0  0  0
    5.1721   -2.1443   -0.0018 H   0  0  0  0  0  0  0  0  0  0  0  0
    6.2003    0.1308    0.2277 H   0  0  0  0  0  0  0  0  0  0  0  0
    2.7226   -2.3290   -0.2558 H   0  0  0  0  0  0  0  0  0  0  0  0
    4.7867    2.1062    0.1897 H   0  0  0  0  0  0  0  0  0  0  0  0
  1  9  1  0  0  0  0
  1 14  1  0  0  0  0
  2 11  1  0  0  0  0
  3 18  1  0  0  0  0
  3 19  1  0  0  0  0
  4 23  1  0  0  0  0
  5 24  1  0  0  0  0
  5  6  2  0  0  0  0
  6 25  1  0  0  0  0
  7  5  1  0  0  0  0
  8  6  1  0  0  0  0
  8 27  1  0  0  0  0
  9  7  2  0  0  0  0
  9 10  1  0  0  0  0
 10  8  2  0  0  0  0
 11 10  1  0  0  0  0
 11  4  1  0  0  0  0
 11  3  1  0  0  0  0
 12  1  1  0  0  0  0
 13  1  1  0  0  0  0
 15  2  1  0  0  0  0
 16  2  1  0  0  0  0
 17  2  1  0  0  0  0
 20  3  1  0  0  0  0
 21  4  1  0  0  0  0
 22  4  1  0  0  0  0
 26  7  1  0  0  0  0
M  END
>  <HBA>
0

>  <HBD>
0

>  <TPSA>
0.0

>  <cid>
33712

>  <dipole>
0.46

>  <excitation_energy_1>
5.222

>  <excitation_energy_2>
5.788

>  <excitation_energy_3>
5.887

>  <excitation_energy_4>
6.081

>  <homo_energy>
-6.251

>  <homo_lumo_gap>
6.395

>  <logP>
3.292

>  <lumo_energy>
0.144

>  <melting_point>
16.94

>  <molecular_refractivity>
50.68

>  <oscillator_strength_1>
0.0003

>  <oscillator_strength_2>
0.0257

>  <oscillator_strength_3>
0.0005

>  <oscillator_strength_4>
0.0018

>  <open_babel_can_smiles>
Cc1ccccc1C(C)(C)C

>  <mulliken_charges>
27
1   -0.543398
2   -0.444427
3   -0.449666
4   -0.457137
5   -0.124043
6   -0.131952
7   -0.182181
8   -0.193387
9   0.122996
10   0.114175
11   0.023695
12   0.153024
13   0.161097
14   0.16688
15   0.137636
16   0.147499
17   0.14763
18   0.136579
19   0.146461
20   0.147206
21   0.139704
22   0.145745
23   0.147024
24   0.124343
25   0.123278
26   0.117373
27   0.123846

>  <lowdin_charges>
27
1   -0.448736
2   -0.443103
3   -0.444769
4   -0.444506
5   -0.16184
6   -0.160401
7   -0.166875
8   -0.172406
9   -0.005162
10   -0.011092
11   0.01859
12   0.155246
13   0.157323
14   0.160124
15   0.146447
16   0.150002
17   0.152456
18   0.146384
19   0.150913
20   0.15371
21   0.149428
22   0.148989
23   0.149519
24   0.156084
25   0.152816
26   0.1513
27   0.15956

$$$$

