PCCDB-ID:  31189
public computational chemistry database (PCCDB) project, http://pccdb.org

 28 29  0  0  0  0  0  0  0  0999 V2000
    3.6232   -0.0370    1.0675 C   0  0  0  0  0  0  0  0  0  0  0  0
    2.4389   -0.0478    0.0844 C   0  0  0  0  0  0  0  0  0  0  0  0
    4.1762   -0.5663   -6.3203 C   0  0  0  0  0  0  0  0  0  0  0  0
    4.8703    0.6680   -5.7340 C   0  0  0  0  0  0  0  0  0  0  0  0
    4.1417   -1.6973   -5.2848 C   0  0  0  0  0  0  0  0  0  0  0  0
    4.0817    1.2020   -4.5312 C   0  0  0  0  0  0  0  0  0  0  0  0
    2.8348   -1.8146   -1.6973 C   0  0  0  0  0  0  0  0  0  0  0  0
    3.2441   -2.1885   -2.9731 C   0  0  0  0  0  0  0  0  0  0  0  0
    3.2607    0.4757   -2.2571 C   0  0  0  0  0  0  0  0  0  0  0  0
    2.8382   -0.4657   -1.3155 C   0  0  0  0  0  0  0  0  0  0  0  0
    3.6719   -1.2410   -3.9133 C   0  0  0  0  0  0  0  0  0  0  0  0
    3.6750    0.1165   -3.5469 C   0  0  0  0  0  0  0  0  0  0  0  0
    3.3001    0.2687    2.0696 H   0  0  0  0  0  0  0  0  0  0  0  0
    4.4025    0.6576    0.7341 H   0  0  0  0  0  0  0  0  0  0  0  0
    4.0777   -1.0313    1.1450 H   0  0  0  0  0  0  0  0  0  0  0  0
    1.9873    0.9521    0.0553 H   0  0  0  0  0  0  0  0  0  0  0  0
    1.6645   -0.7274    0.4630 H   0  0  0  0  0  0  0  0  0  0  0  0
    4.6875   -0.9073   -7.2287 H   0  0  0  0  0  0  0  0  0  0  0  0
    3.1509   -0.2998   -6.6140 H   0  0  0  0  0  0  0  0  0  0  0  0
    4.9743    1.4552   -6.4907 H   0  0  0  0  0  0  0  0  0  0  0  0
    5.8876    0.3947   -5.4193 H   0  0  0  0  0  0  0  0  0  0  0  0
    5.1534   -2.1221   -5.1914 H   0  0  0  0  0  0  0  0  0  0  0  0
    3.5056   -2.5196   -5.6374 H   0  0  0  0  0  0  0  0  0  0  0  0
    3.1734    1.7049   -4.8981 H   0  0  0  0  0  0  0  0  0  0  0  0
    4.6589    1.9757   -4.0085 H   0  0  0  0  0  0  0  0  0  0  0  0
    2.5026   -2.5736   -0.9917 H   0  0  0  0  0  0  0  0  0  0  0  0
    3.2310   -3.2404   -3.2533 H   0  0  0  0  0  0  0  0  0  0  0  0
    3.2651    1.5307   -1.9834 H   0  0  0  0  0  0  0  0  0  0  0  0
  1 15  1  0  0  0  0
  1 13  1  0  0  0  0
  2 17  1  0  0  0  0
  2  1  1  0  0  0  0
  3  4  1  0  0  0  0
  3  5  1  0  0  0  0
  4 21  1  0  0  0  0
  4  6  1  0  0  0  0
  5 22  1  0  0  0  0
  5 11  1  0  0  0  0
  6 25  1  0  0  0  0
  6 12  1  0  0  0  0
  7 10  1  0  0  0  0
  7 26  1  0  0  0  0
  8  7  2  0  0  0  0
  9 28  1  0  0  0  0
  9 10  2  0  0  0  0
 10  2  1  0  0  0  0
 11 12  2  0  0  0  0
 11  8  1  0  0  0  0
 12  9  1  0  0  0  0
 14  1  1  0  0  0  0
 16  2  1  0  0  0  0
 18  3  1  0  0  0  0
 19  3  1  0  0  0  0
 20  4  1  0  0  0  0
 23  5  1  0  0  0  0
 24  6  1  0  0  0  0
 27  8  1  0  0  0  0
M  END
>  <HBA>
0

>  <HBD>
0

>  <TPSA>
0.0

>  <cid>
31189

>  <dipole>
0.37

>  <excitation_energy_1>
5.037

>  <excitation_energy_2>
5.531

>  <excitation_energy_3>
5.641

>  <excitation_energy_4>
5.903

>  <homo_energy>
-6.014

>  <homo_lumo_gap>
6.18

>  <logP>
3.128

>  <lumo_energy>
0.166

>  <melting_point>
37.41

>  <molecular_refractivity>
53.65

>  <oscillator_strength_1>
0.0122

>  <oscillator_strength_2>
0.0491

>  <oscillator_strength_3>
0.0132

>  <oscillator_strength_4>
0.0588

>  <open_babel_can_smiles>
CCc1ccc2c(c1)CCCC2

>  <mulliken_charges>
28
1   -0.432173
2   -0.339829
3   -0.264702
4   -0.265532
5   -0.340154
6   -0.339964
7   -0.184762
8   -0.187554
9   -0.251806
10   0.184364
11   0.118191
12   0.126775
13   0.140835
14   0.147938
15   0.148166
16   0.140502
17   0.140268
18   0.131588
19   0.135939
20   0.131718
21   0.135966
22   0.148178
23   0.142517
24   0.148926
25   0.142924
26   0.116166
27   0.116037
28   0.109479

>  <lowdin_charges>
28
1   -0.440305
2   -0.271115
3   -0.275566
4   -0.276223
5   -0.276575
6   -0.277915
7   -0.173553
8   -0.162187
9   -0.174647
10   -0.003233
11   -0.019984
12   -0.015053
13   0.147186
14   0.150721
15   0.1495
16   0.146751
17   0.148447
18   0.144957
19   0.140166
20   0.145348
21   0.140165
22   0.148971
23   0.151301
24   0.150736
25   0.151923
26   0.152944
27   0.150138
28   0.147103

$$$$

