PCCDB-ID:  12508
public computational chemistry database (PCCDB) project, http://pccdb.org

 20 19  0  0  0  0  0  0  0  0999 V2000
    1.5246   -1.0715   -0.5951 C   0  0  0  0  0  0  0  0  0  0  0  0
    3.9753    3.8128   -1.2787 C   0  0  0  0  0  0  0  0  0  0  0  0
    6.0060    2.6231   -2.2597 C   0  0  0  0  0  0  0  0  0  0  0  0
    2.8975   -0.4084   -0.5086 C   0  0  0  0  0  0  0  0  0  0  0  0
    4.5006    2.5957   -2.0337 C   0  0  0  0  0  0  0  0  0  0  0  0
    3.0078    0.8336   -1.3753 C   0  0  0  0  0  0  0  0  0  0  0  0
    2.1255    1.2718   -2.0834 O   0  0  0  0  0  0  0  0  0  0  0  0
    4.2345    1.3905   -1.2570 O   0  0  0  0  0  0  0  0  0  0  0  0
    1.4904   -1.9646    0.0375 H   0  0  0  0  0  0  0  0  0  0  0  0
    1.2958   -1.3667   -1.6233 H   0  0  0  0  0  0  0  0  0  0  0  0
    0.7364   -0.3864   -0.2686 H   0  0  0  0  0  0  0  0  0  0  0  0
    4.1964    4.7289   -1.8381 H   0  0  0  0  0  0  0  0  0  0  0  0
    4.4486    3.8883   -0.2931 H   0  0  0  0  0  0  0  0  0  0  0  0
    2.8918    3.7450   -1.1483 H   0  0  0  0  0  0  0  0  0  0  0  0
    6.2794    3.4920   -2.8683 H   0  0  0  0  0  0  0  0  0  0  0  0
    6.3379    1.7190   -2.7799 H   0  0  0  0  0  0  0  0  0  0  0  0
    6.5416    2.6882   -1.3061 H   0  0  0  0  0  0  0  0  0  0  0  0
    3.6961   -1.0978   -0.8118 H   0  0  0  0  0  0  0  0  0  0  0  0
    3.1393   -0.1176    0.5218 H   0  0  0  0  0  0  0  0  0  0  0  0
    3.9687    2.4959   -2.9843 H   0  0  0  0  0  0  0  0  0  0  0  0
  1  4  1  0  0  0  0
  1 11  1  0  0  0  0
  1  9  1  0  0  0  0
  2 14  1  0  0  0  0
  2 13  1  0  0  0  0
  3  5  1  0  0  0  0
  3 17  1  0  0  0  0
  4 19  1  0  0  0  0
  5  2  1  0  0  0  0
  5  8  1  0  0  0  0
  6  8  1  0  0  0  0
  6  4  1  0  0  0  0
  7  6  2  0  0  0  0
 10  1  1  0  0  0  0
 12  2  1  0  0  0  0
 15  3  1  0  0  0  0
 16  3  1  0  0  0  0
 18  4  1  0  0  0  0
 20  5  1  0  0  0  0
M  END
>  <HBA>
2

>  <HBD>
0

>  <TPSA>
26.3

>  <cid>
12508

>  <dipole>
1.76

>  <excitation_energy_1>
5.826

>  <excitation_energy_2>
6.891

>  <excitation_energy_3>
7.392

>  <excitation_energy_4>
7.571

>  <homo_energy>
-7.217

>  <homo_lumo_gap>
7.725

>  <logP>
1.348

>  <lumo_energy>
0.509

>  <melting_point>
-14.12

>  <molecular_refractivity>
32.24

>  <oscillator_strength_1>
0.0008

>  <oscillator_strength_2>
0.0276

>  <oscillator_strength_3>
0.0055

>  <oscillator_strength_4>
0.0111

>  <open_babel_can_smiles>
CCC(=O)OC(C)C

>  <mulliken_charges>
20
1   -0.434593
2   -0.458458
3   -0.451125
4   -0.352936
5   0.131109
6   0.625636
7   -0.480844
8   -0.474797
9   0.141536
10   0.162177
11   0.160986
12   0.147129
13   0.149539
14   0.173221
15   0.148637
16   0.156492
17   0.154408
18   0.170811
19   0.170569
20   0.160502

>  <lowdin_charges>
20
1   -0.439723
2   -0.452695
3   -0.448549
4   -0.301291
5   0.012706
6   0.199011
7   -0.271306
8   -0.201285
9   0.151371
10   0.158519
11   0.15965
12   0.156747
13   0.152591
14   0.164069
15   0.157091
16   0.158641
17   0.155507
18   0.16873
19   0.166797
20   0.153418

$$$$

