PCCDB-ID:  22924
public computational chemistry database (PCCDB) project, http://pccdb.org

 32 34  0  0  1  0  0  0  0  0999 V2000
    1.1182    0.1911    0.1871 C   0  0  0  0  0  0  0  0  0  0  0  0
    1.6295   -1.9282    5.5724 C   0  0  0  0  0  0  0  0  0  0  0  0
    2.6447   -2.7148    5.0243 C   0  0  0  0  0  0  0  0  0  0  0  0
    1.3593   -0.6765    5.0187 C   0  0  0  0  0  0  0  0  0  0  0  0
    3.9285    3.6416    1.2162 C   0  0  0  0  0  0  0  0  0  0  0  0
    4.6169    3.2379    2.3655 C   0  0  0  0  0  0  0  0  0  0  0  0
    3.3771   -2.2494    3.9326 C   0  0  0  0  0  0  0  0  0  0  0  0
    2.0948   -0.2147    3.9250 C   0  0  0  0  0  0  0  0  0  0  0  0
    3.2675    2.7013    0.4223 C   0  0  0  0  0  0  0  0  0  0  0  0
    4.6502    1.8901    2.7305 C   0  0  0  0  0  0  0  0  0  0  0  0
    3.3144   -1.0511    0.7748 C   0  0  0  0  0  0  0  0  0  0  0  0
    2.6546    0.1763    0.0796 C   0  0  2  0  0  0  0  0  0  0  0  0
    3.1122   -0.9960    3.3612 C   0  0  0  0  0  0  0  0  0  0  0  0
    3.3042    1.3534    0.7843 C   0  0  0  0  0  0  0  0  0  0  0  0
    3.9941    0.9507    1.9333 C   0  0  0  0  0  0  0  0  0  0  0  0
    3.9120   -0.5519    2.1382 C   0  0  2  0  0  0  0  0  0  0  0  0
    0.6857   -0.6675   -0.3405 H   0  0  0  0  0  0  0  0  0  0  0  0
    0.6998    1.1033   -0.2542 H   0  0  0  0  0  0  0  0  0  0  0  0
    0.7940    0.1432    1.2323 H   0  0  0  0  0  0  0  0  0  0  0  0
    1.0598   -2.2852    6.4263 H   0  0  0  0  0  0  0  0  0  0  0  0
    2.8712   -3.6888    5.4510 H   0  0  0  0  0  0  0  0  0  0  0  0
    0.5769   -0.0513    5.4416 H   0  0  0  0  0  0  0  0  0  0  0  0
    3.9116    4.6922    0.9376 H   0  0  0  0  0  0  0  0  0  0  0  0
    5.1313    3.9763    2.9751 H   0  0  0  0  0  0  0  0  0  0  0  0
    4.1701   -2.8669    3.5149 H   0  0  0  0  0  0  0  0  0  0  0  0
    1.8843    0.7682    3.5138 H   0  0  0  0  0  0  0  0  0  0  0  0
    2.7367    3.0190   -0.4727 H   0  0  0  0  0  0  0  0  0  0  0  0
    5.1833    1.5775    3.6254 H   0  0  0  0  0  0  0  0  0  0  0  0
    4.1305   -1.4294    0.1491 H   0  0  0  0  0  0  0  0  0  0  0  0
    2.6085   -1.8746    0.9190 H   0  0  0  0  0  0  0  0  0  0  0  0
    2.9130    0.1834   -0.9880 H   0  0  0  0  0  0  0  0  0  0  0  0
    4.9207   -0.9690    2.2558 H   0  0  0  0  0  0  0  0  0  0  0  0
  1 19  1  0  0  0  0
  2 20  1  0  0  0  0
  3 21  1  0  0  0  0
  3  2  1  0  0  0  0
  4 22  1  0  0  0  0
  4  2  2  0  0  0  0
  5  6  2  0  0  0  0
  6 10  1  0  0  0  0
  6 24  1  0  0  0  0
  7  3  2  0  0  0  0
  8  4  1  0  0  0  0
  9 14  2  0  0  0  0
  9  5  1  0  0  0  0
 10 28  1  0  0  0  0
 11 30  1  0  0  0  0
 11 16  1  0  0  0  0
 12 31  1  6  0  0  0
 12  1  1  0  0  0  0
 12 11  1  0  0  0  0
 12 14  1  0  0  0  0
 13  8  2  0  0  0  0
 13  7  1  0  0  0  0
 14 15  1  0  0  0  0
 15 16  1  0  0  0  0
 15 10  2  0  0  0  0
 16 32  1  1  0  0  0
 16 13  1  0  0  0  0
 17  1  1  0  0  0  0
 18  1  1  0  0  0  0
 23  5  1  0  0  0  0
 25  7  1  0  0  0  0
 26  8  1  0  0  0  0
 27  9  1  0  0  0  0
 29 11  1  0  0  0  0
M  END
>  <HBA>
0

>  <HBD>
0

>  <TPSA>
0.0

>  <cid>
22924

>  <dipole>
0.36

>  <excitation_energy_1>
5.095

>  <excitation_energy_2>
5.218

>  <excitation_energy_3>
5.494

>  <excitation_energy_4>
5.547

>  <homo_energy>
-6.264

>  <homo_lumo_gap>
6.139

>  <logP>
4.326

>  <lumo_energy>
-0.125

>  <melting_point>
63.63

>  <molecular_refractivity>
68.36

>  <oscillator_strength_1>
0.0083

>  <oscillator_strength_2>
0.0148

>  <oscillator_strength_3>
0.0049

>  <oscillator_strength_4>
0.0125

>  <open_babel_can_smiles>
C[C@@H]1C[C@@H](c2c1cccc2)c1ccccc1

>  <mulliken_charges>
32
1   -0.447066
2   -0.130414
3   -0.128343
4   -0.132679
5   -0.130603
6   -0.135423
7   -0.182747
8   -0.188034
9   -0.19481
10   -0.182835
11   -0.290722
12   -0.156411
13   0.174857
14   0.126953
15   0.1083
16   -0.263608
17   0.142843
18   0.142437
19   0.154959
20   0.126367
21   0.126846
22   0.127872
23   0.125779
24   0.126459
25   0.120541
26   0.139884
27   0.123246
28   0.129874
29   0.142109
30   0.14808
31   0.134775
32   0.141516

>  <lowdin_charges>
32
1   -0.444635
2   -0.162721
3   -0.154988
4   -0.15615
5   -0.156776
6   -0.161726
7   -0.170405
8   -0.170104
9   -0.165826
10   -0.160528
11   -0.277003
12   -0.122448
13   -0.002179
14   -0.013975
15   -0.016455
16   -0.126114
17   0.149525
18   0.149182
19   0.152483
20   0.156831
21   0.155801
22   0.157621
23   0.154636
24   0.157828
25   0.15383
26   0.162443
27   0.154979
28   0.158494
29   0.149955
30   0.152155
31   0.143639
32   0.152632

$$$$

