PCCDB-ID:  62058
public computational chemistry database (PCCDB) project, http://pccdb.org

 13 12  0  0  0  0  0  0  0  0999 V2000
    1.6368    0.0945    0.0277 C   0  0  0  0  0  0  0  0  0  0  0  0
    0.6842    1.0516   -0.6790 C   0  0  0  0  0  0  0  0  0  0  0  0
    0.3178   -2.9692   -0.3812 N   0  0  0  0  0  0  0  0  0  0  0  0
    1.8294   -1.1680   -0.7068 N   0  0  0  0  0  0  0  0  0  0  0  0
    0.9942   -2.0578   -0.4909 N   0  0  0  0  0  0  0  0  0  0  0  0
   -1.6467    1.1695   -1.2462 N   0  0  0  0  0  0  0  0  0  0  0  0
   -1.3216    2.1868   -1.8231 O   0  0  0  0  0  0  0  0  0  0  0  0
   -2.7258    0.6439   -1.1455 O   0  0  0  0  0  0  0  0  0  0  0  0
   -0.6246    0.4563   -0.5610 O   0  0  0  0  0  0  0  0  0  0  0  0
    1.3012   -0.0816    1.0573 H   0  0  0  0  0  0  0  0  0  0  0  0
    2.6208    0.5694    0.0685 H   0  0  0  0  0  0  0  0  0  0  0  0
    0.9499    1.1657   -1.7328 H   0  0  0  0  0  0  0  0  0  0  0  0
    0.6911    2.0340   -0.1952 H   0  0  0  0  0  0  0  0  0  0  0  0
  1 11  1  0  0  0  0
  1 10  1  0  0  0  0
  2  9  1  0  0  0  0
  2 13  1  0  0  0  0
  2  1  1  0  0  0  0
  4  5  2  0  0  0  0
  4  1  1  0  0  0  0
  5  3  2  0  0  0  0
  6  8  2  0  0  0  0
  6  9  1  0  0  0  0
  7  6  2  0  0  0  0
 12  2  1  0  0  0  0
M  RAD  1   3   2
M  END
>  <HBA>
1

>  <HBD>
0

>  <TPSA>
104.8

>  <cid>
62058

>  <dipole>
3.66

>  <excitation_energy_1>
4.374

>  <excitation_energy_2>
4.409

>  <excitation_energy_3>
4.791

>  <excitation_energy_4>
5.601

>  <homo_energy>
-7.309

>  <homo_lumo_gap>
5.306

>  <logP>
0.481

>  <lumo_energy>
-2.003

>  <melting_point>
47.17

>  <molecular_refractivity>
25.74

>  <oscillator_strength_1>
0.0001

>  <oscillator_strength_2>
0.0002

>  <oscillator_strength_3>
0.0

>  <oscillator_strength_4>
0.0008

>  <open_babel_can_smiles>
[N]=[N]=NCCON(=O)=O

>  <mulliken_charges>
13
1   -0.179814
2   -0.027685
3   -0.244008
4   -0.360501
5   0.417585
6   0.75607
7   -0.363498
8   -0.344357
9   -0.387445
10   0.18105
11   0.189114
12   0.189859
13   0.173632

>  <lowdin_charges>
13
1   -0.193483
2   -0.14264
3   -0.0916
4   -0.219231
5   0.195342
6   0.375454
7   -0.212819
8   -0.182179
9   -0.193599
10   0.160525
11   0.17609
12   0.166836
13   0.161305

$$$$

