PCCDB-ID:  7415
public computational chemistry database (PCCDB) project, http://pccdb.org

 26 26  0  0  0  0  0  0  0  0999 V2000
    0.9487    0.0224    0.0835 C   0  0  0  0  0  0  0  0  0  0  0  0
    2.8039   -1.4308   -0.2856 C   0  0  0  0  0  0  0  0  0  0  0  0
    4.6389    2.4823    1.4540 C   0  0  0  0  0  0  0  0  0  0  0  0
    5.1098    1.1157    0.9313 C   0  0  0  0  0  0  0  0  0  0  0  0
    3.1200    2.6570    1.2949 C   0  0  0  0  0  0  0  0  0  0  0  0
    4.6254    0.8735   -0.5072 C   0  0  0  0  0  0  0  0  0  0  0  0
    2.6793    2.3838   -0.1517 C   0  0  0  0  0  0  0  0  0  0  0  0
    3.0879    0.9725   -0.6291 C   0  0  0  0  0  0  0  0  0  0  0  0
    2.4034   -0.0915    0.1362 N   0  0  0  0  0  0  0  0  0  0  0  0
    0.5038   -0.8246    0.6157 H   0  0  0  0  0  0  0  0  0  0  0  0
    0.5470    0.0216   -0.9500 H   0  0  0  0  0  0  0  0  0  0  0  0
    0.6072    0.9338    0.5799 H   0  0  0  0  0  0  0  0  0  0  0  0
    2.2238   -2.1717    0.2740 H   0  0  0  0  0  0  0  0  0  0  0  0
    3.8590   -1.6122   -0.0681 H   0  0  0  0  0  0  0  0  0  0  0  0
    2.6383   -1.6164   -1.3662 H   0  0  0  0  0  0  0  0  0  0  0  0
    5.1511    3.2771    0.8903 H   0  0  0  0  0  0  0  0  0  0  0  0
    4.9298    2.6094    2.5048 H   0  0  0  0  0  0  0  0  0  0  0  0
    4.7197    0.3225    1.5814 H   0  0  0  0  0  0  0  0  0  0  0  0
    6.2051    1.0534    0.9713 H   0  0  0  0  0  0  0  0  0  0  0  0
    2.8237    3.6720    1.5901 H   0  0  0  0  0  0  0  0  0  0  0  0
    2.6007    1.9628    1.9676 H   0  0  0  0  0  0  0  0  0  0  0  0
    4.9972   -0.0842   -0.8861 H   0  0  0  0  0  0  0  0  0  0  0  0
    5.0519    1.6405   -1.1687 H   0  0  0  0  0  0  0  0  0  0  0  0
    3.1662    3.1058   -0.8220 H   0  0  0  0  0  0  0  0  0  0  0  0
    1.6034    2.5504   -0.2682 H   0  0  0  0  0  0  0  0  0  0  0  0
    2.8200    0.8818   -1.7034 H   0  0  0  0  0  0  0  0  0  0  0  0
  1  9  1  0  0  0  0
  1 12  1  0  0  0  0
  1 10  1  0  0  0  0
  2 14  1  0  0  0  0
  2  9  1  0  0  0  0
  2 13  1  0  0  0  0
  3 17  1  0  0  0  0
  4 19  1  0  0  0  0
  4  3  1  0  0  0  0
  4 18  1  0  0  0  0
  5  3  1  0  0  0  0
  5 20  1  0  0  0  0
  5 21  1  0  0  0  0
  6  4  1  0  0  0  0
  7  5  1  0  0  0  0
  8  6  1  0  0  0  0
  8  7  1  0  0  0  0
  8  9  1  0  0  0  0
 11  1  1  0  0  0  0
 15  2  1  0  0  0  0
 16  3  1  0  0  0  0
 22  6  1  0  0  0  0
 23  6  1  0  0  0  0
 24  7  1  0  0  0  0
 25  7  1  0  0  0  0
 26  8  1  0  0  0  0
M  END
>  <HBA>
1

>  <HBD>
0

>  <TPSA>
3.24

>  <cid>
7415

>  <dipole>
0.49

>  <excitation_energy_1>
5.188

>  <excitation_energy_2>
5.567

>  <excitation_energy_3>
5.624

>  <excitation_energy_4>
5.741

>  <homo_energy>
-5.608

>  <homo_lumo_gap>
7.763

>  <logP>
1.881

>  <lumo_energy>
2.155

>  <melting_point>
-2.68

>  <molecular_refractivity>
41.35

>  <oscillator_strength_1>
0.0337

>  <oscillator_strength_2>
0.0048

>  <oscillator_strength_3>
0.0035

>  <oscillator_strength_4>
0.0449

>  <open_babel_can_smiles>
CN(C1CCCCC1)C

>  <mulliken_charges>
26
1   -0.299013
2   -0.299294
3   -0.257161
4   -0.251958
5   -0.252007
6   -0.286391
7   -0.287419
8   0.074358
9   -0.376925
10   0.1443
11   0.115294
12   0.154966
13   0.144372
14   0.154954
15   0.115291
16   0.122134
17   0.127461
18   0.14638
19   0.124156
20   0.124225
21   0.146263
22   0.133366
23   0.128189
24   0.128427
25   0.133617
26   0.092415

>  <lowdin_charges>
26
1   -0.358501
2   -0.356081
3   -0.275778
4   -0.278092
5   -0.280023
6   -0.286835
7   -0.285194
8   -0.058984
9   -0.189736
10   0.14999
11   0.118648
12   0.151233
13   0.150392
14   0.149339
15   0.117663
16   0.135169
17   0.140469
18   0.147843
19   0.138296
20   0.139753
21   0.148122
22   0.143553
23   0.143155
24   0.143485
25   0.141854
26   0.11026

$$$$

