PCCDB-ID:  11609
public computational chemistry database (PCCDB) project, http://pccdb.org

 26 25  0  0  0  0  0  0  0  0999 V2000
    1.7766    1.4188   -0.4397 C   0  0  0  0  0  0  0  0  0  0  0  0
    3.2003    0.8758   -0.2786 C   0  0  0  0  0  0  0  0  0  0  0  0
    3.3181   -0.1946    0.8138 C   0  0  0  0  0  0  0  0  0  0  0  0
    4.7419   -0.7412    0.9818 C   0  0  0  0  0  0  0  0  0  0  0  0
    4.8456   -1.8251    2.0628 C   0  0  0  0  0  0  0  0  0  0  0  0
    6.2671   -2.3410    2.2241 C   0  0  0  0  0  0  0  0  0  0  0  0
    7.3670   -3.9856    3.5729 C   0  0  0  0  0  0  0  0  0  0  0  0
    7.4832   -4.9160    4.4449 N   0  0  0  0  0  0  0  0  0  0  0  0
    8.4761   -3.5688    2.9113 O   0  0  0  0  0  0  0  0  0  0  0  0
    6.2276   -5.2284    5.0371 O   0  0  0  0  0  0  0  0  0  0  0  0
    6.2340   -3.3671    3.2412 O   0  0  0  0  0  0  0  0  0  0  0  0
    1.7258    2.1798   -1.2267 H   0  0  0  0  0  0  0  0  0  0  0  0
    1.4196    1.8770    0.4908 H   0  0  0  0  0  0  0  0  0  0  0  0
    1.0748    0.6184   -0.7042 H   0  0  0  0  0  0  0  0  0  0  0  0
    3.8847    1.7048   -0.0486 H   0  0  0  0  0  0  0  0  0  0  0  0
    3.5426    0.4560   -1.2352 H   0  0  0  0  0  0  0  0  0  0  0  0
    2.6352   -1.0255    0.5838 H   0  0  0  0  0  0  0  0  0  0  0  0
    2.9751    0.2240    1.7714 H   0  0  0  0  0  0  0  0  0  0  0  0
    5.4214    0.0889    1.2254 H   0  0  0  0  0  0  0  0  0  0  0  0
    5.0893   -1.1472    0.0203 H   0  0  0  0  0  0  0  0  0  0  0  0
    4.1904   -2.6699    1.8153 H   0  0  0  0  0  0  0  0  0  0  0  0
    4.5008   -1.4321    3.0277 H   0  0  0  0  0  0  0  0  0  0  0  0
    6.9504   -1.5428    2.5349 H   0  0  0  0  0  0  0  0  0  0  0  0
    6.6471   -2.7679    1.2891 H   0  0  0  0  0  0  0  0  0  0  0  0
    9.2081   -4.1092    3.2575 H   0  0  0  0  0  0  0  0  0  0  0  0
    6.4857   -5.9304    5.6531 H   0  0  0  0  0  0  0  0  0  0  0  0
  1  2  1  0  0  0  0
  1 13  1  0  0  0  0
  2 15  1  0  0  0  0
  2  3  1  0  0  0  0
  3  4  1  0  0  0  0
  3 18  1  0  0  0  0
  4 19  1  0  0  0  0
  4  5  1  0  0  0  0
  5  6  1  0  0  0  0
  5 22  1  0  0  0  0
  6 23  1  0  0  0  0
  6 11  1  0  0  0  0
  7  8  2  0  0  0  0
  8 10  1  0  0  0  0
  9 25  1  0  0  0  0
  9  7  1  0  0  0  0
 10 26  1  0  0  0  0
 11  7  1  0  0  0  0
 12  1  1  0  0  0  0
 14  1  1  0  0  0  0
 16  2  1  0  0  0  0
 17  3  1  0  0  0  0
 20  4  1  0  0  0  0
 21  5  1  0  0  0  0
 24  6  1  0  0  0  0
M  END
>  <HBA>
4

>  <HBD>
2

>  <TPSA>
58.56

>  <cid>
11609

>  <dipole>
1.67

>  <excitation_energy_1>
5.16

>  <excitation_energy_2>
5.484

>  <excitation_energy_3>
6.031

>  <excitation_energy_4>
6.26

>  <homo_energy>
-5.641

>  <homo_lumo_gap>
7.285

>  <logP>
2.073

>  <lumo_energy>
1.644

>  <melting_point>
76.63

>  <molecular_refractivity>
40.97

>  <oscillator_strength_1>
0.0013

>  <oscillator_strength_2>
0.0006

>  <oscillator_strength_3>
0.0

>  <oscillator_strength_4>
0.0001

>  <open_babel_can_smiles>
CCCCCCO/C(=N\O)/O

>  <mulliken_charges>
26
1   -0.441973
2   -0.248088
3   -0.245529
4   -0.265954
5   -0.278866
6   -0.027648
7   0.782097
8   -0.354588
9   -0.609011
10   -0.513324
11   -0.465171
12   0.14299
13   0.142669
14   0.142745
15   0.131037
16   0.131117
17   0.131405
18   0.131302
19   0.132134
20   0.132345
21   0.153273
22   0.152453
23   0.154573
24   0.153994
25   0.425304
26   0.410716

>  <lowdin_charges>
26
1   -0.44591
2   -0.272931
3   -0.27369
4   -0.275417
5   -0.280542
6   -0.120254
7   0.171291
8   -0.182304
9   -0.369296
10   -0.392046
11   -0.173694
12   0.150559
13   0.147278
14   0.147832
15   0.139847
16   0.139166
17   0.140539
18   0.139783
19   0.140467
20   0.139828
21   0.153335
22   0.152073
23   0.149068
24   0.148041
25   0.374029
26   0.352951

$$$$

