PCCDB-ID:  21503
public computational chemistry database (PCCDB) project, http://pccdb.org

 46 45  0  0  0  0  0  0  0  0999 V2000
    4.1924   -3.5561    7.1316 C   0  0  0  0  0  0  0  0  0  0  0  0
   12.6064   -5.5962    1.5892 C   0  0  0  0  0  0  0  0  0  0  0  0
    6.6557    1.1401   -0.3100 C   0  0  0  0  0  0  0  0  0  0  0  0
    4.6501   -4.0177    5.7427 C   0  0  0  0  0  0  0  0  0  0  0  0
   11.2355   -4.9130    1.5565 C   0  0  0  0  0  0  0  0  0  0  0  0
    4.7433   -2.8963    4.6934 C   0  0  0  0  0  0  0  0  0  0  0  0
   11.0777   -3.9260    0.3926 C   0  0  0  0  0  0  0  0  0  0  0  0
    5.8380   -1.8539    4.9727 C   0  0  0  0  0  0  0  0  0  0  0  0
    9.7068   -3.2395    0.3547 C   0  0  0  0  0  0  0  0  0  0  0  0
    5.9020   -0.7054    3.9531 C   0  0  0  0  0  0  0  0  0  0  0  0
    9.5532   -2.2580   -0.8136 C   0  0  0  0  0  0  0  0  0  0  0  0
    6.3153   -1.1395    2.5511 C   0  0  0  0  0  0  0  0  0  0  0  0
    8.1835   -1.5915   -0.8857 C   0  0  0  0  0  0  0  0  0  0  0  0
    6.7089   -0.2021    0.4056 C   0  0  0  0  0  0  0  0  0  0  0  0
    6.4527    0.0364    1.7550 O   0  0  0  0  0  0  0  0  0  0  0  0
    7.9914   -0.8092    0.2840 O   0  0  0  0  0  0  0  0  0  0  0  0
    4.0986   -4.4067    7.8165 H   0  0  0  0  0  0  0  0  0  0  0  0
    3.2143   -3.0615    7.0796 H   0  0  0  0  0  0  0  0  0  0  0  0
    4.8971   -2.8492    7.5833 H   0  0  0  0  0  0  0  0  0  0  0  0
   12.6877   -6.2926    2.4317 H   0  0  0  0  0  0  0  0  0  0  0  0
   13.4140   -4.8601    1.6864 H   0  0  0  0  0  0  0  0  0  0  0  0
   12.7879   -6.1646    0.6685 H   0  0  0  0  0  0  0  0  0  0  0  0
    6.8698    1.0210   -1.3769 H   0  0  0  0  0  0  0  0  0  0  0  0
    7.4022    1.8090    0.1280 H   0  0  0  0  0  0  0  0  0  0  0  0
    5.6649    1.5912   -0.1999 H   0  0  0  0  0  0  0  0  0  0  0  0
    3.9517   -4.7822    5.3763 H   0  0  0  0  0  0  0  0  0  0  0  0
    5.6271   -4.5155    5.8259 H   0  0  0  0  0  0  0  0  0  0  0  0
   11.0677   -4.3825    2.5047 H   0  0  0  0  0  0  0  0  0  0  0  0
   10.4475   -5.6771    1.4925 H   0  0  0  0  0  0  0  0  0  0  0  0
    3.7702   -2.3868    4.6228 H   0  0  0  0  0  0  0  0  0  0  0  0
    4.9177   -3.3559    3.7114 H   0  0  0  0  0  0  0  0  0  0  0  0
   11.2474   -4.4565   -0.5568 H   0  0  0  0  0  0  0  0  0  0  0  0
   11.8661   -3.1612    0.4574 H   0  0  0  0  0  0  0  0  0  0  0  0
    6.8149   -2.3585    5.0171 H   0  0  0  0  0  0  0  0  0  0  0  0
    5.6789   -1.4161    5.9661 H   0  0  0  0  0  0  0  0  0  0  0  0
    9.5364   -2.7026    1.2961 H   0  0  0  0  0  0  0  0  0  0  0  0
    8.9191   -4.0057    0.2888 H   0  0  0  0  0  0  0  0  0  0  0  0
    6.6254    0.0463    4.2929 H   0  0  0  0  0  0  0  0  0  0  0  0
    4.9294   -0.1983    3.8975 H   0  0  0  0  0  0  0  0  0  0  0  0
    9.7219   -2.7821   -1.7653 H   0  0  0  0  0  0  0  0  0  0  0  0
   10.3199   -1.4747   -0.7456 H   0  0  0  0  0  0  0  0  0  0  0  0
    5.5610   -1.8016    2.0960 H   0  0  0  0  0  0  0  0  0  0  0  0
    7.2657   -1.6885    2.5794 H   0  0  0  0  0  0  0  0  0  0  0  0
    7.3900   -2.3559   -0.9647 H   0  0  0  0  0  0  0  0  0  0  0  0
    8.1213   -0.9646   -1.7898 H   0  0  0  0  0  0  0  0  0  0  0  0
    5.9549   -0.9023   -0.0065 H   0  0  0  0  0  0  0  0  0  0  0  0
  1 19  1  0  0  0  0
  1 17  1  0  0  0  0
  2 21  1  0  0  0  0
  2 20  1  0  0  0  0
  3 25  1  0  0  0  0
  3 24  1  0  0  0  0
  3 14  1  0  0  0  0
  4 27  1  0  0  0  0
  4  1  1  0  0  0  0
  5  2  1  0  0  0  0
  5 28  1  0  0  0  0
  6  8  1  0  0  0  0
  6  4  1  0  0  0  0
  7 33  1  0  0  0  0
  7  5  1  0  0  0  0
  8 34  1  0  0  0  0
  8 35  1  0  0  0  0
  9  7  1  0  0  0  0
  9 36  1  0  0  0  0
 10 38  1  0  0  0  0
 10  8  1  0  0  0  0
 11 41  1  0  0  0  0
 11  9  1  0  0  0  0
 12 43  1  0  0  0  0
 12 10  1  0  0  0  0
 13 11  1  0  0  0  0
 13 16  1  0  0  0  0
 14 15  1  0  0  0  0
 15 12  1  0  0  0  0
 16 14  1  0  0  0  0
 18  1  1  0  0  0  0
 22  2  1  0  0  0  0
 23  3  1  0  0  0  0
 26  4  1  0  0  0  0
 29  5  1  0  0  0  0
 30  6  1  0  0  0  0
 31  6  1  0  0  0  0
 32  7  1  0  0  0  0
 37  9  1  0  0  0  0
 39 10  1  0  0  0  0
 40 11  1  0  0  0  0
 42 12  1  0  0  0  0
 44 13  1  0  0  0  0
 45 13  1  0  0  0  0
 46 14  1  0  0  0  0
M  END
>  <HBA>
2

>  <HBD>
0

>  <TPSA>
18.46

>  <cid>
21503

>  <dipole>
1.54

>  <excitation_energy_1>
6.471

>  <excitation_energy_2>
6.705

>  <excitation_energy_3>
6.841

>  <excitation_energy_4>
6.911

>  <homo_energy>
-6.827

>  <homo_lumo_gap>
9.17

>  <logP>
4.526

>  <lumo_energy>
2.343

>  <melting_point>
-49.77

>  <molecular_refractivity>
71.58

>  <oscillator_strength_1>
0.0165

>  <oscillator_strength_2>
0.0042

>  <oscillator_strength_3>
0.008

>  <oscillator_strength_4>
0.0245

>  <open_babel_can_smiles>
CCCCCCOC(OCCCCCC)C

>  <mulliken_charges>
46
1   -0.443504
2   -0.441256
3   -0.465578
4   -0.249013
5   -0.246661
6   -0.252178
7   -0.246181
8   -0.266052
9   -0.255061
10   -0.274572
11   -0.273569
12   -0.015927
13   -0.018865
14   0.387575
15   -0.484641
16   -0.486886
17   0.142222
18   0.140922
19   0.146819
20   0.141007
21   0.141587
22   0.140366
23   0.142963
24   0.166801
25   0.152897
26   0.130467
27   0.130009
28   0.13104
29   0.128602
30   0.127113
31   0.130881
32   0.123597
33   0.128406
34   0.128647
35   0.137626
36   0.154529
37   0.120921
38   0.146793
39   0.138162
40   0.128565
41   0.145062
42   0.11566
43   0.144211
44   0.116156
45   0.120959
46   0.089376

>  <lowdin_charges>
46
1   -0.448827
2   -0.445682
3   -0.45755
4   -0.273597
5   -0.272433
6   -0.278183
7   -0.274856
8   -0.276978
9   -0.277088
10   -0.281656
11   -0.28043
12   -0.134989
13   -0.130109
14   0.107016
15   -0.250886
16   -0.278061
17   0.150407
18   0.145583
19   0.148468
20   0.149341
21   0.146904
22   0.145906
23   0.151241
24   0.165826
25   0.158989
26   0.142629
27   0.13851
28   0.139218
29   0.138545
30   0.137241
31   0.139417
32   0.135383
33   0.138814
34   0.137906
35   0.144459
36   0.149069
37   0.135847
38   0.152857
39   0.144333
40   0.14359
41   0.149187
42   0.126838
43   0.138066
44   0.123869
45   0.127246
46   0.108623

$$$$

