PCCDB-ID:  69820
public computational chemistry database (PCCDB) project, http://pccdb.org

 27 26  0  0  0  0  0  0  0  0999 V2000
    1.5186    0.5259   -0.1812 C   0  0  0  0  0  0  0  0  0  0  0  0
    1.4016    0.1746   -1.6737 C   0  0  0  0  0  0  0  0  0  0  0  0
    2.7825   -0.0173    0.5050 C   0  0  0  0  0  0  0  0  0  0  0  0
    1.2268   -1.3215   -1.9703 C   0  0  0  0  0  0  0  0  0  0  0  0
    2.9332    0.3694    1.9874 C   0  0  0  0  0  0  0  0  0  0  0  0
    1.0214   -1.6016   -3.4730 C   0  0  0  0  0  0  0  0  0  0  0  0
    3.3272    1.8243    2.2640 C   0  0  0  0  0  0  0  0  0  0  0  0
    0.7868   -3.0732   -3.7868 C   0  0  0  0  0  0  0  0  0  0  0  0
    2.3561    2.7926    1.8717 O   0  0  0  0  0  0  0  0  0  0  0  0
   -0.2295   -3.5223   -4.2518 O   0  0  0  0  0  0  0  0  0  0  0  0
    1.8231   -3.9114   -3.4882 O   0  0  0  0  0  0  0  0  0  0  0  0
    0.6314    0.1435    0.3470 H   0  0  0  0  0  0  0  0  0  0  0  0
    1.4985    1.6144   -0.0700 H   0  0  0  0  0  0  0  0  0  0  0  0
    2.2875    0.5498   -2.2076 H   0  0  0  0  0  0  0  0  0  0  0  0
    0.5431    0.7152   -2.0952 H   0  0  0  0  0  0  0  0  0  0  0  0
    3.6712    0.3282   -0.0448 H   0  0  0  0  0  0  0  0  0  0  0  0
    2.7925   -1.1136    0.4399 H   0  0  0  0  0  0  0  0  0  0  0  0
    0.3624   -1.7086   -1.4140 H   0  0  0  0  0  0  0  0  0  0  0  0
    2.0997   -1.8781   -1.6015 H   0  0  0  0  0  0  0  0  0  0  0  0
    3.7073   -0.2637    2.4444 H   0  0  0  0  0  0  0  0  0  0  0  0
    2.0018    0.1376    2.5282 H   0  0  0  0  0  0  0  0  0  0  0  0
    1.8961   -1.2482   -4.0386 H   0  0  0  0  0  0  0  0  0  0  0  0
    0.1499   -1.0570   -3.8452 H   0  0  0  0  0  0  0  0  0  0  0  0
    4.2295    2.0802    1.6970 H   0  0  0  0  0  0  0  0  0  0  0  0
    3.5730    1.9371    3.3326 H   0  0  0  0  0  0  0  0  0  0  0  0
    1.5523    2.6243    2.3882 H   0  0  0  0  0  0  0  0  0  0  0  0
    2.5702   -3.4023   -3.1334 H   0  0  0  0  0  0  0  0  0  0  0  0
  1 13  1  0  0  0  0
  1 12  1  0  0  0  0
  1  3  1  0  0  0  0
  2  1  1  0  0  0  0
  3  5  1  0  0  0  0
  4  2  1  0  0  0  0
  4 19  1  0  0  0  0
  4 18  1  0  0  0  0
  5  7  1  0  0  0  0
  5 20  1  0  0  0  0
  5 21  1  0  0  0  0
  6  4  1  0  0  0  0
  7 25  1  0  0  0  0
  8 11  1  0  0  0  0
  8  6  1  0  0  0  0
  9  7  1  0  0  0  0
  9 26  1  0  0  0  0
 10  8  2  0  0  0  0
 11 27  1  0  0  0  0
 14  2  1  0  0  0  0
 15  2  1  0  0  0  0
 16  3  1  0  0  0  0
 17  3  1  0  0  0  0
 22  6  1  0  0  0  0
 23  6  1  0  0  0  0
 24  7  1  0  0  0  0
M  END
>  <HBA>
3

>  <HBD>
2

>  <TPSA>
57.53

>  <cid>
69820

>  <dipole>
4.59

>  <excitation_energy_1>
5.605

>  <excitation_energy_2>
6.358

>  <excitation_energy_3>
6.439

>  <excitation_energy_4>
6.711

>  <homo_energy>
-7.146

>  <homo_lumo_gap>
7.483

>  <logP>
1.404

>  <lumo_energy>
0.337

>  <melting_point>
67.89

>  <molecular_refractivity>
43.5

>  <oscillator_strength_1>
0.0024

>  <oscillator_strength_2>
0.0052

>  <oscillator_strength_3>
0.0159

>  <oscillator_strength_4>
0.0019

>  <open_babel_can_smiles>
OCCCCCCCC(=O)O

>  <mulliken_charges>
27
1   -0.26805
2   -0.256437
3   -0.252042
4   -0.271081
5   -0.282219
6   -0.378811
7   -0.032753
8   0.58803
9   -0.604715
10   -0.435793
11   -0.565536
12   0.120988
13   0.167521
14   0.130705
15   0.138957
16   0.128382
17   0.130924
18   0.157269
19   0.12491
20   0.134363
21   0.125065
22   0.155328
23   0.179376
24   0.146197
25   0.123962
26   0.387473
27   0.407986

>  <lowdin_charges>
27
1   -0.284196
2   -0.276296
3   -0.274468
4   -0.277419
5   -0.295423
6   -0.317644
7   -0.134468
8   0.193623
9   -0.465459
10   -0.237533
11   -0.364638
12   0.135569
13   0.157552
14   0.140002
15   0.147261
16   0.139113
17   0.137107
18   0.152945
19   0.134435
20   0.150486
21   0.137393
22   0.157875
23   0.173315
24   0.146307
25   0.126914
26   0.34103
27   0.356618

$$$$

