PCCDB-ID:  13023
public computational chemistry database (PCCDB) project, http://pccdb.org

 22 23  0  0  1  0  0  0  0  0999 V2000
    0.9481    0.3109    0.1808 C   0  0  0  0  0  0  0  0  0  0  0  0
    4.0246   -3.3233    1.9770 C   0  0  0  0  0  0  0  0  0  0  0  0
    3.3074   -3.5592    0.8002 C   0  0  0  0  0  0  0  0  0  0  0  0
    4.2145   -2.0176    2.4403 C   0  0  0  0  0  0  0  0  0  0  0  0
    2.7702   -2.4916    0.0744 C   0  0  0  0  0  0  0  0  0  0  0  0
    3.3334    1.1734    0.6596 C   0  0  0  0  0  0  0  0  0  0  0  0
    3.7441    0.5309    2.0093 C   0  0  0  0  0  0  0  0  0  0  0  0
    2.4559    0.1122   -0.0649 C   0  0  1  0  0  0  0  0  0  0  0  0
    3.6835   -0.9536    1.7130 C   0  0  0  0  0  0  0  0  0  0  0  0
    2.9626   -1.1895    0.5341 C   0  0  0  0  0  0  0  0  0  0  0  0
    0.6048    1.2600   -0.2481 H   0  0  0  0  0  0  0  0  0  0  0  0
    0.7195    0.3198    1.2532 H   0  0  0  0  0  0  0  0  0  0  0  0
    0.3641   -0.4971   -0.2746 H   0  0  0  0  0  0  0  0  0  0  0  0
    4.4417   -4.1596    2.5322 H   0  0  0  0  0  0  0  0  0  0  0  0
    3.1724   -4.5774    0.4445 H   0  0  0  0  0  0  0  0  0  0  0  0
    4.7768   -1.8385    3.3542 H   0  0  0  0  0  0  0  0  0  0  0  0
    2.2161   -2.6792   -0.8430 H   0  0  0  0  0  0  0  0  0  0  0  0
    4.2343    1.3636    0.0644 H   0  0  0  0  0  0  0  0  0  0  0  0
    2.8153    2.1305    0.7834 H   0  0  0  0  0  0  0  0  0  0  0  0
    3.0366    0.7936    2.8091 H   0  0  0  0  0  0  0  0  0  0  0  0
    4.7328    0.8622    2.3478 H   0  0  0  0  0  0  0  0  0  0  0  0
    2.6294    0.1430   -1.1487 H   0  0  0  0  0  0  0  0  0  0  0  0
  1 12  1  0  0  0  0
  2  4  1  0  0  0  0
  2 14  1  0  0  0  0
  3  2  2  0  0  0  0
  4 16  1  0  0  0  0
  5 10  2  0  0  0  0
  5  3  1  0  0  0  0
  6 19  1  0  0  0  0
  6  7  1  0  0  0  0
  7 21  1  0  0  0  0
  7 20  1  0  0  0  0
  8 22  1  6  0  0  0
  8  1  1  0  0  0  0
  8 10  1  0  0  0  0
  8  6  1  0  0  0  0
  9  7  1  0  0  0  0
  9  4  2  0  0  0  0
 10  9  1  0  0  0  0
 11  1  1  0  0  0  0
 13  1  1  0  0  0  0
 15  3  1  0  0  0  0
 17  5  1  0  0  0  0
 18  6  1  0  0  0  0
M  END
>  <HBA>
0

>  <HBD>
0

>  <TPSA>
0.0

>  <cid>
13023

>  <dipole>
0.46

>  <excitation_energy_1>
5.158

>  <excitation_energy_2>
5.715

>  <excitation_energy_3>
5.878

>  <excitation_energy_4>
6.126

>  <homo_energy>
-6.193

>  <homo_lumo_gap>
6.289

>  <logP>
2.736

>  <lumo_energy>
0.095

>  <melting_point>
33.24

>  <molecular_refractivity>
43.87

>  <oscillator_strength_1>
0.0198

>  <oscillator_strength_2>
0.0167

>  <oscillator_strength_3>
0.004

>  <oscillator_strength_4>
0.0271

>  <open_babel_can_smiles>
C[C@H]1CCc2c1cccc2

>  <mulliken_charges>
22
1   -0.440191
2   -0.13201
3   -0.132802
4   -0.195929
5   -0.196422
6   -0.285281
7   -0.349411
8   -0.161842
9   0.127784
10   0.132962
11   0.141499
12   0.146717
13   0.145675
14   0.124145
15   0.124062
16   0.121745
17   0.121604
18   0.143984
19   0.134202
20   0.151203
21   0.146646
22   0.131659

>  <lowdin_charges>
22
1   -0.441586
2   -0.161252
3   -0.160031
4   -0.165381
5   -0.165227
6   -0.276325
7   -0.280998
8   -0.123348
9   -0.014537
10   -0.01468
11   0.147593
12   0.147946
13   0.151613
14   0.156324
15   0.154366
16   0.154181
17   0.153765
18   0.148203
19   0.144474
20   0.151641
21   0.15144
22   0.141819

$$$$

