PCCDB-ID:  43659
public computational chemistry database (PCCDB) project, http://pccdb.org

 20 19  0  0  0  0  0  0  0  0999 V2000
    5.3096    1.8599   -0.1360 C   0  0  0  0  0  0  0  0  0  0  0  0
    2.7014    1.5070   -2.6219 C   0  0  0  0  0  0  0  0  0  0  0  0
    3.6163    2.4856   -3.3650 C   0  0  0  0  0  0  0  0  0  0  0  0
    3.3122    0.8601   -1.3662 C   0  0  0  0  0  0  0  0  0  0  0  0
    4.8613    1.8493   -3.9706 C   0  0  0  0  0  0  0  0  0  0  0  0
    3.1061    2.5499    0.3951 N   0  0  0  0  0  0  0  0  0  0  0  0
    3.8829    1.8168   -0.4129 N   0  0  0  0  0  0  0  0  0  0  0  0
    5.1747    0.6897   -3.8541 O   0  0  0  0  0  0  0  0  0  0  0  0
    5.6595    2.6949   -4.6785 O   0  0  0  0  0  0  0  0  0  0  0  0
    1.8974    2.4181    0.2053 O   0  0  0  0  0  0  0  0  0  0  0  0
    5.8774    2.1097   -1.0384 H   0  0  0  0  0  0  0  0  0  0  0  0
    5.6660    0.8929    0.2396 H   0  0  0  0  0  0  0  0  0  0  0  0
    5.4731    2.6257    0.6246 H   0  0  0  0  0  0  0  0  0  0  0  0
    2.4127    0.6952   -3.2993 H   0  0  0  0  0  0  0  0  0  0  0  0
    1.7913    2.0384   -2.3332 H   0  0  0  0  0  0  0  0  0  0  0  0
    3.9344    3.2962   -2.6933 H   0  0  0  0  0  0  0  0  0  0  0  0
    3.0531    2.9719   -4.1743 H   0  0  0  0  0  0  0  0  0  0  0  0
    4.1111    0.1730   -1.6472 H   0  0  0  0  0  0  0  0  0  0  0  0
    2.5256    0.3063   -0.8419 H   0  0  0  0  0  0  0  0  0  0  0  0
    5.2709    3.5855   -4.6957 H   0  0  0  0  0  0  0  0  0  0  0  0
  1 12  1  0  0  0  0
  1 13  1  0  0  0  0
  2 15  1  0  0  0  0
  2  4  1  0  0  0  0
  3 16  1  0  0  0  0
  3  2  1  0  0  0  0
  4 19  1  0  0  0  0
  4  7  1  0  0  0  0
  5  8  2  0  0  0  0
  5  3  1  0  0  0  0
  7  1  1  0  0  0  0
  7  6  1  0  0  0  0
  9  5  1  0  0  0  0
 10  6  1  0  0  0  0
 11  1  1  0  0  0  0
 14  2  1  0  0  0  0
 17  3  1  0  0  0  0
 18  4  1  0  0  0  0
 20  9  1  0  0  0  0
M  RAD  2   6   2  10   2
M  END
>  <HBA>
5

>  <HBD>
1

>  <TPSA>
69.97

>  <cid>
43659

>  <dipole>
2.36

>  <excitation_energy_1>
3.363

>  <excitation_energy_2>
5.229

>  <excitation_energy_3>
5.336

>  <excitation_energy_4>
5.693

>  <homo_energy>
-6.106

>  <homo_lumo_gap>
5.225

>  <logP>
0.464

>  <lumo_energy>
-0.882

>  <melting_point>
72.95

>  <molecular_refractivity>
35.55

>  <oscillator_strength_1>
0.0012

>  <oscillator_strength_2>
0.001

>  <oscillator_strength_3>
0.0004

>  <oscillator_strength_4>
0.0015

>  <open_babel_can_smiles>
[O][N]N(CCCC(=O)O)C

>  <mulliken_charges>
20
1   -0.314262
2   -0.25909
3   -0.415812
4   -0.15847
5   0.608995
6   0.140815
7   -0.210604
8   -0.443384
9   -0.564623
10   -0.383969
11   0.170171
12   0.172754
13   0.189247
14   0.161158
15   0.177174
16   0.179457
17   0.172578
18   0.188725
19   0.176847
20   0.412293

>  <lowdin_charges>
20
1   -0.356402
2   -0.277555
3   -0.329328
4   -0.21992
5   0.191049
6   0.044056
7   -0.044246
8   -0.241563
9   -0.354051
10   -0.277388
11   0.158866
12   0.159548
13   0.176015
14   0.162965
15   0.167544
16   0.168695
17   0.169527
18   0.173159
19   0.169482
20   0.359546

$$$$

