PCCDB-ID:  41306
public computational chemistry database (PCCDB) project, http://pccdb.org

 47 46  0  0  1  0  0  0  0  0999 V2000
    1.1881   -0.1730   -4.2606 C   0  0  0  0  0  0  0  0  0  0  0  0
   13.5541    0.2736   -0.2720 C   0  0  0  0  0  0  0  0  0  0  0  0
   11.6012   -2.9812   -2.8157 C   0  0  0  0  0  0  0  0  0  0  0  0
    6.4124   -3.3594    0.2804 C   0  0  0  0  0  0  0  0  0  0  0  0
    2.6895   -0.3655   -4.0230 C   0  0  0  0  0  0  0  0  0  0  0  0
   13.0167   -1.0780   -0.7558 C   0  0  0  0  0  0  0  0  0  0  0  0
    3.0014   -1.3085   -2.8540 C   0  0  0  0  0  0  0  0  0  0  0  0
    4.5032   -1.5041   -2.6058 C   0  0  0  0  0  0  0  0  0  0  0  0
    8.5964   -3.4870   -1.9580 C   0  0  0  0  0  0  0  0  0  0  0  0
   11.5483   -1.0096   -1.1987 C   0  0  0  0  0  0  0  0  0  0  0  0
    4.7988   -2.4451   -1.4290 C   0  0  0  0  0  0  0  0  0  0  0  0
    9.3914   -2.1800   -1.8159 C   0  0  0  0  0  0  0  0  0  0  0  0
    7.0843   -3.2977   -2.1826 C   0  0  0  0  0  0  0  0  0  0  0  0
   10.9091   -2.3584   -1.5927 C   0  0  1  0  0  0  0  0  0  0  0  0
    6.2884   -2.6062   -1.0538 C   0  0  2  0  0  0  0  0  0  0  0  0
    0.9987    0.5033   -5.1021 H   0  0  0  0  0  0  0  0  0  0  0  0
    0.6974    0.2509   -3.3758 H   0  0  0  0  0  0  0  0  0  0  0  0
    0.6969   -1.1284   -4.4838 H   0  0  0  0  0  0  0  0  0  0  0  0
   14.6029    0.1996    0.0378 H   0  0  0  0  0  0  0  0  0  0  0  0
   12.9791    0.6468    0.5846 H   0  0  0  0  0  0  0  0  0  0  0  0
   13.4933    1.0304   -1.0639 H   0  0  0  0  0  0  0  0  0  0  0  0
   12.6677   -3.1519   -2.6351 H   0  0  0  0  0  0  0  0  0  0  0  0
   11.5127   -2.3209   -3.6890 H   0  0  0  0  0  0  0  0  0  0  0  0
   11.1618   -3.9475   -3.0848 H   0  0  0  0  0  0  0  0  0  0  0  0
    5.8310   -2.8627    1.0664 H   0  0  0  0  0  0  0  0  0  0  0  0
    7.4499   -3.4176    0.6263 H   0  0  0  0  0  0  0  0  0  0  0  0
    6.0346   -4.3863    0.1870 H   0  0  0  0  0  0  0  0  0  0  0  0
    3.1590    0.6109   -3.8353 H   0  0  0  0  0  0  0  0  0  0  0  0
    3.1574   -0.7558   -4.9380 H   0  0  0  0  0  0  0  0  0  0  0  0
   13.1161   -1.8201    0.0496 H   0  0  0  0  0  0  0  0  0  0  0  0
   13.6448   -1.4372   -1.5810 H   0  0  0  0  0  0  0  0  0  0  0  0
    2.5342   -2.2867   -3.0440 H   0  0  0  0  0  0  0  0  0  0  0  0
    2.5284   -0.9202   -1.9396 H   0  0  0  0  0  0  0  0  0  0  0  0
    4.9692   -0.5257   -2.4131 H   0  0  0  0  0  0  0  0  0  0  0  0
    4.9667   -1.8857   -3.5251 H   0  0  0  0  0  0  0  0  0  0  0  0
    8.7700   -4.1123   -1.0711 H   0  0  0  0  0  0  0  0  0  0  0  0
    8.9844   -4.0620   -2.8086 H   0  0  0  0  0  0  0  0  0  0  0  0
   11.4563   -0.3078   -2.0422 H   0  0  0  0  0  0  0  0  0  0  0  0
   10.9603   -0.5719   -0.3783 H   0  0  0  0  0  0  0  0  0  0  0  0
    4.3743   -3.4387   -1.6419 H   0  0  0  0  0  0  0  0  0  0  0  0
    4.2600   -2.0713   -0.5460 H   0  0  0  0  0  0  0  0  0  0  0  0
    8.9875   -1.6049   -0.9715 H   0  0  0  0  0  0  0  0  0  0  0  0
    9.2310   -1.5566   -2.7099 H   0  0  0  0  0  0  0  0  0  0  0  0
    6.6332   -4.2859   -2.3605 H   0  0  0  0  0  0  0  0  0  0  0  0
    6.9489   -2.7317   -3.1140 H   0  0  0  0  0  0  0  0  0  0  0  0
   11.0390   -3.0464   -0.7413 H   0  0  0  0  0  0  0  0  0  0  0  0
    6.6978   -1.5950   -0.9082 H   0  0  0  0  0  0  0  0  0  0  0  0
  1  5  1  0  0  0  0
  1 17  1  0  0  0  0
  2 19  1  0  0  0  0
  2 20  1  0  0  0  0
  3 22  1  0  0  0  0
  3 14  1  0  0  0  0
  4 26  1  0  0  0  0
  4 25  1  0  0  0  0
  5 28  1  0  0  0  0
  5  7  1  0  0  0  0
  6  2  1  0  0  0  0
  6 30  1  0  0  0  0
  7  8  1  0  0  0  0
  7 33  1  0  0  0  0
  8 34  1  0  0  0  0
  8 11  1  0  0  0  0
  9 12  1  0  0  0  0
  9 36  1  0  0  0  0
 10  6  1  0  0  0  0
 10 39  1  0  0  0  0
 11 15  1  0  0  0  0
 11 41  1  0  0  0  0
 12 14  1  0  0  0  0
 12 42  1  0  0  0  0
 13  9  1  0  0  0  0
 13 15  1  0  0  0  0
 14 10  1  0  0  0  0
 14 46  1  1  0  0  0
 15 47  1  1  0  0  0
 15  4  1  0  0  0  0
 16  1  1  0  0  0  0
 18  1  1  0  0  0  0
 21  2  1  0  0  0  0
 23  3  1  0  0  0  0
 24  3  1  0  0  0  0
 27  4  1  0  0  0  0
 29  5  1  0  0  0  0
 31  6  1  0  0  0  0
 32  7  1  0  0  0  0
 35  8  1  0  0  0  0
 37  9  1  0  0  0  0
 38 10  1  0  0  0  0
 40 11  1  0  0  0  0
 43 12  1  0  0  0  0
 44 13  1  0  0  0  0
 45 13  1  0  0  0  0
M  END
>  <HBA>
0

>  <HBD>
0

>  <TPSA>
0.0

>  <cid>
41306

>  <dipole>
0.06

>  <excitation_energy_1>
7.441

>  <excitation_energy_2>
7.578

>  <excitation_energy_3>
7.667

>  <excitation_energy_4>
7.699

>  <homo_energy>
-7.845

>  <homo_lumo_gap>
10.079

>  <logP>
5.809

>  <lumo_energy>
2.234

>  <melting_point>
-32.54

>  <molecular_refractivity>
74.22

>  <oscillator_strength_1>
0.0146

>  <oscillator_strength_2>
0.0051

>  <oscillator_strength_3>
0.0073

>  <oscillator_strength_4>
0.0067

>  <open_babel_can_smiles>
CCCCC[C@H](CCC[C@H](CCC)C)C

>  <mulliken_charges>
47
1   -0.441042
2   -0.441628
3   -0.454705
4   -0.451905
5   -0.246687
6   -0.25325
7   -0.245951
8   -0.260087
9   -0.268791
10   -0.246519
11   -0.251549
12   -0.256169
13   -0.258974
14   -0.067783
15   -0.071098
16   0.140816
17   0.140843
18   0.140756
19   0.140668
20   0.140612
21   0.141148
22   0.144733
23   0.136476
24   0.144823
25   0.138353
26   0.143781
27   0.137374
28   0.129399
29   0.12935
30   0.128757
31   0.134992
32   0.126286
33   0.125723
34   0.125616
35   0.132636
36   0.130063
37   0.1311
38   0.122697
39   0.123351
40   0.122524
41   0.123182
42   0.130677
43   0.122235
44   0.121282
45   0.130956
46   0.114255
47   0.120676

>  <lowdin_charges>
47
1   -0.445784
2   -0.44394
3   -0.447436
4   -0.445894
5   -0.272224
6   -0.276241
7   -0.274064
8   -0.277231
9   -0.281032
10   -0.277294
11   -0.274674
12   -0.279234
13   -0.277674
14   -0.123349
15   -0.125535
16   0.149302
17   0.146605
18   0.145932
19   0.14734
20   0.146244
21   0.146715
22   0.147686
23   0.144785
24   0.148699
25   0.148407
26   0.147089
27   0.143974
28   0.138035
29   0.138652
30   0.138686
31   0.141409
32   0.136802
33   0.136988
34   0.136509
35   0.139412
36   0.138483
37   0.142963
38   0.136637
39   0.138643
40   0.135511
41   0.138967
42   0.140543
43   0.136361
44   0.137674
45   0.140627
46   0.132695
47   0.133229

$$$$

