PCCDB-ID:  22569
public computational chemistry database (PCCDB) project, http://pccdb.org

 31 33  0  0  0  0  0  0  0  0999 V2000
    3.5638   -0.7965   -0.0519 C   0  0  0  0  0  0  0  0  0  0  0  0
   -3.5482   -0.7851    0.0592 C   0  0  0  0  0  0  0  0  0  0  0  0
    2.8141   -1.8251   -0.6227 C   0  0  0  0  0  0  0  0  0  0  0  0
   -2.7978   -1.8245    0.6108 C   0  0  0  0  0  0  0  0  0  0  0  0
    2.9097    0.2799    0.5437 C   0  0  0  0  0  0  0  0  0  0  0  0
   -2.8943    0.2966   -0.5256 C   0  0  0  0  0  0  0  0  0  0  0  0
    1.4236   -1.7555   -0.5934 C   0  0  0  0  0  0  0  0  0  0  0  0
   -1.4074   -1.7614    0.5759 C   0  0  0  0  0  0  0  0  0  0  0  0
    0.8797    1.5682    1.2662 C   0  0  0  0  0  0  0  0  0  0  0  0
    0.6106    2.7793    0.3431 C   0  0  0  0  0  0  0  0  0  0  0  0
   -0.8578    1.5733   -1.2551 C   0  0  0  0  0  0  0  0  0  0  0  0
    1.5103    0.3700    0.5806 C   0  0  0  0  0  0  0  0  0  0  0  0
   -1.4962    0.3745   -0.5719 C   0  0  0  0  0  0  0  0  0  0  0  0
    0.7535   -0.6674   -0.0082 C   0  0  0  0  0  0  0  0  0  0  0  0
   -0.7377   -0.6685   -0.0019 C   0  0  0  0  0  0  0  0  0  0  0  0
   -0.6796    2.7137   -0.3395 N   0  0  0  0  0  0  0  0  0  0  0  0
    4.6499   -0.8350   -0.0623 H   0  0  0  0  0  0  0  0  0  0  0  0
   -4.6343   -0.8191    0.0799 H   0  0  0  0  0  0  0  0  0  0  0  0
    3.3069   -2.6745   -1.0883 H   0  0  0  0  0  0  0  0  0  0  0  0
   -3.2916   -2.6775    1.0688 H   0  0  0  0  0  0  0  0  0  0  0  0
    3.4964    1.0714    1.0058 H   0  0  0  0  0  0  0  0  0  0  0  0
   -3.4770    1.1040   -0.9636 H   0  0  0  0  0  0  0  0  0  0  0  0
    0.8328   -2.5478   -1.0456 H   0  0  0  0  0  0  0  0  0  0  0  0
   -0.8179   -2.5603    1.0179 H   0  0  0  0  0  0  0  0  0  0  0  0
   -0.0599    1.2941    1.7570 H   0  0  0  0  0  0  0  0  0  0  0  0
    1.5655    1.9026    2.0538 H   0  0  0  0  0  0  0  0  0  0  0  0
    1.4647    2.8764   -0.3548 H   0  0  0  0  0  0  0  0  0  0  0  0
    0.5933    3.6878    0.9575 H   0  0  0  0  0  0  0  0  0  0  0  0
   -1.5336    1.9037   -2.0517 H   0  0  0  0  0  0  0  0  0  0  0  0
    0.0851    1.2749   -1.7421 H   0  0  0  0  0  0  0  0  0  0  0  0
   -0.8044    3.5758   -0.8640 H   0  0  0  0  0  0  0  0  0  0  0  0
  1  5  2  0  0  0  0
  2 18  1  0  0  0  0
  2  4  2  0  0  0  0
  3  7  2  0  0  0  0
  3  1  1  0  0  0  0
  4 20  1  0  0  0  0
  5 12  1  0  0  0  0
  5 21  1  0  0  0  0
  6  2  1  0  0  0  0
  7 14  1  0  0  0  0
  8  4  1  0  0  0  0
  8 24  1  0  0  0  0
  9 25  1  0  0  0  0
  9 26  1  0  0  0  0
 10 28  1  0  0  0  0
 10  9  1  0  0  0  0
 11 13  1  0  0  0  0
 11 16  1  0  0  0  0
 12  9  1  0  0  0  0
 13  6  2  0  0  0  0
 13 15  1  0  0  0  0
 14 15  1  0  0  0  0
 14 12  2  0  0  0  0
 15  8  2  0  0  0  0
 16 10  1  0  0  0  0
 17  1  1  0  0  0  0
 19  3  1  0  0  0  0
 22  6  1  0  0  0  0
 23  7  1  0  0  0  0
 27 10  1  0  0  0  0
 29 11  1  0  0  0  0
 30 11  1  0  0  0  0
 31 16  1  0  0  0  0
M  END
>  <HBA>
1

>  <HBD>
1

>  <TPSA>
12.03

>  <cid>
22569

>  <dipole>
1.04

>  <excitation_energy_1>
4.694

>  <excitation_energy_2>
4.832

>  <excitation_energy_3>
4.921

>  <excitation_energy_4>
5.089

>  <homo_energy>
-5.889

>  <homo_lumo_gap>
5.48

>  <logP>
3.328

>  <lumo_energy>
-0.408

>  <melting_point>
99.36

>  <molecular_refractivity>
71.22

>  <oscillator_strength_1>
0.0055

>  <oscillator_strength_2>
0.0007

>  <oscillator_strength_3>
0.0163

>  <oscillator_strength_4>
0.1664

>  <open_babel_can_smiles>
C1NCc2ccccc2c2c(C1)cccc2

>  <mulliken_charges>
31
1   -0.120623
2   -0.122899
3   -0.137009
4   -0.135319
5   -0.194527
6   -0.182761
7   -0.165363
8   -0.166096
9   -0.357551
10   -0.120388
11   -0.254042
12   0.143296
13   0.180266
14   0.005373
15   0.00544
16   -0.535805
17   0.126865
18   0.12677
19   0.127666
20   0.127546
21   0.121245
22   0.123246
23   0.132469
24   0.131905
25   0.169229
26   0.143032
27   0.11722
28   0.135354
29   0.139073
30   0.140335
31   0.296054

>  <lowdin_charges>
31
1   -0.154936
2   -0.155571
3   -0.162144
4   -0.15979
5   -0.168787
6   -0.156904
7   -0.160903
8   -0.162112
9   -0.285751
10   -0.200642
11   -0.208372
12   -0.007402
13   -0.008654
14   -0.014314
15   -0.012779
16   -0.364808
17   0.154674
18   0.154659
19   0.157914
20   0.157805
21   0.154242
22   0.156092
23   0.160655
24   0.160339
25   0.165418
26   0.15502
27   0.119098
28   0.14449
29   0.150213
30   0.137289
31   0.255962

$$$$

