PCCDB-ID:  33706
public computational chemistry database (PCCDB) project, http://pccdb.org

 22 22  0  0  0  0  0  0  0  0999 V2000
    1.0062   -0.0245   -0.2060 C   0  0  0  0  0  0  0  0  0  0  0  0
    5.2306    2.7426    0.1019 C   0  0  0  0  0  0  0  0  0  0  0  0
    3.1599    1.2920   -0.0212 C   0  0  0  0  0  0  0  0  0  0  0  0
    3.2958   -1.1046   -0.1884 C   0  0  0  0  0  0  0  0  0  0  0  0
    5.3094    0.2151   -0.0457 C   0  0  0  0  0  0  0  0  0  0  0  0
    5.5223   -2.3049   -0.1717 C   0  0  0  0  0  0  0  0  0  0  0  0
    2.5142    0.0544   -0.1318 C   0  0  0  0  0  0  0  0  0  0  0  0
    4.5552    1.3925    0.0194 C   0  0  0  0  0  0  0  0  0  0  0  0
    4.6922   -1.0351   -0.1441 C   0  0  0  0  0  0  0  0  0  0  0  0
    4.9583   -3.3408   -0.9683 O   0  0  0  0  0  0  0  0  0  0  0  0
    0.5332    0.7635    0.3902 H   0  0  0  0  0  0  0  0  0  0  0  0
    0.6372   -0.9901    0.1548 H   0  0  0  0  0  0  0  0  0  0  0  0
    0.6513    0.0949   -1.2387 H   0  0  0  0  0  0  0  0  0  0  0  0
    4.6302    3.4564    0.6765 H   0  0  0  0  0  0  0  0  0  0  0  0
    5.3799    3.1760   -0.8962 H   0  0  0  0  0  0  0  0  0  0  0  0
    6.2154    2.6709    0.5756 H   0  0  0  0  0  0  0  0  0  0  0  0
    2.5612    2.2000    0.0325 H   0  0  0  0  0  0  0  0  0  0  0  0
    2.8207   -2.0790   -0.2679 H   0  0  0  0  0  0  0  0  0  0  0  0
    6.3965    0.2754   -0.0159 H   0  0  0  0  0  0  0  0  0  0  0  0
    5.5950   -2.7346    0.8348 H   0  0  0  0  0  0  0  0  0  0  0  0
    6.5500   -2.0679   -0.4915 H   0  0  0  0  0  0  0  0  0  0  0  0
    4.8119   -2.9714   -1.8537 H   0  0  0  0  0  0  0  0  0  0  0  0
  1  7  1  0  0  0  0
  1 12  1  0  0  0  0
  1 11  1  0  0  0  0
  2 16  1  0  0  0  0
  2 14  1  0  0  0  0
  3  8  1  0  0  0  0
  3 17  1  0  0  0  0
  4  9  2  0  0  0  0
  4  7  1  0  0  0  0
  5 19  1  0  0  0  0
  5  8  2  0  0  0  0
  6  9  1  0  0  0  0
  6 20  1  0  0  0  0
  7  3  2  0  0  0  0
  8  2  1  0  0  0  0
  9  5  1  0  0  0  0
 10  6  1  0  0  0  0
 13  1  1  0  0  0  0
 15  2  1  0  0  0  0
 18  4  1  0  0  0  0
 21  6  1  0  0  0  0
 22 10  1  0  0  0  0
M  END
>  <HBA>
1

>  <HBD>
1

>  <TPSA>
20.23

>  <cid>
33706

>  <dipole>
1.82

>  <excitation_energy_1>
5.07

>  <excitation_energy_2>
5.598

>  <excitation_energy_3>
5.96

>  <excitation_energy_4>
5.99

>  <homo_energy>
-6.332

>  <homo_lumo_gap>
6.319

>  <logP>
1.796

>  <lumo_energy>
-0.014

>  <melting_point>
35.45

>  <molecular_refractivity>
42.5

>  <oscillator_strength_1>
0.0015

>  <oscillator_strength_2>
0.0175

>  <oscillator_strength_3>
0.009

>  <oscillator_strength_4>
0.0593

>  <open_babel_can_smiles>
OCc1cc(C)cc(c1)C

>  <mulliken_charges>
22
1   -0.529421
2   -0.52987
3   -0.234733
4   -0.238119
5   -0.243973
6   -0.09012
7   0.18632
8   0.187598
9   0.111422
10   -0.609935
11   0.155979
12   0.15832
13   0.163276
14   0.156967
15   0.164169
16   0.155699
17   0.112163
18   0.132727
19   0.112544
20   0.163249
21   0.127917
22   0.387821

>  <lowdin_charges>
22
1   -0.442617
2   -0.442381
3   -0.18125
4   -0.181981
5   -0.182114
6   -0.130929
7   0.006111
8   0.004507
9   -0.030091
10   -0.460679
11   0.158614
12   0.158537
13   0.159876
14   0.159377
15   0.160626
16   0.156764
17   0.150919
18   0.16025
19   0.14808
20   0.156182
21   0.13075
22   0.341449

$$$$

