PCCDB-ID:  38302
public computational chemistry database (PCCDB) project, http://pccdb.org

 24 23  0  0  0  0  0  0  0  0999 V2000
    0.3327   -3.8269    0.3898 C   0  0  0  0  0  0  0  0  0  0  0  0
    1.5315   -2.8810    0.5153 C   0  0  0  0  0  0  0  0  0  0  0  0
    2.3962   -2.8251   -0.7508 C   0  0  0  0  0  0  0  0  0  0  0  0
    3.5916   -1.8687   -0.6264 C   0  0  0  0  0  0  0  0  0  0  0  0
    4.5303   -1.8382   -1.8437 C   0  0  0  0  0  0  0  0  0  0  0  0
    3.9075   -1.2780   -3.1376 C   0  0  0  0  0  0  0  0  0  0  0  0
    4.5564    0.9894   -2.6727 N   0  0  0  0  0  0  0  0  0  0  0  0
    3.4429    0.1160   -3.1167 N   0  0  0  0  0  0  0  0  0  0  0  0
   -0.2624   -3.8444    1.3100 H   0  0  0  0  0  0  0  0  0  0  0  0
    0.6579   -4.8543    0.1843 H   0  0  0  0  0  0  0  0  0  0  0  0
   -0.3300   -3.5211   -0.4293 H   0  0  0  0  0  0  0  0  0  0  0  0
    2.1559   -3.1914    1.3652 H   0  0  0  0  0  0  0  0  0  0  0  0
    1.1758   -1.8687    0.7554 H   0  0  0  0  0  0  0  0  0  0  0  0
    1.7621   -2.5333   -1.6005 H   0  0  0  0  0  0  0  0  0  0  0  0
    2.7640   -3.8362   -0.9826 H   0  0  0  0  0  0  0  0  0  0  0  0
    4.1802   -2.1535    0.2568 H   0  0  0  0  0  0  0  0  0  0  0  0
    3.2284   -0.8516   -0.4166 H   0  0  0  0  0  0  0  0  0  0  0  0
    4.8883   -2.8570   -2.0519 H   0  0  0  0  0  0  0  0  0  0  0  0
    5.4107   -1.2363   -1.5937 H   0  0  0  0  0  0  0  0  0  0  0  0
    3.0403   -1.8767   -3.4422 H   0  0  0  0  0  0  0  0  0  0  0  0
    4.6384   -1.3639   -3.9548 H   0  0  0  0  0  0  0  0  0  0  0  0
    5.2461    0.8921   -3.4241 H   0  0  0  0  0  0  0  0  0  0  0  0
    4.1893    1.9324   -2.8268 H   0  0  0  0  0  0  0  0  0  0  0  0
    2.7748    0.1877   -2.3462 H   0  0  0  0  0  0  0  0  0  0  0  0
  1  2  1  0  0  0  0
  1  9  1  0  0  0  0
  2 13  1  0  0  0  0
  2 12  1  0  0  0  0
  3  4  1  0  0  0  0
  3  2  1  0  0  0  0
  4 17  1  0  0  0  0
  4 16  1  0  0  0  0
  5 19  1  0  0  0  0
  5  4  1  0  0  0  0
  6  8  1  0  0  0  0
  6  5  1  0  0  0  0
  8  7  1  0  0  0  0
  8 24  1  0  0  0  0
 10  1  1  0  0  0  0
 11  1  1  0  0  0  0
 14  3  1  0  0  0  0
 15  3  1  0  0  0  0
 18  5  1  0  0  0  0
 20  6  1  0  0  0  0
 21  6  1  0  0  0  0
 22  7  1  0  0  0  0
 23  7  1  0  0  0  0
M  END
>  <HBA>
2

>  <HBD>
2

>  <TPSA>
38.05

>  <cid>
38302

>  <dipole>
0.17

>  <excitation_energy_1>
4.681

>  <excitation_energy_2>
5.198

>  <excitation_energy_3>
5.374

>  <excitation_energy_4>
5.548

>  <homo_energy>
-5.187

>  <homo_lumo_gap>
7.1

>  <logP>
2.121

>  <lumo_energy>
1.913

>  <melting_point>
54.87

>  <molecular_refractivity>
36.47

>  <oscillator_strength_1>
0.002

>  <oscillator_strength_2>
0.0097

>  <oscillator_strength_3>
0.0109

>  <oscillator_strength_4>
0.0044

>  <open_babel_can_smiles>
CCCCCCNN

>  <mulliken_charges>
24
1   -0.441883
2   -0.245586
3   -0.249103
4   -0.26352
5   -0.252812
6   -0.15296
7   -0.60045
8   -0.456813
9   0.141658
10   0.141354
11   0.14063
12   0.131
13   0.12866
14   0.126162
15   0.126772
16   0.131152
17   0.128952
18   0.121753
19   0.152994
20   0.14572
21   0.132333
22   0.301757
23   0.305131
24   0.307099

>  <lowdin_charges>
24
1   -0.4446
2   -0.271675
3   -0.278576
4   -0.278313
5   -0.294791
6   -0.2199
7   -0.499965
8   -0.321345
9   0.149335
10   0.145244
11   0.146529
12   0.139773
13   0.137317
14   0.13592
15   0.136655
16   0.144
17   0.136502
18   0.139208
19   0.154714
20   0.147865
21   0.139391
22   0.25215
23   0.25383
24   0.25073

$$$$

