PCCDB-ID:  11738
public computational chemistry database (PCCDB) project, http://pccdb.org

 24 23  0  0  0  0  0  0  0  0999 V2000
    0.9193    0.5679    0.4353 C   0  0  0  0  0  0  0  0  0  0  0  0
    2.5371   -1.7140    1.7545 C   0  0  0  0  0  0  0  0  0  0  0  0
    5.2578   -1.5889    0.1679 C   0  0  0  0  0  0  0  0  0  0  0  0
    5.2662    0.8746    0.5576 C   0  0  0  0  0  0  0  0  0  0  0  0
    5.2360   -0.6719    2.5153 C   0  0  0  0  0  0  0  0  0  0  0  0
    2.4183    0.4601    0.5186 C   0  0  0  0  0  0  0  0  0  0  0  0
    3.1617   -0.5096    1.0773 C   0  0  0  0  0  0  0  0  0  0  0  0
    4.7042   -0.4627    1.0764 C   0  0  0  0  0  0  0  0  0  0  0  0
    0.5641    1.4499    0.9869 H   0  0  0  0  0  0  0  0  0  0  0  0
    0.3904   -0.3012    0.8337 H   0  0  0  0  0  0  0  0  0  0  0  0
    0.5988    0.7058   -0.6064 H   0  0  0  0  0  0  0  0  0  0  0  0
    1.4812   -1.8304    1.5024 H   0  0  0  0  0  0  0  0  0  0  0  0
    2.6028   -1.6378    2.8478 H   0  0  0  0  0  0  0  0  0  0  0  0
    3.0406   -2.6465    1.4757 H   0  0  0  0  0  0  0  0  0  0  0  0
    6.3544   -1.5624    0.1536 H   0  0  0  0  0  0  0  0  0  0  0  0
    4.9022   -1.4685   -0.8617 H   0  0  0  0  0  0  0  0  0  0  0  0
    4.9606   -2.5849    0.5127 H   0  0  0  0  0  0  0  0  0  0  0  0
    6.3610    0.8582    0.6074 H   0  0  0  0  0  0  0  0  0  0  0  0
    4.9166    1.7221    1.1580 H   0  0  0  0  0  0  0  0  0  0  0  0
    4.9898    1.0586   -0.4865 H   0  0  0  0  0  0  0  0  0  0  0  0
    6.3312   -0.6154    2.5280 H   0  0  0  0  0  0  0  0  0  0  0  0
    4.9537   -1.6488    2.9206 H   0  0  0  0  0  0  0  0  0  0  0  0
    4.8512    0.1000    3.1926 H   0  0  0  0  0  0  0  0  0  0  0  0
    2.9314    1.3036    0.0636 H   0  0  0  0  0  0  0  0  0  0  0  0
  1  6  1  0  0  0  0
  1 10  1  0  0  0  0
  1  9  1  0  0  0  0
  2 13  1  0  0  0  0
  3 17  1  0  0  0  0
  3  8  1  0  0  0  0
  4 18  1  0  0  0  0
  4  8  1  0  0  0  0
  4 19  1  0  0  0  0
  5 21  1  0  0  0  0
  5 22  1  0  0  0  0
  5 23  1  0  0  0  0
  6  7  2  0  0  0  0
  7  2  1  0  0  0  0
  8  7  1  0  0  0  0
  8  5  1  0  0  0  0
 11  1  1  0  0  0  0
 12  2  1  0  0  0  0
 14  2  1  0  0  0  0
 15  3  1  0  0  0  0
 16  3  1  0  0  0  0
 20  4  1  0  0  0  0
 24  6  1  0  0  0  0
M  END
>  <HBA>
0

>  <HBD>
0

>  <TPSA>
0.0

>  <cid>
11738

>  <dipole>
0.13

>  <excitation_energy_1>
5.647

>  <excitation_energy_2>
6.15

>  <excitation_energy_3>
6.246

>  <excitation_energy_4>
6.481

>  <homo_energy>
-6.131

>  <homo_lumo_gap>
7.146

>  <logP>
2.999

>  <lumo_energy>
1.015

>  <melting_point>
4.01

>  <molecular_refractivity>
39.84

>  <oscillator_strength_1>
0.0037

>  <oscillator_strength_2>
0.0089

>  <oscillator_strength_3>
0.0

>  <oscillator_strength_4>
0.0195

>  <open_babel_can_smiles>
C/C=C(/C(C)(C)C)\C

>  <mulliken_charges>
24
1   -0.488177
2   -0.531468
3   -0.442136
4   -0.455114
5   -0.447802
6   -0.168814
7   0.191508
8   0.039375
9   0.153123
10   0.150247
11   0.150959
12   0.151743
13   0.157138
14   0.151051
15   0.1372
16   0.144759
17   0.139709
18   0.135937
19   0.14405
20   0.143906
21   0.137517
22   0.142767
23   0.143987
24   0.118537

>  <lowdin_charges>
24
1   -0.443706
2   -0.445221
3   -0.437793
4   -0.441288
5   -0.442066
6   -0.194018
7   -0.015926
8   0.018076
9   0.156306
10   0.15286
11   0.153588
12   0.154308
13   0.154794
14   0.152816
15   0.144438
16   0.149072
17   0.145495
18   0.145585
19   0.149899
20   0.147123
21   0.144941
22   0.148246
23   0.150394
24   0.152077

$$$$

