PCCDB-ID:  72990
public computational chemistry database (PCCDB) project, http://pccdb.org

 20 20  0  0  0  0  0  0  0  0999 V2000
    0.7629    0.2162    0.1330 C   0  0  0  0  0  0  0  0  0  0  0  0
    2.2540    0.0401   -0.0173 C   0  0  0  0  0  0  0  0  0  0  0  0
    2.9170   -1.1497   -0.0265 C   0  0  0  0  0  0  0  0  0  0  0  0
    3.0681    1.2753   -0.1076 C   0  0  0  0  0  0  0  0  0  0  0  0
    2.3259   -2.5380    0.0171 C   0  0  0  0  0  0  0  0  0  0  0  0
    5.1406   -0.1132   -0.0408 C   0  0  0  0  0  0  0  0  0  0  0  0
    2.6506    2.4885   -0.1809 N   0  0  0  0  0  0  0  0  0  0  0  0
    6.4187   -0.1093    0.0112 N   0  0  0  0  0  0  0  0  0  0  0  0
    4.2967   -1.2228   -0.0519 N   0  0  0  0  0  0  0  0  0  0  0  0
    4.4460    1.0797   -0.1215 N   0  0  0  0  0  0  0  0  0  0  0  0
    2.9551   -3.4698    0.4630 O   0  0  0  0  0  0  0  0  0  0  0  0
    1.0928   -2.7222   -0.4965 O   0  0  0  0  0  0  0  0  0  0  0  0
    0.2671   -0.6748    0.5235 H   0  0  0  0  0  0  0  0  0  0  0  0
    0.2742    0.5078   -0.8082 H   0  0  0  0  0  0  0  0  0  0  0  0
    0.5592    1.0193    0.8503 H   0  0  0  0  0  0  0  0  0  0  0  0
    1.6327    2.5311   -0.1737 H   0  0  0  0  0  0  0  0  0  0  0  0
    6.7971   -1.0559    0.0456 H   0  0  0  0  0  0  0  0  0  0  0  0
    4.6912   -2.1424    0.1047 H   0  0  0  0  0  0  0  0  0  0  0  0
    5.0149    1.9167   -0.1570 H   0  0  0  0  0  0  0  0  0  0  0  0
    0.7953   -1.9195   -0.9553 H   0  0  0  0  0  0  0  0  0  0  0  0
  1 13  1  0  0  0  0
  1 15  1  0  0  0  0
  2  1  1  0  0  0  0
  3  2  2  0  0  0  0
  3  5  1  0  0  0  0
  4  2  1  0  0  0  0
  5 11  2  0  0  0  0
  6  8  2  0  0  0  0
  7 16  1  0  0  0  0
  7  4  2  0  0  0  0
  8 17  1  0  0  0  0
  9  6  1  0  0  0  0
  9  3  1  0  0  0  0
  9 18  1  0  0  0  0
 10  4  1  0  0  0  0
 10  6  1  0  0  0  0
 12  5  1  0  0  0  0
 14  1  1  0  0  0  0
 19 10  1  0  0  0  0
 20 12  1  0  0  0  0
M  END
>  <HBA>
6

>  <HBD>
3

>  <TPSA>
115.12

>  <cid>
72990

>  <dipole>
3.46

>  <excitation_energy_1>
3.504

>  <excitation_energy_2>
3.937

>  <excitation_energy_3>
4.378

>  <excitation_energy_4>
4.715

>  <homo_energy>
-6.305

>  <homo_lumo_gap>
4.177

>  <logP>
0.81

>  <lumo_energy>
-2.128

>  <melting_point>
230.81

>  <molecular_refractivity>
42.77

>  <oscillator_strength_1>
0.0231

>  <oscillator_strength_2>
0.1244

>  <oscillator_strength_3>
0.0019

>  <oscillator_strength_4>
0.0038

>  <open_babel_can_smiles>
N=c1[nH]c(=N)c(c([nH]1)C(=O)O)C

>  <mulliken_charges>
20
1   -0.604537
2   0.067762
3   0.230929
4   0.482979
5   0.569571
6   0.695419
7   -0.642071
8   -0.646812
9   -0.735092
10   -0.674751
11   -0.443329
12   -0.559547
13   0.179819
14   0.175343
15   0.189976
16   0.287817
17   0.280396
18   0.359234
19   0.357212
20   0.429683

>  <lowdin_charges>
20
1   -0.462392
2   -0.075438
3   0.006757
4   0.09515
5   0.198027
6   0.131547
7   -0.42546
8   -0.455539
9   -0.234145
10   -0.221952
11   -0.233372
12   -0.330012
13   0.170171
14   0.163237
15   0.176914
16   0.253672
17   0.255989
18   0.306878
19   0.31181
20   0.368158

$$$$

