PCCDB-ID:  14218
public computational chemistry database (PCCDB) project, http://pccdb.org

 34 33  0  0  0  0  0  0  0  0999 V2000
    4.3279   -1.8837   -3.0201 C   0  0  0  0  0  0  0  0  0  0  0  0
    6.6199   -1.9333   -4.0856 C   0  0  0  0  0  0  0  0  0  0  0  0
    5.0503    2.2732    0.8931 C   0  0  0  0  0  0  0  0  0  0  0  0
    4.2531    3.8962   -0.8811 C   0  0  0  0  0  0  0  0  0  0  0  0
    5.1122    0.0527   -4.4227 C   0  0  0  0  0  0  0  0  0  0  0  0
    3.0156    1.7214   -0.5050 C   0  0  0  0  0  0  0  0  0  0  0  0
    6.2081   -0.4204   -2.1767 C   0  0  0  0  0  0  0  0  0  0  0  0
    5.3034    1.7185   -1.5243 C   0  0  0  0  0  0  0  0  0  0  0  0
    5.5524   -1.0444   -3.4199 C   0  0  0  0  0  0  0  0  0  0  0  0
    4.3971    2.4137   -0.5031 C   0  0  0  0  0  0  0  0  0  0  0  0
    6.1620    0.9048   -4.8344 O   0  0  0  0  0  0  0  0  0  0  0  0
    2.1815    2.4015    0.4257 O   0  0  0  0  0  0  0  0  0  0  0  0
    5.9800    2.3036   -2.3523 O   0  0  0  0  0  0  0  0  0  0  0  0
    5.2933    0.3791   -1.3776 O   0  0  0  0  0  0  0  0  0  0  0  0
    3.8615   -2.3325   -3.9053 H   0  0  0  0  0  0  0  0  0  0  0  0
    3.5722   -1.2754   -2.5113 H   0  0  0  0  0  0  0  0  0  0  0  0
    4.6114   -2.7004   -2.3450 H   0  0  0  0  0  0  0  0  0  0  0  0
    6.1863   -2.4714   -4.9366 H   0  0  0  0  0  0  0  0  0  0  0  0
    7.0176   -2.6805   -3.3874 H   0  0  0  0  0  0  0  0  0  0  0  0
    7.4487   -1.3259   -4.4614 H   0  0  0  0  0  0  0  0  0  0  0  0
    4.4043    2.7388    1.6419 H   0  0  0  0  0  0  0  0  0  0  0  0
    6.0261    2.7704    0.9166 H   0  0  0  0  0  0  0  0  0  0  0  0
    5.1906    1.2210    1.1602 H   0  0  0  0  0  0  0  0  0  0  0  0
    3.5974    4.3944   -0.1633 H   0  0  0  0  0  0  0  0  0  0  0  0
    3.8221    4.0089   -1.8814 H   0  0  0  0  0  0  0  0  0  0  0  0
    5.2274    4.3921   -0.8824 H   0  0  0  0  0  0  0  0  0  0  0  0
    4.2741    0.6278   -3.9967 H   0  0  0  0  0  0  0  0  0  0  0  0
    4.7325   -0.4400   -5.3261 H   0  0  0  0  0  0  0  0  0  0  0  0
    3.1335    0.6642   -0.2339 H   0  0  0  0  0  0  0  0  0  0  0  0
    2.5882    1.7660   -1.5208 H   0  0  0  0  0  0  0  0  0  0  0  0
    7.0618    0.1993   -2.4579 H   0  0  0  0  0  0  0  0  0  0  0  0
    6.5410   -1.2055   -1.4922 H   0  0  0  0  0  0  0  0  0  0  0  0
    6.2921    1.5516   -4.1155 H   0  0  0  0  0  0  0  0  0  0  0  0
    1.3338    1.9343    0.4607 H   0  0  0  0  0  0  0  0  0  0  0  0
  1 16  1  0  0  0  0
  1 17  1  0  0  0  0
  2  9  1  0  0  0  0
  2 19  1  0  0  0  0
  3 22  1  0  0  0  0
  3 23  1  0  0  0  0
  3 21  1  0  0  0  0
  4 10  1  0  0  0  0
  4 24  1  0  0  0  0
  5 27  1  0  0  0  0
  5  9  1  0  0  0  0
  6 10  1  0  0  0  0
  6 29  1  0  0  0  0
  6 12  1  0  0  0  0
  7 32  1  0  0  0  0
  7 14  1  0  0  0  0
  8 14  1  0  0  0  0
  8 10  1  0  0  0  0
  9  1  1  0  0  0  0
  9  7  1  0  0  0  0
 10  3  1  0  0  0  0
 11  5  1  0  0  0  0
 11 33  1  0  0  0  0
 12 34  1  0  0  0  0
 13  8  2  0  0  0  0
 15  1  1  0  0  0  0
 18  2  1  0  0  0  0
 20  2  1  0  0  0  0
 25  4  1  0  0  0  0
 26  4  1  0  0  0  0
 28  5  1  0  0  0  0
 30  6  1  0  0  0  0
 31  7  1  0  0  0  0
M  END
>  <HBA>
4

>  <HBD>
2

>  <TPSA>
66.76

>  <cid>
14218

>  <dipole>
3.72

>  <excitation_energy_1>
5.736

>  <excitation_energy_2>
5.93

>  <excitation_energy_3>
6.306

>  <excitation_energy_4>
6.359

>  <homo_energy>
-6.827

>  <homo_lumo_gap>
6.71

>  <logP>
0.567

>  <lumo_energy>
-0.117

>  <melting_point>
57.83

>  <molecular_refractivity>
53.27

>  <oscillator_strength_1>
0.0007

>  <oscillator_strength_2>
0.0015

>  <oscillator_strength_3>
0.0069

>  <oscillator_strength_4>
0.0004

>  <open_babel_can_smiles>
OCC(COC(=O)C(CO)(C)C)(C)C

>  <mulliken_charges>
34
1   -0.455928
2   -0.456143
3   -0.458349
4   -0.439943
5   -0.035534
6   -0.032814
7   -0.06916
8   0.657317
9   0.057872
10   -0.029214
11   -0.649222
12   -0.620982
13   -0.509084
14   -0.475382
15   0.145795
16   0.148719
17   0.141827
18   0.14585
19   0.134891
20   0.171872
21   0.178836
22   0.152273
23   0.153718
24   0.167609
25   0.146166
26   0.156945
27   0.115256
28   0.136892
29   0.144391
30   0.124322
31   0.171639
32   0.152025
33   0.429078
34   0.398464

>  <lowdin_charges>
34
1   -0.448409
2   -0.446768
3   -0.43919
4   -0.439504
5   -0.142656
6   -0.134833
7   -0.140703
8   0.210939
9   -0.019001
10   -0.017075
11   -0.47855
12   -0.46702
13   -0.274985
14   -0.185599
15   0.152233
16   0.151427
17   0.150816
18   0.154076
19   0.146323
20   0.164283
21   0.169386
22   0.154076
23   0.153571
24   0.164864
25   0.153266
26   0.158754
27   0.125716
28   0.14503
29   0.137247
30   0.127789
31   0.162422
32   0.156154
33   0.346088
34   0.349837

$$$$

