PCCDB-ID:  25445
public computational chemistry database (PCCDB) project, http://pccdb.org

 28 28  0  0  0  0  0  0  0  0999 V2000
    1.1582    1.1776    0.3148 C   0  0  0  0  0  0  0  0  0  0  0  0
    3.4261    0.9000   -0.8389 C   0  0  0  0  0  0  0  0  0  0  0  0
    3.5290    1.8133    2.5341 C   0  0  0  0  0  0  0  0  0  0  0  0
    3.5501   -1.8795    3.7442 C   0  0  0  0  0  0  0  0  0  0  0  0
    3.8115   -2.5572    2.3991 C   0  0  0  0  0  0  0  0  0  0  0  0
    3.9381   -0.4011    3.6605 C   0  0  0  0  0  0  0  0  0  0  0  0
    2.9783   -1.8886    1.3017 C   0  0  0  0  0  0  0  0  0  0  0  0
    2.3651    0.2502    0.0727 C   0  0  0  0  0  0  0  0  0  0  0  0
    3.4320    0.3090    2.4132 C   0  0  0  0  0  0  0  0  0  0  0  0
    2.9636   -0.3663    1.3449 C   0  0  0  0  0  0  0  0  0  0  0  0
    0.6852    1.4389   -0.6402 H   0  0  0  0  0  0  0  0  0  0  0  0
    1.4327    2.1128    0.8109 H   0  0  0  0  0  0  0  0  0  0  0  0
    0.4050    0.6815    0.9375 H   0  0  0  0  0  0  0  0  0  0  0  0
    2.9796    1.2051   -1.7937 H   0  0  0  0  0  0  0  0  0  0  0  0
    4.2377    0.1964   -1.0568 H   0  0  0  0  0  0  0  0  0  0  0  0
    3.8753    1.7886   -0.3833 H   0  0  0  0  0  0  0  0  0  0  0  0
    2.8040    2.1977    3.2662 H   0  0  0  0  0  0  0  0  0  0  0  0
    3.3723    2.3470    1.5971 H   0  0  0  0  0  0  0  0  0  0  0  0
    4.5227    2.0939    2.9108 H   0  0  0  0  0  0  0  0  0  0  0  0
    4.1070   -2.3723    4.5508 H   0  0  0  0  0  0  0  0  0  0  0  0
    2.4834   -1.9673    3.9942 H   0  0  0  0  0  0  0  0  0  0  0  0
    3.5842   -3.6296    2.4437 H   0  0  0  0  0  0  0  0  0  0  0  0
    4.8795   -2.4696    2.1541 H   0  0  0  0  0  0  0  0  0  0  0  0
    5.0355   -0.3024    3.7064 H   0  0  0  0  0  0  0  0  0  0  0  0
    3.5660    0.1358    4.5458 H   0  0  0  0  0  0  0  0  0  0  0  0
    1.9385   -2.2537    1.3489 H   0  0  0  0  0  0  0  0  0  0  0  0
    3.3451   -2.2068    0.3144 H   0  0  0  0  0  0  0  0  0  0  0  0
    1.9653   -0.5988   -0.5002 H   0  0  0  0  0  0  0  0  0  0  0  0
  1 12  1  0  0  0  0
  1 13  1  0  0  0  0
  2 16  1  0  0  0  0
  2  8  1  0  0  0  0
  3 19  1  0  0  0  0
  3 17  1  0  0  0  0
  4 21  1  0  0  0  0
  4 20  1  0  0  0  0
  5 22  1  0  0  0  0
  5  4  1  0  0  0  0
  6 24  1  0  0  0  0
  6  4  1  0  0  0  0
  6 25  1  0  0  0  0
  7 10  1  0  0  0  0
  7 26  1  0  0  0  0
  7  5  1  0  0  0  0
  8  1  1  0  0  0  0
  8 10  1  0  0  0  0
  9  3  1  0  0  0  0
  9  6  1  0  0  0  0
 10  9  2  0  0  0  0
 11  1  1  0  0  0  0
 14  2  1  0  0  0  0
 15  2  1  0  0  0  0
 18  3  1  0  0  0  0
 23  5  1  0  0  0  0
 27  7  1  0  0  0  0
 28  8  1  0  0  0  0
M  END
>  <HBA>
0

>  <HBD>
0

>  <TPSA>
0.0

>  <cid>
25445

>  <dipole>
0.07

>  <excitation_energy_1>
5.354

>  <excitation_energy_2>
5.756

>  <excitation_energy_3>
5.785

>  <excitation_energy_4>
5.923

>  <homo_energy>
-5.85

>  <homo_lumo_gap>
6.811

>  <logP>
3.533

>  <lumo_energy>
0.961

>  <melting_point>
9.99

>  <molecular_refractivity>
47.6

>  <oscillator_strength_1>
0.0069

>  <oscillator_strength_2>
0.0099

>  <oscillator_strength_3>
0.0024

>  <oscillator_strength_4>
0.0511

>  <open_babel_can_smiles>
CC(C1=C(C)CCCC1)C

>  <mulliken_charges>
28
1   -0.441324
2   -0.441658
3   -0.517863
4   -0.260328
5   -0.260773
6   -0.318303
7   -0.335069
8   -0.140689
9   0.107535
10   0.11137
11   0.135276
12   0.145297
13   0.14294
14   0.136759
15   0.143189
16   0.147162
17   0.150214
18   0.154938
19   0.146402
20   0.127536
21   0.132588
22   0.127713
23   0.132622
24   0.137305
25   0.134397
26   0.138756
27   0.137632
28   0.126377

>  <lowdin_charges>
28
1   -0.445366
2   -0.443028
3   -0.446639
4   -0.27483
5   -0.273057
6   -0.27409
7   -0.275701
8   -0.120492
9   -0.034217
10   -0.040783
11   0.145327
12   0.148895
13   0.151011
14   0.145293
15   0.150039
16   0.148258
17   0.154463
18   0.15492
19   0.152042
20   0.143516
21   0.138396
22   0.140827
23   0.138344
24   0.141236
25   0.145692
26   0.142186
27   0.144988
28   0.142769

$$$$

