PCCDB-ID:  23734
public computational chemistry database (PCCDB) project, http://pccdb.org

 36 35  0  0  0  0  0  0  0  0999 V2000
    0.7841    0.2167   -2.0357 C   0  0  0  0  0  0  0  0  0  0  0  0
    1.9033    1.1012   -1.4762 C   0  0  0  0  0  0  0  0  0  0  0  0
    2.9610    1.4744   -2.5231 C   0  0  0  0  0  0  0  0  0  0  0  0
    4.0846    2.3606   -1.9707 C   0  0  0  0  0  0  0  0  0  0  0  0
    5.1378    2.7397   -3.0202 C   0  0  0  0  0  0  0  0  0  0  0  0
    6.2608    3.6263   -2.4673 C   0  0  0  0  0  0  0  0  0  0  0  0
    7.3081    4.0135   -3.5204 C   0  0  0  0  0  0  0  0  0  0  0  0
    8.4273    4.8992   -2.9557 C   0  0  0  0  0  0  0  0  0  0  0  0
    9.5165    5.2820   -3.9716 C   0  0  0  0  0  0  0  0  0  0  0  0
    9.0541    6.1986   -5.0968 C   0  0  0  0  0  0  0  0  0  0  0  0
    8.1351    8.4578   -5.2088 C   0  0  0  0  0  0  0  0  0  0  0  0
    8.6204    7.4457   -4.4942 O   0  0  0  0  0  0  0  0  0  0  0  0
    7.6419    9.8477   -4.4803 S   0  0  0  0  0  0  0  0  0  0  0  0
    8.0758    8.1668   -6.9849 S   0  0  0  0  0  0  0  0  0  0  0  0
    0.0451   -0.0292   -1.2645 H   0  0  0  0  0  0  0  0  0  0  0  0
    1.1822   -0.7273   -2.4282 H   0  0  0  0  0  0  0  0  0  0  0  0
    0.2557    0.7182   -2.8558 H   0  0  0  0  0  0  0  0  0  0  0  0
    2.3910    0.5868   -0.6361 H   0  0  0  0  0  0  0  0  0  0  0  0
    1.4690    2.0204   -1.0579 H   0  0  0  0  0  0  0  0  0  0  0  0
    2.4722    1.9892   -3.3636 H   0  0  0  0  0  0  0  0  0  0  0  0
    3.3948    0.5544   -2.9431 H   0  0  0  0  0  0  0  0  0  0  0  0
    4.5760    1.8444   -1.1327 H   0  0  0  0  0  0  0  0  0  0  0  0
    3.6488    3.2778   -1.5472 H   0  0  0  0  0  0  0  0  0  0  0  0
    4.6459    3.2577   -3.8566 H   0  0  0  0  0  0  0  0  0  0  0  0
    5.5729    1.8227   -3.4451 H   0  0  0  0  0  0  0  0  0  0  0  0
    6.7588    3.1076   -1.6349 H   0  0  0  0  0  0  0  0  0  0  0  0
    5.8253    4.5402   -2.0378 H   0  0  0  0  0  0  0  0  0  0  0  0
    6.8010    4.5270   -4.3498 H   0  0  0  0  0  0  0  0  0  0  0  0
    7.7466    3.0998   -3.9494 H   0  0  0  0  0  0  0  0  0  0  0  0
    8.9121    4.3729   -2.1229 H   0  0  0  0  0  0  0  0  0  0  0  0
    7.9973    5.8151   -2.5310 H   0  0  0  0  0  0  0  0  0  0  0  0
    9.9277    4.3783   -4.4428 H   0  0  0  0  0  0  0  0  0  0  0  0
   10.3485    5.7741   -3.4535 H   0  0  0  0  0  0  0  0  0  0  0  0
    8.2154    5.7693   -5.6563 H   0  0  0  0  0  0  0  0  0  0  0  0
    9.8745    6.4114   -5.7917 H   0  0  0  0  0  0  0  0  0  0  0  0
    7.5634    9.3807   -7.2539 H   0  0  0  0  0  0  0  0  0  0  0  0
  1  2  1  0  0  0  0
  1 15  1  0  0  0  0
  2 19  1  0  0  0  0
  2 18  1  0  0  0  0
  3  4  1  0  0  0  0
  3  2  1  0  0  0  0
  4 23  1  0  0  0  0
  4 22  1  0  0  0  0
  5  6  1  0  0  0  0
  5  4  1  0  0  0  0
  6 27  1  0  0  0  0
  6 26  1  0  0  0  0
  7  8  1  0  0  0  0
  7  6  1  0  0  0  0
  8 31  1  0  0  0  0
  8 30  1  0  0  0  0
  9 33  1  0  0  0  0
  9  8  1  0  0  0  0
 10 12  1  0  0  0  0
 10  9  1  0  0  0  0
 11 12  1  0  0  0  0
 11 13  2  0  0  0  0
 14 11  1  0  0  0  0
 16  1  1  0  0  0  0
 17  1  1  0  0  0  0
 20  3  1  0  0  0  0
 21  3  1  0  0  0  0
 24  5  1  0  0  0  0
 25  5  1  0  0  0  0
 28  7  1  0  0  0  0
 29  7  1  0  0  0  0
 32  9  1  0  0  0  0
 34 10  1  0  0  0  0
 35 10  1  0  0  0  0
 36 14  1  0  0  0  0
M  END
>  <HBA>
3

>  <HBD>
1

>  <TPSA>
80.12

>  <cid>
23734

>  <dipole>
3.78

>  <excitation_energy_1>
3.338

>  <excitation_energy_2>
4.619

>  <excitation_energy_3>
4.989

>  <excitation_energy_4>
5.086

>  <homo_energy>
-6.114

>  <homo_lumo_gap>
4.759

>  <logP>
4.358

>  <lumo_energy>
-1.355

>  <melting_point>
11.79

>  <molecular_refractivity>
71.8

>  <oscillator_strength_1>
0.0001

>  <oscillator_strength_2>
0.0175

>  <oscillator_strength_3>
0.1428

>  <oscillator_strength_4>
0.0004

>  <open_babel_can_smiles>
CCCCCCCCCCOC(=S)S

>  <mulliken_charges>
36
1   -0.44122
2   -0.24683
3   -0.245691
4   -0.252962
5   -0.254102
6   -0.25404
7   -0.261194
8   -0.262491
9   -0.28435
10   -0.08568
11   0.065588
12   -0.376703
13   -0.172777
14   0.001109
15   0.141686
16   0.140566
17   0.141236
18   0.129779
19   0.130827
20   0.126683
21   0.1255
22   0.126918
23   0.129136
24   0.128137
25   0.126026
26   0.128742
27   0.135156
28   0.131649
29   0.126465
30   0.137521
31   0.162831
32   0.144893
33   0.15977
34   0.179952
35   0.177479
36   0.14039

>  <lowdin_charges>
36
1   -0.446157
2   -0.273609
3   -0.275854
4   -0.27568
5   -0.275537
6   -0.27479
7   -0.279158
8   -0.280475
9   -0.282286
10   -0.135536
11   -0.107666
12   -0.151439
13   -0.137373
14   -0.004599
15   0.15003
16   0.145883
17   0.147172
18   0.139518
19   0.139527
20   0.138261
21   0.137144
22   0.138506
23   0.13909
24   0.138904
25   0.137408
26   0.139383
27   0.14219
28   0.138708
29   0.137137
30   0.147737
31   0.155409
32   0.153791
33   0.159465
34   0.160105
35   0.162121
36   0.152669

$$$$

