PCCDB-ID:  44776
public computational chemistry database (PCCDB) project, http://pccdb.org

 20 20  0  0  1  0  0  0  0  0999 V2000
    1.2357   -0.6946    0.0395 C   0  0  0  0  0  0  0  0  0  0  0  0
   -0.3737   -2.7694   -0.0419 C   0  0  0  0  0  0  0  0  0  0  0  0
   -1.1098   -2.5785   -2.0376 C   0  0  0  0  0  0  0  0  0  0  0  0
    0.2526   -1.6546   -0.5526 C   0  0  0  0  0  0  0  0  0  0  0  0
    2.6910   -0.8650   -0.4400 C   0  0  1  0  0  0  0  0  0  0  0  0
    2.8124   -0.5918   -1.9544 C   0  0  0  0  0  0  0  0  0  0  0  0
    3.5577    0.0546    0.3034 N   0  0  0  0  0  0  0  0  0  0  0  0
   -1.2178   -3.3389   -0.9685 N   0  0  0  0  0  0  0  0  0  0  0  0
   -0.2390   -1.5458   -1.8426 N   0  0  0  0  0  0  0  0  0  0  0  0
    2.0794    0.1611   -2.5589 O   0  0  0  0  0  0  0  0  0  0  0  0
    4.2235   -1.3182   -2.8379 S   0  0  0  0  0  0  0  0  0  0  0  0
    1.2497   -0.8218    1.1259 H   0  0  0  0  0  0  0  0  0  0  0  0
    0.9273    0.3407   -0.1571 H   0  0  0  0  0  0  0  0  0  0  0  0
   -0.2657   -3.1877    0.9509 H   0  0  0  0  0  0  0  0  0  0  0  0
   -1.6337   -2.7236   -2.9731 H   0  0  0  0  0  0  0  0  0  0  0  0
    3.0203   -1.8873   -0.2276 H   0  0  0  0  0  0  0  0  0  0  0  0
    3.3144    1.0189    0.0782 H   0  0  0  0  0  0  0  0  0  0  0  0
    4.5360   -0.0714    0.0496 H   0  0  0  0  0  0  0  0  0  0  0  0
    0.0462   -0.8404   -2.5094 H   0  0  0  0  0  0  0  0  0  0  0  0
    4.6547   -2.1277   -1.8471 H   0  0  0  0  0  0  0  0  0  0  0  0
  1 12  1  0  0  0  0
  2 14  1  0  0  0  0
  3  9  1  0  0  0  0
  3  8  2  0  0  0  0
  4  2  2  0  0  0  0
  4  1  1  0  0  0  0
  5 16  1  1  0  0  0
  5  1  1  0  0  0  0
  5  7  1  0  0  0  0
  6  5  1  0  0  0  0
  8  2  1  0  0  0  0
  9  4  1  0  0  0  0
 10  6  2  0  0  0  0
 11  6  1  0  0  0  0
 11 20  1  0  0  0  0
 13  1  1  0  0  0  0
 15  3  1  0  0  0  0
 17  7  1  0  0  0  0
 18  7  1  0  0  0  0
 19  9  1  0  0  0  0
M  END
>  <HBA>
4

>  <HBD>
3

>  <TPSA>
110.57

>  <cid>
44776

>  <dipole>
3.84

>  <excitation_energy_1>
3.806

>  <excitation_energy_2>
4.378

>  <excitation_energy_3>
4.809

>  <excitation_energy_4>
5.151

>  <homo_energy>
-5.938

>  <homo_lumo_gap>
4.645

>  <logP>
0.436

>  <lumo_energy>
-1.293

>  <melting_point>
164.5

>  <molecular_refractivity>
44.0

>  <oscillator_strength_1>
0.0016

>  <oscillator_strength_2>
0.0131

>  <oscillator_strength_3>
0.0014

>  <oscillator_strength_4>
0.0028

>  <open_babel_can_smiles>
N[C@H](C(=O)S)Cc1cnc[nH]1

>  <mulliken_charges>
20
1   -0.346663
2   -0.085628
3   0.206018
4   0.309949
5   -0.038967
6   0.277948
7   -0.696056
8   -0.426305
9   -0.604325
10   -0.438288
11   -0.015176
12   0.181404
13   0.161135
14   0.128631
15   0.15362
16   0.156598
17   0.315127
18   0.312443
19   0.353411
20   0.095124

>  <lowdin_charges>
20
1   -0.270805
2   -0.170718
3   -0.093575
4   -0.023018
5   -0.088161
6   0.039795
7   -0.520423
8   -0.189463
9   -0.185948
10   -0.245319
11   -0.015848
12   0.175015
13   0.159609
14   0.157699
15   0.165891
16   0.156272
17   0.265219
18   0.263835
19   0.300201
20   0.119742

$$$$

