PCCDB-ID:  29917
public computational chemistry database (PCCDB) project, http://pccdb.org

 26 27  0  0  1  0  0  0  0  0999 V2000
    0.7100   -0.2814   -0.0694 C   0  0  0  0  0  0  0  0  0  0  0  0
    2.2373   -0.2750    0.0551 C   0  0  0  0  0  0  0  0  0  0  0  0
    2.2628    1.8145   -4.6336 C   0  0  0  0  0  0  0  0  0  0  0  0
    1.7985    0.4998   -4.6530 C   0  0  0  0  0  0  0  0  0  0  0  0
    2.9362    2.2854   -3.5050 C   0  0  0  0  0  0  0  0  0  0  0  0
    2.0140   -0.3432   -3.5604 C   0  0  0  0  0  0  0  0  0  0  0  0
    3.1419    1.4426   -2.4139 C   0  0  0  0  0  0  0  0  0  0  0  0
    2.9409   -2.3366   -1.3726 C   0  0  0  0  0  0  0  0  0  0  0  0
    2.6963    0.1093   -2.4238 C   0  0  0  0  0  0  0  0  0  0  0  0
    4.4319   -1.1259   -0.9738 C   0  0  0  0  0  0  0  0  0  0  0  0
    2.9673   -0.7737   -1.2159 C   0  0  1  0  0  0  0  0  0  0  0  0
    4.4035   -2.4060   -1.0457 N   0  0  0  0  0  0  0  0  0  0  0  0
    5.5096   -0.3659   -0.7026 O   0  0  0  0  0  0  0  0  0  0  0  0
    0.2476    0.0709    0.8591 H   0  0  0  0  0  0  0  0  0  0  0  0
    0.3307   -1.2909   -0.2669 H   0  0  0  0  0  0  0  0  0  0  0  0
    0.3718    0.3686   -0.8829 H   0  0  0  0  0  0  0  0  0  0  0  0
    2.5457   -0.9093    0.8958 H   0  0  0  0  0  0  0  0  0  0  0  0
    2.5785    0.7411    0.2944 H   0  0  0  0  0  0  0  0  0  0  0  0
    2.0972    2.4681   -5.4854 H   0  0  0  0  0  0  0  0  0  0  0  0
    1.2650    0.1236   -5.5219 H   0  0  0  0  0  0  0  0  0  0  0  0
    3.2960    3.3103   -3.4709 H   0  0  0  0  0  0  0  0  0  0  0  0
    1.6404   -1.3614   -3.5968 H   0  0  0  0  0  0  0  0  0  0  0  0
    3.6376    1.8437   -1.5303 H   0  0  0  0  0  0  0  0  0  0  0  0
    2.7338   -2.7218   -2.3746 H   0  0  0  0  0  0  0  0  0  0  0  0
    2.3119   -2.8617   -0.6452 H   0  0  0  0  0  0  0  0  0  0  0  0
    5.2942    0.5598   -0.8969 H   0  0  0  0  0  0  0  0  0  0  0  0
  1  2  1  0  0  0  0
  1 14  1  0  0  0  0
  2 18  1  0  0  0  0
  2 17  1  0  0  0  0
  3  5  1  0  0  0  0
  4  3  2  0  0  0  0
  4  6  1  0  0  0  0
  5 21  1  0  0  0  0
  5  7  2  0  0  0  0
  6  9  2  0  0  0  0
  7 23  1  0  0  0  0
  8 11  1  0  0  0  0
  8 12  1  0  0  0  0
  8 25  1  0  0  0  0
  9  7  1  0  0  0  0
  9 11  1  0  0  0  0
 10 13  1  0  0  0  0
 11 10  1  0  0  0  0
 11  2  1  1  0  0  0
 12 10  2  0  0  0  0
 15  1  1  0  0  0  0
 16  1  1  0  0  0  0
 19  3  1  0  0  0  0
 20  4  1  0  0  0  0
 22  6  1  0  0  0  0
 24  8  1  0  0  0  0
 26 13  1  0  0  0  0
M  END
>  <HBA>
2

>  <HBD>
1

>  <TPSA>
29.1

>  <cid>
29917

>  <dipole>
4.36

>  <excitation_energy_1>
5.161

>  <excitation_energy_2>
5.417

>  <excitation_energy_3>
5.632

>  <excitation_energy_4>
5.715

>  <homo_energy>
-6.534

>  <homo_lumo_gap>
6.071

>  <logP>
1.793

>  <lumo_energy>
-0.463

>  <melting_point>
82.59

>  <molecular_refractivity>
55.32

>  <oscillator_strength_1>
0.0058

>  <oscillator_strength_2>
0.0665

>  <oscillator_strength_3>
0.0025

>  <oscillator_strength_4>
0.006

>  <open_babel_can_smiles>
CC[C@@]1(CN=C1O)c1ccccc1

>  <mulliken_charges>
26
1   -0.450876
2   -0.262709
3   -0.127702
4   -0.128652
5   -0.126895
6   -0.178936
7   -0.198647
8   -0.155777
9   0.162641
10   0.504607
11   -0.125032
12   -0.433464
13   -0.587983
14   0.150167
15   0.148907
16   0.159465
17   0.151933
18   0.133604
19   0.135101
20   0.136391
21   0.134913
22   0.134981
23   0.11178
24   0.151684
25   0.143925
26   0.416573

>  <lowdin_charges>
26
1   -0.44798
2   -0.267355
3   -0.15778
4   -0.148721
5   -0.148795
6   -0.163851
7   -0.180037
8   -0.196391
9   -0.001732
10   0.099519
11   -0.024491
12   -0.217572
13   -0.343596
14   0.155194
15   0.149221
16   0.157045
17   0.1531
18   0.140709
19   0.161436
20   0.161587
21   0.159031
22   0.159594
23   0.145107
24   0.148819
25   0.146881
26   0.361056

$$$$

