PCCDB-ID:  13634
public computational chemistry database (PCCDB) project, http://pccdb.org

 29 29  0  0  0  0  0  0  0  0999 V2000
    1.2425    0.0106    1.5049 C   0  0  0  0  0  0  0  0  0  0  0  0
    1.8449    1.1502   -3.4955 C   0  0  0  0  0  0  0  0  0  0  0  0
    4.1309    0.1152   -3.7724 C   0  0  0  0  0  0  0  0  0  0  0  0
    2.0759   -0.1111    0.2278 C   0  0  0  0  0  0  0  0  0  0  0  0
    1.8235    3.4143   -0.2865 C   0  0  0  0  0  0  0  0  0  0  0  0
    3.1003    3.2934    0.5832 C   0  0  0  0  0  0  0  0  0  0  0  0
    3.5112    1.0967   -1.5385 C   0  0  0  0  0  0  0  0  0  0  0  0
    2.9730    0.3779   -2.7952 C   0  0  0  0  0  0  0  0  0  0  0  0
    2.5818    1.2298   -0.3108 C   0  0  0  0  0  0  0  0  0  0  0  0
    1.4562    2.0699   -0.5733 O   0  0  0  0  0  0  0  0  0  0  0  0
    3.3008    1.8943    0.7329 O   0  0  0  0  0  0  0  0  0  0  0  0
    0.9005   -0.9766    1.8349 H   0  0  0  0  0  0  0  0  0  0  0  0
    0.3626    0.6377    1.3336 H   0  0  0  0  0  0  0  0  0  0  0  0
    1.8295    0.4583    2.3117 H   0  0  0  0  0  0  0  0  0  0  0  0
    1.5013    0.6115   -4.3873 H   0  0  0  0  0  0  0  0  0  0  0  0
    2.1983    2.1372   -3.8244 H   0  0  0  0  0  0  0  0  0  0  0  0
    0.9907    1.3090   -2.8338 H   0  0  0  0  0  0  0  0  0  0  0  0
    3.7787   -0.4064   -4.6703 H   0  0  0  0  0  0  0  0  0  0  0  0
    4.9147   -0.4980   -3.3119 H   0  0  0  0  0  0  0  0  0  0  0  0
    4.5923    1.0572   -4.0972 H   0  0  0  0  0  0  0  0  0  0  0  0
    1.4848   -0.5910   -0.5602 H   0  0  0  0  0  0  0  0  0  0  0  0
    2.9491   -0.7522    0.4029 H   0  0  0  0  0  0  0  0  0  0  0  0
    2.0131    3.9770   -1.2104 H   0  0  0  0  0  0  0  0  0  0  0  0
    0.9888    3.8867    0.2416 H   0  0  0  0  0  0  0  0  0  0  0  0
    2.9821    3.7279    1.5809 H   0  0  0  0  0  0  0  0  0  0  0  0
    3.9647    3.7684    0.0985 H   0  0  0  0  0  0  0  0  0  0  0  0
    3.8433    2.1049   -1.8257 H   0  0  0  0  0  0  0  0  0  0  0  0
    4.4086    0.5741   -1.1824 H   0  0  0  0  0  0  0  0  0  0  0  0
    2.5775   -0.6010   -2.4894 H   0  0  0  0  0  0  0  0  0  0  0  0
  1 12  1  0  0  0  0
  1 14  1  0  0  0  0
  2 17  1  0  0  0  0
  2  8  1  0  0  0  0
  3 19  1  0  0  0  0
  3  8  1  0  0  0  0
  4 22  1  0  0  0  0
  4  1  1  0  0  0  0
  5 24  1  0  0  0  0
  5  6  1  0  0  0  0
  6 11  1  0  0  0  0
  6 25  1  0  0  0  0
  7 28  1  0  0  0  0
  7  9  1  0  0  0  0
  8 29  1  0  0  0  0
  8  7  1  0  0  0  0
  9  4  1  0  0  0  0
  9 11  1  0  0  0  0
 10  9  1  0  0  0  0
 10  5  1  0  0  0  0
 13  1  1  0  0  0  0
 15  2  1  0  0  0  0
 16  2  1  0  0  0  0
 18  3  1  0  0  0  0
 20  3  1  0  0  0  0
 21  4  1  0  0  0  0
 23  5  1  0  0  0  0
 26  6  1  0  0  0  0
 27  7  1  0  0  0  0
M  END
>  <HBA>
2

>  <HBD>
0

>  <TPSA>
18.46

>  <cid>
13634

>  <dipole>
1.15

>  <excitation_energy_1>
6.379

>  <excitation_energy_2>
6.621

>  <excitation_energy_3>
6.628

>  <excitation_energy_4>
6.773

>  <homo_energy>
-6.759

>  <homo_lumo_gap>
8.746

>  <logP>
2.186

>  <lumo_energy>
1.986

>  <melting_point>
-12.85

>  <molecular_refractivity>
45.47

>  <oscillator_strength_1>
0.0026

>  <oscillator_strength_2>
0.0003

>  <oscillator_strength_3>
0.014

>  <oscillator_strength_4>
0.02

>  <open_babel_can_smiles>
CCC1(OCCO1)CC(C)C

>  <mulliken_charges>
29
1   -0.452061
2   -0.446526
3   -0.441883
4   -0.280506
5   -0.049192
6   -0.052023
7   -0.266164
8   -0.076964
9   0.5255
10   -0.504666
11   -0.508353
12   0.136442
13   0.155868
14   0.158433
15   0.132451
16   0.128904
17   0.170527
18   0.14027
19   0.138828
20   0.137348
21   0.148186
22   0.140664
23   0.13831
24   0.150503
25   0.150946
26   0.137168
27   0.121957
28   0.139659
29   0.126374

>  <lowdin_charges>
29
1   -0.447706
2   -0.45213
3   -0.445089
4   -0.284756
5   -0.147775
6   -0.147375
7   -0.296084
8   -0.121343
9   0.210791
10   -0.26295
11   -0.264581
12   0.147611
13   0.154724
14   0.156363
15   0.144633
16   0.140778
17   0.161565
18   0.148453
19   0.147446
20   0.14469
21   0.154851
22   0.152015
23   0.136884
24   0.150991
25   0.150224
26   0.136001
27   0.14239
28   0.152504
29   0.136874

$$$$

