PCCDB-ID:  54380
public computational chemistry database (PCCDB) project, http://pccdb.org

 24 25  0  0  1  0  0  0  0  0999 V2000
    1.4858    1.3924    2.6971 C   0  0  0  0  0  0  0  0  0  0  0  0
    2.8645    1.2517    2.0562 C   0  0  0  0  0  0  0  0  0  0  0  0
    6.8174   -1.6572    2.1418 C   0  0  0  0  0  0  0  0  0  0  0  0
    5.2758   -1.6844    2.0287 C   0  0  0  0  0  0  0  0  0  0  0  0
    7.1792    0.8988    1.8178 C   0  0  0  0  0  0  0  0  0  0  0  0
    7.1392   -0.2875    2.7502 C   0  0  1  0  0  0  0  0  0  0  0  0
    5.9182    0.5975    2.5857 C   0  0  2  0  0  0  0  0  0  0  0  0
    4.8255   -0.2135    1.8665 C   0  0  2  0  0  0  0  0  0  0  0  0
    3.5058    0.0011    2.4628 N   0  0  0  0  0  0  0  0  0  0  0  0
    1.0172    2.3409    2.4126 H   0  0  0  0  0  0  0  0  0  0  0  0
    1.5630    1.3527    3.7885 H   0  0  0  0  0  0  0  0  0  0  0  0
    0.8168    0.5829    2.3773 H   0  0  0  0  0  0  0  0  0  0  0  0
    3.5065    2.0802    2.3809 H   0  0  0  0  0  0  0  0  0  0  0  0
    2.7778    1.3446    0.9553 H   0  0  0  0  0  0  0  0  0  0  0  0
    7.2922   -1.7783    1.1589 H   0  0  0  0  0  0  0  0  0  0  0  0
    7.1859   -2.4737    2.7718 H   0  0  0  0  0  0  0  0  0  0  0  0
    4.8510   -2.0478    2.9735 H   0  0  0  0  0  0  0  0  0  0  0  0
    4.9106   -2.3344    1.2236 H   0  0  0  0  0  0  0  0  0  0  0  0
    7.1874    0.7121    0.7442 H   0  0  0  0  0  0  0  0  0  0  0  0
    7.7669    1.7626    2.1198 H   0  0  0  0  0  0  0  0  0  0  0  0
    7.7389   -0.2473    3.6558 H   0  0  0  0  0  0  0  0  0  0  0  0
    5.6001    1.2736    3.3744 H   0  0  0  0  0  0  0  0  0  0  0  0
    4.8229    0.0535    0.7901 H   0  0  0  0  0  0  0  0  0  0  0  0
    2.8993   -0.7736    2.1933 H   0  0  0  0  0  0  0  0  0  0  0  0
  1 11  1  0  0  0  0
  2 13  1  0  0  0  0
  2  9  1  0  0  0  0
  2  1  1  0  0  0  0
  3  6  1  0  0  0  0
  3 16  1  0  0  0  0
  4  3  1  0  0  0  0
  4 17  1  0  0  0  0
  5 20  1  0  0  0  0
  5  7  1  0  0  0  0
  5  6  1  0  0  0  0
  6 21  1  1  0  0  0
  7  6  1  0  0  0  0
  7 22  1  1  0  0  0
  8 23  1  6  0  0  0
  8  4  1  0  0  0  0
  8  9  1  0  0  0  0
  8  7  1  0  0  0  0
 10  1  1  0  0  0  0
 12  1  1  0  0  0  0
 14  2  1  0  0  0  0
 15  3  1  0  0  0  0
 18  4  1  0  0  0  0
 19  5  1  0  0  0  0
 24  9  1  0  0  0  0
M  END
>  <HBA>
1

>  <HBD>
1

>  <TPSA>
12.03

>  <cid>
54380

>  <dipole>
0.71

>  <excitation_energy_1>
5.5

>  <excitation_energy_2>
5.823

>  <excitation_energy_3>
5.939

>  <excitation_energy_4>
6.04

>  <homo_energy>
-5.872

>  <homo_lumo_gap>
8.3

>  <logP>
1.785

>  <lumo_energy>
2.427

>  <melting_point>
44.44

>  <molecular_refractivity>
39.14

>  <oscillator_strength_1>
0.0043

>  <oscillator_strength_2>
0.0026

>  <oscillator_strength_3>
0.0489

>  <oscillator_strength_4>
0.0432

>  <open_babel_can_smiles>
CCN[C@@H]1CC[C@@H]2[C@H]1C2

>  <mulliken_charges>
24
1   -0.449849
2   -0.113499
3   -0.283085
4   -0.291218
5   -0.319299
6   -0.121636
7   -0.116861
8   0.068109
9   -0.569784
10   0.143115
11   0.158169
12   0.136855
13   0.144036
14   0.110325
15   0.136274
16   0.139192
17   0.14819
18   0.126118
19   0.141435
20   0.14405
21   0.135775
22   0.142689
23   0.101222
24   0.289678

>  <lowdin_charges>
24
1   -0.447066
2   -0.197699
3   -0.275746
4   -0.287106
5   -0.313571
6   -0.16052
7   -0.167732
8   -0.056183
9   -0.362499
10   0.152054
11   0.153754
12   0.144956
13   0.143336
14   0.112445
15   0.141164
16   0.150912
17   0.149507
18   0.140057
19   0.148743
20   0.158216
21   0.1521
22   0.158159
23   0.111087
24   0.251631

$$$$

