PCCDB-ID:  72902
public computational chemistry database (PCCDB) project, http://pccdb.org

 25 27  0  0  0  0  0  0  0  0999 V2000
   -3.5856   -0.7228   -0.0218 C   0  0  0  0  0  0  0  0  0  0  0  0
   -3.6135    0.6839   -0.0497 C   0  0  0  0  0  0  0  0  0  0  0  0
   -2.3744   -1.3936    0.0033 C   0  0  0  0  0  0  0  0  0  0  0  0
   -2.4327    1.4128   -0.0520 C   0  0  0  0  0  0  0  0  0  0  0  0
    2.4099   -1.4083    0.0514 C   0  0  0  0  0  0  0  0  0  0  0  0
    2.4089    1.4590   -0.0150 C   0  0  0  0  0  0  0  0  0  0  0  0
    3.6075   -0.7400    0.0502 C   0  0  0  0  0  0  0  0  0  0  0  0
   -1.1544   -0.6841    0.0015 C   0  0  0  0  0  0  0  0  0  0  0  0
   -1.2054    0.7348   -0.0264 C   0  0  0  0  0  0  0  0  0  0  0  0
    1.1700   -0.7038    0.0244 C   0  0  0  0  0  0  0  0  0  0  0  0
    1.2202    0.7743   -0.0065 C   0  0  0  0  0  0  0  0  0  0  0  0
    3.6652    0.7667    0.0018 C   0  0  0  0  0  0  0  0  0  0  0  0
    4.8342   -1.3065    0.1049 N   0  0  0  0  0  0  0  0  0  0  0  0
    0.0329   -1.3712    0.0270 N   0  0  0  0  0  0  0  0  0  0  0  0
    0.0025    1.4019   -0.0264 N   0  0  0  0  0  0  0  0  0  0  0  0
    4.7757    1.3177   -0.0290 O   0  0  0  0  0  0  0  0  0  0  0  0
   -4.5169   -1.2812   -0.0199 H   0  0  0  0  0  0  0  0  0  0  0  0
   -4.5647    1.2077   -0.0697 H   0  0  0  0  0  0  0  0  0  0  0  0
   -2.3213   -2.4775    0.0253 H   0  0  0  0  0  0  0  0  0  0  0  0
   -2.4498    2.5004   -0.0734 H   0  0  0  0  0  0  0  0  0  0  0  0
    2.3571   -2.4925    0.0806 H   0  0  0  0  0  0  0  0  0  0  0  0
    2.4396    2.5448   -0.0460 H   0  0  0  0  0  0  0  0  0  0  0  0
    4.9714   -2.2964   -0.0237 H   0  0  0  0  0  0  0  0  0  0  0  0
    5.6126   -0.6668   -0.0079 H   0  0  0  0  0  0  0  0  0  0  0  0
   -0.0065    2.4149   -0.0483 H   0  0  0  0  0  0  0  0  0  0  0  0
  1 17  1  0  0  0  0
  1  3  1  0  0  0  0
  2  1  2  0  0  0  0
  3 19  1  0  0  0  0
  4  2  1  0  0  0  0
  4  9  2  0  0  0  0
  5 21  1  0  0  0  0
  6 11  2  0  0  0  0
  6 12  1  0  0  0  0
  7  5  2  0  0  0  0
  7 13  1  0  0  0  0
  8  3  2  0  0  0  0
  8 14  1  0  0  0  0
  9 15  1  0  0  0  0
  9  8  1  0  0  0  0
 10 14  2  0  0  0  0
 10  5  1  0  0  0  0
 11 10  1  0  0  0  0
 12  7  1  0  0  0  0
 15 11  1  0  0  0  0
 16 12  2  0  0  0  0
 18  2  1  0  0  0  0
 20  4  1  0  0  0  0
 22  6  1  0  0  0  0
 23 13  1  0  0  0  0
 24 13  1  0  0  0  0
 25 15  1  0  0  0  0
M  END
>  <HBA>
3

>  <HBD>
2

>  <TPSA>
71.77

>  <cid>
72902

>  <dipole>
2.76

>  <excitation_energy_1>
2.761

>  <excitation_energy_2>
3.05

>  <excitation_energy_3>
3.261

>  <excitation_energy_4>
3.826

>  <homo_energy>
-5.323

>  <homo_lumo_gap>
3.083

>  <logP>
2.24

>  <lumo_energy>
-2.24

>  <melting_point>
241.37

>  <molecular_refractivity>
64.27

>  <oscillator_strength_1>
0.0102

>  <oscillator_strength_2>
0.4813

>  <oscillator_strength_3>
0.0001

>  <oscillator_strength_4>
0.0008

>  <open_babel_can_smiles>
O=c1cc2[nH]c3ccccc3nc2cc1N

>  <mulliken_charges>
25
1   -0.136394
2   -0.137027
3   -0.16509
4   -0.188797
5   -0.260428
6   -0.316412
7   0.318541
8   0.26244
9   0.375425
10   0.297357
11   0.426591
12   0.423619
13   -0.796327
14   -0.594081
15   -0.79915
16   -0.55838
17   0.13551
18   0.137612
19   0.148085
20   0.131226
21   0.131507
22   0.128652
23   0.336578
24   0.361194
25   0.337751

>  <lowdin_charges>
25
1   -0.167349
2   -0.146
3   -0.143474
4   -0.187916
5   -0.243378
6   -0.269703
7   0.052462
8   0.016355
9   0.038939
10   0.056843
11   0.060776
12   0.127536
13   -0.432414
14   -0.151402
15   -0.161485
16   -0.309996
17   0.162644
18   0.16301
19   0.169841
20   0.156251
21   0.163989
22   0.161823
23   0.287368
24   0.302057
25   0.293222

$$$$

