PCCDB-ID:  24522 
public computational chemistry database (PCCDB) project, http://pccdb.org 
 
 22 22  0  0  0  0  0  0  0  0999 V2000 
    4.2213   -3.4063    2.4120 C   0  0  0  0  0  0  0  0  0  0  0  0 
    3.6289   -3.0366    1.0600 C   0  0  0  0  0  0  0  0  0  0  0  0 
    6.3229    2.0812   -0.8639 C   0  0  0  0  0  0  0  0  0  0  0  0 
    5.4378    1.3159   -0.1112 C   0  0  0  0  0  0  0  0  0  0  0  0 
    7.1925    1.4723   -1.7712 C   0  0  0  0  0  0  0  0  0  0  0  0 
    6.2904   -0.6963   -1.1763 C   0  0  0  0  0  0  0  0  0  0  0  0 
    5.4235   -0.0773   -0.2712 C   0  0  0  0  0  0  0  0  0  0  0  0 
    7.1755    0.0819   -1.9265 C   0  0  0  0  0  0  0  0  0  0  0  0 
    4.4590   -0.8615    0.5559 C   0  0  0  0  0  0  0  0  0  0  0  0 
    8.0012   -0.5746   -2.7971 O   0  0  0  0  0  0  0  0  0  0  0  0 
    3.6949   -0.3669    1.3628 O   0  0  0  0  0  0  0  0  0  0  0  0 
    4.5252   -2.1892    0.3045 O   0  0  0  0  0  0  0  0  0  0  0  0 
    3.5596   -4.1125    2.9267 H   0  0  0  0  0  0  0  0  0  0  0  0 
    4.3305   -2.5174    3.0394 H   0  0  0  0  0  0  0  0  0  0  0  0 
    5.2019   -3.8783    2.2916 H   0  0  0  0  0  0  0  0  0  0  0  0 
    2.6723   -2.5215    1.1752 H   0  0  0  0  0  0  0  0  0  0  0  0 
    3.4934   -3.9174    0.4273 H   0  0  0  0  0  0  0  0  0  0  0  0 
    6.3422    3.1613   -0.7494 H   0  0  0  0  0  0  0  0  0  0  0  0 
    4.7556    1.7702    0.5983 H   0  0  0  0  0  0  0  0  0  0  0  0 
    7.8837    2.0757   -2.3574 H   0  0  0  0  0  0  0  0  0  0  0  0 
    6.2861   -1.7715   -1.3064 H   0  0  0  0  0  0  0  0  0  0  0  0 
    8.5600    0.0734   -3.2534 H   0  0  0  0  0  0  0  0  0  0  0  0 
  1 13  1  0  0  0  0 
  1 14  1  0  0  0  0 
  2 16  1  0  0  0  0 
  2  1  1  0  0  0  0 
  3 18  1  0  0  0  0 
  3  4  2  0  0  0  0 
  4 19  1  0  0  0  0 
  5  3  1  0  0  0  0 
  6  7  2  0  0  0  0 
  7  4  1  0  0  0  0 
  7  9  1  0  0  0  0 
  8  5  2  0  0  0  0 
  8  6  1  0  0  0  0 
  9 11  2  0  0  0  0 
 10  8  1  0  0  0  0 
 12  9  1  0  0  0  0 
 12  2  1  0  0  0  0 
 15  1  1  0  0  0  0 
 17  2  1  0  0  0  0 
 20  5  1  0  0  0  0 
 21  6  1  0  0  0  0 
 22 10  1  0  0  0  0 
M  END 
>  <HBA> 
3 
 
>  <HBD> 
1 
 
>  <TPSA> 
46.53 
 
>  <cid> 
24522 
 
>  <dipole> 
2.18 
 
>  <excitation_energy_1> 
4.4 
 
>  <excitation_energy_2> 
4.839 
 
>  <excitation_energy_3> 
5.325 
 
>  <excitation_energy_4> 
5.35 
 
>  <homo_energy> 
-6.21 
 
>  <homo_lumo_gap> 
5.061 
 
>  <logP> 
1.569 
 
>  <lumo_energy> 
-1.148 
 
>  <melting_point> 
69.57 
 
>  <molecular_refractivity> 
44.55 
 
>  <oscillator_strength_1> 
0.0594 
 
>  <oscillator_strength_2> 
0.0004 
 
>  <oscillator_strength_3> 
0.1305 
 
>  <oscillator_strength_4> 
0.0 
 
>  <open_babel_can_smiles> 
CCOC(=O)c1cccc(c1)O 
 
>  <mulliken_charges> 
22 
1   -0.462088 
2   -0.041928 
3   -0.141641 
4   -0.158438 
5   -0.183422 
6   -0.198135 
7   0.045037 
8   0.352319 
9   0.596473 
10   -0.641429 
11   -0.493911 
12   -0.475597 
13   0.149457 
14   0.177764 
15   0.157476 
16   0.170977 
17   0.15221 
18   0.138361 
19   0.159737 
20   0.123856 
21   0.164522 
22   0.408399 
 
>  <lowdin_charges> 
22 
1   -0.456248 
2   -0.127759 
3   -0.142888 
4   -0.15587 
5   -0.201446 
6   -0.167918 
7   -0.034547 
8   0.101777 
9   0.201142 
10   -0.377705 
11   -0.274117 
12   -0.192808 
13   0.159708 
14   0.166546 
15   0.155849 
16   0.158975 
17   0.152684 
18   0.160458 
19   0.177827 
20   0.157133 
21   0.179319 
22   0.359888 
 
$$$$ 
 
