PCCDB-ID:  58044 
public computational chemistry database (PCCDB) project, http://pccdb.org 
 
 25 25  0  0  0  0  0  0  0  0999 V2000 
    7.2092    0.7845   -1.6075 C   0  0  0  0  0  0  0  0  0  0  0  0 
    3.4786   -4.9762    1.2476 C   0  0  0  0  0  0  0  0  0  0  0  0 
    6.4722   -0.3870   -2.2249 C   0  0  0  0  0  0  0  0  0  0  0  0 
    5.0762   -2.1021    2.8435 C   0  0  0  0  0  0  0  0  0  0  0  0 
    4.3842   -3.2922    2.9667 C   0  0  0  0  0  0  0  0  0  0  0  0 
    4.7431   -2.8277    0.8532 C   0  0  0  0  0  0  0  0  0  0  0  0 
    5.2155   -2.2481   -1.3690 C   0  0  0  0  0  0  0  0  0  0  0  0 
    5.2966   -1.8178    1.5407 N   0  0  0  0  0  0  0  0  0  0  0  0 
    4.6754   -3.0272   -0.5003 N   0  0  0  0  0  0  0  0  0  0  0  0 
    4.1678   -3.7623    1.6783 N   0  0  0  0  0  0  0  0  0  0  0  0 
    3.9623   -3.9383    4.1504 N   0  0  0  0  0  0  0  0  0  0  0  0 
    5.0754   -2.5357   -2.6782 O   0  0  0  0  0  0  0  0  0  0  0  0 
    4.2357   -3.3806    5.2200 O   0  0  0  0  0  0  0  0  0  0  0  0 
    3.3500   -5.0143    4.0546 O   0  0  0  0  0  0  0  0  0  0  0  0 
    5.9202   -1.1601   -1.1230 O   0  0  0  0  0  0  0  0  0  0  0  0 
    7.6464    1.4010   -2.4003 H   0  0  0  0  0  0  0  0  0  0  0  0 
    8.0129    0.4361   -0.9523 H   0  0  0  0  0  0  0  0  0  0  0  0 
    6.5277    1.4046   -1.0180 H   0  0  0  0  0  0  0  0  0  0  0  0 
    3.9772   -5.8585    1.6521 H   0  0  0  0  0  0  0  0  0  0  0  0 
    3.5097   -4.9867    0.1592 H   0  0  0  0  0  0  0  0  0  0  0  0 
    2.4461   -4.9703    1.6002 H   0  0  0  0  0  0  0  0  0  0  0  0 
    7.1377   -1.0313   -2.8073 H   0  0  0  0  0  0  0  0  0  0  0  0 
    5.6520   -0.0625   -2.8721 H   0  0  0  0  0  0  0  0  0  0  0  0 
    5.4116   -1.4628    3.6474 H   0  0  0  0  0  0  0  0  0  0  0  0 
    4.5419   -3.3493   -2.7160 H   0  0  0  0  0  0  0  0  0  0  0  0 
  1 18  1  0  0  0  0 
  1 17  1  0  0  0  0 
  2 21  1  0  0  0  0 
  2 19  1  0  0  0  0 
  2 10  1  0  0  0  0 
  3  1  1  0  0  0  0 
  3 15  1  0  0  0  0 
  4  5  2  0  0  0  0 
  4 24  1  0  0  0  0 
  5 11  1  0  0  0  0 
  6  8  2  0  0  0  0 
  6 10  1  0  0  0  0 
  7 15  1  0  0  0  0 
  7  9  2  0  0  0  0 
  8  4  1  0  0  0  0 
  9  6  1  0  0  0  0 
 10  5  1  0  0  0  0 
 11 13  2  0  0  0  0 
 12  7  1  0  0  0  0 
 14 11  2  0  0  0  0 
 16  1  1  0  0  0  0 
 20  2  1  0  0  0  0 
 22  3  1  0  0  0  0 
 23  3  1  0  0  0  0 
 25 12  1  0  0  0  0 
M  END 
>  <HBA> 
5 
 
>  <HBD> 
1 
 
>  <TPSA> 
101.97 
 
>  <cid> 
58044 
 
>  <dipole> 
7.8 
 
>  <excitation_energy_1> 
3.741 
 
>  <excitation_energy_2> 
3.81 
 
>  <excitation_energy_3> 
4.256 
 
>  <excitation_energy_4> 
4.768 
 
>  <homo_energy> 
-6.016 
 
>  <homo_lumo_gap> 
4.098 
 
>  <logP> 
1.493 
 
>  <lumo_energy> 
-1.918 
 
>  <melting_point> 
117.79 
 
>  <molecular_refractivity> 
52.9 
 
>  <oscillator_strength_1> 
0.3995 
 
>  <oscillator_strength_2> 
0.0004 
 
>  <oscillator_strength_3> 
0.0005 
 
>  <oscillator_strength_4> 
0.0 
 
>  <open_babel_can_smiles> 
CCO/C(=N\c1ncc(n1C)N(=O)=O)/O 
 
>  <mulliken_charges> 
25 
1   -0.459607 
2   -0.312644 
3   -0.040575 
4   0.012455 
5   0.501074 
6   0.682246 
7   0.768623 
8   -0.481896 
9   -0.616626 
10   -0.50572 
11   0.320259 
12   -0.593779 
13   -0.416131 
14   -0.435156 
15   -0.428331 
16   0.155705 
17   0.175998 
18   0.17683 
19   0.188401 
20   0.181785 
21   0.188544 
22   0.16661 
23   0.16722 
24   0.173132 
25   0.431582 
 
>  <lowdin_charges> 
25 
1   -0.449587 
2   -0.347493 
3   -0.119035 
4   -0.103139 
5   -0.017488 
6   0.110117 
7   0.229556 
8   -0.19765 
9   -0.257347 
10   -0.00471 
11   0.307388 
12   -0.345835 
13   -0.26719 
14   -0.280636 
15   -0.145006 
16   0.162933 
17   0.167886 
18   0.168822 
19   0.172993 
20   0.1707 
21   0.171328 
22   0.156577 
23   0.156345 
24   0.183463 
25   0.377007 
 
$$$$ 
 
