PCCDB-ID:  22458 
public computational chemistry database (PCCDB) project, http://pccdb.org 
 
 21 22  0  0  0  0  0  0  0  0999 V2000 
   -2.0361    0.3971   -0.0298 C   0  0  0  0  0  0  0  0  0  0  0  0 
   -1.1341    1.4467   -0.2258 C   0  0  0  0  0  0  0  0  0  0  0  0 
   -1.5578   -0.8886    0.2208 C   0  0  0  0  0  0  0  0  0  0  0  0 
    0.2389    1.2125   -0.1747 C   0  0  0  0  0  0  0  0  0  0  0  0 
   -0.1818   -1.1220    0.2774 C   0  0  0  0  0  0  0  0  0  0  0  0 
    2.2193   -0.3461    0.1155 C   0  0  0  0  0  0  0  0  0  0  0  0 
    3.9476    2.1574    1.8348 C   0  0  0  0  0  0  0  0  0  0  0  0 
    3.1877    0.2889    2.3835 C   0  0  0  0  0  0  0  0  0  0  0  0 
    0.7256   -0.0771    0.0792 C   0  0  0  0  0  0  0  0  0  0  0  0 
    3.8271    1.3233    2.9044 N   0  0  0  0  0  0  0  0  0  0  0  0 
    3.4330    1.7047    0.6992 N   0  0  0  0  0  0  0  0  0  0  0  0 
    2.9474    0.4886    1.0684 N   0  0  0  0  0  0  0  0  0  0  0  0 
   -3.1059    0.5825   -0.0728 H   0  0  0  0  0  0  0  0  0  0  0  0 
   -1.5020    2.4507   -0.4199 H   0  0  0  0  0  0  0  0  0  0  0  0 
   -2.2519   -1.7099    0.3768 H   0  0  0  0  0  0  0  0  0  0  0  0 
    0.9415    2.0280   -0.3220 H   0  0  0  0  0  0  0  0  0  0  0  0 
    0.1871   -2.1262    0.4763 H   0  0  0  0  0  0  0  0  0  0  0  0 
    2.6793   -0.1561   -0.8586 H   0  0  0  0  0  0  0  0  0  0  0  0 
    2.4115   -1.3912    0.3765 H   0  0  0  0  0  0  0  0  0  0  0  0 
    4.4358    3.1211    1.8891 H   0  0  0  0  0  0  0  0  0  0  0  0 
    2.8900   -0.6104    2.9060 H   0  0  0  0  0  0  0  0  0  0  0  0 
  1  3  2  0  0  0  0 
  2  4  2  0  0  0  0 
  2  1  1  0  0  0  0 
  3  5  1  0  0  0  0 
  3 15  1  0  0  0  0 
  4  9  1  0  0  0  0 
  5 17  1  0  0  0  0 
  6 19  1  0  0  0  0 
  6 12  1  0  0  0  0 
  7 20  1  0  0  0  0 
  7 10  2  0  0  0  0 
  8 10  1  0  0  0  0 
  8 21  1  0  0  0  0 
  9  6  1  0  0  0  0 
  9  5  2  0  0  0  0 
 11 12  1  0  0  0  0 
 11  7  1  0  0  0  0 
 12  8  1  0  0  0  0 
 13  1  1  0  0  0  0 
 14  2  1  0  0  0  0 
 16  4  1  0  0  0  0 
 18  6  1  0  0  0  0 
M  RAD  1  11   2 
M  END 
>  <HBA> 
3 
 
>  <HBD> 
0 
 
>  <TPSA> 
30.71 
 
>  <cid> 
22458 
 
>  <dipole> 
3.19 
 
>  <excitation_energy_1> 
5.303 
 
>  <excitation_energy_2> 
5.786 
 
>  <excitation_energy_3> 
5.957 
 
>  <excitation_energy_4> 
6.067 
 
>  <homo_energy> 
-6.865 
 
>  <homo_lumo_gap> 
6.457 
 
>  <logP> 
1.326 
 
>  <lumo_energy> 
-0.408 
 
>  <melting_point> 
66.88 
 
>  <molecular_refractivity> 
45.77 
 
>  <oscillator_strength_1> 
0.0003 
 
>  <oscillator_strength_2> 
0.0662 
 
>  <oscillator_strength_3> 
0.0013 
 
>  <oscillator_strength_4> 
0.0014 
 
>  <open_babel_can_smiles> 
N1=C[N]N(C1)Cc1ccccc1 
 
>  <mulliken_charges> 
21 
1   -0.125948 
2   -0.128993 
3   -0.12694 
4   -0.171597 
5   -0.186548 
6   -0.243633 
7   0.159451 
8   0.218954 
9   0.160628 
10   -0.435772 
11   -0.273542 
12   -0.226897 
13   0.134485 
14   0.137029 
15   0.13406 
16   0.16191 
17   0.125208 
18   0.196318 
19   0.167356 
20   0.156918 
21   0.167556 
 
>  <lowdin_charges> 
21 
1   -0.150394 
2   -0.149105 
3   -0.15505 
4   -0.156893 
5   -0.165902 
6   -0.19028 
7   -0.101475 
8   -0.084951 
9   -0.02004 
10   -0.189944 
11   -0.164301 
12   0.036963 
13   0.158421 
14   0.160528 
15   0.160933 
16   0.172799 
17   0.153986 
18   0.179304 
19   0.161768 
20   0.16816 
21   0.175475 
 
$$$$ 
 
