PCCDB-ID:  11004 
public computational chemistry database (PCCDB) project, http://pccdb.org 
 
 16 15  0  0  0  0  0  0  0  0999 V2000 
    0.8674   -0.0347    0.0854 C   0  0  0  0  0  0  0  0  0  0  0  0 
   -0.3586   -0.0275    0.0854 C   0  0  0  0  0  0  0  0  0  0  0  0 
    2.2234   -0.0408    0.0825 C   0  0  0  0  0  0  0  0  0  0  0  0 
   -1.7124   -0.0221    0.0885 C   0  0  0  0  0  0  0  0  0  0  0  0 
    3.4423   -0.0609    0.0981 C   0  0  0  0  0  0  0  0  0  0  0  0 
   -2.9346   -0.0224    0.0942 C   0  0  0  0  0  0  0  0  0  0  0  0 
    4.9076   -0.0532    0.0333 C   0  0  0  0  0  0  0  0  0  0  0  0 
   -4.3721    0.0342    0.1003 C   0  0  0  0  0  0  0  0  0  0  0  0 
   -5.0794    1.0934    0.0629 N   0  0  0  0  0  0  0  0  0  0  0  0 
    5.4280    0.9462   -0.8317 O   0  0  0  0  0  0  0  0  0  0  0  0 
   -5.0139   -1.1657    0.1491 O   0  0  0  0  0  0  0  0  0  0  0  0 
    5.2618   -1.0597   -0.2429 H   0  0  0  0  0  0  0  0  0  0  0  0 
    5.3186    0.1675    1.0249 H   0  0  0  0  0  0  0  0  0  0  0  0 
   -4.4808    1.9190    0.0309 H   0  0  0  0  0  0  0  0  0  0  0  0 
    5.0746    0.7814   -1.7204 H   0  0  0  0  0  0  0  0  0  0  0  0 
   -4.3557   -1.8780    0.1691 H   0  0  0  0  0  0  0  0  0  0  0  0 
  1  2  3  0  0  0  0 
  2  4  1  0  0  0  0 
  3  1  1  0  0  0  0 
  3  5  3  0  0  0  0 
  4  6  3  0  0  0  0 
  6  8  1  0  0  0  0 
  7  5  1  0  0  0  0 
  7 13  1  0  0  0  0 
  8 11  1  0  0  0  0 
  9  8  2  0  0  0  0 
 10  7  1  0  0  0  0 
 11 16  1  0  0  0  0 
 12  7  1  0  0  0  0 
 14  9  1  0  0  0  0 
 15 10  1  0  0  0  0 
M  END 
>  <HBA> 
3 
 
>  <HBD> 
2 
 
>  <TPSA> 
63.32 
 
>  <cid> 
11004 
 
>  <dipole> 
4.88 
 
>  <excitation_energy_1> 
3.237 
 
>  <excitation_energy_2> 
3.474 
 
>  <excitation_energy_3> 
3.628 
 
>  <excitation_energy_4> 
4.599 
 
>  <homo_energy> 
-6.743 
 
>  <homo_lumo_gap> 
4.381 
 
>  <logP> 
-0.826 
 
>  <lumo_energy> 
-2.362 
 
>  <melting_point> 
118.41 
 
>  <molecular_refractivity> 
39.13 
 
>  <oscillator_strength_1> 
0.002 
 
>  <oscillator_strength_2> 
0.0198 
 
>  <oscillator_strength_3> 
0.0054 
 
>  <oscillator_strength_4> 
0.0013 
 
>  <open_babel_can_smiles> 
OCC#CC#CC#CC(=N)O 
 
>  <mulliken_charges> 
16 
1   0.160002 
2   0.269601 
3   0.588377 
4   0.747187 
5   -0.832757 
6   -0.970746 
7   -0.131236 
8   0.392364 
9   -0.556725 
10   -0.585784 
11   -0.56716 
12   0.170507 
13   0.195802 
14   0.304632 
15   0.399749 
16   0.416187 
 
>  <lowdin_charges> 
16 
1   0.000654 
2   -0.025194 
3   -0.051961 
4   -0.019104 
5   -0.02914 
6   -0.077938 
7   -0.114347 
8   0.141605 
9   -0.356037 
10   -0.443206 
11   -0.349092 
12   0.157796 
13   0.178934 
14   0.272286 
15   0.349888 
16   0.364855 
 
$$$$ 
 
