PCCDB-ID:  29996 
public computational chemistry database (PCCDB) project, http://pccdb.org 
 
 31 30  0  0  0  0  0  0  0  0999 V2000 
    7.3733    3.8902   -0.8217 C   0  0  0  0  0  0  0  0  0  0  0  0 
    5.3085   -4.1893   -0.2717 C   0  0  0  0  0  0  0  0  0  0  0  0 
    8.0857    2.5376   -0.7029 C   0  0  0  0  0  0  0  0  0  0  0  0 
    4.4598   -2.9150   -0.3046 C   0  0  0  0  0  0  0  0  0  0  0  0 
    8.5032    2.1649    0.7304 C   0  0  0  0  0  0  0  0  0  0  0  0 
    7.3532    2.0071    1.7441 C   0  0  0  0  0  0  0  0  0  0  0  0 
    6.3107    0.9244    1.4114 C   0  0  0  0  0  0  0  0  0  0  0  0 
    5.2740   -1.6285   -0.1159 C   0  0  0  0  0  0  0  0  0  0  0  0 
    6.8758   -0.5096    1.4060 C   0  0  0  0  0  0  0  0  0  0  0  0 
    5.9146   -1.5932    1.1989 N   0  0  0  0  0  0  0  0  0  0  0  0 
    7.1616    4.1335   -1.8692 H   0  0  0  0  0  0  0  0  0  0  0  0 
    7.9909    4.6987   -0.4104 H   0  0  0  0  0  0  0  0  0  0  0  0 
    6.4184    3.8986   -0.2840 H   0  0  0  0  0  0  0  0  0  0  0  0 
    4.6848   -5.0856   -0.3663 H   0  0  0  0  0  0  0  0  0  0  0  0 
    5.8706   -4.2526    0.6644 H   0  0  0  0  0  0  0  0  0  0  0  0 
    6.0328   -4.1976   -1.0960 H   0  0  0  0  0  0  0  0  0  0  0  0 
    8.9872    2.5529   -1.3302 H   0  0  0  0  0  0  0  0  0  0  0  0 
    7.4447    1.7501   -1.1221 H   0  0  0  0  0  0  0  0  0  0  0  0 
    3.6863   -2.9647    0.4766 H   0  0  0  0  0  0  0  0  0  0  0  0 
    3.9198   -2.8456   -1.2586 H   0  0  0  0  0  0  0  0  0  0  0  0 
    9.1875    2.9384    1.1080 H   0  0  0  0  0  0  0  0  0  0  0  0 
    9.0920    1.2386    0.6964 H   0  0  0  0  0  0  0  0  0  0  0  0 
    6.8367    2.9692    1.8587 H   0  0  0  0  0  0  0  0  0  0  0  0 
    7.7903    1.7858    2.7287 H   0  0  0  0  0  0  0  0  0  0  0  0 
    5.8399    1.1430    0.4441 H   0  0  0  0  0  0  0  0  0  0  0  0 
    5.5045    0.9745    2.1586 H   0  0  0  0  0  0  0  0  0  0  0  0 
    4.6210   -0.7583   -0.3140 H   0  0  0  0  0  0  0  0  0  0  0  0 
    6.0737   -1.5925   -0.8698 H   0  0  0  0  0  0  0  0  0  0  0  0 
    7.3809   -0.6936    2.3651 H   0  0  0  0  0  0  0  0  0  0  0  0 
    7.6454   -0.6099    0.6299 H   0  0  0  0  0  0  0  0  0  0  0  0 
    5.1947   -1.5495    1.9201 H   0  0  0  0  0  0  0  0  0  0  0  0 
  1  3  1  0  0  0  0 
  1 12  1  0  0  0  0 
  1 13  1  0  0  0  0 
  2 15  1  0  0  0  0 
  3  5  1  0  0  0  0 
  4  2  1  0  0  0  0 
  4  8  1  0  0  0  0 
  4 19  1  0  0  0  0 
  5 21  1  0  0  0  0 
  5  6  1  0  0  0  0 
  6 23  1  0  0  0  0 
  6 24  1  0  0  0  0 
  7  6  1  0  0  0  0 
  7 26  1  0  0  0  0 
  8 10  1  0  0  0  0 
  9  7  1  0  0  0  0 
  9 29  1  0  0  0  0 
 10  9  1  0  0  0  0 
 10 31  1  0  0  0  0 
 11  1  1  0  0  0  0 
 14  2  1  0  0  0  0 
 16  2  1  0  0  0  0 
 17  3  1  0  0  0  0 
 18  3  1  0  0  0  0 
 20  4  1  0  0  0  0 
 22  5  1  0  0  0  0 
 25  7  1  0  0  0  0 
 27  8  1  0  0  0  0 
 28  8  1  0  0  0  0 
 30  9  1  0  0  0  0 
M  END 
>  <HBA> 
1 
 
>  <HBD> 
1 
 
>  <TPSA> 
12.03 
 
>  <cid> 
29996 
 
>  <dipole> 
1.03 
 
>  <excitation_energy_1> 
5.199 
 
>  <excitation_energy_2> 
5.469 
 
>  <excitation_energy_3> 
5.614 
 
>  <excitation_energy_4> 
5.681 
 
>  <homo_energy> 
-5.679 
 
>  <homo_lumo_gap> 
7.761 
 
>  <logP> 
2.957 
 
>  <lumo_energy> 
2.082 
 
>  <melting_point> 
-1.38 
 
>  <molecular_refractivity> 
48.18 
 
>  <oscillator_strength_1> 
0.0061 
 
>  <oscillator_strength_2> 
0.0038 
 
>  <oscillator_strength_3> 
0.0062 
 
>  <oscillator_strength_4> 
0.0044 
 
>  <open_babel_can_smiles> 
CCCCCCNCCC 
 
>  <mulliken_charges> 
31 
1   -0.444005 
2   -0.43433 
3   -0.251137 
4   -0.255774 
5   -0.25514 
6   -0.261068 
7   -0.271387 
8   -0.117504 
9   -0.130154 
10   -0.543435 
11   0.141954 
12   0.140956 
13   0.145924 
14   0.13456 
15   0.164963 
16   0.134996 
17   0.13132 
18   0.13354 
19   0.12465 
20   0.129039 
21   0.127187 
22   0.133199 
23   0.132796 
24   0.127238 
25   0.139806 
26   0.119996 
27   0.112119 
28   0.132188 
29   0.132098 
30   0.140708 
31   0.284697 
 
>  <lowdin_charges> 
31 
1   -0.447183 
2   -0.447382 
3   -0.277731 
4   -0.276543 
5   -0.280842 
6   -0.278448 
7   -0.298877 
8   -0.204737 
9   -0.208137 
10   -0.362311 
11   0.148643 
12   0.147003 
13   0.146643 
14   0.145837 
15   0.158135 
16   0.144388 
17   0.142785 
18   0.140055 
19   0.136804 
20   0.141481 
21   0.141611 
22   0.1411 
23   0.142164 
24   0.139971 
25   0.141123 
26   0.13772 
27   0.117891 
28   0.138996 
29   0.139533 
30   0.142154 
31   0.248153 
 
$$$$ 
 
