PCCDB-ID:  8784 
public computational chemistry database (PCCDB) project, http://pccdb.org 
 
 19 19  0  0  0  0  0  0  0  0999 V2000 
   -1.8214   -0.0971    0.2176 C   0  0  0  0  0  0  0  0  0  0  0  0 
   -1.1865    1.1014   -0.1256 C   0  0  0  0  0  0  0  0  0  0  0  0 
   -1.0662   -1.2597    0.3758 C   0  0  0  0  0  0  0  0  0  0  0  0 
    0.1913    1.1378   -0.3089 C   0  0  0  0  0  0  0  0  0  0  0  0 
    0.3145   -1.2225    0.1922 C   0  0  0  0  0  0  0  0  0  0  0  0 
    2.4202   -0.0537   -0.3312 C   0  0  0  0  0  0  0  0  0  0  0  0 
    3.2395    0.9614   -0.6629 C   0  0  0  0  0  0  0  0  0  0  0  0 
    0.9694   -0.0260   -0.1526 C   0  0  0  0  0  0  0  0  0  0  0  0 
    4.6985    0.7187   -0.7909 C   0  0  0  0  0  0  0  0  0  0  0  0 
    5.2373   -0.3519   -0.6235 O   0  0  0  0  0  0  0  0  0  0  0  0 
    5.4524    1.8076   -1.1218 O   0  0  0  0  0  0  0  0  0  0  0  0 
   -2.8982   -0.1215    0.3598 H   0  0  0  0  0  0  0  0  0  0  0  0 
   -1.7705    2.0092   -0.2500 H   0  0  0  0  0  0  0  0  0  0  0  0 
   -1.5510   -2.1944    0.6429 H   0  0  0  0  0  0  0  0  0  0  0  0 
    0.6675    2.0771   -0.5744 H   0  0  0  0  0  0  0  0  0  0  0  0 
    0.9020   -2.1288    0.3163 H   0  0  0  0  0  0  0  0  0  0  0  0 
    2.9025   -1.0181   -0.1763 H   0  0  0  0  0  0  0  0  0  0  0  0 
    2.8598    1.9660   -0.8406 H   0  0  0  0  0  0  0  0  0  0  0  0 
    4.8860    2.5896   -1.2227 H   0  0  0  0  0  0  0  0  0  0  0  0 
  1 12  1  0  0  0  0 
  1  3  1  0  0  0  0 
  2  1  2  0  0  0  0 
  3 14  1  0  0  0  0 
  4  8  2  0  0  0  0 
  4  2  1  0  0  0  0 
  5 16  1  0  0  0  0 
  5  3  2  0  0  0  0 
  6 17  1  0  0  0  0 
  6  8  1  0  0  0  0 
  7  6  2  0  0  0  0 
  8  5  1  0  0  0  0 
  9  7  1  0  0  0  0 
  9 10  2  0  0  0  0 
 11  9  1  0  0  0  0 
 13  2  1  0  0  0  0 
 15  4  1  0  0  0  0 
 18  7  1  0  0  0  0 
 19 11  1  0  0  0  0 
M  END 
>  <HBA> 
2 
 
>  <HBD> 
1 
 
>  <TPSA> 
37.3 
 
>  <cid> 
8784 
 
>  <dipole> 
5.29 
 
>  <excitation_energy_1> 
4.259 
 
>  <excitation_energy_2> 
4.373 
 
>  <excitation_energy_3> 
4.486 
 
>  <excitation_energy_4> 
5.574 
 
>  <homo_energy> 
-6.585 
 
>  <homo_lumo_gap> 
4.645 
 
>  <logP> 
1.784 
 
>  <lumo_energy> 
-1.94 
 
>  <melting_point> 
103.33 
 
>  <molecular_refractivity> 
43.11 
 
>  <oscillator_strength_1> 
0.0001 
 
>  <oscillator_strength_2> 
0.6048 
 
>  <oscillator_strength_3> 
0.0161 
 
>  <oscillator_strength_4> 
0.1396 
 
>  <open_babel_can_smiles> 
OC(=O)/C=C/c1ccccc1 
 
>  <mulliken_charges> 
19 
1   -0.122627 
2   -0.130599 
3   -0.131113 
4   -0.170412 
5   -0.184975 
6   -0.144946 
7   -0.244866 
8   0.165373 
9   0.609143 
10   -0.460798 
11   -0.584371 
12   0.139758 
13   0.138415 
14   0.140746 
15   0.131039 
16   0.144929 
17   0.17522 
18   0.124263 
19   0.405822 
 
>  <lowdin_charges> 
19 
1   -0.141085 
2   -0.152377 
3   -0.152678 
4   -0.146877 
5   -0.146492 
6   -0.092148 
7   -0.234016 
8   -0.009356 
9   0.194661 
10   -0.254086 
11   -0.360968 
12   0.160864 
13   0.162387 
14   0.163564 
15   0.158319 
16   0.164713 
17   0.180232 
18   0.150034 
19   0.355309 
 
$$$$ 
 
