PCCDB-ID:  8882 
public computational chemistry database (PCCDB) project, http://pccdb.org 
 
 13 13  0  0  0  0  0  0  0  0999 V2000 
    1.0222    0.6681    0.0346 C   0  0  0  0  0  0  0  0  0  0  0  0 
    1.0219   -0.6660    0.0456 C   0  0  0  0  0  0  0  0  0  0  0  0 
   -0.3699    1.2512   -0.0056 C   0  0  0  0  0  0  0  0  0  0  0  0 
   -0.3706   -1.2488    0.0144 C   0  0  0  0  0  0  0  0  0  0  0  0 
   -1.3020    0.0012   -0.0281 C   0  0  0  0  0  0  0  0  0  0  0  0 
    1.9133    1.2908    0.0528 H   0  0  0  0  0  0  0  0  0  0  0  0 
    1.9126   -1.2887    0.0743 H   0  0  0  0  0  0  0  0  0  0  0  0 
   -0.5140    1.8905   -0.8882 H   0  0  0  0  0  0  0  0  0  0  0  0 
   -0.5619    1.8942    0.8652 H   0  0  0  0  0  0  0  0  0  0  0  0 
   -0.5633   -1.8781    0.8950 H   0  0  0  0  0  0  0  0  0  0  0  0 
   -0.5147   -1.9017   -0.8582 H   0  0  0  0  0  0  0  0  0  0  0  0 
   -1.9239   -0.0059   -0.9284 H   0  0  0  0  0  0  0  0  0  0  0  0 
   -1.9871    0.0083    0.8251 H   0  0  0  0  0  0  0  0  0  0  0  0 
  1  2  2  0  0  0  0 
  1  6  1  0  0  0  0 
  2  7  1  0  0  0  0 
  3  1  1  0  0  0  0 
  3  9  1  0  0  0  0 
  4  2  1  0  0  0  0 
  4 10  1  0  0  0  0 
  5  3  1  0  0  0  0 
  5  4  1  0  0  0  0 
  5 13  1  0  0  0  0 
  8  3  1  0  0  0  0 
 11  4  1  0  0  0  0 
 12  5  1  0  0  0  0 
M  END 
>  <HBA> 
0 
 
>  <HBD> 
0 
 
>  <TPSA> 
0.0 
 
>  <cid> 
8882 
 
>  <dipole> 
0.16 
 
>  <excitation_energy_1> 
5.998 
 
>  <excitation_energy_2> 
6.58 
 
>  <excitation_energy_3> 
6.588 
 
>  <excitation_energy_4> 
6.853 
 
>  <homo_energy> 
-6.31 
 
>  <homo_lumo_gap> 
7.282 
 
>  <logP> 
1.726 
 
>  <lumo_energy> 
0.971 
 
>  <melting_point> 
6.47 
 
>  <molecular_refractivity> 
23.56 
 
>  <oscillator_strength_1> 
0.0037 
 
>  <oscillator_strength_2> 
0.0098 
 
>  <oscillator_strength_3> 
0.0 
 
>  <oscillator_strength_4> 
0.2491 
 
>  <open_babel_can_smiles> 
C1CC=CC1 
 
>  <mulliken_charges> 
13 
1   -0.103572 
2   -0.103802 
3   -0.301437 
4   -0.301375 
5   -0.284428 
6   0.122079 
7   0.122086 
8   0.141799 
9   0.141875 
10   0.14186 
11   0.141823 
12   0.141689 
13   0.141403 
 
>  <lowdin_charges> 
13 
1   -0.174645 
2   -0.174667 
3   -0.278248 
4   -0.278249 
5   -0.280174 
6   0.15274 
7   0.152747 
8   0.146365 
9   0.146446 
10   0.146404 
11   0.146419 
12   0.147365 
13   0.147497 
 
$$$$ 
 
