PCCDB-ID:  35679 
public computational chemistry database (PCCDB) project, http://pccdb.org 
 
 23 23  0  0  0  0  0  0  0  0999 V2000 
    1.3262   -0.7817    0.5329 C   0  0  0  0  0  0  0  0  0  0  0  0 
    3.8050   -0.8650    1.0723 C   0  0  0  0  0  0  0  0  0  0  0  0 
    4.0798    0.3833   -1.8307 C   0  0  0  0  0  0  0  0  0  0  0  0 
    2.9326   -1.7017   -1.8845 C   0  0  0  0  0  0  0  0  0  0  0  0 
    2.7205   -0.2628    0.1584 C   0  0  0  0  0  0  0  0  0  0  0  0 
    5.3359   -1.5822   -1.8889 C   0  0  0  0  0  0  0  0  0  0  0  0 
    5.3708   -0.3050   -1.9058 N   0  0  0  0  0  0  0  0  0  0  0  0 
    4.2324   -2.3848   -1.7061 N   0  0  0  0  0  0  0  0  0  0  0  0 
    2.9509   -0.3860   -1.2998 N   0  0  0  0  0  0  0  0  0  0  0  0 
    6.4773   -2.3099   -2.0114 O   0  0  0  0  0  0  0  0  0  0  0  0 
    1.0821   -0.4873    1.5595 H   0  0  0  0  0  0  0  0  0  0  0  0 
    1.2661   -1.8761    0.4916 H   0  0  0  0  0  0  0  0  0  0  0  0 
    0.5659   -0.3678   -0.1375 H   0  0  0  0  0  0  0  0  0  0  0  0 
    3.5923   -0.6179    2.1198 H   0  0  0  0  0  0  0  0  0  0  0  0 
    4.7951   -0.4697    0.8246 H   0  0  0  0  0  0  0  0  0  0  0  0 
    3.8439   -1.9551    0.9796 H   0  0  0  0  0  0  0  0  0  0  0  0 
    3.8218    0.7285   -2.8438 H   0  0  0  0  0  0  0  0  0  0  0  0 
    4.1976    1.2785   -1.2116 H   0  0  0  0  0  0  0  0  0  0  0  0 
    2.1554   -2.3187   -1.4293 H   0  0  0  0  0  0  0  0  0  0  0  0 
    2.7028   -1.6007   -2.9571 H   0  0  0  0  0  0  0  0  0  0  0  0 
    2.7092    0.8215    0.3319 H   0  0  0  0  0  0  0  0  0  0  0  0 
    4.3239   -3.3263   -2.0698 H   0  0  0  0  0  0  0  0  0  0  0  0 
    7.1836   -1.6464   -2.1100 H   0  0  0  0  0  0  0  0  0  0  0  0 
  1 11  1  0  0  0  0 
  2 14  1  0  0  0  0 
  3  9  1  0  0  0  0 
  3 18  1  0  0  0  0 
  4  8  1  0  0  0  0 
  4 19  1  0  0  0  0 
  4  9  1  0  0  0  0 
  5 21  1  0  0  0  0 
  5  1  1  0  0  0  0 
  5  2  1  0  0  0  0 
  6  8  1  0  0  0  0 
  7  6  2  0  0  0  0 
  7  3  1  0  0  0  0 
  9  5  1  0  0  0  0 
 10  6  1  0  0  0  0 
 12  1  1  0  0  0  0 
 13  1  1  0  0  0  0 
 15  2  1  0  0  0  0 
 16  2  1  0  0  0  0 
 17  3  1  0  0  0  0 
 20  4  1  0  0  0  0 
 22  8  1  0  0  0  0 
 23 10  1  0  0  0  0 
M  END 
>  <HBA> 
4 
 
>  <HBD> 
2 
 
>  <TPSA> 
44.37 
 
>  <cid> 
35679 
 
>  <dipole> 
1.56 
 
>  <excitation_energy_1> 
5.232 
 
>  <excitation_energy_2> 
5.421 
 
>  <excitation_energy_3> 
5.628 
 
>  <excitation_energy_4> 
5.744 
 
>  <homo_energy> 
-5.728 
 
>  <homo_lumo_gap> 
7.225 
 
>  <logP> 
0.52 
 
>  <lumo_energy> 
1.497 
 
>  <melting_point> 
84.73 
 
>  <molecular_refractivity> 
49.68 
 
>  <oscillator_strength_1> 
0.0178 
 
>  <oscillator_strength_2> 
0.0013 
 
>  <oscillator_strength_3> 
0.0199 
 
>  <oscillator_strength_4> 
0.0296 
 
>  <open_babel_can_smiles> 
OC1=NCN(CN1)C(C)C 
 
>  <mulliken_charges> 
23 
1   -0.45608 
2   -0.45004 
3   -0.03253 
4   -0.018599 
5   0.051258 
6   0.660413 
7   -0.502793 
8   -0.600656 
9   -0.390693 
10   -0.61458 
11   0.146525 
12   0.140926 
13   0.153436 
14   0.132968 
15   0.159828 
16   0.153168 
17   0.146149 
18   0.145813 
19   0.154908 
20   0.150404 
21   0.132276 
22   0.324888 
23   0.413011 
 
>  <lowdin_charges> 
23 
1   -0.449323 
2   -0.461527 
3   -0.137487 
4   -0.129079 
5   -0.049656 
6   0.149561 
7   -0.309522 
8   -0.320541 
9   -0.1876 
10   -0.379337 
11   0.153674 
12   0.142635 
13   0.156227 
14   0.14563 
15   0.157881 
16   0.151543 
17   0.139612 
18   0.148565 
19   0.155556 
20   0.136295 
21   0.139162 
22   0.283179 
23   0.364551 
 
$$$$ 
 
