PCCDB-ID:  32438 
public computational chemistry database (PCCDB) project, http://pccdb.org 
 
 21 21  0  0  1  0  0  0  0  0999 V2000 
   -1.3777   -0.4384   -0.0146 C   0  0  0  0  0  0  0  0  0  0  0  0 
   -0.4256   -1.3669   -0.1575 C   0  0  0  0  0  0  0  0  0  0  0  0 
   -1.0970    1.0439   -0.0260 C   0  0  0  0  0  0  0  0  0  0  0  0 
    1.0400   -1.0470   -0.3303 C   0  0  0  0  0  0  0  0  0  0  0  0 
    0.3203    1.3575   -0.5358 C   0  0  0  0  0  0  0  0  0  0  0  0 
    1.5046    0.5764    1.5793 C   0  0  0  0  0  0  0  0  0  0  0  0 
    2.7656    0.0006    2.1832 C   0  0  0  0  0  0  0  0  0  0  0  0 
    1.3807    0.4089    0.0565 C   0  0  1  0  0  0  0  0  0  0  0  0 
    3.6659   -0.5226    1.5626 O   0  0  0  0  0  0  0  0  0  0  0  0 
   -2.4144   -0.7460    0.1186 H   0  0  0  0  0  0  0  0  0  0  0  0 
   -0.7016   -2.4209   -0.1540 H   0  0  0  0  0  0  0  0  0  0  0  0 
   -1.2423    1.4533    0.9866 H   0  0  0  0  0  0  0  0  0  0  0  0 
   -1.8389    1.5589   -0.6518 H   0  0  0  0  0  0  0  0  0  0  0  0 
    1.3298   -1.2223   -1.3779 H   0  0  0  0  0  0  0  0  0  0  0  0 
    1.6520   -1.7436    0.2555 H   0  0  0  0  0  0  0  0  0  0  0  0 
    0.5776    2.4028   -0.3200 H   0  0  0  0  0  0  0  0  0  0  0  0 
    0.3350    1.2490   -1.6283 H   0  0  0  0  0  0  0  0  0  0  0  0 
    1.4865    1.6416    1.8653 H   0  0  0  0  0  0  0  0  0  0  0  0 
    0.6503    0.1282    2.1092 H   0  0  0  0  0  0  0  0  0  0  0  0 
    2.8328    0.1001    3.2915 H   0  0  0  0  0  0  0  0  0  0  0  0 
    2.3570    0.6576   -0.3756 H   0  0  0  0  0  0  0  0  0  0  0  0 
  1 10  1  0  0  0  0 
  2 11  1  0  0  0  0 
  2  1  2  0  0  0  0 
  3  1  1  0  0  0  0 
  3 12  1  0  0  0  0 
  4  2  1  0  0  0  0 
  4  8  1  0  0  0  0 
  4 15  1  0  0  0  0 
  5 16  1  0  0  0  0 
  5  3  1  0  0  0  0 
  5  8  1  0  0  0  0 
  6 18  1  0  0  0  0 
  6 19  1  0  0  0  0 
  6  7  1  0  0  0  0 
  7 20  1  0  0  0  0 
  8 21  1  6  0  0  0 
  8  6  1  0  0  0  0 
  9  7  2  0  0  0  0 
 13  3  1  0  0  0  0 
 14  4  1  0  0  0  0 
 17  5  1  0  0  0  0 
M  END 
>  <HBA> 
1 
 
>  <HBD> 
0 
 
>  <TPSA> 
17.07 
 
>  <cid> 
32438 
 
>  <dipole> 
2.39 
 
>  <excitation_energy_1> 
4.326 
 
>  <excitation_energy_2> 
5.123 
 
>  <excitation_energy_3> 
5.851 
 
>  <excitation_energy_4> 
6.336 
 
>  <homo_energy> 
-6.506 
 
>  <homo_lumo_gap> 
5.984 
 
>  <logP> 
1.932 
 
>  <lumo_energy> 
-0.522 
 
>  <melting_point> 
36.2 
 
>  <molecular_refractivity> 
38.18 
 
>  <oscillator_strength_1> 
0.0002 
 
>  <oscillator_strength_2> 
0.0029 
 
>  <oscillator_strength_3> 
0.0077 
 
>  <oscillator_strength_4> 
0.0099 
 
>  <open_babel_can_smiles> 
O=CC[C@@H]1CCC=CC1 
 
>  <mulliken_charges> 
21 
1   -0.104741 
2   -0.113611 
3   -0.303385 
4   -0.306342 
5   -0.275216 
6   -0.354999 
7   0.250728 
8   -0.082896 
9   -0.384847 
10   0.119605 
11   0.121095 
12   0.141362 
13   0.143728 
14   0.148333 
15   0.155636 
16   0.127977 
17   0.140372 
18   0.158917 
19   0.170782 
20   0.104146 
21   0.143357 
 
>  <lowdin_charges> 
21 
1   -0.179113 
2   -0.17547 
3   -0.280423 
4   -0.27955 
5   -0.272185 
6   -0.317987 
7   0.061259 
8   -0.12325 
9   -0.223342 
10   0.149301 
11   0.149924 
12   0.144243 
13   0.153021 
14   0.152612 
15   0.158633 
16   0.140175 
17   0.144252 
18   0.163205 
19   0.170202 
20   0.112757 
21   0.151738 
 
$$$$ 
 
