PCCDB-ID:  57563 
public computational chemistry database (PCCDB) project, http://pccdb.org 
 
 36 37  0  0  0  0  0  0  0  0999 V2000 
   -2.2569    1.1888    0.3734 C   0  0  0  0  0  0  0  0  0  0  0  0 
   -1.1075    1.8638   -0.3959 C   0  0  0  0  0  0  0  0  0  0  0  0 
   -2.1447   -0.3312    0.5674 C   0  0  0  0  0  0  0  0  0  0  0  0 
    0.2254    1.8826    0.3775 C   0  0  0  0  0  0  0  0  0  0  0  0 
   -0.8454   -0.8462    1.2130 C   0  0  0  0  0  0  0  0  0  0  0  0 
    1.1021    0.6174    0.2812 C   0  0  0  0  0  0  0  0  0  0  0  0 
    3.0374   -3.3368    0.3582 C   0  0  0  0  0  0  0  0  0  0  0  0 
    3.8536   -4.0811   -0.6969 C   0  0  0  0  0  0  0  0  0  0  0  0 
    5.2909   -6.0926   -0.8670 C   0  0  0  0  0  0  0  0  0  0  0  0 
    4.3027   -6.3439    0.2200 C   0  0  0  0  0  0  0  0  0  0  0  0 
    0.3659   -0.7322    0.2832 C   0  0  0  0  0  0  0  0  0  0  0  0 
    2.1075   -2.3036   -0.2458 C   0  0  0  0  0  0  0  0  0  0  0  0 
    4.7941   -4.9918   -0.0473 N   0  0  0  0  0  0  0  0  0  0  0  0 
    2.0783   -1.9961   -1.4203 O   0  0  0  0  0  0  0  0  0  0  0  0 
    1.3144   -1.7619    0.7036 O   0  0  0  0  0  0  0  0  0  0  0  0 
   -3.2036    1.3955   -0.1439 H   0  0  0  0  0  0  0  0  0  0  0  0 
   -2.3381    1.6714    1.3588 H   0  0  0  0  0  0  0  0  0  0  0  0 
   -1.4045    2.9008   -0.5996 H   0  0  0  0  0  0  0  0  0  0  0  0 
   -0.9756    1.3908   -1.3799 H   0  0  0  0  0  0  0  0  0  0  0  0 
   -2.2663   -0.8291   -0.4059 H   0  0  0  0  0  0  0  0  0  0  0  0 
   -2.9922   -0.6611    1.1823 H   0  0  0  0  0  0  0  0  0  0  0  0 
    0.0020    2.0957    1.4319 H   0  0  0  0  0  0  0  0  0  0  0  0 
    0.8343    2.7264    0.0299 H   0  0  0  0  0  0  0  0  0  0  0  0 
   -0.9720   -1.9088    1.4510 H   0  0  0  0  0  0  0  0  0  0  0  0 
   -0.6518   -0.3346    2.1658 H   0  0  0  0  0  0  0  0  0  0  0  0 
    1.8012    0.6122    1.1272 H   0  0  0  0  0  0  0  0  0  0  0  0 
    1.7130    0.6540   -0.6279 H   0  0  0  0  0  0  0  0  0  0  0  0 
    3.7107   -2.8302    1.0610 H   0  0  0  0  0  0  0  0  0  0  0  0 
    2.4441   -4.0325    0.9640 H   0  0  0  0  0  0  0  0  0  0  0  0 
    4.4267   -3.3629   -1.2923 H   0  0  0  0  0  0  0  0  0  0  0  0 
    3.1748   -4.6028   -1.3956 H   0  0  0  0  0  0  0  0  0  0  0  0 
    4.9295   -6.1708   -1.8933 H   0  0  0  0  0  0  0  0  0  0  0  0 
    6.3407   -6.3449   -0.7337 H   0  0  0  0  0  0  0  0  0  0  0  0 
    4.6139   -6.7848    1.1645 H   0  0  0  0  0  0  0  0  0  0  0  0 
    3.2839   -6.5888   -0.0852 H   0  0  0  0  0  0  0  0  0  0  0  0 
    0.0610   -0.9873   -0.7362 H   0  0  0  0  0  0  0  0  0  0  0  0 
  1  3  1  0  0  0  0 
  1 17  1  0  0  0  0 
  2  1  1  0  0  0  0 
  2  4  1  0  0  0  0 
  3 21  1  0  0  0  0 
  3  5  1  0  0  0  0 
  4 22  1  0  0  0  0 
  5 24  1  0  0  0  0 
  5 25  1  0  0  0  0 
  6 11  1  0  0  0  0 
  6  4  1  0  0  0  0 
  6 26  1  0  0  0  0 
  7 29  1  0  0  0  0 
  7 28  1  0  0  0  0 
  8 13  1  0  0  0  0 
  8  7  1  0  0  0  0 
  9 33  1  0  0  0  0 
  9 13  1  0  0  0  0 
  9 10  1  0  0  0  0 
 10 34  1  0  0  0  0 
 11 15  1  0  0  0  0 
 11  5  1  0  0  0  0 
 12  7  1  0  0  0  0 
 12 15  1  0  0  0  0 
 13 10  1  0  0  0  0 
 14 12  2  0  0  0  0 
 16  1  1  0  0  0  0 
 18  2  1  0  0  0  0 
 19  2  1  0  0  0  0 
 20  3  1  0  0  0  0 
 23  4  1  0  0  0  0 
 27  6  1  0  0  0  0 
 30  8  1  0  0  0  0 
 31  8  1  0  0  0  0 
 32  9  1  0  0  0  0 
 35 10  1  0  0  0  0 
 36 11  1  0  0  0  0 
M  END 
>  <HBA> 
3 
 
>  <HBD> 
0 
 
>  <TPSA> 
29.31 
 
>  <cid> 
57563 
 
>  <dipole> 
1.64 
 
>  <excitation_energy_1> 
5.803 
 
>  <excitation_energy_2> 
5.99 
 
>  <excitation_energy_3> 
6.052 
 
>  <excitation_energy_4> 
6.256 
 
>  <homo_energy> 
-6.335 
 
>  <homo_lumo_gap> 
6.833 
 
>  <logP> 
1.896 
 
>  <lumo_energy> 
0.498 
 
>  <melting_point> 
15.76 
 
>  <molecular_refractivity> 
63.67 
 
>  <oscillator_strength_1> 
0.001 
 
>  <oscillator_strength_2> 
0.0098 
 
>  <oscillator_strength_3> 
0.011 
 
>  <oscillator_strength_4> 
0.0244 
 
>  <open_babel_can_smiles> 
O=C(OC1CCCCCC1)CCN1CC1 
 
>  <mulliken_charges> 
36 
1   -0.255948 
2   -0.260569 
3   -0.269765 
4   -0.268239 
5   -0.280085 
6   -0.290584 
7   -0.365798 
8   -0.119844 
9   -0.191547 
10   -0.197262 
11   0.139753 
12   0.629464 
13   -0.357604 
14   -0.48681 
15   -0.490822 
16   0.131951 
17   0.129321 
18   0.133903 
19   0.135271 
20   0.134485 
21   0.135699 
22   0.13295 
23   0.138376 
24   0.147915 
25   0.137725 
26   0.142995 
27   0.15925 
28   0.186614 
29   0.170196 
30   0.163204 
31   0.124282 
32   0.146717 
33   0.15722 
34   0.156939 
35   0.143025 
36   0.157623 
 
>  <lowdin_charges> 
36 
1   -0.277481 
2   -0.280588 
3   -0.277952 
4   -0.279595 
5   -0.284145 
6   -0.294052 
7   -0.307095 
8   -0.19844 
9   -0.239062 
10   -0.245566 
11   0.003731 
12   0.196048 
13   -0.194316 
14   -0.273703 
15   -0.193246 
16   0.14428 
17   0.137228 
18   0.145459 
19   0.140844 
20   0.139984 
21   0.147788 
22   0.13823 
23   0.150049 
24   0.154051 
25   0.1448 
26   0.150886 
27   0.156304 
28   0.178555 
29   0.169378 
30   0.158311 
31   0.129414 
32   0.14779 
33   0.157341 
34   0.158493 
35   0.145308 
36   0.150968 
 
$$$$ 
 
