PCCDB-ID:  37028 
public computational chemistry database (PCCDB) project, http://pccdb.org 
 
 26 26  0  0  0  0  0  0  0  0999 V2000 
    2.5649   -1.0190   -2.1024 C   0  0  0  0  0  0  0  0  0  0  0  0 
    2.3721    0.9359   -0.5400 C   0  0  0  0  0  0  0  0  0  0  0  0 
    0.4649   -0.6859   -0.7255 C   0  0  0  0  0  0  0  0  0  0  0  0 
    5.2197   -2.4169    4.6724 C   0  0  0  0  0  0  0  0  0  0  0  0 
    2.6071   -1.3949    0.3868 C   0  0  0  0  0  0  0  0  0  0  0  0 
    2.4546   -2.8113    0.4959 C   0  0  0  0  0  0  0  0  0  0  0  0 
    3.6826   -2.7754    2.3848 C   0  0  0  0  0  0  0  0  0  0  0  0 
    2.0069   -0.5469   -0.7375 C   0  0  0  0  0  0  0  0  0  0  0  0 
    2.9860   -3.4966    1.4850 N   0  0  0  0  0  0  0  0  0  0  0  0 
    3.3141   -0.7833    1.3283 N   0  0  0  0  0  0  0  0  0  0  0  0 
    3.8683   -1.4583    2.3479 N   0  0  0  0  0  0  0  0  0  0  0  0 
    1.7519   -3.4973   -0.4233 O   0  0  0  0  0  0  0  0  0  0  0  0 
    4.3841   -3.7211    3.7036 S   0  0  0  0  0  0  0  0  0  0  0  0 
    2.1416   -0.4028   -2.9042 H   0  0  0  0  0  0  0  0  0  0  0  0 
    2.3134   -2.0623   -2.3097 H   0  0  0  0  0  0  0  0  0  0  0  0 
    3.6552   -0.9115   -2.1368 H   0  0  0  0  0  0  0  0  0  0  0  0 
    1.9327    1.5233   -1.3545 H   0  0  0  0  0  0  0  0  0  0  0  0 
    3.4550    1.0884   -0.5460 H   0  0  0  0  0  0  0  0  0  0  0  0 
    1.9939    1.3218    0.4108 H   0  0  0  0  0  0  0  0  0  0  0  0 
    0.0343   -0.0670   -1.5213 H   0  0  0  0  0  0  0  0  0  0  0  0 
    0.0493   -0.3421    0.2288 H   0  0  0  0  0  0  0  0  0  0  0  0 
    0.1451   -1.7182   -0.8898 H   0  0  0  0  0  0  0  0  0  0  0  0 
    5.6845   -2.9310    5.5176 H   0  0  0  0  0  0  0  0  0  0  0  0 
    4.4997   -1.6803    5.0313 H   0  0  0  0  0  0  0  0  0  0  0  0 
    5.9816   -1.9173    4.0726 H   0  0  0  0  0  0  0  0  0  0  0  0 
    1.7826   -4.4333   -0.1449 H   0  0  0  0  0  0  0  0  0  0  0  0 
  1  8  1  0  0  0  0 
  2 19  1  0  0  0  0 
  3 21  1  0  0  0  0 
  4 24  1  0  0  0  0 
  4 23  1  0  0  0  0 
  5  6  1  0  0  0  0 
  5 10  2  0  0  0  0 
  6  9  2  0  0  0  0 
  7 13  1  0  0  0  0 
  8  3  1  0  0  0  0 
  8  2  1  0  0  0  0 
  8  5  1  0  0  0  0 
  9  7  2  0  0  0  0 
 10 11  1  0  0  0  0 
 11  7  1  0  0  0  0 
 12 26  1  0  0  0  0 
 12  6  1  0  0  0  0 
 13  4  1  0  0  0  0 
 14  1  1  0  0  0  0 
 15  1  1  0  0  0  0 
 16  1  1  0  0  0  0 
 17  2  1  0  0  0  0 
 18  2  1  0  0  0  0 
 20  3  1  0  0  0  0 
 22  3  1  0  0  0  0 
 25  4  1  0  0  0  0 
M  RAD  1  11   2 
M  END 
>  <HBA> 
4 
 
>  <HBD> 
1 
 
>  <TPSA> 
83.94 
 
>  <cid> 
37028 
 
>  <dipole> 
1.42 
 
>  <excitation_energy_1> 
3.556 
 
>  <excitation_energy_2> 
3.961 
 
>  <excitation_energy_3> 
4.485 
 
>  <excitation_energy_4> 
5.107 
 
>  <homo_energy> 
-6.362 
 
>  <homo_lumo_gap> 
4.806 
 
>  <logP> 
1.184 
 
>  <lumo_energy> 
-1.557 
 
>  <melting_point> 
139.65 
 
>  <molecular_refractivity> 
53.64 
 
>  <oscillator_strength_1> 
0.0028 
 
>  <oscillator_strength_2> 
0.0445 
 
>  <oscillator_strength_3> 
0.0003 
 
>  <oscillator_strength_4> 
0.3177 
 
>  <open_babel_can_smiles> 
CSC1=[N]=C(C(=N[N]1)C(C)(C)C)O 
 
>  <mulliken_charges> 
26 
1   -0.45963 
2   -0.428243 
3   -0.459335 
4   -0.582124 
5   0.292511 
6   0.509277 
7   0.270118 
8   0.025146 
9   -0.499243 
10   -0.316022 
11   -0.294031 
12   -0.597303 
13   0.169723 
14   0.145865 
15   0.165015 
16   0.148008 
17   0.132649 
18   0.155149 
19   0.155402 
20   0.145928 
21   0.148084 
22   0.164639 
23   0.179677 
24   0.204105 
25   0.204088 
26   0.420545 
 
>  <lowdin_charges> 
26 
1   -0.444156 
2   -0.435802 
3   -0.446513 
4   -0.54137 
5   -0.00283 
6   0.141768 
7   -0.039005 
8   0.014997 
9   -0.183086 
10   -0.065913 
11   -0.148078 
12   -0.332562 
13   0.197668 
14   0.153036 
15   0.156922 
16   0.149509 
17   0.14692 
18   0.155591 
19   0.157608 
20   0.15314 
21   0.151527 
22   0.156969 
23   0.176228 
24   0.180348 
25   0.18043 
26   0.366656 
 
$$$$ 
 
