PCCDB-ID:  8441 
public computational chemistry database (PCCDB) project, http://pccdb.org 
 
 24 24  0  0  0  0  0  0  0  0999 V2000 
    3.2832   -1.3647    1.1137 C   0  0  0  0  0  0  0  0  0  0  0  0 
    0.0470    8.1272    1.9736 C   0  0  0  0  0  0  0  0  0  0  0  0 
    2.9390    3.4507    0.9760 C   0  0  0  0  0  0  0  0  0  0  0  0 
    1.0977    2.1408    1.8591 C   0  0  0  0  0  0  0  0  0  0  0  0 
    2.2288    4.6211    1.2192 C   0  0  0  0  0  0  0  0  0  0  0  0 
    0.3878    3.3113    2.1028 C   0  0  0  0  0  0  0  0  0  0  0  0 
    2.3792    2.2057    1.2932 C   0  0  0  0  0  0  0  0  0  0  0  0 
    0.9472    4.5562    1.7848 C   0  0  0  0  0  0  0  0  0  0  0  0 
    3.1916    0.9861    1.0086 C   0  0  0  0  0  0  0  0  0  0  0  0 
    0.1354    5.7759    2.0709 C   0  0  0  0  0  0  0  0  0  0  0  0 
    4.3025    1.0017    0.5163 O   0  0  0  0  0  0  0  0  0  0  0  0 
   -0.9762    5.7602    2.5617 O   0  0  0  0  0  0  0  0  0  0  0  0 
    2.5542   -0.1524    1.3617 O   0  0  0  0  0  0  0  0  0  0  0  0 
    0.7753    6.9148    1.7237 O   0  0  0  0  0  0  0  0  0  0  0  0 
    2.6310   -2.1712    1.4496 H   0  0  0  0  0  0  0  0  0  0  0  0 
    4.2217   -1.3690    1.6742 H   0  0  0  0  0  0  0  0  0  0  0  0 
    3.5058   -1.4671    0.0483 H   0  0  0  0  0  0  0  0  0  0  0  0 
    0.6995    8.9338    1.6383 H   0  0  0  0  0  0  0  0  0  0  0  0 
   -0.1747    8.2284    3.0393 H   0  0  0  0  0  0  0  0  0  0  0  0 
   -0.8919    8.1326    1.4138 H   0  0  0  0  0  0  0  0  0  0  0  0 
    3.9315    3.4786    0.5390 H   0  0  0  0  0  0  0  0  0  0  0  0 
    0.6671    1.1767    2.1041 H   0  0  0  0  0  0  0  0  0  0  0  0 
    2.6596    5.5852    0.9748 H   0  0  0  0  0  0  0  0  0  0  0  0 
   -0.6049    3.2833    2.5393 H   0  0  0  0  0  0  0  0  0  0  0  0 
  1 13  1  0  0  0  0 
  1 15  1  0  0  0  0 
  1 16  1  0  0  0  0 
  2 19  1  0  0  0  0 
  3  5  2  0  0  0  0 
  3  7  1  0  0  0  0 
  4  6  1  0  0  0  0 
  4 22  1  0  0  0  0 
  5  8  1  0  0  0  0 
  6 24  1  0  0  0  0 
  7  4  2  0  0  0  0 
  8 10  1  0  0  0  0 
  8  6  2  0  0  0  0 
  9  7  1  0  0  0  0 
  9 13  1  0  0  0  0 
 10 12  2  0  0  0  0 
 11  9  2  0  0  0  0 
 14  2  1  0  0  0  0 
 14 10  1  0  0  0  0 
 17  1  1  0  0  0  0 
 18  2  1  0  0  0  0 
 20  2  1  0  0  0  0 
 21  3  1  0  0  0  0 
 23  5  1  0  0  0  0 
M  END 
>  <HBA> 
4 
 
>  <HBD> 
0 
 
>  <TPSA> 
52.6 
 
>  <cid> 
8441 
 
>  <dipole> 
0.0 
 
>  <excitation_energy_1> 
4.55 
 
>  <excitation_energy_2> 
4.554 
 
>  <excitation_energy_3> 
4.596 
 
>  <excitation_energy_4> 
4.989 
 
>  <homo_energy> 
-7.214 
 
>  <homo_lumo_gap> 
5.304 
 
>  <logP> 
1.26 
 
>  <lumo_energy> 
-1.91 
 
>  <melting_point> 
56.21 
 
>  <molecular_refractivity> 
49.0 
 
>  <oscillator_strength_1> 
0.0 
 
>  <oscillator_strength_2> 
0.0292 
 
>  <oscillator_strength_3> 
0.0002 
 
>  <oscillator_strength_4> 
0.5061 
 
>  <open_babel_can_smiles> 
COC(=O)c1ccc(cc1)C(=O)OC 
 
>  <mulliken_charges> 
24 
1   -0.217816 
2   -0.21781 
3   -0.162346 
4   -0.168724 
5   -0.16898 
6   -0.16261 
7   0.061889 
8   0.06211 
9   0.595701 
10   0.595698 
11   -0.486807 
12   -0.486802 
13   -0.465684 
14   -0.465688 
15   0.166374 
16   0.173471 
17   0.173549 
18   0.166373 
19   0.173488 
20   0.17353 
21   0.1682 
22   0.162332 
23   0.162352 
24   0.168199 
 
>  <lowdin_charges> 
24 
1   -0.275551 
2   -0.275539 
3   -0.130554 
4   -0.140063 
5   -0.140067 
6   -0.130557 
7   -0.031721 
8   -0.031714 
9   0.192455 
10   0.19244 
11   -0.263854 
12   -0.26385 
13   -0.188082 
14   -0.188078 
15   0.162514 
16   0.161123 
17   0.159682 
18   0.162512 
19   0.159633 
20   0.161162 
21   0.178768 
22   0.175288 
23   0.175288 
24   0.178766 
 
$$$$ 
 
