PCCDB-ID:  61903 
public computational chemistry database (PCCDB) project, http://pccdb.org 
 
 30 29  0  0  1  0  0  0  0  0999 V2000 
    0.4768    0.3688    0.9892 C   0  0  0  0  0  0  0  0  0  0  0  0 
    8.2319    2.4472    5.2191 C   0  0  0  0  0  0  0  0  0  0  0  0 
    7.0401    2.2305    0.5230 C   0  0  0  0  0  0  0  0  0  0  0  0 
    1.9510    0.1517    0.6552 C   0  0  0  0  0  0  0  0  0  0  0  0 
    7.3901    1.6616    4.2155 C   0  0  0  0  0  0  0  0  0  0  0  0 
    5.0655    1.7936    2.0661 C   0  0  0  0  0  0  0  0  0  0  0  0 
    4.2311    0.8540    1.1910 C   0  0  0  0  0  0  0  0  0  0  0  0 
    6.5883    1.6604    1.8718 C   0  0  2  0  0  0  0  0  0  0  0  0 
    2.8034    1.0445    1.4366 N   0  0  0  0  0  0  0  0  0  0  0  0 
    7.2949    2.3790    2.9444 N   0  0  0  0  0  0  0  0  0  0  0  0 
   -0.1621   -0.2785    0.3783 H   0  0  0  0  0  0  0  0  0  0  0  0 
    0.1919    1.4110    0.8125 H   0  0  0  0  0  0  0  0  0  0  0  0 
    0.2721    0.1368    2.0425 H   0  0  0  0  0  0  0  0  0  0  0  0 
    8.2844    1.9232    6.1798 H   0  0  0  0  0  0  0  0  0  0  0  0 
    7.8043    3.4412    5.3851 H   0  0  0  0  0  0  0  0  0  0  0  0 
    9.2598    2.5781    4.8566 H   0  0  0  0  0  0  0  0  0  0  0  0 
    6.5277    1.7447   -0.3128 H   0  0  0  0  0  0  0  0  0  0  0  0 
    8.1181    2.0856    0.3762 H   0  0  0  0  0  0  0  0  0  0  0  0 
    6.8313    3.3058    0.4777 H   0  0  0  0  0  0  0  0  0  0  0  0 
    2.1238    0.3728   -0.4069 H   0  0  0  0  0  0  0  0  0  0  0  0 
    2.2102   -0.9175    0.7929 H   0  0  0  0  0  0  0  0  0  0  0  0 
    6.3791    1.5320    4.6203 H   0  0  0  0  0  0  0  0  0  0  0  0 
    7.8073    0.6415    4.0955 H   0  0  0  0  0  0  0  0  0  0  0  0 
    4.8219    1.5888    3.1178 H   0  0  0  0  0  0  0  0  0  0  0  0 
    4.7666    2.8315    1.8774 H   0  0  0  0  0  0  0  0  0  0  0  0 
    4.5573   -0.1938    1.3564 H   0  0  0  0  0  0  0  0  0  0  0  0 
    4.4096    1.0638    0.1280 H   0  0  0  0  0  0  0  0  0  0  0  0 
    6.8436    0.5809    1.8909 H   0  0  0  0  0  0  0  0  0  0  0  0 
    2.6169    0.8902    2.4280 H   0  0  0  0  0  0  0  0  0  0  0  0 
    8.2431    2.5768    2.6258 H   0  0  0  0  0  0  0  0  0  0  0  0 
  1 13  1  0  0  0  0 
  2 15  1  0  0  0  0 
  2 14  1  0  0  0  0 
  3  8  1  0  0  0  0 
  4 21  1  0  0  0  0 
  4  1  1  0  0  0  0 
  4  9  1  0  0  0  0 
  5 22  1  0  0  0  0 
  5  2  1  0  0  0  0 
  6 24  1  0  0  0  0 
  7 26  1  0  0  0  0 
  7  9  1  0  0  0  0 
  7  6  1  0  0  0  0 
  8 28  1  1  0  0  0 
  8  6  1  0  0  0  0 
  8 10  1  0  0  0  0 
  9 29  1  0  0  0  0 
 10  5  1  0  0  0  0 
 11  1  1  0  0  0  0 
 12  1  1  0  0  0  0 
 16  2  1  0  0  0  0 
 17  3  1  0  0  0  0 
 18  3  1  0  0  0  0 
 19  3  1  0  0  0  0 
 20  4  1  0  0  0  0 
 23  5  1  0  0  0  0 
 25  6  1  0  0  0  0 
 27  7  1  0  0  0  0 
 30 10  1  0  0  0  0 
M  END 
>  <HBA> 
2 
 
>  <HBD> 
2 
 
>  <TPSA> 
24.06 
 
>  <cid> 
61903 
 
>  <dipole> 
1.58 
 
>  <excitation_energy_1> 
5.38 
 
>  <excitation_energy_2> 
5.465 
 
>  <excitation_energy_3> 
5.712 
 
>  <excitation_energy_4> 
5.77 
 
>  <homo_energy> 
-5.742 
 
>  <homo_lumo_gap> 
8.044 
 
>  <logP> 
1.766 
 
>  <lumo_energy> 
2.302 
 
>  <melting_point> 
26.47 
 
>  <molecular_refractivity> 
46.17 
 
>  <oscillator_strength_1> 
0.0006 
 
>  <oscillator_strength_2> 
0.0046 
 
>  <oscillator_strength_3> 
0.0213 
 
>  <oscillator_strength_4> 
0.0027 
 
>  <open_babel_can_smiles> 
CCNCC[C@H](NCC)C 
 
>  <mulliken_charges> 
30 
1   -0.450438 
2   -0.452091 
3   -0.472157 
4   -0.103419 
5   -0.111916 
6   -0.257143 
7   -0.115475 
8   0.068089 
9   -0.551799 
10   -0.559658 
11   0.142602 
12   0.159125 
13   0.136954 
14   0.143341 
15   0.159807 
16   0.137153 
17   0.151064 
18   0.135672 
19   0.157696 
20   0.137677 
21   0.106633 
22   0.141055 
23   0.108468 
24   0.124396 
25   0.151984 
26   0.104644 
27   0.136796 
28   0.098497 
29   0.28532 
30   0.287126 
 
>  <lowdin_charges> 
30 
1   -0.447292 
2   -0.446011 
3   -0.448573 
4   -0.193689 
5   -0.196822 
6   -0.280876 
7   -0.199443 
8   -0.055528 
9   -0.362238 
10   -0.36458 
11   0.153158 
12   0.155076 
13   0.142878 
14   0.151916 
15   0.15592 
16   0.143005 
17   0.155012 
18   0.143542 
19   0.153466 
20   0.138014 
21   0.110932 
22   0.139015 
23   0.112368 
24   0.137842 
25   0.15182 
26   0.110605 
27   0.137063 
28   0.110215 
29   0.245206 
30   0.247996 
 
$$$$ 
 
