PCCDB-ID:  61151 
public computational chemistry database (PCCDB) project, http://pccdb.org 
 
 22 22  0  0  0  0  0  0  0  0999 V2000 
    1.4150    0.3915    1.4819 C   0  0  0  0  0  0  0  0  0  0  0  0 
    4.9564   -2.3172   -1.0706 C   0  0  0  0  0  0  0  0  0  0  0  0 
    4.2153    3.7209   -1.0647 C   0  0  0  0  0  0  0  0  0  0  0  0 
    3.1280    3.8310   -0.1991 C   0  0  0  0  0  0  0  0  0  0  0  0 
    4.7173    2.4576   -1.3544 C   0  0  0  0  0  0  0  0  0  0  0  0 
    2.5528    2.6937    0.3643 C   0  0  0  0  0  0  0  0  0  0  0  0 
    4.1641    1.2911   -0.8048 C   0  0  0  0  0  0  0  0  0  0  0  0 
    3.0556    1.4154    0.0731 C   0  0  0  0  0  0  0  0  0  0  0  0 
    4.8301    0.0197   -1.2238 C   0  0  0  0  0  0  0  0  0  0  0  0 
    5.7678   -0.0112   -2.0020 O   0  0  0  0  0  0  0  0  0  0  0  0 
    2.5192    0.2846    0.5966 O   0  0  0  0  0  0  0  0  0  0  0  0 
    4.3164   -1.0969   -0.6708 O   0  0  0  0  0  0  0  0  0  0  0  0 
    1.1723   -0.6326    1.7703 H   0  0  0  0  0  0  0  0  0  0  0  0 
    0.5446    0.8462    0.9912 H   0  0  0  0  0  0  0  0  0  0  0  0 
    1.6693    0.9705    2.3791 H   0  0  0  0  0  0  0  0  0  0  0  0 
    4.4284   -3.1081   -0.5365 H   0  0  0  0  0  0  0  0  0  0  0  0 
    6.0149   -2.3073   -0.7967 H   0  0  0  0  0  0  0  0  0  0  0  0 
    4.8742   -2.4614   -2.1515 H   0  0  0  0  0  0  0  0  0  0  0  0 
    4.6649    4.6045   -1.5069 H   0  0  0  0  0  0  0  0  0  0  0  0 
    2.7160    4.8071    0.0443 H   0  0  0  0  0  0  0  0  0  0  0  0 
    5.5621    2.3324   -2.0228 H   0  0  0  0  0  0  0  0  0  0  0  0 
    1.7083    2.8061    1.0331 H   0  0  0  0  0  0  0  0  0  0  0  0 
  1 13  1  0  0  0  0 
  1 15  1  0  0  0  0 
  2 17  1  0  0  0  0 
  2 12  1  0  0  0  0 
  2 16  1  0  0  0  0 
  3  4  1  0  0  0  0 
  4 20  1  0  0  0  0 
  4  6  2  0  0  0  0 
  5  3  2  0  0  0  0 
  5  7  1  0  0  0  0 
  6 22  1  0  0  0  0 
  7  8  2  0  0  0  0 
  8  6  1  0  0  0  0 
  8 11  1  0  0  0  0 
  9  7  1  0  0  0  0 
  9 12  1  0  0  0  0 
 10  9  2  0  0  0  0 
 11  1  1  0  0  0  0 
 14  1  1  0  0  0  0 
 18  2  1  0  0  0  0 
 19  3  1  0  0  0  0 
 21  5  1  0  0  0  0 
M  END 
>  <HBA> 
3 
 
>  <HBD> 
0 
 
>  <TPSA> 
35.53 
 
>  <cid> 
61151 
 
>  <dipole> 
3.39 
 
>  <excitation_energy_1> 
4.433 
 
>  <excitation_energy_2> 
4.889 
 
>  <excitation_energy_3> 
5.346 
 
>  <excitation_energy_4> 
5.664 
 
>  <homo_energy> 
-6.147 
 
>  <homo_lumo_gap> 
5.138 
 
>  <logP> 
1.482 
 
>  <lumo_energy> 
-1.01 
 
>  <melting_point> 
35.37 
 
>  <molecular_refractivity> 
44.21 
 
>  <oscillator_strength_1> 
0.1048 
 
>  <oscillator_strength_2> 
0.0002 
 
>  <oscillator_strength_3> 
0.1444 
 
>  <oscillator_strength_4> 
0.0025 
 
>  <open_babel_can_smiles> 
COC(=O)c1ccccc1OC 
 
>  <mulliken_charges> 
22 
1   -0.217982 
2   -0.214733 
3   -0.137622 
4   -0.124591 
5   -0.166926 
6   -0.203139 
7   0.016918 
8   0.331416 
9   0.597378 
10   -0.500309 
11   -0.484326 
12   -0.447299 
13   0.174372 
14   0.154402 
15   0.154503 
16   0.159774 
17   0.167993 
18   0.167849 
19   0.133116 
20   0.135424 
21   0.167846 
22   0.135938 
 
>  <lowdin_charges> 
22 
1   -0.277633 
2   -0.275505 
3   -0.18109 
4   -0.130317 
5   -0.119955 
6   -0.216123 
7   -0.075712 
8   0.114987 
9   0.195714 
10   -0.282279 
11   -0.175609 
12   -0.174399 
13   0.164654 
14   0.147423 
15   0.14707 
16   0.158977 
17   0.156576 
18   0.156189 
19   0.161541 
20   0.160273 
21   0.18036 
22   0.164857 
 
$$$$ 
 
