PCCDB-ID:  10931 
public computational chemistry database (PCCDB) project, http://pccdb.org 
 
 15 14  0  0  0  0  0  0  0  0999 V2000 
    1.0322   -0.1786    0.0735 C   0  0  0  0  0  0  0  0  0  0  0  0 
    2.9932    1.1546    0.9815 C   0  0  0  0  0  0  0  0  0  0  0  0 
    3.3310   -0.8278   -0.5729 C   0  0  0  0  0  0  0  0  0  0  0  0 
    2.5299   -0.0065    0.1327 C   0  0  0  0  0  0  0  0  0  0  0  0 
    4.8147   -0.7894   -0.7083 C   0  0  0  0  0  0  0  0  0  0  0  0 
    5.3804   -1.0272   -1.7485 O   0  0  0  0  0  0  0  0  0  0  0  0 
    5.5470   -0.4953    0.4089 O   0  0  0  0  0  0  0  0  0  0  0  0 
    0.6122   -0.2783    1.0835 H   0  0  0  0  0  0  0  0  0  0  0  0 
    0.7413   -1.0572   -0.5087 H   0  0  0  0  0  0  0  0  0  0  0  0 
    0.5581    0.7047   -0.3753 H   0  0  0  0  0  0  0  0  0  0  0  0 
    2.4320    2.0574    0.7095 H   0  0  0  0  0  0  0  0  0  0  0  0 
    4.0556    1.3798    0.8701 H   0  0  0  0  0  0  0  0  0  0  0  0 
    2.7789    0.9724    2.0444 H   0  0  0  0  0  0  0  0  0  0  0  0 
    2.8782   -1.5715   -1.2237 H   0  0  0  0  0  0  0  0  0  0  0  0 
    4.9612   -0.4960    1.1829 H   0  0  0  0  0  0  0  0  0  0  0  0 
  1  4  1  0  0  0  0 
  1  8  1  0  0  0  0 
  2 13  1  0  0  0  0 
  3  4  2  0  0  0  0 
  4  2  1  0  0  0  0 
  5  3  1  0  0  0  0 
  5  7  1  0  0  0  0 
  6  5  2  0  0  0  0 
  7 15  1  0  0  0  0 
  9  1  1  0  0  0  0 
 10  1  1  0  0  0  0 
 11  2  1  0  0  0  0 
 12  2  1  0  0  0  0 
 14  3  1  0  0  0  0 
M  END 
>  <HBA> 
2 
 
>  <HBD> 
1 
 
>  <TPSA> 
37.3 
 
>  <cid> 
10931 
 
>  <dipole> 
5.24 
 
>  <excitation_energy_1> 
4.865 
 
>  <excitation_energy_2> 
5.99 
 
>  <excitation_energy_3> 
6.306 
 
>  <excitation_energy_4> 
6.674 
 
>  <homo_energy> 
-7.064 
 
>  <homo_lumo_gap> 
6.074 
 
>  <logP> 
1.037 
 
>  <lumo_energy> 
-0.991 
 
>  <melting_point> 
64.47 
 
>  <molecular_refractivity> 
27.45 
 
>  <oscillator_strength_1> 
0.017 
 
>  <oscillator_strength_2> 
0.2661 
 
>  <oscillator_strength_3> 
0.1041 
 
>  <oscillator_strength_4> 
0.0006 
 
>  <open_babel_can_smiles> 
CC(=CC(=O)O)C 
 
>  <mulliken_charges> 
15 
1   -0.508009 
2   -0.547378 
3   -0.272011 
4   0.194895 
5   0.567727 
6   -0.442005 
7   -0.571426 
8   0.161458 
9   0.167144 
10   0.168008 
11   0.173866 
12   0.175987 
13   0.164293 
14   0.158093 
15   0.409358 
 
>  <lowdin_charges> 
15 
1   -0.439081 
2   -0.458132 
3   -0.239158 
4   0.026424 
5   0.192219 
6   -0.237279 
7   -0.364339 
8   0.160526 
9   0.163347 
10   0.165098 
11   0.169959 
12   0.165198 
13   0.161129 
14   0.176771 
15   0.357318 
 
$$$$ 
 
