PCCDB-ID:  54444 
public computational chemistry database (PCCDB) project, http://pccdb.org 
 
 36 38  0  0  1  0  0  0  0  0999 V2000 
    2.4033   -0.1458   -1.1595 C   0  0  0  0  0  0  0  0  0  0  0  0 
    2.7785    1.8248    0.2709 C   0  0  0  0  0  0  0  0  0  0  0  0 
    0.0434   -3.2657    0.8927 C   0  0  0  0  0  0  0  0  0  0  0  0 
    0.6820   -4.3734    1.4435 C   0  0  0  0  0  0  0  0  0  0  0  0 
    2.5860    0.1511    2.7478 C   0  0  0  0  0  0  0  0  0  0  0  0 
    1.3496    1.0614    2.9244 C   0  0  0  0  0  0  0  0  0  0  0  0 
   -0.0638   -0.8478    0.1759 C   0  0  0  0  0  0  0  0  0  0  0  0 
    2.6105   -2.9882    1.8776 C   0  0  0  0  0  0  0  0  0  0  0  0 
    0.6609   -2.0124    0.8209 C   0  0  0  0  0  0  0  0  0  0  0  0 
    1.9800   -4.2302    1.9395 C   0  0  0  0  0  0  0  0  0  0  0  0 
    1.9676   -1.8728    1.3315 C   0  0  0  0  0  0  0  0  0  0  0  0 
    0.6021    0.4868    0.5481 C   0  0  2  0  0  0  0  0  0  0  0  0 
    2.1275    0.4239    0.2515 C   0  0  0  0  0  0  0  0  0  0  0  0 
    2.7067   -0.5147    1.3424 C   0  0  1  0  0  0  0  0  0  0  0  0 
    0.3020    0.7097    1.9781 N   0  0  0  0  0  0  0  0  0  0  0  0 
    2.6827   -5.2683    2.4958 O   0  0  0  0  0  0  0  0  0  0  0  0 
    4.0957   -0.7006    1.0335 O   0  0  0  0  0  0  0  0  0  0  0  0 
    3.4686   -0.0553   -1.3882 H   0  0  0  0  0  0  0  0  0  0  0  0 
    1.8451    0.4214   -1.9147 H   0  0  0  0  0  0  0  0  0  0  0  0 
    2.1394   -1.2012   -1.2565 H   0  0  0  0  0  0  0  0  0  0  0  0 
    2.3940    2.4144   -0.5702 H   0  0  0  0  0  0  0  0  0  0  0  0 
    3.8619    1.7328    0.1515 H   0  0  0  0  0  0  0  0  0  0  0  0 
    2.5870    2.3973    1.1799 H   0  0  0  0  0  0  0  0  0  0  0  0 
   -0.9665   -3.3781    0.5034 H   0  0  0  0  0  0  0  0  0  0  0  0 
    0.1771   -5.3369    1.4884 H   0  0  0  0  0  0  0  0  0  0  0  0 
    2.5891   -0.6386    3.5070 H   0  0  0  0  0  0  0  0  0  0  0  0 
    3.4895    0.7528    2.8979 H   0  0  0  0  0  0  0  0  0  0  0  0 
    1.6645    2.1191    2.8693 H   0  0  0  0  0  0  0  0  0  0  0  0 
    0.9363    0.9273    3.9318 H   0  0  0  0  0  0  0  0  0  0  0  0 
   -1.1077   -0.8260    0.5121 H   0  0  0  0  0  0  0  0  0  0  0  0 
   -0.0920   -0.9741   -0.9158 H   0  0  0  0  0  0  0  0  0  0  0  0 
    3.6242   -2.9244    2.2611 H   0  0  0  0  0  0  0  0  0  0  0  0 
    0.1740    1.2907   -0.0721 H   0  0  0  0  0  0  0  0  0  0  0  0 
   -0.5135    1.3005    2.0925 H   0  0  0  0  0  0  0  0  0  0  0  0 
    2.1350   -6.0676    2.4613 H   0  0  0  0  0  0  0  0  0  0  0  0 
    4.5343   -1.0574    1.8207 H   0  0  0  0  0  0  0  0  0  0  0  0 
  1 13  1  0  0  0  0 
  2 23  1  0  0  0  0 
  3  4  1  0  0  0  0 
  4 25  1  0  0  0  0 
  4 10  2  0  0  0  0 
  5 27  1  0  0  0  0 
  5  6  1  0  0  0  0 
  5 26  1  0  0  0  0 
  6 29  1  0  0  0  0 
  7 30  1  0  0  0  0 
  7 12  1  0  0  0  0 
  7  9  1  0  0  0  0 
  8 10  1  0  0  0  0 
  8 32  1  0  0  0  0 
  9  3  2  0  0  0  0 
  9 11  1  0  0  0  0 
 10 16  1  0  0  0  0 
 11 14  1  0  0  0  0 
 11  8  2  0  0  0  0 
 12 33  1  6  0  0  0 
 12 15  1  0  0  0  0 
 13  2  1  0  0  0  0 
 13 12  1  0  0  0  0 
 13 14  1  0  0  0  0 
 14 17  1  6  0  0  0 
 14  5  1  0  0  0  0 
 15 34  1  0  0  0  0 
 15  6  1  0  0  0  0 
 17 36  1  0  0  0  0 
 18  1  1  0  0  0  0 
 19  1  1  0  0  0  0 
 20  1  1  0  0  0  0 
 21  2  1  0  0  0  0 
 22  2  1  0  0  0  0 
 24  3  1  0  0  0  0 
 28  6  1  0  0  0  0 
 31  7  1  0  0  0  0 
 35 16  1  0  0  0  0 
M  END 
>  <HBA> 
3 
 
>  <HBD> 
3 
 
>  <TPSA> 
52.49 
 
>  <cid> 
54444 
 
>  <dipole> 
1.85 
 
>  <excitation_energy_1> 
4.686 
 
>  <excitation_energy_2> 
4.813 
 
>  <excitation_energy_3> 
4.846 
 
>  <excitation_energy_4> 
4.981 
 
>  <homo_energy> 
-5.464 
 
>  <homo_lumo_gap> 
5.551 
 
>  <logP> 
1.853 
 
>  <lumo_energy> 
0.087 
 
>  <melting_point> 
165.57 
 
>  <molecular_refractivity> 
70.51 
 
>  <oscillator_strength_1> 
0.0142 
 
>  <oscillator_strength_2> 
0.006 
 
>  <oscillator_strength_3> 
0.0283 
 
>  <oscillator_strength_4> 
0.0014 
 
>  <open_babel_can_smiles> 
Oc1ccc2c(c1)[C@]1(O)CCN[C@H](C2)C1(C)C 
 
>  <mulliken_charges> 
36 
1   -0.462591 
2   -0.472839 
3   -0.201642 
4   -0.192714 
5   -0.317657 
6   -0.112414 
7   -0.321711 
8   -0.233597 
9   0.14422 
10   0.351415 
11   0.119918 
12   0.012669 
13   0.057436 
14   0.250593 
15   -0.579321 
16   -0.65021 
17   -0.656504 
18   0.16399 
19   0.13107 
20   0.156724 
21   0.135944 
22   0.163409 
23   0.14362 
24   0.120296 
25   0.113262 
26   0.147359 
27   0.143096 
28   0.118288 
29   0.137313 
30   0.136709 
31   0.142237 
32   0.107444 
33   0.107255 
34   0.296966 
35   0.404988 
36   0.394978 
 
>  <lowdin_charges> 
36 
1   -0.44362 
2   -0.449554 
3   -0.15149 
4   -0.216462 
5   -0.301597 
6   -0.1966 
7   -0.278493 
8   -0.194936 
9   -0.022198 
10   0.098257 
11   -0.010658 
12   -0.063108 
13   0.000845 
14   0.120453 
15   -0.37296 
16   -0.385566 
17   -0.450973 
18   0.160468 
19   0.144856 
20   0.156892 
21   0.148467 
22   0.15825 
23   0.150092 
24   0.153315 
25   0.150949 
26   0.152912 
27   0.150052 
28   0.113071 
29   0.143819 
30   0.149016 
31   0.145189 
32   0.15275 
33   0.130273 
34   0.259707 
35   0.356554 
36   0.342028 
 
$$$$ 
 
