PCCDB-ID:  21903 
public computational chemistry database (PCCDB) project, http://pccdb.org 
 
 39 39  0  0  1  0  0  0  0  0999 V2000 
    1.1117   -0.0844    0.0457 C   0  0  0  0  0  0  0  0  0  0  0  0 
    3.0180   -1.7223   -0.1861 C   0  0  0  0  0  0  0  0  0  0  0  0 
    5.5801    3.0792    1.2269 C   0  0  0  0  0  0  0  0  0  0  0  0 
    4.7655    3.8769   -1.0235 C   0  0  0  0  0  0  0  0  0  0  0  0 
    3.0258    0.5004   -1.4791 C   0  0  0  0  0  0  0  0  0  0  0  0 
    5.3153    1.3942   -0.6190 C   0  0  0  0  0  0  0  0  0  0  0  0 
    4.9908    1.1264   -5.2993 C   0  0  0  0  0  0  0  0  0  0  0  0 
    5.3608   -0.6378   -3.4360 C   0  0  0  0  0  0  0  0  0  0  0  0 
    2.6245   -0.2368   -0.1834 C   0  0  0  0  0  0  0  0  0  0  0  0 
    4.7674    2.7088   -0.0251 C   0  0  0  0  0  0  0  0  0  0  0  0 
    5.4766    0.8143   -3.8914 C   0  0  2  0  0  0  0  0  0  0  0  0 
    4.5239    0.7203   -1.7514 C   0  0  0  0  0  0  0  0  0  0  0  0 
    5.0368    2.5154   -5.5719 O   0  0  0  0  0  0  0  0  0  0  0  0 
    5.2012   -0.5162   -2.0287 O   0  0  0  0  0  0  0  0  0  0  0  0 
    4.6059    1.4838   -2.9721 O   0  0  0  0  0  0  0  0  0  0  0  0 
    0.8010   -0.5890    0.9681 H   0  0  0  0  0  0  0  0  0  0  0  0 
    0.5430   -0.5280   -0.7821 H   0  0  0  0  0  0  0  0  0  0  0  0 
    0.8188    0.9696    0.1239 H   0  0  0  0  0  0  0  0  0  0  0  0 
    2.7177   -2.2009    0.7539 H   0  0  0  0  0  0  0  0  0  0  0  0 
    4.0934   -1.8598   -0.3195 H   0  0  0  0  0  0  0  0  0  0  0  0 
    2.5133   -2.2534   -1.0042 H   0  0  0  0  0  0  0  0  0  0  0  0 
    5.1969    3.9977    1.6865 H   0  0  0  0  0  0  0  0  0  0  0  0 
    6.6346    3.2494    0.9739 H   0  0  0  0  0  0  0  0  0  0  0  0 
    5.5423    2.2846    1.9816 H   0  0  0  0  0  0  0  0  0  0  0  0 
    4.3940    4.7906   -0.5439 H   0  0  0  0  0  0  0  0  0  0  0  0 
    4.1422    3.6696   -1.8969 H   0  0  0  0  0  0  0  0  0  0  0  0 
    5.7817    4.0796   -1.3858 H   0  0  0  0  0  0  0  0  0  0  0  0 
    2.5549    1.4917   -1.4880 H   0  0  0  0  0  0  0  0  0  0  0  0 
    2.6157   -0.0356   -2.3456 H   0  0  0  0  0  0  0  0  0  0  0  0 
    5.4110    0.6526    0.1842 H   0  0  0  0  0  0  0  0  0  0  0  0 
    6.3313    1.5609   -1.0004 H   0  0  0  0  0  0  0  0  0  0  0  0 
    3.9722    0.7229   -5.4221 H   0  0  0  0  0  0  0  0  0  0  0  0 
    5.6403    0.6415   -6.0365 H   0  0  0  0  0  0  0  0  0  0  0  0 
    6.2559   -1.2357   -3.6279 H   0  0  0  0  0  0  0  0  0  0  0  0 
    4.4923   -1.1331   -3.8982 H   0  0  0  0  0  0  0  0  0  0  0  0 
    3.1333    0.2471    0.6625 H   0  0  0  0  0  0  0  0  0  0  0  0 
    3.7303    2.5384    0.2981 H   0  0  0  0  0  0  0  0  0  0  0  0 
    6.5054    1.1841   -3.7683 H   0  0  0  0  0  0  0  0  0  0  0  0 
    4.5340    2.9447   -4.8603 H   0  0  0  0  0  0  0  0  0  0  0  0 
  1 18  1  0  0  0  0 
  1 16  1  0  0  0  0 
  2  9  1  0  0  0  0 
  2 19  1  0  0  0  0 
  3 22  1  0  0  0  0 
  3 24  1  0  0  0  0 
  4 25  1  0  0  0  0 
  4 10  1  0  0  0  0 
  5  9  1  0  0  0  0 
  6 10  1  0  0  0  0 
  6 30  1  0  0  0  0 
  7 11  1  0  0  0  0 
  8 14  1  0  0  0  0 
  9  1  1  0  0  0  0 
  9 36  1  0  0  0  0 
 10 37  1  0  0  0  0 
 10  3  1  0  0  0  0 
 11 38  1  1  0  0  0 
 11  8  1  0  0  0  0 
 11 15  1  0  0  0  0 
 12  5  1  0  0  0  0 
 12  6  1  0  0  0  0 
 13  7  1  0  0  0  0 
 13 39  1  0  0  0  0 
 14 12  1  0  0  0  0 
 15 12  1  0  0  0  0 
 17  1  1  0  0  0  0 
 20  2  1  0  0  0  0 
 21  2  1  0  0  0  0 
 23  3  1  0  0  0  0 
 26  4  1  0  0  0  0 
 27  4  1  0  0  0  0 
 28  5  1  0  0  0  0 
 29  5  1  0  0  0  0 
 31  6  1  0  0  0  0 
 32  7  1  0  0  0  0 
 33  7  1  0  0  0  0 
 34  8  1  0  0  0  0 
 35  8  1  0  0  0  0 
M  END 
>  <HBA> 
3 
 
>  <HBD> 
1 
 
>  <TPSA> 
38.69 
 
>  <cid> 
21903 
 
>  <dipole> 
1.24 
 
>  <excitation_energy_1> 
6.343 
 
>  <excitation_energy_2> 
6.524 
 
>  <excitation_energy_3> 
6.631 
 
>  <excitation_energy_4> 
6.662 
 
>  <homo_energy> 
-6.759 
 
>  <homo_lumo_gap> 
8.604 
 
>  <logP> 
2.183 
 
>  <lumo_energy> 
1.845 
 
>  <melting_point> 
3.77 
 
>  <molecular_refractivity> 
61.05 
 
>  <oscillator_strength_1> 
0.0056 
 
>  <oscillator_strength_2> 
0.0037 
 
>  <oscillator_strength_3> 
0.0166 
 
>  <oscillator_strength_4> 
0.0031 
 
>  <open_babel_can_smiles> 
OC[C@@H]1COC(O1)(CC(C)C)CC(C)C 
 
>  <mulliken_charges> 
39 
1   -0.443462 
2   -0.44564 
3   -0.443103 
4   -0.441145 
5   -0.275971 
6   -0.275157 
7   -0.034948 
8   -0.048229 
9   -0.080959 
10   -0.083268 
11   0.107106 
12   0.539037 
13   -0.618919 
14   -0.515554 
15   -0.552902 
16   0.141427 
17   0.139786 
18   0.138776 
19   0.132988 
20   0.16991 
21   0.132191 
22   0.141181 
23   0.141234 
24   0.139562 
25   0.13426 
26   0.155233 
27   0.138272 
28   0.142675 
29   0.129842 
30   0.146098 
31   0.13516 
32   0.124026 
33   0.144941 
34   0.154264 
35   0.132197 
36   0.128104 
37   0.127911 
38   0.138739 
39   0.404339 
 
>  <lowdin_charges> 
39 
1   -0.443443 
2   -0.450363 
3   -0.442348 
4   -0.448737 
5   -0.292576 
6   -0.290846 
7   -0.141322 
8   -0.145324 
9   -0.123536 
10   -0.121827 
11   -0.026688 
12   0.221939 
13   -0.46373 
14   -0.264618 
15   -0.280566 
16   0.149048 
17   0.146782 
18   0.144781 
19   0.144612 
20   0.158864 
21   0.144202 
22   0.148953 
23   0.14523 
24   0.147315 
25   0.145359 
26   0.153207 
27   0.145566 
28   0.152162 
29   0.148143 
30   0.155367 
31   0.149531 
32   0.129869 
33   0.152012 
34   0.157136 
35   0.134815 
36   0.138464 
37   0.135925 
38   0.137724 
39   0.348919 
 
$$$$ 
 
