PCCDB-ID:  12669 
public computational chemistry database (PCCDB) project, http://pccdb.org 
 
  5  4  0  0  0  0  0  0  0  0999 V2000 
    1.0032    0.0006   -0.0999 C   0  0  0  0  0  0  0  0  0  0  0  0 
    2.0965    0.0006   -0.0999 H   0  0  0  0  0  0  0  0  0  0  0  0 
    0.6388   -0.8637    0.4619 H   0  0  0  0  0  0  0  0  0  0  0  0 
    0.6388   -0.0539   -1.1292 H   0  0  0  0  0  0  0  0  0  0  0  0 
    0.6388    0.9192    0.3676 H   0  0  0  0  0  0  0  0  0  0  0  0 
  1  2  1  0  0  0  0 
  1  5  1  0  0  0  0 
  1  3  1  0  0  0  0 
  4  1  1  0  0  0  0 
M  END 
>  <HBA> 
0 
 
>  <HBD> 
0 
 
>  <TPSA> 
0.0 
 
>  <cid> 
12669 
 
>  <dipole> 
0.0 
 
>  <excitation_energy_1> 
10.103 
 
>  <excitation_energy_2> 
10.103 
 
>  <excitation_energy_3> 
10.103 
 
>  <excitation_energy_4> 
11.272 
 
>  <homo_energy> 
-10.588 
 
>  <homo_lumo_gap> 
13.796 
 
>  <logP> 
0.636 
 
>  <lumo_energy> 
3.208 
 
>  <melting_point> 
-23.24 
 
>  <molecular_refractivity> 
6.92 
 
>  <oscillator_strength_1> 
0.1278 
 
>  <oscillator_strength_2> 
0.1278 
 
>  <oscillator_strength_3> 
0.1278 
 
>  <oscillator_strength_4> 
0.0 
 
>  <open_babel_can_smiles> 
C 
 
>  <mulliken_charges> 
5 
1   -0.628105 
2   0.15703 
3   0.157018 
4   0.157032 
5   0.157025 
 
>  <lowdin_charges> 
5 
1   -0.632743 
2   0.156781 
3   0.159283 
4   0.157738 
5   0.158942 
 
$$$$ 
 
