PCCDB-ID:  18212 
public computational chemistry database (PCCDB) project, http://pccdb.org 
 
 29 29  0  0  0  0  0  0  0  0999 V2000 
    1.2161    0.5937   -0.4575 C   0  0  0  0  0  0  0  0  0  0  0  0 
    2.5264   -0.0553    1.6138 C   0  0  0  0  0  0  0  0  0  0  0  0 
    5.5048   -4.4882   -2.8851 C   0  0  0  0  0  0  0  0  0  0  0  0 
    8.9264    0.2499   -0.6632 C   0  0  0  0  0  0  0  0  0  0  0  0 
    2.5974    0.2406    0.1063 C   0  0  0  0  0  0  0  0  0  0  0  0 
    6.1456   -2.4870   -1.8470 C   0  0  0  0  0  0  0  0  0  0  0  0 
    4.3486   -1.0758   -0.8330 C   0  0  0  0  0  0  0  0  0  0  0  0 
    6.7013   -0.5146   -0.8069 C   0  0  0  0  0  0  0  0  0  0  0  0 
    6.5176   -3.5314   -2.4820 N   0  0  0  0  0  0  0  0  0  0  0  0 
    3.1024   -0.9241   -0.6128 N   0  0  0  0  0  0  0  0  0  0  0  0 
    4.8079   -2.1953   -1.5119 N   0  0  0  0  0  0  0  0  0  0  0  0 
    7.1017   -1.5519   -1.4439 N   0  0  0  0  0  0  0  0  0  0  0  0 
    5.3969   -0.2238   -0.4702 N   0  0  0  0  0  0  0  0  0  0  0  0 
    7.5307    0.4431   -0.3714 O   0  0  0  0  0  0  0  0  0  0  0  0 
    0.7967    1.4701    0.0499 H   0  0  0  0  0  0  0  0  0  0  0  0 
    0.5300   -0.2500   -0.3241 H   0  0  0  0  0  0  0  0  0  0  0  0 
    1.2805    0.8088   -1.5290 H   0  0  0  0  0  0  0  0  0  0  0  0 
    2.1103    0.7981    2.1622 H   0  0  0  0  0  0  0  0  0  0  0  0 
    3.5179   -0.2777    2.0253 H   0  0  0  0  0  0  0  0  0  0  0  0 
    1.8875   -0.9270    1.7924 H   0  0  0  0  0  0  0  0  0  0  0  0 
    5.9878   -5.3251   -3.3977 H   0  0  0  0  0  0  0  0  0  0  0  0 
    4.7664   -4.0605   -3.5855 H   0  0  0  0  0  0  0  0  0  0  0  0 
    4.9459   -4.9085   -2.0309 H   0  0  0  0  0  0  0  0  0  0  0  0 
    9.4276    1.1151   -0.2284 H   0  0  0  0  0  0  0  0  0  0  0  0 
    9.0873    0.2072   -1.7428 H   0  0  0  0  0  0  0  0  0  0  0  0 
    9.2851   -0.6777   -0.2117 H   0  0  0  0  0  0  0  0  0  0  0  0 
    3.2414    1.1292   -0.0414 H   0  0  0  0  0  0  0  0  0  0  0  0 
    4.0746   -2.8319   -1.7909 H   0  0  0  0  0  0  0  0  0  0  0  0 
    5.2036    0.6287    0.0339 H   0  0  0  0  0  0  0  0  0  0  0  0 
  1 16  1  0  0  0  0 
  1 15  1  0  0  0  0 
  1  5  1  0  0  0  0 
  2 20  1  0  0  0  0 
  2 19  1  0  0  0  0 
  2 18  1  0  0  0  0 
  3  9  1  0  0  0  0 
  3 23  1  0  0  0  0 
  4 14  1  0  0  0  0 
  4 24  1  0  0  0  0 
  4 26  1  0  0  0  0 
  5  2  1  0  0  0  0 
  6 11  1  0  0  0  0 
  6 12  2  0  0  0  0 
  7 10  2  0  0  0  0 
  7 13  1  0  0  0  0 
  8 13  1  0  0  0  0 
  8 14  1  0  0  0  0 
  9  6  1  0  0  0  0 
 10  5  1  0  0  0  0 
 11  7  1  0  0  0  0 
 12  8  2  0  0  0  0 
 13 29  1  0  0  0  0 
 17  1  1  0  0  0  0 
 21  3  1  0  0  0  0 
 22  3  1  0  0  0  0 
 25  4  1  0  0  0  0 
 27  5  1  0  0  0  0 
 28 11  1  0  0  0  0 
M  RAD  1   9   2 
M  END 
>  <HBA> 
6 
 
>  <HBD> 
2 
 
>  <TPSA> 
71.96 
 
>  <cid> 
18212 
 
>  <dipole> 
3.37 
 
>  <excitation_energy_1> 
5.264 
 
>  <excitation_energy_2> 
5.282 
 
>  <excitation_energy_3> 
5.364 
 
>  <excitation_energy_4> 
5.418 
 
>  <homo_energy> 
-6.0 
 
>  <homo_lumo_gap> 
5.927 
 
>  <logP> 
0.888 
 
>  <lumo_energy> 
-0.073 
 
>  <melting_point> 
124.72 
 
>  <molecular_refractivity> 
54.54 
 
>  <oscillator_strength_1> 
0.0028 
 
>  <oscillator_strength_2> 
0.0187 
 
>  <oscillator_strength_3> 
0.008 
 
>  <oscillator_strength_4> 
0.0436 
 
>  <open_babel_can_smiles> 
C[N]C1=[N]=C(N/C(=N\C(C)C)/N1)OC 
 
>  <mulliken_charges> 
29 
1   -0.427622 
2   -0.432195 
3   -0.346256 
4   -0.211797 
5   0.012035 
6   0.659661 
7   0.755364 
8   0.764989 
9   -0.45002 
10   -0.494062 
11   -0.72443 
12   -0.530406 
13   -0.722506 
14   -0.495034 
15   0.133932 
16   0.152943 
17   0.148362 
18   0.141117 
19   0.136362 
20   0.159177 
21   0.165042 
22   0.136837 
23   0.135947 
24   0.166817 
25   0.182688 
26   0.183433 
27   0.093129 
28   0.348568 
29   0.357928 
 
>  <lowdin_charges> 
29 
1   -0.442496 
2   -0.451154 
3   -0.37078 
4   -0.267378 
5   -0.053766 
6   0.123357 
7   0.135844 
8   0.180594 
9   -0.230474 
10   -0.258661 
11   -0.261039 
12   -0.222173 
13   -0.25051 
14   -0.186758 
15   0.146631 
16   0.155474 
17   0.152133 
18   0.150651 
19   0.145198 
20   0.158024 
21   0.158962 
22   0.136863 
23   0.136128 
24   0.162701 
25   0.164556 
26   0.167168 
27   0.111018 
28   0.303985 
29   0.305901 
 
$$$$ 
 
