PCCDB-ID:  17780 
public computational chemistry database (PCCDB) project, http://pccdb.org 
 
 23 23  0  0  1  0  0  0  0  0999 V2000 
    0.9909   -0.0164   -0.0989 C   0  0  0  0  0  0  0  0  0  0  0  0 
    5.0706    2.5937    1.4265 C   0  0  0  0  0  0  0  0  0  0  0  0 
    4.6250   -1.2450    0.7349 C   0  0  0  0  0  0  0  0  0  0  0  0 
    3.0934   -1.2724    0.6566 C   0  0  0  0  0  0  0  0  0  0  0  0 
    5.1278    0.0311    1.4219 C   0  0  0  0  0  0  0  0  0  0  0  0 
    2.5189   -0.0183   -0.0478 C   0  0  2  0  0  0  0  0  0  0  0  0 
    4.6026    1.3146    0.7322 C   0  0  1  0  0  0  0  0  0  0  0  0 
    3.0765    1.2409    0.6233 C   0  0  0  0  0  0  0  0  0  0  0  0 
    2.3524    2.1171    1.0603 O   0  0  0  0  0  0  0  0  0  0  0  0 
    0.6237   -0.9063   -0.6225 H   0  0  0  0  0  0  0  0  0  0  0  0 
    0.6136    0.8713   -0.6146 H   0  0  0  0  0  0  0  0  0  0  0  0 
    0.5671   -0.0104    0.9108 H   0  0  0  0  0  0  0  0  0  0  0  0 
    6.1653    2.6359    1.4555 H   0  0  0  0  0  0  0  0  0  0  0  0 
    4.6959    2.6386    2.4544 H   0  0  0  0  0  0  0  0  0  0  0  0 
    4.7019    3.4832    0.9075 H   0  0  0  0  0  0  0  0  0  0  0  0 
    5.0438   -1.3021   -0.2805 H   0  0  0  0  0  0  0  0  0  0  0  0 
    4.9896   -2.1295    1.2719 H   0  0  0  0  0  0  0  0  0  0  0  0 
    2.6739   -1.3296    1.6718 H   0  0  0  0  0  0  0  0  0  0  0  0 
    2.7504   -2.1703    0.1273 H   0  0  0  0  0  0  0  0  0  0  0  0 
    6.2247    0.0544    1.4370 H   0  0  0  0  0  0  0  0  0  0  0  0 
    4.8011    0.0365    2.4722 H   0  0  0  0  0  0  0  0  0  0  0  0 
    2.9164   -0.0183   -1.0766 H   0  0  0  0  0  0  0  0  0  0  0  0 
    4.9850    1.3024   -0.3021 H   0  0  0  0  0  0  0  0  0  0  0  0 
  1  6  1  0  0  0  0 
  1 12  1  0  0  0  0 
  2 13  1  0  0  0  0 
  2 14  1  0  0  0  0 
  3 17  1  0  0  0  0 
  3  5  1  0  0  0  0 
  4  3  1  0  0  0  0 
  4 18  1  0  0  0  0 
  5 20  1  0  0  0  0 
  5 21  1  0  0  0  0 
  6 22  1  6  0  0  0 
  6  8  1  0  0  0  0 
  6  4  1  0  0  0  0 
  7 23  1  6  0  0  0 
  7  5  1  0  0  0  0 
  7  2  1  0  0  0  0 
  8  7  1  0  0  0  0 
  8  9  2  0  0  0  0 
 10  1  1  0  0  0  0 
 11  1  1  0  0  0  0 
 15  2  1  0  0  0  0 
 16  3  1  0  0  0  0 
 19  4  1  0  0  0  0 
M  END 
>  <HBA> 
1 
 
>  <HBD> 
0 
 
>  <TPSA> 
17.07 
 
>  <cid> 
17780 
 
>  <dipole> 
2.78 
 
>  <excitation_energy_1> 
4.224 
 
>  <excitation_energy_2> 
5.978 
 
>  <excitation_energy_3> 
6.345 
 
>  <excitation_energy_4> 
6.391 
 
>  <homo_energy> 
-6.37 
 
>  <homo_lumo_gap> 
6.071 
 
>  <logP> 
2.012 
 
>  <lumo_energy> 
-0.299 
 
>  <melting_point> 
16.08 
 
>  <molecular_refractivity> 
38.66 
 
>  <oscillator_strength_1> 
0.0 
 
>  <oscillator_strength_2> 
0.0 
 
>  <oscillator_strength_3> 
0.0045 
 
>  <oscillator_strength_4> 
0.0068 
 
>  <open_babel_can_smiles> 
O=C1[C@H](C)CCC[C@@H]1C 
 
>  <mulliken_charges> 
23 
1   -0.436875 
2   -0.437105 
3   -0.270069 
4   -0.263668 
5   -0.263677 
6   -0.165315 
7   -0.165226 
8   0.449765 
9   -0.455131 
10   0.134925 
11   0.158086 
12   0.154512 
13   0.134976 
14   0.154704 
15   0.157923 
16   0.132078 
17   0.139432 
18   0.140209 
19   0.140401 
20   0.140447 
21   0.140206 
22   0.139716 
23   0.139685 
 
>  <lowdin_charges> 
23 
1   -0.44027 
2   -0.4373 
3   -0.279387 
4   -0.27344 
5   -0.270163 
6   -0.157644 
7   -0.156864 
8   0.158166 
9   -0.235452 
10   0.147874 
11   0.160507 
12   0.155446 
13   0.145278 
14   0.15519 
15   0.160277 
16   0.138975 
17   0.149871 
18   0.142914 
19   0.148731 
20   0.146082 
21   0.142312 
22   0.149604 
23   0.149291 
 
$$$$ 
 
