PCCDB-ID:  36197 
public computational chemistry database (PCCDB) project, http://pccdb.org 
 
 26 27  0  0  1  0  0  0  0  0999 V2000 
   -0.2513   -4.8324    3.0848 C   0  0  0  0  0  0  0  0  0  0  0  0 
    1.0933   -5.1052    2.8303 C   0  0  0  0  0  0  0  0  0  0  0  0 
   -0.8078   -3.6219    2.6629 C   0  0  0  0  0  0  0  0  0  0  0  0 
    1.8803   -4.1680    2.1621 C   0  0  0  0  0  0  0  0  0  0  0  0 
   -0.0293   -2.6870    1.9838 C   0  0  0  0  0  0  0  0  0  0  0  0 
   -1.7048   -2.2835   -1.8401 C   0  0  0  0  0  0  0  0  0  0  0  0 
   -2.7637   -2.2258   -2.6868 C   0  0  0  0  0  0  0  0  0  0  0  0 
   -1.5199   -0.4913   -3.1773 C   0  0  0  0  0  0  0  0  0  0  0  0 
    1.3250   -2.9531    1.7268 C   0  0  0  0  0  0  0  0  0  0  0  0 
   -0.8830   -1.1437   -2.1575 C   0  0  0  0  0  0  0  0  0  0  0  0 
    2.2086   -1.9626    1.0569 C   0  0  2  0  0  0  0  0  0  0  0  0 
    0.3903   -0.6909   -1.5725 C   0  0  0  0  0  0  0  0  0  0  0  0 
    1.9934   -1.2180    0.0320 N   0  0  0  0  0  0  0  0  0  0  0  0 
    3.4646   -1.8319    1.5694 O   0  0  0  0  0  0  0  0  0  0  0  0 
    1.0238    0.2696   -1.9327 O   0  0  0  0  0  0  0  0  0  0  0  0 
   -2.6619   -1.1338   -3.5103 O   0  0  0  0  0  0  0  0  0  0  0  0 
    0.7336   -1.5338   -0.5400 O   0  0  0  0  0  0  0  0  0  0  0  0 
   -0.8644   -5.5593    3.6102 H   0  0  0  0  0  0  0  0  0  0  0  0 
    1.5307   -6.0468    3.1498 H   0  0  0  0  0  0  0  0  0  0  0  0 
   -1.8523   -3.4032    2.8667 H   0  0  0  0  0  0  0  0  0  0  0  0 
    2.9234   -4.3874    1.9505 H   0  0  0  0  0  0  0  0  0  0  0  0 
   -0.4624   -1.7489    1.6574 H   0  0  0  0  0  0  0  0  0  0  0  0 
   -1.5110   -3.0297   -1.0839 H   0  0  0  0  0  0  0  0  0  0  0  0 
   -3.6349   -2.8433   -2.8410 H   0  0  0  0  0  0  0  0  0  0  0  0 
   -1.2796    0.4013   -3.7335 H   0  0  0  0  0  0  0  0  0  0  0  0 
    3.4528   -2.1586    2.4831 H   0  0  0  0  0  0  0  0  0  0  0  0 
  1 18  1  0  0  0  0 
  2  1  1  0  0  0  0 
  2 19  1  0  0  0  0 
  3 20  1  0  0  0  0 
  3  1  2  0  0  0  0 
  4  2  2  0  0  0  0 
  5  3  1  0  0  0  0 
  6 23  1  0  0  0  0 
  7  6  2  0  0  0  0 
  8 10  2  0  0  0  0 
  9  5  2  0  0  0  0 
  9  4  1  0  0  0  0 
 10  6  1  0  0  0  0 
 10 12  1  0  0  0  0 
 11 13  1  6  0  0  0 
 11 14  1  0  0  0  0 
 11  9  1  0  0  0  0 
 12 17  1  0  0  0  0 
 14 26  1  0  0  0  0 
 15 12  2  0  0  0  0 
 16  8  1  0  0  0  0 
 16  7  1  0  0  0  0 
 17 13  1  0  0  0  0 
 21  4  1  0  0  0  0 
 22  5  1  0  0  0  0 
 24  7  1  0  0  0  0 
 25  8  1  0  0  0  0 
M  RAD  2  11   2  13   2 
M  END 
>  <HBA> 
5 
 
>  <HBD> 
1 
 
>  <TPSA> 
68.54 
 
>  <cid> 
36197 
 
>  <dipole> 
6.58 
 
>  <excitation_energy_1> 
4.547 
 
>  <excitation_energy_2> 
4.691 
 
>  <excitation_energy_3> 
4.932 
 
>  <excitation_energy_4> 
4.977 
 
>  <homo_energy> 
-6.498 
 
>  <homo_lumo_gap> 
5.129 
 
>  <logP> 
2.172 
 
>  <lumo_energy> 
-1.369 
 
>  <melting_point> 
120.13 
 
>  <molecular_refractivity> 
57.7 
 
>  <oscillator_strength_1> 
0.1174 
 
>  <oscillator_strength_2> 
0.1143 
 
>  <oscillator_strength_3> 
0.0015 
 
>  <oscillator_strength_4> 
0.0033 
 
>  <open_babel_can_smiles> 
O[C](c1ccccc1)[N]OC(=O)c1cocc1 
 
>  <mulliken_charges> 
26 
1   -0.119193 
2   -0.13088 
3   -0.141431 
4   -0.18694 
5   -0.140365 
6   -0.197965 
7   0.073023 
8   0.084825 
9   0.078718 
10   -0.004268 
11   0.435208 
12   0.613034 
13   -0.18035 
14   -0.5753 
15   -0.459043 
16   -0.39338 
17   -0.429574 
18   0.143035 
19   0.143982 
20   0.144411 
21   0.153396 
22   0.162165 
23   0.161244 
24   0.164895 
25   0.186994 
26   0.41376 
 
>  <lowdin_charges> 
26 
1   -0.143959 
2   -0.151595 
3   -0.151533 
4   -0.159062 
5   -0.138603 
6   -0.196509 
7   -0.080092 
8   -0.042594 
9   -0.043397 
10   -0.086905 
11   0.115958 
12   0.197008 
13   -0.055766 
14   -0.34886 
15   -0.232806 
16   -0.078936 
17   -0.143099 
18   0.165726 
19   0.164819 
20   0.163527 
21   0.165904 
22   0.174711 
23   0.18129 
24   0.175442 
25   0.188309 
26   0.361024 
 
$$$$ 
 
