PCCDB-ID:  61531 
public computational chemistry database (PCCDB) project, http://pccdb.org 
 
 28 28  0  0  0  0  0  0  0  0999 V2000 
    3.0503   -2.6268   -3.0702 C   0  0  0  0  0  0  0  0  0  0  0  0 
    6.3748   -0.1474    3.2922 C   0  0  0  0  0  0  0  0  0  0  0  0 
    2.5439   -2.4373   -1.6300 C   0  0  0  0  0  0  0  0  0  0  0  0 
    3.5635   -2.8347   -0.5971 C   0  0  0  0  0  0  0  0  0  0  0  0 
    4.0811   -2.0246    0.3303 C   0  0  0  0  0  0  0  0  0  0  0  0 
    5.1126   -2.4302    1.3616 C   0  0  0  0  0  0  0  0  0  0  0  0 
    7.2957   -1.9449    0.0030 C   0  0  0  0  0  0  0  0  0  0  0  0 
    8.4912   -0.9910    0.1728 C   0  0  0  0  0  0  0  0  0  0  0  0 
    6.9127   -0.7212    2.0179 C   0  0  0  0  0  0  0  0  0  0  0  0 
    6.4072   -1.6742    1.2035 C   0  0  0  0  0  0  0  0  0  0  0  0 
    8.2046   -0.2336    1.4747 C   0  0  0  0  0  0  0  0  0  0  0  0 
    8.9149    0.6198    1.9778 O   0  0  0  0  0  0  0  0  0  0  0  0 
    2.2750   -2.3609   -3.7975 H   0  0  0  0  0  0  0  0  0  0  0  0 
    3.3383   -3.6687   -3.2550 H   0  0  0  0  0  0  0  0  0  0  0  0 
    3.9278   -1.9995   -3.2630 H   0  0  0  0  0  0  0  0  0  0  0  0 
    5.4435   -0.6239    3.6108 H   0  0  0  0  0  0  0  0  0  0  0  0 
    6.1915    0.9283    3.1806 H   0  0  0  0  0  0  0  0  0  0  0  0 
    7.1128   -0.2493    4.0966 H   0  0  0  0  0  0  0  0  0  0  0  0 
    1.6348   -3.0421   -1.4941 H   0  0  0  0  0  0  0  0  0  0  0  0 
    2.2486   -1.3921   -1.4736 H   0  0  0  0  0  0  0  0  0  0  0  0 
    3.8976   -3.8746   -0.6333 H   0  0  0  0  0  0  0  0  0  0  0  0 
    3.7599   -0.9823    0.3687 H   0  0  0  0  0  0  0  0  0  0  0  0 
    5.3105   -3.5070    1.2641 H   0  0  0  0  0  0  0  0  0  0  0  0 
    4.7082   -2.2704    2.3693 H   0  0  0  0  0  0  0  0  0  0  0  0 
    7.5994   -3.0009   -0.0170 H   0  0  0  0  0  0  0  0  0  0  0  0 
    6.7427   -1.7729   -0.9291 H   0  0  0  0  0  0  0  0  0  0  0  0 
    8.5918   -0.2757   -0.6509 H   0  0  0  0  0  0  0  0  0  0  0  0 
    9.4515   -1.5112    0.2566 H   0  0  0  0  0  0  0  0  0  0  0  0 
  1  3  1  0  0  0  0 
  2 16  1  0  0  0  0 
  2 18  1  0  0  0  0 
  3 19  1  0  0  0  0 
  3 20  1  0  0  0  0 
  3  4  1  0  0  0  0 
  4  5  2  0  0  0  0 
  5 22  1  0  0  0  0 
  5  6  1  0  0  0  0 
  6 24  1  0  0  0  0 
  7  8  1  0  0  0  0 
  7 10  1  0  0  0  0 
  8 28  1  0  0  0  0 
  8 11  1  0  0  0  0 
  9  2  1  0  0  0  0 
 10  6  1  0  0  0  0 
 10  9  2  0  0  0  0 
 11 12  2  0  0  0  0 
 11  9  1  0  0  0  0 
 13  1  1  0  0  0  0 
 14  1  1  0  0  0  0 
 15  1  1  0  0  0  0 
 17  2  1  0  0  0  0 
 21  4  1  0  0  0  0 
 23  6  1  0  0  0  0 
 25  7  1  0  0  0  0 
 26  7  1  0  0  0  0 
 27  8  1  0  0  0  0 
M  END 
>  <HBA> 
1 
 
>  <HBD> 
0 
 
>  <TPSA> 
17.07 
 
>  <cid> 
61531 
 
>  <dipole> 
4.01 
 
>  <excitation_energy_1> 
3.85 
 
>  <excitation_energy_2> 
5.061 
 
>  <excitation_energy_3> 
5.502 
 
>  <excitation_energy_4> 
5.864 
 
>  <homo_energy> 
-6.261 
 
>  <homo_lumo_gap> 
5.304 
 
>  <logP> 
3.022 
 
>  <lumo_energy> 
-0.958 
 
>  <melting_point> 
40.51 
 
>  <molecular_refractivity> 
52.13 
 
>  <oscillator_strength_1> 
0.0008 
 
>  <oscillator_strength_2> 
0.0784 
 
>  <oscillator_strength_3> 
0.3943 
 
>  <oscillator_strength_4> 
0.0042 
 
>  <open_babel_can_smiles> 
CC1=C(C/C=C/CC)CCC1=O 
 
>  <mulliken_charges> 
28 
1   -0.440567 
2   -0.518728 
3   -0.298166 
4   -0.085263 
5   -0.09359 
6   -0.387241 
7   -0.33822 
8   -0.366854 
9   0.076077 
10   0.098699 
11   0.390928 
12   -0.476935 
13   0.147074 
14   0.144681 
15   0.149755 
16   0.148151 
17   0.172266 
18   0.173948 
19   0.145777 
20   0.141997 
21   0.117979 
22   0.127493 
23   0.151784 
24   0.157994 
25   0.152131 
26   0.163451 
27   0.172823 
28   0.172559 
 
>  <lowdin_charges> 
28 
1   -0.442731 
2   -0.438435 
3   -0.26761 
4   -0.160606 
5   -0.16762 
6   -0.269413 
7   -0.27844 
8   -0.310547 
9   -0.065553 
10   0.01701 
11   0.141822 
12   -0.256344 
13   0.152604 
14   0.147062 
15   0.150727 
16   0.154022 
17   0.167445 
18   0.170457 
19   0.150069 
20   0.14626 
21   0.144463 
22   0.149416 
23   0.155592 
24   0.158282 
25   0.152481 
26   0.159477 
27   0.17045 
28   0.169661 
 
$$$$ 
 
