PCCDB-ID:  26768 
public computational chemistry database (PCCDB) project, http://pccdb.org 
 
 17 16  0  0  0  0  0  0  0  0999 V2000 
    0.7624   -0.8447    0.5001 C   0  0  0  0  0  0  0  0  0  0  0  0 
    1.9272   -0.6603   -2.0442 C   0  0  0  0  0  0  0  0  0  0  0  0 
   -0.3464    0.0790    0.0124 C   0  0  0  0  0  0  0  0  0  0  0  0 
    1.3581   -2.0377   -2.3598 C   0  0  0  0  0  0  0  0  0  0  0  0 
   -1.4715   -0.2759   -0.4539 N   0  0  0  0  0  0  0  0  0  0  0  0 
    0.2686   -2.2822   -2.9618 N   0  0  0  0  0  0  0  0  0  0  0  0 
   -0.0810    1.4071    0.1085 O   0  0  0  0  0  0  0  0  0  0  0  0 
    2.1191   -3.0874   -1.9567 O   0  0  0  0  0  0  0  0  0  0  0  0 
    2.3971   -0.4695   -0.2700 S   0  0  0  0  0  0  0  0  0  0  0  0 
    0.4980   -1.8881    0.3142 H   0  0  0  0  0  0  0  0  0  0  0  0 
    0.9218   -0.7145    1.5769 H   0  0  0  0  0  0  0  0  0  0  0  0 
    1.2148    0.1195   -2.3228 H   0  0  0  0  0  0  0  0  0  0  0  0 
    2.8568   -0.4945   -2.6012 H   0  0  0  0  0  0  0  0  0  0  0  0 
   -1.5427   -1.2939   -0.4780 H   0  0  0  0  0  0  0  0  0  0  0  0 
   -0.2076   -1.4124   -3.2042 H   0  0  0  0  0  0  0  0  0  0  0  0 
    0.8580    1.5288    0.3328 H   0  0  0  0  0  0  0  0  0  0  0  0 
    2.8354   -2.7598   -1.3852 H   0  0  0  0  0  0  0  0  0  0  0  0 
  1 11  1  0  0  0  0 
  2  9  1  0  0  0  0 
  3  7  1  0  0  0  0 
  3  1  1  0  0  0  0 
  4  2  1  0  0  0  0 
  4  8  1  0  0  0  0 
  5  3  2  0  0  0  0 
  6  4  2  0  0  0  0 
  7 16  1  0  0  0  0 
  8 17  1  0  0  0  0 
  9  1  1  0  0  0  0 
 10  1  1  0  0  0  0 
 12  2  1  0  0  0  0 
 13  2  1  0  0  0  0 
 14  5  1  0  0  0  0 
 15  6  1  0  0  0  0 
M  END 
>  <HBA> 
5 
 
>  <HBD> 
2 
 
>  <TPSA> 
111.48 
 
>  <cid> 
26768 
 
>  <dipole> 
4.5 
 
>  <excitation_energy_1> 
5.463 
 
>  <excitation_energy_2> 
5.525 
 
>  <excitation_energy_3> 
5.74 
 
>  <excitation_energy_4> 
5.959 
 
>  <homo_energy> 
-7.238 
 
>  <homo_lumo_gap> 
6.757 
 
>  <logP> 
0.091 
 
>  <lumo_energy> 
-0.482 
 
>  <melting_point> 
135.01 
 
>  <molecular_refractivity> 
34.75 
 
>  <oscillator_strength_1> 
0.0026 
 
>  <oscillator_strength_2> 
0.0078 
 
>  <oscillator_strength_3> 
0.0053 
 
>  <oscillator_strength_4> 
0.0008 
 
>  <open_babel_can_smiles> 
OC(=N)CSCC(=N)O 
 
>  <mulliken_charges> 
17 
1   -0.523604 
2   -0.523553 
3   0.483017 
4   0.482798 
5   -0.569751 
6   -0.569793 
7   -0.569072 
8   -0.569065 
9   0.069001 
10   0.213191 
11   0.212161 
12   0.213301 
13   0.212384 
14   0.298929 
15   0.298836 
16   0.420572 
17   0.420648 
 
>  <lowdin_charges> 
17 
1   -0.412477 
2   -0.416495 
3   0.111637 
4   0.110139 
5   -0.37896 
6   -0.381635 
7   -0.360326 
8   -0.36132 
9   0.103227 
10   0.18121 
11   0.188052 
12   0.183357 
13   0.18977 
14   0.262661 
15   0.264889 
16   0.356773 
17   0.3595 
 
$$$$ 
 
