PCCDB-ID:  31143 
public computational chemistry database (PCCDB) project, http://pccdb.org 
 
 35 35  0  0  1  0  0  0  0  0999 V2000 
    3.5274    1.1203    1.5078 C   0  0  0  0  0  0  0  0  0  0  0  0 
    8.0586    0.6342   -4.9660 C   0  0  0  0  0  0  0  0  0  0  0  0 
    2.8864   -0.1609   -1.7100 C   0  0  0  0  0  0  0  0  0  0  0  0 
    4.6208    0.2500    0.8757 C   0  0  0  0  0  0  0  0  0  0  0  0 
    7.2302   -0.2916   -4.4835 C   0  0  0  0  0  0  0  0  0  0  0  0 
    5.0163    0.6592   -0.5694 C   0  0  0  0  0  0  0  0  0  0  0  0 
    6.6141   -0.2394   -3.1086 C   0  0  0  0  0  0  0  0  0  0  0  0 
    4.4208   -0.2491   -1.6720 C   0  0  2  0  0  0  0  0  0  0  0  0 
    4.7099    1.3294   -3.6966 C   0  0  0  0  0  0  0  0  0  0  0  0 
    4.4369   -1.0802   -4.0551 C   0  0  0  0  0  0  0  0  0  0  0  0 
    3.2570    0.4815   -5.2977 C   0  0  0  0  0  0  0  0  0  0  0  0 
    5.0550   -0.0422   -3.1142 C   0  0  1  0  0  0  0  0  0  0  0  0 
    3.9098    1.5640   -4.6574 N   0  0  0  0  0  0  0  0  0  0  0  0 
    3.6477   -0.8567   -5.0258 N   0  0  0  0  0  0  0  0  0  0  0  0 
    5.3058    2.4080   -3.1365 O   0  0  0  0  0  0  0  0  0  0  0  0 
    4.7556   -2.3762   -3.8199 O   0  0  0  0  0  0  0  0  0  0  0  0 
    2.3704    0.6964   -6.0925 O   0  0  0  0  0  0  0  0  0  0  0  0 
    2.5979    1.1016    0.9295 H   0  0  0  0  0  0  0  0  0  0  0  0 
    3.2959    0.7797    2.5231 H   0  0  0  0  0  0  0  0  0  0  0  0 
    3.8517    2.1657    1.5747 H   0  0  0  0  0  0  0  0  0  0  0  0 
    8.4719    0.5593   -5.9674 H   0  0  0  0  0  0  0  0  0  0  0  0 
    8.3507    1.5068   -4.3852 H   0  0  0  0  0  0  0  0  0  0  0  0 
    2.4536   -0.8448   -2.4457 H   0  0  0  0  0  0  0  0  0  0  0  0 
    2.5522    0.8533   -1.9563 H   0  0  0  0  0  0  0  0  0  0  0  0 
    2.4678   -0.4249   -0.7352 H   0  0  0  0  0  0  0  0  0  0  0  0 
    4.3113   -0.8040    0.8871 H   0  0  0  0  0  0  0  0  0  0  0  0 
    5.5125    0.3024    1.5120 H   0  0  0  0  0  0  0  0  0  0  0  0 
    6.9580   -1.1446   -5.1035 H   0  0  0  0  0  0  0  0  0  0  0  0 
    6.1111    0.6398   -0.6379 H   0  0  0  0  0  0  0  0  0  0  0  0 
    4.6999    1.6971   -0.7374 H   0  0  0  0  0  0  0  0  0  0  0  0 
    7.0954    0.5596   -2.5362 H   0  0  0  0  0  0  0  0  0  0  0  0 
    6.8473   -1.1602   -2.5520 H   0  0  0  0  0  0  0  0  0  0  0  0 
    4.6872   -1.2802   -1.3914 H   0  0  0  0  0  0  0  0  0  0  0  0 
    5.8652    2.1359   -2.3939 H   0  0  0  0  0  0  0  0  0  0  0  0 
    5.3466   -2.4458   -3.0542 H   0  0  0  0  0  0  0  0  0  0  0  0 
  1 20  1  0  0  0  0 
  1 19  1  0  0  0  0 
  2  5  2  0  0  0  0 
  2 22  1  0  0  0  0 
  3  8  1  0  0  0  0 
  3 25  1  0  0  0  0 
  4 26  1  0  0  0  0 
  4  1  1  0  0  0  0 
  4 27  1  0  0  0  0 
  5  7  1  0  0  0  0 
  6  4  1  0  0  0  0 
  7 32  1  0  0  0  0 
  7 31  1  0  0  0  0 
  8 33  1  1  0  0  0 
  8  6  1  0  0  0  0 
  9 15  1  0  0  0  0 
  9 12  1  0  0  0  0 
 10 16  1  0  0  0  0 
 10 12  1  0  0  0  0 
 11 14  1  0  0  0  0 
 11 13  2  0  0  0  0 
 12  7  1  1  0  0  0 
 12  8  1  0  0  0  0 
 13  9  2  0  0  0  0 
 14 10  2  0  0  0  0 
 15 34  1  0  0  0  0 
 16 35  1  0  0  0  0 
 17 11  2  0  0  0  0 
 18  1  1  0  0  0  0 
 21  2  1  0  0  0  0 
 23  3  1  0  0  0  0 
 24  3  1  0  0  0  0 
 28  5  1  0  0  0  0 
 29  6  1  0  0  0  0 
 30  6  1  0  0  0  0 
M  END 
>  <HBA> 
5 
 
>  <HBD> 
2 
 
>  <TPSA> 
75.27 
 
>  <cid> 
31143 
 
>  <dipole> 
10.1 
 
>  <excitation_energy_1> 
3.991 
 
>  <excitation_energy_2> 
4.183 
 
>  <excitation_energy_3> 
5.193 
 
>  <excitation_energy_4> 
5.355 
 
>  <homo_energy> 
-6.833 
 
>  <homo_lumo_gap> 
5.38 
 
>  <logP> 
2.009 
 
>  <lumo_energy> 
-1.453 
 
>  <melting_point> 
118.98 
 
>  <molecular_refractivity> 
71.37 
 
>  <oscillator_strength_1> 
0.0002 
 
>  <oscillator_strength_2> 
0.0001 
 
>  <oscillator_strength_3> 
0.0008 
 
>  <oscillator_strength_4> 
0.0024 
 
>  <open_babel_can_smiles> 
CCC[C@H]([C@@]1(CC=C)C(=N[C](=[N]=C1O)=O)O)C 
 
>  <mulliken_charges> 
35 
1   -0.452032 
2   -0.327564 
3   -0.485739 
4   -0.262492 
5   -0.048531 
6   -0.30785 
7   -0.360651 
8   -0.077956 
9   0.545232 
10   0.540179 
11   0.619515 
12   -0.135 
13   -0.466302 
14   -0.468246 
15   -0.578633 
16   -0.582922 
17   -0.432252 
18   0.157536 
19   0.152294 
20   0.150876 
21   0.162022 
22   0.144926 
23   0.184415 
24   0.175408 
25   0.164766 
26   0.143055 
27   0.14488 
28   0.163341 
29   0.1339 
30   0.156919 
31   0.14801 
32   0.14448 
33   0.118137 
34   0.419745 
35   0.416533 
 
>  <lowdin_charges> 
35 
1   -0.445151 
2   -0.311905 
3   -0.457224 
4   -0.273114 
5   -0.164653 
6   -0.295216 
7   -0.277103 
8   -0.116565 
9   0.15053 
10   0.146226 
11   0.170286 
12   -0.063568 
13   -0.181357 
14   -0.182723 
15   -0.330352 
16   -0.33524 
17   -0.209836 
18   0.152471 
19   0.154229 
20   0.149531 
21   0.170107 
22   0.158844 
23   0.170607 
24   0.163442 
25   0.162012 
26   0.142884 
27   0.149501 
28   0.168113 
29   0.139295 
30   0.149967 
31   0.152313 
32   0.148263 
33   0.133333 
34   0.355682 
35   0.356372 
 
$$$$ 
 
