PCCDB-ID:  67338 
public computational chemistry database (PCCDB) project, http://pccdb.org 
 
 21 20  0  0  0  0  0  0  0  0999 V2000 
    1.0797    0.0540    0.2714 C   0  0  0  0  0  0  0  0  0  0  0  0 
    4.5401   -2.7346   -2.7561 C   0  0  0  0  0  0  0  0  0  0  0  0 
    6.3931   -2.6311   -1.2391 C   0  0  0  0  0  0  0  0  0  0  0  0 
    2.9258   -1.2653   -0.6133 C   0  0  0  0  0  0  0  0  0  0  0  0 
    4.4450   -1.2790   -0.8117 C   0  0  0  0  0  0  0  0  0  0  0  0 
    2.5234   -0.0539    0.0961 N   0  0  0  0  0  0  0  0  0  0  0  0 
    4.9456   -2.5344   -1.3704 N   0  0  0  0  0  0  0  0  0  0  0  0 
    0.8489    0.9456    0.8640 H   0  0  0  0  0  0  0  0  0  0  0  0 
    0.6117   -0.8195    0.7640 H   0  0  0  0  0  0  0  0  0  0  0  0 
    0.6030    0.1740   -0.7089 H   0  0  0  0  0  0  0  0  0  0  0  0 
    4.9245   -3.6967   -3.1120 H   0  0  0  0  0  0  0  0  0  0  0  0 
    4.9147   -1.9437   -3.4371 H   0  0  0  0  0  0  0  0  0  0  0  0 
    3.4498   -2.7637   -2.8380 H   0  0  0  0  0  0  0  0  0  0  0  0 
    6.7317   -3.6066   -1.6058 H   0  0  0  0  0  0  0  0  0  0  0  0 
    6.6768   -2.5486   -0.1842 H   0  0  0  0  0  0  0  0  0  0  0  0 
    6.9400   -1.8482   -1.8024 H   0  0  0  0  0  0  0  0  0  0  0  0 
    2.6235   -2.1996   -0.1027 H   0  0  0  0  0  0  0  0  0  0  0  0 
    2.4133   -1.2572   -1.5836 H   0  0  0  0  0  0  0  0  0  0  0  0 
    4.9186   -1.1497    0.1713 H   0  0  0  0  0  0  0  0  0  0  0  0 
    4.7373   -0.4005   -1.4197 H   0  0  0  0  0  0  0  0  0  0  0  0 
    2.9683   -0.0469    1.0131 H   0  0  0  0  0  0  0  0  0  0  0  0 
  1  9  1  0  0  0  0 
  1  8  1  0  0  0  0 
  2  7  1  0  0  0  0 
  3 15  1  0  0  0  0 
  4 17  1  0  0  0  0 
  4  6  1  0  0  0  0 
  5  4  1  0  0  0  0 
  5 19  1  0  0  0  0 
  6  1  1  0  0  0  0 
  6 21  1  0  0  0  0 
  7  3  1  0  0  0  0 
  7  5  1  0  0  0  0 
 10  1  1  0  0  0  0 
 11  2  1  0  0  0  0 
 12  2  1  0  0  0  0 
 13  2  1  0  0  0  0 
 14  3  1  0  0  0  0 
 16  3  1  0  0  0  0 
 18  4  1  0  0  0  0 
 20  5  1  0  0  0  0 
M  END 
>  <HBA> 
2 
 
>  <HBD> 
1 
 
>  <TPSA> 
15.27 
 
>  <cid> 
67338 
 
>  <dipole> 
0.45 
 
>  <excitation_energy_1> 
5.291 
 
>  <excitation_energy_2> 
5.432 
 
>  <excitation_energy_3> 
5.628 
 
>  <excitation_energy_4> 
5.701 
 
>  <homo_energy> 
-5.638 
 
>  <homo_lumo_gap> 
7.989 
 
>  <logP> 
0.158 
 
>  <lumo_energy> 
2.351 
 
>  <melting_point> 
3.92 
 
>  <molecular_refractivity> 
31.85 
 
>  <oscillator_strength_1> 
0.0098 
 
>  <oscillator_strength_2> 
0.005 
 
>  <oscillator_strength_3> 
0.0159 
 
>  <oscillator_strength_4> 
0.0038 
 
>  <open_babel_can_smiles> 
CNCCN(C)C 
 
>  <mulliken_charges> 
21 
1   -0.297545 
2   -0.300801 
3   -0.291915 
4   -0.12444 
5   -0.11436 
6   -0.545527 
7   -0.370943 
8   0.147034 
9   0.11957 
10   0.150764 
11   0.147257 
12   0.11739 
13   0.15337 
14   0.146389 
15   0.146763 
16   0.117087 
17   0.122309 
18   0.13845 
19   0.125 
20   0.123066 
21   0.291082 
 
>  <lowdin_charges> 
21 
1   -0.360043 
2   -0.357255 
3   -0.355105 
4   -0.207673 
5   -0.203231 
6   -0.361862 
7   -0.184249 
8   0.150313 
9   0.121417 
10   0.147405 
11   0.149952 
12   0.121165 
13   0.148565 
14   0.148444 
15   0.147037 
16   0.120985 
17   0.122071 
18   0.140227 
19   0.138596 
20   0.1242 
21   0.24904 
 
$$$$ 
 
