PCCDB-ID:  62725 
public computational chemistry database (PCCDB) project, http://pccdb.org 
 
 20 20  0  0  0  0  0  0  0  0999 V2000 
    1.8412    0.4500   -0.7879 C   0  0  0  0  0  0  0  0  0  0  0  0 
    4.1560    1.4556   -0.9857 C   0  0  0  0  0  0  0  0  0  0  0  0 
    7.2602   -0.7972    1.3938 C   0  0  0  0  0  0  0  0  0  0  0  0 
    7.2277   -2.0643    0.8900 C   0  0  0  0  0  0  0  0  0  0  0  0 
    3.6806   -0.3746    0.7347 C   0  0  0  0  0  0  0  0  0  0  0  0 
    3.3497    0.1886   -0.6729 C   0  0  0  0  0  0  0  0  0  0  0  0 
    5.0993   -0.8367    0.9045 C   0  0  0  0  0  0  0  0  0  0  0  0 
    6.0646   -0.1142    1.3988 N   0  0  0  0  0  0  0  0  0  0  0  0 
    5.6128   -2.4488    0.3871 S   0  0  0  0  0  0  0  0  0  0  0  0 
    1.5849    0.8299   -1.7836 H   0  0  0  0  0  0  0  0  0  0  0  0 
    1.5158    1.1983   -0.0537 H   0  0  0  0  0  0  0  0  0  0  0  0 
    1.2587   -0.4632   -0.6162 H   0  0  0  0  0  0  0  0  0  0  0  0 
    3.9451    1.8068   -2.0026 H   0  0  0  0  0  0  0  0  0  0  0  0 
    5.2331    1.2838   -0.8989 H   0  0  0  0  0  0  0  0  0  0  0  0 
    3.8938    2.2637   -0.2908 H   0  0  0  0  0  0  0  0  0  0  0  0 
    8.1464   -0.3091    1.7837 H   0  0  0  0  0  0  0  0  0  0  0  0 
    8.0360   -2.7762    0.7982 H   0  0  0  0  0  0  0  0  0  0  0  0 
    2.9978   -1.2049    0.9547 H   0  0  0  0  0  0  0  0  0  0  0  0 
    3.5013    0.4025    1.4873 H   0  0  0  0  0  0  0  0  0  0  0  0 
    3.6192   -0.5833   -1.4088 H   0  0  0  0  0  0  0  0  0  0  0  0 
  1  6  1  0  0  0  0 
  1 12  1  0  0  0  0 
  1 11  1  0  0  0  0 
  2 14  1  0  0  0  0 
  2  6  1  0  0  0  0 
  2 15  1  0  0  0  0 
  3  8  1  0  0  0  0 
  3 16  1  0  0  0  0 
  4  3  2  0  0  0  0 
  5  7  1  0  0  0  0 
  5 18  1  0  0  0  0 
  5 19  1  0  0  0  0 
  6  5  1  0  0  0  0 
  7  8  2  0  0  0  0 
  9  4  1  0  0  0  0 
  9  7  1  0  0  0  0 
 10  1  1  0  0  0  0 
 13  2  1  0  0  0  0 
 17  4  1  0  0  0  0 
 20  6  1  0  0  0  0 
M  END 
>  <HBA> 
2 
 
>  <HBD> 
0 
 
>  <TPSA> 
41.13 
 
>  <cid> 
62725 
 
>  <dipole> 
0.99 
 
>  <excitation_energy_1> 
5.317 
 
>  <excitation_energy_2> 
5.353 
 
>  <excitation_energy_3> 
5.576 
 
>  <excitation_energy_4> 
6.055 
 
>  <homo_energy> 
-6.476 
 
>  <homo_lumo_gap> 
5.899 
 
>  <logP> 
2.342 
 
>  <lumo_energy> 
-0.577 
 
>  <melting_point> 
19.89 
 
>  <molecular_refractivity> 
41.5 
 
>  <oscillator_strength_1> 
0.0103 
 
>  <oscillator_strength_2> 
0.1189 
 
>  <oscillator_strength_3> 
0.0116 
 
>  <oscillator_strength_4> 
0.0045 
 
>  <open_babel_can_smiles> 
CC(Cc1nccs1)C 
 
>  <mulliken_charges> 
20 
1   -0.442425 
2   -0.440736 
3   0.050091 
4   -0.347535 
5   -0.312221 
6   -0.075175 
7   0.090067 
8   -0.396862 
9   0.220707 
10   0.146099 
11   0.143017 
12   0.140602 
13   0.13911 
14   0.163775 
15   0.142063 
16   0.150485 
17   0.177345 
18   0.150115 
19   0.168656 
20   0.132821 
 
>  <lowdin_charges> 
20 
1   -0.445411 
2   -0.444706 
3   -0.130388 
4   -0.337688 
5   -0.27921 
6   -0.117279 
7   -0.079133 
8   -0.166903 
9   0.275698 
10   0.151384 
11   0.148737 
12   0.147908 
13   0.147488 
14   0.157728 
15   0.148877 
16   0.167787 
17   0.187986 
18   0.157966 
19   0.168028 
20   0.141132 
 
$$$$ 
 
