PCCDB-ID:  61359 
public computational chemistry database (PCCDB) project, http://pccdb.org 
 
 26 26  0  0  0  0  0  0  0  0999 V2000 
    3.1574   -0.8720   -1.1681 C   0  0  0  0  0  0  0  0  0  0  0  0 
    2.4774   -1.0192    1.2744 C   0  0  0  0  0  0  0  0  0  0  0  0 
    2.6011    3.6503    0.2748 C   0  0  0  0  0  0  0  0  0  0  0  0 
    4.7673    2.7615    0.8128 C   0  0  0  0  0  0  0  0  0  0  0  0 
    2.1268    2.3557    0.0666 C   0  0  0  0  0  0  0  0  0  0  0  0 
    4.2899    1.4690    0.6012 C   0  0  0  0  0  0  0  0  0  0  0  0 
    4.4469    5.2867    0.8428 C   0  0  0  0  0  0  0  0  0  0  0  0 
    4.7702    5.9235   -0.5014 C   0  0  0  0  0  0  0  0  0  0  0  0 
    2.4274   -0.1679   -0.0087 C   0  0  0  0  0  0  0  0  0  0  0  0 
    3.9295    3.8730    0.6575 C   0  0  0  0  0  0  0  0  0  0  0  0 
    2.9589    1.2400    0.2240 C   0  0  0  0  0  0  0  0  0  0  0  0 
    4.2738    6.9475   -0.9124 O   0  0  0  0  0  0  0  0  0  0  0  0 
    2.7101   -1.8532   -1.3665 H   0  0  0  0  0  0  0  0  0  0  0  0 
    4.2169   -1.0312   -0.9342 H   0  0  0  0  0  0  0  0  0  0  0  0 
    3.1040   -0.2801   -2.0883 H   0  0  0  0  0  0  0  0  0  0  0  0 
    2.0370   -2.0079    1.0991 H   0  0  0  0  0  0  0  0  0  0  0  0 
    1.9261   -0.5395    2.0904 H   0  0  0  0  0  0  0  0  0  0  0  0 
    3.5097   -1.1700    1.6122 H   0  0  0  0  0  0  0  0  0  0  0  0 
    1.9317    4.4971    0.1406 H   0  0  0  0  0  0  0  0  0  0  0  0 
    5.8030    2.9073    1.1126 H   0  0  0  0  0  0  0  0  0  0  0  0 
    1.0884    2.2094   -0.2231 H   0  0  0  0  0  0  0  0  0  0  0  0 
    4.9662    0.6284    0.7362 H   0  0  0  0  0  0  0  0  0  0  0  0 
    3.7201    5.9263    1.3532 H   0  0  0  0  0  0  0  0  0  0  0  0 
    5.3707    5.2713    1.4379 H   0  0  0  0  0  0  0  0  0  0  0  0 
    5.5077    5.3568   -1.1134 H   0  0  0  0  0  0  0  0  0  0  0  0 
    1.3718   -0.0702   -0.2968 H   0  0  0  0  0  0  0  0  0  0  0  0 
  1 14  1  0  0  0  0 
  1  9  1  0  0  0  0 
  2 18  1  0  0  0  0 
  2 17  1  0  0  0  0 
  3 10  2  0  0  0  0 
  4 20  1  0  0  0  0 
  5 11  2  0  0  0  0 
  5  3  1  0  0  0  0 
  6 22  1  0  0  0  0 
  6  4  2  0  0  0  0 
  7 23  1  0  0  0  0 
  7 24  1  0  0  0  0 
  8  7  1  0  0  0  0 
  9 11  1  0  0  0  0 
  9  2  1  0  0  0  0 
 10  4  1  0  0  0  0 
 10  7  1  0  0  0  0 
 11  6  1  0  0  0  0 
 12  8  2  0  0  0  0 
 13  1  1  0  0  0  0 
 15  1  1  0  0  0  0 
 16  2  1  0  0  0  0 
 19  3  1  0  0  0  0 
 21  5  1  0  0  0  0 
 25  8  1  0  0  0  0 
 26  9  1  0  0  0  0 
M  END 
>  <HBA> 
1 
 
>  <HBD> 
0 
 
>  <TPSA> 
17.07 
 
>  <cid> 
61359 
 
>  <dipole> 
3.0 
 
>  <excitation_energy_1> 
4.151 
 
>  <excitation_energy_2> 
5.002 
 
>  <excitation_energy_3> 
5.148 
 
>  <excitation_energy_4> 
5.5 
 
>  <homo_energy> 
-6.389 
 
>  <homo_lumo_gap> 
5.622 
 
>  <logP> 
2.551 
 
>  <lumo_energy> 
-0.767 
 
>  <melting_point> 
41.72 
 
>  <molecular_refractivity> 
50.99 
 
>  <oscillator_strength_1> 
0.0146 
 
>  <oscillator_strength_2> 
0.0265 
 
>  <oscillator_strength_3> 
0.0422 
 
>  <oscillator_strength_4> 
0.0415 
 
>  <open_babel_can_smiles> 
O=CCc1ccc(cc1)C(C)C 
 
>  <mulliken_charges> 
26 
1   -0.439286 
2   -0.439144 
3   -0.168002 
4   -0.182304 
5   -0.196099 
6   -0.182515 
7   -0.418607 
8   0.265869 
9   -0.160929 
10   0.143583 
11   0.188377 
12   -0.380965 
13   0.143329 
14   0.143198 
15   0.151163 
16   0.143265 
17   0.150546 
18   0.143421 
19   0.137587 
20   0.124237 
21   0.127846 
22   0.127612 
23   0.173579 
24   0.165175 
25   0.108681 
26   0.130384 
 
>  <lowdin_charges> 
26 
1   -0.439808 
2   -0.441174 
3   -0.160883 
4   -0.164616 
5   -0.162718 
6   -0.163184 
7   -0.307036 
8   0.055863 
9   -0.116762 
10   -0.011866 
11   0.002091 
12   -0.214794 
13   0.149204 
14   0.145966 
15   0.15362 
16   0.149014 
17   0.154206 
18   0.146572 
19   0.162086 
20   0.153175 
21   0.155098 
22   0.156832 
23   0.170551 
24   0.167989 
25   0.11938 
26   0.141196 
 
$$$$ 
 
