PCCDB-ID:  43553 
public computational chemistry database (PCCDB) project, http://pccdb.org 
 
 25 24  0  0  0  0  0  0  0  0999 V2000 
    1.9347    1.1921   -0.2331 C   0  0  0  0  0  0  0  0  0  0  0  0 
    6.6048    0.7410    1.1270 C   0  0  0  0  0  0  0  0  0  0  0  0 
    4.1080   -0.6967    3.8430 C   0  0  0  0  0  0  0  0  0  0  0  0 
    5.7778   -2.3333    3.0016 C   0  0  0  0  0  0  0  0  0  0  0  0 
    2.8021   -0.0726   -0.3757 C   0  0  0  0  0  0  0  0  0  0  0  0 
    5.7837   -0.4406    0.5805 C   0  0  0  0  0  0  0  0  0  0  0  0 
    3.2821   -0.5838    0.9564 C   0  0  0  0  0  0  0  0  0  0  0  0 
    4.7707   -1.2202    2.8011 C   0  0  0  0  0  0  0  0  0  0  0  0 
    4.5433   -0.7327    1.4060 C   0  0  0  0  0  0  0  0  0  0  0  0 
    1.5511    1.5173   -1.2070 H   0  0  0  0  0  0  0  0  0  0  0  0 
    2.5127    2.0164    0.1993 H   0  0  0  0  0  0  0  0  0  0  0  0 
    1.0747    1.0098    0.4223 H   0  0  0  0  0  0  0  0  0  0  0  0 
    7.5080    0.9006    0.5269 H   0  0  0  0  0  0  0  0  0  0  0  0 
    6.9125    0.5699    2.1646 H   0  0  0  0  0  0  0  0  0  0  0  0 
    6.0155    1.6647    1.1080 H   0  0  0  0  0  0  0  0  0  0  0  0 
    4.2440   -1.0769    4.8528 H   0  0  0  0  0  0  0  0  0  0  0  0 
    3.4155    0.1307    3.7201 H   0  0  0  0  0  0  0  0  0  0  0  0 
    5.7804   -2.6761    4.0407 H   0  0  0  0  0  0  0  0  0  0  0  0 
    6.7977   -2.0108    2.7563 H   0  0  0  0  0  0  0  0  0  0  0  0 
    5.5532   -3.1934    2.3575 H   0  0  0  0  0  0  0  0  0  0  0  0 
    3.6367    0.1363   -1.0528 H   0  0  0  0  0  0  0  0  0  0  0  0 
    2.1997   -0.8551   -0.8616 H   0  0  0  0  0  0  0  0  0  0  0  0 
    6.4220   -1.3345    0.5531 H   0  0  0  0  0  0  0  0  0  0  0  0 
    5.5117   -0.2382   -0.4593 H   0  0  0  0  0  0  0  0  0  0  0  0 
    2.4805   -0.8626    1.6416 H   0  0  0  0  0  0  0  0  0  0  0  0 
  1 11  1  0  0  0  0 
  1 12  1  0  0  0  0 
  2 14  1  0  0  0  0 
  3 16  1  0  0  0  0 
  4 18  1  0  0  0  0 
  5  1  1  0  0  0  0 
  5  7  1  0  0  0  0 
  6  2  1  0  0  0  0 
  6  9  1  0  0  0  0 
  7  9  2  0  0  0  0 
  7 25  1  0  0  0  0 
  8  4  1  0  0  0  0 
  8  3  2  0  0  0  0 
  9  8  1  0  0  0  0 
 10  1  1  0  0  0  0 
 13  2  1  0  0  0  0 
 15  2  1  0  0  0  0 
 17  3  1  0  0  0  0 
 19  4  1  0  0  0  0 
 20  4  1  0  0  0  0 
 21  5  1  0  0  0  0 
 22  5  1  0  0  0  0 
 23  6  1  0  0  0  0 
 24  6  1  0  0  0  0 
M  END 
>  <HBA> 
0 
 
>  <HBD> 
0 
 
>  <TPSA> 
0.0 
 
>  <cid> 
43553 
 
>  <dipole> 
0.53 
 
>  <excitation_energy_1> 
5.281 
 
>  <excitation_energy_2> 
5.52 
 
>  <excitation_energy_3> 
5.8 
 
>  <excitation_energy_4> 
5.955 
 
>  <homo_energy> 
-5.927 
 
>  <homo_lumo_gap> 
6.011 
 
>  <logP> 
3.309 
 
>  <lumo_energy> 
0.084 
 
>  <melting_point> 
-32.52 
 
>  <molecular_refractivity> 
44.43 
 
>  <oscillator_strength_1> 
0.2125 
 
>  <oscillator_strength_2> 
0.0039 
 
>  <oscillator_strength_3> 
0.0374 
 
>  <oscillator_strength_4> 
0.0109 
 
>  <open_babel_can_smiles> 
CC/C=C(/C(=C)C)\CC 
 
>  <mulliken_charges> 
25 
1   -0.439082 
2   -0.439907 
3   -0.387414 
4   -0.518552 
5   -0.295849 
6   -0.337601 
7   -0.158505 
8   0.158881 
9   0.117021 
10   0.142393 
11   0.149035 
12   0.144647 
13   0.140986 
14   0.152991 
15   0.148324 
16   0.12836 
17   0.1376 
18   0.152476 
19   0.157519 
20   0.156755 
21   0.140494 
22   0.142486 
23   0.142798 
24   0.141753 
25   0.122392 
 
>  <lowdin_charges> 
25 
1   -0.442417 
2   -0.442409 
3   -0.356919 
4   -0.44161 
5   -0.275189 
6   -0.274294 
7   -0.174707 
8   0.008326 
9   -0.020733 
10   0.148906 
11   0.15074 
12   0.148327 
13   0.148691 
14   0.150663 
15   0.150389 
16   0.151343 
17   0.157582 
18   0.15609 
19   0.155963 
20   0.156774 
21   0.146509 
22   0.149449 
23   0.148568 
24   0.147136 
25   0.152824 
 
$$$$ 
 
