PCCDB-ID:  7976 
public computational chemistry database (PCCDB) project, http://pccdb.org 
 
 13 13  0  0  0  0  0  0  0  0999 V2000 
    1.0751    0.0461    0.0229 C   0  0  0  0  0  0  0  0  0  0  0  0 
    5.2578    0.1552   -0.2240 C   0  0  0  0  0  0  0  0  0  0  0  0 
    4.5551   -1.0507   -0.1979 C   0  0  0  0  0  0  0  0  0  0  0  0 
    3.2966    1.2846   -0.0857 C   0  0  0  0  0  0  0  0  0  0  0  0 
    2.5780    0.0800   -0.0615 C   0  0  0  0  0  0  0  0  0  0  0  0 
    4.6296    1.3341   -0.1670 N   0  0  0  0  0  0  0  0  0  0  0  0 
    3.2225   -1.0974   -0.1174 N   0  0  0  0  0  0  0  0  0  0  0  0 
    0.6548    1.0507    0.1285 H   0  0  0  0  0  0  0  0  0  0  0  0 
    0.7540   -0.5608    0.8764 H   0  0  0  0  0  0  0  0  0  0  0  0 
    0.6512   -0.4146   -0.8768 H   0  0  0  0  0  0  0  0  0  0  0  0 
    6.3437    0.1727   -0.2914 H   0  0  0  0  0  0  0  0  0  0  0  0 
    5.0793   -2.0039   -0.2421 H   0  0  0  0  0  0  0  0  0  0  0  0 
    2.7747    2.2391   -0.0366 H   0  0  0  0  0  0  0  0  0  0  0  0 
  1  8  1  0  0  0  0 
  1  9  1  0  0  0  0 
  2  3  2  0  0  0  0 
  2  6  1  0  0  0  0 
  3  7  1  0  0  0  0 
  4  5  1  0  0  0  0 
  4 13  1  0  0  0  0 
  5  1  1  0  0  0  0 
  6  4  2  0  0  0  0 
  7  5  2  0  0  0  0 
 10  1  1  0  0  0  0 
 11  2  1  0  0  0  0 
 12  3  1  0  0  0  0 
M  END 
>  <HBA> 
2 
 
>  <HBD> 
0 
 
>  <TPSA> 
25.78 
 
>  <cid> 
7976 
 
>  <dipole> 
0.59 
 
>  <excitation_energy_1> 
3.985 
 
>  <excitation_energy_2> 
4.747 
 
>  <excitation_energy_3> 
5.215 
 
>  <excitation_energy_4> 
5.589 
 
>  <homo_energy> 
-6.68 
 
>  <homo_lumo_gap> 
5.377 
 
>  <logP> 
0.785 
 
>  <lumo_energy> 
-1.303 
 
>  <melting_point> 
38.16 
 
>  <molecular_refractivity> 
27.0 
 
>  <oscillator_strength_1> 
0.0055 
 
>  <oscillator_strength_2> 
0.0001 
 
>  <oscillator_strength_3> 
0.1152 
 
>  <oscillator_strength_4> 
0.0 
 
>  <open_babel_can_smiles> 
Cc1cnccn1 
 
>  <mulliken_charges> 
13 
1   -0.508794 
2   0.028525 
3   0.033774 
4   -0.000845 
5   0.299189 
6   -0.375253 
7   -0.430355 
8   0.156207 
9   0.177846 
10   0.177388 
11   0.149111 
12   0.148598 
13   0.14461 
 
>  <lowdin_charges> 
13 
1   -0.444739 
2   -0.110155 
3   -0.104007 
4   -0.118846 
5   0.041531 
6   -0.118663 
7   -0.132356 
8   0.157798 
9   0.173101 
10   0.172485 
11   0.160495 
12   0.162672 
13   0.160684 
 
$$$$ 
 
