PCCDB-ID:  36432 
public computational chemistry database (PCCDB) project, http://pccdb.org 
 
 36 38  0  0  1  0  0  0  0  0999 V2000 
    4.8254   -2.0494   -6.4307 C   0  0  0  0  0  0  0  0  0  0  0  0 
    4.4455   -1.5214   -5.0435 C   0  0  0  0  0  0  0  0  0  0  0  0 
    4.9565   -2.4091   -3.9012 C   0  0  0  0  0  0  0  0  0  0  0  0 
    4.5844   -1.8739   -2.5132 C   0  0  0  0  0  0  0  0  0  0  0  0 
   10.9351   -2.3731   -1.9715 C   0  0  0  0  0  0  0  0  0  0  0  0 
   10.7956   -3.6895   -2.1907 C   0  0  0  0  0  0  0  0  0  0  0  0 
    5.0507   -2.7571   -1.3476 C   0  0  0  0  0  0  0  0  0  0  0  0 
   10.5708   -3.3312    0.1229 C   0  0  0  0  0  0  0  0  0  0  0  0 
   10.2093   -2.0357   -0.6581 C   0  0  2  0  0  0  0  0  0  0  0  0 
   10.0533   -4.2972   -1.0043 C   0  0  1  0  0  0  0  0  0  0  0  0 
    8.7153   -2.2784   -1.0966 C   0  0  1  0  0  0  0  0  0  0  0  0 
    8.5743   -3.8039   -0.9255 C   0  0  1  0  0  0  0  0  0  0  0  0 
    7.3160   -1.8399   -0.6903 C   0  0  0  0  0  0  0  0  0  0  0  0 
    7.2310   -4.0411   -1.5978 C   0  0  0  0  0  0  0  0  0  0  0  0 
    6.5049   -2.8725   -1.2372 N   0  0  0  0  0  0  0  0  0  0  0  0 
    6.8880   -0.8515   -0.1369 O   0  0  0  0  0  0  0  0  0  0  0  0 
    6.7691   -4.9840   -2.2008 O   0  0  0  0  0  0  0  0  0  0  0  0 
    4.4472   -1.3961   -7.2254 H   0  0  0  0  0  0  0  0  0  0  0  0 
    4.4143   -3.0522   -6.5985 H   0  0  0  0  0  0  0  0  0  0  0  0 
    5.9145   -2.1166   -6.5442 H   0  0  0  0  0  0  0  0  0  0  0  0 
    3.3520   -1.4325   -4.9722 H   0  0  0  0  0  0  0  0  0  0  0  0 
    4.8410   -0.5034   -4.9176 H   0  0  0  0  0  0  0  0  0  0  0  0 
    6.0484   -2.5043   -3.9797 H   0  0  0  0  0  0  0  0  0  0  0  0 
    4.5583   -3.4266   -4.0189 H   0  0  0  0  0  0  0  0  0  0  0  0 
    3.4918   -1.7807   -2.4357 H   0  0  0  0  0  0  0  0  0  0  0  0 
    4.9887   -0.8626   -2.3753 H   0  0  0  0  0  0  0  0  0  0  0  0 
   11.3518   -1.6342   -2.6490 H   0  0  0  0  0  0  0  0  0  0  0  0 
   11.1013   -4.2424   -3.0725 H   0  0  0  0  0  0  0  0  0  0  0  0 
    4.6674   -3.7754   -1.4597 H   0  0  0  0  0  0  0  0  0  0  0  0 
    4.6858   -2.3470   -0.4004 H   0  0  0  0  0  0  0  0  0  0  0  0 
   10.0518   -3.4482    1.0808 H   0  0  0  0  0  0  0  0  0  0  0  0 
   11.6484   -3.4195    0.2829 H   0  0  0  0  0  0  0  0  0  0  0  0 
   10.4426   -1.0767   -0.1942 H   0  0  0  0  0  0  0  0  0  0  0  0 
   10.1909   -5.3667   -0.8364 H   0  0  0  0  0  0  0  0  0  0  0  0 
    8.6879   -2.0629   -2.1734 H   0  0  0  0  0  0  0  0  0  0  0  0 
    8.3025   -3.9821    0.1261 H   0  0  0  0  0  0  0  0  0  0  0  0 
  1  2  1  0  0  0  0 
  2 21  1  0  0  0  0 
  2 22  1  0  0  0  0 
  2  3  1  0  0  0  0 
  3  4  1  0  0  0  0 
  4 25  1  0  0  0  0 
  4 26  1  0  0  0  0 
  4  7  1  0  0  0  0 
  5  9  1  0  0  0  0 
  6  5  2  0  0  0  0 
  6 10  1  0  0  0  0 
  7 15  1  0  0  0  0 
  7 30  1  0  0  0  0 
  8 32  1  0  0  0  0 
  8 31  1  0  0  0  0 
  9 33  1  1  0  0  0 
  9  8  1  0  0  0  0 
 10 12  1  0  0  0  0 
 10 34  1  1  0  0  0 
 10  8  1  0  0  0  0 
 11 35  1  6  0  0  0 
 11 12  1  0  0  0  0 
 11 13  1  0  0  0  0 
 11  9  1  0  0  0  0 
 12 36  1  1  0  0  0 
 13 16  2  0  0  0  0 
 14 15  1  0  0  0  0 
 14 12  1  0  0  0  0 
 15 13  1  0  0  0  0 
 17 14  2  0  0  0  0 
 18  1  1  0  0  0  0 
 19  1  1  0  0  0  0 
 20  1  1  0  0  0  0 
 23  3  1  0  0  0  0 
 24  3  1  0  0  0  0 
 27  5  1  0  0  0  0 
 28  6  1  0  0  0  0 
 29  7  1  0  0  0  0 
M  END 
>  <HBA> 
3 
 
>  <HBD> 
0 
 
>  <TPSA> 
37.38 
 
>  <cid> 
36432 
 
>  <dipole> 
1.89 
 
>  <excitation_energy_1> 
4.891 
 
>  <excitation_energy_2> 
5.07 
 
>  <excitation_energy_3> 
5.35 
 
>  <excitation_energy_4> 
5.842 
 
>  <homo_energy> 
-6.836 
 
>  <homo_lumo_gap> 
6.21 
 
>  <logP> 
1.922 
 
>  <lumo_energy> 
-0.626 
 
>  <melting_point> 
91.07 
 
>  <molecular_refractivity> 
69.81 
 
>  <oscillator_strength_1> 
0.0007 
 
>  <oscillator_strength_2> 
0.0009 
 
>  <oscillator_strength_3> 
0.0074 
 
>  <oscillator_strength_4> 
0.0829 
 
>  <open_babel_can_smiles> 
CCCCCN1C(=O)[C@@H]2[C@@H](C1=O)[C@@H]1C[C@H]2C=C1 
 
>  <mulliken_charges> 
36 
1   -0.441109 
2   -0.248397 
3   -0.245143 
4   -0.268729 
5   -0.131402 
6   -0.081827 
7   -0.154248 
8   -0.260966 
9   -0.156531 
10   -0.171224 
11   -0.200408 
12   -0.191697 
13   0.581006 
14   0.589779 
15   -0.479634 
16   -0.480379 
17   -0.482204 
18   0.141211 
19   0.144315 
20   0.140951 
21   0.130405 
22   0.130378 
23   0.130939 
24   0.140769 
25   0.136422 
26   0.153201 
27   0.140732 
28   0.142577 
29   0.172214 
30   0.167942 
31   0.140556 
32   0.15396 
33   0.147208 
34   0.144128 
35   0.186551 
36   0.178657 
 
>  <lowdin_charges> 
36 
1   -0.442489 
2   -0.268896 
3   -0.273542 
4   -0.278352 
5   -0.168634 
6   -0.167611 
7   -0.196577 
8   -0.264564 
9   -0.128905 
10   -0.125921 
11   -0.163076 
12   -0.155687 
13   0.168923 
14   0.169295 
15   -0.107323 
16   -0.250148 
17   -0.24972 
18   0.14993 
19   0.147211 
20   0.144259 
21   0.136479 
22   0.137814 
23   0.137335 
24   0.144017 
25   0.145108 
26   0.149795 
27   0.164688 
28   0.164925 
29   0.164764 
30   0.163478 
31   0.143226 
32   0.153815 
33   0.159218 
34   0.156079 
35   0.171999 
36   0.169087 
 
$$$$ 
 
