PCCDB-ID:  16299 
public computational chemistry database (PCCDB) project, http://pccdb.org 
 
 31 31  0  0  0  0  0  0  0  0999 V2000 
    0.7757    1.1026   -0.4611 C   0  0  0  0  0  0  0  0  0  0  0  0 
    2.3062    1.0566   -0.4175 C   0  0  0  0  0  0  0  0  0  0  0  0 
    2.8751    1.2295    0.9972 C   0  0  0  0  0  0  0  0  0  0  0  0 
   10.7635    3.1890    2.0752 C   0  0  0  0  0  0  0  0  0  0  0  0 
   11.3991    1.9799    2.3685 C   0  0  0  0  0  0  0  0  0  0  0  0 
    4.4081    1.1828    1.0411 C   0  0  0  0  0  0  0  0  0  0  0  0 
    9.3757    3.2317    2.0493 C   0  0  0  0  0  0  0  0  0  0  0  0 
   10.6451    0.8414    2.6291 C   0  0  0  0  0  0  0  0  0  0  0  0 
    4.9466    1.3567    2.4580 C   0  0  0  0  0  0  0  0  0  0  0  0 
    8.5870    2.0979    2.3092 C   0  0  0  0  0  0  0  0  0  0  0  0 
    9.2424    0.8805    2.6033 C   0  0  0  0  0  0  0  0  0  0  0  0 
    7.1096    2.3126    2.2414 C   0  0  0  0  0  0  0  0  0  0  0  0 
    8.5219   -0.2449    2.8589 O   0  0  0  0  0  0  0  0  0  0  0  0 
    6.6121    3.3936    1.9759 O   0  0  0  0  0  0  0  0  0  0  0  0 
    6.3836    1.2096    2.5047 O   0  0  0  0  0  0  0  0  0  0  0  0 
    0.4014    0.9761   -1.4834 H   0  0  0  0  0  0  0  0  0  0  0  0 
    0.3969    2.0604   -0.0839 H   0  0  0  0  0  0  0  0  0  0  0  0 
    0.3372    0.3078    0.1549 H   0  0  0  0  0  0  0  0  0  0  0  0 
    2.7166    1.8407   -1.0688 H   0  0  0  0  0  0  0  0  0  0  0  0 
    2.6570    0.1012   -0.8329 H   0  0  0  0  0  0  0  0  0  0  0  0 
    2.4633    0.4448    1.6497 H   0  0  0  0  0  0  0  0  0  0  0  0 
    2.5257    2.1862    1.4122 H   0  0  0  0  0  0  0  0  0  0  0  0 
   11.3438    4.0834    1.8711 H   0  0  0  0  0  0  0  0  0  0  0  0 
   12.4839    1.9199    2.3956 H   0  0  0  0  0  0  0  0  0  0  0  0 
    4.8242    1.9751    0.4078 H   0  0  0  0  0  0  0  0  0  0  0  0 
    4.7668    0.2250    0.6417 H   0  0  0  0  0  0  0  0  0  0  0  0 
    8.8498    4.1533    1.8248 H   0  0  0  0  0  0  0  0  0  0  0  0 
   11.1412   -0.1010    2.8568 H   0  0  0  0  0  0  0  0  0  0  0  0 
    4.5749    0.5702    3.1209 H   0  0  0  0  0  0  0  0  0  0  0  0 
    4.6743    2.3342    2.8647 H   0  0  0  0  0  0  0  0  0  0  0  0 
    9.1448   -0.9660    3.0438 H   0  0  0  0  0  0  0  0  0  0  0  0 
  1  2  1  0  0  0  0 
  1 17  1  0  0  0  0 
  1 18  1  0  0  0  0 
  2  3  1  0  0  0  0 
  3  6  1  0  0  0  0 
  3 22  1  0  0  0  0 
  3 21  1  0  0  0  0 
  4  5  1  0  0  0  0 
  5 24  1  0  0  0  0 
  5  8  2  0  0  0  0 
  6  9  1  0  0  0  0 
  7  4  2  0  0  0  0 
  7 10  1  0  0  0  0 
  8 28  1  0  0  0  0 
  9 15  1  0  0  0  0 
  9 30  1  0  0  0  0 
  9 29  1  0  0  0  0 
 10 11  2  0  0  0  0 
 11  8  1  0  0  0  0 
 11 13  1  0  0  0  0 
 12 10  1  0  0  0  0 
 12 15  1  0  0  0  0 
 13 31  1  0  0  0  0 
 14 12  2  0  0  0  0 
 16  1  1  0  0  0  0 
 19  2  1  0  0  0  0 
 20  2  1  0  0  0  0 
 23  4  1  0  0  0  0 
 25  6  1  0  0  0  0 
 26  6  1  0  0  0  0 
 27  7  1  0  0  0  0 
M  END 
>  <HBA> 
3 
 
>  <HBD> 
1 
 
>  <TPSA> 
46.53 
 
>  <cid> 
16299 
 
>  <dipole> 
3.05 
 
>  <excitation_energy_1> 
4.521 
 
>  <excitation_energy_2> 
4.883 
 
>  <excitation_energy_3> 
5.396 
 
>  <excitation_energy_4> 
5.414 
 
>  <homo_energy> 
-6.242 
 
>  <homo_lumo_gap> 
5.222 
 
>  <logP> 
2.739 
 
>  <lumo_energy> 
-1.02 
 
>  <melting_point> 
67.58 
 
>  <molecular_refractivity> 
58.97 
 
>  <oscillator_strength_1> 
0.0886 
 
>  <oscillator_strength_2> 
0.0002 
 
>  <oscillator_strength_3> 
0.0009 
 
>  <oscillator_strength_4> 
0.1623 
 
>  <open_babel_can_smiles> 
CCCCCOC(=O)c1ccccc1O 
 
>  <mulliken_charges> 
31 
1   -0.442409 
2   -0.246245 
3   -0.257435 
4   -0.139902 
5   -0.122407 
6   -0.27885 
7   -0.16817 
8   -0.198323 
9   -0.041209 
10   0.029639 
11   0.30197 
12   0.605225 
13   -0.615448 
14   -0.502906 
15   -0.463971 
16   0.142855 
17   0.143119 
18   0.140913 
19   0.135827 
20   0.131518 
21   0.127126 
22   0.135612 
23   0.134338 
24   0.137489 
25   0.160317 
26   0.142006 
27   0.168259 
28   0.120846 
29   0.146835 
30   0.165241 
31   0.408141 
 
>  <lowdin_charges> 
31 
1   -0.444935 
2   -0.271527 
3   -0.275283 
4   -0.181241 
5   -0.127602 
6   -0.287919 
7   -0.119519 
8   -0.216071 
9   -0.130389 
10   -0.077464 
11   0.117073 
12   0.198622 
13   -0.353931 
14   -0.287154 
15   -0.173939 
16   0.149179 
17   0.147168 
18   0.147084 
19   0.142824 
20   0.139535 
21   0.138296 
22   0.141407 
23   0.162088 
24   0.159911 
25   0.156835 
26   0.146242 
27   0.180854 
28   0.154306 
29   0.151164 
30   0.156326 
31   0.358062 
 
$$$$ 
 
