PCCDB-ID:  39738 
public computational chemistry database (PCCDB) project, http://pccdb.org 
 
 19 19  0  0  0  0  0  0  0  0999 V2000 
    1.0141   -0.1953    0.0171 C   0  0  0  0  0  0  0  0  0  0  0  0 
    5.4407    1.0857    1.4091 C   0  0  0  0  0  0  0  0  0  0  0  0 
    5.4552    1.2515   -1.1261 C   0  0  0  0  0  0  0  0  0  0  0  0 
    3.2591    1.0745    0.1219 C   0  0  0  0  0  0  0  0  0  0  0  0 
    2.4975   -0.0207    0.0388 C   0  0  0  0  0  0  0  0  0  0  0  0 
    3.4124   -1.1961   -0.0342 C   0  0  0  0  0  0  0  0  0  0  0  0 
    4.7237    0.7077    0.1074 C   0  0  0  0  0  0  0  0  0  0  0  0 
    3.1296   -2.3664   -0.1205 O   0  0  0  0  0  0  0  0  0  0  0  0 
    4.7049   -0.7413    0.0123 O   0  0  0  0  0  0  0  0  0  0  0  0 
    0.4942    0.7663    0.0485 H   0  0  0  0  0  0  0  0  0  0  0  0 
    0.6852   -0.8006    0.8701 H   0  0  0  0  0  0  0  0  0  0  0  0 
    0.7038   -0.7354   -0.8849 H   0  0  0  0  0  0  0  0  0  0  0  0 
    5.4669    2.1744    1.5303 H   0  0  0  0  0  0  0  0  0  0  0  0 
    6.4698    0.7132    1.3930 H   0  0  0  0  0  0  0  0  0  0  0  0 
    4.9253    0.6508    2.2705 H   0  0  0  0  0  0  0  0  0  0  0  0 
    5.4754    2.3468   -1.1083 H   0  0  0  0  0  0  0  0  0  0  0  0 
    4.9541    0.9263   -2.0425 H   0  0  0  0  0  0  0  0  0  0  0  0 
    6.4867    0.8856   -1.1432 H   0  0  0  0  0  0  0  0  0  0  0  0 
    2.9221    2.1045    0.1898 H   0  0  0  0  0  0  0  0  0  0  0  0 
  1  5  1  0  0  0  0 
  1 10  1  0  0  0  0 
  1 11  1  0  0  0  0 
  2 13  1  0  0  0  0 
  2 15  1  0  0  0  0 
  3 16  1  0  0  0  0 
  3  7  1  0  0  0  0 
  4 19  1  0  0  0  0 
  5  4  2  0  0  0  0 
  6  9  1  0  0  0  0 
  6  5  1  0  0  0  0 
  7  4  1  0  0  0  0 
  7  2  1  0  0  0  0 
  8  6  2  0  0  0  0 
  9  7  1  0  0  0  0 
 12  1  1  0  0  0  0 
 14  2  1  0  0  0  0 
 17  3  1  0  0  0  0 
 18  3  1  0  0  0  0 
M  END 
>  <HBA> 
2 
 
>  <HBD> 
0 
 
>  <TPSA> 
26.3 
 
>  <cid> 
39738 
 
>  <dipole> 
4.64 
 
>  <excitation_energy_1> 
4.791 
 
>  <excitation_energy_2> 
6.02 
 
>  <excitation_energy_3> 
6.212 
 
>  <excitation_energy_4> 
6.708 
 
>  <homo_energy> 
-7.168 
 
>  <homo_lumo_gap> 
6.218 
 
>  <logP> 
1.268 
 
>  <lumo_energy> 
-0.95 
 
>  <melting_point> 
32.03 
 
>  <molecular_refractivity> 
34.5 
 
>  <oscillator_strength_1> 
0.0002 
 
>  <oscillator_strength_2> 
0.2826 
 
>  <oscillator_strength_3> 
0.0114 
 
>  <oscillator_strength_4> 
0.0124 
 
>  <open_babel_can_smiles> 
O=C1OC(C=C1C)(C)C 
 
>  <mulliken_charges> 
19 
1   -0.514814 
2   -0.442683 
3   -0.442275 
4   -0.194029 
5   0.109275 
6   0.566439 
7   0.260025 
8   -0.470927 
9   -0.48545 
10   0.155546 
11   0.179653 
12   0.180301 
13   0.146877 
14   0.166127 
15   0.162932 
16   0.146848 
17   0.16301 
18   0.165985 
19   0.147161 
 
>  <lowdin_charges> 
19 
1   -0.434997 
2   -0.440337 
3   -0.439741 
4   -0.157599 
5   -0.039731 
6   0.181586 
7   0.135478 
8   -0.245653 
9   -0.192681 
10   0.160026 
11   0.174219 
12   0.174336 
13   0.153827 
14   0.162773 
15   0.163198 
16   0.153649 
17   0.162851 
18   0.162613 
19   0.166182 
 
$$$$ 
 
