PCCDB-ID:  16071 
public computational chemistry database (PCCDB) project, http://pccdb.org 
 
 23 24  0  0  1  0  0  0  0  0999 V2000 
   -1.4360    0.6864   -0.1495 C   0  0  0  0  0  0  0  0  0  0  0  0 
   -0.2556   -1.4997    0.5020 C   0  0  0  0  0  0  0  0  0  0  0  0 
   -0.2119    1.6016   -0.4755 C   0  0  0  0  0  0  0  0  0  0  0  0 
    0.8609   -1.1651   -0.5099 C   0  0  0  0  0  0  0  0  0  0  0  0 
    0.0746    0.6675    1.7167 C   0  0  0  0  0  0  0  0  0  0  0  0 
   -0.9639   -0.2266    1.0135 C   0  0  1  0  0  0  0  0  0  0  0  0 
    0.9008    1.1691    0.5145 C   0  0  1  0  0  0  0  0  0  0  0  0 
    1.7506    0.0130   -0.0629 C   0  0  1  0  0  0  0  0  0  0  0  0 
    2.7749   -0.3968    0.8476 O   0  0  0  0  0  0  0  0  0  0  0  0 
   -1.7725    0.1077   -1.0170 H   0  0  0  0  0  0  0  0  0  0  0  0 
   -2.2894    1.2926    0.1743 H   0  0  0  0  0  0  0  0  0  0  0  0 
    0.1620   -2.0415    1.3640 H   0  0  0  0  0  0  0  0  0  0  0  0 
   -0.9795   -2.1811    0.0367 H   0  0  0  0  0  0  0  0  0  0  0  0 
   -0.4664    2.6545   -0.3111 H   0  0  0  0  0  0  0  0  0  0  0  0 
    0.1107    1.5167   -1.5198 H   0  0  0  0  0  0  0  0  0  0  0  0 
    0.4022   -0.9088   -1.4733 H   0  0  0  0  0  0  0  0  0  0  0  0 
    1.4986   -2.0373   -0.6940 H   0  0  0  0  0  0  0  0  0  0  0  0 
    0.6637    0.1350    2.4752 H   0  0  0  0  0  0  0  0  0  0  0  0 
   -0.4073    1.5111    2.2275 H   0  0  0  0  0  0  0  0  0  0  0  0 
   -1.7937   -0.5073    1.6727 H   0  0  0  0  0  0  0  0  0  0  0  0 
    1.5723    1.9939    0.7760 H   0  0  0  0  0  0  0  0  0  0  0  0 
    2.3084    0.3840   -0.9308 H   0  0  0  0  0  0  0  0  0  0  0  0 
    2.3437   -0.7535    1.6393 H   0  0  0  0  0  0  0  0  0  0  0  0 
  1 11  1  0  0  0  0 
  1  6  1  0  0  0  0 
  2  6  1  0  0  0  0 
  2 12  1  0  0  0  0 
  3 14  1  0  0  0  0 
  3  1  1  0  0  0  0 
  3  7  1  0  0  0  0 
  4  8  1  0  0  0  0 
  4  2  1  0  0  0  0 
  5 19  1  0  0  0  0 
  5 18  1  0  0  0  0 
  6 20  1  1  0  0  0 
  6  5  1  0  0  0  0 
  7 21  1  1  0  0  0 
  7  5  1  0  0  0  0 
  8 22  1  6  0  0  0 
  8  7  1  0  0  0  0 
  8  9  1  0  0  0  0 
  9 23  1  0  0  0  0 
 10  1  1  0  0  0  0 
 13  2  1  0  0  0  0 
 15  3  1  0  0  0  0 
 16  4  1  0  0  0  0 
 17  4  1  0  0  0  0 
M  END 
>  <HBA> 
1 
 
>  <HBD> 
1 
 
>  <TPSA> 
20.23 
 
>  <cid> 
16071 
 
>  <dipole> 
1.83 
 
>  <excitation_energy_1> 
6.221 
 
>  <excitation_energy_2> 
6.764 
 
>  <excitation_energy_3> 
6.953 
 
>  <excitation_energy_4> 
7.085 
 
>  <homo_energy> 
-6.846 
 
>  <homo_lumo_gap> 
8.474 
 
>  <logP> 
1.557 
 
>  <lumo_energy> 
1.627 
 
>  <melting_point> 
35.88 
 
>  <molecular_refractivity> 
37.5 
 
>  <oscillator_strength_1> 
0.0049 
 
>  <oscillator_strength_2> 
0.0035 
 
>  <oscillator_strength_3> 
0.018 
 
>  <oscillator_strength_4> 
0.0107 
 
>  <open_babel_can_smiles> 
O[C@H]1CC[C@H]2C[C@@H]1CC2 
 
>  <mulliken_charges> 
23 
1   -0.276386 
2   -0.274289 
3   -0.2836 
4   -0.296752 
5   -0.284876 
6   -0.084464 
7   -0.104669 
8   0.143793 
9   -0.637235 
10   0.13526 
11   0.136303 
12   0.121008 
13   0.135799 
14   0.138388 
15   0.13587 
16   0.13684 
17   0.14653 
18   0.113579 
19   0.135835 
20   0.118328 
21   0.127727 
22   0.129842 
23   0.387171 
 
>  <lowdin_charges> 
23 
1   -0.289396 
2   -0.28547 
3   -0.285002 
4   -0.301925 
5   -0.288858 
6   -0.134872 
7   -0.14962 
8   -0.008364 
9   -0.466453 
10   0.144399 
11   0.14705 
12   0.135475 
13   0.146786 
14   0.14603 
15   0.142624 
16   0.146715 
17   0.153604 
18   0.133362 
19   0.147053 
20   0.14072 
21   0.146652 
22   0.143487 
23   0.336002 
 
$$$$ 
 
