PCCDB-ID:  68099 
public computational chemistry database (PCCDB) project, http://pccdb.org 
 
 17 17  0  0  0  0  0  0  0  0999 V2000 
   -0.6894    1.2088    0.0240 C   0  0  0  0  0  0  0  0  0  0  0  0 
   -0.7218   -1.2185   -0.0247 C   0  0  0  0  0  0  0  0  0  0  0  0 
    2.9059   -0.0025   -0.0387 C   0  0  0  0  0  0  0  0  0  0  0  0 
   -1.3955    0.0022    0.0072 C   0  0  0  0  0  0  0  0  0  0  0  0 
    1.4316   -0.0364   -0.0247 C   0  0  0  0  0  0  0  0  0  0  0  0 
    0.7052    1.1767    0.0078 C   0  0  0  0  0  0  0  0  0  0  0  0 
    0.6740   -1.2371   -0.0407 C   0  0  0  0  0  0  0  0  0  0  0  0 
    3.6471   -0.9699   -0.0659 O   0  0  0  0  0  0  0  0  0  0  0  0 
   -2.7551   -0.0434    0.0211 O   0  0  0  0  0  0  0  0  0  0  0  0 
    1.4246    2.3351    0.0226 O   0  0  0  0  0  0  0  0  0  0  0  0 
    1.3445   -2.4111   -0.0723 O   0  0  0  0  0  0  0  0  0  0  0  0 
   -1.2185    2.1602    0.0483 H   0  0  0  0  0  0  0  0  0  0  0  0 
   -1.2970   -2.1398   -0.0365 H   0  0  0  0  0  0  0  0  0  0  0  0 
    3.3265    1.0213   -0.0205 H   0  0  0  0  0  0  0  0  0  0  0  0 
   -3.1073    0.8601    0.0423 H   0  0  0  0  0  0  0  0  0  0  0  0 
    0.8142    3.0879    0.0472 H   0  0  0  0  0  0  0  0  0  0  0  0 
    0.6980   -3.1354   -0.0827 H   0  0  0  0  0  0  0  0  0  0  0  0 
  1 12  1  0  0  0  0 
  2  4  1  0  0  0  0 
  3  5  1  0  0  0  0 
  3 14  1  0  0  0  0 
  4  9  1  0  0  0  0 
  4  1  2  0  0  0  0 
  5  6  2  0  0  0  0 
  6 10  1  0  0  0  0 
  6  1  1  0  0  0  0 
  7  2  2  0  0  0  0 
  7  5  1  0  0  0  0 
  8  3  2  0  0  0  0 
  9 15  1  0  0  0  0 
 10 16  1  0  0  0  0 
 11  7  1  0  0  0  0 
 13  2  1  0  0  0  0 
 17 11  1  0  0  0  0 
M  END 
>  <HBA> 
4 
 
>  <HBD> 
3 
 
>  <TPSA> 
77.76 
 
>  <cid> 
68099 
 
>  <dipole> 
6.36 
 
>  <excitation_energy_1> 
3.566 
 
>  <excitation_energy_2> 
4.415 
 
>  <excitation_energy_3> 
4.932 
 
>  <excitation_energy_4> 
5.177 
 
>  <homo_energy> 
-6.123 
 
>  <homo_lumo_gap> 
5.078 
 
>  <logP> 
0.616 
 
>  <lumo_energy> 
-1.045 
 
>  <melting_point> 
160.01 
 
>  <molecular_refractivity> 
37.9 
 
>  <oscillator_strength_1> 
0.0001 
 
>  <oscillator_strength_2> 
0.0282 
 
>  <oscillator_strength_3> 
0.2714 
 
>  <oscillator_strength_4> 
0.0014 
 
>  <open_babel_can_smiles> 
O=Cc1c(O)cc(cc1O)O 
 
>  <mulliken_charges> 
17 
1   -0.284255 
2   -0.249207 
3   0.1925 
4   0.375628 
5   0.0226 
6   0.306092 
7   0.312662 
8   -0.412854 
9   -0.636891 
10   -0.637577 
11   -0.597048 
12   0.110646 
13   0.133955 
14   0.122392 
15   0.413915 
16   0.415421 
17   0.412021 
 
>  <lowdin_charges> 
17 
1   -0.29656 
2   -0.268003 
3   0.039655 
4   0.137536 
5   -0.130877 
6   0.13462 
7   0.144658 
8   -0.237461 
9   -0.361428 
10   -0.364185 
11   -0.330974 
12   0.152029 
13   0.167529 
14   0.128655 
15   0.360692 
16   0.363155 
17   0.360959 
 
$$$$ 
 
