PCCDB-ID:  56355 
public computational chemistry database (PCCDB) project, http://pccdb.org 
 
 36 36  0  0  0  0  0  0  0  0999 V2000 
    3.6539    3.7614   -7.0072 C   0  0  0  0  0  0  0  0  0  0  0  0 
    2.6718   10.2328    2.2400 C   0  0  0  0  0  0  0  0  0  0  0  0 
    5.1028    3.6380   -6.5424 C   0  0  0  0  0  0  0  0  0  0  0  0 
    2.9552    8.9691    1.4472 C   0  0  0  0  0  0  0  0  0  0  0  0 
    6.8012    7.1123   -0.7872 C   0  0  0  0  0  0  0  0  0  0  0  0 
    4.7245    5.8794   -0.8668 C   0  0  0  0  0  0  0  0  0  0  0  0 
    6.1931    8.0989   -0.0302 C   0  0  0  0  0  0  0  0  0  0  0  0 
    4.1005    6.8674   -0.1066 C   0  0  0  0  0  0  0  0  0  0  0  0 
    6.5332    3.1787   -4.6216 C   0  0  0  0  0  0  0  0  0  0  0  0 
    6.5775    2.8705   -3.1292 C   0  0  0  0  0  0  0  0  0  0  0  0 
    6.0754    5.9870   -1.2150 C   0  0  0  0  0  0  0  0  0  0  0  0 
    4.8352    7.9848    0.3160 C   0  0  0  0  0  0  0  0  0  0  0  0 
    6.7805    4.9622   -2.0226 C   0  0  0  0  0  0  0  0  0  0  0  0 
    5.1714    3.3414   -5.1132 N   0  0  0  0  0  0  0  0  0  0  0  0 
    7.9443    5.0436   -2.3737 O   0  0  0  0  0  0  0  0  0  0  0  0 
    4.3302    9.0058    1.0580 O   0  0  0  0  0  0  0  0  0  0  0  0 
    5.9843    3.9071   -2.3272 O   0  0  0  0  0  0  0  0  0  0  0  0 
    3.6059    4.0241   -8.0697 H   0  0  0  0  0  0  0  0  0  0  0  0 
    3.1305    4.5314   -6.4314 H   0  0  0  0  0  0  0  0  0  0  0  0 
    3.1141    2.8146   -6.8760 H   0  0  0  0  0  0  0  0  0  0  0  0 
    1.6273   10.2432    2.5693 H   0  0  0  0  0  0  0  0  0  0  0  0 
    2.8526   11.1215    1.6274 H   0  0  0  0  0  0  0  0  0  0  0  0 
    3.3155   10.2860    3.1235 H   0  0  0  0  0  0  0  0  0  0  0  0 
    5.6256    4.5893   -6.7085 H   0  0  0  0  0  0  0  0  0  0  0  0 
    5.6301    2.8841   -7.1613 H   0  0  0  0  0  0  0  0  0  0  0  0 
    2.3185    8.9147    0.5531 H   0  0  0  0  0  0  0  0  0  0  0  0 
    2.7650    8.0726    2.0538 H   0  0  0  0  0  0  0  0  0  0  0  0 
    7.8478    7.1905   -1.0626 H   0  0  0  0  0  0  0  0  0  0  0  0 
    4.1560    5.0174   -1.1973 H   0  0  0  0  0  0  0  0  0  0  0  0 
    6.7410    8.9728    0.3078 H   0  0  0  0  0  0  0  0  0  0  0  0 
    3.0528    6.7600    0.1478 H   0  0  0  0  0  0  0  0  0  0  0  0 
    7.0960    2.3733   -5.1380 H   0  0  0  0  0  0  0  0  0  0  0  0 
    7.0841    4.1081   -4.8038 H   0  0  0  0  0  0  0  0  0  0  0  0 
    7.6134    2.7184   -2.8153 H   0  0  0  0  0  0  0  0  0  0  0  0 
    5.9936    1.9743   -2.8950 H   0  0  0  0  0  0  0  0  0  0  0  0 
    4.6436    2.4877   -4.9279 H   0  0  0  0  0  0  0  0  0  0  0  0 
  1 20  1  0  0  0  0 
  1  3  1  0  0  0  0 
  1 19  1  0  0  0  0 
  2 21  1  0  0  0  0 
  2 23  1  0  0  0  0 
  3 14  1  0  0  0  0 
  4 27  1  0  0  0  0 
  4  2  1  0  0  0  0 
  5  7  2  0  0  0  0 
  6  8  1  0  0  0  0 
  7 30  1  0  0  0  0 
  7 12  1  0  0  0  0 
  8 31  1  0  0  0  0 
  8 12  2  0  0  0  0 
  9 10  1  0  0  0  0 
 10 35  1  0  0  0  0 
 10 34  1  0  0  0  0 
 10 17  1  0  0  0  0 
 11  6  2  0  0  0  0 
 11  5  1  0  0  0  0 
 12 16  1  0  0  0  0 
 13 11  1  0  0  0  0 
 14 36  1  0  0  0  0 
 14  9  1  0  0  0  0 
 15 13  2  0  0  0  0 
 16  4  1  0  0  0  0 
 17 13  1  0  0  0  0 
 18  1  1  0  0  0  0 
 22  2  1  0  0  0  0 
 24  3  1  0  0  0  0 
 25  3  1  0  0  0  0 
 26  4  1  0  0  0  0 
 28  5  1  0  0  0  0 
 29  6  1  0  0  0  0 
 32  9  1  0  0  0  0 
 33  9  1  0  0  0  0 
M  END 
>  <HBA> 
4 
 
>  <HBD> 
1 
 
>  <TPSA> 
47.56 
 
>  <cid> 
56355 
 
>  <dipole> 
3.3 
 
>  <excitation_energy_1> 
4.49 
 
>  <excitation_energy_2> 
4.889 
 
>  <excitation_energy_3> 
4.913 
 
>  <excitation_energy_4> 
5.01 
 
>  <homo_energy> 
-5.94 
 
>  <homo_lumo_gap> 
5.151 
 
>  <logP> 
2.243 
 
>  <lumo_energy> 
-0.789 
 
>  <melting_point> 
59.89 
 
>  <molecular_refractivity> 
66.24 
 
>  <oscillator_strength_1> 
0.0018 
 
>  <oscillator_strength_2> 
0.4367 
 
>  <oscillator_strength_3> 
0.0088 
 
>  <oscillator_strength_4> 
0.0135 
 
>  <open_babel_can_smiles> 
CCNCCOC(=O)c1ccc(cc1)OCC 
 
>  <mulliken_charges> 
36 
1   -0.451163 
2   -0.457531 
3   -0.106533 
4   -0.032785 
5   -0.157848 
6   -0.16787 
7   -0.184635 
8   -0.202946 
9   -0.135045 
10   -0.0559 
11   0.046418 
12   0.392751 
13   0.597502 
14   -0.539125 
15   -0.505413 
16   -0.512877 
17   -0.471048 
18   0.144548 
19   0.160882 
20   0.136551 
21   0.150442 
22   0.165601 
23   0.16566 
24   0.144054 
25   0.108457 
26   0.145255 
27   0.144766 
28   0.161517 
29   0.159721 
30   0.141785 
31   0.136423 
32   0.111141 
33   0.171927 
34   0.16957 
35   0.141963 
36   0.283786 
 
>  <lowdin_charges> 
36 
1   -0.447661 
2   -0.446565 
3   -0.197911 
4   -0.123357 
5   -0.120596 
6   -0.126261 
7   -0.184888 
8   -0.215598 
9   -0.214918 
10   -0.134903 
11   -0.065631 
12   0.115096 
13   0.197223 
14   -0.361704 
15   -0.284072 
16   -0.194564 
17   -0.186763 
18   0.151452 
19   0.158263 
20   0.143995 
21   0.157217 
22   0.161435 
23   0.161413 
24   0.143197 
25   0.115089 
26   0.14126 
27   0.140759 
28   0.175563 
29   0.174757 
30   0.169166 
31   0.162585 
32   0.122501 
33   0.159327 
34   0.160646 
35   0.14791 
36   0.246539 
 
$$$$ 
 
