PCCDB-ID:  16703 
public computational chemistry database (PCCDB) project, http://pccdb.org 
 
 29 29  0  0  1  0  0  0  0  0999 V2000 
    3.6483    1.9467    0.6810 C   0  0  0  0  0  0  0  0  0  0  0  0 
    5.4929   -3.7331    3.7560 C   0  0  0  0  0  0  0  0  0  0  0  0 
    2.9503    0.5943    0.4543 C   0  0  0  0  0  0  0  0  0  0  0  0 
    4.8378   -2.5957    2.9663 C   0  0  0  0  0  0  0  0  0  0  0  0 
    3.5901   -0.5225    1.2333 C   0  0  0  0  0  0  0  0  0  0  0  0 
    4.1128   -1.6318    0.6886 C   0  0  0  0  0  0  0  0  0  0  0  0 
    6.2002   -2.9762    0.8710 C   0  0  0  0  0  0  0  0  0  0  0  0 
    4.0234   -4.0868    1.0925 C   0  0  0  0  0  0  0  0  0  0  0  0 
    5.9757   -5.2748    0.7281 C   0  0  0  0  0  0  0  0  0  0  0  0 
    4.7798   -2.7946    1.4147 C   0  0  1  0  0  0  0  0  0  0  0  0 
    6.7417   -4.0867    0.5703 N   0  0  0  0  0  0  0  0  0  0  0  0 
    4.5569   -5.2014    0.7921 N   0  0  0  0  0  0  0  0  0  0  0  0 
    6.9338   -1.8511    0.7536 O   0  0  0  0  0  0  0  0  0  0  0  0 
    2.6801   -4.0229    1.1864 O   0  0  0  0  0  0  0  0  0  0  0  0 
    6.5284   -6.3495    0.7687 O   0  0  0  0  0  0  0  0  0  0  0  0 
    3.1369    2.7418    0.1289 H   0  0  0  0  0  0  0  0  0  0  0  0 
    4.6895    1.9153    0.3415 H   0  0  0  0  0  0  0  0  0  0  0  0 
    3.6480    2.2229    1.7419 H   0  0  0  0  0  0  0  0  0  0  0  0 
    5.4829   -3.4873    4.8228 H   0  0  0  0  0  0  0  0  0  0  0  0 
    6.5346   -3.8889    3.4593 H   0  0  0  0  0  0  0  0  0  0  0  0 
    4.9596   -4.6799    3.6269 H   0  0  0  0  0  0  0  0  0  0  0  0 
    2.9443    0.3485   -0.6143 H   0  0  0  0  0  0  0  0  0  0  0  0 
    1.8987    0.6833    0.7637 H   0  0  0  0  0  0  0  0  0  0  0  0 
    5.3751   -1.6596    3.1620 H   0  0  0  0  0  0  0  0  0  0  0  0 
    3.8111   -2.4491    3.3234 H   0  0  0  0  0  0  0  0  0  0  0  0 
    3.6242   -0.3798    2.3136 H   0  0  0  0  0  0  0  0  0  0  0  0 
    4.0698   -1.7476   -0.3962 H   0  0  0  0  0  0  0  0  0  0  0  0 
    6.3552   -1.0831    0.9089 H   0  0  0  0  0  0  0  0  0  0  0  0 
    2.4187   -3.0923    1.3066 H   0  0  0  0  0  0  0  0  0  0  0  0 
  1 18  1  0  0  0  0 
  2 19  1  0  0  0  0 
  3  1  1  0  0  0  0 
  3 23  1  0  0  0  0 
  3  5  1  0  0  0  0 
  4 24  1  0  0  0  0 
  4 25  1  0  0  0  0 
  4  2  1  0  0  0  0 
  5 26  1  0  0  0  0 
  6  5  2  0  0  0  0 
  7 10  1  0  0  0  0 
  8 14  1  0  0  0  0 
  8 10  1  0  0  0  0 
  9 15  2  0  0  0  0 
  9 12  1  0  0  0  0 
 10  6  1  6  0  0  0 
 10  4  1  0  0  0  0 
 11  9  2  0  0  0  0 
 11  7  2  0  0  0  0 
 12  8  2  0  0  0  0 
 13  7  1  0  0  0  0 
 13 28  1  0  0  0  0 
 14 29  1  0  0  0  0 
 16  1  1  0  0  0  0 
 17  1  1  0  0  0  0 
 20  2  1  0  0  0  0 
 21  2  1  0  0  0  0 
 22  3  1  0  0  0  0 
 27  6  1  0  0  0  0 
M  END 
>  <HBA> 
5 
 
>  <HBD> 
2 
 
>  <TPSA> 
75.27 
 
>  <cid> 
16703 
 
>  <dipole> 
10.78 
 
>  <excitation_energy_1> 
4.009 
 
>  <excitation_energy_2> 
4.262 
 
>  <excitation_energy_3> 
5.004 
 
>  <excitation_energy_4> 
5.327 
 
>  <homo_energy> 
-6.806 
 
>  <homo_lumo_gap> 
5.374 
 
>  <logP> 
1.373 
 
>  <lumo_energy> 
-1.431 
 
>  <melting_point> 
150.7 
 
>  <molecular_refractivity> 
61.76 
 
>  <oscillator_strength_1> 
0.0007 
 
>  <oscillator_strength_2> 
0.0004 
 
>  <oscillator_strength_3> 
0.061 
 
>  <oscillator_strength_4> 
0.0088 
 
>  <open_babel_can_smiles> 
CC/C=C/[C@@]1(CC)C(=N[C](=[N]=C1O)=O)O 
 
>  <mulliken_charges> 
29 
1   -0.447588 
2   -0.476186 
3   -0.304764 
4   -0.264314 
5   -0.084976 
6   -0.225771 
7   0.541754 
8   0.541737 
9   0.614976 
10   -0.146845 
11   -0.464686 
12   -0.464291 
13   -0.574792 
14   -0.574343 
15   -0.430391 
16   0.163576 
17   0.154233 
18   0.152983 
19   0.159084 
20   0.183781 
21   0.18361 
22   0.157423 
23   0.161132 
24   0.150066 
25   0.149937 
26   0.149809 
27   0.166267 
28   0.413985 
29   0.414593 
 
>  <lowdin_charges> 
29 
1   -0.440151 
2   -0.451672 
3   -0.267381 
4   -0.263579 
5   -0.149327 
6   -0.207798 
7   0.145149 
8   0.145282 
9   0.176854 
10   -0.061344 
11   -0.1844 
12   -0.184401 
13   -0.329688 
14   -0.32847 
15   -0.212072 
16   0.162238 
17   0.15146 
18   0.151134 
19   0.160469 
20   0.166878 
21   0.167889 
22   0.153169 
23   0.157849 
24   0.149966 
25   0.148943 
26   0.158525 
27   0.166515 
28   0.359858 
29   0.358104 
 
$$$$ 
 
