PCCDB-ID:  11306 
public computational chemistry database (PCCDB) project, http://pccdb.org 
 
 24 25  0  0  0  0  0  0  0  0999 V2000 
    0.9339   -0.0145   -0.1770 C   0  0  0  0  0  0  0  0  0  0  0  0 
    6.8695   -2.4058    0.1703 C   0  0  0  0  0  0  0  0  0  0  0  0 
    4.5339    1.2404    0.0326 C   0  0  0  0  0  0  0  0  0  0  0  0 
    3.2698   -3.6607   -0.0425 C   0  0  0  0  0  0  0  0  0  0  0  0 
    3.1244    1.1957   -0.0493 C   0  0  0  0  0  0  0  0  0  0  0  0 
    4.6792   -3.6160    0.0399 C   0  0  0  0  0  0  0  0  0  0  0  0 
    2.5389   -2.4965   -0.0843 C   0  0  0  0  0  0  0  0  0  0  0  0 
    5.2647    0.0762    0.0744 C   0  0  0  0  0  0  0  0  0  0  0  0 
    2.4422   -0.0040   -0.0894 C   0  0  0  0  0  0  0  0  0  0  0  0 
    5.3614   -2.4162    0.0800 C   0  0  0  0  0  0  0  0  0  0  0  0 
    3.1848   -1.2301   -0.0464 C   0  0  0  0  0  0  0  0  0  0  0  0 
    4.6188   -1.1901    0.0369 C   0  0  0  0  0  0  0  0  0  0  0  0 
    0.5419    1.0063   -0.2105 H   0  0  0  0  0  0  0  0  0  0  0  0 
    0.4780   -0.5180    0.6851 H   0  0  0  0  0  0  0  0  0  0  0  0 
    0.5808   -0.5361   -1.0756 H   0  0  0  0  0  0  0  0  0  0  0  0 
    7.2623   -3.4266    0.1897 H   0  0  0  0  0  0  0  0  0  0  0  0 
    7.2202   -1.8969    1.0772 H   0  0  0  0  0  0  0  0  0  0  0  0 
    7.3268   -1.8895   -0.6833 H   0  0  0  0  0  0  0  0  0  0  0  0 
    5.0386    2.2025    0.0616 H   0  0  0  0  0  0  0  0  0  0  0  0 
    2.7651   -4.6228   -0.0728 H   0  0  0  0  0  0  0  0  0  0  0  0 
    2.5641    2.1273   -0.0820 H   0  0  0  0  0  0  0  0  0  0  0  0 
    5.2395   -4.5475    0.0724 H   0  0  0  0  0  0  0  0  0  0  0  0 
    1.4568   -2.5434   -0.1471 H   0  0  0  0  0  0  0  0  0  0  0  0 
    6.3468    0.1232    0.1371 H   0  0  0  0  0  0  0  0  0  0  0  0 
  1  9  1  0  0  0  0 
  1 14  1  0  0  0  0 
  2 16  1  0  0  0  0 
  2 17  1  0  0  0  0 
  3 19  1  0  0  0  0 
  3  8  2  0  0  0  0 
  4  6  2  0  0  0  0 
  5  3  1  0  0  0  0 
  6 22  1  0  0  0  0 
  6 10  1  0  0  0  0 
  7 11  2  0  0  0  0 
  7  4  1  0  0  0  0 
  8 24  1  0  0  0  0 
  9  5  2  0  0  0  0 
  9 11  1  0  0  0  0 
 10  2  1  0  0  0  0 
 11 12  1  0  0  0  0 
 12  8  1  0  0  0  0 
 12 10  2  0  0  0  0 
 13  1  1  0  0  0  0 
 15  1  1  0  0  0  0 
 18  2  1  0  0  0  0 
 20  4  1  0  0  0  0 
 21  5  1  0  0  0  0 
 23  7  1  0  0  0  0 
M  END 
>  <HBA> 
0 
 
>  <HBD> 
0 
 
>  <TPSA> 
0.0 
 
>  <cid> 
11306 
 
>  <dipole> 
0.0 
 
>  <excitation_energy_1> 
4.201 
 
>  <excitation_energy_2> 
4.371 
 
>  <excitation_energy_3> 
5.329 
 
>  <excitation_energy_4> 
5.433 
 
>  <homo_energy> 
-5.576 
 
>  <homo_lumo_gap> 
4.678 
 
>  <logP> 
3.457 
 
>  <lumo_energy> 
-0.898 
 
>  <melting_point> 
57.33 
 
>  <molecular_refractivity> 
53.88 
 
>  <oscillator_strength_1> 
0.1156 
 
>  <oscillator_strength_2> 
0.0006 
 
>  <oscillator_strength_3> 
0.0052 
 
>  <oscillator_strength_4> 
0.0 
 
>  <open_babel_can_smiles> 
Cc1cccc2c1cccc2C 
 
>  <mulliken_charges> 
24 
1   -0.535138 
2   -0.53516 
3   -0.125469 
4   -0.125459 
5   -0.201651 
6   -0.201676 
7   -0.201705 
8   -0.201663 
9   0.132318 
10   0.13239 
11   0.080042 
12   0.079934 
13   0.155219 
14   0.162455 
15   0.162268 
16   0.155225 
17   0.162426 
18   0.1623 
19   0.125989 
20   0.12599 
21   0.119727 
22   0.119726 
23   0.125958 
24   0.125954 
 
>  <lowdin_charges> 
24 
1   -0.44408 
2   -0.444073 
3   -0.157417 
4   -0.157418 
5   -0.172603 
6   -0.172604 
7   -0.164582 
8   -0.16458 
9   0.001694 
10   0.001697 
11   -0.007807 
12   -0.007808 
13   0.156982 
14   0.160339 
15   0.159926 
16   0.156983 
17   0.159973 
18   0.160282 
19   0.15676 
20   0.15676 
21   0.154019 
22   0.154019 
23   0.156769 
24   0.156769 
 
$$$$ 
 
