PCCDB-ID:  15565 
public computational chemistry database (PCCDB) project, http://pccdb.org 
 
 29 32  0  0  0  0  0  0  0  0999 V2000 
    0.9943   -0.0457   -0.0834 C   0  0  0  0  0  0  0  0  0  0  0  0 
    9.3051   -1.4549   -0.1253 C   0  0  0  0  0  0  0  0  0  0  0  0 
    9.1916   -0.0616   -0.1235 C   0  0  0  0  0  0  0  0  0  0  0  0 
    3.6067   -3.6613   -0.0953 C   0  0  0  0  0  0  0  0  0  0  0  0 
    8.1631   -2.2653   -0.1193 C   0  0  0  0  0  0  0  0  0  0  0  0 
    7.9338    0.5541   -0.1176 C   0  0  0  0  0  0  0  0  0  0  0  0 
    2.7424   -2.5780   -0.0906 C   0  0  0  0  0  0  0  0  0  0  0  0 
    5.0196   -3.5098   -0.1032 C   0  0  0  0  0  0  0  0  0  0  0  0 
    3.2001    1.1750   -0.0937 C   0  0  0  0  0  0  0  0  0  0  0  0 
    4.6196    1.2629   -0.1012 C   0  0  0  0  0  0  0  0  0  0  0  0 
    2.5028   -0.0257   -0.0901 C   0  0  0  0  0  0  0  0  0  0  0  0 
    3.2545   -1.2487   -0.0942 C   0  0  0  0  0  0  0  0  0  0  0  0 
    6.9085   -1.6641   -0.1130 C   0  0  0  0  0  0  0  0  0  0  0  0 
    6.7924   -0.2415   -0.1120 C   0  0  0  0  0  0  0  0  0  0  0  0 
    5.5474   -2.2343   -0.1064 C   0  0  0  0  0  0  0  0  0  0  0  0 
    5.3574    0.0987   -0.1048 C   0  0  0  0  0  0  0  0  0  0  0  0 
    4.6536   -1.1327   -0.1016 C   0  0  0  0  0  0  0  0  0  0  0  0 
    0.5868    0.9695   -0.0805 H   0  0  0  0  0  0  0  0  0  0  0  0 
    0.6016   -0.5662    0.7996 H   0  0  0  0  0  0  0  0  0  0  0  0 
    0.5939   -0.5644   -0.9640 H   0  0  0  0  0  0  0  0  0  0  0  0 
   10.2897   -1.9147   -0.1307 H   0  0  0  0  0  0  0  0  0  0  0  0 
   10.0889    0.5513   -0.1288 H   0  0  0  0  0  0  0  0  0  0  0  0 
    3.1923   -4.6661   -0.0923 H   0  0  0  0  0  0  0  0  0  0  0  0 
    8.2615   -3.3481   -0.1209 H   0  0  0  0  0  0  0  0  0  0  0  0 
    7.8564    1.6386   -0.1169 H   0  0  0  0  0  0  0  0  0  0  0  0 
    1.6701   -2.7506   -0.0843 H   0  0  0  0  0  0  0  0  0  0  0  0 
    5.6532   -4.3932   -0.1068 H   0  0  0  0  0  0  0  0  0  0  0  0 
    2.6309    2.1018   -0.0910 H   0  0  0  0  0  0  0  0  0  0  0  0 
    5.0907    2.2428   -0.1024 H   0  0  0  0  0  0  0  0  0  0  0  0 
  1 18  1  0  0  0  0 
  1 19  1  0  0  0  0 
  2  3  2  0  0  0  0 
  2  5  1  0  0  0  0 
  3  6  1  0  0  0  0 
  4 23  1  0  0  0  0 
  4  7  2  0  0  0  0 
  5 13  2  0  0  0  0 
  6 25  1  0  0  0  0 
  6 14  2  0  0  0  0 
  7 26  1  0  0  0  0 
  8  4  1  0  0  0  0 
  9 28  1  0  0  0  0 
  9 11  2  0  0  0  0 
 10  9  1  0  0  0  0 
 11  1  1  0  0  0  0 
 12  7  1  0  0  0  0 
 12 11  1  0  0  0  0 
 13 14  1  0  0  0  0 
 13 15  1  0  0  0  0 
 14 16  1  0  0  0  0 
 15  8  2  0  0  0  0 
 15 17  1  0  0  0  0 
 16 17  1  0  0  0  0 
 16 10  2  0  0  0  0 
 17 12  2  0  0  0  0 
 20  1  1  0  0  0  0 
 21  2  1  0  0  0  0 
 22  3  1  0  0  0  0 
 24  5  1  0  0  0  0 
 27  8  1  0  0  0  0 
 29 10  1  0  0  0  0 
M  END 
>  <HBA> 
0 
 
>  <HBD> 
0 
 
>  <TPSA> 
0.0 
 
>  <cid> 
15565 
 
>  <dipole> 
0.78 
 
>  <excitation_energy_1> 
3.306 
 
>  <excitation_energy_2> 
3.527 
 
>  <excitation_energy_3> 
4.115 
 
>  <excitation_energy_4> 
4.534 
 
>  <homo_energy> 
-5.66 
 
>  <homo_lumo_gap> 
3.959 
 
>  <logP> 
4.796 
 
>  <lumo_energy> 
-1.701 
 
>  <melting_point> 
126.73 
 
>  <molecular_refractivity> 
73.34 
 
>  <oscillator_strength_1> 
0.017 
 
>  <oscillator_strength_2> 
0.193 
 
>  <oscillator_strength_3> 
0.0246 
 
>  <oscillator_strength_4> 
0.1972 
 
>  <open_babel_can_smiles> 
Cc1ccc2c3c1cccc3c1c2cccc1 
 
>  <mulliken_charges> 
29 
1   -0.5349 
2   -0.136773 
3   -0.136726 
4   -0.129976 
5   -0.196741 
6   -0.196388 
7   -0.213098 
8   -0.218395 
9   -0.200781 
10   -0.219749 
11   0.123324 
12   0.142844 
13   0.062493 
14   0.062621 
15   0.109292 
16   0.118174 
17   -0.077345 
18   0.157727 
19   0.164077 
20   0.16417 
21   0.127082 
22   0.127174 
23   0.1292 
24   0.128667 
25   0.128675 
26   0.128283 
27   0.132872 
28   0.121539 
29   0.132659 
 
>  <lowdin_charges> 
29 
1   -0.443375 
2   -0.158679 
3   -0.15871 
4   -0.154687 
5   -0.154903 
6   -0.155672 
7   -0.155012 
8   -0.15229 
9   -0.170286 
10   -0.148312 
11   0.007301 
12   -0.009639 
13   -0.009539 
14   -0.007583 
15   -0.002812 
16   -0.008695 
17   -0.014928 
18   0.158566 
19   0.161734 
20   0.161812 
21   0.15701 
22   0.157891 
23   0.15796 
24   0.155388 
25   0.155404 
26   0.157471 
27   0.159874 
28   0.155782 
29   0.158928 
 
$$$$ 
 
