PCCDB-ID:  69367 
public computational chemistry database (PCCDB) project, http://pccdb.org 
 
 16 15  0  0  0  0  0  0  0  0999 V2000 
    0.9274    0.0662   -0.2181 C   0  0  0  0  0  0  0  0  0  0  0  0 
    2.9314    1.4376   -0.9631 C   0  0  0  0  0  0  0  0  0  0  0  0 
    2.8322    0.4193    1.3632 C   0  0  0  0  0  0  0  0  0  0  0  0 
    2.4482    0.2535   -0.1146 C   0  0  0  0  0  0  0  0  0  0  0  0 
    4.3291    0.4731    1.5289 N   0  0  0  0  0  0  0  0  0  0  0  0 
    4.8213    1.5147    1.9535 O   0  0  0  0  0  0  0  0  0  0  0  0 
    4.9572   -0.5326    1.2065 O   0  0  0  0  0  0  0  0  0  0  0  0 
    0.6335   -0.0902   -1.2615 H   0  0  0  0  0  0  0  0  0  0  0  0 
    0.3916    0.9506    0.1487 H   0  0  0  0  0  0  0  0  0  0  0  0 
    0.5860   -0.8006    0.3597 H   0  0  0  0  0  0  0  0  0  0  0  0 
    2.6620    1.2875   -2.0142 H   0  0  0  0  0  0  0  0  0  0  0  0 
    4.0185    1.5600   -0.9130 H   0  0  0  0  0  0  0  0  0  0  0  0 
    2.4704    2.3757   -0.6297 H   0  0  0  0  0  0  0  0  0  0  0  0 
    2.5049   -0.4401    1.9544 H   0  0  0  0  0  0  0  0  0  0  0  0 
    2.4471    1.3447    1.7940 H   0  0  0  0  0  0  0  0  0  0  0  0 
    2.9396   -0.6615   -0.4671 H   0  0  0  0  0  0  0  0  0  0  0  0 
  1  4  1  0  0  0  0 
  1  9  1  0  0  0  0 
  1 10  1  0  0  0  0 
  2 12  1  0  0  0  0 
  2 13  1  0  0  0  0 
  2  4  1  0  0  0  0 
  3  5  1  0  0  0  0 
  3 15  1  0  0  0  0 
  3 14  1  0  0  0  0 
  4  3  1  0  0  0  0 
  5  6  2  0  0  0  0 
  7  5  2  0  0  0  0 
  8  1  1  0  0  0  0 
 11  2  1  0  0  0  0 
 16  4  1  0  0  0  0 
M  END 
>  <HBA> 
0 
 
>  <HBD> 
0 
 
>  <TPSA> 
45.82 
 
>  <cid> 
69367 
 
>  <dipole> 
3.75 
 
>  <excitation_energy_1> 
4.079 
 
>  <excitation_energy_2> 
4.412 
 
>  <excitation_energy_3> 
6.447 
 
>  <excitation_energy_4> 
6.698 
 
>  <homo_energy> 
-7.867 
 
>  <homo_lumo_gap> 
6.101 
 
>  <logP> 
1.442 
 
>  <lumo_energy> 
-1.766 
 
>  <melting_point> 
5.52 
 
>  <molecular_refractivity> 
29.45 
 
>  <oscillator_strength_1> 
0.0002 
 
>  <oscillator_strength_2> 
0.0004 
 
>  <oscillator_strength_3> 
0.0113 
 
>  <oscillator_strength_4> 
0.0107 
 
>  <open_babel_can_smiles> 
CC(CN(=O)=O)C 
 
>  <mulliken_charges> 
16 
1   -0.450061 
2   -0.454349 
3   -0.149863 
4   -0.097683 
5   0.443472 
6   -0.376696 
7   -0.377144 
8   0.158433 
9   0.149033 
10   0.150168 
11   0.154464 
12   0.16807 
13   0.149446 
14   0.185221 
15   0.181372 
16   0.166116 
 
>  <lowdin_charges> 
16 
1   -0.443214 
2   -0.445596 
3   -0.222529 
4   -0.124506 
5   0.297108 
6   -0.243449 
7   -0.251593 
8   0.158183 
9   0.151479 
10   0.153515 
11   0.155813 
12   0.158618 
13   0.151808 
14   0.175862 
15   0.170636 
16   0.157865 
 
$$$$ 
 
