PCCDB-ID:  25311 
public computational chemistry database (PCCDB) project, http://pccdb.org 
 
 40 39  0  0  0  0  0  0  0  0999 V2000 
    1.4540    5.4607   -0.8259 C   0  0  0  0  0  0  0  0  0  0  0  0 
    2.6636    4.5193   -0.8062 C   0  0  0  0  0  0  0  0  0  0  0  0 
    3.1818    4.1925   -2.2133 C   0  0  0  0  0  0  0  0  0  0  0  0 
    4.3200    3.1590   -2.3013 C   0  0  0  0  0  0  0  0  0  0  0  0 
    5.6558    3.5602   -1.6343 C   0  0  0  0  0  0  0  0  0  0  0  0 
    5.8137    3.0963   -0.1765 C   0  0  0  0  0  0  0  0  0  0  0  0 
    7.1049    3.5717    0.5111 C   0  0  0  0  0  0  0  0  0  0  0  0 
    8.4021    2.9991   -0.0788 C   0  0  0  0  0  0  0  0  0  0  0  0 
    9.6537    3.4490    0.6896 C   0  0  0  0  0  0  0  0  0  0  0  0 
   10.9858    2.9568    0.0964 C   0  0  0  0  0  0  0  0  0  0  0  0 
   11.2393    1.4382    0.1272 C   0  0  0  0  0  0  0  0  0  0  0  0 
   11.4291    0.8349    1.5352 C   0  0  0  0  0  0  0  0  0  0  0  0 
   10.1480    0.6224    2.3105 C   0  0  0  0  0  0  0  0  0  0  0  0 
    9.9750    0.9266    3.4703 O   0  0  0  0  0  0  0  0  0  0  0  0 
    1.1027    5.6834    0.1881 H   0  0  0  0  0  0  0  0  0  0  0  0 
    0.6164    5.0185   -1.3794 H   0  0  0  0  0  0  0  0  0  0  0  0 
    1.7016    6.4141   -1.3090 H   0  0  0  0  0  0  0  0  0  0  0  0 
    2.3931    3.5863   -0.2912 H   0  0  0  0  0  0  0  0  0  0  0  0 
    3.4635    4.9778   -0.2103 H   0  0  0  0  0  0  0  0  0  0  0  0 
    3.5114    5.1250   -2.6963 H   0  0  0  0  0  0  0  0  0  0  0  0 
    2.3393    3.8245   -2.8173 H   0  0  0  0  0  0  0  0  0  0  0  0 
    4.5019    2.9674   -3.3671 H   0  0  0  0  0  0  0  0  0  0  0  0 
    3.9769    2.2016   -1.8818 H   0  0  0  0  0  0  0  0  0  0  0  0 
    5.7761    4.6533   -1.6855 H   0  0  0  0  0  0  0  0  0  0  0  0 
    6.4816    3.1434   -2.2249 H   0  0  0  0  0  0  0  0  0  0  0  0 
    5.7732    1.9969   -0.1478 H   0  0  0  0  0  0  0  0  0  0  0  0 
    4.9575    3.4426    0.4146 H   0  0  0  0  0  0  0  0  0  0  0  0 
    7.0560    3.3018    1.5755 H   0  0  0  0  0  0  0  0  0  0  0  0 
    7.1487    4.6709    0.4805 H   0  0  0  0  0  0  0  0  0  0  0  0 
    8.5047    3.3006   -1.1307 H   0  0  0  0  0  0  0  0  0  0  0  0 
    8.3337    1.9013   -0.0833 H   0  0  0  0  0  0  0  0  0  0  0  0 
    9.5700    3.1416    1.7407 H   0  0  0  0  0  0  0  0  0  0  0  0 
    9.6766    4.5478    0.7061 H   0  0  0  0  0  0  0  0  0  0  0  0 
   11.8122    3.4534    0.6241 H   0  0  0  0  0  0  0  0  0  0  0  0 
   11.0498    3.2917   -0.9486 H   0  0  0  0  0  0  0  0  0  0  0  0 
   12.1491    1.2333   -0.4501 H   0  0  0  0  0  0  0  0  0  0  0  0 
   10.4318    0.9030   -0.3916 H   0  0  0  0  0  0  0  0  0  0  0  0 
   12.1142    1.4316    2.1477 H   0  0  0  0  0  0  0  0  0  0  0  0 
   11.8758   -0.1664    1.4238 H   0  0  0  0  0  0  0  0  0  0  0  0 
    9.3372    0.1195    1.7309 H   0  0  0  0  0  0  0  0  0  0  0  0 
  1  2  1  0  0  0  0 
  1 15  1  0  0  0  0 
  2 18  1  0  0  0  0 
  2 19  1  0  0  0  0 
  3  2  1  0  0  0  0 
  4  3  1  0  0  0  0 
  4 23  1  0  0  0  0 
  4  5  1  0  0  0  0 
  5  6  1  0  0  0  0 
  6 26  1  0  0  0  0 
  6 27  1  0  0  0  0 
  6  7  1  0  0  0  0 
  7 28  1  0  0  0  0 
  8  7  1  0  0  0  0 
  8  9  1  0  0  0  0 
  9 33  1  0  0  0  0 
  9 32  1  0  0  0  0 
 10 11  1  0  0  0  0 
 10 34  1  0  0  0  0 
 10  9  1  0  0  0  0 
 11 12  1  0  0  0  0 
 12 38  1  0  0  0  0 
 12 13  1  0  0  0  0 
 13 14  2  0  0  0  0 
 16  1  1  0  0  0  0 
 17  1  1  0  0  0  0 
 20  3  1  0  0  0  0 
 21  3  1  0  0  0  0 
 22  4  1  0  0  0  0 
 24  5  1  0  0  0  0 
 25  5  1  0  0  0  0 
 29  7  1  0  0  0  0 
 30  8  1  0  0  0  0 
 31  8  1  0  0  0  0 
 35 10  1  0  0  0  0 
 36 11  1  0  0  0  0 
 37 11  1  0  0  0  0 
 39 12  1  0  0  0  0 
 40 13  1  0  0  0  0 
M  END 
>  <HBA> 
1 
 
>  <HBD> 
0 
 
>  <TPSA> 
17.07 
 
>  <cid> 
25311 
 
>  <dipole> 
2.68 
 
>  <excitation_energy_1> 
4.241 
 
>  <excitation_energy_2> 
6.417 
 
>  <excitation_energy_3> 
6.631 
 
>  <excitation_energy_4> 
6.665 
 
>  <homo_energy> 
-6.787 
 
>  <homo_lumo_gap> 
6.204 
 
>  <logP> 
4.496 
 
>  <lumo_energy> 
-0.582 
 
>  <melting_point> 
0.51 
 
>  <molecular_refractivity> 
64.81 
 
>  <oscillator_strength_1> 
0.0001 
 
>  <oscillator_strength_2> 
0.0073 
 
>  <oscillator_strength_3> 
0.0009 
 
>  <oscillator_strength_4> 
0.023 
 
>  <open_babel_can_smiles> 
CCCCCCCCCCCCC=O 
 
>  <mulliken_charges> 
40 
1   -0.442609 
2   -0.246925 
3   -0.247492 
4   -0.261502 
5   -0.254969 
6   -0.263383 
7   -0.257617 
8   -0.257233 
9   -0.272644 
10   -0.255826 
11   -0.277777 
12   -0.333035 
13   0.265827 
14   -0.391642 
15   0.141544 
16   0.140964 
17   0.140866 
18   0.129795 
19   0.137545 
20   0.125821 
21   0.125582 
22   0.12759 
23   0.128359 
24   0.12653 
25   0.131416 
26   0.125233 
27   0.13862 
28   0.135034 
29   0.126695 
30   0.132344 
31   0.124197 
32   0.149742 
33   0.133289 
34   0.133993 
35   0.132503 
36   0.143333 
37   0.141631 
38   0.163988 
39   0.162213 
40   0.098 
 
>  <lowdin_charges> 
40 
1   -0.444738 
2   -0.277678 
3   -0.275583 
4   -0.275963 
5   -0.279491 
6   -0.277825 
7   -0.271615 
8   -0.276197 
9   -0.280438 
10   -0.275909 
11   -0.278699 
12   -0.310478 
13   0.050855 
14   -0.220776 
15   0.148436 
16   0.146689 
17   0.145973 
18   0.138523 
19   0.141978 
20   0.136484 
21   0.139737 
22   0.140924 
23   0.138652 
24   0.135203 
25   0.141835 
26   0.133916 
27   0.145509 
28   0.142409 
29   0.135099 
30   0.137241 
31   0.131205 
32   0.146475 
33   0.142273 
34   0.144547 
35   0.141592 
36   0.15122 
37   0.144904 
38   0.162856 
39   0.168026 
40   0.112827 
 
$$$$ 
 
