PCCDB-ID:  61645 
public computational chemistry database (PCCDB) project, http://pccdb.org 
 
 17 16  0  0  0  0  0  0  0  0999 V2000 
    0.7522    0.1462   -0.7577 C   0  0  0  0  0  0  0  0  0  0  0  0 
   -0.4913    1.3535    0.9981 C   0  0  0  0  0  0  0  0  0  0  0  0 
    3.1571    0.3685   -0.2561 C   0  0  0  0  0  0  0  0  0  0  0  0 
   -1.0196    0.3965    1.6600 N   0  0  0  0  0  0  0  0  0  0  0  0 
    3.5496    1.1664   -1.1740 N   0  0  0  0  0  0  0  0  0  0  0  0 
    0.1523    1.3574   -0.2292 N   0  0  0  0  0  0  0  0  0  0  0  0 
    1.9630   -0.3180   -0.1050 N   0  0  0  0  0  0  0  0  0  0  0  0 
   -0.5474    2.6183    1.4863 O   0  0  0  0  0  0  0  0  0  0  0  0 
    3.9933    0.0591    0.7668 O   0  0  0  0  0  0  0  0  0  0  0  0 
    0.9679    0.3119   -1.8155 H   0  0  0  0  0  0  0  0  0  0  0  0 
    0.0150   -0.6583   -0.7095 H   0  0  0  0  0  0  0  0  0  0  0  0 
   -0.9460   -0.5033    1.1888 H   0  0  0  0  0  0  0  0  0  0  0  0 
    2.8562    1.3033   -1.9072 H   0  0  0  0  0  0  0  0  0  0  0  0 
    0.6698    2.2114   -0.4044 H   0  0  0  0  0  0  0  0  0  0  0  0 
    1.8375   -0.7009    0.8251 H   0  0  0  0  0  0  0  0  0  0  0  0 
   -1.0560    2.5488    2.3136 H   0  0  0  0  0  0  0  0  0  0  0  0 
    4.8233    0.5270    0.5666 H   0  0  0  0  0  0  0  0  0  0  0  0 
  1 11  1  0  0  0  0 
  1  6  1  0  0  0  0 
  1  7  1  0  0  0  0 
  2  8  1  0  0  0  0 
  2  4  2  0  0  0  0 
  3  7  1  0  0  0  0 
  3  9  1  0  0  0  0 
  5  3  2  0  0  0  0 
  6  2  1  0  0  0  0 
  7 15  1  0  0  0  0 
  8 16  1  0  0  0  0 
 10  1  1  0  0  0  0 
 12  4  1  0  0  0  0 
 13  5  1  0  0  0  0 
 14  6  1  0  0  0  0 
 17  9  1  0  0  0  0 
M  END 
>  <HBA> 
6 
 
>  <HBD> 
4 
 
>  <TPSA> 
110.24 
 
>  <cid> 
61645 
 
>  <dipole> 
0.96 
 
>  <excitation_energy_1> 
5.775 
 
>  <excitation_energy_2> 
6.024 
 
>  <excitation_energy_3> 
6.251 
 
>  <excitation_energy_4> 
6.422 
 
>  <homo_energy> 
-6.615 
 
>  <homo_lumo_gap> 
7.592 
 
>  <logP> 
0.463 
 
>  <lumo_energy> 
0.977 
 
>  <melting_point> 
201.73 
 
>  <molecular_refractivity> 
28.73 
 
>  <oscillator_strength_1> 
0.0008 
 
>  <oscillator_strength_2> 
0.002 
 
>  <oscillator_strength_3> 
0.0133 
 
>  <oscillator_strength_4> 
0.0585 
 
>  <open_babel_can_smiles> 
OC(=N)NCNC(=N)O 
 
>  <mulliken_charges> 
17 
1   -0.072452 
2   0.63544 
3   0.635596 
4   -0.654505 
5   -0.654643 
6   -0.567888 
7   -0.568353 
8   -0.598501 
9   -0.598461 
10   0.176402 
11   0.17621 
12   0.278852 
13   0.278959 
14   0.342964 
15   0.342936 
16   0.423709 
17   0.423733 
 
>  <lowdin_charges> 
17 
1   -0.138039 
2   0.164942 
3   0.163926 
4   -0.490308 
5   -0.491277 
6   -0.30934 
7   -0.307859 
8   -0.375181 
9   -0.374386 
10   0.160926 
11   0.16375 
12   0.254818 
13   0.255444 
14   0.291617 
15   0.290349 
16   0.37018 
17   0.370441 
 
$$$$ 
 
