PCCDB-ID:  6826 
public computational chemistry database (PCCDB) project, http://pccdb.org 
 
 23 23  0  0  0  0  0  0  0  0999 V2000 
    1.9797    1.1957    0.0618 C   0  0  0  0  0  0  0  0  0  0  0  0 
    2.7469   -5.2923    0.2519 C   0  0  0  0  0  0  0  0  0  0  0  0 
    4.9332   -1.3385    3.4451 C   0  0  0  0  0  0  0  0  0  0  0  0 
    4.6285    0.0119    3.2260 C   0  0  0  0  0  0  0  0  0  0  0  0 
    4.3630   -2.2924    2.6168 C   0  0  0  0  0  0  0  0  0  0  0  0 
    3.7759    0.3980    2.2042 C   0  0  0  0  0  0  0  0  0  0  0  0 
    3.4920   -1.9409    1.5688 C   0  0  0  0  0  0  0  0  0  0  0  0 
    3.1811   -0.5591    1.3447 C   0  0  0  0  0  0  0  0  0  0  0  0 
    2.9033   -2.9850    0.7150 C   0  0  0  0  0  0  0  0  0  0  0  0 
    2.3455   -0.1732    0.3404 N   0  0  0  0  0  0  0  0  0  0  0  0 
    2.1323   -2.7951   -0.2235 O   0  0  0  0  0  0  0  0  0  0  0  0 
    3.2926   -4.2376    1.0546 O   0  0  0  0  0  0  0  0  0  0  0  0 
    1.2934    1.2025   -0.7880 H   0  0  0  0  0  0  0  0  0  0  0  0 
    2.8511    1.8135   -0.1987 H   0  0  0  0  0  0  0  0  0  0  0  0 
    1.4706    1.6708    0.9130 H   0  0  0  0  0  0  0  0  0  0  0  0 
    3.1641   -6.2133    0.6608 H   0  0  0  0  0  0  0  0  0  0  0  0 
    3.0364   -5.1720   -0.7956 H   0  0  0  0  0  0  0  0  0  0  0  0 
    1.6554   -5.3039    0.3169 H   0  0  0  0  0  0  0  0  0  0  0  0 
    5.6026   -1.6335    4.2470 H   0  0  0  0  0  0  0  0  0  0  0  0 
    5.0644    0.7762    3.8650 H   0  0  0  0  0  0  0  0  0  0  0  0 
    4.5831   -3.3432    2.7651 H   0  0  0  0  0  0  0  0  0  0  0  0 
    3.5578    1.4500    2.0587 H   0  0  0  0  0  0  0  0  0  0  0  0 
    1.9620   -0.9258   -0.2202 H   0  0  0  0  0  0  0  0  0  0  0  0 
  1 10  1  0  0  0  0 
  1 15  1  0  0  0  0 
  2 18  1  0  0  0  0 
  2 16  1  0  0  0  0 
  2 12  1  0  0  0  0 
  3 19  1  0  0  0  0 
  4  3  1  0  0  0  0 
  4 20  1  0  0  0  0 
  5 21  1  0  0  0  0 
  5  3  2  0  0  0  0 
  6  4  2  0  0  0  0 
  7  5  1  0  0  0  0 
  8  7  2  0  0  0  0 
  8  6  1  0  0  0  0 
  9 12  1  0  0  0  0 
  9  7  1  0  0  0  0 
 10  8  1  0  0  0  0 
 11  9  2  0  0  0  0 
 13  1  1  0  0  0  0 
 14  1  1  0  0  0  0 
 17  2  1  0  0  0  0 
 22  6  1  0  0  0  0 
 23 10  1  0  0  0  0 
M  END 
>  <HBA> 
3 
 
>  <HBD> 
1 
 
>  <TPSA> 
38.33 
 
>  <cid> 
6826 
 
>  <dipole> 
0.39 
 
>  <excitation_energy_1> 
3.692 
 
>  <excitation_energy_2> 
4.893 
 
>  <excitation_energy_3> 
5.062 
 
>  <excitation_energy_4> 
5.122 
 
>  <homo_energy> 
-5.252 
 
>  <homo_lumo_gap> 
4.308 
 
>  <logP> 
1.588 
 
>  <lumo_energy> 
-0.944 
 
>  <melting_point> 
64.82 
 
>  <molecular_refractivity> 
47.03 
 
>  <oscillator_strength_1> 
0.1342 
 
>  <oscillator_strength_2> 
0.002 
 
>  <oscillator_strength_3> 
0.0 
 
>  <oscillator_strength_4> 
0.0639 
 
>  <open_babel_can_smiles> 
COC(=O)c1ccccc1NC 
 
>  <mulliken_charges> 
23 
1   -0.297871 
2   -0.211623 
3   -0.145404 
4   -0.125244 
5   -0.177023 
6   -0.196565 
7   0.001785 
8   0.342596 
9   0.61395 
10   -0.67416 
11   -0.542064 
12   -0.468912 
13   0.162233 
14   0.157164 
15   0.156894 
16   0.16226 
17   0.168413 
18   0.168287 
19   0.123876 
20   0.129355 
21   0.153217 
22   0.127977 
23   0.370857 
 
>  <lowdin_charges> 
23 
1   -0.352071 
2   -0.273781 
3   -0.199545 
4   -0.127726 
5   -0.124922 
6   -0.215605 
7   -0.099459 
8   0.087072 
9   0.204701 
10   -0.280038 
11   -0.307095 
12   -0.191224 
13   0.163055 
14   0.148103 
15   0.148045 
16   0.159351 
17   0.156776 
18   0.155957 
19   0.157389 
20   0.159243 
21   0.169441 
22   0.159241 
23   0.303092 
 
$$$$ 
 
