PCCDB-ID:  36917 
public computational chemistry database (PCCDB) project, http://pccdb.org 
 
 16 16  0  0  0  0  0  0  0  0999 V2000 
    0.8633    1.3065    1.1021 C   0  0  0  0  0  0  0  0  0  0  0  0 
    0.8637    2.0818    2.2324 C   0  0  0  0  0  0  0  0  0  0  0  0 
    1.9088    0.4915    0.6043 C   0  0  0  0  0  0  0  0  0  0  0  0 
    1.9097    2.2526    3.1714 C   0  0  0  0  0  0  0  0  0  0  0  0 
    3.1735    0.2517    1.0906 C   0  0  0  0  0  0  0  0  0  0  0  0 
    3.1745    1.7126    3.2191 C   0  0  0  0  0  0  0  0  0  0  0  0 
    3.8569    0.7727    2.2983 C   0  0  0  0  0  0  0  0  0  0  0  0 
    4.0073   -0.5848    0.4226 O   0  0  0  0  0  0  0  0  0  0  0  0 
    4.0092    2.0352    4.2391 O   0  0  0  0  0  0  0  0  0  0  0  0 
    5.0073    0.4189    2.5406 O   0  0  0  0  0  0  0  0  0  0  0  0 
   -0.0451    1.3089    0.5050 H   0  0  0  0  0  0  0  0  0  0  0  0 
   -0.0445    2.6398    2.4457 H   0  0  0  0  0  0  0  0  0  0  0  0 
    1.6677   -0.0359   -0.3207 H   0  0  0  0  0  0  0  0  0  0  0  0 
    1.6694    2.9258    3.9966 H   0  0  0  0  0  0  0  0  0  0  0  0 
    3.5518   -0.9207   -0.3663 H   0  0  0  0  0  0  0  0  0  0  0  0 
    3.5542    2.6508    4.8362 H   0  0  0  0  0  0  0  0  0  0  0  0 
  1  2  2  0  0  0  0 
  2 12  1  0  0  0  0 
  2  4  1  0  0  0  0 
  3  5  2  0  0  0  0 
  3  1  1  0  0  0  0 
  4  6  2  0  0  0  0 
  4 14  1  0  0  0  0 
  5  7  1  0  0  0  0 
  6  9  1  0  0  0  0 
  7 10  2  0  0  0  0 
  7  6  1  0  0  0  0 
  8  5  1  0  0  0  0 
  9 16  1  0  0  0  0 
 11  1  1  0  0  0  0 
 13  3  1  0  0  0  0 
 15  8  1  0  0  0  0 
M  END 
>  <HBA> 
3 
 
>  <HBD> 
2 
 
>  <TPSA> 
57.53 
 
>  <cid> 
36917 
 
>  <dipole> 
5.37 
 
>  <excitation_energy_1> 
3.687 
 
>  <excitation_energy_2> 
3.869 
 
>  <excitation_energy_3> 
3.935 
 
>  <excitation_energy_4> 
3.988 
 
>  <homo_energy> 
-5.592 
 
>  <homo_lumo_gap> 
4.114 
 
>  <logP> 
0.458 
 
>  <lumo_energy> 
-1.478 
 
>  <melting_point> 
119.71 
 
>  <molecular_refractivity> 
36.76 
 
>  <oscillator_strength_1> 
0.0 
 
>  <oscillator_strength_2> 
0.1403 
 
>  <oscillator_strength_3> 
0.1029 
 
>  <oscillator_strength_4> 
0.0001 
 
>  <open_babel_can_smiles> 
O=c1c(O)ccccc1O 
 
>  <mulliken_charges> 
16 
1   -0.123094 
2   -0.123094 
3   -0.226622 
4   -0.226702 
5   0.313115 
6   0.313205 
7   0.365449 
8   -0.580774 
9   -0.580828 
10   -0.478257 
11   0.139006 
12   0.138994 
13   0.124908 
14   0.124942 
15   0.409874 
16   0.40988 
 
>  <lowdin_charges> 
16 
1   -0.156735 
2   -0.156754 
3   -0.206604 
4   -0.206839 
5   0.090339 
6   0.090454 
7   0.097736 
8   -0.331905 
9   -0.33315 
10   -0.247927 
11   0.165188 
12   0.165187 
13   0.156999 
14   0.157544 
15   0.357795 
16   0.358673 
 
$$$$ 
 
