PCCDB-ID:  13208 
public computational chemistry database (PCCDB) project, http://pccdb.org 
 
 18 18  0  0  0  0  0  0  0  0999 V2000 
    1.0098   -0.1204   -0.0090 C   0  0  0  0  0  0  0  0  0  0  0  0 
    5.2853   -2.4665   -0.0034 C   0  0  0  0  0  0  0  0  0  0  0  0 
    5.1795    2.3915   -0.0123 C   0  0  0  0  0  0  0  0  0  0  0  0 
    2.5123   -0.0978   -0.0086 C   0  0  0  0  0  0  0  0  0  0  0  0 
    4.4994   -1.1853   -0.0069 C   0  0  0  0  0  0  0  0  0  0  0  0 
    4.4476    1.0788   -0.0101 C   0  0  0  0  0  0  0  0  0  0  0  0 
    3.1591   -1.2714   -0.0075 N   0  0  0  0  0  0  0  0  0  0  0  0 
    3.1085    1.1053   -0.0097 N   0  0  0  0  0  0  0  0  0  0  0  0 
    5.1910   -0.0386   -0.0085 N   0  0  0  0  0  0  0  0  0  0  0  0 
    0.6436   -1.1482   -0.0002 H   0  0  0  0  0  0  0  0  0  0  0  0 
    0.6269    0.3998   -0.8941 H   0  0  0  0  0  0  0  0  0  0  0  0 
    0.6259    0.4163    0.8657 H   0  0  0  0  0  0  0  0  0  0  0  0 
    4.6137   -3.3265   -0.0077 H   0  0  0  0  0  0  0  0  0  0  0  0 
    5.9313   -2.5081    0.8807 H   0  0  0  0  0  0  0  0  0  0  0  0 
    5.9422   -2.5067   -0.8793 H   0  0  0  0  0  0  0  0  0  0  0  0 
    4.4727    3.2228   -0.0142 H   0  0  0  0  0  0  0  0  0  0  0  0 
    5.8293    2.4578   -0.8921 H   0  0  0  0  0  0  0  0  0  0  0  0 
    5.8285    2.4611    0.8679 H   0  0  0  0  0  0  0  0  0  0  0  0 
  1  4  1  0  0  0  0 
  1 10  1  0  0  0  0 
  1 12  1  0  0  0  0 
  2 14  1  0  0  0  0 
  3  6  1  0  0  0  0 
  3 18  1  0  0  0  0 
  4  7  2  0  0  0  0 
  5  2  1  0  0  0  0 
  6  8  2  0  0  0  0 
  6  9  1  0  0  0  0 
  7  5  2  0  0  0  0 
  8  4  1  0  0  0  0 
  9  5  1  0  0  0  0 
 11  1  1  0  0  0  0 
 13  2  1  0  0  0  0 
 15  2  1  0  0  0  0 
 16  3  1  0  0  0  0 
 17  3  1  0  0  0  0 
M  RAD  1   9   2 
M  END 
>  <HBA> 
3 
 
>  <HBD> 
0 
 
>  <TPSA> 
38.67 
 
>  <cid> 
13208 
 
>  <dipole> 
0.1 
 
>  <excitation_energy_1> 
4.556 
 
>  <excitation_energy_2> 
4.634 
 
>  <excitation_energy_3> 
4.749 
 
>  <excitation_energy_4> 
4.795 
 
>  <homo_energy> 
-7.01 
 
>  <homo_lumo_gap> 
5.957 
 
>  <logP> 
0.797 
 
>  <lumo_energy> 
-1.053 
 
>  <melting_point> 
63.35 
 
>  <molecular_refractivity> 
34.73 
 
>  <oscillator_strength_1> 
0.0 
 
>  <oscillator_strength_2> 
0.0056 
 
>  <oscillator_strength_3> 
0.0001 
 
>  <oscillator_strength_4> 
0.0069 
 
>  <open_babel_can_smiles> 
CC1=NC(=[N]=C([N]1)C)C 
 
>  <mulliken_charges> 
18 
1   -0.505038 
2   -0.505101 
3   -0.504772 
4   0.428858 
5   0.426236 
6   0.423331 
7   -0.453878 
8   -0.450756 
9   -0.448437 
10   0.175529 
11   0.177459 
12   0.177396 
13   0.175503 
14   0.177276 
15   0.17722 
16   0.175046 
17   0.177056 
18   0.177072 
 
>  <lowdin_charges> 
18 
1   -0.44795 
2   -0.448079 
3   -0.448264 
4   0.119871 
5   0.119066 
6   0.118217 
7   -0.191499 
8   -0.191148 
9   -0.190934 
10   0.169263 
11   0.175405 
12   0.175401 
13   0.170491 
14   0.175005 
15   0.174977 
16   0.170413 
17   0.174877 
18   0.174888 
 
$$$$ 
 
