PCCDB-ID:  23719 
public computational chemistry database (PCCDB) project, http://pccdb.org 
 
 15 15  0  0  0  0  0  0  0  0999 V2000 
    2.4332   -1.0520    0.9975 C   0  0  0  0  0  0  0  0  0  0  0  0 
    3.9936    0.2283   -3.3423 C   0  0  0  0  0  0  0  0  0  0  0  0 
    3.5328    0.5796   -2.0810 C   0  0  0  0  0  0  0  0  0  0  0  0 
    4.1165   -1.1279   -3.6629 C   0  0  0  0  0  0  0  0  0  0  0  0 
    3.3642   -1.7695   -1.5917 C   0  0  0  0  0  0  0  0  0  0  0  0 
    3.2078   -0.4395   -1.1766 C   0  0  0  0  0  0  0  0  0  0  0  0 
    3.8095   -2.1072   -2.8095 N   0  0  0  0  0  0  0  0  0  0  0  0 
    2.7603   -0.0462    0.0483 O   0  0  0  0  0  0  0  0  0  0  0  0 
    2.1149   -0.5210    1.8962 H   0  0  0  0  0  0  0  0  0  0  0  0 
    3.3019   -1.6798    1.2345 H   0  0  0  0  0  0  0  0  0  0  0  0 
    1.6133   -1.6896    0.6424 H   0  0  0  0  0  0  0  0  0  0  0  0 
    4.2561    0.9916   -4.0692 H   0  0  0  0  0  0  0  0  0  0  0  0 
    3.4175    1.6149   -1.7745 H   0  0  0  0  0  0  0  0  0  0  0  0 
    4.4749   -1.4366   -4.6430 H   0  0  0  0  0  0  0  0  0  0  0  0 
    3.1274   -2.5968   -0.9283 H   0  0  0  0  0  0  0  0  0  0  0  0 
  1 10  1  0  0  0  0 
  1  9  1  0  0  0  0 
  2  3  1  0  0  0  0 
  3 13  1  0  0  0  0 
  3  6  2  0  0  0  0 
  4  2  2  0  0  0  0 
  4  7  1  0  0  0  0 
  5  6  1  0  0  0  0 
  5 15  1  0  0  0  0 
  6  8  1  0  0  0  0 
  7  5  2  0  0  0  0 
  8  1  1  0  0  0  0 
 11  1  1  0  0  0  0 
 12  2  1  0  0  0  0 
 14  4  1  0  0  0  0 
M  END 
>  <HBA> 
2 
 
>  <HBD> 
0 
 
>  <TPSA> 
22.12 
 
>  <cid> 
23719 
 
>  <dipole> 
1.79 
 
>  <excitation_energy_1> 
4.841 
 
>  <excitation_energy_2> 
4.977 
 
>  <excitation_energy_3> 
5.495 
 
>  <excitation_energy_4> 
5.877 
 
>  <homo_energy> 
-6.275 
 
>  <homo_lumo_gap> 
5.736 
 
>  <logP> 
1.09 
 
>  <lumo_energy> 
-0.539 
 
>  <melting_point> 
23.93 
 
>  <molecular_refractivity> 
30.73 
 
>  <oscillator_strength_1> 
0.0037 
 
>  <oscillator_strength_2> 
0.0713 
 
>  <oscillator_strength_3> 
0.0001 
 
>  <oscillator_strength_4> 
0.0814 
 
>  <open_babel_can_smiles> 
COc1cccnc1 
 
>  <mulliken_charges> 
15 
1   -0.218763 
2   -0.140007 
3   -0.143943 
4   0.028622 
5   -0.025763 
6   0.366053 
7   -0.412402 
8   -0.507698 
9   0.172677 
10   0.15717 
11   0.15717 
12   0.137612 
13   0.150472 
14   0.138333 
15   0.140467 
 
>  <lowdin_charges> 
15 
1   -0.27966 
2   -0.167524 
3   -0.154738 
4   -0.109371 
5   -0.149992 
6   0.083948 
7   -0.139948 
8   -0.196828 
9   0.164988 
10   0.148972 
11   0.148929 
12   0.165758 
13   0.17009 
14   0.154977 
15   0.160398 
 
$$$$ 
 
