PCCDB-ID:  10581 
public computational chemistry database (PCCDB) project, http://pccdb.org 
 
 26 26  0  0  1  0  0  0  0  0999 V2000 
    0.9144   -0.2760   -0.7133 C   0  0  0  0  0  0  0  0  0  0  0  0 
    2.2269    2.3385   -0.4796 C   0  0  0  0  0  0  0  0  0  0  0  0 
    4.8866    1.3801   -1.5836 C   0  0  0  0  0  0  0  0  0  0  0  0 
    5.1259    2.3470    0.7292 C   0  0  0  0  0  0  0  0  0  0  0  0 
    4.4811   -1.2825    0.3016 C   0  0  0  0  0  0  0  0  0  0  0  0 
    3.0970   -1.3307   -0.1596 C   0  0  0  0  0  0  0  0  0  0  0  0 
    5.1433   -0.1178    0.3665 C   0  0  0  0  0  0  0  0  0  0  0  0 
    2.3577   -0.2119   -0.2889 C   0  0  0  0  0  0  0  0  0  0  0  0 
    2.9664    1.1322    0.1286 C   0  0  1  0  0  0  0  0  0  0  0  0 
    4.5170    1.1909   -0.0908 C   0  0  0  0  0  0  0  0  0  0  0  0 
    0.6166   -1.3081   -0.9243 H   0  0  0  0  0  0  0  0  0  0  0  0 
    0.7189    0.3215   -1.6130 H   0  0  0  0  0  0  0  0  0  0  0  0 
    0.2446    0.1118    0.0678 H   0  0  0  0  0  0  0  0  0  0  0  0 
    1.1799    2.3583   -0.1614 H   0  0  0  0  0  0  0  0  0  0  0  0 
    2.2381    2.3173   -1.5746 H   0  0  0  0  0  0  0  0  0  0  0  0 
    2.6774    3.2827   -0.1598 H   0  0  0  0  0  0  0  0  0  0  0  0 
    5.9734    1.3202   -1.7140 H   0  0  0  0  0  0  0  0  0  0  0  0 
    4.5630    2.3566   -1.9624 H   0  0  0  0  0  0  0  0  0  0  0  0 
    4.4311    0.5992   -2.2017 H   0  0  0  0  0  0  0  0  0  0  0  0 
    6.2189    2.3458    0.6370 H   0  0  0  0  0  0  0  0  0  0  0  0 
    4.8818    2.2495    1.7938 H   0  0  0  0  0  0  0  0  0  0  0  0 
    4.7726    3.3253    0.3860 H   0  0  0  0  0  0  0  0  0  0  0  0 
    4.9726   -2.2154    0.5698 H   0  0  0  0  0  0  0  0  0  0  0  0 
    2.6580   -2.3022   -0.3793 H   0  0  0  0  0  0  0  0  0  0  0  0 
    6.1889   -0.0893    0.6703 H   0  0  0  0  0  0  0  0  0  0  0  0 
    2.8212    1.1889    1.2235 H   0  0  0  0  0  0  0  0  0  0  0  0 
  1  8  1  0  0  0  0 
  1 13  1  0  0  0  0 
  2 14  1  0  0  0  0 
  2 16  1  0  0  0  0 
  2  9  1  0  0  0  0 
  3 10  1  0  0  0  0 
  4 21  1  0  0  0  0 
  5  7  2  0  0  0  0 
  5 23  1  0  0  0  0 
  6  5  1  0  0  0  0 
  7 25  1  0  0  0  0 
  8  6  2  0  0  0  0 
  8  9  1  0  0  0  0 
  9 26  1  1  0  0  0 
 10  9  1  0  0  0  0 
 10  7  1  0  0  0  0 
 10  4  1  0  0  0  0 
 11  1  1  0  0  0  0 
 12  1  1  0  0  0  0 
 15  2  1  0  0  0  0 
 17  3  1  0  0  0  0 
 18  3  1  0  0  0  0 
 19  3  1  0  0  0  0 
 20  4  1  0  0  0  0 
 22  4  1  0  0  0  0 
 24  6  1  0  0  0  0 
M  END 
>  <HBA> 
0 
 
>  <HBD> 
0 
 
>  <TPSA> 
0.0 
 
>  <cid> 
10581 
 
>  <dipole> 
0.5 
 
>  <excitation_energy_1> 
4.465 
 
>  <excitation_energy_2> 
5.006 
 
>  <excitation_energy_3> 
5.335 
 
>  <excitation_energy_4> 
5.459 
 
>  <homo_energy> 
-5.388 
 
>  <homo_lumo_gap> 
5.012 
 
>  <logP> 
3.165 
 
>  <lumo_energy> 
-0.376 
 
>  <melting_point> 
35.05 
 
>  <molecular_refractivity> 
46.86 
 
>  <oscillator_strength_1> 
0.1357 
 
>  <oscillator_strength_2> 
0.0189 
 
>  <oscillator_strength_3> 
0.0088 
 
>  <oscillator_strength_4> 
0.0072 
 
>  <open_babel_can_smiles> 
CC1=CC=CC([C@H]1C)(C)C 
 
>  <mulliken_charges> 
26 
1   -0.52625 
2   -0.469855 
3   -0.448729 
4   -0.462044 
5   -0.118964 
6   -0.190003 
7   -0.129676 
8   0.171737 
9   -0.141629 
10   0.068683 
11   0.152474 
12   0.15607 
13   0.153758 
14   0.146033 
15   0.150262 
16   0.146936 
17   0.138622 
18   0.138866 
19   0.153698 
20   0.139119 
21   0.143436 
22   0.142094 
23   0.119992 
24   0.113815 
25   0.11659 
26   0.134963 
 
>  <lowdin_charges> 
26 
1   -0.440489 
2   -0.444986 
3   -0.443131 
4   -0.438534 
5   -0.171638 
6   -0.194164 
7   -0.1626 
8   -0.002678 
9   -0.120018 
10   0.01375 
11   0.155242 
12   0.156633 
13   0.155234 
14   0.150727 
15   0.148028 
16   0.151433 
17   0.147498 
18   0.145759 
19   0.156323 
20   0.145823 
21   0.146973 
22   0.146707 
23   0.15384 
24   0.149616 
25   0.149282 
26   0.145369 
 
$$$$ 
 
