PCCDB-ID:  16944 
public computational chemistry database (PCCDB) project, http://pccdb.org 
 
 28 27  0  0  0  0  0  0  0  0999 V2000 
    4.6676    1.6338   -0.5921 C   0  0  0  0  0  0  0  0  0  0  0  0 
    9.4302   -0.2722    0.3715 C   0  0  0  0  0  0  0  0  0  0  0  0 
    4.1843    0.4534   -1.4451 C   0  0  0  0  0  0  0  0  0  0  0  0 
    9.7270   -1.4078    1.3545 C   0  0  0  0  0  0  0  0  0  0  0  0 
    4.7912   -0.9062   -1.0581 C   0  0  0  0  0  0  0  0  0  0  0  0 
    9.1267   -2.7673    0.9292 C   0  0  0  0  0  0  0  0  0  0  0  0 
    4.3853   -1.4078    0.3329 C   0  0  0  0  0  0  0  0  0  0  0  0 
    7.6632   -2.7728    0.8461 C   0  0  0  0  0  0  0  0  0  0  0  0 
    4.9901   -2.7836    0.6941 C   0  0  0  0  0  0  0  0  0  0  0  0 
    6.4538   -2.7825    0.7799 C   0  0  0  0  0  0  0  0  0  0  0  0 
    4.2241    2.5746   -0.9376 H   0  0  0  0  0  0  0  0  0  0  0  0 
    5.7583    1.7392   -0.6468 H   0  0  0  0  0  0  0  0  0  0  0  0 
    4.4000    1.5125    0.4636 H   0  0  0  0  0  0  0  0  0  0  0  0 
    9.8843    0.6675    0.7061 H   0  0  0  0  0  0  0  0  0  0  0  0 
    8.3510   -0.1122    0.2740 H   0  0  0  0  0  0  0  0  0  0  0  0 
    9.8269   -0.4996   -0.6263 H   0  0  0  0  0  0  0  0  0  0  0  0 
    4.4274    0.6556   -2.4972 H   0  0  0  0  0  0  0  0  0  0  0  0 
    3.0877    0.3904   -1.3946 H   0  0  0  0  0  0  0  0  0  0  0  0 
    9.3463   -1.1474    2.3504 H   0  0  0  0  0  0  0  0  0  0  0  0 
   10.8125   -1.5384    1.4560 H   0  0  0  0  0  0  0  0  0  0  0  0 
    5.8867   -0.8482   -1.1119 H   0  0  0  0  0  0  0  0  0  0  0  0 
    4.4881   -1.6549   -1.8044 H   0  0  0  0  0  0  0  0  0  0  0  0 
    9.4529   -3.5399    1.6403 H   0  0  0  0  0  0  0  0  0  0  0  0 
    9.5485   -3.0572   -0.0452 H   0  0  0  0  0  0  0  0  0  0  0  0 
    3.2910   -1.4937    0.3887 H   0  0  0  0  0  0  0  0  0  0  0  0 
    4.6852   -0.6839    1.1000 H   0  0  0  0  0  0  0  0  0  0  0  0 
    4.6690   -3.5261   -0.0515 H   0  0  0  0  0  0  0  0  0  0  0  0 
    4.5691   -3.1183    1.6527 H   0  0  0  0  0  0  0  0  0  0  0  0 
  1 13  1  0  0  0  0 
  2 14  1  0  0  0  0 
  2  4  1  0  0  0  0 
  3 18  1  0  0  0  0 
  3  5  1  0  0  0  0 
  3  1  1  0  0  0  0 
  4 20  1  0  0  0  0 
  4 19  1  0  0  0  0 
  5  7  1  0  0  0  0 
  6  4  1  0  0  0  0 
  6 23  1  0  0  0  0 
  7 25  1  0  0  0  0 
  7  9  1  0  0  0  0 
  7 26  1  0  0  0  0 
  8  6  1  0  0  0  0 
  9 10  1  0  0  0  0 
  9 28  1  0  0  0  0 
 10  8  3  0  0  0  0 
 11  1  1  0  0  0  0 
 12  1  1  0  0  0  0 
 15  2  1  0  0  0  0 
 16  2  1  0  0  0  0 
 17  3  1  0  0  0  0 
 21  5  1  0  0  0  0 
 22  5  1  0  0  0  0 
 24  6  1  0  0  0  0 
 27  9  1  0  0  0  0 
M  END 
>  <HBA> 
0 
 
>  <HBD> 
0 
 
>  <TPSA> 
0.0 
 
>  <cid> 
16944 
 
>  <dipole> 
0.13 
 
>  <excitation_energy_1> 
6.01 
 
>  <excitation_energy_2> 
6.077 
 
>  <excitation_energy_3> 
6.16 
 
>  <excitation_energy_4> 
6.222 
 
>  <homo_energy> 
-6.479 
 
>  <homo_lumo_gap> 
8.003 
 
>  <logP> 
3.37 
 
>  <lumo_energy> 
1.524 
 
>  <melting_point> 
-11.87 
 
>  <molecular_refractivity> 
48.35 
 
>  <oscillator_strength_1> 
0.0003 
 
>  <oscillator_strength_2> 
0.0021 
 
>  <oscillator_strength_3> 
0.0116 
 
>  <oscillator_strength_4> 
0.0618 
 
>  <open_babel_can_smiles> 
CCCCCC#CCCC 
 
>  <mulliken_charges> 
28 
1   -0.444603 
2   -0.445743 
3   -0.249765 
4   -0.245065 
5   -0.252227 
6   -0.395091 
7   -0.25164 
8   0.043476 
9   -0.4014 
10   0.041756 
11   0.141378 
12   0.143726 
13   0.145351 
14   0.142266 
15   0.161782 
16   0.139562 
17   0.13125 
18   0.128124 
19   0.143361 
20   0.134341 
21   0.14735 
22   0.124443 
23   0.161743 
24   0.160093 
25   0.129896 
26   0.144076 
27   0.160671 
28   0.16089 
 
>  <lowdin_charges> 
28 
1   -0.444224 
2   -0.445278 
3   -0.268976 
4   -0.262647 
5   -0.277576 
6   -0.260967 
7   -0.26866 
8   -0.091355 
9   -0.260331 
10   -0.090514 
11   0.149551 
12   0.14497 
13   0.145329 
14   0.150133 
15   0.153464 
16   0.145389 
17   0.140685 
18   0.135218 
19   0.145802 
20   0.140637 
21   0.145273 
22   0.140243 
23   0.164124 
24   0.15971 
25   0.138641 
26   0.14722 
27   0.16118 
28   0.162958 
 
$$$$ 
 
