PCCDB-ID:  69073 
public computational chemistry database (PCCDB) project, http://pccdb.org 
 
 18 18  0  0  0  0  0  0  0  0999 V2000 
   -0.9154   -0.6148    0.0670 C   0  0  0  0  0  0  0  0  0  0  0  0 
    0.3335   -1.2298    0.0530 C   0  0  0  0  0  0  0  0  0  0  0  0 
   -1.0029    0.7700   -0.0460 C   0  0  0  0  0  0  0  0  0  0  0  0 
    2.7181    1.8043   -0.1142 C   0  0  0  0  0  0  0  0  0  0  0  0 
    1.4444    0.9506   -0.1679 C   0  0  0  0  0  0  0  0  0  0  0  0 
    1.4787   -0.4444   -0.0666 C   0  0  0  0  0  0  0  0  0  0  0  0 
    0.1662    1.5196   -0.1635 C   0  0  0  0  0  0  0  0  0  0  0  0 
    2.7795   -1.1395   -0.1264 N   0  0  0  0  0  0  0  0  0  0  0  0 
    0.0267    2.9797   -0.3276 N   0  0  0  0  0  0  0  0  0  0  0  0 
    3.1543    2.1441    0.9580 O   0  0  0  0  0  0  0  0  0  0  0  0 
    2.8079   -2.3276    0.1769 O   0  0  0  0  0  0  0  0  0  0  0  0 
    3.7495   -0.4815   -0.5016 O   0  0  0  0  0  0  0  0  0  0  0  0 
   -1.0733    3.4774   -0.1116 O   0  0  0  0  0  0  0  0  0  0  0  0 
    1.0242    3.6002   -0.6949 O   0  0  0  0  0  0  0  0  0  0  0  0 
   -1.8163   -1.2124    0.1566 H   0  0  0  0  0  0  0  0  0  0  0  0 
    0.4427   -2.3046    0.1317 H   0  0  0  0  0  0  0  0  0  0  0  0 
   -1.9559    1.2849   -0.0461 H   0  0  0  0  0  0  0  0  0  0  0  0 
    3.1792    2.0679   -1.0778 H   0  0  0  0  0  0  0  0  0  0  0  0 
  1 15  1  0  0  0  0 
  2  1  1  0  0  0  0 
  2 16  1  0  0  0  0 
  3  1  2  0  0  0  0 
  4 10  2  0  0  0  0 
  5  7  2  0  0  0  0 
  5  4  1  0  0  0  0 
  5  6  1  0  0  0  0 
  6  2  2  0  0  0  0 
  7  3  1  0  0  0  0 
  8  6  1  0  0  0  0 
  8 11  2  0  0  0  0 
  9  7  1  0  0  0  0 
  9 13  2  0  0  0  0 
 12  8  2  0  0  0  0 
 14  9  2  0  0  0  0 
 17  3  1  0  0  0  0 
 18  4  1  0  0  0  0 
M  END 
>  <HBA> 
1 
 
>  <HBD> 
0 
 
>  <TPSA> 
108.71 
 
>  <cid> 
69073 
 
>  <dipole> 
5.61 
 
>  <excitation_energy_1> 
3.325 
 
>  <excitation_energy_2> 
3.412 
 
>  <excitation_energy_3> 
3.758 
 
>  <excitation_energy_4> 
3.768 
 
>  <homo_energy> 
-7.483 
 
>  <homo_lumo_gap> 
4.147 
 
>  <logP> 
2.362 
 
>  <lumo_energy> 
-3.336 
 
>  <melting_point> 
116.68 
 
>  <molecular_refractivity> 
49.47 
 
>  <oscillator_strength_1> 
0.0019 
 
>  <oscillator_strength_2> 
0.002 
 
>  <oscillator_strength_3> 
0.0018 
 
>  <oscillator_strength_4> 
0.0048 
 
>  <open_babel_can_smiles> 
O=Cc1c(cccc1N(=O)=O)N(=O)=O 
 
>  <mulliken_charges> 
18 
1   -0.147173 
2   -0.1256 
3   -0.125611 
4   0.234031 
5   0.059297 
6   0.227674 
7   0.227579 
8   0.394335 
9   0.394619 
10   -0.363123 
11   -0.374311 
12   -0.382464 
13   -0.374521 
14   -0.382576 
15   0.174 
16   0.202642 
17   0.202661 
18   0.15854 
 
>  <lowdin_charges> 
18 
1   -0.136951 
2   -0.110673 
3   -0.113469 
4   0.067501 
5   -0.001222 
6   0.010864 
7   0.011368 
8   0.309713 
9   0.31231 
10   -0.199261 
11   -0.22139 
12   -0.215323 
13   -0.223243 
14   -0.215584 
15   0.181513 
16   0.196261 
17   0.198165 
18   0.14942 
 
$$$$ 
 
