PCCDB-ID:  17217 
public computational chemistry database (PCCDB) project, http://pccdb.org 
 
 25 26  0  0  0  0  0  0  0  0999 V2000 
    1.7288    1.4295    2.9211 C   0  0  0  0  0  0  0  0  0  0  0  0 
    2.4357    0.4961    2.2840 C   0  0  0  0  0  0  0  0  0  0  0  0 
    6.3483   -3.3882    0.7771 C   0  0  0  0  0  0  0  0  0  0  0  0 
    4.9384   -3.2867    0.8228 C   0  0  0  0  0  0  0  0  0  0  0  0 
    6.7124    1.4593    0.7214 C   0  0  0  0  0  0  0  0  0  0  0  0 
    2.9786    0.6373    0.8793 C   0  0  0  0  0  0  0  0  0  0  0  0 
    7.1159   -2.2470    0.7404 C   0  0  0  0  0  0  0  0  0  0  0  0 
    5.3034    1.5680    0.7674 C   0  0  0  0  0  0  0  0  0  0  0  0 
    7.3084    0.2210    0.7138 C   0  0  0  0  0  0  0  0  0  0  0  0 
    4.3267   -2.0522    0.8326 C   0  0  0  0  0  0  0  0  0  0  0  0 
    4.4870    0.4545    0.8048 C   0  0  0  0  0  0  0  0  0  0  0  0 
    6.5178   -0.9581    0.7501 C   0  0  0  0  0  0  0  0  0  0  0  0 
    5.0861   -0.8486    0.7976 C   0  0  0  0  0  0  0  0  0  0  0  0 
    1.3638    1.2784    3.9334 H   0  0  0  0  0  0  0  0  0  0  0  0 
    1.4872    2.3829    2.4549 H   0  0  0  0  0  0  0  0  0  0  0  0 
    2.6624   -0.4413    2.7921 H   0  0  0  0  0  0  0  0  0  0  0  0 
    6.8204   -4.3669    0.7689 H   0  0  0  0  0  0  0  0  0  0  0  0 
    4.3341   -4.1895    0.8507 H   0  0  0  0  0  0  0  0  0  0  0  0 
    7.3182    2.3610    0.6936 H   0  0  0  0  0  0  0  0  0  0  0  0 
    2.7181    1.6301    0.4956 H   0  0  0  0  0  0  0  0  0  0  0  0 
    2.4819   -0.0872    0.2187 H   0  0  0  0  0  0  0  0  0  0  0  0 
    8.2009   -2.3142    0.7032 H   0  0  0  0  0  0  0  0  0  0  0  0 
    4.8499    2.5564    0.7748 H   0  0  0  0  0  0  0  0  0  0  0  0 
    8.3911    0.1253    0.6787 H   0  0  0  0  0  0  0  0  0  0  0  0 
    3.2434   -2.0005    0.8679 H   0  0  0  0  0  0  0  0  0  0  0  0 
  1 14  1  0  0  0  0 
  2 16  1  0  0  0  0 
  2  1  2  0  0  0  0 
  3  4  2  0  0  0  0 
  4 10  1  0  0  0  0 
  4 18  1  0  0  0  0 
  5  8  1  0  0  0  0 
  6  2  1  0  0  0  0 
  7 12  2  0  0  0  0 
  7  3  1  0  0  0  0 
  8 23  1  0  0  0  0 
  8 11  2  0  0  0  0 
  9  5  2  0  0  0  0 
  9 12  1  0  0  0  0 
 10 25  1  0  0  0  0 
 11  6  1  0  0  0  0 
 12 13  1  0  0  0  0 
 13 11  1  0  0  0  0 
 13 10  2  0  0  0  0 
 15  1  1  0  0  0  0 
 17  3  1  0  0  0  0 
 19  5  1  0  0  0  0 
 20  6  1  0  0  0  0 
 21  6  1  0  0  0  0 
 22  7  1  0  0  0  0 
 24  9  1  0  0  0  0 
M  END 
>  <HBA> 
0 
 
>  <HBD> 
0 
 
>  <TPSA> 
0.0 
 
>  <cid> 
17217 
 
>  <dipole> 
0.17 
 
>  <excitation_energy_1> 
4.23 
 
>  <excitation_energy_2> 
4.396 
 
>  <excitation_energy_3> 
5.184 
 
>  <excitation_energy_4> 
5.292 
 
>  <homo_energy> 
-5.709 
 
>  <homo_lumo_gap> 
4.71 
 
>  <logP> 
3.568 
 
>  <lumo_energy> 
-0.999 
 
>  <melting_point> 
30.56 
 
>  <molecular_refractivity> 
58.05 
 
>  <oscillator_strength_1> 
0.1125 
 
>  <oscillator_strength_2> 
0.0002 
 
>  <oscillator_strength_3> 
0.0055 
 
>  <oscillator_strength_4> 
0.0163 
 
>  <open_babel_can_smiles> 
C=CCc1cccc2c1cccc2 
 
>  <mulliken_charges> 
25 
1   -0.340248 
2   -0.03055 
3   -0.133137 
4   -0.135014 
5   -0.129219 
6   -0.40523 
7   -0.193856 
8   -0.193458 
9   -0.193148 
10   -0.200344 
11   0.119045 
12   0.13948 
13   0.079506 
14   0.140242 
15   0.133481 
16   0.135327 
17   0.129558 
18   0.129086 
19   0.129216 
20   0.148838 
21   0.158793 
22   0.129332 
23   0.124096 
24   0.127974 
25   0.130226 
 
>  <lowdin_charges> 
25 
1   -0.341179 
2   -0.142391 
3   -0.159338 
4   -0.15852 
5   -0.1583 
6   -0.27323 
7   -0.152595 
8   -0.165117 
9   -0.157204 
10   -0.162638 
11   0.000174 
12   0.001618 
13   -0.008875 
14   0.158244 
15   0.152795 
16   0.154029 
17   0.158185 
18   0.158601 
19   0.158982 
20   0.155621 
21   0.158451 
22   0.155196 
23   0.155488 
24   0.155003 
25   0.156999 
 
$$$$ 
 
