PCCDB-ID:  56224 
public computational chemistry database (PCCDB) project, http://pccdb.org 
 
 33 34  0  0  1  0  0  0  0  0999 V2000 
    1.7375   -2.0412    2.5280 C   0  0  0  0  0  0  0  0  0  0  0  0 
    5.6685   -2.4957   -1.8412 C   0  0  0  0  0  0  0  0  0  0  0  0 
    5.0006   -4.3878   -0.3749 C   0  0  0  0  0  0  0  0  0  0  0  0 
    2.9875   -1.4281    1.9003 C   0  0  0  0  0  0  0  0  0  0  0  0 
    7.2271   -0.7847    0.8547 C   0  0  0  0  0  0  0  0  0  0  0  0 
    7.9543   -1.8565   -0.0186 C   0  0  0  0  0  0  0  0  0  0  0  0 
    6.8266   -2.9815    1.7428 C   0  0  0  0  0  0  0  0  0  0  0  0 
    6.1429   -1.6097    1.5891 C   0  0  2  0  0  0  0  0  0  0  0  0 
    7.1146   -3.1295    0.2328 C   0  0  1  0  0  0  0  0  0  0  0  0 
    5.0016   -1.9410    0.5888 C   0  0  1  0  0  0  0  0  0  0  0  0 
    5.6789   -3.0012   -0.3876 C   0  0  0  0  0  0  0  0  0  0  0  0 
    3.8228   -2.4621    1.2882 N   0  0  0  0  0  0  0  0  0  0  0  0 
    1.1255   -1.2721    3.0118 H   0  0  0  0  0  0  0  0  0  0  0  0 
    2.0120   -2.7920    3.2762 H   0  0  0  0  0  0  0  0  0  0  0  0 
    1.1138   -2.5328    1.7701 H   0  0  0  0  0  0  0  0  0  0  0  0 
    6.2616   -3.1495   -2.4933 H   0  0  0  0  0  0  0  0  0  0  0  0 
    6.0623   -1.4792   -1.9363 H   0  0  0  0  0  0  0  0  0  0  0  0 
    4.6435   -2.4830   -2.2332 H   0  0  0  0  0  0  0  0  0  0  0  0 
    5.5832   -5.0839   -0.9902 H   0  0  0  0  0  0  0  0  0  0  0  0 
    3.9929   -4.3543   -0.8092 H   0  0  0  0  0  0  0  0  0  0  0  0 
    4.9172   -4.8078    0.6302 H   0  0  0  0  0  0  0  0  0  0  0  0 
    3.5733   -0.9236    2.6780 H   0  0  0  0  0  0  0  0  0  0  0  0 
    2.6964   -0.6409    1.1760 H   0  0  0  0  0  0  0  0  0  0  0  0 
    6.7900    0.0221    0.2542 H   0  0  0  0  0  0  0  0  0  0  0  0 
    7.9153   -0.3178    1.5680 H   0  0  0  0  0  0  0  0  0  0  0  0 
    8.9785   -2.0191    0.3371 H   0  0  0  0  0  0  0  0  0  0  0  0 
    8.0272   -1.5791   -1.0735 H   0  0  0  0  0  0  0  0  0  0  0  0 
    6.1566   -3.7411    2.1535 H   0  0  0  0  0  0  0  0  0  0  0  0 
    7.7394   -2.9473    2.3499 H   0  0  0  0  0  0  0  0  0  0  0  0 
    5.7847   -1.1425    2.5107 H   0  0  0  0  0  0  0  0  0  0  0  0 
    7.6200   -4.0505   -0.0776 H   0  0  0  0  0  0  0  0  0  0  0  0 
    4.7372   -1.0326    0.0135 H   0  0  0  0  0  0  0  0  0  0  0  0 
    3.2445   -2.9777    0.6279 H   0  0  0  0  0  0  0  0  0  0  0  0 
  1 13  1  0  0  0  0 
  1 14  1  0  0  0  0 
  2 11  1  0  0  0  0 
  3 21  1  0  0  0  0 
  4  1  1  0  0  0  0 
  4 22  1  0  0  0  0 
  5 25  1  0  0  0  0 
  5  8  1  0  0  0  0 
  6  9  1  0  0  0  0 
  6 26  1  0  0  0  0 
  6  5  1  0  0  0  0 
  7 28  1  0  0  0  0 
  7 29  1  0  0  0  0 
  8  7  1  0  0  0  0 
  8 30  1  1  0  0  0 
  9 31  1  6  0  0  0 
  9  7  1  0  0  0  0 
 10 32  1  6  0  0  0 
 10 12  1  0  0  0  0 
 10  8  1  0  0  0  0 
 11  3  1  0  0  0  0 
 11  9  1  0  0  0  0 
 11 10  1  0  0  0  0 
 12  4  1  0  0  0  0 
 15  1  1  0  0  0  0 
 16  2  1  0  0  0  0 
 17  2  1  0  0  0  0 
 18  2  1  0  0  0  0 
 19  3  1  0  0  0  0 
 20  3  1  0  0  0  0 
 23  4  1  0  0  0  0 
 24  5  1  0  0  0  0 
 27  6  1  0  0  0  0 
 33 12  1  0  0  0  0 
M  END 
>  <HBA> 
1 
 
>  <HBD> 
1 
 
>  <TPSA> 
12.03 
 
>  <cid> 
56224 
 
>  <dipole> 
0.7 
 
>  <excitation_energy_1> 
5.343 
 
>  <excitation_energy_2> 
5.686 
 
>  <excitation_energy_3> 
5.863 
 
>  <excitation_energy_4> 
5.877 
 
>  <homo_energy> 
-5.802 
 
>  <homo_lumo_gap> 
7.9 
 
>  <logP> 
2.812 
 
>  <lumo_energy> 
2.098 
 
>  <melting_point> 
61.14 
 
>  <molecular_refractivity> 
53.3 
 
>  <oscillator_strength_1> 
0.0063 
 
>  <oscillator_strength_2> 
0.0055 
 
>  <oscillator_strength_3> 
0.0141 
 
>  <oscillator_strength_4> 
0.0388 
 
>  <open_babel_can_smiles> 
CCN[C@H]1[C@@H]2CC[C@H](C1(C)C)C2 
 
>  <mulliken_charges> 
33 
1   -0.452624 
2   -0.463792 
3   -0.468757 
4   -0.108862 
5   -0.277465 
6   -0.278635 
7   -0.277992 
8   -0.094995 
9   -0.103943 
10   0.033497 
11   0.101611 
12   -0.572332 
13   0.143541 
14   0.158167 
15   0.137037 
16   0.138556 
17   0.145952 
18   0.134958 
19   0.140169 
20   0.129147 
21   0.164626 
22   0.142562 
23   0.108906 
24   0.129223 
25   0.133581 
26   0.13218 
27   0.134666 
28   0.151046 
29   0.125341 
30   0.116429 
31   0.107125 
32   0.097777 
33   0.2933 
 
>  <lowdin_charges> 
33 
1   -0.451343 
2   -0.445279 
3   -0.44616 
4   -0.201123 
5   -0.290131 
6   -0.285682 
7   -0.28741 
8   -0.137962 
9   -0.134939 
10   -0.07044 
11   0.003373 
12   -0.363665 
13   0.15343 
14   0.156458 
15   0.145127 
16   0.148107 
17   0.147681 
18   0.144733 
19   0.15063 
20   0.139592 
21   0.157122 
22   0.141986 
23   0.115062 
24   0.140831 
25   0.146039 
26   0.142595 
27   0.142366 
28   0.152889 
29   0.140628 
30   0.140711 
31   0.137705 
32   0.114364 
33   0.252706 
 
$$$$ 
 
