PCCDB-ID:  70212 
public computational chemistry database (PCCDB) project, http://pccdb.org 
 
 21 20  0  0  0  0  0  0  0  0999 V2000 
    4.7887   -1.3572    0.7028 C   0  0  0  0  0  0  0  0  0  0  0  0 
    3.2117   -1.8239   -1.2483 C   0  0  0  0  0  0  0  0  0  0  0  0 
    2.3181    3.4558    1.2244 C   0  0  0  0  0  0  0  0  0  0  0  0 
    2.1748    2.1688    0.8921 C   0  0  0  0  0  0  0  0  0  0  0  0 
    3.9692   -0.7768   -0.4449 C   0  0  0  0  0  0  0  0  0  0  0  0 
    1.1667    4.2409    1.7600 C   0  0  0  0  0  0  0  0  0  0  0  0 
    3.3257    1.3900    0.3587 C   0  0  0  0  0  0  0  0  0  0  0  0 
    0.0586    3.7908    1.9284 O   0  0  0  0  0  0  0  0  0  0  0  0 
    1.4328    5.5395    2.0625 O   0  0  0  0  0  0  0  0  0  0  0  0 
    4.4424    1.8401    0.1839 O   0  0  0  0  0  0  0  0  0  0  0  0 
    2.9529    0.1239    0.0960 O   0  0  0  0  0  0  0  0  0  0  0  0 
    5.5398   -2.0526    0.3119 H   0  0  0  0  0  0  0  0  0  0  0  0 
    4.1436   -1.9030    1.4002 H   0  0  0  0  0  0  0  0  0  0  0  0 
    5.3088   -0.5634    1.2460 H   0  0  0  0  0  0  0  0  0  0  0  0 
    3.9177   -2.5206   -1.7129 H   0  0  0  0  0  0  0  0  0  0  0  0 
    2.6185   -1.3549   -2.0395 H   0  0  0  0  0  0  0  0  0  0  0  0 
    2.5365   -2.3966   -0.6033 H   0  0  0  0  0  0  0  0  0  0  0  0 
    3.2921    3.9262    1.0995 H   0  0  0  0  0  0  0  0  0  0  0  0 
    1.2174    1.6697    1.0052 H   0  0  0  0  0  0  0  0  0  0  0  0 
    4.6151   -0.1799   -1.0952 H   0  0  0  0  0  0  0  0  0  0  0  0 
    2.3617    5.7505    1.8729 H   0  0  0  0  0  0  0  0  0  0  0  0 
  1 14  1  0  0  0  0 
  1 13  1  0  0  0  0 
  2 17  1  0  0  0  0 
  2  5  1  0  0  0  0 
  3  6  1  0  0  0  0 
  4 19  1  0  0  0  0 
  4  3  2  0  0  0  0 
  5 11  1  0  0  0  0 
  5  1  1  0  0  0  0 
  6  8  2  0  0  0  0 
  6  9  1  0  0  0  0 
  7  4  1  0  0  0  0 
 10  7  2  0  0  0  0 
 11  7  1  0  0  0  0 
 12  1  1  0  0  0  0 
 15  2  1  0  0  0  0 
 16  2  1  0  0  0  0 
 18  3  1  0  0  0  0 
 20  5  1  0  0  0  0 
 21  9  1  0  0  0  0 
M  END 
>  <HBA> 
4 
 
>  <HBD> 
1 
 
>  <TPSA> 
63.6 
 
>  <cid> 
70212 
 
>  <dipole> 
3.6 
 
>  <excitation_energy_1> 
4.016 
 
>  <excitation_energy_2> 
4.2 
 
>  <excitation_energy_3> 
5.343 
 
>  <excitation_energy_4> 
5.432 
 
>  <homo_energy> 
-7.674 
 
>  <homo_lumo_gap> 
5.265 
 
>  <logP> 
0.579 
 
>  <lumo_energy> 
-2.408 
 
>  <melting_point> 
72.16 
 
>  <molecular_refractivity> 
38.35 
 
>  <oscillator_strength_1> 
0.0001 
 
>  <oscillator_strength_2> 
0.0003 
 
>  <oscillator_strength_3> 
0.0181 
 
>  <oscillator_strength_4> 
0.3745 
 
>  <open_babel_can_smiles> 
CC(OC(=O)/C=C/C(=O)O)C 
 
>  <mulliken_charges> 
21 
1   -0.460043 
2   -0.45284 
3   -0.201842 
4   -0.156144 
5   0.124151 
6   0.609101 
7   0.626449 
8   -0.4423 
9   -0.574296 
10   -0.490197 
11   -0.478512 
12   0.152448 
13   0.155661 
14   0.174426 
15   0.153036 
16   0.161224 
17   0.159443 
18   0.167615 
19   0.193141 
20   0.165537 
21   0.41394 
 
>  <lowdin_charges> 
21 
1   -0.456926 
2   -0.450739 
3   -0.174891 
4   -0.130965 
5   0.010449 
6   0.194477 
7   0.192501 
8   -0.233779 
9   -0.34811 
10   -0.270491 
11   -0.182973 
12   0.160683 
13   0.157654 
14   0.167701 
15   0.160485 
16   0.161816 
17   0.159779 
18   0.17409 
19   0.192152 
20   0.158031 
21   0.359055 
 
$$$$ 
 
