PCCDB-ID:  38688 
public computational chemistry database (PCCDB) project, http://pccdb.org 
 
 31 30  0  0  0  0  0  0  0  0999 V2000 
    3.9726   -0.3917   -5.0635 C   0  0  0  0  0  0  0  0  0  0  0  0 
    5.4990   -1.5059   -6.7428 C   0  0  0  0  0  0  0  0  0  0  0  0 
    6.4153   -1.4043    0.0455 C   0  0  0  0  0  0  0  0  0  0  0  0 
    8.2884    0.2917   -0.1992 C   0  0  0  0  0  0  0  0  0  0  0  0 
    6.5156   -0.3778   -4.7193 C   0  0  0  0  0  0  0  0  0  0  0  0 
    6.4561   -0.0748   -3.2441 C   0  0  0  0  0  0  0  0  0  0  0  0 
    8.2004   -1.7430   -2.5782 C   0  0  0  0  0  0  0  0  0  0  0  0 
    5.2895   -1.1558   -5.2627 C   0  0  0  0  0  0  0  0  0  0  0  0 
    6.9853   -0.2578   -0.8135 C   0  0  0  0  0  0  0  0  0  0  0  0 
    7.1671   -0.6673   -2.2702 C   0  0  0  0  0  0  0  0  0  0  0  0 
    9.3150   -1.2693   -3.3438 O   0  0  0  0  0  0  0  0  0  0  0  0 
    3.1262   -0.9581   -5.4699 H   0  0  0  0  0  0  0  0  0  0  0  0 
    4.0004    0.5775   -5.5797 H   0  0  0  0  0  0  0  0  0  0  0  0 
    3.7663   -0.2020   -4.0046 H   0  0  0  0  0  0  0  0  0  0  0  0 
    4.6618   -2.0972   -7.1328 H   0  0  0  0  0  0  0  0  0  0  0  0 
    6.4184   -2.0846   -6.8903 H   0  0  0  0  0  0  0  0  0  0  0  0 
    5.5766   -0.5968   -7.3537 H   0  0  0  0  0  0  0  0  0  0  0  0 
    6.2377   -1.0649    1.0732 H   0  0  0  0  0  0  0  0  0  0  0  0 
    7.1050   -2.2556    0.0971 H   0  0  0  0  0  0  0  0  0  0  0  0 
    5.4653   -1.7662   -0.3628 H   0  0  0  0  0  0  0  0  0  0  0  0 
    8.1220    0.6185    0.8342 H   0  0  0  0  0  0  0  0  0  0  0  0 
    8.6606    1.1529   -0.7667 H   0  0  0  0  0  0  0  0  0  0  0  0 
    9.0791   -0.4687   -0.1746 H   0  0  0  0  0  0  0  0  0  0  0  0 
    7.4303   -0.9322   -4.9491 H   0  0  0  0  0  0  0  0  0  0  0  0 
    6.5859    0.5724   -5.2722 H   0  0  0  0  0  0  0  0  0  0  0  0 
    5.7500    0.7034   -2.9485 H   0  0  0  0  0  0  0  0  0  0  0  0 
    7.7629   -2.5445   -3.1822 H   0  0  0  0  0  0  0  0  0  0  0  0 
    8.5556   -2.2067   -1.6467 H   0  0  0  0  0  0  0  0  0  0  0  0 
    5.2220   -2.0973   -4.6971 H   0  0  0  0  0  0  0  0  0  0  0  0 
    6.2484    0.5565   -0.7979 H   0  0  0  0  0  0  0  0  0  0  0  0 
    9.5743   -0.4138   -2.9680 H   0  0  0  0  0  0  0  0  0  0  0  0 
  1 14  1  0  0  0  0 
  2  8  1  0  0  0  0 
  3 19  1  0  0  0  0 
  3 18  1  0  0  0  0 
  4 23  1  0  0  0  0 
  4 21  1  0  0  0  0 
  5  6  1  0  0  0  0 
  6 26  1  0  0  0  0 
  6 10  2  0  0  0  0 
  7 10  1  0  0  0  0 
  7 28  1  0  0  0  0 
  8  1  1  0  0  0  0 
  8  5  1  0  0  0  0 
  8 29  1  0  0  0  0 
  9 30  1  0  0  0  0 
  9  4  1  0  0  0  0 
  9  3  1  0  0  0  0 
 10  9  1  0  0  0  0 
 11 31  1  0  0  0  0 
 11  7  1  0  0  0  0 
 12  1  1  0  0  0  0 
 13  1  1  0  0  0  0 
 15  2  1  0  0  0  0 
 16  2  1  0  0  0  0 
 17  2  1  0  0  0  0 
 20  3  1  0  0  0  0 
 22  4  1  0  0  0  0 
 24  5  1  0  0  0  0 
 25  5  1  0  0  0  0 
 27  7  1  0  0  0  0 
M  END 
>  <HBA> 
1 
 
>  <HBD> 
1 
 
>  <TPSA> 
20.23 
 
>  <cid> 
38688 
 
>  <dipole> 
1.64 
 
>  <excitation_energy_1> 
5.693 
 
>  <excitation_energy_2> 
5.968 
 
>  <excitation_energy_3> 
6.203 
 
>  <excitation_energy_4> 
6.274 
 
>  <homo_energy> 
-6.348 
 
>  <homo_lumo_gap> 
6.566 
 
>  <logP> 
2.607 
 
>  <lumo_energy> 
0.218 
 
>  <melting_point> 
2.61 
 
>  <molecular_refractivity> 
50.87 
 
>  <oscillator_strength_1> 
0.1095 
 
>  <oscillator_strength_2> 
0.0602 
 
>  <oscillator_strength_3> 
0.083 
 
>  <oscillator_strength_4> 
0.0044 
 
>  <open_babel_can_smiles> 
OC/C(=C\CC(C)C)/C(C)C 
 
>  <mulliken_charges> 
31 
1   -0.445312 
2   -0.441359 
3   -0.445989 
4   -0.456164 
5   -0.308602 
6   -0.168315 
7   -0.09299 
8   -0.062545 
9   -0.141116 
10   0.130271 
11   -0.617491 
12   0.140302 
13   0.136181 
14   0.143675 
15   0.139026 
16   0.14384 
17   0.138123 
18   0.142851 
19   0.144036 
20   0.148561 
21   0.147555 
22   0.141933 
23   0.145371 
24   0.167181 
25   0.129769 
26   0.120196 
27   0.153368 
28   0.127666 
29   0.124048 
30   0.128556 
31   0.387371 
 
>  <lowdin_charges> 
31 
1   -0.446889 
2   -0.446083 
3   -0.445874 
4   -0.450616 
5   -0.284035 
6   -0.168377 
7   -0.138987 
8   -0.116675 
9   -0.119023 
10   -0.050881 
11   -0.470057 
12   0.149191 
13   0.143801 
14   0.147432 
15   0.148445 
16   0.14958 
17   0.145479 
18   0.148558 
19   0.147027 
20   0.152198 
21   0.151249 
22   0.148304 
23   0.147856 
24   0.162359 
25   0.145154 
26   0.146791 
27   0.153715 
28   0.131813 
29   0.135879 
30   0.142962 
31   0.339702 
 
$$$$ 
 
