PCCDB-ID:  72373 
public computational chemistry database (PCCDB) project, http://pccdb.org 
 
 27 26  0  0  0  0  0  0  0  0999 V2000 
    2.0010   -0.9802   -4.5672 C   0  0  0  0  0  0  0  0  0  0  0  0 
    8.4495    1.3419    3.8818 C   0  0  0  0  0  0  0  0  0  0  0  0 
    3.3008   -1.0082   -4.2692 C   0  0  0  0  0  0  0  0  0  0  0  0 
    8.6600    1.6801    2.6084 C   0  0  0  0  0  0  0  0  0  0  0  0 
    8.0213   -0.6685   -2.2049 C   0  0  0  0  0  0  0  0  0  0  0  0 
    3.9023   -1.8775   -3.2113 C   0  0  0  0  0  0  0  0  0  0  0  0 
    7.5544   -1.8365   -2.6650 C   0  0  0  0  0  0  0  0  0  0  0  0 
    9.0996    0.7287    1.5421 C   0  0  0  0  0  0  0  0  0  0  0  0 
    8.7542   -0.5209   -0.9117 C   0  0  0  0  0  0  0  0  0  0  0  0 
    7.6982    1.9471   -0.4488 O   0  0  0  0  0  0  0  0  0  0  0  0 
    5.1086   -3.1372   -3.8669 S   0  0  0  0  0  0  0  0  0  0  0  0 
    6.8116   -1.9917   -4.2750 S   0  0  0  0  0  0  0  0  0  0  0  0 
    7.7753    0.5972    0.2295 S   0  0  2  0  0  0  0  0  0  0  0  0 
    1.6082   -0.3267   -5.3410 H   0  0  0  0  0  0  0  0  0  0  0  0 
    1.2789   -1.6068   -4.0474 H   0  0  0  0  0  0  0  0  0  0  0  0 
    8.1264    2.0732    4.6171 H   0  0  0  0  0  0  0  0  0  0  0  0 
    8.6006    0.3257    4.2408 H   0  0  0  0  0  0  0  0  0  0  0  0 
    3.9970   -0.3677   -4.8089 H   0  0  0  0  0  0  0  0  0  0  0  0 
    8.4968    2.7049    2.2798 H   0  0  0  0  0  0  0  0  0  0  0  0 
    7.8695    0.2462   -2.7743 H   0  0  0  0  0  0  0  0  0  0  0  0 
    3.1383   -2.4783   -2.7044 H   0  0  0  0  0  0  0  0  0  0  0  0 
    4.4353   -1.2960   -2.4514 H   0  0  0  0  0  0  0  0  0  0  0  0 
    7.6696   -2.7656   -2.1094 H   0  0  0  0  0  0  0  0  0  0  0  0 
    9.2796   -0.2792    1.9333 H   0  0  0  0  0  0  0  0  0  0  0  0 
    9.9957    1.0903    1.0222 H   0  0  0  0  0  0  0  0  0  0  0  0 
    9.7259   -0.0321   -1.0548 H   0  0  0  0  0  0  0  0  0  0  0  0 
    8.8956   -1.4782   -0.3981 H   0  0  0  0  0  0  0  0  0  0  0  0 
  1  3  2  0  0  0  0 
  1 15  1  0  0  0  0 
  2 17  1  0  0  0  0 
  2 16  1  0  0  0  0 
  3  6  1  0  0  0  0 
  4  2  2  0  0  0  0 
  5  9  1  0  0  0  0 
  6 21  1  0  0  0  0 
  6 22  1  0  0  0  0 
  7  5  2  0  0  0  0 
  7 23  1  0  0  0  0 
  8 24  1  0  0  0  0 
  8  4  1  0  0  0  0 
  9 27  1  0  0  0  0 
  9 13  1  0  0  0  0 
 11  6  1  0  0  0  0 
 12 11  1  0  0  0  0 
 12  7  1  0  0  0  0 
 13 10  2  6  0  0  0 
 13  8  1  0  0  0  0 
 14  1  1  0  0  0  0 
 18  3  1  0  0  0  0 
 19  4  1  0  0  0  0 
 20  5  1  0  0  0  0 
 25  8  1  0  0  0  0 
 26  9  1  0  0  0  0 
M  END 
>  <HBA> 
3 
 
>  <HBD> 
0 
 
>  <TPSA> 
86.88 
 
>  <cid> 
72373 
 
>  <dipole> 
3.66 
 
>  <excitation_energy_1> 
4.0 
 
>  <excitation_energy_2> 
4.378 
 
>  <excitation_energy_3> 
4.493 
 
>  <excitation_energy_4> 
4.832 
 
>  <homo_energy> 
-6.109 
 
>  <homo_lumo_gap> 
4.852 
 
>  <logP> 
3.868 
 
>  <lumo_energy> 
-1.257 
 
>  <melting_point> 
-22.72 
 
>  <molecular_refractivity> 
67.41 
 
>  <oscillator_strength_1> 
0.0653 
 
>  <oscillator_strength_2> 
0.0201 
 
>  <oscillator_strength_3> 
0.0088 
 
>  <oscillator_strength_4> 
0.1048 
 
>  <open_babel_can_smiles> 
C=CCSS/C=C/C[S@](=O)CC=C 
 
>  <mulliken_charges> 
27 
1   -0.330403 
2   -0.326653 
3   -0.025409 
4   -0.0552 
5   -0.073795 
6   -0.477592 
7   -0.295285 
8   -0.504681 
9   -0.507378 
10   -0.632418 
11   0.022213 
12   0.052276 
13   0.779305 
14   0.14843 
15   0.139029 
16   0.153939 
17   0.141433 
18   0.153312 
19   0.167575 
20   0.185308 
21   0.184751 
22   0.198623 
23   0.176054 
24   0.169173 
25   0.190404 
26   0.193746 
27   0.173245 
 
>  <lowdin_charges> 
27 
1   -0.330764 
2   -0.322559 
3   -0.151355 
4   -0.152611 
5   -0.161484 
6   -0.375579 
7   -0.292944 
8   -0.416718 
9   -0.416012 
10   -0.672537 
11   0.035683 
12   0.087441 
13   0.804265 
14   0.164358 
15   0.157047 
16   0.167336 
17   0.155819 
18   0.164853 
19   0.170112 
20   0.180872 
21   0.175076 
22   0.175324 
23   0.171227 
24   0.167274 
25   0.17228 
26   0.173788 
27   0.169808 
 
$$$$ 
 
