PCCDB-ID:  14599 
public computational chemistry database (PCCDB) project, http://pccdb.org 
 
 43 44  0  0  1  0  0  0  0  0999 V2000 
    1.0677    0.8471   -0.5673 C   0  0  0  0  0  0  0  0  0  0  0  0 
    3.2305    0.6221   -1.7475 C   0  0  0  0  0  0  0  0  0  0  0  0 
    3.4038    3.0165    0.1876 C   0  0  0  0  0  0  0  0  0  0  0  0 
    0.0748    1.5438    5.2667 C   0  0  0  0  0  0  0  0  0  0  0  0 
    1.6574    3.3310    5.5669 C   0  0  0  0  0  0  0  0  0  0  0  0 
    4.4034   -0.6405    0.6892 C   0  0  0  0  0  0  0  0  0  0  0  0 
    4.6495    0.8802    0.8980 C   0  0  0  0  0  0  0  0  0  0  0  0 
    2.0922   -0.8990    1.6685 C   0  0  0  0  0  0  0  0  0  0  0  0 
    2.4346    1.1459    4.9017 C   0  0  0  0  0  0  0  0  0  0  0  0 
    2.4857    1.5678    1.9967 C   0  0  0  0  0  0  0  0  0  0  0  0 
    2.8914   -0.7531    0.3670 C   0  0  1  0  0  0  0  0  0  0  0  0 
    2.2471   -0.0244    3.9253 C   0  0  0  0  0  0  0  0  0  0  0  0 
    2.5704    0.5895   -0.3511 C   0  0  0  0  0  0  0  0  0  0  0  0 
    3.2715    1.5654    0.6624 C   0  0  1  0  0  0  0  0  0  0  0  0 
    1.3430    2.1179    4.8234 N   0  0  0  0  0  0  0  0  0  0  0  0 
    2.3528    0.2262    2.5794 N   0  0  0  0  0  0  0  0  0  0  0  0 
    2.0111   -1.1500    4.3617 O   0  0  0  0  0  0  0  0  0  0  0  0 
    0.6490    0.0921   -1.2444 H   0  0  0  0  0  0  0  0  0  0  0  0 
    0.9056    1.8257   -1.0348 H   0  0  0  0  0  0  0  0  0  0  0  0 
    0.4760    0.8220    0.3507 H   0  0  0  0  0  0  0  0  0  0  0  0 
    2.8435   -0.2004   -2.3617 H   0  0  0  0  0  0  0  0  0  0  0  0 
    4.3192    0.5227   -1.7163 H   0  0  0  0  0  0  0  0  0  0  0  0 
    2.9989    1.5559   -2.2716 H   0  0  0  0  0  0  0  0  0  0  0  0 
    3.9228    3.6256    0.9385 H   0  0  0  0  0  0  0  0  0  0  0  0 
    2.4254    3.4798    0.0101 H   0  0  0  0  0  0  0  0  0  0  0  0 
    3.9802    3.0821   -0.7406 H   0  0  0  0  0  0  0  0  0  0  0  0 
   -0.7283    2.2710    5.1062 H   0  0  0  0  0  0  0  0  0  0  0  0 
    0.0819    1.2646    6.3379 H   0  0  0  0  0  0  0  0  0  0  0  0 
   -0.1536    0.6431    4.6905 H   0  0  0  0  0  0  0  0  0  0  0  0 
    0.8424    4.0535    5.4488 H   0  0  0  0  0  0  0  0  0  0  0  0 
    2.5733    3.7833    5.1701 H   0  0  0  0  0  0  0  0  0  0  0  0 
    1.8023    3.1554    6.6509 H   0  0  0  0  0  0  0  0  0  0  0  0 
    4.6660   -1.2269    1.5753 H   0  0  0  0  0  0  0  0  0  0  0  0 
    5.0064   -1.0282   -0.1382 H   0  0  0  0  0  0  0  0  0  0  0  0 
    5.3923    1.2643    0.1901 H   0  0  0  0  0  0  0  0  0  0  0  0 
    5.0308    1.1013    1.9013 H   0  0  0  0  0  0  0  0  0  0  0  0 
    2.3820   -1.8087    2.1968 H   0  0  0  0  0  0  0  0  0  0  0  0 
    1.0154   -0.9842    1.4657 H   0  0  0  0  0  0  0  0  0  0  0  0 
    3.3765    1.6685    4.6952 H   0  0  0  0  0  0  0  0  0  0  0  0 
    2.5236    0.6852    5.9003 H   0  0  0  0  0  0  0  0  0  0  0  0 
    1.4990    2.0278    1.8588 H   0  0  0  0  0  0  0  0  0  0  0  0 
    3.0191    2.2041    2.7049 H   0  0  0  0  0  0  0  0  0  0  0  0 
    2.6646   -1.6191   -0.2680 H   0  0  0  0  0  0  0  0  0  0  0  0 
  1 13  1  0  0  0  0 
  1 20  1  0  0  0  0 
  2 22  1  0  0  0  0 
  2 13  1  0  0  0  0 
  3 24  1  0  0  0  0 
  4 28  1  0  0  0  0 
  5 32  1  0  0  0  0 
  6  7  1  0  0  0  0 
  6 33  1  0  0  0  0 
  7 36  1  0  0  0  0 
  8 37  1  0  0  0  0 
  8 16  1  0  0  0  0 
  9 40  1  0  0  0  0 
 10 16  1  0  0  0  0 
 10 42  1  0  0  0  0 
 11 43  1  6  0  0  0 
 11  6  1  0  0  0  0 
 11  8  1  0  0  0  0 
 12 17  2  0  0  0  0 
 12  9  1  0  0  0  0 
 13 11  1  0  0  0  0 
 13 14  1  0  0  0  0 
 14  3  1  6  0  0  0 
 14  7  1  0  0  0  0 
 14 10  1  0  0  0  0 
 15  9  1  0  0  0  0 
 15  4  1  0  0  0  0 
 15  5  1  0  0  0  0 
 16 12  1  0  0  0  0 
 18  1  1  0  0  0  0 
 19  1  1  0  0  0  0 
 21  2  1  0  0  0  0 
 23  2  1  0  0  0  0 
 25  3  1  0  0  0  0 
 26  3  1  0  0  0  0 
 27  4  1  0  0  0  0 
 29  4  1  0  0  0  0 
 30  5  1  0  0  0  0 
 31  5  1  0  0  0  0 
 34  6  1  0  0  0  0 
 35  7  1  0  0  0  0 
 38  8  1  0  0  0  0 
 39  9  1  0  0  0  0 
 41 10  1  0  0  0  0 
M  END 
>  <HBA> 
3 
 
>  <HBD> 
0 
 
>  <TPSA> 
23.55 
 
>  <cid> 
14599 
 
>  <dipole> 
3.34 
 
>  <excitation_energy_1> 
5.106 
 
>  <excitation_energy_2> 
5.293 
 
>  <excitation_energy_3> 
5.546 
 
>  <excitation_energy_4> 
5.642 
 
>  <homo_energy> 
-5.889 
 
>  <homo_lumo_gap> 
6.569 
 
>  <logP> 
1.771 
 
>  <lumo_energy> 
0.68 
 
>  <melting_point> 
77.32 
 
>  <molecular_refractivity> 
74.57 
 
>  <oscillator_strength_1> 
0.0049 
 
>  <oscillator_strength_2> 
0.0007 
 
>  <oscillator_strength_3> 
0.0321 
 
>  <oscillator_strength_4> 
0.0187 
 
>  <open_babel_can_smiles> 
CN(CC(=O)N1C[C@@H]2CC[C@](C1)(C2(C)C)C)C 
 
>  <mulliken_charges> 
43 
1   -0.474656 
2   -0.46841 
3   -0.473463 
4   -0.306136 
5   -0.292911 
6   -0.28038 
7   -0.283185 
8   -0.141252 
9   -0.21556 
10   -0.120613 
11   -0.117208 
12   0.574987 
13   0.099305 
14   0.07636 
15   -0.373073 
16   -0.444319 
17   -0.523632 
18   0.142778 
19   0.142804 
20   0.15262 
21   0.141424 
22   0.146771 
23   0.144182 
24   0.141338 
25   0.144016 
26   0.149559 
27   0.146349 
28   0.126172 
29   0.172205 
30   0.150678 
31   0.144927 
32   0.123528 
33   0.146085 
34   0.138209 
35   0.135356 
36   0.133246 
37   0.182906 
38   0.143712 
39   0.147063 
40   0.148008 
41   0.152884 
42   0.148163 
43   0.119167 
 
>  <lowdin_charges> 
43 
1   -0.451632 
2   -0.445189 
3   -0.44515 
4   -0.35833 
5   -0.354555 
6   -0.28779 
7   -0.285813 
8   -0.198265 
9   -0.224893 
10   -0.197104 
11   -0.139106 
12   0.147035 
13   0.001484 
14   -0.004361 
15   -0.18371 
16   -0.107277 
17   -0.317952 
18   0.15252 
19   0.149423 
20   0.151668 
21   0.150588 
22   0.149364 
23   0.149718 
24   0.150969 
25   0.149079 
26   0.153461 
27   0.149613 
28   0.124685 
29   0.161709 
30   0.151657 
31   0.147498 
32   0.121784 
33   0.151884 
34   0.146423 
35   0.144751 
36   0.144583 
37   0.17189 
38   0.140095 
39   0.150887 
40   0.142698 
41   0.145572 
42   0.156163 
43   0.143926 
 
$$$$ 
 
