PCCDB-ID:  66294 
public computational chemistry database (PCCDB) project, http://pccdb.org 
 
 30 30  0  0  0  0  0  0  0  0999 V2000 
    3.7682   -0.3665   -1.0329 C   0  0  0  0  0  0  0  0  0  0  0  0 
    2.0836   -1.4305    0.5579 C   0  0  0  0  0  0  0  0  0  0  0  0 
    4.3973    3.8248    4.0772 C   0  0  0  0  0  0  0  0  0  0  0  0 
    2.4052    4.5078    1.9720 C   0  0  0  0  0  0  0  0  0  0  0  0 
    4.7631   -0.8480    2.3165 C   0  0  0  0  0  0  0  0  0  0  0  0 
    4.4853    1.5146    3.0657 C   0  0  0  0  0  0  0  0  0  0  0  0 
    2.6601    2.1395    1.1385 C   0  0  0  0  0  0  0  0  0  0  0  0 
    2.6980   -0.1122    0.0489 C   0  0  0  0  0  0  0  0  0  0  0  0 
    3.9600    2.8079    3.0497 C   0  0  0  0  0  0  0  0  0  0  0  0 
    3.0179    3.1297    2.0559 C   0  0  0  0  0  0  0  0  0  0  0  0 
    4.1261    0.5173    2.1483 C   0  0  0  0  0  0  0  0  0  0  0  0 
    3.1824    0.8372    1.1480 C   0  0  0  0  0  0  0  0  0  0  0  0 
    3.3441   -0.9522   -1.8579 H   0  0  0  0  0  0  0  0  0  0  0  0 
    4.6281   -0.9217   -0.6440 H   0  0  0  0  0  0  0  0  0  0  0  0 
    4.1405    0.5783   -1.4435 H   0  0  0  0  0  0  0  0  0  0  0  0 
    1.5799   -1.9497   -0.2665 H   0  0  0  0  0  0  0  0  0  0  0  0 
    1.3411   -1.2433    1.3417 H   0  0  0  0  0  0  0  0  0  0  0  0 
    2.8352   -2.1150    0.9613 H   0  0  0  0  0  0  0  0  0  0  0  0 
    5.1612    3.4107    4.7426 H   0  0  0  0  0  0  0  0  0  0  0  0 
    3.5581    4.1583    4.7024 H   0  0  0  0  0  0  0  0  0  0  0  0 
    4.8154    4.7252    3.6083 H   0  0  0  0  0  0  0  0  0  0  0  0 
    1.6796    4.5682    1.1549 H   0  0  0  0  0  0  0  0  0  0  0  0 
    3.1650    5.2818    1.7994 H   0  0  0  0  0  0  0  0  0  0  0  0 
    1.8855    4.7809    2.8998 H   0  0  0  0  0  0  0  0  0  0  0  0 
    5.6374   -0.7796    2.9721 H   0  0  0  0  0  0  0  0  0  0  0  0 
    5.0971   -1.2839    1.3707 H   0  0  0  0  0  0  0  0  0  0  0  0 
    4.0719   -1.5655    2.7758 H   0  0  0  0  0  0  0  0  0  0  0  0 
    5.2165    1.2649    3.8330 H   0  0  0  0  0  0  0  0  0  0  0  0 
    1.9309    2.3946    0.3710 H   0  0  0  0  0  0  0  0  0  0  0  0 
    1.8819    0.4217   -0.4565 H   0  0  0  0  0  0  0  0  0  0  0  0 
  1 14  1  0  0  0  0 
  1  8  1  0  0  0  0 
  2 18  1  0  0  0  0 
  2 17  1  0  0  0  0 
  3 20  1  0  0  0  0 
  3 19  1  0  0  0  0 
  4 10  1  0  0  0  0 
  4 24  1  0  0  0  0 
  5 27  1  0  0  0  0 
  5 25  1  0  0  0  0 
  6 28  1  0  0  0  0 
  7 12  2  0  0  0  0 
  7 10  1  0  0  0  0 
  8  2  1  0  0  0  0 
  8 12  1  0  0  0  0 
  9  6  1  0  0  0  0 
  9  3  1  0  0  0  0 
 10  9  2  0  0  0  0 
 11  5  1  0  0  0  0 
 11  6  2  0  0  0  0 
 12 11  1  0  0  0  0 
 13  1  1  0  0  0  0 
 15  1  1  0  0  0  0 
 16  2  1  0  0  0  0 
 21  3  1  0  0  0  0 
 22  4  1  0  0  0  0 
 23  4  1  0  0  0  0 
 26  5  1  0  0  0  0 
 29  7  1  0  0  0  0 
 30  8  1  0  0  0  0 
M  END 
>  <HBA> 
0 
 
>  <HBD> 
0 
 
>  <TPSA> 
0.0 
 
>  <cid> 
66294 
 
>  <dipole> 
0.15 
 
>  <excitation_energy_1> 
5.071 
 
>  <excitation_energy_2> 
5.558 
 
>  <excitation_energy_3> 
5.604 
 
>  <excitation_energy_4> 
5.801 
 
>  <homo_energy> 
-5.897 
 
>  <homo_lumo_gap> 
6.131 
 
>  <logP> 
3.735 
 
>  <lumo_energy> 
0.234 
 
>  <melting_point> 
20.34 
 
>  <molecular_refractivity> 
55.92 
 
>  <oscillator_strength_1> 
0.0029 
 
>  <oscillator_strength_2> 
0.0022 
 
>  <oscillator_strength_3> 
0.0455 
 
>  <oscillator_strength_4> 
0.0002 
 
>  <open_babel_can_smiles> 
CC(c1cc(C)c(cc1C)C)C 
 
>  <mulliken_charges> 
30 
1   -0.443261 
2   -0.447581 
3   -0.534344 
4   -0.534552 
5   -0.542662 
6   -0.251521 
7   -0.270674 
8   -0.156874 
9   0.14145 
10   0.145647 
11   0.131112 
12   0.138355 
13   0.138912 
14   0.146676 
15   0.148665 
16   0.138779 
17   0.14735 
18   0.145837 
19   0.153274 
20   0.157391 
21   0.15651 
22   0.153049 
23   0.156944 
24   0.156352 
25   0.151661 
26   0.158931 
27   0.164036 
28   0.108987 
29   0.111397 
30   0.130154 
 
>  <lowdin_charges> 
30 
1   -0.445487 
2   -0.449423 
3   -0.443239 
4   -0.442637 
5   -0.447379 
6   -0.177013 
7   -0.178984 
8   -0.118625 
9   -0.012589 
10   -0.013446 
11   -0.010947 
12   -0.016023 
13   0.147959 
14   0.147655 
15   0.152557 
16   0.148908 
17   0.152437 
18   0.150696 
19   0.15705 
20   0.157841 
21   0.157183 
22   0.156347 
23   0.157396 
24   0.156842 
25   0.155287 
26   0.155728 
27   0.160433 
28   0.148478 
29   0.148339 
30   0.144655 
 
$$$$ 
 
