PCCDB-ID:  36407 
public computational chemistry database (PCCDB) project, http://pccdb.org 
 
 32 34  0  0  1  0  0  0  0  0999 V2000 
   -3.7261    0.2085    0.8312 C   0  0  0  0  0  0  0  0  0  0  0  0 
   -3.3820   -1.1368    0.9283 C   0  0  0  0  0  0  0  0  0  0  0  0 
    3.6341   -1.0231    0.3955 C   0  0  0  0  0  0  0  0  0  0  0  0 
   -2.8547    1.0897    0.1926 C   0  0  0  0  0  0  0  0  0  0  0  0 
   -2.1758   -1.5912    0.3914 C   0  0  0  0  0  0  0  0  0  0  0  0 
    2.4373   -1.4841   -0.1413 C   0  0  0  0  0  0  0  0  0  0  0  0 
   -0.6949    1.6330   -0.9844 C   0  0  0  0  0  0  0  0  0  0  0  0 
    0.5473    1.8732   -0.1165 C   0  0  0  0  0  0  0  0  0  0  0  0 
    3.7022    0.3141    0.7710 C   0  0  0  0  0  0  0  0  0  0  0  0 
   -1.6417    0.6495   -0.3464 C   0  0  0  0  0  0  0  0  0  0  0  0 
   -1.2861   -0.7102   -0.2401 C   0  0  0  0  0  0  0  0  0  0  0  0 
    1.3303   -0.6290   -0.2887 C   0  0  0  0  0  0  0  0  0  0  0  0 
    1.5329    0.7276    0.0643 C   0  0  0  0  0  0  0  0  0  0  0  0 
    0.0202   -1.1843   -0.9066 C   0  0  1  0  0  0  0  0  0  0  0  0 
    0.0559   -2.7124   -1.0267 C   0  0  0  0  0  0  0  0  0  0  0  0 
   -0.0570   -3.4027   -2.0838 N   0  0  0  0  0  0  0  0  0  0  0  0 
    2.6908    1.1627    0.5946 N   0  0  0  0  0  0  0  0  0  0  0  0 
    0.2150   -3.4031    0.1436 O   0  0  0  0  0  0  0  0  0  0  0  0 
   -4.6645    0.5703    1.2424 H   0  0  0  0  0  0  0  0  0  0  0  0 
   -4.0506   -1.8431    1.4126 H   0  0  0  0  0  0  0  0  0  0  0  0 
    4.4860   -1.6856    0.5143 H   0  0  0  0  0  0  0  0  0  0  0  0 
   -3.1172    2.1416    0.1045 H   0  0  0  0  0  0  0  0  0  0  0  0 
   -1.9443   -2.6478    0.4615 H   0  0  0  0  0  0  0  0  0  0  0  0 
    2.3682   -2.5229   -0.4441 H   0  0  0  0  0  0  0  0  0  0  0  0 
   -0.3901    1.3005   -1.9865 H   0  0  0  0  0  0  0  0  0  0  0  0 
   -1.2051    2.5920   -1.1262 H   0  0  0  0  0  0  0  0  0  0  0  0 
    0.2255    2.2023    0.8810 H   0  0  0  0  0  0  0  0  0  0  0  0 
    1.1282    2.7075   -0.5260 H   0  0  0  0  0  0  0  0  0  0  0  0 
    4.6062    0.7287    1.2149 H   0  0  0  0  0  0  0  0  0  0  0  0 
   -0.0119   -0.8252   -1.9440 H   0  0  0  0  0  0  0  0  0  0  0  0 
   -0.1770   -2.7909   -2.8919 H   0  0  0  0  0  0  0  0  0  0  0  0 
    0.3330   -2.7734    0.8733 H   0  0  0  0  0  0  0  0  0  0  0  0 
  1  2  1  0  0  0  0 
  1 19  1  0  0  0  0 
  2 20  1  0  0  0  0 
  3 21  1  0  0  0  0 
  3  9  2  0  0  0  0 
  4  1  2  0  0  0  0 
  5 23  1  0  0  0  0 
  5  2  2  0  0  0  0 
  6  3  1  0  0  0  0 
  7 10  1  0  0  0  0 
  7  8  1  0  0  0  0 
  8 13  1  0  0  0  0 
  8 27  1  0  0  0  0 
  9 29  1  0  0  0  0 
 10 11  2  0  0  0  0 
 10  4  1  0  0  0  0 
 11  5  1  0  0  0  0 
 12  6  2  0  0  0  0 
 12 13  1  0  0  0  0 
 13 17  2  0  0  0  0 
 14 30  1  6  0  0  0 
 14 12  1  0  0  0  0 
 14 11  1  0  0  0  0 
 15 14  1  0  0  0  0 
 15 18  1  0  0  0  0 
 16 15  2  0  0  0  0 
 17  9  1  0  0  0  0 
 18 32  1  0  0  0  0 
 22  4  1  0  0  0  0 
 24  6  1  0  0  0  0 
 25  7  1  0  0  0  0 
 26  7  1  0  0  0  0 
 28  8  1  0  0  0  0 
 31 16  1  0  0  0  0 
M  END 
>  <HBA> 
3 
 
>  <HBD> 
1 
 
>  <TPSA> 
55.98 
 
>  <cid> 
36407 
 
>  <dipole> 
2.62 
 
>  <excitation_energy_1> 
4.753 
 
>  <excitation_energy_2> 
4.985 
 
>  <excitation_energy_3> 
5.077 
 
>  <excitation_energy_4> 
5.231 
 
>  <homo_energy> 
-6.71 
 
>  <homo_lumo_gap> 
5.85 
 
>  <logP> 
2.498 
 
>  <lumo_energy> 
-0.86 
 
>  <melting_point> 
160.28 
 
>  <molecular_refractivity> 
69.22 
 
>  <oscillator_strength_1> 
0.0063 
 
>  <oscillator_strength_2> 
0.0007 
 
>  <oscillator_strength_3> 
0.0109 
 
>  <oscillator_strength_4> 
0.065 
 
>  <open_babel_can_smiles> 
OC(=N)[C@H]1c2ccccc2CCc2c1cccn2 
 
>  <mulliken_charges> 
32 
1   -0.119682 
2   -0.138907 
3   -0.150387 
4   -0.192405 
5   -0.200857 
6   -0.166066 
7   -0.366092 
8   -0.307888 
9   0.044965 
10   0.130858 
11   0.100185 
12   0.082097 
13   0.242515 
14   -0.326204 
15   0.470497 
16   -0.588011 
17   -0.471068 
18   -0.581116 
19   0.133186 
20   0.13568 
21   0.143172 
22   0.127706 
23   0.163112 
24   0.181347 
25   0.14869 
26   0.149687 
27   0.168681 
28   0.168161 
29   0.143874 
30   0.17023 
31   0.288891 
32   0.415146 
 
>  <lowdin_charges> 
32 
1   -0.151961 
2   -0.157971 
3   -0.181002 
4   -0.163166 
5   -0.173777 
6   -0.146905 
7   -0.277957 
8   -0.27612 
9   -0.085089 
10   -0.008375 
11   -0.022026 
12   -0.044922 
13   0.049115 
14   -0.156845 
15   0.12431 
16   -0.384457 
17   -0.155022 
18   -0.365757 
19   0.160047 
20   0.162442 
21   0.167896 
22   0.15516 
23   0.170712 
24   0.178347 
25   0.149131 
26   0.156978 
27   0.164089 
28   0.168111 
29   0.158218 
30   0.168027 
31   0.259621 
32   0.35915 
 
$$$$ 
 
