PCCDB-ID:  10041 
public computational chemistry database (PCCDB) project, http://pccdb.org 
 
 17 16  0  0  0  0  0  0  0  0999 V2000 
    0.8872   -0.0246    0.0286 C   0  0  0  0  0  0  0  0  0  0  0  0 
    2.9408    0.5920    1.3434 C   0  0  0  0  0  0  0  0  0  0  0  0 
    2.9409   -1.4716   -0.0947 C   0  0  0  0  0  0  0  0  0  0  0  0 
    2.9408    0.8057   -1.1630 C   0  0  0  0  0  0  0  0  0  0  0  0 
    2.4275   -0.0246    0.0285 C   0  0  0  0  0  0  0  0  0  0  0  0 
    0.4913   -0.6095    0.8681 H   0  0  0  0  0  0  0  0  0  0  0  0 
    0.4910   -0.4591   -0.8976 H   0  0  0  0  0  0  0  0  0  0  0  0 
    0.4916    0.9950    0.1157 H   0  0  0  0  0  0  0  0  0  0  0  0 
    2.5904    0.0206    2.2120 H   0  0  0  0  0  0  0  0  0  0  0  0 
    2.5904    1.6251    1.4598 H   0  0  0  0  0  0  0  0  0  0  0  0 
    4.0374    0.6056    1.3726 H   0  0  0  0  0  0  0  0  0  0  0  0 
    2.5904   -2.0887    0.7420 H   0  0  0  0  0  0  0  0  0  0  0  0 
    4.0376   -1.5043   -0.0974 H   0  0  0  0  0  0  0  0  0  0  0  0 
    2.5905   -1.9380   -1.0239 H   0  0  0  0  0  0  0  0  0  0  0  0 
    2.5903    1.8437   -1.1026 H   0  0  0  0  0  0  0  0  0  0  0  0 
    2.5905    0.3898   -2.1159 H   0  0  0  0  0  0  0  0  0  0  0  0 
    4.0374    0.8246   -1.1898 H   0  0  0  0  0  0  0  0  0  0  0  0 
  1  8  1  0  0  0  0 
  1  6  1  0  0  0  0 
  2 11  1  0  0  0  0 
  2 10  1  0  0  0  0 
  2  9  1  0  0  0  0 
  3  5  1  0  0  0  0 
  3 12  1  0  0  0  0 
  4 15  1  0  0  0  0 
  4  5  1  0  0  0  0 
  5  1  1  0  0  0  0 
  5  2  1  0  0  0  0 
  7  1  1  0  0  0  0 
 13  3  1  0  0  0  0 
 14  3  1  0  0  0  0 
 16  4  1  0  0  0  0 
 17  4  1  0  0  0  0 
M  END 
>  <HBA> 
0 
 
>  <HBD> 
0 
 
>  <TPSA> 
0.0 
 
>  <cid> 
10041 
 
>  <dipole> 
0.0 
 
>  <excitation_energy_1> 
8.037 
 
>  <excitation_energy_2> 
8.038 
 
>  <excitation_energy_3> 
8.038 
 
>  <excitation_energy_4> 
8.788 
 
>  <homo_energy> 
-8.563 
 
>  <homo_lumo_gap> 
10.626 
 
>  <logP> 
2.052 
 
>  <lumo_energy> 
2.063 
 
>  <melting_point> 
-7.21 
 
>  <molecular_refractivity> 
25.89 
 
>  <oscillator_strength_1> 
0.1022 
 
>  <oscillator_strength_2> 
0.1022 
 
>  <oscillator_strength_3> 
0.1023 
 
>  <oscillator_strength_4> 
0.0048 
 
>  <open_babel_can_smiles> 
CC(C)(C)C 
 
>  <mulliken_charges> 
17 
1   -0.435266 
2   -0.435312 
3   -0.435307 
4   -0.435311 
5   0.103298 
6   0.136486 
7   0.136493 
8   0.136506 
9   0.136475 
10   0.136496 
11   0.136496 
12   0.136502 
13   0.136503 
14   0.136477 
15   0.136482 
16   0.136465 
17   0.136516 
 
>  <lowdin_charges> 
17 
1   -0.442979 
2   -0.439614 
3   -0.441342 
4   -0.438731 
5   0.018842 
6   0.146716 
7   0.146189 
8   0.14512 
9   0.14643 
10   0.1448 
11   0.14378 
12   0.146674 
13   0.143792 
14   0.146099 
15   0.144679 
16   0.14576 
17   0.143783 
 
$$$$ 
 
