PCCDB-ID:  35236 
public computational chemistry database (PCCDB) project, http://pccdb.org 
 
 30 30  0  0  1  0  0  0  0  0999 V2000 
    0.6341    0.5267    0.2255 C   0  0  0  0  0  0  0  0  0  0  0  0 
    4.1285   -4.4090   -1.4851 C   0  0  0  0  0  0  0  0  0  0  0  0 
    7.0600    3.6192    0.0452 C   0  0  0  0  0  0  0  0  0  0  0  0 
    3.4345   -5.6984   -1.5320 C   0  0  0  0  0  0  0  0  0  0  0  0 
    8.5199    3.6203   -0.0752 C   0  0  0  0  0  0  0  0  0  0  0  0 
    3.6684   -3.5370   -0.2951 C   0  0  0  0  0  0  0  0  0  0  0  0 
    6.4601    2.2041   -0.0650 C   0  0  0  0  0  0  0  0  0  0  0  0 
    2.1039    0.2436    0.0962 C   0  0  2  0  0  0  0  0  0  0  0  0 
    3.8967   -1.1968   -0.1559 C   0  0  0  0  0  0  0  0  0  0  0  0 
    4.3247    1.2369    0.0156 C   0  0  0  0  0  0  0  0  0  0  0  0 
    2.8733   -6.7145   -1.5531 N   0  0  0  0  0  0  0  0  0  0  0  0 
    9.6763    3.5997   -0.1733 N   0  0  0  0  0  0  0  0  0  0  0  0 
    4.4728   -2.3307   -0.2706 N   0  0  0  0  0  0  0  0  0  0  0  0 
    5.0196    2.3086    0.0607 N   0  0  0  0  0  0  0  0  0  0  0  0 
    2.5259   -0.9726   -0.0410 N   0  0  0  0  0  0  0  0  0  0  0  0 
    2.9342    1.3339    0.1372 N   0  0  0  0  0  0  0  0  0  0  0  0 
    4.7417   -0.0633   -0.1459 N   0  0  0  0  0  0  0  0  0  0  0  0 
    0.0839   -0.4126    0.1712 H   0  0  0  0  0  0  0  0  0  0  0  0 
    0.2930    1.1920   -0.5767 H   0  0  0  0  0  0  0  0  0  0  0  0 
    0.4155    1.0165    1.1821 H   0  0  0  0  0  0  0  0  0  0  0  0 
    3.9489   -3.8757   -2.4261 H   0  0  0  0  0  0  0  0  0  0  0  0 
    5.2087   -4.5807   -1.4154 H   0  0  0  0  0  0  0  0  0  0  0  0 
    6.6310    4.2558   -0.7368 H   0  0  0  0  0  0  0  0  0  0  0  0 
    6.7752    4.0593    1.0075 H   0  0  0  0  0  0  0  0  0  0  0  0 
    3.8454   -4.0975    0.6324 H   0  0  0  0  0  0  0  0  0  0  0  0 
    2.5924   -3.3418   -0.3649 H   0  0  0  0  0  0  0  0  0  0  0  0 
    6.9020    1.5712    0.7222 H   0  0  0  0  0  0  0  0  0  0  0  0 
    6.7608    1.7673   -1.0313 H   0  0  0  0  0  0  0  0  0  0  0  0 
    2.5770    2.2728    0.2553 H   0  0  0  0  0  0  0  0  0  0  0  0 
    5.7296   -0.2643   -0.2273 H   0  0  0  0  0  0  0  0  0  0  0  0 
  1 20  1  0  0  0  0 
  2 22  1  0  0  0  0 
  2  6  1  0  0  0  0 
  3 24  1  0  0  0  0 
  4  2  1  0  0  0  0 
  5  3  1  0  0  0  0 
  6 13  1  0  0  0  0 
  6 25  1  0  0  0  0 
  7  3  1  0  0  0  0 
  7 14  1  0  0  0  0 
  7 27  1  0  0  0  0 
  8 16  1  0  0  0  0 
  8  1  1  1  0  0  0 
  9 17  1  0  0  0  0 
  9 15  2  0  0  0  0 
 10 14  2  0  0  0  0 
 10 16  1  0  0  0  0 
 11  4  3  0  0  0  0 
 12  5  3  0  0  0  0 
 13  9  1  0  0  0  0 
 15  8  1  0  0  0  0 
 16 29  1  0  0  0  0 
 17 10  1  0  0  0  0 
 18  1  1  0  0  0  0 
 19  1  1  0  0  0  0 
 21  2  1  0  0  0  0 
 23  3  1  0  0  0  0 
 26  6  1  0  0  0  0 
 28  7  1  0  0  0  0 
 30 17  1  0  0  0  0 
M  RAD  2   8   2  13   2 
M  END 
>  <HBA> 
7 
 
>  <HBD> 
2 
 
>  <TPSA> 
110.31 
 
>  <cid> 
35236 
 
>  <dipole> 
7.2 
 
>  <excitation_energy_1> 
4.802 
 
>  <excitation_energy_2> 
4.901 
 
>  <excitation_energy_3> 
4.943 
 
>  <excitation_energy_4> 
5.534 
 
>  <homo_energy> 
-6.776 
 
>  <homo_lumo_gap> 
5.431 
 
>  <logP> 
0.977 
 
>  <lumo_energy> 
-1.344 
 
>  <melting_point> 
189.93 
 
>  <molecular_refractivity> 
62.13 
 
>  <oscillator_strength_1> 
0.0327 
 
>  <oscillator_strength_2> 
0.1086 
 
>  <oscillator_strength_3> 
0.0573 
 
>  <oscillator_strength_4> 
0.0004 
 
>  <open_babel_can_smiles> 
N#CCC[N]C1=N[C](C)N/C(=N/CCC#N)/N1 
 
>  <mulliken_charges> 
30 
1   -0.537611 
2   -0.337319 
3   -0.337903 
4   0.34547 
5   0.345457 
6   -0.143625 
7   -0.158431 
8   0.527894 
9   0.667767 
10   0.778066 
11   -0.476247 
12   -0.471074 
13   -0.50994 
14   -0.52132 
15   -0.512655 
16   -0.673265 
17   -0.717579 
18   0.208158 
19   0.182306 
20   0.183139 
21   0.191646 
22   0.200223 
23   0.202403 
24   0.202295 
25   0.16298 
26   0.175044 
27   0.156179 
28   0.157109 
29   0.35408 
30   0.356754 
 
>  <lowdin_charges> 
30 
1   -0.450413 
2   -0.275326 
3   -0.272748 
4   -0.017386 
5   -0.021568 
6   -0.18869 
7   -0.196589 
8   0.131037 
9   0.123818 
10   0.142069 
11   -0.133196 
12   -0.125648 
13   -0.240443 
14   -0.276226 
15   -0.22116 
16   -0.222519 
17   -0.244904 
18   0.190138 
19   0.175604 
20   0.175276 
21   0.180116 
22   0.182894 
23   0.187328 
24   0.186066 
25   0.156405 
26   0.152821 
27   0.145586 
28   0.145048 
29   0.307407 
30   0.305202 
 
$$$$ 
 
