PCCDB-ID:  12301 
public computational chemistry database (PCCDB) project, http://pccdb.org 
 
 15 14  0  0  0  0  0  0  0  0999 V2000 
    1.0604    0.6283   -0.7823 C   0  0  0  0  0  0  0  0  0  0  0  0 
    2.5224    0.9686   -0.5537 C   0  0  0  0  0  0  0  0  0  0  0  0 
    4.4519    0.1875    0.6195 C   0  0  0  0  0  0  0  0  0  0  0  0 
    4.9301   -0.9349    1.5437 C   0  0  0  0  0  0  0  0  0  0  0  0 
    6.0644   -0.9926    1.9480 O   0  0  0  0  0  0  0  0  0  0  0  0 
    3.9887   -1.8404    1.8628 O   0  0  0  0  0  0  0  0  0  0  0  0 
    3.0851   -0.0129    0.3151 O   0  0  0  0  0  0  0  0  0  0  0  0 
    0.6014    1.3658   -1.4491 H   0  0  0  0  0  0  0  0  0  0  0  0 
    0.5112    0.6293    0.1647 H   0  0  0  0  0  0  0  0  0  0  0  0 
    0.9613   -0.3609   -1.2406 H   0  0  0  0  0  0  0  0  0  0  0  0 
    2.6286    1.9650   -0.0971 H   0  0  0  0  0  0  0  0  0  0  0  0 
    3.0786    0.9776   -1.5041 H   0  0  0  0  0  0  0  0  0  0  0  0 
    5.0759    0.1778   -0.2867 H   0  0  0  0  0  0  0  0  0  0  0  0 
    4.6178    1.1485    1.1292 H   0  0  0  0  0  0  0  0  0  0  0  0 
    3.1628   -1.5709    1.4112 H   0  0  0  0  0  0  0  0  0  0  0  0 
  1  2  1  0  0  0  0 
  1  9  1  0  0  0  0 
  2 11  1  0  0  0  0 
  2  7  1  0  0  0  0 
  3 14  1  0  0  0  0 
  3  4  1  0  0  0  0 
  4  6  1  0  0  0  0 
  4  5  2  0  0  0  0 
  7  3  1  0  0  0  0 
  8  1  1  0  0  0  0 
 10  1  1  0  0  0  0 
 12  2  1  0  0  0  0 
 13  3  1  0  0  0  0 
 15  6  1  0  0  0  0 
M  END 
>  <HBA> 
3 
 
>  <HBD> 
1 
 
>  <TPSA> 
46.53 
 
>  <cid> 
12301 
 
>  <dipole> 
5.23 
 
>  <excitation_energy_1> 
5.801 
 
>  <excitation_energy_2> 
6.865 
 
>  <excitation_energy_3> 
7.002 
 
>  <excitation_energy_4> 
7.098 
 
>  <homo_energy> 
-7.309 
 
>  <homo_lumo_gap> 
7.695 
 
>  <logP> 
0.107 
 
>  <lumo_energy> 
0.386 
 
>  <melting_point> 
42.97 
 
>  <molecular_refractivity> 
24.2 
 
>  <oscillator_strength_1> 
0.0005 
 
>  <oscillator_strength_2> 
0.0189 
 
>  <oscillator_strength_3> 
0.0142 
 
>  <oscillator_strength_4> 
0.0074 
 
>  <open_babel_can_smiles> 
CCOCC(=O)O 
 
>  <mulliken_charges> 
15 
1   -0.461221 
2   -0.008483 
3   -0.109787 
4   0.574486 
5   -0.448741 
6   -0.569016 
7   -0.509387 
8   0.156211 
9   0.164185 
10   0.164105 
11   0.136524 
12   0.136617 
13   0.170597 
14   0.170754 
15   0.433156 
 
>  <lowdin_charges> 
15 
1   -0.449625 
2   -0.120376 
3   -0.170515 
4   0.180201 
5   -0.244658 
6   -0.34521 
7   -0.287936 
8   0.162827 
9   0.159974 
10   0.159495 
11   0.134658 
12   0.135131 
13   0.160829 
14   0.160124 
15   0.365083 
 
$$$$ 
 
