PCCDB-ID:  7405 
public computational chemistry database (PCCDB) project, http://pccdb.org 
 
 16 16  0  0  1  0  0  0  0  0999 V2000 
   -1.3368    0.2173   -0.0516 C   0  0  0  0  0  0  0  0  0  0  0  0 
   -0.3261    1.3417    0.2535 C   0  0  0  0  0  0  0  0  0  0  0  0 
   -0.4939   -0.7791   -0.8971 C   0  0  2  0  0  0  0  0  0  0  0  0 
    0.9898    0.6447   -0.0448 C   0  0  0  0  0  0  0  0  0  0  0  0 
   -0.7814   -2.2518   -0.5791 C   0  0  0  0  0  0  0  0  0  0  0  0 
    0.9227   -0.4701   -0.6588 N   0  0  0  0  0  0  0  0  0  0  0  0 
    2.1790    1.1794    0.2933 O   0  0  0  0  0  0  0  0  0  0  0  0 
   -1.8990   -2.6814   -0.4178 O   0  0  0  0  0  0  0  0  0  0  0  0 
    0.3153   -3.0277   -0.5221 O   0  0  0  0  0  0  0  0  0  0  0  0 
   -1.6741   -0.2686    0.8681 H   0  0  0  0  0  0  0  0  0  0  0  0 
   -2.2254    0.5666   -0.5805 H   0  0  0  0  0  0  0  0  0  0  0  0 
   -0.3746    1.7115    1.2851 H   0  0  0  0  0  0  0  0  0  0  0  0 
   -0.4452    2.2102   -0.4090 H   0  0  0  0  0  0  0  0  0  0  0  0 
   -0.7036   -0.6556   -1.9701 H   0  0  0  0  0  0  0  0  0  0  0  0 
    2.0329    2.0037    0.7824 H   0  0  0  0  0  0  0  0  0  0  0  0 
    1.0887   -2.4276   -0.6190 H   0  0  0  0  0  0  0  0  0  0  0  0 
  1  2  1  0  0  0  0 
  1 10  1  0  0  0  0 
  2 12  1  0  0  0  0 
  3 14  1  6  0  0  0 
  3  6  1  0  0  0  0 
  3  5  1  0  0  0  0 
  3  1  1  0  0  0  0 
  4  2  1  0  0  0  0 
  4  7  1  0  0  0  0 
  5  9  1  0  0  0  0 
  5  8  2  0  0  0  0 
  6  4  2  0  0  0  0 
  7 15  1  0  0  0  0 
 11  1  1  0  0  0  0 
 13  2  1  0  0  0  0 
 16  9  1  0  0  0  0 
M  END 
>  <HBA> 
4 
 
>  <HBD> 
2 
 
>  <TPSA> 
66.4 
 
>  <cid> 
7405 
 
>  <dipole> 
6.5 
 
>  <excitation_energy_1> 
5.551 
 
>  <excitation_energy_2> 
5.844 
 
>  <excitation_energy_3> 
6.215 
 
>  <excitation_energy_4> 
6.381 
 
>  <homo_energy> 
-6.885 
 
>  <homo_lumo_gap> 
6.833 
 
>  <logP> 
-0.322 
 
>  <lumo_energy> 
-0.052 
 
>  <melting_point> 
122.41 
 
>  <molecular_refractivity> 
32.72 
 
>  <oscillator_strength_1> 
0.0021 
 
>  <oscillator_strength_2> 
0.0013 
 
>  <oscillator_strength_3> 
0.0614 
 
>  <oscillator_strength_4> 
0.0021 
 
>  <open_babel_can_smiles> 
OC(=O)[C@H]1CCC(=N1)O 
 
>  <mulliken_charges> 
16 
1   -0.28834 
2   -0.380911 
3   -0.078031 
4   0.511727 
5   0.59686 
6   -0.473098 
7   -0.573893 
8   -0.461342 
9   -0.57631 
10   0.179409 
11   0.166049 
12   0.164903 
13   0.178334 
14   0.181626 
15   0.420489 
16   0.432528 
 
>  <lowdin_charges> 
16 
1   -0.277729 
2   -0.313802 
3   -0.100046 
4   0.129367 
5   0.179812 
6   -0.233739 
7   -0.33599 
8   -0.255331 
9   -0.348885 
10   0.167238 
11   0.165078 
12   0.160322 
13   0.167584 
14   0.165549 
15   0.367861 
16   0.362711 
 
$$$$ 
 
