PCCDB-ID:  65745 
public computational chemistry database (PCCDB) project, http://pccdb.org 
 
 17 17  0  0  0  0  0  0  0  0999 V2000 
   -0.8671   -0.4609    0.1242 C   0  0  0  0  0  0  0  0  0  0  0  0 
    1.2553   -0.7472   -0.0984 C   0  0  0  0  0  0  0  0  0  0  0  0 
    1.0739    0.6088    0.1477 C   0  0  0  0  0  0  0  0  0  0  0  0 
    2.4769   -1.5696   -0.3059 C   0  0  0  0  0  0  0  0  0  0  0  0 
    1.9461    1.7891    0.1722 C   0  0  0  0  0  0  0  0  0  0  0  0 
    3.6819   -1.2913    0.0078 N   0  0  0  0  0  0  0  0  0  0  0  0 
    3.1262    1.9480   -0.2759 N   0  0  0  0  0  0  0  0  0  0  0  0 
    0.0372   -1.3871   -0.1199 N   0  0  0  0  0  0  0  0  0  0  0  0 
   -0.2919    0.7548    0.2987 N   0  0  0  0  0  0  0  0  0  0  0  0 
    2.2149   -2.7531   -0.9016 O   0  0  0  0  0  0  0  0  0  0  0  0 
    1.3023    2.8409    0.7561 O   0  0  0  0  0  0  0  0  0  0  0  0 
   -1.9350   -0.6190    0.1854 H   0  0  0  0  0  0  0  0  0  0  0  0 
    3.7246   -0.4024    0.5060 H   0  0  0  0  0  0  0  0  0  0  0  0 
    3.4821    1.1113   -0.7382 H   0  0  0  0  0  0  0  0  0  0  0  0 
   -0.7448    1.6373    0.4965 H   0  0  0  0  0  0  0  0  0  0  0  0 
    1.2430   -2.8404   -0.9570 H   0  0  0  0  0  0  0  0  0  0  0  0 
    1.9160    3.5959    0.6837 H   0  0  0  0  0  0  0  0  0  0  0  0 
  1 12  1  0  0  0  0 
  1  9  1  0  0  0  0 
  2  3  2  0  0  0  0 
  3  5  1  0  0  0  0 
  3  9  1  0  0  0  0 
  4  2  1  0  0  0  0 
  4  6  2  0  0  0  0 
  5 11  1  0  0  0  0 
  6 13  1  0  0  0  0 
  7  5  2  0  0  0  0 
  8  2  1  0  0  0  0 
  8  1  2  0  0  0  0 
  9 15  1  0  0  0  0 
 10  4  1  0  0  0  0 
 14  7  1  0  0  0  0 
 16 10  1  0  0  0  0 
 17 11  1  0  0  0  0 
M  END 
>  <HBA> 
5 
 
>  <HBD> 
3 
 
>  <TPSA> 
114.86 
 
>  <cid> 
65745 
 
>  <dipole> 
7.15 
 
>  <excitation_energy_1> 
4.532 
 
>  <excitation_energy_2> 
4.677 
 
>  <excitation_energy_3> 
5.229 
 
>  <excitation_energy_4> 
5.452 
 
>  <homo_energy> 
-6.77 
 
>  <homo_lumo_gap> 
5.151 
 
>  <logP> 
0.008 
 
>  <lumo_energy> 
-1.619 
 
>  <melting_point> 
246.72 
 
>  <molecular_refractivity> 
34.78 
 
>  <oscillator_strength_1> 
0.0239 
 
>  <oscillator_strength_2> 
0.0621 
 
>  <oscillator_strength_3> 
0.0967 
 
>  <oscillator_strength_4> 
0.0283 
 
>  <open_babel_can_smiles> 
OC(=N)c1[nH]cnc1C(=N)O 
 
>  <mulliken_charges> 
17 
1   0.242817 
2   0.119579 
3   0.291407 
4   0.474243 
5   0.438325 
6   -0.609271 
7   -0.627023 
8   -0.515533 
9   -0.606251 
10   -0.590104 
11   -0.615513 
12   0.182882 
13   0.284464 
14   0.309702 
15   0.364095 
16   0.430935 
17   0.425246 
 
>  <lowdin_charges> 
17 
1   -0.060335 
2   -0.028956 
3   -0.025451 
4   0.123444 
5   0.125658 
6   -0.398859 
7   -0.410156 
8   -0.193073 
9   -0.149852 
10   -0.349935 
11   -0.381237 
12   0.178694 
13   0.255379 
14   0.273267 
15   0.311492 
16   0.359753 
17   0.370169 
 
$$$$ 
 
