PCCDB-ID:  22686 
public computational chemistry database (PCCDB) project, http://pccdb.org 
 
 15 14  0  0  0  0  0  0  0  0999 V2000 
    2.9132   -0.3712   -1.4860 C   0  0  0  0  0  0  0  0  0  0  0  0 
    2.3679   -0.1356   -0.0754 C   0  0  0  0  0  0  0  0  0  0  0  0 
    2.8914    1.1522    0.5772 C   0  0  0  0  0  0  0  0  0  0  0  0 
    5.0669    1.9750    0.3295 C   0  0  0  0  0  0  0  0  0  0  0  0 
    4.3250    1.0792    0.8237 N   0  0  0  0  0  0  0  0  0  0  0  0 
    6.4060    1.9944    0.5069 O   0  0  0  0  0  0  0  0  0  0  0  0 
    2.5230   -1.3026   -1.9112 H   0  0  0  0  0  0  0  0  0  0  0  0 
    4.0064   -0.4376   -1.4780 H   0  0  0  0  0  0  0  0  0  0  0  0 
    2.6319    0.4467   -2.1619 H   0  0  0  0  0  0  0  0  0  0  0  0 
    2.6291   -0.9829    0.5710 H   0  0  0  0  0  0  0  0  0  0  0  0 
    1.2713   -0.0828   -0.1032 H   0  0  0  0  0  0  0  0  0  0  0  0 
    2.3909    1.2872    1.5454 H   0  0  0  0  0  0  0  0  0  0  0  0 
    2.6201    2.0211   -0.0500 H   0  0  0  0  0  0  0  0  0  0  0  0 
    4.7464    2.8259   -0.2816 H   0  0  0  0  0  0  0  0  0  0  0  0 
    6.6155    1.2168    1.0582 H   0  0  0  0  0  0  0  0  0  0  0  0 
  1  8  1  0  0  0  0 
  1  2  1  0  0  0  0 
  2 10  1  0  0  0  0 
  2  3  1  0  0  0  0 
  3  5  1  0  0  0  0 
  3 12  1  0  0  0  0 
  4  6  1  0  0  0  0 
  4  5  2  0  0  0  0 
  6 15  1  0  0  0  0 
  7  1  1  0  0  0  0 
  9  1  1  0  0  0  0 
 11  2  1  0  0  0  0 
 13  3  1  0  0  0  0 
 14  4  1  0  0  0  0 
M  END 
>  <HBA> 
2 
 
>  <HBD> 
1 
 
>  <TPSA> 
29.1 
 
>  <cid> 
22686 
 
>  <dipole> 
0.6 
 
>  <excitation_energy_1> 
6.049 
 
>  <excitation_energy_2> 
6.623 
 
>  <excitation_energy_3> 
6.739 
 
>  <excitation_energy_4> 
6.911 
 
>  <homo_energy> 
-7.021 
 
>  <homo_lumo_gap> 
7.72 
 
>  <logP> 
1.169 
 
>  <lumo_energy> 
0.699 
 
>  <melting_point> 
23.34 
 
>  <molecular_refractivity> 
24.73 
 
>  <oscillator_strength_1> 
0.0013 
 
>  <oscillator_strength_2> 
0.0015 
 
>  <oscillator_strength_3> 
0.0623 
 
>  <oscillator_strength_4> 
0.0222 
 
>  <open_babel_can_smiles> 
CCC/N=C/O 
 
>  <mulliken_charges> 
15 
1   -0.444822 
2   -0.245385 
3   -0.142548 
4   0.280962 
5   -0.400517 
6   -0.560131 
7   0.143707 
8   0.153991 
9   0.136046 
10   0.145423 
11   0.130345 
12   0.144826 
13   0.114427 
14   0.137592 
15   0.406085 
 
>  <lowdin_charges> 
15 
1   -0.447474 
2   -0.275003 
3   -0.194237 
4   0.010218 
5   -0.231146 
6   -0.36365 
7   0.151037 
8   0.150187 
9   0.144426 
10   0.148824 
11   0.140473 
12   0.147247 
13   0.122878 
14   0.138476 
15   0.357746 
 
$$$$ 
 
