PCCDB-ID:  36380 
public computational chemistry database (PCCDB) project, http://pccdb.org 
 
 20 20  0  0  0  0  0  0  0  0999 V2000 
    0.4661    1.2206    0.1209 C   0  0  0  0  0  0  0  0  0  0  0  0 
    4.1726    1.6893   -0.6687 C   0  0  0  0  0  0  0  0  0  0  0  0 
    2.8036    1.9279   -0.5565 C   0  0  0  0  0  0  0  0  0  0  0  0 
    4.7203    0.4926   -0.2054 C   0  0  0  0  0  0  0  0  0  0  0  0 
    2.5063   -0.2204    0.4970 C   0  0  0  0  0  0  0  0  0  0  0  0 
    1.9545    0.9752    0.0241 C   0  0  0  0  0  0  0  0  0  0  0  0 
    3.8737   -0.4499    0.3690 C   0  0  0  0  0  0  0  0  0  0  0  0 
    4.0811   -2.8196    0.5646 C   0  0  0  0  0  0  0  0  0  0  0  0 
    3.1531   -3.0608   -0.2669 N   0  0  0  0  0  0  0  0  0  0  0  0 
    4.8633   -3.6783    1.2713 O   0  0  0  0  0  0  0  0  0  0  0  0 
    4.4859   -1.5822    0.9129 O   0  0  0  0  0  0  0  0  0  0  0  0 
    0.2432    2.2850    0.2510 H   0  0  0  0  0  0  0  0  0  0  0  0 
    0.0230    0.6750    0.9605 H   0  0  0  0  0  0  0  0  0  0  0  0 
   -0.0489    0.8883   -0.7903 H   0  0  0  0  0  0  0  0  0  0  0  0 
    4.8204    2.4391   -1.1147 H   0  0  0  0  0  0  0  0  0  0  0  0 
    2.3872    2.8647   -0.9191 H   0  0  0  0  0  0  0  0  0  0  0  0 
    5.7831    0.2852   -0.2730 H   0  0  0  0  0  0  0  0  0  0  0  0 
    1.8750   -0.9769    0.9488 H   0  0  0  0  0  0  0  0  0  0  0  0 
    3.0060   -4.0604   -0.4033 H   0  0  0  0  0  0  0  0  0  0  0  0 
    4.6005   -4.5837    1.0458 H   0  0  0  0  0  0  0  0  0  0  0  0 
  1 12  1  0  0  0  0 
  1 13  1  0  0  0  0 
  2  3  2  0  0  0  0 
  2  4  1  0  0  0  0 
  3  6  1  0  0  0  0 
  4  7  2  0  0  0  0 
  5 18  1  0  0  0  0 
  6  1  1  0  0  0  0 
  6  5  2  0  0  0  0 
  7  5  1  0  0  0  0 
  7 11  1  0  0  0  0 
  8 11  1  0  0  0  0 
  8 10  1  0  0  0  0 
  9  8  2  0  0  0  0 
 14  1  1  0  0  0  0 
 15  2  1  0  0  0  0 
 16  3  1  0  0  0  0 
 17  4  1  0  0  0  0 
 19  9  1  0  0  0  0 
 20 10  1  0  0  0  0 
M  END 
>  <HBA> 
3 
 
>  <HBD> 
1 
 
>  <TPSA> 
52.32 
 
>  <cid> 
36380 
 
>  <dipole> 
1.67 
 
>  <excitation_energy_1> 
5.191 
 
>  <excitation_energy_2> 
5.381 
 
>  <excitation_energy_3> 
5.633 
 
>  <excitation_energy_4> 
5.709 
 
>  <homo_energy> 
-6.294 
 
>  <homo_lumo_gap> 
6.387 
 
>  <logP> 
2.153 
 
>  <lumo_energy> 
0.093 
 
>  <melting_point> 
99.23 
 
>  <molecular_refractivity> 
41.2 
 
>  <oscillator_strength_1> 
0.001 
 
>  <oscillator_strength_2> 
0.002 
 
>  <oscillator_strength_3> 
0.002 
 
>  <oscillator_strength_4> 
0.051 
 
>  <open_babel_can_smiles> 
OC(=N)Oc1cccc(c1)C 
 
>  <mulliken_charges> 
20 
1   -0.527671 
2   -0.138478 
3   -0.171988 
4   -0.163199 
5   -0.174789 
6   0.160055 
7   0.355937 
8   0.626051 
9   -0.603794 
10   -0.563813 
11   -0.503568 
12   0.156157 
13   0.157314 
14   0.169422 
15   0.131879 
16   0.121222 
17   0.140048 
18   0.140939 
19   0.278285 
20   0.409989 
 
>  <lowdin_charges> 
20 
1   -0.440965 
2   -0.150633 
3   -0.173538 
4   -0.17513 
5   -0.172375 
6   0.008188 
7   0.111532 
8   0.194197 
9   -0.450616 
10   -0.359035 
11   -0.143166 
12   0.156382 
13   0.159256 
14   0.16436 
15   0.160707 
16   0.155145 
17   0.166389 
18   0.171098 
19   0.256538 
20   0.361665 
 
$$$$ 
 
