PCCDB-ID:  10949 
public computational chemistry database (PCCDB) project, http://pccdb.org 
 
 16 16  0  0  1  0  0  0  0  0999 V2000 
    1.1026    0.0036    0.0068 C   0  0  0  0  0  0  0  0  0  0  0  0 
    2.6051   -0.0397    0.0293 C   0  0  2  0  0  0  0  0  0  0  0  0 
    4.6321   -1.1600    0.0732 C   0  0  0  0  0  0  0  0  0  0  0  0 
    4.6412    1.3172    0.0492 C   0  0  0  0  0  0  0  0  0  0  0  0 
    5.3639   -2.2063    0.0952 N   0  0  0  0  0  0  0  0  0  0  0  0 
    5.3148    2.4030    0.0460 N   0  0  0  0  0  0  0  0  0  0  0  0 
    3.2275   -1.1685    0.0495 N   0  0  0  0  0  0  0  0  0  0  0  0 
    3.2413    1.1861    0.0308 N   0  0  0  0  0  0  0  0  0  0  0  0 
    5.2632    0.0907    0.0718 N   0  0  0  0  0  0  0  0  0  0  0  0 
    0.7182   -1.0161   -0.0188 H   0  0  0  0  0  0  0  0  0  0  0  0 
    0.7392    0.5472   -0.8739 H   0  0  0  0  0  0  0  0  0  0  0  0 
    0.7140    0.5108    0.8985 H   0  0  0  0  0  0  0  0  0  0  0  0 
    4.7528   -3.0246    0.0927 H   0  0  0  0  0  0  0  0  0  0  0  0 
    4.7107    3.2249    0.0302 H   0  0  0  0  0  0  0  0  0  0  0  0 
    2.6937    2.0347    0.0129 H   0  0  0  0  0  0  0  0  0  0  0  0 
    6.2751    0.0974    0.0873 H   0  0  0  0  0  0  0  0  0  0  0  0 
  1 12  1  0  0  0  0 
  2  1  1  1  0  0  0 
  2  8  1  0  0  0  0 
  2  7  1  0  0  0  0 
  3  5  1  0  0  0  0 
  4  9  1  0  0  0  0 
  6  4  2  0  0  0  0 
  7  3  2  0  0  0  0 
  8  4  1  0  0  0  0 
  9  3  1  0  0  0  0 
  9 16  1  0  0  0  0 
 10  1  1  0  0  0  0 
 11  1  1  0  0  0  0 
 13  5  1  0  0  0  0 
 14  6  1  0  0  0  0 
 15  8  1  0  0  0  0 
M  RAD  2   2   2   5   2 
M  END 
>  <HBA> 
5 
 
>  <HBD> 
2 
 
>  <TPSA> 
90.71 
 
>  <cid> 
10949 
 
>  <dipole> 
5.69 
 
>  <excitation_energy_1> 
4.845 
 
>  <excitation_energy_2> 
5.183 
 
>  <excitation_energy_3> 
5.314 
 
>  <excitation_energy_4> 
5.362 
 
>  <homo_energy> 
-6.321 
 
>  <homo_lumo_gap> 
5.489 
 
>  <logP> 
0.507 
 
>  <lumo_energy> 
-0.833 
 
>  <melting_point> 
153.98 
 
>  <molecular_refractivity> 
33.6 
 
>  <oscillator_strength_1> 
0.0226 
 
>  <oscillator_strength_2> 
0.0833 
 
>  <oscillator_strength_3> 
0.0064 
 
>  <oscillator_strength_4> 
0.0015 
 
>  <open_babel_can_smiles> 
N=C1N[C](C)N=C(N1)[NH] 
 
>  <mulliken_charges> 
16 
1   -0.538664 
2   0.523502 
3   0.60351 
4   0.689388 
5   -0.644967 
6   -0.64499 
7   -0.497095 
8   -0.675527 
9   -0.64299 
10   0.205887 
11   0.175586 
12   0.17794 
13   0.296377 
14   0.274888 
15   0.338177 
16   0.358979 
 
>  <lowdin_charges> 
16 
1   -0.451659 
2   0.125032 
3   0.117618 
4   0.139713 
5   -0.423803 
6   -0.455729 
7   -0.221921 
8   -0.256344 
9   -0.231082 
10   0.188159 
11   0.171054 
12   0.172385 
13   0.264592 
14   0.254904 
15   0.296802 
16   0.310278 
 
$$$$ 
 
