PCCDB-ID:  7490 
public computational chemistry database (PCCDB) project, http://pccdb.org 
 
 28 28  0  0  0  0  0  0  0  0999 V2000 
    1.5280    0.4495   -0.6662 C   0  0  0  0  0  0  0  0  0  0  0  0 
    2.9775   -1.5302   -0.3557 C   0  0  0  0  0  0  0  0  0  0  0  0 
    5.8084    3.8090    3.8847 C   0  0  0  0  0  0  0  0  0  0  0  0 
    6.2503    1.7284    5.0278 C   0  0  0  0  0  0  0  0  0  0  0  0 
    4.2521   -0.2070    1.8228 C   0  0  0  0  0  0  0  0  0  0  0  0 
    2.8259    1.7005    1.5474 C   0  0  0  0  0  0  0  0  0  0  0  0 
    4.9674    0.4756    2.8077 C   0  0  0  0  0  0  0  0  0  0  0  0 
    3.5310    2.3664    2.5414 C   0  0  0  0  0  0  0  0  0  0  0  0 
    3.1562    0.3812    1.1648 C   0  0  0  0  0  0  0  0  0  0  0  0 
    4.6263    1.7784    3.1981 C   0  0  0  0  0  0  0  0  0  0  0  0 
    2.4144   -0.3113    0.1977 N   0  0  0  0  0  0  0  0  0  0  0  0 
    5.3024    2.4838    4.2295 N   0  0  0  0  0  0  0  0  0  0  0  0 
    1.0373   -0.2345   -1.3626 H   0  0  0  0  0  0  0  0  0  0  0  0 
    2.0500    1.2252   -1.2527 H   0  0  0  0  0  0  0  0  0  0  0  0 
    0.7405    0.9399   -0.0832 H   0  0  0  0  0  0  0  0  0  0  0  0 
    2.2764   -1.9494   -1.0812 H   0  0  0  0  0  0  0  0  0  0  0  0 
    3.1226   -2.2814    0.4291 H   0  0  0  0  0  0  0  0  0  0  0  0 
    3.9473   -1.3750   -0.8596 H   0  0  0  0  0  0  0  0  0  0  0  0 
    6.0595    4.3515    4.8032 H   0  0  0  0  0  0  0  0  0  0  0  0 
    5.0504    4.3852    3.3516 H   0  0  0  0  0  0  0  0  0  0  0  0 
    6.7134    3.7680    3.2505 H   0  0  0  0  0  0  0  0  0  0  0  0 
    6.5495    2.3357    5.8888 H   0  0  0  0  0  0  0  0  0  0  0  0 
    7.1702    1.4455    4.4810 H   0  0  0  0  0  0  0  0  0  0  0  0 
    5.7796    0.8149    5.4031 H   0  0  0  0  0  0  0  0  0  0  0  0 
    4.5727   -1.2102    1.5675 H   0  0  0  0  0  0  0  0  0  0  0  0 
    1.9941    2.2156    1.0811 H   0  0  0  0  0  0  0  0  0  0  0  0 
    5.8140   -0.0285    3.2613 H   0  0  0  0  0  0  0  0  0  0  0  0 
    3.2085    3.3643    2.8248 H   0  0  0  0  0  0  0  0  0  0  0  0 
  1 15  1  0  0  0  0 
  1 11  1  0  0  0  0 
  2 11  1  0  0  0  0 
  2 17  1  0  0  0  0 
  3 12  1  0  0  0  0 
  3 19  1  0  0  0  0 
  4 24  1  0  0  0  0 
  4 22  1  0  0  0  0 
  5  7  2  0  0  0  0 
  6  8  1  0  0  0  0 
  7 10  1  0  0  0  0 
  7 27  1  0  0  0  0 
  8 28  1  0  0  0  0 
  8 10  2  0  0  0  0 
  9  6  2  0  0  0  0 
  9  5  1  0  0  0  0 
 10 12  1  0  0  0  0 
 11  9  1  0  0  0  0 
 12  4  1  0  0  0  0 
 13  1  1  0  0  0  0 
 14  1  1  0  0  0  0 
 16  2  1  0  0  0  0 
 18  2  1  0  0  0  0 
 20  3  1  0  0  0  0 
 21  3  1  0  0  0  0 
 23  4  1  0  0  0  0 
 25  5  1  0  0  0  0 
 26  6  1  0  0  0  0 
M  END 
>  <HBA> 
2 
 
>  <HBD> 
0 
 
>  <TPSA> 
6.48 
 
>  <cid> 
7490 
 
>  <dipole> 
1.17 
 
>  <excitation_energy_1> 
4.006 
 
>  <excitation_energy_2> 
4.05 
 
>  <excitation_energy_3> 
4.374 
 
>  <excitation_energy_4> 
4.568 
 
>  <homo_energy> 
-4.438 
 
>  <homo_lumo_gap> 
4.819 
 
>  <logP> 
1.819 
 
>  <lumo_energy> 
0.381 
 
>  <melting_point> 
23.01 
 
>  <molecular_refractivity> 
54.86 
 
>  <oscillator_strength_1> 
0.0483 
 
>  <oscillator_strength_2> 
0.022 
 
>  <oscillator_strength_3> 
0.0215 
 
>  <oscillator_strength_4> 
0.0002 
 
>  <open_babel_can_smiles> 
CN(c1ccc(cc1)N(C)C)C 
 
>  <mulliken_charges> 
28 
1   -0.307395 
2   -0.306955 
3   -0.304436 
4   -0.302316 
5   -0.20692 
6   -0.198371 
7   -0.199159 
8   -0.180603 
9   0.362498 
10   0.320185 
11   -0.47279 
12   -0.460487 
13   0.149806 
14   0.14272 
15   0.160949 
16   0.149628 
17   0.160892 
18   0.142325 
19   0.146993 
20   0.157876 
21   0.13079 
22   0.148408 
23   0.126377 
24   0.160736 
25   0.118056 
26   0.118938 
27   0.119915 
28   0.122338 
 
>  <lowdin_charges> 
28 
1   -0.35437 
2   -0.351847 
3   -0.350553 
4   -0.35597 
5   -0.201585 
6   -0.199123 
7   -0.192011 
8   -0.172468 
9   0.042766 
10   0.027445 
11   -0.129414 
12   -0.145791 
13   0.155772 
14   0.137093 
15   0.153198 
16   0.155333 
17   0.153003 
18   0.135019 
19   0.148217 
20   0.157119 
21   0.128248 
22   0.151757 
23   0.124833 
24   0.157083 
25   0.155814 
26   0.157973 
27   0.157878 
28   0.154581 
 
$$$$ 
 
