PCCDB-ID:  34222 
public computational chemistry database (PCCDB) project, http://pccdb.org 
 
 23 24  0  0  0  0  0  0  0  0999 V2000 
    0.8378    0.0399   -0.1974 C   0  0  0  0  0  0  0  0  0  0  0  0 
    6.7678   -2.2864    0.1673 C   0  0  0  0  0  0  0  0  0  0  0  0 
    3.1914   -3.6361   -0.0757 C   0  0  0  0  0  0  0  0  0  0  0  0 
    4.6009   -3.5692    0.0154 C   0  0  0  0  0  0  0  0  0  0  0  0 
    2.4375   -2.4858   -0.1144 C   0  0  0  0  0  0  0  0  0  0  0  0 
    3.0680    1.1893   -0.0430 C   0  0  0  0  0  0  0  0  0  0  0  0 
    4.4781    1.1424    0.0475 C   0  0  0  0  0  0  0  0  0  0  0  0 
    2.3425    0.0180   -0.1004 C   0  0  0  0  0  0  0  0  0  0  0  0 
    5.2664   -2.3603    0.0682 C   0  0  0  0  0  0  0  0  0  0  0  0 
    3.0686   -1.2144   -0.0635 C   0  0  0  0  0  0  0  0  0  0  0  0 
    4.4979   -1.1525    0.0285 C   0  0  0  0  0  0  0  0  0  0  0  0 
    5.1804    0.0294    0.0822 N   0  0  0  0  0  0  0  0  0  0  0  0 
    0.4647    1.0674   -0.2294 H   0  0  0  0  0  0  0  0  0  0  0  0 
    0.3726   -0.4612    0.6604 H   0  0  0  0  0  0  0  0  0  0  0  0 
    0.4857   -0.4752   -1.0996 H   0  0  0  0  0  0  0  0  0  0  0  0 
    7.2079   -3.2886    0.1674 H   0  0  0  0  0  0  0  0  0  0  0  0 
    7.0785   -1.7677    1.0810 H   0  0  0  0  0  0  0  0  0  0  0  0 
    7.1919   -1.7161   -0.6660 H   0  0  0  0  0  0  0  0  0  0  0  0 
    2.7049   -4.6071   -0.1161 H   0  0  0  0  0  0  0  0  0  0  0  0 
    5.1739   -4.4930    0.0440 H   0  0  0  0  0  0  0  0  0  0  0  0 
    1.3561   -2.5478   -0.1844 H   0  0  0  0  0  0  0  0  0  0  0  0 
    2.5652    2.1526   -0.0676 H   0  0  0  0  0  0  0  0  0  0  0  0 
    5.0430    2.0739    0.0924 H   0  0  0  0  0  0  0  0  0  0  0  0 
  1  8  1  0  0  0  0 
  1 14  1  0  0  0  0 
  2 16  1  0  0  0  0 
  2 17  1  0  0  0  0 
  3  4  1  0  0  0  0 
  4 20  1  0  0  0  0 
  4  9  2  0  0  0  0 
  5  3  2  0  0  0  0 
  5 10  1  0  0  0  0 
  6  7  2  0  0  0  0 
  7 12  1  0  0  0  0 
  7 23  1  0  0  0  0 
  8 10  2  0  0  0  0 
  8  6  1  0  0  0  0 
  9  2  1  0  0  0  0 
 10 11  1  0  0  0  0 
 11  9  1  0  0  0  0 
 11 12  2  0  0  0  0 
 13  1  1  0  0  0  0 
 15  1  1  0  0  0  0 
 18  2  1  0  0  0  0 
 19  3  1  0  0  0  0 
 21  5  1  0  0  0  0 
 22  6  1  0  0  0  0 
M  END 
>  <HBA> 
1 
 
>  <HBD> 
0 
 
>  <TPSA> 
12.89 
 
>  <cid> 
34222 
 
>  <dipole> 
2.04 
 
>  <excitation_energy_1> 
4.201 
 
>  <excitation_energy_2> 
4.271 
 
>  <excitation_energy_3> 
4.441 
 
>  <excitation_energy_4> 
5.191 
 
>  <homo_energy> 
-5.997 
 
>  <homo_lumo_gap> 
4.743 
 
>  <logP> 
2.852 
 
>  <lumo_energy> 
-1.254 
 
>  <melting_point> 
72.83 
 
>  <molecular_refractivity> 
51.67 
 
>  <oscillator_strength_1> 
0.0857 
 
>  <oscillator_strength_2> 
0.0015 
 
>  <oscillator_strength_3> 
0.0112 
 
>  <oscillator_strength_4> 
0.0 
 
>  <open_babel_can_smiles> 
Cc1cccc2c1nccc2C 
 
>  <mulliken_charges> 
23 
1   -0.534139 
2   -0.507042 
3   -0.121296 
4   -0.204282 
5   -0.208894 
6   -0.214286 
7   0.047524 
8   0.159644 
9   0.165644 
10   0.121403 
11   0.171222 
12   -0.502256 
13   0.160806 
14   0.170221 
15   0.169875 
16   0.140536 
17   0.170007 
18   0.170918 
19   0.129645 
20   0.124595 
21   0.127237 
22   0.127047 
23   0.13587 
 
>  <lowdin_charges> 
23 
1   -0.444105 
2   -0.436993 
3   -0.152906 
4   -0.168264 
5   -0.167265 
6   -0.195892 
7   -0.08554 
8   0.027142 
9   0.00626 
10   -0.023238 
11   0.033537 
12   -0.156416 
13   0.160202 
14   0.166097 
15   0.165515 
16   0.149459 
17   0.167973 
18   0.169023 
19   0.158301 
20   0.156762 
21   0.156739 
22   0.159491 
23   0.154119 
 
$$$$ 
 
