PCCDB-ID:  19490 
public computational chemistry database (PCCDB) project, http://pccdb.org 
 
 21 21  0  0  1  0  0  0  0  0999 V2000 
    0.8939   -0.1215   -0.0582 C   0  0  0  0  0  0  0  0  0  0  0  0 
    6.4288   -0.3039   -1.5252 C   0  0  0  0  0  0  0  0  0  0  0  0 
    2.9770    1.2404   -0.6613 C   0  0  0  0  0  0  0  0  0  0  0  0 
    4.5021    1.1749   -0.7288 C   0  0  0  0  0  0  0  0  0  0  0  0 
    2.4223   -0.0247    0.0085 C   0  0  2  0  0  0  0  0  0  0  0  0 
    4.9294   -0.0449   -1.5360 C   0  0  2  0  0  0  0  0  0  0  0  0 
    3.0671   -1.3197   -0.5010 C   0  0  0  0  0  0  0  0  0  0  0  0 
    2.5503   -2.4025   -0.3539 O   0  0  0  0  0  0  0  0  0  0  0  0 
    4.3091   -1.2674   -1.0524 O   0  0  0  0  0  0  0  0  0  0  0  0 
    0.4368    0.7492    0.4249 H   0  0  0  0  0  0  0  0  0  0  0  0 
    0.5422   -1.0282    0.4381 H   0  0  0  0  0  0  0  0  0  0  0  0 
    0.5496   -0.1522   -1.0985 H   0  0  0  0  0  0  0  0  0  0  0  0 
    6.9629    0.5429   -1.9702 H   0  0  0  0  0  0  0  0  0  0  0  0 
    6.6654   -1.2054   -2.0980 H   0  0  0  0  0  0  0  0  0  0  0  0 
    6.7870   -0.4440   -0.4996 H   0  0  0  0  0  0  0  0  0  0  0  0 
    2.5665    1.3324   -1.6774 H   0  0  0  0  0  0  0  0  0  0  0  0 
    2.6429    2.1257   -0.1076 H   0  0  0  0  0  0  0  0  0  0  0  0 
    4.9249    1.1122    0.2837 H   0  0  0  0  0  0  0  0  0  0  0  0 
    4.9201    2.0737   -1.1982 H   0  0  0  0  0  0  0  0  0  0  0  0 
    2.7154    0.0105    1.0707 H   0  0  0  0  0  0  0  0  0  0  0  0 
    4.5891    0.0821   -2.5741 H   0  0  0  0  0  0  0  0  0  0  0  0 
  1  5  1  0  0  0  0 
  1 10  1  0  0  0  0 
  1 11  1  0  0  0  0 
  2 15  1  0  0  0  0 
  3 17  1  0  0  0  0 
  3  5  1  0  0  0  0 
  4  3  1  0  0  0  0 
  4 18  1  0  0  0  0 
  5 20  1  1  0  0  0 
  6 21  1  6  0  0  0 
  6  2  1  0  0  0  0 
  6  9  1  0  0  0  0 
  6  4  1  0  0  0  0 
  7  8  2  0  0  0  0 
  7  5  1  0  0  0  0 
  9  7  1  0  0  0  0 
 12  1  1  0  0  0  0 
 13  2  1  0  0  0  0 
 14  2  1  0  0  0  0 
 16  3  1  0  0  0  0 
 19  4  1  0  0  0  0 
M  END 
>  <HBA> 
2 
 
>  <HBD> 
0 
 
>  <TPSA> 
26.3 
 
>  <cid> 
19490 
 
>  <dipole> 
4.38 
 
>  <excitation_energy_1> 
5.382 
 
>  <excitation_energy_2> 
6.696 
 
>  <excitation_energy_3> 
6.909 
 
>  <excitation_energy_4> 
6.953 
 
>  <homo_energy> 
-6.963 
 
>  <homo_lumo_gap> 
7.26 
 
>  <logP> 
1.348 
 
>  <lumo_energy> 
0.297 
 
>  <melting_point> 
7.79 
 
>  <molecular_refractivity> 
34.93 
 
>  <oscillator_strength_1> 
0.0009 
 
>  <oscillator_strength_2> 
0.0003 
 
>  <oscillator_strength_3> 
0.0672 
 
>  <oscillator_strength_4> 
0.003 
 
>  <open_babel_can_smiles> 
C[C@@H]1CC[C@H](C(=O)O1)C 
 
>  <mulliken_charges> 
21 
1   -0.443514 
2   -0.453937 
3   -0.275856 
4   -0.288156 
5   -0.188037 
6   0.142712 
7   0.608504 
8   -0.455342 
9   -0.469355 
10   0.139654 
11   0.17937 
12   0.148826 
13   0.146657 
14   0.169528 
15   0.157406 
16   0.141223 
17   0.145361 
18   0.143833 
19   0.14627 
20   0.165992 
21   0.13886 
 
>  <lowdin_charges> 
21 
1   -0.438263 
2   -0.447449 
3   -0.27855 
4   -0.290938 
5   -0.158623 
6   0.013922 
7   0.19403 
8   -0.246928 
9   -0.198597 
10   0.149886 
11   0.170576 
12   0.150979 
13   0.156811 
14   0.165982 
15   0.156891 
16   0.143643 
17   0.152052 
18   0.146863 
19   0.156967 
20   0.162796 
21   0.137946 
 
$$$$ 
 
