PCCDB-ID:  20999 
public computational chemistry database (PCCDB) project, http://pccdb.org 
 
 28 28  0  0  0  0  0  0  0  0999 V2000 
    4.8076   -1.3827    2.4553 C   0  0  0  0  0  0  0  0  0  0  0  0 
    5.5503   -1.8997    0.0828 C   0  0  0  0  0  0  0  0  0  0  0  0 
    1.2013    0.3221   -1.5019 C   0  0  0  0  0  0  0  0  0  0  0  0 
    2.9695    1.3368   -2.7483 C   0  0  0  0  0  0  0  0  0  0  0  0 
    0.8355   -0.3483   -2.6692 C   0  0  0  0  0  0  0  0  0  0  0  0 
    2.5264    0.6140   -3.8555 C   0  0  0  0  0  0  0  0  0  0  0  0 
    2.6847    1.9858   -0.3065 C   0  0  0  0  0  0  0  0  0  0  0  0 
    5.3770   -0.8106    1.1519 C   0  0  0  0  0  0  0  0  0  0  0  0 
    2.2949    1.1905   -1.5332 C   0  0  0  0  0  0  0  0  0  0  0  0 
    4.8981    1.3248    0.2045 C   0  0  0  0  0  0  0  0  0  0  0  0 
    1.4772   -0.2186   -3.8369 N   0  0  0  0  0  0  0  0  0  0  0  0 
    4.4733    0.2204    0.6584 N   0  0  0  0  0  0  0  0  0  0  0  0 
    6.1658    1.7924    0.0874 O   0  0  0  0  0  0  0  0  0  0  0  0 
    4.0841    2.2939   -0.2650 O   0  0  0  0  0  0  0  0  0  0  0  0 
    5.4609   -2.1659    2.8566 H   0  0  0  0  0  0  0  0  0  0  0  0 
    3.8168   -1.8130    2.2733 H   0  0  0  0  0  0  0  0  0  0  0  0 
    4.7019   -0.5971    3.2106 H   0  0  0  0  0  0  0  0  0  0  0  0 
    6.1934   -2.7083    0.4487 H   0  0  0  0  0  0  0  0  0  0  0  0 
    5.9964   -1.4884   -0.8296 H   0  0  0  0  0  0  0  0  0  0  0  0 
    4.5746   -2.3206   -0.1818 H   0  0  0  0  0  0  0  0  0  0  0  0 
    0.6449    0.1592   -0.5824 H   0  0  0  0  0  0  0  0  0  0  0  0 
    3.8282    1.9962   -2.8264 H   0  0  0  0  0  0  0  0  0  0  0  0 
   -0.0133   -1.0307   -2.6634 H   0  0  0  0  0  0  0  0  0  0  0  0 
    3.0407    0.7107   -4.8106 H   0  0  0  0  0  0  0  0  0  0  0  0 
    2.3936    1.4571    0.6042 H   0  0  0  0  0  0  0  0  0  0  0  0 
    2.2001    2.9676   -0.3240 H   0  0  0  0  0  0  0  0  0  0  0  0 
    6.3846   -0.4113    1.3936 H   0  0  0  0  0  0  0  0  0  0  0  0 
    6.7700    1.1184    0.4386 H   0  0  0  0  0  0  0  0  0  0  0  0 
  1 15  1  0  0  0  0 
  1 17  1  0  0  0  0 
  2 18  1  0  0  0  0 
  2  8  1  0  0  0  0 
  3 21  1  0  0  0  0 
  4  9  2  0  0  0  0 
  5 23  1  0  0  0  0 
  5  3  2  0  0  0  0 
  6 11  2  0  0  0  0 
  6  4  1  0  0  0  0 
  7 14  1  0  0  0  0 
  7 25  1  0  0  0  0 
  8 27  1  0  0  0  0 
  8  1  1  0  0  0  0 
  9  3  1  0  0  0  0 
  9  7  1  0  0  0  0 
 10 12  2  0  0  0  0 
 11  5  1  0  0  0  0 
 12  8  1  0  0  0  0 
 13 10  1  0  0  0  0 
 13 28  1  0  0  0  0 
 14 10  1  0  0  0  0 
 16  1  1  0  0  0  0 
 19  2  1  0  0  0  0 
 20  2  1  0  0  0  0 
 22  4  1  0  0  0  0 
 24  6  1  0  0  0  0 
 26  7  1  0  0  0  0 
M  END 
>  <HBA> 
4 
 
>  <HBD> 
1 
 
>  <TPSA> 
51.22 
 
>  <cid> 
20999 
 
>  <dipole> 
2.81 
 
>  <excitation_energy_1> 
4.864 
 
>  <excitation_energy_2> 
5.147 
 
>  <excitation_energy_3> 
5.423 
 
>  <excitation_energy_4> 
5.486 
 
>  <homo_energy> 
-6.803 
 
>  <homo_lumo_gap> 
6.212 
 
>  <logP> 
2.107 
 
>  <lumo_energy> 
-0.59 
 
>  <melting_point> 
69.95 
 
>  <molecular_refractivity> 
52.91 
 
>  <oscillator_strength_1> 
0.0043 
 
>  <oscillator_strength_2> 
0.0 
 
>  <oscillator_strength_3> 
0.0305 
 
>  <oscillator_strength_4> 
0.0041 
 
>  <open_babel_can_smiles> 
CC(/N=C(/OCc1ccncc1)\O)C 
 
>  <mulliken_charges> 
28 
1   -0.426191 
2   -0.424962 
3   -0.180198 
4   -0.177921 
5   0.037293 
6   0.037737 
7   -0.104662 
8   0.000863 
9   0.156551 
10   0.677256 
11   -0.409161 
12   -0.443354 
13   -0.588861 
14   -0.464747 
15   0.138067 
16   0.154948 
17   0.14759 
18   0.140956 
19   0.143071 
20   0.163192 
21   0.132487 
22   0.151224 
23   0.140143 
24   0.140742 
25   0.179672 
26   0.174344 
27   0.080007 
28   0.423913 
 
>  <lowdin_charges> 
28 
1   -0.444581 
2   -0.447895 
3   -0.18158 
4   -0.180047 
5   -0.087548 
6   -0.088432 
7   -0.12478 
8   -0.048328 
9   0.010981 
10   0.187605 
11   -0.151954 
12   -0.266683 
13   -0.361844 
14   -0.180659 
15   0.14931 
16   0.155605 
17   0.1538 
18   0.150795 
19   0.150429 
20   0.159917 
21   0.162608 
22   0.17068 
23   0.156081 
24   0.156386 
25   0.167245 
26   0.166356 
27   0.103001 
28   0.363531 
 
$$$$ 
 
