PCCDB-ID:  15436 
public computational chemistry database (PCCDB) project, http://pccdb.org 
 
 19 18  0  0  0  0  0  0  0  0999 V2000 
    0.8934   -0.0555   -0.0207 C   0  0  0  0  0  0  0  0  0  0  0  0 
    2.9254    0.4894   -1.4214 C   0  0  0  0  0  0  0  0  0  0  0  0 
    4.8590   -1.4490    0.3226 C   0  0  0  0  0  0  0  0  0  0  0  0 
    2.8664    0.9942    1.0640 C   0  0  0  0  0  0  0  0  0  0  0  0 
    2.4278    0.0661   -0.0362 C   0  0  0  0  0  0  0  0  0  0  0  0 
    3.7652    1.8801    0.8661 N   0  0  0  0  0  0  0  0  0  0  0  0 
    4.0272    2.6019    2.0473 O   0  0  0  0  0  0  0  0  0  0  0  0 
    3.0453   -1.6465    0.4293 S   0  0  0  0  0  0  0  0  0  0  0  0 
    0.4431    0.9097   -0.2800 H   0  0  0  0  0  0  0  0  0  0  0  0 
    0.5222   -0.3526    0.9660 H   0  0  0  0  0  0  0  0  0  0  0  0 
    0.5603   -0.7991   -0.7519 H   0  0  0  0  0  0  0  0  0  0  0  0 
    2.5083    1.4689   -1.6825 H   0  0  0  0  0  0  0  0  0  0  0  0 
    2.6082   -0.2409   -2.1717 H   0  0  0  0  0  0  0  0  0  0  0  0 
    4.0131    0.5826   -1.4530 H   0  0  0  0  0  0  0  0  0  0  0  0 
    5.2940   -2.3279    0.8056 H   0  0  0  0  0  0  0  0  0  0  0  0 
    5.1846   -0.5520    0.8566 H   0  0  0  0  0  0  0  0  0  0  0  0 
    5.2034   -1.4068   -0.7139 H   0  0  0  0  0  0  0  0  0  0  0  0 
    2.4139    0.8670    2.0512 H   0  0  0  0  0  0  0  0  0  0  0  0 
    4.6950    3.2414    1.7542 H   0  0  0  0  0  0  0  0  0  0  0  0 
  1 10  1  0  0  0  0 
  2  5  1  0  0  0  0 
  3  8  1  0  0  0  0 
  3 15  1  0  0  0  0 
  3 16  1  0  0  0  0 
  4 18  1  0  0  0  0 
  5  1  1  0  0  0  0 
  5  8  1  0  0  0  0 
  5  4  1  0  0  0  0 
  6  4  2  0  0  0  0 
  6  7  1  0  0  0  0 
  9  1  1  0  0  0  0 
 11  1  1  0  0  0  0 
 12  2  1  0  0  0  0 
 13  2  1  0  0  0  0 
 14  2  1  0  0  0  0 
 17  3  1  0  0  0  0 
 19  7  1  0  0  0  0 
M  END 
>  <HBA> 
3 
 
>  <HBD> 
1 
 
>  <TPSA> 
57.89 
 
>  <cid> 
15436 
 
>  <dipole> 
1.4 
 
>  <excitation_energy_1> 
4.686 
 
>  <excitation_energy_2> 
5.433 
 
>  <excitation_energy_3> 
5.744 
 
>  <excitation_energy_4> 
5.93 
 
>  <homo_energy> 
-6.027 
 
>  <homo_lumo_gap> 
5.829 
 
>  <logP> 
1.588 
 
>  <lumo_energy> 
-0.199 
 
>  <melting_point> 
65.86 
 
>  <molecular_refractivity> 
38.19 
 
>  <oscillator_strength_1> 
0.03 
 
>  <oscillator_strength_2> 
0.0035 
 
>  <oscillator_strength_3> 
0.033 
 
>  <oscillator_strength_4> 
0.0013 
 
>  <open_babel_can_smiles> 
CSC(/C=N/O)(C)C 
 
>  <mulliken_charges> 
19 
1   -0.458911 
2   -0.437515 
3   -0.597369 
4   0.118488 
5   -0.114345 
6   -0.185058 
7   -0.505784 
8   0.088889 
9   0.160457 
10   0.163467 
11   0.167117 
12   0.155595 
13   0.154937 
14   0.166302 
15   0.183627 
16   0.192685 
17   0.179812 
18   0.152403 
19   0.415203 
 
>  <lowdin_charges> 
19 
1   -0.442171 
2   -0.440932 
3   -0.551031 
4   -0.114919 
5   -0.073404 
6   -0.068863 
7   -0.381453 
8   0.091401 
9   0.159007 
10   0.160055 
11   0.164322 
12   0.157601 
13   0.159075 
14   0.15991 
15   0.177731 
16   0.171421 
17   0.161054 
18   0.155746 
19   0.35545 
 
$$$$ 
 
