PCCDB-ID:  6734 
public computational chemistry database (PCCDB) project, http://pccdb.org 
 
 22 24  0  0  0  0  0  0  0  0999 V2000 
    2.5134   -0.9296    0.0002 C   0  0  0  0  0  0  0  0  0  0  0  0 
   -2.3227   -1.3533   -0.0009 C   0  0  0  0  0  0  0  0  0  0  0  0 
    1.4330   -1.7932   -0.0001 C   0  0  0  0  0  0  0  0  0  0  0  0 
   -1.1085   -2.0158   -0.0011 C   0  0  0  0  0  0  0  0  0  0  0  0 
    2.3582    0.4852    0.0014 C   0  0  0  0  0  0  0  0  0  0  0  0 
   -2.4158    0.0669    0.0005 C   0  0  0  0  0  0  0  0  0  0  0  0 
    0.5690    2.4427    0.0028 C   0  0  0  0  0  0  0  0  0  0  0  0 
   -0.9945    2.3055    0.0028 C   0  0  0  0  0  0  0  0  0  0  0  0 
    0.1074   -1.2783   -0.0003 C   0  0  0  0  0  0  0  0  0  0  0  0 
    1.0862    1.0133    0.0019 C   0  0  0  0  0  0  0  0  0  0  0  0 
   -1.2549    0.8080    0.0008 C   0  0  0  0  0  0  0  0  0  0  0  0 
   -0.0160    0.1308    0.0002 C   0  0  0  0  0  0  0  0  0  0  0  0 
    3.5195   -1.3417   -0.0006 H   0  0  0  0  0  0  0  0  0  0  0  0 
   -3.2417   -1.9342   -0.0018 H   0  0  0  0  0  0  0  0  0  0  0  0 
    1.5939   -2.8686    0.0002 H   0  0  0  0  0  0  0  0  0  0  0  0 
   -1.0800   -3.1028   -0.0018 H   0  0  0  0  0  0  0  0  0  0  0  0 
    3.2402    1.1212    0.0027 H   0  0  0  0  0  0  0  0  0  0  0  0 
   -3.3948    0.5400    0.0011 H   0  0  0  0  0  0  0  0  0  0  0  0 
    0.9217    2.9965    0.8813 H   0  0  0  0  0  0  0  0  0  0  0  0 
    0.9215    2.9973   -0.8752 H   0  0  0  0  0  0  0  0  0  0  0  0 
   -1.4381    2.7912   -0.8748 H   0  0  0  0  0  0  0  0  0  0  0  0 
   -1.4381    2.7886    0.8818 H   0  0  0  0  0  0  0  0  0  0  0  0 
  1  5  2  0  0  0  0 
  2  6  1  0  0  0  0 
  3 15  1  0  0  0  0 
  3  1  1  0  0  0  0 
  4  2  2  0  0  0  0 
  4  9  1  0  0  0  0 
  5 10  1  0  0  0  0 
  5 17  1  0  0  0  0 
  6 11  2  0  0  0  0 
  6 18  1  0  0  0  0 
  7 19  1  0  0  0  0 
  8  7  1  0  0  0  0 
  8 22  1  0  0  0  0 
  9  3  2  0  0  0  0 
  9 12  1  0  0  0  0 
 10  7  1  0  0  0  0 
 11  8  1  0  0  0  0 
 12 11  1  0  0  0  0 
 12 10  2  0  0  0  0 
 13  1  1  0  0  0  0 
 14  2  1  0  0  0  0 
 16  4  1  0  0  0  0 
 20  7  1  0  0  0  0 
 21  8  1  0  0  0  0 
M  END 
>  <HBA> 
0 
 
>  <HBD> 
0 
 
>  <TPSA> 
0.0 
 
>  <cid> 
6734 
 
>  <dipole> 
0.82 
 
>  <excitation_energy_1> 
4.231 
 
>  <excitation_energy_2> 
4.359 
 
>  <excitation_energy_3> 
5.278 
 
>  <excitation_energy_4> 
5.35 
 
>  <homo_energy> 
-5.467 
 
>  <homo_lumo_gap> 
4.71 
 
>  <logP> 
2.938 
 
>  <lumo_energy> 
-0.756 
 
>  <melting_point> 
79.91 
 
>  <molecular_refractivity> 
51.77 
 
>  <oscillator_strength_1> 
0.0899 
 
>  <oscillator_strength_2> 
0.0088 
 
>  <oscillator_strength_3> 
0.0 
 
>  <oscillator_strength_4> 
0.0394 
 
>  <open_babel_can_smiles> 
c1cc2cccc3c2c(c1)CC3 
 
>  <mulliken_charges> 
22 
1   -0.12746 
2   -0.127467 
3   -0.212767 
4   -0.212684 
5   -0.225433 
6   -0.225493 
7   -0.361794 
8   -0.361966 
9   0.19544 
10   0.137439 
11   0.137712 
12   0.000391 
13   0.125631 
14   0.125619 
15   0.125687 
16   0.125691 
17   0.122316 
18   0.122331 
19   0.159174 
20   0.159223 
21   0.159185 
22   0.159224 
 
>  <lowdin_charges> 
22 
1   -0.151794 
2   -0.153019 
3   -0.166099 
4   -0.165816 
5   -0.180414 
6   -0.179349 
7   -0.277809 
8   -0.278059 
9   0.000106 
10   0.000759 
11   0.000588 
12   -0.015342 
13   0.156048 
14   0.157061 
15   0.154355 
16   0.154117 
17   0.155795 
18   0.154914 
19   0.158447 
20   0.158463 
21   0.15852 
22   0.158527 
 
$$$$ 
 
