PCCDB-ID:  24250 
public computational chemistry database (PCCDB) project, http://pccdb.org 
 
 30 29  0  0  0  0  0  0  0  0999 V2000 
    1.9902   -0.3236   -1.4796 C   0  0  0  0  0  0  0  0  0  0  0  0 
    0.7030    0.1472   -2.1743 C   0  0  0  0  0  0  0  0  0  0  0  0 
    1.9258   -0.2047    0.0489 C   0  0  0  0  0  0  0  0  0  0  0  0 
    0.5628   -0.2894   -3.6443 C   0  0  0  0  0  0  0  0  0  0  0  0 
    3.1368   -0.7894    0.7933 C   0  0  0  0  0  0  0  0  0  0  0  0 
    0.6297   -1.8022   -3.9382 C   0  0  0  0  0  0  0  0  0  0  0  0 
    3.4231   -2.2707    0.4933 C   0  0  0  0  0  0  0  0  0  0  0  0 
   -0.4326   -2.6947   -3.2778 C   0  0  0  0  0  0  0  0  0  0  0  0 
    2.2340   -3.1118    0.6967 N   0  0  0  0  0  0  0  0  0  0  0  0 
   -0.1643   -2.9770   -1.8527 N   0  0  0  0  0  0  0  0  0  0  0  0 
    2.8482    0.2448   -1.8680 H   0  0  0  0  0  0  0  0  0  0  0  0 
    2.1733   -1.3701   -1.7426 H   0  0  0  0  0  0  0  0  0  0  0  0 
    0.6413    1.2436   -2.1278 H   0  0  0  0  0  0  0  0  0  0  0  0 
   -0.1677   -0.2074   -1.6035 H   0  0  0  0  0  0  0  0  0  0  0  0 
    1.0257   -0.7234    0.4068 H   0  0  0  0  0  0  0  0  0  0  0  0 
    1.8015    0.8494    0.3352 H   0  0  0  0  0  0  0  0  0  0  0  0 
    1.3514    0.1995   -4.2340 H   0  0  0  0  0  0  0  0  0  0  0  0 
   -0.3882    0.1018   -4.0342 H   0  0  0  0  0  0  0  0  0  0  0  0 
    2.9626   -0.6818    1.8714 H   0  0  0  0  0  0  0  0  0  0  0  0 
    4.0401   -0.2087    0.5551 H   0  0  0  0  0  0  0  0  0  0  0  0 
    1.6168   -2.2026   -3.6777 H   0  0  0  0  0  0  0  0  0  0  0  0 
    0.5280   -1.9245   -5.0256 H   0  0  0  0  0  0  0  0  0  0  0  0 
    4.1991   -2.6135    1.1889 H   0  0  0  0  0  0  0  0  0  0  0  0 
    3.8573   -2.3644   -0.5183 H   0  0  0  0  0  0  0  0  0  0  0  0 
   -0.4238   -3.6631   -3.7922 H   0  0  0  0  0  0  0  0  0  0  0  0 
   -1.4338   -2.2601   -3.4504 H   0  0  0  0  0  0  0  0  0  0  0  0 
    2.5241   -4.0864    0.7582 H   0  0  0  0  0  0  0  0  0  0  0  0 
    1.6287   -3.0639   -0.1257 H   0  0  0  0  0  0  0  0  0  0  0  0 
   -0.4407   -2.1820   -1.2809 H   0  0  0  0  0  0  0  0  0  0  0  0 
   -0.7570   -3.7483   -1.5485 H   0  0  0  0  0  0  0  0  0  0  0  0 
  1  3  1  0  0  0  0 
  2 13  1  0  0  0  0 
  2 14  1  0  0  0  0 
  2  1  1  0  0  0  0 
  3 16  1  0  0  0  0 
  3 15  1  0  0  0  0 
  3  5  1  0  0  0  0 
  4  2  1  0  0  0  0 
  5 19  1  0  0  0  0 
  6 21  1  0  0  0  0 
  6  4  1  0  0  0  0 
  6  8  1  0  0  0  0 
  7  9  1  0  0  0  0 
  7  5  1  0  0  0  0 
  7 23  1  0  0  0  0 
  8 10  1  0  0  0  0 
  9 27  1  0  0  0  0 
 10 30  1  0  0  0  0 
 10 29  1  0  0  0  0 
 11  1  1  0  0  0  0 
 12  1  1  0  0  0  0 
 17  4  1  0  0  0  0 
 18  4  1  0  0  0  0 
 20  5  1  0  0  0  0 
 22  6  1  0  0  0  0 
 24  7  1  0  0  0  0 
 25  8  1  0  0  0  0 
 26  8  1  0  0  0  0 
 28  9  1  0  0  0  0 
M  END 
>  <HBA> 
2 
 
>  <HBD> 
2 
 
>  <TPSA> 
52.04 
 
>  <cid> 
24250 
 
>  <dipole> 
1.98 
 
>  <excitation_energy_1> 
5.445 
 
>  <excitation_energy_2> 
5.744 
 
>  <excitation_energy_3> 
5.87 
 
>  <excitation_energy_4> 
6.014 
 
>  <homo_energy> 
-5.848 
 
>  <homo_lumo_gap> 
7.54 
 
>  <logP> 
2.645 
 
>  <lumo_energy> 
1.693 
 
>  <melting_point> 
80.61 
 
>  <molecular_refractivity> 
45.98 
 
>  <oscillator_strength_1> 
0.0051 
 
>  <oscillator_strength_2> 
0.0034 
 
>  <oscillator_strength_3> 
0.0155 
 
>  <oscillator_strength_4> 
0.0138 
 
>  <open_babel_can_smiles> 
NCCCCCCCCN 
 
>  <mulliken_charges> 
30 
1   -0.263458 
2   -0.25946 
3   -0.2661 
4   -0.259261 
5   -0.23474 
6   -0.250054 
7   -0.143375 
8   -0.141964 
9   -0.749813 
10   -0.728237 
11   0.123926 
12   0.157365 
13   0.13086 
14   0.11434 
15   0.136535 
16   0.124172 
17   0.130839 
18   0.125282 
19   0.133961 
20   0.116957 
21   0.147171 
22   0.128197 
23   0.128665 
24   0.113909 
25   0.139105 
26   0.117093 
27   0.287853 
28   0.326316 
29   0.312518 
30   0.301399 
 
>  <lowdin_charges> 
30 
1   -0.285421 
2   -0.274854 
3   -0.277769 
4   -0.27953 
5   -0.279038 
6   -0.283064 
7   -0.208243 
8   -0.203815 
9   -0.574002 
10   -0.562736 
11   0.138289 
12   0.146779 
13   0.14002 
14   0.129827 
15   0.141157 
16   0.137464 
17   0.143462 
18   0.138869 
19   0.143544 
20   0.136057 
21   0.147784 
22   0.143426 
23   0.140647 
24   0.115247 
25   0.144867 
26   0.1205 
27   0.250105 
28   0.256093 
29   0.25554 
30   0.258798 
 
$$$$ 
 
