PCCDB-ID:  70366 
public computational chemistry database (PCCDB) project, http://pccdb.org 
 
 27 27  0  0  0  0  0  0  0  0999 V2000 
   -1.7035    0.8017   -0.4855 C   0  0  0  0  0  0  0  0  0  0  0  0 
   -1.2950    0.3166    0.7601 C   0  0  0  0  0  0  0  0  0  0  0  0 
   -0.7507    1.1331   -1.4489 C   0  0  0  0  0  0  0  0  0  0  0  0 
    0.0618    0.1690    1.0402 C   0  0  0  0  0  0  0  0  0  0  0  0 
    0.6081    0.9768   -1.1683 C   0  0  0  0  0  0  0  0  0  0  0  0 
    3.3558   -3.7633    0.6808 C   0  0  0  0  0  0  0  0  0  0  0  0 
    2.4889    0.3365    0.3836 C   0  0  0  0  0  0  0  0  0  0  0  0 
    1.0256    0.4973    0.0771 C   0  0  0  0  0  0  0  0  0  0  0  0 
    3.9818   -5.1441    0.9303 C   0  0  0  0  0  0  0  0  0  0  0  0 
    4.0090   -1.5006    0.7724 C   0  0  0  0  0  0  0  0  0  0  0  0 
    3.3669   -6.2566    0.8999 N   0  0  0  0  0  0  0  0  0  0  0  0 
    4.3494   -2.7197    0.8892 N   0  0  0  0  0  0  0  0  0  0  0  0 
    5.3039   -5.1153    1.1854 O   0  0  0  0  0  0  0  0  0  0  0  0 
    4.8927   -0.4957    0.9569 O   0  0  0  0  0  0  0  0  0  0  0  0 
    2.7743   -1.0928    0.4612 O   0  0  0  0  0  0  0  0  0  0  0  0 
   -2.7616    0.9212   -0.7019 H   0  0  0  0  0  0  0  0  0  0  0  0 
   -2.0346    0.0579    1.5128 H   0  0  0  0  0  0  0  0  0  0  0  0 
   -1.0628    1.5090   -2.4193 H   0  0  0  0  0  0  0  0  0  0  0  0 
    0.3793   -0.2092    2.0088 H   0  0  0  0  0  0  0  0  0  0  0  0 
    1.3494    1.2297   -1.9228 H   0  0  0  0  0  0  0  0  0  0  0  0 
    2.4917   -3.6412    1.3480 H   0  0  0  0  0  0  0  0  0  0  0  0 
    2.9633   -3.7389   -0.3457 H   0  0  0  0  0  0  0  0  0  0  0  0 
    2.7574    0.7914    1.3417 H   0  0  0  0  0  0  0  0  0  0  0  0 
    3.1135    0.7798   -0.3964 H   0  0  0  0  0  0  0  0  0  0  0  0 
    2.3782   -6.0959    0.6915 H   0  0  0  0  0  0  0  0  0  0  0  0 
    5.5496   -4.1649    1.1872 H   0  0  0  0  0  0  0  0  0  0  0  0 
    5.7403   -0.9205    1.1763 H   0  0  0  0  0  0  0  0  0  0  0  0 
  1  2  2  0  0  0  0 
  2  4  1  0  0  0  0 
  2 17  1  0  0  0  0 
  3  5  2  0  0  0  0 
  3  1  1  0  0  0  0 
  4 19  1  0  0  0  0 
  5  8  1  0  0  0  0 
  6 12  1  0  0  0  0 
  6  9  1  0  0  0  0 
  6 21  1  0  0  0  0 
  7 15  1  0  0  0  0 
  7 23  1  0  0  0  0 
  8  7  1  0  0  0  0 
  8  4  2  0  0  0  0 
  9 13  1  0  0  0  0 
 10 12  2  0  0  0  0 
 10 14  1  0  0  0  0 
 11  9  2  0  0  0  0 
 13 26  1  0  0  0  0 
 14 27  1  0  0  0  0 
 15 10  1  0  0  0  0 
 16  1  1  0  0  0  0 
 18  3  1  0  0  0  0 
 20  5  1  0  0  0  0 
 22  6  1  0  0  0  0 
 24  7  1  0  0  0  0 
 25 11  1  0  0  0  0 
M  END 
>  <HBA> 
5 
 
>  <HBD> 
2 
 
>  <TPSA> 
81.42 
 
>  <cid> 
70366 
 
>  <dipole> 
7.76 
 
>  <excitation_energy_1> 
5.284 
 
>  <excitation_energy_2> 
5.313 
 
>  <excitation_energy_3> 
5.545 
 
>  <excitation_energy_4> 
5.635 
 
>  <homo_energy> 
-6.444 
 
>  <homo_lumo_gap> 
5.731 
 
>  <logP> 
1.489 
 
>  <lumo_energy> 
-0.713 
 
>  <melting_point> 
130.75 
 
>  <molecular_refractivity> 
53.21 
 
>  <oscillator_strength_1> 
0.0014 
 
>  <oscillator_strength_2> 
0.0015 
 
>  <oscillator_strength_3> 
0.0013 
 
>  <oscillator_strength_4> 
0.0046 
 
>  <open_babel_can_smiles> 
O/C(=N/CC(=N)O)/OCc1ccccc1 
 
>  <mulliken_charges> 
27 
1   -0.124115 
2   -0.130166 
3   -0.128051 
4   -0.158994 
5   -0.175255 
6   -0.208893 
7   -0.126128 
8   0.144 
9   0.471263 
10   0.759055 
11   -0.599972 
12   -0.562492 
13   -0.586244 
14   -0.599251 
15   -0.471849 
16   0.13857 
17   0.139237 
18   0.138438 
19   0.137131 
20   0.133889 
21   0.171594 
22   0.177192 
23   0.173841 
24   0.169154 
25   0.270886 
26   0.418588 
27   0.428571 
 
>  <lowdin_charges> 
27 
1   -0.145704 
2   -0.152525 
3   -0.151699 
4   -0.148993 
5   -0.157581 
6   -0.23165 
7   -0.116379 
8   -0.0204 
9   0.115828 
10   0.198811 
11   -0.416209 
12   -0.291658 
13   -0.363878 
14   -0.354989 
15   -0.187838 
16   0.160636 
17   0.163415 
18   0.161801 
19   0.161042 
20   0.160227 
21   0.161416 
22   0.16293 
23   0.160993 
24   0.16028 
25   0.247776 
26   0.348006 
27   0.376343 
 
$$$$ 
 
