PCCDB-ID:  8300 
public computational chemistry database (PCCDB) project, http://pccdb.org 
 
 13 12  0  0  0  0  0  0  0  0999 V2000 
    0.9369   -0.0573   -0.1188 C   0  0  0  0  0  0  0  0  0  0  0  0 
    3.0398   -0.8164   -1.2641 C   0  0  0  0  0  0  0  0  0  0  0  0 
    4.2332    1.0544    0.5593 C   0  0  0  0  0  0  0  0  0  0  0  0 
    2.2712   -0.1134   -0.1763 C   0  0  0  0  0  0  0  0  0  0  0  0 
    2.9890    0.4394    0.8617 O   0  0  0  0  0  0  0  0  0  0  0  0 
    0.3274   -0.5549   -0.8641 H   0  0  0  0  0  0  0  0  0  0  0  0 
    0.4373    0.4631    0.6912 H   0  0  0  0  0  0  0  0  0  0  0  0 
    2.3494   -1.3118   -1.9509 H   0  0  0  0  0  0  0  0  0  0  0  0 
    3.7119   -1.5753   -0.8430 H   0  0  0  0  0  0  0  0  0  0  0  0 
    3.6570   -0.1250   -1.8514 H   0  0  0  0  0  0  0  0  0  0  0  0 
    4.6047    1.4590    1.5034 H   0  0  0  0  0  0  0  0  0  0  0  0 
    4.1155    1.8776   -0.1592 H   0  0  0  0  0  0  0  0  0  0  0  0 
    4.9700    0.3410    0.1681 H   0  0  0  0  0  0  0  0  0  0  0  0 
  1  7  1  0  0  0  0 
  2  9  1  0  0  0  0 
  2  4  1  0  0  0  0 
  3  5  1  0  0  0  0 
  3 11  1  0  0  0  0 
  4  1  2  0  0  0  0 
  4  5  1  0  0  0  0 
  6  1  1  0  0  0  0 
  8  2  1  0  0  0  0 
 10  2  1  0  0  0  0 
 12  3  1  0  0  0  0 
 13  3  1  0  0  0  0 
M  END 
>  <HBA> 
1 
 
>  <HBD> 
0 
 
>  <TPSA> 
9.23 
 
>  <cid> 
8300 
 
>  <dipole> 
1.82 
 
>  <excitation_energy_1> 
5.535 
 
>  <excitation_energy_2> 
5.956 
 
>  <excitation_energy_3> 
6.143 
 
>  <excitation_energy_4> 
6.306 
 
>  <homo_energy> 
-5.891 
 
>  <homo_lumo_gap> 
6.972 
 
>  <logP> 
1.166 
 
>  <lumo_energy> 
1.08 
 
>  <melting_point> 
-51.36 
 
>  <molecular_refractivity> 
21.95 
 
>  <oscillator_strength_1> 
0.0195 
 
>  <oscillator_strength_2> 
0.0069 
 
>  <oscillator_strength_3> 
0.2177 
 
>  <oscillator_strength_4> 
0.0151 
 
>  <open_babel_can_smiles> 
COC(=C)C 
 
>  <mulliken_charges> 
13 
1   -0.418432 
2   -0.529629 
3   -0.210564 
4   0.423437 
5   -0.481155 
6   0.13187 
7   0.141112 
8   0.165001 
9   0.164821 
10   0.159853 
11   0.165634 
12   0.144652 
13   0.1434 
 
>  <lowdin_charges> 
13 
1   -0.405341 
2   -0.457461 
3   -0.27917 
4   0.100685 
5   -0.219372 
6   0.161227 
7   0.16579 
8   0.168816 
9   0.162205 
10   0.160207 
11   0.160377 
12   0.1408 
13   0.141237 
 
$$$$ 
 
