PCCDB-ID:  48717 
public computational chemistry database (PCCDB) project, http://pccdb.org 
 
 28 28  0  0  1  0  0  0  0  0999 V2000 
    1.0578   -0.2495    0.6126 C   0  0  0  0  0  0  0  0  0  0  0  0 
    0.9331   -1.2922   -2.6290 C   0  0  0  0  0  0  0  0  0  0  0  0 
    3.0471   -0.5462   -3.7136 C   0  0  0  0  0  0  0  0  0  0  0  0 
    2.5080    2.2587   -2.1689 C   0  0  0  0  0  0  0  0  0  0  0  0 
    1.5401    1.1435   -2.5892 C   0  0  0  0  0  0  0  0  0  0  0  0 
    2.9205   -0.5137   -1.2139 C   0  0  0  0  0  0  0  0  0  0  0  0 
    2.4676    0.1240    0.1233 C   0  0  1  0  0  0  0  0  0  0  0  0 
    2.7104    2.4076   -0.6613 C   0  0  0  0  0  0  0  0  0  0  0  0 
    2.1045   -0.2944   -2.5168 C   0  0  0  0  0  0  0  0  0  0  0  0 
    2.6618    1.5614    0.2747 N   0  0  0  0  0  0  0  0  0  0  0  0 
    3.0105    3.6943   -0.2750 O   0  0  0  0  0  0  0  0  0  0  0  0 
    0.9290   -1.3376    0.6382 H   0  0  0  0  0  0  0  0  0  0  0  0 
    0.2740    0.1771   -0.0205 H   0  0  0  0  0  0  0  0  0  0  0  0 
    0.9114    0.1418    1.6242 H   0  0  0  0  0  0  0  0  0  0  0  0 
    0.3684   -1.1224   -3.5546 H   0  0  0  0  0  0  0  0  0  0  0  0 
    0.2328   -1.2070   -1.7934 H   0  0  0  0  0  0  0  0  0  0  0  0 
    1.3021   -2.3249   -2.6519 H   0  0  0  0  0  0  0  0  0  0  0  0 
    2.5026   -0.4856   -4.6642 H   0  0  0  0  0  0  0  0  0  0  0  0 
    3.4978   -1.5440   -3.6497 H   0  0  0  0  0  0  0  0  0  0  0  0 
    3.8687    0.1795   -3.7500 H   0  0  0  0  0  0  0  0  0  0  0  0 
    2.1145    3.2114   -2.5512 H   0  0  0  0  0  0  0  0  0  0  0  0 
    3.4888    2.1318   -2.6481 H   0  0  0  0  0  0  0  0  0  0  0  0 
    1.2120    1.3375   -3.6193 H   0  0  0  0  0  0  0  0  0  0  0  0 
    0.6400    1.2209   -1.9676 H   0  0  0  0  0  0  0  0  0  0  0  0 
    3.0184   -1.5963   -1.0500 H   0  0  0  0  0  0  0  0  0  0  0  0 
    3.9445   -0.1517   -1.3827 H   0  0  0  0  0  0  0  0  0  0  0  0 
    3.1531   -0.3126    0.8652 H   0  0  0  0  0  0  0  0  0  0  0  0 
    2.9585    4.2787   -1.0457 H   0  0  0  0  0  0  0  0  0  0  0  0 
  1 12  1  0  0  0  0 
  1 14  1  0  0  0  0 
  2  9  1  0  0  0  0 
  2 16  1  0  0  0  0 
  3 19  1  0  0  0  0 
  3  9  1  0  0  0  0 
  4  8  1  0  0  0  0 
  5  9  1  0  0  0  0 
  5  4  1  0  0  0  0 
  5 24  1  0  0  0  0 
  6 25  1  0  0  0  0 
  6  7  1  0  0  0  0 
  7 10  1  0  0  0  0 
  7  1  1  0  0  0  0 
  7 27  1  1  0  0  0 
  8 11  1  0  0  0  0 
  8 10  2  0  0  0  0 
  9  6  1  0  0  0  0 
 13  1  1  0  0  0  0 
 15  2  1  0  0  0  0 
 17  2  1  0  0  0  0 
 18  3  1  0  0  0  0 
 20  3  1  0  0  0  0 
 21  4  1  0  0  0  0 
 22  4  1  0  0  0  0 
 23  5  1  0  0  0  0 
 26  6  1  0  0  0  0 
 28 11  1  0  0  0  0 
M  END 
>  <HBA> 
2 
 
>  <HBD> 
1 
 
>  <TPSA> 
29.1 
 
>  <cid> 
48717 
 
>  <dipole> 
3.41 
 
>  <excitation_energy_1> 
5.446 
 
>  <excitation_energy_2> 
5.489 
 
>  <excitation_energy_3> 
5.837 
 
>  <excitation_energy_4> 
5.946 
 
>  <homo_energy> 
-6.174 
 
>  <homo_lumo_gap> 
7.012 
 
>  <logP> 
2.03 
 
>  <lumo_energy> 
0.838 
 
>  <melting_point> 
61.28 
 
>  <molecular_refractivity> 
49.92 
 
>  <oscillator_strength_1> 
0.0052 
 
>  <oscillator_strength_2> 
0.0084 
 
>  <oscillator_strength_3> 
0.0008 
 
>  <oscillator_strength_4> 
0.0115 
 
>  <open_babel_can_smiles> 
C[C@@H]1N=C(O)CCC(C1)(C)C 
 
>  <mulliken_charges> 
28 
1   -0.444979 
2   -0.457308 
3   -0.45506 
4   -0.37827 
5   -0.266866 
6   -0.293479 
7   0.021354 
8   0.481022 
9   0.116609 
10   -0.414661 
11   -0.586 
12   0.137055 
13   0.144674 
14   0.161178 
15   0.136509 
16   0.150583 
17   0.139229 
18   0.138052 
19   0.144645 
20   0.138151 
21   0.135315 
22   0.173102 
23   0.13241 
24   0.147294 
25   0.128765 
26   0.13353 
27   0.138918 
28   0.39823 
 
>  <lowdin_charges> 
28 
1   -0.447796 
2   -0.445223 
3   -0.4437 
4   -0.313563 
5   -0.275471 
6   -0.29259 
7   -0.058184 
8   0.125543 
9   0.009894 
10   -0.209388 
11   -0.379849 
12   0.145651 
13   0.146051 
14   0.159774 
15   0.146234 
16   0.153595 
17   0.146507 
18   0.145731 
19   0.149727 
20   0.144431 
21   0.14989 
22   0.162673 
23   0.145223 
24   0.149488 
25   0.144594 
26   0.144006 
27   0.148887 
28   0.347867 
 
$$$$ 
 
