PCCDB-ID:  15734 
public computational chemistry database (PCCDB) project, http://pccdb.org 
 
 20 21  0  0  0  0  0  0  0  0999 V2000 
    1.0164    0.1088    0.0344 C   0  0  0  0  0  0  0  0  0  0  0  0 
    4.6175   -1.2281    0.0382 C   0  0  0  0  0  0  0  0  0  0  0  0 
    3.2153   -1.1739    0.0405 C   0  0  0  0  0  0  0  0  0  0  0  0 
    5.3548   -0.0549    0.0242 C   0  0  0  0  0  0  0  0  0  0  0  0 
    5.3808    2.4584   -0.0024 C   0  0  0  0  0  0  0  0  0  0  0  0 
    4.6903    3.6208   -0.0126 C   0  0  0  0  0  0  0  0  0  0  0  0 
    2.5217    0.0365    0.0300 C   0  0  0  0  0  0  0  0  0  0  0  0 
    4.6972    1.1894    0.0131 C   0  0  0  0  0  0  0  0  0  0  0  0 
    3.2317    3.6434   -0.0069 C   0  0  0  0  0  0  0  0  0  0  0  0 
    3.2906    1.2123    0.0162 C   0  0  0  0  0  0  0  0  0  0  0  0 
    2.5309    4.6273   -0.0124 O   0  0  0  0  0  0  0  0  0  0  0  0 
    2.6042    2.3950    0.0058 O   0  0  0  0  0  0  0  0  0  0  0  0 
    0.5798   -0.8938    0.0171 H   0  0  0  0  0  0  0  0  0  0  0  0 
    0.6427    0.6661   -0.8320 H   0  0  0  0  0  0  0  0  0  0  0  0 
    0.6468    0.6325    0.9237 H   0  0  0  0  0  0  0  0  0  0  0  0 
    5.1205   -2.1904    0.0460 H   0  0  0  0  0  0  0  0  0  0  0  0 
    2.6452   -2.0995    0.0514 H   0  0  0  0  0  0  0  0  0  0  0  0 
    6.4415   -0.0789    0.0221 H   0  0  0  0  0  0  0  0  0  0  0  0 
    6.4686    2.4623   -0.0058 H   0  0  0  0  0  0  0  0  0  0  0  0 
    5.1746    4.5903   -0.0248 H   0  0  0  0  0  0  0  0  0  0  0  0 
  1 15  1  0  0  0  0 
  2  3  1  0  0  0  0 
  2 16  1  0  0  0  0 
  3 17  1  0  0  0  0 
  4  2  2  0  0  0  0 
  5  8  1  0  0  0  0 
  6  9  1  0  0  0  0 
  6  5  2  0  0  0  0 
  7  1  1  0  0  0  0 
  7  3  2  0  0  0  0 
  8 10  2  0  0  0  0 
  8  4  1  0  0  0  0 
  9 12  1  0  0  0  0 
 10  7  1  0  0  0  0 
 11  9  2  0  0  0  0 
 12 10  1  0  0  0  0 
 13  1  1  0  0  0  0 
 14  1  1  0  0  0  0 
 18  4  1  0  0  0  0 
 19  5  1  0  0  0  0 
 20  6  1  0  0  0  0 
M  END 
>  <HBA> 
2 
 
>  <HBD> 
0 
 
>  <TPSA> 
30.21 
 
>  <cid> 
15734 
 
>  <dipole> 
4.46 
 
>  <excitation_energy_1> 
4.052 
 
>  <excitation_energy_2> 
4.461 
 
>  <excitation_energy_3> 
4.484 
 
>  <excitation_energy_4> 
5.378 
 
>  <homo_energy> 
-6.408 
 
>  <homo_lumo_gap> 
4.61 
 
>  <logP> 
2.101 
 
>  <lumo_energy> 
-1.799 
 
>  <melting_point> 
87.16 
 
>  <molecular_refractivity> 
47.45 
 
>  <oscillator_strength_1> 
0.0691 
 
>  <oscillator_strength_2> 
0.2141 
 
>  <oscillator_strength_3> 
0.0001 
 
>  <oscillator_strength_4> 
0.0078 
 
>  <open_babel_can_smiles> 
O=c1ccc2c(o1)c(C)ccc2 
 
>  <mulliken_charges> 
20 
1   -0.515318 
2   -0.125137 
3   -0.190212 
4   -0.203813 
5   -0.12225 
6   -0.218537 
7   0.134192 
8   0.140671 
9   0.596012 
10   0.248574 
11   -0.465258 
12   -0.5188 
13   0.152647 
14   0.178328 
15   0.177694 
16   0.137558 
17   0.134776 
18   0.138819 
19   0.155444 
20   0.164609 
 
>  <lowdin_charges> 
20 
1   -0.437595 
2   -0.163913 
3   -0.149297 
4   -0.148818 
5   -0.104203 
6   -0.200663 
7   -0.014966 
8   -0.039738 
9   0.19814 
10   0.104717 
11   -0.24213 
12   -0.136612 
13   0.157237 
14   0.171432 
15   0.170941 
16   0.163092 
17   0.16231 
18   0.160321 
19   0.167707 
20   0.182037 
 
$$$$ 
 
