PCCDB-ID:  59342 
public computational chemistry database (PCCDB) project, http://pccdb.org 
 
 28 30  0  0  1  0  0  0  0  0999 V2000 
    2.4895    0.7703   -0.0212 C   0  0  0  0  0  0  0  0  0  0  0  0 
    2.5281   -0.6245    0.0555 C   0  0  0  0  0  0  0  0  0  0  0  0 
    1.2603    1.4226   -0.0660 C   0  0  0  0  0  0  0  0  0  0  0  0 
    1.3371   -1.3448    0.0885 C   0  0  0  0  0  0  0  0  0  0  0  0 
   -3.7642   -2.9279    0.4710 C   0  0  0  0  0  0  0  0  0  0  0  0 
   -4.1308   -2.2813   -0.8496 C   0  0  0  0  0  0  0  0  0  0  0  0 
   -1.2771    1.4207   -0.0709 C   0  0  0  0  0  0  0  0  0  0  0  0 
   -2.4086    0.4798   -0.4854 C   0  0  0  0  0  0  0  0  0  0  0  0 
   -1.1734   -1.5257    0.0566 C   0  0  0  0  0  0  0  0  0  0  0  0 
    0.0563    0.7056   -0.0329 C   0  0  0  0  0  0  0  0  0  0  0  0 
    0.0971   -0.6937    0.0469 C   0  0  0  0  0  0  0  0  0  0  0  0 
   -3.6250   -1.4404    0.3133 C   0  0  0  0  0  0  0  0  0  0  0  0 
   -2.3643   -0.7324    0.3329 N   0  0  2  0  0  0  0  0  0  0  0  0 
    3.4122    1.3439   -0.0487 H   0  0  0  0  0  0  0  0  0  0  0  0 
    3.4808   -1.1462    0.0915 H   0  0  0  0  0  0  0  0  0  0  0  0 
    1.2258    2.5085   -0.1297 H   0  0  0  0  0  0  0  0  0  0  0  0 
    1.3649   -2.4314    0.1494 H   0  0  0  0  0  0  0  0  0  0  0  0 
   -2.8737   -3.5481    0.4872 H   0  0  0  0  0  0  0  0  0  0  0  0 
   -4.5581   -3.2922    1.1176 H   0  0  0  0  0  0  0  0  0  0  0  0 
   -5.1781   -2.2029   -1.1294 H   0  0  0  0  0  0  0  0  0  0  0  0 
   -3.4603   -2.4619   -1.6856 H   0  0  0  0  0  0  0  0  0  0  0  0 
   -1.5051    1.8271    0.9241 H   0  0  0  0  0  0  0  0  0  0  0  0 
   -1.2293    2.2745   -0.7593 H   0  0  0  0  0  0  0  0  0  0  0  0 
   -2.3389    0.2487   -1.5665 H   0  0  0  0  0  0  0  0  0  0  0  0 
   -3.3770    0.9665   -0.3266 H   0  0  0  0  0  0  0  0  0  0  0  0 
   -1.0840   -2.2985    0.8278 H   0  0  0  0  0  0  0  0  0  0  0  0 
   -1.2394   -2.0579   -0.9165 H   0  0  0  0  0  0  0  0  0  0  0  0 
   -4.3957   -0.8560    0.8151 H   0  0  0  0  0  0  0  0  0  0  0  0 
  1  2  2  0  0  0  0 
  2  4  1  0  0  0  0 
  2 15  1  0  0  0  0 
  3 10  2  0  0  0  0 
  3  1  1  0  0  0  0 
  4 17  1  0  0  0  0 
  5 18  1  0  0  0  0 
  5 19  1  0  0  0  0 
  6 12  1  0  0  0  0 
  6  5  1  0  0  0  0 
  7 10  1  0  0  0  0 
  7 22  1  0  0  0  0 
  8 25  1  0  0  0  0 
  8  7  1  0  0  0  0 
  8 13  1  0  0  0  0 
  9 13  1  0  0  0  0 
  9 26  1  0  0  0  0 
 10 11  1  0  0  0  0 
 11  9  1  0  0  0  0 
 11  4  2  0  0  0  0 
 12  5  1  0  0  0  0 
 12 28  1  0  0  0  0 
 13 12  1  6  0  0  0 
 14  1  1  0  0  0  0 
 16  3  1  0  0  0  0 
 20  6  1  0  0  0  0 
 21  6  1  0  0  0  0 
 23  7  1  0  0  0  0 
 24  8  1  0  0  0  0 
 27  9  1  0  0  0  0 
M  END 
>  <HBA> 
1 
 
>  <HBD> 
0 
 
>  <TPSA> 
3.24 
 
>  <cid> 
59342 
 
>  <dipole> 
0.66 
 
>  <excitation_energy_1> 
4.613 
 
>  <excitation_energy_2> 
4.767 
 
>  <excitation_energy_3> 
5.061 
 
>  <excitation_energy_4> 
5.214 
 
>  <homo_energy> 
-5.437 
 
>  <homo_lumo_gap> 
5.513 
 
>  <logP> 
2.145 
 
>  <lumo_energy> 
0.076 
 
>  <melting_point> 
57.13 
 
>  <molecular_refractivity> 
58.19 
 
>  <oscillator_strength_1> 
0.0031 
 
>  <oscillator_strength_2> 
0.0043 
 
>  <oscillator_strength_3> 
0.0121 
 
>  <oscillator_strength_4> 
0.023 
 
>  <open_babel_can_smiles> 
c1ccc2c(c1)CN(CC2)C1CC1 
 
>  <mulliken_charges> 
28 
1   -0.127991 
2   -0.133168 
3   -0.192158 
4   -0.180076 
5   -0.331554 
6   -0.328873 
7   -0.333689 
8   -0.134185 
9   -0.183862 
10   0.129195 
11   0.094006 
12   0.050452 
13   -0.410368 
14   0.124987 
15   0.125242 
16   0.119781 
17   0.11837 
18   0.157353 
19   0.153127 
20   0.148426 
21   0.154057 
22   0.15982 
23   0.139723 
24   0.119354 
25   0.137554 
26   0.157115 
27   0.126631 
28   0.140731 
 
>  <lowdin_charges> 
28 
1   -0.160703 
2   -0.160649 
3   -0.161235 
4   -0.160997 
5   -0.321012 
6   -0.341695 
7   -0.278484 
8   -0.19127 
9   -0.198266 
10   -0.011376 
11   -0.016879 
12   -0.088609 
13   -0.171906 
14   0.156262 
15   0.15603 
16   0.15121 
17   0.150646 
18   0.161696 
19   0.161846 
20   0.156748 
21   0.159219 
22   0.157442 
23   0.15101 
24   0.118919 
25   0.147758 
26   0.15671 
27   0.125178 
28   0.152405 
 
$$$$ 
 
