PCCDB-ID:  10545 
public computational chemistry database (PCCDB) project, http://pccdb.org 
 
 28 29  0  0  1  0  0  0  0  0999 V2000 
    1.2106    0.4928   -0.5370 C   0  0  0  0  0  0  0  0  0  0  0  0 
    2.6075   -0.1194    1.4803 C   0  0  0  0  0  0  0  0  0  0  0  0 
    4.2253   -4.4383   -3.0576 C   0  0  0  0  0  0  0  0  0  0  0  0 
    4.8177   -2.8193   -1.1742 C   0  0  0  0  0  0  0  0  0  0  0  0 
    2.5298   -3.8024   -1.2373 C   0  0  0  0  0  0  0  0  0  0  0  0 
    4.4105   -1.7735   -0.4516 C   0  0  0  0  0  0  0  0  0  0  0  0 
    2.0560   -2.5886   -0.3932 C   0  0  0  0  0  0  0  0  0  0  0  0 
    2.5695   -0.0391   -0.0553 C   0  0  0  0  0  0  0  0  0  0  0  0 
    3.7453   -3.3721   -2.0830 C   0  0  2  0  0  0  0  0  0  0  0  0 
    2.9711   -1.3835   -0.7084 C   0  0  1  0  0  0  0  0  0  0  0  0 
    3.2964   -2.2827   -2.9421 O   0  0  0  0  0  0  0  0  0  0  0  0 
    2.8501   -1.1256   -2.1421 O   0  0  0  0  0  0  0  0  0  0  0  0 
    1.0281    1.4850   -0.1082 H   0  0  0  0  0  0  0  0  0  0  0  0 
    0.3869   -0.1570   -0.2188 H   0  0  0  0  0  0  0  0  0  0  0  0 
    1.1771    0.5764   -1.6257 H   0  0  0  0  0  0  0  0  0  0  0  0 
    2.4465    0.8763    1.9086 H   0  0  0  0  0  0  0  0  0  0  0  0 
    3.5660   -0.4915    1.8584 H   0  0  0  0  0  0  0  0  0  0  0  0 
    1.8181   -0.7744    1.8667 H   0  0  0  0  0  0  0  0  0  0  0  0 
    4.5741   -5.3167   -2.5036 H   0  0  0  0  0  0  0  0  0  0  0  0 
    5.0510   -4.0580   -3.6671 H   0  0  0  0  0  0  0  0  0  0  0  0 
    3.4138   -4.7457   -3.7239 H   0  0  0  0  0  0  0  0  0  0  0  0 
    5.8313   -3.2122   -1.1824 H   0  0  0  0  0  0  0  0  0  0  0  0 
    1.7388   -4.1375   -1.9168 H   0  0  0  0  0  0  0  0  0  0  0  0 
    2.8050   -4.6515   -0.6017 H   0  0  0  0  0  0  0  0  0  0  0  0 
    5.0515   -1.1943    0.2074 H   0  0  0  0  0  0  0  0  0  0  0  0 
    2.0908   -2.8145    0.6772 H   0  0  0  0  0  0  0  0  0  0  0  0 
    1.0244   -2.3274   -0.6457 H   0  0  0  0  0  0  0  0  0  0  0  0 
    3.3381    0.6776   -0.3769 H   0  0  0  0  0  0  0  0  0  0  0  0 
  1 14  1  0  0  0  0 
  1 13  1  0  0  0  0 
  1  8  1  0  0  0  0 
  2 17  1  0  0  0  0 
  2 18  1  0  0  0  0 
  2 16  1  0  0  0  0 
  3 19  1  0  0  0  0 
  4  6  2  0  0  0  0 
  5 24  1  0  0  0  0 
  5  7  1  0  0  0  0 
  6 25  1  0  0  0  0 
  7 26  1  0  0  0  0 
  8  2  1  0  0  0  0 
  9  3  1  6  0  0  0 
  9  5  1  0  0  0  0 
  9  4  1  0  0  0  0 
 10  6  1  0  0  0  0 
 10  7  1  0  0  0  0 
 10  8  1  1  0  0  0 
 11 12  1  0  0  0  0 
 11  9  1  0  0  0  0 
 12 10  1  0  0  0  0 
 15  1  1  0  0  0  0 
 20  3  1  0  0  0  0 
 21  3  1  0  0  0  0 
 22  4  1  0  0  0  0 
 23  5  1  0  0  0  0 
 27  7  1  0  0  0  0 
 28  8  1  0  0  0  0 
M  END 
>  <HBA> 
2 
 
>  <HBD> 
0 
 
>  <TPSA> 
18.46 
 
>  <cid> 
10545 
 
>  <dipole> 
2.72 
 
>  <excitation_energy_1> 
4.453 
 
>  <excitation_energy_2> 
4.766 
 
>  <excitation_energy_3> 
5.44 
 
>  <excitation_energy_4> 
5.735 
 
>  <homo_energy> 
-5.763 
 
>  <homo_lumo_gap> 
5.878 
 
>  <logP> 
2.452 
 
>  <lumo_energy> 
0.114 
 
>  <melting_point> 
34.57 
 
>  <molecular_refractivity> 
47.73 
 
>  <oscillator_strength_1> 
0.0003 
 
>  <oscillator_strength_2> 
0.0022 
 
>  <oscillator_strength_3> 
0.0002 
 
>  <oscillator_strength_4> 
0.009 
 
>  <open_babel_can_smiles> 
CC([C@@]12CC[C@@](OO1)(C=C2)C)C 
 
>  <mulliken_charges> 
28 
1   -0.456098 
2   -0.459514 
3   -0.484936 
4   -0.113566 
5   -0.266212 
6   -0.120043 
7   -0.281231 
8   -0.119536 
9   0.256431 
10   0.282514 
11   -0.295603 
12   -0.314785 
13   0.139093 
14   0.140135 
15   0.176812 
16   0.150256 
17   0.146049 
18   0.148929 
19   0.15166 
20   0.165788 
21   0.163088 
22   0.133922 
23   0.148026 
24   0.136992 
25   0.136243 
26   0.142092 
27   0.152488 
28   0.141005 
 
>  <lowdin_charges> 
28 
1   -0.445982 
2   -0.446537 
3   -0.443734 
4   -0.171983 
5   -0.285294 
6   -0.173103 
7   -0.285777 
8   -0.122873 
9   0.113476 
10   0.112758 
11   -0.164597 
12   -0.16718 
13   0.148884 
14   0.146669 
15   0.163767 
16   0.154513 
17   0.149484 
18   0.150628 
19   0.160211 
20   0.164326 
21   0.163631 
22   0.158938 
23   0.155164 
24   0.149308 
25   0.16132 
26   0.148893 
27   0.155126 
28   0.149964 
 
$$$$ 
 
