PCCDB-ID:  13832 
public computational chemistry database (PCCDB) project, http://pccdb.org 
 
 21 20  0  0  0  0  0  0  0  0999 V2000 
    2.9651    3.1833   -2.0651 C   0  0  0  0  0  0  0  0  0  0  0  0 
    2.7914    1.6978   -1.7914 C   0  0  0  0  0  0  0  0  0  0  0  0 
    5.9932   -1.2695    1.3474 C   0  0  0  0  0  0  0  0  0  0  0  0 
    6.1001    0.0598   -1.2454 C   0  0  0  0  0  0  0  0  0  0  0  0 
    5.9048   -2.0743    0.1213 C   0  0  0  0  0  0  0  0  0  0  0  0 
    4.8780    0.9269   -0.9352 C   0  0  0  0  0  0  0  0  0  0  0  0 
    6.3105   -2.5064    3.4306 N   0  0  0  0  0  0  0  0  0  0  0  0 
    5.8263   -1.3551   -1.0573 N   0  0  0  0  0  0  0  0  0  0  0  0 
    6.1561   -1.9228    2.4674 N   0  0  0  0  0  0  0  0  0  0  0  0 
    5.8846   -3.3009    0.1182 O   0  0  0  0  0  0  0  0  0  0  0  0 
    4.6818    1.4616    0.1381 O   0  0  0  0  0  0  0  0  0  0  0  0 
    4.0392    0.9773   -1.9824 O   0  0  0  0  0  0  0  0  0  0  0  0 
    1.9953    3.6880   -1.9882 H   0  0  0  0  0  0  0  0  0  0  0  0 
    3.3600    3.3515   -3.0724 H   0  0  0  0  0  0  0  0  0  0  0  0 
    3.6441    3.6344   -1.3361 H   0  0  0  0  0  0  0  0  0  0  0  0 
    2.1051    1.2335   -2.5031 H   0  0  0  0  0  0  0  0  0  0  0  0 
    2.4383    1.5174   -0.7735 H   0  0  0  0  0  0  0  0  0  0  0  0 
    5.8125   -0.2051    1.4300 H   0  0  0  0  0  0  0  0  0  0  0  0 
    6.9167    0.3865   -0.5946 H   0  0  0  0  0  0  0  0  0  0  0  0 
    6.4004    0.2150   -2.2845 H   0  0  0  0  0  0  0  0  0  0  0  0 
    5.7429   -1.9438   -1.8749 H   0  0  0  0  0  0  0  0  0  0  0  0 
  1 13  1  0  0  0  0 
  1  2  1  0  0  0  0 
  1 15  1  0  0  0  0 
  2 17  1  0  0  0  0 
  3 18  1  0  0  0  0 
  3  9  1  0  0  0  0 
  4  8  1  0  0  0  0 
  4  6  1  0  0  0  0 
  4 19  1  0  0  0  0 
  5  3  1  0  0  0  0 
  6 11  2  0  0  0  0 
  8  5  1  0  0  0  0 
  9  7  1  0  0  0  0 
 10  5  2  0  0  0  0 
 12  2  1  0  0  0  0 
 12  6  1  0  0  0  0 
 14  1  1  0  0  0  0 
 16  2  1  0  0  0  0 
 20  4  1  0  0  0  0 
 21  8  1  0  0  0  0 
M  RAD  3   3   2   7   3   9   2 
M  END 
>  <HBA> 
5 
 
>  <HBD> 
1 
 
>  <TPSA> 
89.54 
 
>  <cid> 
13832 
 
>  <dipole> 
5.25 
 
>  <excitation_energy_1> 
3.147 
 
>  <excitation_energy_2> 
4.44 
 
>  <excitation_energy_3> 
4.661 
 
>  <excitation_energy_4> 
4.961 
 
>  <homo_energy> 
-6.354 
 
>  <homo_lumo_gap> 
4.8 
 
>  <logP> 
0.612 
 
>  <lumo_energy> 
-1.554 
 
>  <melting_point> 
62.78 
 
>  <molecular_refractivity> 
38.23 
 
>  <oscillator_strength_1> 
0.0001 
 
>  <oscillator_strength_2> 
0.0001 
 
>  <oscillator_strength_3> 
0.001 
 
>  <oscillator_strength_4> 
0.0022 
 
>  <open_babel_can_smiles> 
CCOC(=O)CNC(=O)[CH][N][N] 
 
>  <mulliken_charges> 
21 
1   -0.463763 
2   -0.050252 
3   -0.188543 
4   -0.217744 
5   0.586045 
6   0.6288 
7   -0.193165 
8   -0.606267 
9   0.181914 
10   -0.524112 
11   -0.47105 
12   -0.447581 
13   0.157207 
14   0.160217 
15   0.177582 
16   0.161053 
17   0.176375 
18   0.225249 
19   0.186377 
20   0.181599 
21   0.340059 
 
>  <lowdin_charges> 
21 
1   -0.454675 
2   -0.126312 
3   -0.313451 
4   -0.216219 
5   0.159362 
6   0.186867 
7   -0.027108 
8   -0.282315 
9   0.195972 
10   -0.320436 
11   -0.269275 
12   -0.183129 
13   0.162429 
14   0.157109 
15   0.167316 
16   0.158364 
17   0.161058 
18   0.205687 
19   0.170688 
20   0.173872 
21   0.294195 
 
$$$$ 
 
