PCCDB-ID:  45834 
public computational chemistry database (PCCDB) project, http://pccdb.org 
 
 34 35  0  0  1  0  0  0  0  0999 V2000 
    5.0342   -0.0173    0.9415 C   0  0  0  0  0  0  0  0  0  0  0  0 
   -1.6155    1.6175    4.2308 C   0  0  0  0  0  0  0  0  0  0  0  0 
    4.0582    0.8261    1.7617 C   0  0  0  0  0  0  0  0  0  0  0  0 
    0.5981    4.3877    1.8126 C   0  0  0  0  0  0  0  0  0  0  0  0 
    0.3325    3.4161    0.6459 C   0  0  0  0  0  0  0  0  0  0  0  0 
    1.8225    3.9639    2.6458 C   0  0  0  0  0  0  0  0  0  0  0  0 
   -0.6657    1.4423    2.0146 C   0  0  0  0  0  0  0  0  0  0  0  0 
    0.7515    1.9580    3.9113 C   0  0  0  0  0  0  0  0  0  0  0  0 
    0.4316    1.9315    1.0562 C   0  0  2  0  0  0  0  0  0  0  0  0 
    1.8559    2.4494    2.9555 C   0  0  1  0  0  0  0  0  0  0  0  0 
    2.7043    0.9733    1.0591 C   0  0  0  0  0  0  0  0  0  0  0  0 
   -0.5803    2.0888    3.3259 N   0  0  0  0  0  0  0  0  0  0  0  0 
    1.7334    1.7037    1.6994 N   0  0  0  0  0  0  0  0  0  0  0  0 
    2.4988    0.4482   -0.0332 O   0  0  0  0  0  0  0  0  0  0  0  0 
    5.9901   -0.1134    1.4681 H   0  0  0  0  0  0  0  0  0  0  0  0 
    5.2172    0.4377   -0.0356 H   0  0  0  0  0  0  0  0  0  0  0  0 
    4.6308   -1.0176    0.7627 H   0  0  0  0  0  0  0  0  0  0  0  0 
   -2.6018    1.7941    3.7879 H   0  0  0  0  0  0  0  0  0  0  0  0 
   -1.5613    2.1710    5.1751 H   0  0  0  0  0  0  0  0  0  0  0  0 
   -1.5323    0.5368    4.4616 H   0  0  0  0  0  0  0  0  0  0  0  0 
    4.4818    1.8230    1.9464 H   0  0  0  0  0  0  0  0  0  0  0  0 
    3.9076    0.3751    2.7521 H   0  0  0  0  0  0  0  0  0  0  0  0 
   -0.2808    4.4216    2.4603 H   0  0  0  0  0  0  0  0  0  0  0  0 
    0.7567    5.4008    1.4207 H   0  0  0  0  0  0  0  0  0  0  0  0 
    1.0727    3.5783   -0.1487 H   0  0  0  0  0  0  0  0  0  0  0  0 
   -0.6534    3.6139    0.2059 H   0  0  0  0  0  0  0  0  0  0  0  0 
    1.8598    4.5327    3.5842 H   0  0  0  0  0  0  0  0  0  0  0  0 
    2.7433    4.2005    2.0945 H   0  0  0  0  0  0  0  0  0  0  0  0 
   -0.5795    0.3402    2.1016 H   0  0  0  0  0  0  0  0  0  0  0  0 
   -1.6529    1.6599    1.5877 H   0  0  0  0  0  0  0  0  0  0  0  0 
    0.7805    2.5434    4.8391 H   0  0  0  0  0  0  0  0  0  0  0  0 
    0.9787    0.9045    4.1787 H   0  0  0  0  0  0  0  0  0  0  0  0 
    0.4142    1.3054    0.1630 H   0  0  0  0  0  0  0  0  0  0  0  0 
    2.8130    2.2098    3.4233 H   0  0  0  0  0  0  0  0  0  0  0  0 
  1 15  1  0  0  0  0 
  1  3  1  0  0  0  0 
  2 20  1  0  0  0  0 
  2 19  1  0  0  0  0 
  3 21  1  0  0  0  0 
  3 22  1  0  0  0  0 
  4 23  1  0  0  0  0 
  4  6  1  0  0  0  0 
  5  9  1  0  0  0  0 
  5  4  1  0  0  0  0 
  6 10  1  0  0  0  0 
  6 27  1  0  0  0  0 
  7 29  1  0  0  0  0 
  7 12  1  0  0  0  0 
  8 32  1  0  0  0  0 
  8 31  1  0  0  0  0 
  9 33  1  6  0  0  0 
  9 13  1  0  0  0  0 
  9  7  1  0  0  0  0 
 10 34  1  1  0  0  0 
 10  8  1  0  0  0  0 
 11 13  1  0  0  0  0 
 11  3  1  0  0  0  0 
 12  8  1  0  0  0  0 
 12  2  1  0  0  0  0 
 13 10  1  0  0  0  0 
 14 11  2  0  0  0  0 
 16  1  1  0  0  0  0 
 17  1  1  0  0  0  0 
 18  2  1  0  0  0  0 
 24  4  1  0  0  0  0 
 25  5  1  0  0  0  0 
 26  5  1  0  0  0  0 
 28  6  1  0  0  0  0 
 30  7  1  0  0  0  0 
M  END 
>  <HBA> 
3 
 
>  <HBD> 
0 
 
>  <TPSA> 
23.55 
 
>  <cid> 
45834 
 
>  <dipole> 
3.48 
 
>  <excitation_energy_1> 
5.105 
 
>  <excitation_energy_2> 
5.475 
 
>  <excitation_energy_3> 
5.597 
 
>  <excitation_energy_4> 
5.633 
 
>  <homo_energy> 
-5.804 
 
>  <homo_lumo_gap> 
6.803 
 
>  <logP> 
0.967 
 
>  <lumo_energy> 
0.999 
 
>  <melting_point> 
41.94 
 
>  <molecular_refractivity> 
64.58 
 
>  <oscillator_strength_1> 
0.0114 
 
>  <oscillator_strength_2> 
0.0021 
 
>  <oscillator_strength_3> 
0.0085 
 
>  <oscillator_strength_4> 
0.0013 
 
>  <open_babel_can_smiles> 
CCC(=O)N1[C@@H]2CCC[C@H]1CN(C2)C 
 
>  <mulliken_charges> 
34 
1   -0.427248 
2   -0.292126 
3   -0.370377 
4   -0.262156 
5   -0.260477 
6   -0.253655 
7   -0.117719 
8   -0.105337 
9   -0.006224 
10   -0.010814 
11   0.595565 
12   -0.389802 
13   -0.434071 
14   -0.523356 
15   0.131686 
16   0.161827 
17   0.162669 
18   0.150839 
19   0.148292 
20   0.12117 
21   0.157071 
22   0.15743 
23   0.161332 
24   0.128103 
25   0.144331 
26   0.132537 
27   0.1322 
28   0.134344 
29   0.120591 
30   0.139146 
31   0.137891 
32   0.112174 
33   0.17999 
34   0.144175 
 
>  <lowdin_charges> 
34 
1   -0.436212 
2   -0.35256 
3   -0.305529 
4   -0.286696 
5   -0.281162 
6   -0.282374 
7   -0.201905 
8   -0.204294 
9   -0.067754 
10   -0.066065 
11   0.153744 
12   -0.185656 
13   -0.107995 
14   -0.319198 
15   0.145486 
16   0.159424 
17   0.159522 
18   0.150911 
19   0.149898 
20   0.120611 
21   0.155217 
22   0.155531 
23   0.155042 
24   0.141314 
25   0.149341 
26   0.1459 
27   0.145705 
28   0.143328 
29   0.1219 
30   0.146692 
31   0.146332 
32   0.118449 
33   0.176334 
34   0.15672 
 
$$$$ 
 
