PCCDB-ID:  30846 
public computational chemistry database (PCCDB) project, http://pccdb.org 
 
 18 19  0  0  0  0  0  0  0  0999 V2000 
    0.8755   -0.0022    0.1589 C   0  0  0  0  0  0  0  0  0  0  0  0 
    3.9548    3.4083   -0.0450 C   0  0  0  0  0  0  0  0  0  0  0  0 
    5.2673    2.9271   -0.0534 C   0  0  0  0  0  0  0  0  0  0  0  0 
    2.8553    2.5391    0.0135 C   0  0  0  0  0  0  0  0  0  0  0  0 
    5.5386    1.5505   -0.0037 C   0  0  0  0  0  0  0  0  0  0  0  0 
    3.1297    1.1785    0.0633 C   0  0  0  0  0  0  0  0  0  0  0  0 
    4.4467    0.7078    0.0538 C   0  0  0  0  0  0  0  0  0  0  0  0 
    3.1166   -1.0912    0.1537 C   0  0  0  0  0  0  0  0  0  0  0  0 
    2.3230    0.0453    0.1261 N   0  0  0  0  0  0  0  0  0  0  0  0 
    2.7785   -2.2470    0.2058 O   0  0  0  0  0  0  0  0  0  0  0  0 
    4.4413   -0.6687    0.1091 O   0  0  0  0  0  0  0  0  0  0  0  0 
    0.4908    0.5226    1.0405 H   0  0  0  0  0  0  0  0  0  0  0  0 
    0.5833   -1.0522    0.2052 H   0  0  0  0  0  0  0  0  0  0  0  0 
    0.4528    0.4540   -0.7433 H   0  0  0  0  0  0  0  0  0  0  0  0 
    3.7777    4.4789   -0.0857 H   0  0  0  0  0  0  0  0  0  0  0  0 
    6.0955    3.6277   -0.0997 H   0  0  0  0  0  0  0  0  0  0  0  0 
    1.8380    2.9173    0.0202 H   0  0  0  0  0  0  0  0  0  0  0  0 
    6.5507    1.1609   -0.0097 H   0  0  0  0  0  0  0  0  0  0  0  0 
  1 13  1  0  0  0  0 
  1 12  1  0  0  0  0 
  2  4  1  0  0  0  0 
  3  2  2  0  0  0  0 
  3  5  1  0  0  0  0 
  4 17  1  0  0  0  0 
  4  6  2  0  0  0  0 
  5  7  2  0  0  0  0 
  6  9  1  0  0  0  0 
  7  6  1  0  0  0  0 
  7 11  1  0  0  0  0 
  8 10  2  0  0  0  0 
  9  8  1  0  0  0  0 
  9  1  1  0  0  0  0 
 11  8  1  0  0  0  0 
 14  1  1  0  0  0  0 
 15  2  1  0  0  0  0 
 16  3  1  0  0  0  0 
 18  5  1  0  0  0  0 
M  END 
>  <HBA> 
3 
 
>  <HBD> 
0 
 
>  <TPSA> 
35.14 
 
>  <cid> 
30846 
 
>  <dipole> 
4.17 
 
>  <excitation_energy_1> 
4.883 
 
>  <excitation_energy_2> 
5.428 
 
>  <excitation_energy_3> 
5.435 
 
>  <excitation_energy_4> 
5.809 
 
>  <homo_energy> 
-6.03 
 
>  <homo_lumo_gap> 
5.641 
 
>  <logP> 
1.131 
 
>  <lumo_energy> 
-0.389 
 
>  <melting_point> 
85.49 
 
>  <molecular_refractivity> 
41.74 
 
>  <oscillator_strength_1> 
0.1025 
 
>  <oscillator_strength_2> 
0.0684 
 
>  <oscillator_strength_3> 
0.0037 
 
>  <oscillator_strength_4> 
0.014 
 
>  <open_babel_can_smiles> 
Cn1c(=O)oc2c1cccc2 
 
>  <mulliken_charges> 
18 
1   -0.331519 
2   -0.145397 
3   -0.141828 
4   -0.173629 
5   -0.189722 
6   0.352583 
7   0.318599 
8   0.765831 
9   -0.566558 
10   -0.493374 
11   -0.518146 
12   0.173602 
13   0.208102 
14   0.173566 
15   0.135845 
16   0.13699 
17   0.140459 
18   0.154596 
 
>  <lowdin_charges> 
18 
1   -0.345198 
2   -0.155148 
3   -0.163121 
4   -0.184963 
5   -0.170123 
6   0.021975 
7   0.081555 
8   0.208996 
9   -0.066626 
10   -0.263474 
11   -0.138797 
12   0.162076 
13   0.187442 
14   0.161977 
15   0.160523 
16   0.164068 
17   0.164526 
18   0.174312 
 
$$$$ 
 
