PCCDB-ID:  11686 
public computational chemistry database (PCCDB) project, http://pccdb.org 
 
 17 16  0  0  0  0  0  0  0  0999 V2000 
    0.8309   -0.1533   -0.0473 C   0  0  0  0  0  0  0  0  0  0  0  0 
    3.0704   -0.4852   -1.1924 C   0  0  0  0  0  0  0  0  0  0  0  0 
    2.7377    1.3951    0.4242 C   0  0  0  0  0  0  0  0  0  0  0  0 
    2.7810   -1.0767    1.2256 C   0  0  0  0  0  0  0  0  0  0  0  0 
    2.3694   -0.0537    0.1216 C   0  0  0  0  0  0  0  0  0  0  0  0 
    3.3035    1.8138    1.4251 O   0  0  0  0  0  0  0  0  0  0  0  0 
    2.3685    2.2348   -0.5569 O   0  0  0  0  0  0  0  0  0  0  0  0 
    2.5294   -2.2485    1.0614 O   0  0  0  0  0  0  0  0  0  0  0  0 
    3.3989   -0.6404    2.3268 O   0  0  0  0  0  0  0  0  0  0  0  0 
    0.4963    0.4598   -0.8879 H   0  0  0  0  0  0  0  0  0  0  0  0 
    0.3071    0.1767    0.8567 H   0  0  0  0  0  0  0  0  0  0  0  0 
    0.5710   -1.1978   -0.2314 H   0  0  0  0  0  0  0  0  0  0  0  0 
    2.7265    0.1269   -2.0299 H   0  0  0  0  0  0  0  0  0  0  0  0 
    2.8310   -1.5333   -1.3834 H   0  0  0  0  0  0  0  0  0  0  0  0 
    4.1592   -0.3906   -1.1142 H   0  0  0  0  0  0  0  0  0  0  0  0 
    2.6405    3.1302   -0.2767 H   0  0  0  0  0  0  0  0  0  0  0  0 
    3.5132    0.3394    2.2722 H   0  0  0  0  0  0  0  0  0  0  0  0 
  1  5  1  0  0  0  0 
  1 11  1  0  0  0  0 
  2 15  1  0  0  0  0 
  2  5  1  0  0  0  0 
  3  6  2  0  0  0  0 
  4  9  1  0  0  0  0 
  5  3  1  0  0  0  0 
  5  4  1  0  0  0  0 
  7 16  1  0  0  0  0 
  7  3  1  0  0  0  0 
  8  4  2  0  0  0  0 
 10  1  1  0  0  0  0 
 12  1  1  0  0  0  0 
 13  2  1  0  0  0  0 
 14  2  1  0  0  0  0 
 17  9  1  0  0  0  0 
M  END 
>  <HBA> 
4 
 
>  <HBD> 
2 
 
>  <TPSA> 
74.6 
 
>  <cid> 
11686 
 
>  <dipole> 
5.05 
 
>  <excitation_energy_1> 
5.592 
 
>  <excitation_energy_2> 
5.712 
 
>  <excitation_energy_3> 
5.857 
 
>  <excitation_energy_4> 
6.555 
 
>  <homo_energy> 
-7.279 
 
>  <homo_lumo_gap> 
6.49 
 
>  <logP> 
0.182 
 
>  <lumo_energy> 
-0.789 
 
>  <melting_point> 
147.1 
 
>  <molecular_refractivity> 
29.43 
 
>  <oscillator_strength_1> 
0.0002 
 
>  <oscillator_strength_2> 
0.0005 
 
>  <oscillator_strength_3> 
0.0015 
 
>  <oscillator_strength_4> 
0.0076 
 
>  <open_babel_can_smiles> 
OC(=O)C(C(=O)O)(C)C 
 
>  <mulliken_charges> 
17 
1   -0.458821 
2   -0.458898 
3   0.62739 
4   0.622071 
5   -0.1284 
6   -0.506308 
7   -0.555009 
8   -0.46791 
9   -0.587904 
10   0.169161 
11   0.160283 
12   0.193972 
13   0.169123 
14   0.194006 
15   0.160112 
16   0.422532 
17   0.4446 
 
>  <lowdin_charges> 
17 
1   -0.432968 
2   -0.430822 
3   0.210232 
4   0.187731 
5   -0.051363 
6   -0.281449 
7   -0.326453 
8   -0.256138 
9   -0.346932 
10   0.163095 
11   0.158888 
12   0.176414 
13   0.163093 
14   0.17633 
15   0.156434 
16   0.370199 
17   0.363709 
 
$$$$ 
 
