PCCDB-ID:  23677 
public computational chemistry database (PCCDB) project, http://pccdb.org 
 
 21 21  0  0  1  0  0  0  0  0999 V2000 
    0.8479   -0.1411   -0.2010 C   0  0  0  0  0  0  0  0  0  0  0  0 
    4.4128    1.1883    0.7519 C   0  0  0  0  0  0  0  0  0  0  0  0 
    5.0459   -0.1262    1.2394 C   0  0  0  0  0  0  0  0  0  0  0  0 
    2.8746    1.1298    0.7743 C   0  0  0  0  0  0  0  0  0  0  0  0 
    4.4473   -1.3445    0.5152 C   0  0  0  0  0  0  0  0  0  0  0  0 
    2.3659   -0.0981   -0.0046 C   0  0  1  0  0  0  0  0  0  0  0  0 
    2.4916   -2.0609    1.5975 N   0  0  0  0  0  0  0  0  0  0  0  0 
    2.9856   -1.3095    0.5968 N   0  0  0  0  0  0  0  0  0  0  0  0 
    1.3352   -1.8362    1.9400 O   0  0  0  0  0  0  0  0  0  0  0  0 
    0.5768    0.6590   -0.9011 H   0  0  0  0  0  0  0  0  0  0  0  0 
    0.3022    0.0030    0.7304 H   0  0  0  0  0  0  0  0  0  0  0  0 
    0.5314   -1.0934   -0.6358 H   0  0  0  0  0  0  0  0  0  0  0  0 
    4.7448    1.3892   -0.2775 H   0  0  0  0  0  0  0  0  0  0  0  0 
    4.7702    2.0261    1.3625 H   0  0  0  0  0  0  0  0  0  0  0  0 
    4.8678   -0.2480    2.3161 H   0  0  0  0  0  0  0  0  0  0  0  0 
    6.1329   -0.1082    1.0917 H   0  0  0  0  0  0  0  0  0  0  0  0 
    2.4522    2.0414    0.3328 H   0  0  0  0  0  0  0  0  0  0  0  0 
    2.5038    1.0685    1.8058 H   0  0  0  0  0  0  0  0  0  0  0  0 
    4.7726   -2.2826    0.9707 H   0  0  0  0  0  0  0  0  0  0  0  0 
    4.7372   -1.3511   -0.5434 H   0  0  0  0  0  0  0  0  0  0  0  0 
    2.8158   -0.0606   -1.0077 H   0  0  0  0  0  0  0  0  0  0  0  0 
  1  6  1  0  0  0  0 
  1 11  1  0  0  0  0 
  2  4  1  0  0  0  0 
  2  3  1  0  0  0  0 
  2 14  1  0  0  0  0 
  3 15  1  0  0  0  0 
  4 18  1  0  0  0  0 
  5  8  1  0  0  0  0 
  5 19  1  0  0  0  0 
  5  3  1  0  0  0  0 
  6 21  1  6  0  0  0 
  6  8  1  0  0  0  0 
  6  4  1  0  0  0  0 
  7  9  2  0  0  0  0 
  8  7  1  0  0  0  0 
 10  1  1  0  0  0  0 
 12  1  1  0  0  0  0 
 13  2  1  0  0  0  0 
 16  3  1  0  0  0  0 
 17  4  1  0  0  0  0 
 20  5  1  0  0  0  0 
M  END 
>  <HBA> 
3 
 
>  <HBD> 
0 
 
>  <TPSA> 
32.67 
 
>  <cid> 
23677 
 
>  <dipole> 
4.04 
 
>  <excitation_energy_1> 
3.159 
 
>  <excitation_energy_2> 
5.388 
 
>  <excitation_energy_3> 
5.581 
 
>  <excitation_energy_4> 
5.797 
 
>  <homo_energy> 
-5.772 
 
>  <homo_lumo_gap> 
5.012 
 
>  <logP> 
1.48 
 
>  <lumo_energy> 
-0.759 
 
>  <melting_point> 
17.7 
 
>  <molecular_refractivity> 
40.39 
 
>  <oscillator_strength_1> 
0.0014 
 
>  <oscillator_strength_2> 
0.0046 
 
>  <oscillator_strength_3> 
0.1391 
 
>  <oscillator_strength_4> 
0.0157 
 
>  <open_babel_can_smiles> 
O=NN1CCCC[C@@H]1C 
 
>  <mulliken_charges> 
21 
1   -0.442504 
2   -0.27287 
3   -0.264645 
4   -0.259362 
5   -0.144547 
6   0.030936 
7   0.139974 
8   -0.223664 
9   -0.37787 
10   0.134602 
11   0.182386 
12   0.160241 
13   0.132819 
14   0.144824 
15   0.153238 
16   0.142505 
17   0.141068 
18   0.157149 
19   0.176976 
20   0.14817 
21   0.140574 
 
>  <lowdin_charges> 
21 
1   -0.447302 
2   -0.28007 
3   -0.2826 
4   -0.283866 
5   -0.201904 
6   -0.060904 
7   0.04741 
8   -0.055007 
9   -0.2669 
10   0.148069 
11   0.168772 
12   0.161916 
13   0.138787 
14   0.15196 
15   0.149138 
16   0.149661 
17   0.151371 
18   0.152733 
19   0.168419 
20   0.144836 
21   0.145483 
 
$$$$ 
 
