PCCDB-ID:  23838 
public computational chemistry database (PCCDB) project, http://pccdb.org 
 
 30 32  0  0  0  0  0  0  0  0999 V2000 
    0.9970    0.1333    0.0223 C   0  0  0  0  0  0  0  0  0  0  0  0 
    4.5878   -6.1724    0.0241 C   0  0  0  0  0  0  0  0  0  0  0  0 
    4.6196    1.3170    0.0255 C   0  0  0  0  0  0  0  0  0  0  0  0 
    7.4526   -3.6605    0.0272 C   0  0  0  0  0  0  0  0  0  0  0  0 
    3.2135    1.3068    0.0247 C   0  0  0  0  0  0  0  0  0  0  0  0 
    6.7261   -4.8640    0.0268 C   0  0  0  0  0  0  0  0  0  0  0  0 
    5.3262    0.1319    0.0252 C   0  0  0  0  0  0  0  0  0  0  0  0 
    6.7943   -2.4481    0.0261 C   0  0  0  0  0  0  0  0  0  0  0  0 
    2.5440   -2.3755    0.0213 C   0  0  0  0  0  0  0  0  0  0  0  0 
    3.2172   -3.5592    0.0212 C   0  0  0  0  0  0  0  0  0  0  0  0 
    2.5086    0.1154    0.0237 C   0  0  0  0  0  0  0  0  0  0  0  0 
    5.3416   -4.8622    0.0248 C   0  0  0  0  0  0  0  0  0  0  0  0 
    3.2300   -1.1170    0.0231 C   0  0  0  0  0  0  0  0  0  0  0  0 
    4.6499   -3.6125    0.0233 C   0  0  0  0  0  0  0  0  0  0  0  0 
    4.6585   -1.1163    0.0243 C   0  0  0  0  0  0  0  0  0  0  0  0 
    5.3800   -2.3848    0.0244 C   0  0  0  0  0  0  0  0  0  0  0  0 
    0.6232    1.1617    0.0237 H   0  0  0  0  0  0  0  0  0  0  0  0 
    0.5797   -0.3709    0.9031 H   0  0  0  0  0  0  0  0  0  0  0  0 
    0.5815   -0.3677   -0.8613 H   0  0  0  0  0  0  0  0  0  0  0  0 
    5.2846   -7.0159    0.0277 H   0  0  0  0  0  0  0  0  0  0  0  0 
    3.9465   -6.2765   -0.8602 H   0  0  0  0  0  0  0  0  0  0  0  0 
    3.9402   -6.2739    0.9040 H   0  0  0  0  0  0  0  0  0  0  0  0 
    5.1515    2.2647    0.0259 H   0  0  0  0  0  0  0  0  0  0  0  0 
    8.5391   -3.6865    0.0282 H   0  0  0  0  0  0  0  0  0  0  0  0 
    2.6701    2.2487    0.0257 H   0  0  0  0  0  0  0  0  0  0  0  0 
    7.2590   -5.8119    0.0286 H   0  0  0  0  0  0  0  0  0  0  0  0 
    6.4093    0.1715    0.0261 H   0  0  0  0  0  0  0  0  0  0  0  0 
    7.3822   -1.5375    0.0266 H   0  0  0  0  0  0  0  0  0  0  0  0 
    1.4591   -2.3836    0.0201 H   0  0  0  0  0  0  0  0  0  0  0  0 
    2.6550   -4.4872    0.0193 H   0  0  0  0  0  0  0  0  0  0  0  0 
  1 11  1  0  0  0  0 
  1 17  1  0  0  0  0 
  1 18  1  0  0  0  0 
  2 12  1  0  0  0  0 
  2 20  1  0  0  0  0 
  2 22  1  0  0  0  0 
  3 23  1  0  0  0  0 
  4 24  1  0  0  0  0 
  5  3  2  0  0  0  0 
  5 25  1  0  0  0  0 
  6  4  1  0  0  0  0 
  6 26  1  0  0  0  0 
  7  3  1  0  0  0  0 
  7 27  1  0  0  0  0 
  8 28  1  0  0  0  0 
  8  4  2  0  0  0  0 
  9 13  1  0  0  0  0 
 10  9  2  0  0  0  0 
 10 14  1  0  0  0  0 
 11  5  1  0  0  0  0 
 12  6  2  0  0  0  0 
 13 11  2  0  0  0  0 
 13 15  1  0  0  0  0 
 14 16  2  0  0  0  0 
 14 12  1  0  0  0  0 
 15 16  1  0  0  0  0 
 15  7  2  0  0  0  0 
 16  8  1  0  0  0  0 
 19  1  1  0  0  0  0 
 21  2  1  0  0  0  0 
 29  9  1  0  0  0  0 
 30 10  1  0  0  0  0 
M  END 
>  <HBA> 
0 
 
>  <HBD> 
0 
 
>  <TPSA> 
0.0 
 
>  <cid> 
23838 
 
>  <dipole> 
0.48 
 
>  <excitation_energy_1> 
3.888 
 
>  <excitation_energy_2> 
4.043 
 
>  <excitation_energy_3> 
4.605 
 
>  <excitation_energy_4> 
4.817 
 
>  <homo_energy> 
-5.57 
 
>  <homo_lumo_gap> 
4.555 
 
>  <logP> 
4.61 
 
>  <lumo_energy> 
-1.015 
 
>  <melting_point> 
102.67 
 
>  <molecular_refractivity> 
71.39 
 
>  <oscillator_strength_1> 
0.0004 
 
>  <oscillator_strength_2> 
0.1524 
 
>  <oscillator_strength_3> 
0.1629 
 
>  <oscillator_strength_4> 
0.5724 
 
>  <open_babel_can_smiles> 
Cc1cccc2c1ccc1c2cccc1C 
 
>  <mulliken_charges> 
30 
1   -0.53587 
2   -0.535491 
3   -0.132044 
4   -0.131885 
5   -0.19557 
6   -0.195391 
7   -0.190833 
8   -0.191163 
9   -0.199609 
10   -0.199798 
11   0.121272 
12   0.121168 
13   0.086181 
14   0.085991 
15   0.058954 
16   0.059041 
17   0.155945 
18   0.162895 
19   0.162938 
20   0.155932 
21   0.162846 
22   0.162807 
23   0.12712 
24   0.127142 
25   0.120387 
26   0.120337 
27   0.131342 
28   0.13135 
29   0.127033 
30   0.126972 
 
>  <lowdin_charges> 
30 
1   -0.444563 
2   -0.444582 
3   -0.156974 
4   -0.15405 
5   -0.170576 
6   -0.170784 
7   -0.159879 
8   -0.163282 
9   -0.159908 
10   -0.162876 
11   0.000651 
12   -0.000306 
13   -0.011714 
14   -0.011062 
15   -6.8e-05 
16   0.000291 
17   0.157154 
18   0.160324 
19   0.160332 
20   0.158527 
21   0.160035 
22   0.160031 
23   0.157515 
24   0.155277 
25   0.15447 
26   0.154404 
27   0.155354 
28   0.157884 
29   0.158024 
30   0.16035 
 
$$$$ 
 
