PCCDB-ID:  8038 
public computational chemistry database (PCCDB) project, http://pccdb.org 
 
 20 19  0  0  0  0  0  0  0  0999 V2000 
    0.8393    0.2056   -0.0553 C   0  0  0  0  0  0  0  0  0  0  0  0 
    2.7055   -1.4251    0.4960 C   0  0  0  0  0  0  0  0  0  0  0  0 
    6.6398    1.1551   -0.6203 C   0  0  0  0  0  0  0  0  0  0  0  0 
    3.0493    0.4261   -1.2054 C   0  0  0  0  0  0  0  0  0  0  0  0 
    2.3555    0.0141    0.0962 C   0  0  0  0  0  0  0  0  0  0  0  0 
    5.1497    1.4085   -0.6436 C   0  0  0  0  0  0  0  0  0  0  0  0 
    4.6084    2.4359   -0.2981 O   0  0  0  0  0  0  0  0  0  0  0  0 
    4.4900    0.3231   -1.1162 O   0  0  0  0  0  0  0  0  0  0  0  0 
    0.3199   -0.0640    0.8708 H   0  0  0  0  0  0  0  0  0  0  0  0 
    0.4381   -0.4300   -0.8558 H   0  0  0  0  0  0  0  0  0  0  0  0 
    0.5859    1.2457   -0.2915 H   0  0  0  0  0  0  0  0  0  0  0  0 
    2.2504   -1.6843    1.4588 H   0  0  0  0  0  0  0  0  0  0  0  0 
    3.7879   -1.5623    0.5834 H   0  0  0  0  0  0  0  0  0  0  0  0 
    2.3356   -2.1402   -0.2509 H   0  0  0  0  0  0  0  0  0  0  0  0 
    7.1508    2.0316   -0.2207 H   0  0  0  0  0  0  0  0  0  0  0  0 
    7.0007    0.9433   -1.6322 H   0  0  0  0  0  0  0  0  0  0  0  0 
    6.8645    0.2787   -0.0038 H   0  0  0  0  0  0  0  0  0  0  0  0 
    2.7871    1.4517   -1.4774 H   0  0  0  0  0  0  0  0  0  0  0  0 
    2.7767   -0.2496   -2.0227 H   0  0  0  0  0  0  0  0  0  0  0  0 
    2.7115    0.6971    0.8788 H   0  0  0  0  0  0  0  0  0  0  0  0 
  1  5  1  0  0  0  0 
  1  9  1  0  0  0  0 
  2 13  1  0  0  0  0 
  2 12  1  0  0  0  0 
  3 15  1  0  0  0  0 
  3 17  1  0  0  0  0 
  4  8  1  0  0  0  0 
  4  5  1  0  0  0  0 
  5  2  1  0  0  0  0 
  5 20  1  0  0  0  0 
  6  3  1  0  0  0  0 
  6  7  2  0  0  0  0 
  8  6  1  0  0  0  0 
 10  1  1  0  0  0  0 
 11  1  1  0  0  0  0 
 14  2  1  0  0  0  0 
 16  3  1  0  0  0  0 
 18  4  1  0  0  0  0 
 19  4  1  0  0  0  0 
M  END 
>  <HBA> 
2 
 
>  <HBD> 
0 
 
>  <TPSA> 
26.3 
 
>  <cid> 
8038 
 
>  <dipole> 
1.68 
 
>  <excitation_energy_1> 
5.808 
 
>  <excitation_energy_2> 
6.988 
 
>  <excitation_energy_3> 
7.37 
 
>  <excitation_energy_4> 
7.469 
 
>  <homo_energy> 
-7.295 
 
>  <homo_lumo_gap> 
7.706 
 
>  <logP> 
1.206 
 
>  <lumo_energy> 
0.411 
 
>  <melting_point> 
-14.12 
 
>  <molecular_refractivity> 
32.24 
 
>  <oscillator_strength_1> 
0.0012 
 
>  <oscillator_strength_2> 
0.0248 
 
>  <oscillator_strength_3> 
0.0472 
 
>  <oscillator_strength_4> 
0.0406 
 
>  <open_babel_can_smiles> 
CC(COC(=O)C)C 
 
>  <mulliken_charges> 
20 
1   -0.452219 
2   -0.442939 
3   -0.523083 
4   -0.038667 
5   -0.095858 
6   0.600389 
7   -0.468689 
8   -0.457285 
9   0.149576 
10   0.140126 
11   0.150811 
12   0.143595 
13   0.153358 
14   0.137313 
15   0.181808 
16   0.181713 
17   0.180092 
18   0.165862 
19   0.143066 
20   0.151031 
 
>  <lowdin_charges> 
20 
1   -0.444439 
2   -0.446174 
3   -0.465517 
4   -0.133477 
5   -0.133613 
6   0.200114 
7   -0.267426 
8   -0.20042 
9   0.154566 
10   0.147075 
11   0.151815 
12   0.15021 
13   0.152067 
14   0.146142 
15   0.175847 
16   0.177124 
17   0.177084 
18   0.157594 
19   0.149475 
20   0.151953 
 
$$$$ 
 
