PCCDB-ID:  30678 
public computational chemistry database (PCCDB) project, http://pccdb.org 
 
 36 36  0  0  0  0  0  0  0  0999 V2000 
    1.0901   -0.2207    0.0245 C   0  0  0  0  0  0  0  0  0  0  0  0 
    4.1114    5.1465   -0.6656 C   0  0  0  0  0  0  0  0  0  0  0  0 
    2.4776   -0.6222   -0.4458 C   0  0  0  0  0  0  0  0  0  0  0  0 
    5.1258    4.0866   -1.0596 C   0  0  0  0  0  0  0  0  0  0  0  0 
    6.5140   -0.7148   -1.7715 C   0  0  0  0  0  0  0  0  0  0  0  0 
    5.1821   -0.7244   -1.3312 C   0  0  0  0  0  0  0  0  0  0  0  0 
    6.5351    1.6892   -1.6514 C   0  0  0  0  0  0  0  0  0  0  0  0 
    8.6272    0.5012   -2.4411 C   0  0  0  0  0  0  0  0  0  0  0  0 
    7.1999    0.4817   -1.9406 C   0  0  0  0  0  0  0  0  0  0  0  0 
    4.5227    0.4680   -1.0486 C   0  0  0  0  0  0  0  0  0  0  0  0 
    5.2166    1.6973   -1.2093 C   0  0  0  0  0  0  0  0  0  0  0  0 
   10.8188    1.4553   -1.8749 C   0  0  0  0  0  0  0  0  0  0  0  0 
   11.2331    1.1870   -3.0600 N   0  0  0  0  0  0  0  0  0  0  0  0 
   11.5722    1.9694   -0.8030 N   0  0  0  0  0  0  0  0  0  0  0  0 
    9.4990    1.2203   -1.5100 N   0  0  0  0  0  0  0  0  0  0  0  0 
    3.2337    0.5730   -0.6170 O   0  0  0  0  0  0  0  0  0  0  0  0 
    4.4982    2.8168   -0.9075 O   0  0  0  0  0  0  0  0  0  0  0  0 
    0.4689   -1.1111    0.1704 H   0  0  0  0  0  0  0  0  0  0  0  0 
    0.6058    0.4254   -0.7143 H   0  0  0  0  0  0  0  0  0  0  0  0 
    1.1476    0.3239    0.9720 H   0  0  0  0  0  0  0  0  0  0  0  0 
    4.5512    6.1450   -0.7642 H   0  0  0  0  0  0  0  0  0  0  0  0 
    3.7921    5.0065    0.3719 H   0  0  0  0  0  0  0  0  0  0  0  0 
    3.2268    5.0900   -1.3074 H   0  0  0  0  0  0  0  0  0  0  0  0 
    2.4257   -1.1727   -1.3967 H   0  0  0  0  0  0  0  0  0  0  0  0 
    2.9683   -1.2739    0.2921 H   0  0  0  0  0  0  0  0  0  0  0  0 
    6.0191    4.1423   -0.4201 H   0  0  0  0  0  0  0  0  0  0  0  0 
    5.4518    4.2218   -2.1012 H   0  0  0  0  0  0  0  0  0  0  0  0 
    7.0084   -1.6586   -1.9873 H   0  0  0  0  0  0  0  0  0  0  0  0 
    4.6707   -1.6722   -1.2097 H   0  0  0  0  0  0  0  0  0  0  0  0 
    7.0765    2.6203   -1.7728 H   0  0  0  0  0  0  0  0  0  0  0  0 
    8.7064    1.0140   -3.4050 H   0  0  0  0  0  0  0  0  0  0  0  0 
    8.9808   -0.5259   -2.6129 H   0  0  0  0  0  0  0  0  0  0  0  0 
   12.1887    1.5224   -3.1955 H   0  0  0  0  0  0  0  0  0  0  0  0 
   12.4736    2.3351   -1.0856 H   0  0  0  0  0  0  0  0  0  0  0  0 
   11.0674    2.6439   -0.2363 H   0  0  0  0  0  0  0  0  0  0  0  0 
    9.3906    0.9248   -0.5457 H   0  0  0  0  0  0  0  0  0  0  0  0 
  1 18  1  0  0  0  0 
  1 20  1  0  0  0  0 
  2 22  1  0  0  0  0 
  3  1  1  0  0  0  0 
  3 25  1  0  0  0  0 
  4 17  1  0  0  0  0 
  4  2  1  0  0  0  0 
  4 26  1  0  0  0  0 
  5  6  1  0  0  0  0 
  6 29  1  0  0  0  0 
  6 10  2  0  0  0  0 
  7 11  2  0  0  0  0 
  8  9  1  0  0  0  0 
  8 15  1  0  0  0  0 
  9  5  2  0  0  0  0 
  9  7  1  0  0  0  0 
 10 16  1  0  0  0  0 
 11 10  1  0  0  0  0 
 11 17  1  0  0  0  0 
 12 15  1  0  0  0  0 
 12 14  2  0  0  0  0 
 13 12  1  0  0  0  0 
 14 35  1  0  0  0  0 
 15 36  1  0  0  0  0 
 16  3  1  0  0  0  0 
 19  1  1  0  0  0  0 
 21  2  1  0  0  0  0 
 23  2  1  0  0  0  0 
 24  3  1  0  0  0  0 
 27  4  1  0  0  0  0 
 28  5  1  0  0  0  0 
 30  7  1  0  0  0  0 
 31  8  1  0  0  0  0 
 32  8  1  0  0  0  0 
 33 13  1  0  0  0  0 
 34 14  1  0  0  0  0 
M  RAD  1  13   2 
M  END 
>  <HBA> 
5 
 
>  <HBD> 
2 
 
>  <TPSA> 
82.86 
 
>  <cid> 
30678 
 
>  <dipole> 
2.77 
 
>  <excitation_energy_1> 
4.801 
 
>  <excitation_energy_2> 
4.892 
 
>  <excitation_energy_3> 
5.18 
 
>  <excitation_energy_4> 
5.205 
 
>  <homo_energy> 
-5.331 
 
>  <homo_lumo_gap> 
5.682 
 
>  <logP> 
2.658 
 
>  <lumo_energy> 
0.351 
 
>  <melting_point> 
143.74 
 
>  <molecular_refractivity> 
67.91 
 
>  <oscillator_strength_1> 
0.0635 
 
>  <oscillator_strength_2> 
0.0194 
 
>  <oscillator_strength_3> 
0.0072 
 
>  <oscillator_strength_4> 
0.0057 
 
>  <open_babel_can_smiles> 
CCOc1cc(CNC(=[NH2])[NH])ccc1OCC 
 
>  <mulliken_charges> 
36 
1   -0.455531 
2   -0.455514 
3   -0.027326 
4   -0.025894 
5   -0.206268 
6   -0.203401 
7   -0.249039 
8   -0.180137 
9   0.12507 
10   0.339167 
11   0.341462 
12   0.587199 
13   -0.64552 
14   -0.755967 
15   -0.603561 
16   -0.511046 
17   -0.512751 
18   0.145394 
19   0.164252 
20   0.163453 
21   0.144816 
22   0.162866 
23   0.164277 
24   0.139193 
25   0.137722 
26   0.136073 
27   0.140754 
28   0.121704 
29   0.131677 
30   0.138115 
31   0.182912 
32   0.148205 
33   0.262426 
34   0.317085 
35   0.320083 
36   0.318049 
 
>  <lowdin_charges> 
36 
1   -0.448609 
2   -0.446026 
3   -0.12433 
4   -0.120509 
5   -0.180165 
6   -0.212416 
7   -0.214039 
8   -0.184228 
9   -0.027111 
10   0.080794 
11   0.079817 
12   0.120736 
13   -0.47655 
14   -0.514603 
15   -0.309146 
16   -0.193396 
17   -0.194097 
18   0.155892 
19   0.16163 
20   0.159858 
21   0.154664 
22   0.158601 
23   0.160705 
24   0.137207 
25   0.137698 
26   0.13573 
27   0.136802 
28   0.155178 
29   0.162448 
30   0.166087 
31   0.169706 
32   0.142671 
33   0.244111 
34   0.274211 
35   0.277633 
36   0.273045 
 
$$$$ 
 
