PCCDB-ID:  31272 
public computational chemistry database (PCCDB) project, http://pccdb.org 
 
 20 19  0  0  0  0  0  0  0  0999 V2000 
    0.6416    0.4230   -0.0844 C   0  0  0  0  0  0  0  0  0  0  0  0 
    5.5519   -3.0901   -3.4394 C   0  0  0  0  0  0  0  0  0  0  0  0 
    2.1583    0.2630    0.0629 C   0  0  0  0  0  0  0  0  0  0  0  0 
    2.7299   -0.8402   -0.8381 C   0  0  0  0  0  0  0  0  0  0  0  0 
    4.2393   -0.9897   -0.6782 C   0  0  0  0  0  0  0  0  0  0  0  0 
    5.0646   -1.8374   -2.7479 C   0  0  0  0  0  0  0  0  0  0  0  0 
    4.9551   -0.7483   -3.2683 O   0  0  0  0  0  0  0  0  0  0  0  0 
    4.7513   -2.0969   -1.4562 O   0  0  0  0  0  0  0  0  0  0  0  0 
    0.2606    1.2186    0.5655 H   0  0  0  0  0  0  0  0  0  0  0  0 
    0.1179   -0.5038    0.1796 H   0  0  0  0  0  0  0  0  0  0  0  0 
    0.3697    0.6753   -1.1163 H   0  0  0  0  0  0  0  0  0  0  0  0 
    5.9569   -2.8306   -4.4182 H   0  0  0  0  0  0  0  0  0  0  0  0 
    4.7166   -3.7881   -3.5660 H   0  0  0  0  0  0  0  0  0  0  0  0 
    6.3107   -3.5946   -2.8343 H   0  0  0  0  0  0  0  0  0  0  0  0 
    2.4025    0.0423    1.1119 H   0  0  0  0  0  0  0  0  0  0  0  0 
    2.6508    1.2165   -0.1728 H   0  0  0  0  0  0  0  0  0  0  0  0 
    2.5079   -0.6146   -1.8882 H   0  0  0  0  0  0  0  0  0  0  0  0 
    2.2503   -1.8002   -0.6044 H   0  0  0  0  0  0  0  0  0  0  0  0 
    4.5061   -1.2337    0.3541 H   0  0  0  0  0  0  0  0  0  0  0  0 
    4.7583   -0.0757   -0.9794 H   0  0  0  0  0  0  0  0  0  0  0  0 
  1  3  1  0  0  0  0 
  1 10  1  0  0  0  0 
  1  9  1  0  0  0  0 
  2 14  1  0  0  0  0 
  2  6  1  0  0  0  0 
  3 15  1  0  0  0  0 
  4  5  1  0  0  0  0 
  4 18  1  0  0  0  0 
  4  3  1  0  0  0  0 
  5 19  1  0  0  0  0 
  6  8  1  0  0  0  0 
  7  6  2  0  0  0  0 
  8  5  1  0  0  0  0 
 11  1  1  0  0  0  0 
 12  2  1  0  0  0  0 
 13  2  1  0  0  0  0 
 16  3  1  0  0  0  0 
 17  4  1  0  0  0  0 
 20  5  1  0  0  0  0 
M  END 
>  <HBA> 
2 
 
>  <HBD> 
0 
 
>  <TPSA> 
26.3 
 
>  <cid> 
31272 
 
>  <dipole> 
1.74 
 
>  <excitation_energy_1> 
5.814 
 
>  <excitation_energy_2> 
7.041 
 
>  <excitation_energy_3> 
7.456 
 
>  <excitation_energy_4> 
7.542 
 
>  <homo_energy> 
-7.271 
 
>  <homo_lumo_gap> 
7.714 
 
>  <logP> 
1.35 
 
>  <lumo_energy> 
0.444 
 
>  <melting_point> 
-14.12 
 
>  <molecular_refractivity> 
32.24 
 
>  <oscillator_strength_1> 
0.0011 
 
>  <oscillator_strength_2> 
0.0327 
 
>  <oscillator_strength_3> 
0.0487 
 
>  <oscillator_strength_4> 
0.0525 
 
>  <open_babel_can_smiles> 
CCCCOC(=O)C 
 
>  <mulliken_charges> 
20 
1   -0.441121 
2   -0.523084 
3   -0.25837 
4   -0.271934 
5   -0.044098 
6   0.600491 
7   -0.470002 
8   -0.456115 
9   0.144945 
10   0.143508 
11   0.147563 
12   0.181575 
13   0.182244 
14   0.179182 
15   0.132259 
16   0.140583 
17   0.158742 
18   0.139978 
19   0.146975 
20   0.16668 
 
>  <lowdin_charges> 
20 
1   -0.442905 
2   -0.465751 
3   -0.270344 
4   -0.285694 
5   -0.133126 
6   0.201373 
7   -0.269271 
8   -0.199552 
9   0.152108 
10   0.147749 
11   0.148663 
12   0.174915 
13   0.178975 
14   0.176799 
15   0.138172 
16   0.143599 
17   0.153383 
18   0.144985 
19   0.148614 
20   0.157307 
 
$$$$ 
 
