PCCDB-ID:  18753 
public computational chemistry database (PCCDB) project, http://pccdb.org 
 
 32 33  0  0  0  0  0  0  0  0999 V2000 
    0.7408   -0.1311    0.7102 C   0  0  0  0  0  0  0  0  0  0  0  0 
    2.1052    1.5292   -0.3495 C   0  0  0  0  0  0  0  0  0  0  0  0 
    8.5263    0.2232   -0.4730 C   0  0  0  0  0  0  0  0  0  0  0  0 
    9.8186    0.2180    0.0662 C   0  0  0  0  0  0  0  0  0  0  0  0 
    7.4196    0.2344    0.3672 C   0  0  0  0  0  0  0  0  0  0  0  0 
    9.9923    0.2200    1.4412 C   0  0  0  0  0  0  0  0  0  0  0  0 
    4.4343    0.3189    1.3125 C   0  0  0  0  0  0  0  0  0  0  0  0 
    2.9285    0.3496    1.6098 C   0  0  0  0  0  0  0  0  0  0  0  0 
    8.1414    0.2249    4.4618 C   0  0  0  0  0  0  0  0  0  0  0  0 
    7.5660    0.2409    1.7682 C   0  0  0  0  0  0  0  0  0  0  0  0 
    8.8868    0.2290    2.3104 C   0  0  0  0  0  0  0  0  0  0  0  0 
    6.4200    0.2574    2.7065 C   0  0  0  0  0  0  0  0  0  0  0  0 
    5.1454    0.2886    2.5720 N   0  0  0  0  0  0  0  0  0  0  0  0 
    9.1650    0.2230    3.6763 N   0  0  0  0  0  0  0  0  0  0  0  0 
    6.8462    0.2366    4.0523 N   0  0  0  0  0  0  0  0  0  0  0  0 
    2.1040    0.2818    0.4045 N   0  0  0  0  0  0  0  0  0  0  0  0 
    0.1713   -0.2386   -0.2198 H   0  0  0  0  0  0  0  0  0  0  0  0 
    0.1989    0.5867    1.3583 H   0  0  0  0  0  0  0  0  0  0  0  0 
    0.7519   -1.1026    1.2157 H   0  0  0  0  0  0  0  0  0  0  0  0 
    1.5162    1.4054   -1.2649 H   0  0  0  0  0  0  0  0  0  0  0  0 
    3.1230    1.7998   -0.6455 H   0  0  0  0  0  0  0  0  0  0  0  0 
    1.6783    2.3799    0.2195 H   0  0  0  0  0  0  0  0  0  0  0  0 
    8.3819    0.2175   -1.5496 H   0  0  0  0  0  0  0  0  0  0  0  0 
   10.6843    0.2108   -0.5907 H   0  0  0  0  0  0  0  0  0  0  0  0 
    6.4348    0.2335   -0.0755 H   0  0  0  0  0  0  0  0  0  0  0  0 
   10.9800    0.2127    1.8912 H   0  0  0  0  0  0  0  0  0  0  0  0 
    4.7188    1.1984    0.7147 H   0  0  0  0  0  0  0  0  0  0  0  0 
    4.6369   -0.5690    0.6941 H   0  0  0  0  0  0  0  0  0  0  0  0 
    2.6987    1.2402    2.2275 H   0  0  0  0  0  0  0  0  0  0  0  0 
    2.7026   -0.5258    2.2285 H   0  0  0  0  0  0  0  0  0  0  0  0 
    8.2889    0.2174    5.5405 H   0  0  0  0  0  0  0  0  0  0  0  0 
    6.0870    0.2451    4.7234 H   0  0  0  0  0  0  0  0  0  0  0  0 
  1 19  1  0  0  0  0 
  1 18  1  0  0  0  0 
  2 22  1  0  0  0  0 
  2 16  1  0  0  0  0 
  3  4  1  0  0  0  0 
  3  5  2  0  0  0  0 
  4  6  2  0  0  0  0 
  5 10  1  0  0  0  0 
  6 26  1  0  0  0  0 
  6 11  1  0  0  0  0 
  7  8  1  0  0  0  0 
  7 13  1  0  0  0  0 
  8 29  1  0  0  0  0 
  8 30  1  0  0  0  0 
  9 31  1  0  0  0  0 
 10 11  2  0  0  0  0 
 10 12  1  0  0  0  0 
 11 14  1  0  0  0  0 
 12 15  1  0  0  0  0 
 13 12  2  0  0  0  0 
 14  9  2  0  0  0  0 
 15  9  1  0  0  0  0 
 15 32  1  0  0  0  0 
 16  1  1  0  0  0  0 
 16  8  1  0  0  0  0 
 17  1  1  0  0  0  0 
 20  2  1  0  0  0  0 
 21  2  1  0  0  0  0 
 23  3  1  0  0  0  0 
 24  4  1  0  0  0  0 
 25  5  1  0  0  0  0 
 27  7  1  0  0  0  0 
 28  7  1  0  0  0  0 
M  END 
>  <HBA> 
4 
 
>  <HBD> 
1 
 
>  <TPSA> 
41.05 
 
>  <cid> 
18753 
 
>  <dipole> 
0.78 
 
>  <excitation_energy_1> 
3.978 
 
>  <excitation_energy_2> 
4.131 
 
>  <excitation_energy_3> 
4.254 
 
>  <excitation_energy_4> 
4.424 
 
>  <homo_energy> 
-5.565 
 
>  <homo_lumo_gap> 
4.599 
 
>  <logP> 
1.676 
 
>  <lumo_energy> 
-0.966 
 
>  <melting_point> 
114.86 
 
>  <molecular_refractivity> 
66.16 
 
>  <oscillator_strength_1> 
0.0745 
 
>  <oscillator_strength_2> 
0.0129 
 
>  <oscillator_strength_3> 
0.1182 
 
>  <oscillator_strength_4> 
0.0254 
 
>  <open_babel_can_smiles> 
CN(CC/N=c\1/[nH]cnc2c1cccc2)C 
 
>  <mulliken_charges> 
32 
1   -0.291462 
2   -0.300004 
3   -0.135882 
4   -0.126598 
5   -0.194336 
6   -0.153924 
7   -0.147643 
8   -0.115383 
9   0.246428 
10   0.097035 
11   0.221342 
12   0.494598 
13   -0.528623 
14   -0.511567 
15   -0.612593 
16   -0.372851 
17   0.145111 
18   0.116467 
19   0.148816 
20   0.147227 
21   0.148463 
22   0.117279 
23   0.134285 
24   0.136674 
25   0.147327 
26   0.145392 
27   0.138555 
28   0.150357 
29   0.114367 
30   0.140773 
31   0.161276 
32   0.339094 
 
>  <lowdin_charges> 
32 
1   -0.35627 
2   -0.358512 
3   -0.161383 
4   -0.141903 
5   -0.150199 
6   -0.157513 
7   -0.209482 
8   -0.206318 
9   -0.022071 
10   -0.054645 
11   0.050306 
12   0.099281 
13   -0.248325 
14   -0.200848 
15   -0.20699 
16   -0.18585 
17   0.148108 
18   0.120928 
19   0.149104 
20   0.149488 
21   0.147025 
22   0.120681 
23   0.158869 
24   0.162553 
25   0.171322 
26   0.170055 
27   0.137007 
28   0.143627 
29   0.120835 
30   0.149024 
31   0.16315 
32   0.298945 
 
$$$$ 
 
