PCCDB-ID:  12216 
public computational chemistry database (PCCDB) project, http://pccdb.org 
 
 30 29  0  0  1  0  0  0  0  0999 V2000 
    2.4955    1.7235   -5.4975 C   0  0  0  0  0  0  0  0  0  0  0  0 
    6.0508   -0.4759    3.0643 C   0  0  0  0  0  0  0  0  0  0  0  0 
    2.5011    1.6077   -3.9699 C   0  0  0  0  0  0  0  0  0  0  0  0 
    5.1599    0.6047    2.4390 C   0  0  0  0  0  0  0  0  0  0  0  0 
    3.6149    0.6980   -3.4358 C   0  0  0  0  0  0  0  0  0  0  0  0 
    3.6336    0.5816   -1.9062 C   0  0  0  0  0  0  0  0  0  0  0  0 
    4.7441   -0.3411   -1.3848 C   0  0  0  0  0  0  0  0  0  0  0  0 
    4.7718   -0.5067    0.1441 C   0  0  0  0  0  0  0  0  0  0  0  0 
    5.2596    0.7365    0.9069 C   0  0  2  0  0  0  0  0  0  0  0  0 
    6.5814    1.1108    0.4994 O   0  0  0  0  0  0  0  0  0  0  0  0 
    1.6880    2.3769   -5.8474 H   0  0  0  0  0  0  0  0  0  0  0  0 
    2.3580    0.7426   -5.9692 H   0  0  0  0  0  0  0  0  0  0  0  0 
    3.4421    2.1371   -5.8670 H   0  0  0  0  0  0  0  0  0  0  0  0 
    5.9621   -0.4640    4.1559 H   0  0  0  0  0  0  0  0  0  0  0  0 
    7.1084   -0.3060    2.8276 H   0  0  0  0  0  0  0  0  0  0  0  0 
    5.7832   -1.4831    2.7256 H   0  0  0  0  0  0  0  0  0  0  0  0 
    1.5280    1.2271   -3.6278 H   0  0  0  0  0  0  0  0  0  0  0  0 
    2.6080    2.6082   -3.5271 H   0  0  0  0  0  0  0  0  0  0  0  0 
    5.4241    1.5780    2.8707 H   0  0  0  0  0  0  0  0  0  0  0  0 
    4.1106    0.4164    2.7053 H   0  0  0  0  0  0  0  0  0  0  0  0 
    4.5883    1.0762   -3.7818 H   0  0  0  0  0  0  0  0  0  0  0  0 
    3.5056   -0.3045   -3.8764 H   0  0  0  0  0  0  0  0  0  0  0  0 
    2.6581    0.2085   -1.5584 H   0  0  0  0  0  0  0  0  0  0  0  0 
    3.7475    1.5859   -1.4749 H   0  0  0  0  0  0  0  0  0  0  0  0 
    5.7194    0.0400   -1.7136 H   0  0  0  0  0  0  0  0  0  0  0  0 
    4.6240   -1.3321   -1.8443 H   0  0  0  0  0  0  0  0  0  0  0  0 
    5.4251   -1.3547    0.3989 H   0  0  0  0  0  0  0  0  0  0  0  0 
    3.7698   -0.7772    0.5078 H   0  0  0  0  0  0  0  0  0  0  0  0 
    4.6442    1.5950    0.6135 H   0  0  0  0  0  0  0  0  0  0  0  0 
    7.1566    0.3423    0.6427 H   0  0  0  0  0  0  0  0  0  0  0  0 
  1  3  1  0  0  0  0 
  2 14  1  0  0  0  0 
  3 17  1  0  0  0  0 
  3 18  1  0  0  0  0 
  3  5  1  0  0  0  0 
  4 20  1  0  0  0  0 
  4 19  1  0  0  0  0 
  4  2  1  0  0  0  0 
  5  6  1  0  0  0  0 
  6 23  1  0  0  0  0 
  6 24  1  0  0  0  0 
  6  7  1  0  0  0  0 
  7  8  1  0  0  0  0 
  8 27  1  0  0  0  0 
  8 28  1  0  0  0  0 
  8  9  1  0  0  0  0 
  9 29  1  6  0  0  0 
  9  4  1  0  0  0  0 
 10 30  1  0  0  0  0 
 10  9  1  0  0  0  0 
 11  1  1  0  0  0  0 
 12  1  1  0  0  0  0 
 13  1  1  0  0  0  0 
 15  2  1  0  0  0  0 
 16  2  1  0  0  0  0 
 21  5  1  0  0  0  0 
 22  5  1  0  0  0  0 
 25  7  1  0  0  0  0 
 26  7  1  0  0  0  0 
M  END 
>  <HBA> 
1 
 
>  <HBD> 
1 
 
>  <TPSA> 
20.23 
 
>  <cid> 
12216 
 
>  <dipole> 
1.54 
 
>  <excitation_energy_1> 
6.417 
 
>  <excitation_energy_2> 
6.949 
 
>  <excitation_energy_3> 
7.254 
 
>  <excitation_energy_4> 
7.347 
 
>  <homo_energy> 
-7.056 
 
>  <homo_lumo_gap> 
8.917 
 
>  <logP> 
2.728 
 
>  <lumo_energy> 
1.861 
 
>  <melting_point> 
-9.94 
 
>  <molecular_refractivity> 
46.54 
 
>  <oscillator_strength_1> 
0.0092 
 
>  <oscillator_strength_2> 
0.0094 
 
>  <oscillator_strength_3> 
0.0109 
 
>  <oscillator_strength_4> 
0.0002 
 
>  <open_babel_can_smiles> 
CCCCCC[C@@H](CC)O 
 
>  <mulliken_charges> 
30 
1   -0.441158 
2   -0.464357 
3   -0.247186 
4   -0.254796 
5   -0.245621 
6   -0.257636 
7   -0.252205 
8   -0.285957 
9   0.135205 
10   -0.626524 
11   0.140696 
12   0.140217 
13   0.141717 
14   0.151147 
15   0.136852 
16   0.148098 
17   0.128414 
18   0.1307 
19   0.14338 
20   0.12823 
21   0.130062 
22   0.124434 
23   0.122829 
24   0.136165 
25   0.143448 
26   0.123969 
27   0.120368 
28   0.128373 
29   0.135946 
30   0.385189 
 
>  <lowdin_charges> 
30 
1   -0.445318 
2   -0.449086 
3   -0.271168 
4   -0.287953 
5   -0.273003 
6   -0.275474 
7   -0.277225 
8   -0.295309 
9   -0.004261 
10   -0.467729 
11   0.149586 
12   0.145348 
13   0.14653 
14   0.153764 
15   0.141677 
16   0.146661 
17   0.137571 
18   0.138316 
19   0.149186 
20   0.141922 
21   0.138855 
22   0.135416 
23   0.134655 
24   0.139577 
25   0.146608 
26   0.13856 
27   0.138026 
28   0.143035 
29   0.143722 
30   0.337508 
 
$$$$ 
 
