PCCDB-ID:  16003 
public computational chemistry database (PCCDB) project, http://pccdb.org 
 
 34 33  0  0  0  0  0  0  0  0999 V2000 
    2.9764   -3.2623    3.4491 C   0  0  0  0  0  0  0  0  0  0  0  0 
    5.4754    1.6187    0.1344 C   0  0  0  0  0  0  0  0  0  0  0  0 
    9.2020   -5.7557   -2.2715 C   0  0  0  0  0  0  0  0  0  0  0  0 
    4.0852   -2.5617    2.6575 C   0  0  0  0  0  0  0  0  0  0  0  0 
    5.6539    0.2020    0.6898 C   0  0  0  0  0  0  0  0  0  0  0  0 
    7.8327   -5.4143   -1.6713 C   0  0  0  0  0  0  0  0  0  0  0  0 
    3.9643   -2.8250    1.1488 C   0  0  0  0  0  0  0  0  0  0  0  0 
    4.8712   -0.8322   -0.1312 C   0  0  0  0  0  0  0  0  0  0  0  0 
    7.9464   -4.9827   -0.2079 C   0  0  0  0  0  0  0  0  0  0  0  0 
    6.1718   -2.8617   -0.0218 C   0  0  0  0  0  0  0  0  0  0  0  0 
    5.0192   -2.2212    0.3319 N   0  0  0  0  0  0  0  0  0  0  0  0 
    7.0515   -2.3434   -0.6955 O   0  0  0  0  0  0  0  0  0  0  0  0 
    6.3380   -4.5820    0.5832 S   0  0  0  0  0  0  0  0  0  0  0  0 
    3.0695   -3.0601    4.5213 H   0  0  0  0  0  0  0  0  0  0  0  0 
    3.0167   -4.3495    3.3106 H   0  0  0  0  0  0  0  0  0  0  0  0 
    1.9822   -2.9233    3.1321 H   0  0  0  0  0  0  0  0  0  0  0  0 
    6.0416    2.3473    0.7246 H   0  0  0  0  0  0  0  0  0  0  0  0 
    4.4223    1.9270    0.1478 H   0  0  0  0  0  0  0  0  0  0  0  0 
    5.8282    1.6845   -0.9018 H   0  0  0  0  0  0  0  0  0  0  0  0 
    9.1042   -6.0638   -3.3185 H   0  0  0  0  0  0  0  0  0  0  0  0 
    9.6855   -6.5762   -1.7267 H   0  0  0  0  0  0  0  0  0  0  0  0 
    9.8747   -4.8907   -2.2396 H   0  0  0  0  0  0  0  0  0  0  0  0 
    5.0679   -2.9086    2.9982 H   0  0  0  0  0  0  0  0  0  0  0  0 
    4.0493   -1.4809    2.8436 H   0  0  0  0  0  0  0  0  0  0  0  0 
    5.3272    0.1667    1.7368 H   0  0  0  0  0  0  0  0  0  0  0  0 
    6.7129   -0.0762    0.6736 H   0  0  0  0  0  0  0  0  0  0  0  0 
    7.1631   -6.2801   -1.7465 H   0  0  0  0  0  0  0  0  0  0  0  0 
    7.3704   -4.5995   -2.2384 H   0  0  0  0  0  0  0  0  0  0  0  0 
    3.0056   -2.4398    0.7795 H   0  0  0  0  0  0  0  0  0  0  0  0 
    3.9513   -3.9040    0.9619 H   0  0  0  0  0  0  0  0  0  0  0  0 
    5.2037   -0.7904   -1.1733 H   0  0  0  0  0  0  0  0  0  0  0  0 
    3.8005   -0.5992   -0.1112 H   0  0  0  0  0  0  0  0  0  0  0  0 
    8.5746   -4.0939   -0.1116 H   0  0  0  0  0  0  0  0  0  0  0  0 
    8.3704   -5.7802    0.4122 H   0  0  0  0  0  0  0  0  0  0  0  0 
  1 14  1  0  0  0  0 
  2 18  1  0  0  0  0 
  2  5  1  0  0  0  0 
  2 17  1  0  0  0  0 
  3 22  1  0  0  0  0 
  3 21  1  0  0  0  0 
  3  6  1  0  0  0  0 
  4 24  1  0  0  0  0 
  4 23  1  0  0  0  0 
  4  1  1  0  0  0  0 
  5 25  1  0  0  0  0 
  6  9  1  0  0  0  0 
  7  4  1  0  0  0  0 
  8 32  1  0  0  0  0 
  8 11  1  0  0  0  0 
  8  5  1  0  0  0  0 
  9 33  1  0  0  0  0 
  9 34  1  0  0  0  0 
  9 13  1  0  0  0  0 
 10 11  1  0  0  0  0 
 10 13  1  0  0  0  0 
 11  7  1  0  0  0  0 
 12 10  2  0  0  0  0 
 15  1  1  0  0  0  0 
 16  1  1  0  0  0  0 
 19  2  1  0  0  0  0 
 20  3  1  0  0  0  0 
 26  5  1  0  0  0  0 
 27  6  1  0  0  0  0 
 28  6  1  0  0  0  0 
 29  7  1  0  0  0  0 
 30  7  1  0  0  0  0 
 31  8  1  0  0  0  0 
M  END 
>  <HBA> 
3 
 
>  <HBD> 
0 
 
>  <TPSA> 
45.61 
 
>  <cid> 
16003 
 
>  <dipole> 
2.02 
 
>  <excitation_energy_1> 
5.575 
 
>  <excitation_energy_2> 
5.79 
 
>  <excitation_energy_3> 
5.927 
 
>  <excitation_energy_4> 
6.076 
 
>  <homo_energy> 
-6.294 
 
>  <homo_lumo_gap> 
7.162 
 
>  <logP> 
3.372 
 
>  <lumo_energy> 
0.868 
 
>  <melting_point> 
14.11 
 
>  <molecular_refractivity> 
61.26 
 
>  <oscillator_strength_1> 
0.0049 
 
>  <oscillator_strength_2> 
0.0495 
 
>  <oscillator_strength_3> 
0.0034 
 
>  <oscillator_strength_4> 
0.0244 
 
>  <open_babel_can_smiles> 
CCCSC(=O)N(CCC)CCC 
 
>  <mulliken_charges> 
34 
1   -0.450812 
2   -0.44942 
3   -0.448466 
4   -0.252892 
5   -0.258697 
6   -0.243381 
7   -0.166714 
8   -0.133671 
9   -0.411999 
10   0.415423 
11   -0.403619 
12   -0.497783 
13   0.064169 
14   0.151873 
15   0.152149 
16   0.143081 
17   0.149281 
18   0.13909 
19   0.151368 
20   0.147763 
21   0.139981 
22   0.151397 
23   0.161126 
24   0.142076 
25   0.135993 
26   0.169138 
27   0.14047 
28   0.163905 
29   0.147307 
30   0.182396 
31   0.171072 
32   0.13583 
33   0.198957 
34   0.163608 
 
>  <lowdin_charges> 
34 
1   -0.441303 
2   -0.443687 
3   -0.44548 
4   -0.282531 
5   -0.280786 
6   -0.277773 
7   -0.199932 
8   -0.188789 
9   -0.370259 
10   0.05789 
11   -0.099142 
12   -0.311661 
13   0.080053 
14   0.154163 
15   0.149746 
16   0.146594 
17   0.155584 
18   0.143493 
19   0.150242 
20   0.151709 
21   0.146326 
22   0.15179 
23   0.154516 
24   0.141828 
25   0.138943 
26   0.157827 
27   0.14522 
28   0.157953 
29   0.1487 
30   0.164197 
31   0.160759 
32   0.142901 
33   0.17715 
34   0.163758 
 
$$$$ 
 
