PCCDB-ID:  62458 
public computational chemistry database (PCCDB) project, http://pccdb.org 
 
 40 40  0  0  0  0  0  0  0  0999 V2000 
   -0.0684   -1.0272    1.5732 C   0  0  0  0  0  0  0  0  0  0  0  0 
    1.0610   -0.2129    2.2124 C   0  0  0  0  0  0  0  0  0  0  0  0 
    2.1025    0.2778    1.1983 C   0  0  0  0  0  0  0  0  0  0  0  0 
    3.2371    1.0960    1.8284 C   0  0  0  0  0  0  0  0  0  0  0  0 
    4.2748    1.5765    0.8035 C   0  0  0  0  0  0  0  0  0  0  0  0 
    5.3916    2.4666    1.3752 C   0  0  0  0  0  0  0  0  0  0  0  0 
    6.3336    1.7535    2.3589 C   0  0  0  0  0  0  0  0  0  0  0  0 
    7.4817    2.6272    2.8930 C   0  0  0  0  0  0  0  0  0  0  0  0 
   11.0419    5.5579    2.9103 C   0  0  0  0  0  0  0  0  0  0  0  0 
   11.7087    4.2511    3.3685 C   0  0  0  0  0  0  0  0  0  0  0  0 
    8.5490    2.9565    1.8356 C   0  0  0  0  0  0  0  0  0  0  0  0 
    9.5700    5.1544    2.6714 C   0  0  0  0  0  0  0  0  0  0  0  0 
   10.8350    3.1496    2.7628 C   0  0  0  0  0  0  0  0  0  0  0  0 
    9.6618    3.7353    2.3526 N   0  0  0  0  0  0  0  0  0  0  0  0 
   11.1064    1.9618    2.6692 O   0  0  0  0  0  0  0  0  0  0  0  0 
   -0.7929   -1.3650    2.3231 H   0  0  0  0  0  0  0  0  0  0  0  0 
    0.3236   -1.9165    1.0644 H   0  0  0  0  0  0  0  0  0  0  0  0 
   -0.6127   -0.4341    0.8279 H   0  0  0  0  0  0  0  0  0  0  0  0 
    1.5615   -0.8216    2.9790 H   0  0  0  0  0  0  0  0  0  0  0  0 
    0.6351    0.6514    2.7417 H   0  0  0  0  0  0  0  0  0  0  0  0 
    1.6012    0.8835    0.4283 H   0  0  0  0  0  0  0  0  0  0  0  0 
    2.5296   -0.5883    0.6709 H   0  0  0  0  0  0  0  0  0  0  0  0 
    3.7261    0.4889    2.6026 H   0  0  0  0  0  0  0  0  0  0  0  0 
    2.8110    1.9677    2.3481 H   0  0  0  0  0  0  0  0  0  0  0  0 
    3.7538    2.1343    0.0123 H   0  0  0  0  0  0  0  0  0  0  0  0 
    4.7273    0.7038    0.3093 H   0  0  0  0  0  0  0  0  0  0  0  0 
    4.9412    3.3377    1.8753 H   0  0  0  0  0  0  0  0  0  0  0  0 
    5.9734    2.8670    0.5342 H   0  0  0  0  0  0  0  0  0  0  0  0 
    6.7564    0.8604    1.8747 H   0  0  0  0  0  0  0  0  0  0  0  0 
    5.7542    1.3872    3.2154 H   0  0  0  0  0  0  0  0  0  0  0  0 
    7.9815    2.1049    3.7183 H   0  0  0  0  0  0  0  0  0  0  0  0 
    7.0698    3.5569    3.3112 H   0  0  0  0  0  0  0  0  0  0  0  0 
   11.4861    5.8936    1.9670 H   0  0  0  0  0  0  0  0  0  0  0  0 
   11.1332    6.3742    3.6321 H   0  0  0  0  0  0  0  0  0  0  0  0 
   11.6879    4.1376    4.4604 H   0  0  0  0  0  0  0  0  0  0  0  0 
   12.7474    4.1353    3.0493 H   0  0  0  0  0  0  0  0  0  0  0  0 
    8.1099    3.5040    0.9922 H   0  0  0  0  0  0  0  0  0  0  0  0 
    8.9801    2.0277    1.4492 H   0  0  0  0  0  0  0  0  0  0  0  0 
    9.1085    5.7076    1.8441 H   0  0  0  0  0  0  0  0  0  0  0  0 
    8.9532    5.3254    3.5673 H   0  0  0  0  0  0  0  0  0  0  0  0 
  1  2  1  0  0  0  0 
  1 16  1  0  0  0  0 
  2 20  1  0  0  0  0 
  2 19  1  0  0  0  0 
  3  4  1  0  0  0  0 
  3  2  1  0  0  0  0 
  4 24  1  0  0  0  0 
  4 23  1  0  0  0  0 
  5  6  1  0  0  0  0 
  5  4  1  0  0  0  0 
  6 27  1  0  0  0  0 
  6  7  1  0  0  0  0 
  7  8  1  0  0  0  0 
  7 30  1  0  0  0  0 
  8 32  1  0  0  0  0 
  8 31  1  0  0  0  0 
  9 10  1  0  0  0  0 
  9 34  1  0  0  0  0 
 10 35  1  0  0  0  0 
 11 14  1  0  0  0  0 
 11  8  1  0  0  0  0 
 12  9  1  0  0  0  0 
 12 40  1  0  0  0  0 
 13 10  1  0  0  0  0 
 14 12  1  0  0  0  0 
 14 13  1  0  0  0  0 
 15 13  2  0  0  0  0 
 17  1  1  0  0  0  0 
 18  1  1  0  0  0  0 
 21  3  1  0  0  0  0 
 22  3  1  0  0  0  0 
 25  5  1  0  0  0  0 
 26  5  1  0  0  0  0 
 28  6  1  0  0  0  0 
 29  7  1  0  0  0  0 
 33  9  1  0  0  0  0 
 36 10  1  0  0  0  0 
 37 11  1  0  0  0  0 
 38 11  1  0  0  0  0 
 39 12  1  0  0  0  0 
M  END 
>  <HBA> 
2 
 
>  <HBD> 
0 
 
>  <TPSA> 
20.31 
 
>  <cid> 
62458 
 
>  <dipole> 
3.66 
 
>  <excitation_energy_1> 
5.65 
 
>  <excitation_energy_2> 
5.771 
 
>  <excitation_energy_3> 
6.123 
 
>  <excitation_energy_4> 
6.162 
 
>  <homo_energy> 
-6.234 
 
>  <homo_lumo_gap> 
7.271 
 
>  <logP> 
3.297 
 
>  <lumo_energy> 
1.037 
 
>  <melting_point> 
15.39 
 
>  <molecular_refractivity> 
69.5 
 
>  <oscillator_strength_1> 
0.0025 
 
>  <oscillator_strength_2> 
0.0099 
 
>  <oscillator_strength_3> 
0.0047 
 
>  <oscillator_strength_4> 
0.0079 
 
>  <open_babel_can_smiles> 
CCCCCCCCCN1CCCC1=O 
 
>  <mulliken_charges> 
40 
1   -0.441401 
2   -0.247251 
3   -0.245721 
4   -0.254703 
5   -0.254964 
6   -0.259839 
7   -0.261428 
8   -0.263591 
9   -0.297811 
10   -0.370441 
11   -0.144302 
12   -0.118448 
13   0.588759 
14   -0.42045 
15   -0.524886 
16   0.141454 
17   0.141554 
18   0.140918 
19   0.130277 
20   0.129288 
21   0.125883 
22   0.127497 
23   0.133393 
24   0.124992 
25   0.127186 
26   0.129036 
27   0.125382 
28   0.130455 
29   0.134951 
30   0.138767 
31   0.150846 
32   0.127896 
33   0.157526 
34   0.148504 
35   0.168519 
36   0.172195 
37   0.139719 
38   0.178189 
39   0.146964 
40   0.145086 
 
>  <lowdin_charges> 
40 
1   -0.447156 
2   -0.274439 
3   -0.276252 
4   -0.279108 
5   -0.276895 
6   -0.279755 
7   -0.278774 
8   -0.285392 
9   -0.281851 
10   -0.302578 
11   -0.202733 
12   -0.194922 
13   0.145952 
14   -0.107598 
15   -0.310539 
16   0.15009 
17   0.146859 
18   0.147242 
19   0.13998 
20   0.139153 
21   0.137967 
22   0.138596 
23   0.140551 
24   0.137304 
25   0.141482 
26   0.13953 
27   0.137168 
28   0.140705 
29   0.14231 
30   0.146565 
31   0.153863 
32   0.137972 
33   0.153482 
34   0.153395 
35   0.163571 
36   0.167248 
37   0.143422 
38   0.169325 
39   0.147047 
40   0.137213 
 
$$$$ 
 
