PCCDB-ID:  48540 
public computational chemistry database (PCCDB) project, http://pccdb.org 
 
 35 35  0  0  1  0  0  0  0  0999 V2000 
    2.0779    1.7135   -2.7620 C   0  0  0  0  0  0  0  0  0  0  0  0 
    7.4759    1.7818    1.3751 C   0  0  0  0  0  0  0  0  0  0  0  0 
    4.5251    2.1805    3.5105 C   0  0  0  0  0  0  0  0  0  0  0  0 
    2.6140    0.8008   -1.9523 C   0  0  0  0  0  0  0  0  0  0  0  0 
    6.4297    0.6745    1.5721 C   0  0  0  0  0  0  0  0  0  0  0  0 
    4.4727    2.2981    1.9805 C   0  0  0  0  0  0  0  0  0  0  0  0 
    3.0432    1.0793   -0.5347 C   0  0  0  0  0  0  0  0  0  0  0  0 
    4.9500    1.0206    1.2509 C   0  0  0  0  0  0  0  0  0  0  0  0 
    5.2966    2.0496   -1.1263 C   0  0  0  0  0  0  0  0  0  0  0  0 
    5.0643   -0.3770   -0.8597 C   0  0  0  0  0  0  0  0  0  0  0  0 
    6.6243    0.5506   -2.3044 C   0  0  0  0  0  0  0  0  0  0  0  0 
    4.5978    0.9695   -0.2998 C   0  0  2  0  0  0  0  0  0  0  0  0 
    6.1861    1.8671   -2.0181 N   0  0  0  0  0  0  0  0  0  0  0  0 
    5.9488   -0.5694   -1.7521 N   0  0  0  0  0  0  0  0  0  0  0  0 
    4.9233    3.3314   -0.9081 O   0  0  0  0  0  0  0  0  0  0  0  0 
    4.4654   -1.4832   -0.3561 O   0  0  0  0  0  0  0  0  0  0  0  0 
    7.5738    0.3767   -3.0342 O   0  0  0  0  0  0  0  0  0  0  0  0 
    1.7878    1.4696   -3.7797 H   0  0  0  0  0  0  0  0  0  0  0  0 
    1.9150    2.7413   -2.4439 H   0  0  0  0  0  0  0  0  0  0  0  0 
    8.4673    1.3929    1.6303 H   0  0  0  0  0  0  0  0  0  0  0  0 
    7.2901    2.6442    2.0251 H   0  0  0  0  0  0  0  0  0  0  0  0 
    7.5251    2.1419    0.3441 H   0  0  0  0  0  0  0  0  0  0  0  0 
    4.0995    3.0753    3.9768 H   0  0  0  0  0  0  0  0  0  0  0  0 
    5.5501    2.0732    3.8778 H   0  0  0  0  0  0  0  0  0  0  0  0 
    3.9492    1.3156    3.8615 H   0  0  0  0  0  0  0  0  0  0  0  0 
    2.7683   -0.2150   -2.3134 H   0  0  0  0  0  0  0  0  0  0  0  0 
    6.4616    0.3505    2.6194 H   0  0  0  0  0  0  0  0  0  0  0  0 
    6.7248   -0.2061    0.9907 H   0  0  0  0  0  0  0  0  0  0  0  0 
    5.0812    3.1574    1.6751 H   0  0  0  0  0  0  0  0  0  0  0  0 
    3.4340    2.5207    1.7028 H   0  0  0  0  0  0  0  0  0  0  0  0 
    2.5413    0.3836    0.1547 H   0  0  0  0  0  0  0  0  0  0  0  0 
    2.6858    2.0724   -0.2458 H   0  0  0  0  0  0  0  0  0  0  0  0 
    4.3523    0.2013    1.6818 H   0  0  0  0  0  0  0  0  0  0  0  0 
    4.2644    3.3753   -0.1993 H   0  0  0  0  0  0  0  0  0  0  0  0 
    3.8208   -1.2389    0.3258 H   0  0  0  0  0  0  0  0  0  0  0  0 
  1 19  1  0  0  0  0 
  1  4  2  0  0  0  0 
  2  5  1  0  0  0  0 
  2 20  1  0  0  0  0 
  2 21  1  0  0  0  0 
  3 25  1  0  0  0  0 
  3 24  1  0  0  0  0 
  3 23  1  0  0  0  0 
  4  7  1  0  0  0  0 
  5 27  1  0  0  0  0 
  6  3  1  0  0  0  0 
  7 32  1  0  0  0  0 
  7 31  1  0  0  0  0 
  8  5  1  0  0  0  0 
  8 33  1  0  0  0  0 
  8  6  1  0  0  0  0 
  9 15  1  0  0  0  0 
  9 12  1  0  0  0  0 
 10 16  1  0  0  0  0 
 10 12  1  0  0  0  0 
 11 13  2  0  0  0  0 
 11 14  1  0  0  0  0 
 12  7  1  6  0  0  0 
 12  8  1  0  0  0  0 
 13  9  2  0  0  0  0 
 14 10  2  0  0  0  0 
 15 34  1  0  0  0  0 
 16 35  1  0  0  0  0 
 17 11  2  0  0  0  0 
 18  1  1  0  0  0  0 
 22  2  1  0  0  0  0 
 26  4  1  0  0  0  0 
 28  5  1  0  0  0  0 
 29  6  1  0  0  0  0 
 30  6  1  0  0  0  0 
M  END 
>  <HBA> 
5 
 
>  <HBD> 
2 
 
>  <TPSA> 
75.27 
 
>  <cid> 
48540 
 
>  <dipole> 
9.95 
 
>  <excitation_energy_1> 
3.99 
 
>  <excitation_energy_2> 
4.171 
 
>  <excitation_energy_3> 
5.173 
 
>  <excitation_energy_4> 
5.319 
 
>  <homo_energy> 
-6.833 
 
>  <homo_lumo_gap> 
5.374 
 
>  <logP> 
2.009 
 
>  <lumo_energy> 
-1.459 
 
>  <melting_point> 
118.98 
 
>  <molecular_refractivity> 
71.37 
 
>  <oscillator_strength_1> 
0.0001 
 
>  <oscillator_strength_2> 
0.0001 
 
>  <oscillator_strength_3> 
0.001 
 
>  <oscillator_strength_4> 
0.0028 
 
>  <open_babel_can_smiles> 
C=CC[C@@]1(C(CC)CC)C(=N[C](=[N]=C1O)=O)O 
 
>  <mulliken_charges> 
35 
1   -0.326997 
2   -0.469655 
3   -0.453688 
4   -0.05084 
5   -0.292279 
6   -0.317927 
7   -0.35078 
8   -0.065093 
9   0.554841 
10   0.542547 
11   0.617993 
12   -0.144813 
13   -0.471065 
14   -0.469529 
15   -0.582156 
16   -0.584287 
17   -0.432988 
18   0.16184 
19   0.145094 
20   0.160373 
21   0.145406 
22   0.185072 
23   0.157596 
24   0.166402 
25   0.148951 
26   0.164038 
27   0.148591 
28   0.173692 
29   0.164026 
30   0.136432 
31   0.143663 
32   0.148508 
33   0.109193 
34   0.420998 
35   0.416841 
 
>  <lowdin_charges> 
35 
1   -0.309605 
2   -0.455866 
3   -0.443611 
4   -0.162759 
5   -0.284746 
6   -0.295574 
7   -0.275 
8   -0.123145 
9   0.153072 
10   0.144659 
11   0.168968 
12   -0.063823 
13   -0.184281 
14   -0.182931 
15   -0.33116 
16   -0.334614 
17   -0.210354 
18   0.169763 
19   0.157329 
20   0.161586 
21   0.147817 
22   0.165979 
23   0.15956 
24   0.157139 
25   0.15125 
26   0.16687 
27   0.149932 
28   0.162343 
29   0.153833 
30   0.140026 
31   0.149408 
32   0.150875 
33   0.134594 
34   0.355796 
35   0.35667 
 
$$$$ 
 
