PCCDB-ID:  33931 
public computational chemistry database (PCCDB) project, http://pccdb.org 
 
 20 20  0  0  1  0  0  0  0  0999 V2000 
    3.3017    1.0816    0.3314 C   0  0  0  0  0  0  0  0  0  0  0  0 
    3.0808   -3.7796    2.4582 C   0  0  0  0  0  0  0  0  0  0  0  0 
    2.3842   -0.0174   -0.2104 C   0  0  0  0  0  0  0  0  0  0  0  0 
    2.8216   -3.1091    1.1543 C   0  0  0  0  0  0  0  0  0  0  0  0 
    3.0590   -1.3813   -0.3091 C   0  0  2  0  0  0  0  0  0  0  0  0 
    2.0989   -3.5117    0.0765 C   0  0  0  0  0  0  0  0  0  0  0  0 
    2.1643   -2.4607   -0.9336 C   0  0  0  0  0  0  0  0  0  0  0  0 
    1.3803   -4.6506   -0.1336 O   0  0  0  0  0  0  0  0  0  0  0  0 
    1.6400   -2.3969   -2.0329 O   0  0  0  0  0  0  0  0  0  0  0  0 
    3.4060   -1.8817    1.0079 O   0  0  0  0  0  0  0  0  0  0  0  0 
    2.7725    2.0392    0.3825 H   0  0  0  0  0  0  0  0  0  0  0  0 
    4.1793    1.2182   -0.3120 H   0  0  0  0  0  0  0  0  0  0  0  0 
    3.6567    0.8362    1.3377 H   0  0  0  0  0  0  0  0  0  0  0  0 
    2.5901   -4.7565    2.5168 H   0  0  0  0  0  0  0  0  0  0  0  0 
    2.7160   -3.1619    3.2875 H   0  0  0  0  0  0  0  0  0  0  0  0 
    4.1572   -3.9263    2.6072 H   0  0  0  0  0  0  0  0  0  0  0  0 
    2.0293    0.2281   -1.2190 H   0  0  0  0  0  0  0  0  0  0  0  0 
    1.4928   -0.1176    0.4219 H   0  0  0  0  0  0  0  0  0  0  0  0 
    3.9959   -1.3096   -0.8762 H   0  0  0  0  0  0  0  0  0  0  0  0 
    1.4492   -5.2245    0.6451 H   0  0  0  0  0  0  0  0  0  0  0  0 
  1 11  1  0  0  0  0 
  1 13  1  0  0  0  0 
  2 14  1  0  0  0  0 
  2 16  1  0  0  0  0 
  2 15  1  0  0  0  0 
  3  1  1  0  0  0  0 
  3 18  1  0  0  0  0 
  4  2  1  0  0  0  0 
  5 19  1  6  0  0  0 
  5  3  1  0  0  0  0 
  5 10  1  0  0  0  0 
  6  4  2  0  0  0  0 
  7  5  1  0  0  0  0 
  7  6  1  0  0  0  0 
  8  6  1  0  0  0  0 
  8 20  1  0  0  0  0 
  9  7  2  0  0  0  0 
 10  4  1  0  0  0  0 
 12  1  1  0  0  0  0 
 17  3  1  0  0  0  0 
M  END 
>  <HBA> 
3 
 
>  <HBD> 
1 
 
>  <TPSA> 
46.53 
 
>  <cid> 
33931 
 
>  <dipole> 
4.51 
 
>  <excitation_energy_1> 
3.982 
 
>  <excitation_energy_2> 
4.542 
 
>  <excitation_energy_3> 
4.69 
 
>  <excitation_energy_4> 
5.618 
 
>  <homo_energy> 
-5.799 
 
>  <homo_lumo_gap> 
4.833 
 
>  <logP> 
1.154 
 
>  <lumo_energy> 
-0.966 
 
>  <melting_point> 
35.71 
 
>  <molecular_refractivity> 
36.03 
 
>  <oscillator_strength_1> 
0.0005 
 
>  <oscillator_strength_2> 
0.1725 
 
>  <oscillator_strength_3> 
0.005 
 
>  <oscillator_strength_4> 
0.0015 
 
>  <open_babel_can_smiles> 
CC[C@H]1OC(=C(C1=O)O)C 
 
>  <mulliken_charges> 
20 
1   -0.451573 
2   -0.529026 
3   -0.256949 
4   0.350951 
5   0.042897 
6   0.190322 
7   0.40245 
8   -0.633358 
9   -0.489048 
10   -0.508275 
11   0.150447 
12   0.145652 
13   0.161153 
14   0.148996 
15   0.189609 
16   0.190231 
17   0.169023 
18   0.147127 
19   0.173257 
20   0.406114 
 
>  <lowdin_charges> 
20 
1   -0.445216 
2   -0.442346 
3   -0.270367 
4   0.077571 
5   -0.017505 
6   -0.01186 
7   0.11591 
8   -0.36683 
9   -0.249911 
10   -0.204084 
11   0.15451 
12   0.149476 
13   0.155398 
14   0.157332 
15   0.179286 
16   0.177265 
17   0.164142 
18   0.152452 
19   0.166768 
20   0.35801 
 
$$$$ 
 
