PCCDB-ID:  69868 
public computational chemistry database (PCCDB) project, http://pccdb.org 
 
 21 22  0  0  0  0  0  0  0  0999 V2000 
    2.2220   -0.5735    0.0736 C   0  0  0  0  0  0  0  0  0  0  0  0 
    2.1117    0.8165    0.1786 C   0  0  0  0  0  0  0  0  0  0  0  0 
    1.0782   -1.3746   -0.0376 C   0  0  0  0  0  0  0  0  0  0  0  0 
    0.8592    1.4372    0.1729 C   0  0  0  0  0  0  0  0  0  0  0  0 
   -1.5559   -1.3580   -0.1491 C   0  0  0  0  0  0  0  0  0  0  0  0 
   -2.4429   -0.1380   -0.1053 C   0  0  0  0  0  0  0  0  0  0  0  0 
   -2.2486    2.3980    0.0523 C   0  0  0  0  0  0  0  0  0  0  0  0 
   -1.9516    3.1023    1.3092 C   0  0  0  0  0  0  0  0  0  0  0  0 
   -0.1688   -0.7641   -0.0439 C   0  0  0  0  0  0  0  0  0  0  0  0 
   -1.7101    0.9873    0.0124 C   0  0  0  0  0  0  0  0  0  0  0  0 
   -0.2801    0.6386    0.0586 C   0  0  0  0  0  0  0  0  0  0  0  0 
   -1.7135    3.6597    2.2989 N   0  0  0  0  0  0  0  0  0  0  0  0 
    3.2046   -1.0374    0.0817 H   0  0  0  0  0  0  0  0  0  0  0  0 
    3.0095    1.4217    0.2702 H   0  0  0  0  0  0  0  0  0  0  0  0 
    1.1717   -2.4552   -0.1166 H   0  0  0  0  0  0  0  0  0  0  0  0 
    0.7832    2.5171    0.2680 H   0  0  0  0  0  0  0  0  0  0  0  0 
   -1.6972   -1.9352   -1.0746 H   0  0  0  0  0  0  0  0  0  0  0  0 
   -1.7761   -2.0491    0.6778 H   0  0  0  0  0  0  0  0  0  0  0  0 
   -3.5254   -0.1838   -0.1636 H   0  0  0  0  0  0  0  0  0  0  0  0 
   -1.8250    2.9913   -0.7705 H   0  0  0  0  0  0  0  0  0  0  0  0 
   -3.3352    2.3903   -0.0898 H   0  0  0  0  0  0  0  0  0  0  0  0 
  1 13  1  0  0  0  0 
  1  2  2  0  0  0  0 
  2 14  1  0  0  0  0 
  3  1  1  0  0  0  0 
  4  2  1  0  0  0  0 
  4 16  1  0  0  0  0 
  5  6  1  0  0  0  0 
  5  9  1  0  0  0  0 
  5 18  1  0  0  0  0 
  6 10  2  0  0  0  0 
  7  8  1  0  0  0  0 
  8 12  3  0  0  0  0 
  9  3  2  0  0  0  0 
  9 11  1  0  0  0  0 
 10  7  1  0  0  0  0 
 10 11  1  0  0  0  0 
 11  4  2  0  0  0  0 
 15  3  1  0  0  0  0 
 17  5  1  0  0  0  0 
 19  6  1  0  0  0  0 
 20  7  1  0  0  0  0 
 21  7  1  0  0  0  0 
M  END 
>  <HBA> 
1 
 
>  <HBD> 
0 
 
>  <TPSA> 
23.79 
 
>  <cid> 
69868 
 
>  <dipole> 
4.16 
 
>  <excitation_energy_1> 
4.789 
 
>  <excitation_energy_2> 
4.853 
 
>  <excitation_energy_3> 
5.445 
 
>  <excitation_energy_4> 
5.608 
 
>  <homo_energy> 
-6.117 
 
>  <homo_lumo_gap> 
5.274 
 
>  <logP> 
2.54 
 
>  <lumo_energy> 
-0.844 
 
>  <melting_point> 
79.34 
 
>  <molecular_refractivity> 
48.75 
 
>  <oscillator_strength_1> 
0.0317 
 
>  <oscillator_strength_2> 
0.1518 
 
>  <oscillator_strength_3> 
0.0127 
 
>  <oscillator_strength_4> 
0.1439 
 
>  <open_babel_can_smiles> 
N#CCC1=CCc2c1cccc2 
 
>  <mulliken_charges> 
21 
1   -0.132645 
2   -0.135602 
3   -0.190085 
4   -0.194424 
5   -0.384542 
6   -0.20088 
7   -0.43219 
8   0.361846 
9   0.102701 
10   0.149698 
11   0.099788 
12   -0.466281 
13   0.129972 
14   0.132593 
15   0.127107 
16   0.137917 
17   0.173599 
18   0.17784 
19   0.135497 
20   0.205994 
21   0.202098 
 
>  <lowdin_charges> 
21 
1   -0.157614 
2   -0.154896 
3   -0.159379 
4   -0.164016 
5   -0.271927 
6   -0.168182 
7   -0.266337 
8   -0.015357 
9   -0.004559 
10   -0.011326 
11   -0.016687 
12   -0.124281 
13   0.15829 
14   0.160199 
15   0.155363 
16   0.160472 
17   0.171194 
18   0.174086 
19   0.158643 
20   0.189297 
21   0.187018 
 
$$$$ 
 
