PCCDB-ID:  39068 
public computational chemistry database (PCCDB) project, http://pccdb.org 
 
 51 51  0  0  1  0  0  0  0  0999 V2000 
   12.0894    8.5169    2.5581 C   0  0  0  0  0  0  0  0  0  0  0  0 
   13.1232   -0.8817   10.3206 C   0  0  0  0  0  0  0  0  0  0  0  0 
   11.0519    0.3593    9.5739 C   0  0  0  0  0  0  0  0  0  0  0  0 
   10.0715   -2.5605    7.4222 C   0  0  0  0  0  0  0  0  0  0  0  0 
   11.6446    7.0510    2.5194 C   0  0  0  0  0  0  0  0  0  0  0  0 
   10.1205    6.8899    2.4234 C   0  0  0  0  0  0  0  0  0  0  0  0 
    9.6312    5.4361    2.3150 C   0  0  0  0  0  0  0  0  0  0  0  0 
    9.8706    4.5825    3.5688 C   0  0  0  0  0  0  0  0  0  0  0  0 
    9.3157    3.1568    3.4490 C   0  0  0  0  0  0  0  0  0  0  0  0 
    9.5506    2.3027    4.7020 C   0  0  0  0  0  0  0  0  0  0  0  0 
    9.0090    0.8721    4.5741 C   0  0  0  0  0  0  0  0  0  0  0  0 
    9.1597    0.0126    5.8438 C   0  0  0  0  0  0  0  0  0  0  0  0 
   12.2244   -1.2848    7.9959 C   0  0  0  0  0  0  0  0  0  0  0  0 
   11.4061   -1.3534    5.5460 C   0  0  0  0  0  0  0  0  0  0  0  0 
   11.8554   -0.9440    9.4557 C   0  0  0  0  0  0  0  0  0  0  0  0 
   10.6039   -0.2650    6.2253 C   0  0  2  0  0  0  0  0  0  0  0  0 
   11.0648   -1.4798    7.0185 C   0  0  1  0  0  0  0  0  0  0  0  0 
   13.1800    8.6039    2.6233 H   0  0  0  0  0  0  0  0  0  0  0  0 
   11.6615    9.0375    3.4239 H   0  0  0  0  0  0  0  0  0  0  0  0 
   11.7652    9.0542    1.6581 H   0  0  0  0  0  0  0  0  0  0  0  0 
   12.8776   -0.6887   11.3717 H   0  0  0  0  0  0  0  0  0  0  0  0 
   13.7886   -0.0762    9.9825 H   0  0  0  0  0  0  0  0  0  0  0  0 
   13.6887   -1.8203   10.2743 H   0  0  0  0  0  0  0  0  0  0  0  0 
   10.8076    0.5752   10.6211 H   0  0  0  0  0  0  0  0  0  0  0  0 
   10.1134    0.3100    9.0123 H   0  0  0  0  0  0  0  0  0  0  0  0 
   11.6275    1.2107    9.1871 H   0  0  0  0  0  0  0  0  0  0  0  0 
   10.5987   -3.4981    7.6427 H   0  0  0  0  0  0  0  0  0  0  0  0 
    9.3508   -2.7735    6.6273 H   0  0  0  0  0  0  0  0  0  0  0  0 
    9.5022   -2.2837    8.3180 H   0  0  0  0  0  0  0  0  0  0  0  0 
   12.0199    6.5375    3.4144 H   0  0  0  0  0  0  0  0  0  0  0  0 
   12.1136    6.5495    1.6602 H   0  0  0  0  0  0  0  0  0  0  0  0 
    9.7648    7.4483    1.5453 H   0  0  0  0  0  0  0  0  0  0  0  0 
    9.6496    7.3675    3.2959 H   0  0  0  0  0  0  0  0  0  0  0  0 
   10.1138    4.9557    1.4506 H   0  0  0  0  0  0  0  0  0  0  0  0 
    8.5542    5.4414    2.0944 H   0  0  0  0  0  0  0  0  0  0  0  0 
    9.4093    5.0786    4.4362 H   0  0  0  0  0  0  0  0  0  0  0  0 
   10.9467    4.5289    3.7850 H   0  0  0  0  0  0  0  0  0  0  0  0 
    9.7741    2.6607    2.5805 H   0  0  0  0  0  0  0  0  0  0  0  0 
    8.2369    3.2020    3.2364 H   0  0  0  0  0  0  0  0  0  0  0  0 
    9.0784    2.7913    5.5678 H   0  0  0  0  0  0  0  0  0  0  0  0 
   10.6281    2.2762    4.9155 H   0  0  0  0  0  0  0  0  0  0  0  0 
    9.5111    0.3657    3.7373 H   0  0  0  0  0  0  0  0  0  0  0  0 
    7.9431    0.9201    4.3083 H   0  0  0  0  0  0  0  0  0  0  0  0 
    8.6270   -0.9329    5.6875 H   0  0  0  0  0  0  0  0  0  0  0  0 
    8.6484    0.5142    6.6799 H   0  0  0  0  0  0  0  0  0  0  0  0 
   12.8283   -2.2055    8.0016 H   0  0  0  0  0  0  0  0  0  0  0  0 
   12.8848   -0.4944    7.6091 H   0  0  0  0  0  0  0  0  0  0  0  0 
   12.4365   -1.1491    5.2630 H   0  0  0  0  0  0  0  0  0  0  0  0 
   10.8822   -2.0076    4.8516 H   0  0  0  0  0  0  0  0  0  0  0  0 
   11.2308   -1.7599    9.8479 H   0  0  0  0  0  0  0  0  0  0  0  0 
   11.1698    0.6384    6.4494 H   0  0  0  0  0  0  0  0  0  0  0  0 
  1 18  1  0  0  0  0 
  1 19  1  0  0  0  0 
  2 21  1  0  0  0  0 
  3 24  1  0  0  0  0 
  4 27  1  0  0  0  0 
  4 29  1  0  0  0  0 
  5  1  1  0  0  0  0 
  5 30  1  0  0  0  0 
  6  5  1  0  0  0  0 
  6 33  1  0  0  0  0 
  7  6  1  0  0  0  0 
  7  8  1  0  0  0  0 
  8 37  1  0  0  0  0 
  8 36  1  0  0  0  0 
  9  8  1  0  0  0  0 
  9 10  1  0  0  0  0 
 10 41  1  0  0  0  0 
 10 40  1  0  0  0  0 
 11 10  1  0  0  0  0 
 11 12  1  0  0  0  0 
 12 16  1  0  0  0  0 
 12 45  1  0  0  0  0 
 13 46  1  0  0  0  0 
 13 15  1  0  0  0  0 
 14 16  1  0  0  0  0 
 14 17  1  0  0  0  0 
 15  3  1  0  0  0  0 
 15 50  1  0  0  0  0 
 15  2  1  0  0  0  0 
 16 51  1  1  0  0  0 
 16 17  1  0  0  0  0 
 17  4  1  1  0  0  0 
 17 13  1  0  0  0  0 
 20  1  1  0  0  0  0 
 22  2  1  0  0  0  0 
 23  2  1  0  0  0  0 
 25  3  1  0  0  0  0 
 26  3  1  0  0  0  0 
 28  4  1  0  0  0  0 
 31  5  1  0  0  0  0 
 32  6  1  0  0  0  0 
 34  7  1  0  0  0  0 
 35  7  1  0  0  0  0 
 38  9  1  0  0  0  0 
 39  9  1  0  0  0  0 
 42 11  1  0  0  0  0 
 43 11  1  0  0  0  0 
 44 12  1  0  0  0  0 
 47 13  1  0  0  0  0 
 48 14  1  0  0  0  0 
 49 14  1  0  0  0  0 
M  END 
>  <HBA> 
0 
 
>  <HBD> 
0 
 
>  <TPSA> 
0.0 
 
>  <cid> 
39068 
 
>  <dipole> 
0.17 
 
>  <excitation_energy_1> 
6.356 
 
>  <excitation_energy_2> 
6.628 
 
>  <excitation_energy_3> 
6.632 
 
>  <excitation_energy_4> 
6.753 
 
>  <homo_energy> 
-6.865 
 
>  <homo_lumo_gap> 
9.01 
 
>  <logP> 
6.199 
 
>  <lumo_energy> 
2.144 
 
>  <melting_point> 
7.4 
 
>  <molecular_refractivity> 
81.46 
 
>  <oscillator_strength_1> 
0.0321 
 
>  <oscillator_strength_2> 
0.0026 
 
>  <oscillator_strength_3> 
0.0247 
 
>  <oscillator_strength_4> 
0.0026 
 
>  <open_babel_can_smiles> 
CCCCCCCCC[C@@H]1C[C@@]1(C)CC(C)C 
 
>  <mulliken_charges> 
51 
1   -0.441334 
2   -0.442076 
3   -0.446784 
4   -0.476139 
5   -0.248086 
6   -0.246914 
7   -0.254656 
8   -0.253738 
9   -0.252634 
10   -0.256037 
11   -0.249366 
12   -0.276473 
13   -0.272016 
14   -0.347806 
15   -0.070069 
16   -0.106709 
17   0.121297 
18   0.140547 
19   0.140916 
20   0.140577 
21   0.138573 
22   0.137084 
23   0.13866 
24   0.13625 
25   0.15372 
26   0.134755 
27   0.142413 
28   0.142202 
29   0.147156 
30   0.135174 
31   0.128552 
32   0.125491 
33   0.125036 
34   0.125547 
35   0.126151 
36   0.12519 
37   0.131322 
38   0.127185 
39   0.125594 
40   0.124767 
41   0.132997 
42   0.1314 
43   0.123935 
44   0.126897 
45   0.130701 
46   0.124808 
47   0.117985 
48   0.139969 
49   0.13975 
50   0.123999 
51   0.134239 
 
>  <lowdin_charges> 
51 
1   -0.443586 
2   -0.443368 
3   -0.446379 
4   -0.439191 
5   -0.275984 
6   -0.276841 
7   -0.274327 
8   -0.275442 
9   -0.272459 
10   -0.275802 
11   -0.273499 
12   -0.271378 
13   -0.26877 
14   -0.327878 
15   -0.12326 
16   -0.160094 
17   -0.009037 
18   0.146617 
19   0.146735 
20   0.146062 
21   0.145908 
22   0.145118 
23   0.146694 
24   0.145204 
25   0.152725 
26   0.144269 
27   0.149871 
28   0.150962 
29   0.149064 
30   0.14055 
31   0.138777 
32   0.140024 
33   0.137465 
34   0.13772 
35   0.137939 
36   0.137338 
37   0.136675 
38   0.138355 
39   0.134634 
40   0.137015 
41   0.137321 
42   0.141104 
43   0.136897 
44   0.14313 
45   0.140508 
46   0.139553 
47   0.139014 
48   0.152837 
49   0.154569 
50   0.137282 
51   0.149357 
 
$$$$ 
 
