PCCDB-ID:  24356 
public computational chemistry database (PCCDB) project, http://pccdb.org 
 
 19 20  0  0  0  0  0  0  0  0999 V2000 
    1.0146   -0.0716   -0.0814 C   0  0  0  0  0  0  0  0  0  0  0  0 
    5.3818    2.5854   -0.0561 C   0  0  0  0  0  0  0  0  0  0  0  0 
    3.1792    1.2692   -0.0685 C   0  0  0  0  0  0  0  0  0  0  0  0 
    6.5899   -1.4063   -0.0585 C   0  0  0  0  0  0  0  0  0  0  0  0 
    2.5206    0.0060   -0.0750 C   0  0  0  0  0  0  0  0  0  0  0  0 
    4.5541    1.3413   -0.0617 C   0  0  0  0  0  0  0  0  0  0  0  0 
    4.5162   -1.0839   -0.0682 C   0  0  0  0  0  0  0  0  0  0  0  0 
    5.4149   -2.0704   -0.0662 N   0  0  0  0  0  0  0  0  0  0  0  0 
    6.5418   -0.0703   -0.0553 N   0  0  0  0  0  0  0  0  0  0  0  0 
    3.1765   -1.1467   -0.0754 N   0  0  0  0  0  0  0  0  0  0  0  0 
    5.1991    0.1411   -0.0617 N   0  0  0  0  0  0  0  0  0  0  0  0 
    0.5534    0.9198   -0.0966 H   0  0  0  0  0  0  0  0  0  0  0  0 
    0.6618   -0.6100    0.8050 H   0  0  0  0  0  0  0  0  0  0  0  0 
    0.6706   -0.6341   -0.9560 H   0  0  0  0  0  0  0  0  0  0  0  0 
    4.7417    3.4705   -0.0589 H   0  0  0  0  0  0  0  0  0  0  0  0 
    6.0407    2.6110   -0.9310 H   0  0  0  0  0  0  0  0  0  0  0  0 
    6.0311    2.6099    0.8262 H   0  0  0  0  0  0  0  0  0  0  0  0 
    2.6019    2.1866   -0.0688 H   0  0  0  0  0  0  0  0  0  0  0  0 
    7.5457   -1.9145   -0.0547 H   0  0  0  0  0  0  0  0  0  0  0  0 
  1  5  1  0  0  0  0 
  1 13  1  0  0  0  0 
  2 17  1  0  0  0  0 
  3  6  2  0  0  0  0 
  4  9  1  0  0  0  0 
  4 19  1  0  0  0  0 
  5  3  1  0  0  0  0 
  6  2  1  0  0  0  0 
  7  8  2  0  0  0  0 
  7 11  1  0  0  0  0 
  8  4  2  0  0  0  0 
 10  5  2  0  0  0  0 
 10  7  1  0  0  0  0 
 11  6  1  0  0  0  0 
 11  9  1  0  0  0  0 
 12  1  1  0  0  0  0 
 14  1  1  0  0  0  0 
 15  2  1  0  0  0  0 
 16  2  1  0  0  0  0 
 18  3  1  0  0  0  0 
M  RAD  1   9   2 
M  END 
>  <HBA> 
4 
 
>  <HBD> 
0 
 
>  <TPSA> 
43.08 
 
>  <cid> 
24356 
 
>  <dipole> 
4.68 
 
>  <excitation_energy_1> 
4.564 
 
>  <excitation_energy_2> 
4.665 
 
>  <excitation_energy_3> 
4.929 
 
>  <excitation_energy_4> 
5.129 
 
>  <homo_energy> 
-6.672 
 
>  <homo_lumo_gap> 
5.178 
 
>  <logP> 
0.741 
 
>  <lumo_energy> 
-1.494 
 
>  <melting_point> 
97.07 
 
>  <molecular_refractivity> 
40.71 
 
>  <oscillator_strength_1> 
0.0508 
 
>  <oscillator_strength_2> 
0.0029 
 
>  <oscillator_strength_3> 
0.0319 
 
>  <oscillator_strength_4> 
0.0002 
 
>  <open_babel_can_smiles> 
Cc1cc(C)nc2=[N]=C[N]n12 
 
>  <mulliken_charges> 
19 
1   -0.511003 
2   -0.510974 
3   -0.271239 
4   0.178242 
5   0.315444 
6   0.418918 
7   0.680413 
8   -0.492544 
9   -0.294371 
10   -0.522352 
11   -0.383015 
12   0.152888 
13   0.18471 
14   0.184943 
15   0.168373 
16   0.196615 
17   0.196548 
18   0.146365 
19   0.162038 
 
>  <lowdin_charges> 
19 
1   -0.445029 
2   -0.438652 
3   -0.226473 
4   -0.071152 
5   0.078006 
6   0.08478 
7   0.092567 
8   -0.196931 
9   -0.184073 
10   -0.147163 
11   0.062817 
12   0.15586 
13   0.177418 
14   0.177622 
15   0.168701 
16   0.184115 
17   0.184042 
18   0.172691 
19   0.170856 
 
$$$$ 
 
