PCCDB-ID:  22448 
public computational chemistry database (PCCDB) project, http://pccdb.org 
 
 20 19  0  0  0  0  0  0  0  0999 V2000 
    0.8555   -0.0172    0.0620 C   0  0  0  0  0  0  0  0  0  0  0  0 
    4.9982    2.9194    1.9002 C   0  0  0  0  0  0  0  0  0  0  0  0 
    2.3836   -0.0410    0.1607 C   0  0  0  0  0  0  0  0  0  0  0  0 
    3.0115    1.3512   -0.0649 C   0  0  0  0  0  0  0  0  0  0  0  0 
    4.5086    1.3071   -0.0373 C   0  0  0  0  0  0  0  0  0  0  0  0 
    5.3261    1.9635    0.7956 C   0  0  0  0  0  0  0  0  0  0  0  0 
    6.7820    1.7298    0.6161 N   0  0  0  0  0  0  0  0  0  0  0  0 
    7.5318    2.3428    1.3788 O   0  0  0  0  0  0  0  0  0  0  0  0 
    7.1686    0.9566   -0.2607 O   0  0  0  0  0  0  0  0  0  0  0  0 
    0.4354   -1.0159    0.2229 H   0  0  0  0  0  0  0  0  0  0  0  0 
    0.5268    0.3288   -0.9254 H   0  0  0  0  0  0  0  0  0  0  0  0 
    0.4182    0.6532    0.8118 H   0  0  0  0  0  0  0  0  0  0  0  0 
    3.9169    3.0408    1.9906 H   0  0  0  0  0  0  0  0  0  0  0  0 
    5.4463    3.9013    1.7173 H   0  0  0  0  0  0  0  0  0  0  0  0 
    5.3932    2.5648    2.8573 H   0  0  0  0  0  0  0  0  0  0  0  0 
    2.7921   -0.7449   -0.5764 H   0  0  0  0  0  0  0  0  0  0  0  0 
    2.6887   -0.4156    1.1461 H   0  0  0  0  0  0  0  0  0  0  0  0 
    2.6133    2.0580    0.6710 H   0  0  0  0  0  0  0  0  0  0  0  0 
    2.6969    1.7183   -1.0537 H   0  0  0  0  0  0  0  0  0  0  0  0 
    4.9869    0.6581   -0.7669 H   0  0  0  0  0  0  0  0  0  0  0  0 
  1  3  1  0  0  0  0 
  1 10  1  0  0  0  0 
  1 12  1  0  0  0  0 
  2 13  1  0  0  0  0 
  2 15  1  0  0  0  0 
  3 17  1  0  0  0  0 
  4  5  1  0  0  0  0 
  4  3  1  0  0  0  0 
  4 18  1  0  0  0  0 
  5  6  2  0  0  0  0 
  6  2  1  0  0  0  0 
  7  6  1  0  0  0  0 
  7  8  2  0  0  0  0 
  9  7  2  0  0  0  0 
 11  1  1  0  0  0  0 
 14  2  1  0  0  0  0 
 16  3  1  0  0  0  0 
 19  4  1  0  0  0  0 
 20  5  1  0  0  0  0 
M  END 
>  <HBA> 
0 
 
>  <HBD> 
0 
 
>  <TPSA> 
45.82 
 
>  <cid> 
22448 
 
>  <dipole> 
4.69 
 
>  <excitation_energy_1> 
3.723 
 
>  <excitation_energy_2> 
4.262 
 
>  <excitation_energy_3> 
4.746 
 
>  <excitation_energy_4> 
6.033 
 
>  <homo_energy> 
-7.535 
 
>  <homo_lumo_gap> 
5.391 
 
>  <logP> 
2.49 
 
>  <lumo_energy> 
-2.144 
 
>  <melting_point> 
17.4 
 
>  <molecular_refractivity> 
38.59 
 
>  <oscillator_strength_1> 
0.0 
 
>  <oscillator_strength_2> 
0.0008 
 
>  <oscillator_strength_3> 
0.2273 
 
>  <oscillator_strength_4> 
0.1066 
 
>  <open_babel_can_smiles> 
CCC/C=C(/N(=O)=O)\C 
 
>  <mulliken_charges> 
20 
1   -0.444199 
2   -0.510421 
3   -0.254482 
4   -0.309028 
5   -0.139658 
6   0.271454 
7   0.416114 
8   -0.391792 
9   -0.406277 
10   0.152964 
11   0.14735 
12   0.14669 
13   0.158654 
14   0.185725 
15   0.185521 
16   0.146085 
17   0.148028 
18   0.150173 
19   0.160483 
20   0.186615 
 
>  <lowdin_charges> 
20 
1   -0.444311 
2   -0.441384 
3   -0.269119 
4   -0.272664 
5   -0.122997 
6   -0.00411 
7   0.304458 
8   -0.251929 
9   -0.258743 
10   0.155321 
11   0.149235 
12   0.150329 
13   0.161024 
14   0.1758 
15   0.176013 
16   0.147819 
17   0.147251 
18   0.151463 
19   0.160239 
20   0.186308 
 
$$$$ 
 
