PCCDB-ID:  61663 
public computational chemistry database (PCCDB) project, http://pccdb.org 
 
 14 14  0  0  0  0  0  0  0  0999 V2000 
    0.7552   -0.0556    0.1067 C   0  0  0  0  0  0  0  0  0  0  0  0 
    3.1606   -0.9901    0.0249 C   0  0  0  0  0  0  0  0  0  0  0  0 
    4.5081   -0.5492    0.0174 C   0  0  0  0  0  0  0  0  0  0  0  0 
    5.8502    1.6103    0.0837 C   0  0  0  0  0  0  0  0  0  0  0  0 
    2.2514    0.0427    0.0857 C   0  0  0  0  0  0  0  0  0  0  0  0 
    4.6264    0.8233    0.0729 C   0  0  0  0  0  0  0  0  0  0  0  0 
    5.8993    2.8278    0.1351 O   0  0  0  0  0  0  0  0  0  0  0  0 
    3.0549    1.5875    0.1357 S   0  0  0  0  0  0  0  0  0  0  0  0 
    0.4495   -1.1062    0.1049 H   0  0  0  0  0  0  0  0  0  0  0  0 
    0.3053    0.4290   -0.7682 H   0  0  0  0  0  0  0  0  0  0  0  0 
    0.3296    0.4195    0.9984 H   0  0  0  0  0  0  0  0  0  0  0  0 
    2.8624   -2.0328   -0.0141 H   0  0  0  0  0  0  0  0  0  0  0  0 
    5.3671   -1.2116   -0.0273 H   0  0  0  0  0  0  0  0  0  0  0  0 
    6.7772    0.9975    0.0397 H   0  0  0  0  0  0  0  0  0  0  0  0 
  1 11  1  0  0  0  0 
  2  5  2  0  0  0  0 
  3  2  1  0  0  0  0 
  3  6  2  0  0  0  0 
  4  7  2  0  0  0  0 
  5  1  1  0  0  0  0 
  5  8  1  0  0  0  0 
  6  4  1  0  0  0  0 
  6  8  1  0  0  0  0 
  9  1  1  0  0  0  0 
 10  1  1  0  0  0  0 
 12  2  1  0  0  0  0 
 13  3  1  0  0  0  0 
 14  4  1  0  0  0  0 
M  END 
>  <HBA> 
2 
 
>  <HBD> 
0 
 
>  <TPSA> 
45.31 
 
>  <cid> 
61663 
 
>  <dipole> 
4.35 
 
>  <excitation_energy_1> 
3.696 
 
>  <excitation_energy_2> 
4.514 
 
>  <excitation_energy_3> 
4.789 
 
>  <excitation_energy_4> 
5.796 
 
>  <homo_energy> 
-6.604 
 
>  <homo_lumo_gap> 
4.806 
 
>  <logP> 
1.869 
 
>  <lumo_energy> 
-1.799 
 
>  <melting_point> 
41.15 
 
>  <molecular_refractivity> 
34.67 
 
>  <oscillator_strength_1> 
0.0001 
 
>  <oscillator_strength_2> 
0.2561 
 
>  <oscillator_strength_3> 
0.1161 
 
>  <oscillator_strength_4> 
0.0001 
 
>  <open_babel_can_smiles> 
Cc1ccc(s1)C=O 
 
>  <mulliken_charges> 
14 
1   -0.511171 
2   -0.129045 
3   -0.113454 
4   0.223769 
5   -0.094632 
6   -0.185605 
7   -0.416892 
8   0.286395 
9   0.171941 
10   0.180727 
11   0.180086 
12   0.144009 
13   0.153813 
14   0.110059 
 
>  <lowdin_charges> 
14 
1   -0.437067 
2   -0.196616 
3   -0.152601 
4   0.037421 
5   -0.126563 
6   -0.203403 
7   -0.236191 
8   0.341249 
9   0.167419 
10   0.172056 
11   0.171792 
12   0.165001 
13   0.172222 
14   0.125281 
 
$$$$ 
 
