PCCDB-ID:  12511 
public computational chemistry database (PCCDB) project, http://pccdb.org 
 
 16 16  0  0  0  0  0  0  0  0999 V2000 
    0.7456    1.2900   -0.2107 C   0  0  0  0  0  0  0  0  0  0  0  0 
    1.4886   -0.0012    0.2081 C   0  0  0  0  0  0  0  0  0  0  0  0 
   -1.4852    0.0066   -0.2122 C   0  0  0  0  0  0  0  0  0  0  0  0 
   -0.7421   -1.2846    0.2069 C   0  0  0  0  0  0  0  0  0  0  0  0 
   -0.7245    1.2640    0.1967 C   0  0  0  0  0  0  0  0  0  0  0  0 
    0.7278   -1.2586   -0.2007 C   0  0  0  0  0  0  0  0  0  0  0  0 
   -1.2526    2.1812    0.7928 O   0  0  0  0  0  0  0  0  0  0  0  0 
    1.2559   -2.1757   -0.7970 O   0  0  0  0  0  0  0  0  0  0  0  0 
    0.7873    1.3861   -1.3057 H   0  0  0  0  0  0  0  0  0  0  0  0 
    1.2145    2.1791    0.2190 H   0  0  0  0  0  0  0  0  0  0  0  0 
    1.5918   -0.0138    1.3032 H   0  0  0  0  0  0  0  0  0  0  0  0 
    2.4933   -0.0421   -0.2208 H   0  0  0  0  0  0  0  0  0  0  0  0 
   -2.4899    0.0474    0.2164 H   0  0  0  0  0  0  0  0  0  0  0  0 
   -1.5881    0.0193   -1.3073 H   0  0  0  0  0  0  0  0  0  0  0  0 
   -1.2111   -2.1738   -0.2225 H   0  0  0  0  0  0  0  0  0  0  0  0 
   -0.7838   -1.3803    1.3019 H   0  0  0  0  0  0  0  0  0  0  0  0 
  1  5  1  0  0  0  0 
  1  2  1  0  0  0  0 
  1 10  1  0  0  0  0 
  2 11  1  0  0  0  0 
  3  5  1  0  0  0  0 
  3  4  1  0  0  0  0 
  3 13  1  0  0  0  0 
  4 16  1  0  0  0  0 
  5  7  2  0  0  0  0 
  6  4  1  0  0  0  0 
  6  2  1  0  0  0  0 
  8  6  2  0  0  0  0 
  9  1  1  0  0  0  0 
 12  2  1  0  0  0  0 
 14  3  1  0  0  0  0 
 15  4  1  0  0  0  0 
M  END 
>  <HBA> 
2 
 
>  <HBD> 
0 
 
>  <TPSA> 
34.14 
 
>  <cid> 
12511 
 
>  <dipole> 
0.0 
 
>  <excitation_energy_1> 
4.154 
 
>  <excitation_energy_2> 
4.173 
 
>  <excitation_energy_3> 
5.171 
 
>  <excitation_energy_4> 
5.188 
 
>  <homo_energy> 
-6.857 
 
>  <homo_lumo_gap> 
5.84 
 
>  <logP> 
0.699 
 
>  <lumo_energy> 
-1.018 
 
>  <melting_point> 
38.8 
 
>  <molecular_refractivity> 
29.24 
 
>  <oscillator_strength_1> 
0.0 
 
>  <oscillator_strength_2> 
0.0 
 
>  <oscillator_strength_3> 
0.0 
 
>  <oscillator_strength_4> 
0.0032 
 
>  <open_babel_can_smiles> 
O=C1CCC(=O)CC1 
 
>  <mulliken_charges> 
16 
1   -0.354969 
2   -0.355453 
3   -0.355436 
4   -0.355075 
5   0.448989 
6   0.449033 
7   -0.433498 
8   -0.433494 
9   0.171044 
10   0.176342 
11   0.171147 
12   0.176414 
13   0.176419 
14   0.171143 
15   0.17635 
16   0.171045 
 
>  <lowdin_charges> 
16 
1   -0.30355 
2   -0.301956 
3   -0.301948 
4   -0.303552 
5   0.156931 
6   0.156935 
7   -0.222732 
8   -0.222723 
9   0.16529 
10   0.170993 
11   0.165324 
12   0.169696 
13   0.169694 
14   0.165317 
15   0.170995 
16   0.165284 
 
$$$$ 
 
