PCCDB-ID:  34193 
public computational chemistry database (PCCDB) project, http://pccdb.org 
 
 31 32  0  0  1  0  0  0  0  0999 V2000 
    0.8815   -0.0716    0.0990 C   0  0  0  0  0  0  0  0  0  0  0  0 
    4.5416    3.8263   -0.6667 C   0  0  0  0  0  0  0  0  0  0  0  0 
    3.0093    3.8433   -0.6043 C   0  0  0  0  0  0  0  0  0  0  0  0 
    4.5158   -1.2683   -0.6754 C   0  0  0  0  0  0  0  0  0  0  0  0 
    2.9842   -1.2653   -0.6150 C   0  0  0  0  0  0  0  0  0  0  0  0 
    5.0477    2.5469   -1.3447 C   0  0  0  0  0  0  0  0  0  0  0  0 
    5.0419    0.0043   -1.3482 C   0  0  0  0  0  0  0  0  0  0  0  0 
    2.4525    2.5745    0.0595 C   0  0  0  0  0  0  0  0  0  0  0  0 
    2.4162   -0.0047    0.0667 C   0  0  1  0  0  0  0  0  0  0  0  0 
    4.5068    1.2746   -0.6693 C   0  0  2  0  0  0  0  0  0  0  0  0 
    2.9572    1.2805   -0.6114 C   0  0  2  0  0  0  0  0  0  0  0  0 
    0.5469   -1.0228    0.5303 H   0  0  0  0  0  0  0  0  0  0  0  0 
    0.4637   -0.0034   -0.9142 H   0  0  0  0  0  0  0  0  0  0  0  0 
    0.4398    0.7313    0.6973 H   0  0  0  0  0  0  0  0  0  0  0  0 
    4.9476    3.8816    0.3543 H   0  0  0  0  0  0  0  0  0  0  0  0 
    4.9131    4.7122   -1.1980 H   0  0  0  0  0  0  0  0  0  0  0  0 
    2.6072    3.9222   -1.6255 H   0  0  0  0  0  0  0  0  0  0  0  0 
    2.6582    4.7322   -0.0640 H   0  0  0  0  0  0  0  0  0  0  0  0 
    4.8731   -2.1590   -1.2083 H   0  0  0  0  0  0  0  0  0  0  0  0 
    4.9204   -1.3335    0.3455 H   0  0  0  0  0  0  0  0  0  0  0  0 
    2.6241   -2.1593   -0.0880 H   0  0  0  0  0  0  0  0  0  0  0  0 
    2.5799   -1.3274   -1.6375 H   0  0  0  0  0  0  0  0  0  0  0  0 
    6.1461    2.5244   -1.3454 H   0  0  0  0  0  0  0  0  0  0  0  0 
    4.7382    2.5487   -2.4014 H   0  0  0  0  0  0  0  0  0  0  0  0 
    4.7392    0.0092   -2.4068 H   0  0  0  0  0  0  0  0  0  0  0  0 
    6.1404    0.0152   -1.3409 H   0  0  0  0  0  0  0  0  0  0  0  0 
    1.3573    2.6102    0.0413 H   0  0  0  0  0  0  0  0  0  0  0  0 
    2.7448    2.5614    1.1213 H   0  0  0  0  0  0  0  0  0  0  0  0 
    2.7759   -0.0006    1.1093 H   0  0  0  0  0  0  0  0  0  0  0  0 
    4.8686    1.2727    0.3738 H   0  0  0  0  0  0  0  0  0  0  0  0 
    2.5906    1.2792   -1.6537 H   0  0  0  0  0  0  0  0  0  0  0  0 
  1 12  1  0  0  0  0 
  1 14  1  0  0  0  0 
  2  3  1  0  0  0  0 
  2 15  1  0  0  0  0 
  3 18  1  0  0  0  0 
  3  8  1  0  0  0  0 
  4  5  1  0  0  0  0 
  4 20  1  0  0  0  0 
  5 21  1  0  0  0  0 
  5  9  1  0  0  0  0 
  6 10  1  0  0  0  0 
  6  2  1  0  0  0  0 
  7 26  1  0  0  0  0 
  7  4  1  0  0  0  0 
  7 10  1  0  0  0  0 
  8 28  1  0  0  0  0 
  9  1  1  0  0  0  0 
  9 29  1  1  0  0  0 
 10 11  1  0  0  0  0 
 10 30  1  1  0  0  0 
 11 31  1  6  0  0  0 
 11  8  1  0  0  0  0 
 11  9  1  0  0  0  0 
 13  1  1  0  0  0  0 
 16  2  1  0  0  0  0 
 17  3  1  0  0  0  0 
 19  4  1  0  0  0  0 
 22  5  1  0  0  0  0 
 23  6  1  0  0  0  0 
 24  6  1  0  0  0  0 
 25  7  1  0  0  0  0 
 27  8  1  0  0  0  0 
M  END 
>  <HBA> 
0 
 
>  <HBD> 
0 
 
>  <TPSA> 
0.0 
 
>  <cid> 
34193 
 
>  <dipole> 
0.05 
 
>  <excitation_energy_1> 
6.946 
 
>  <excitation_energy_2> 
7.056 
 
>  <excitation_energy_3> 
7.136 
 
>  <excitation_energy_4> 
7.191 
 
>  <homo_energy> 
-7.372 
 
>  <homo_lumo_gap> 
9.802 
 
>  <logP> 
3.613 
 
>  <lumo_energy> 
2.43 
 
>  <melting_point> 
15.27 
 
>  <molecular_refractivity> 
50.76 
 
>  <oscillator_strength_1> 
0.0012 
 
>  <oscillator_strength_2> 
0.0108 
 
>  <oscillator_strength_3> 
0.0024 
 
>  <oscillator_strength_4> 
0.0015 
 
>  <open_babel_can_smiles> 
C[C@H]1CCC[C@@H]2[C@@H]1CCCC2 
 
>  <mulliken_charges> 
31 
1   -0.453935 
2   -0.257535 
3   -0.259551 
4   -0.262757 
5   -0.25736 
6   -0.25999 
7   -0.25974 
8   -0.269033 
9   -0.072952 
10   -0.080575 
11   -0.07172 
12   0.138223 
13   0.13734 
14   0.145095 
15   0.125944 
16   0.127645 
17   0.126345 
18   0.127729 
19   0.12765 
20   0.126034 
21   0.125242 
22   0.122962 
23   0.125216 
24   0.122916 
25   0.123087 
26   0.124997 
27   0.132288 
28   0.122413 
29   0.111732 
30   0.108405 
31   0.103885 
 
>  <lowdin_charges> 
31 
1   -0.447012 
2   -0.277711 
3   -0.277073 
4   -0.277406 
5   -0.277082 
6   -0.273104 
7   -0.27294 
8   -0.275689 
9   -0.124395 
10   -0.13004 
11   -0.130897 
12   0.147935 
13   0.144293 
14   0.150032 
15   0.135767 
16   0.142734 
17   0.135936 
18   0.14278 
19   0.142943 
20   0.135981 
21   0.141346 
22   0.134899 
23   0.13866 
24   0.134348 
25   0.134393 
26   0.138574 
27   0.141934 
28   0.13414 
29   0.13032 
30   0.128694 
31   0.127641 
 
$$$$ 
 
