PCCDB-ID:  51365 
public computational chemistry database (PCCDB) project, http://pccdb.org 
 
 36 38  0  0  0  0  0  0  0  0999 V2000 
    0.8513   -0.0134    0.0796 C   0  0  0  0  0  0  0  0  0  0  0  0 
    4.6787    6.1979    0.0860 C   0  0  0  0  0  0  0  0  0  0  0  0 
    8.9592    3.5355    0.0785 C   0  0  0  0  0  0  0  0  0  0  0  0 
    7.3936   -1.4250    0.0757 C   0  0  0  0  0  0  0  0  0  0  0  0 
    3.0652   -1.2634    0.0773 C   0  0  0  0  0  0  0  0  0  0  0  0 
    4.4468   -1.2816    0.0764 C   0  0  0  0  0  0  0  0  0  0  0  0 
    6.7802    4.7722    0.0823 C   0  0  0  0  0  0  0  0  0  0  0  0 
    3.0964    1.1367    0.0790 C   0  0  0  0  0  0  0  0  0  0  0  0 
    4.6435    3.6767    0.0823 C   0  0  0  0  0  0  0  0  0  0  0  0 
    7.3349    1.0684    0.0769 C   0  0  0  0  0  0  0  0  0  0  0  0 
    2.3632   -0.0426    0.0789 C   0  0  0  0  0  0  0  0  0  0  0  0 
    5.3741    4.8550    0.0838 C   0  0  0  0  0  0  0  0  0  0  0  0 
    7.4476    3.5578    0.0796 C   0  0  0  0  0  0  0  0  0  0  0  0 
    6.6497   -0.1116    0.0765 C   0  0  0  0  0  0  0  0  0  0  0  0 
    5.2031   -0.0875    0.0772 C   0  0  0  0  0  0  0  0  0  0  0  0 
    6.6905    2.3504    0.0785 C   0  0  0  0  0  0  0  0  0  0  0  0 
    4.5085    1.1610    0.0786 C   0  0  0  0  0  0  0  0  0  0  0  0 
    5.2661    2.4100    0.0796 C   0  0  0  0  0  0  0  0  0  0  0  0 
    0.4333   -1.0250    0.0777 H   0  0  0  0  0  0  0  0  0  0  0  0 
    0.4589    0.5099   -0.8012 H   0  0  0  0  0  0  0  0  0  0  0  0 
    0.4596    0.5061    0.9631 H   0  0  0  0  0  0  0  0  0  0  0  0 
    5.4002    7.0211    0.0961 H   0  0  0  0  0  0  0  0  0  0  0  0 
    4.0307    6.3137    0.9638 H   0  0  0  0  0  0  0  0  0  0  0  0 
    4.0445    6.3237   -0.8005 H   0  0  0  0  0  0  0  0  0  0  0  0 
    9.3595    4.5537    0.0782 H   0  0  0  0  0  0  0  0  0  0  0  0 
    9.3610    3.0213   -0.8038 H   0  0  0  0  0  0  0  0  0  0  0  0 
    9.3624    3.0212    0.9601 H   0  0  0  0  0  0  0  0  0  0  0  0 
    8.4747   -1.2570    0.0760 H   0  0  0  0  0  0  0  0  0  0  0  0 
    7.1503   -2.0314   -0.8065 H   0  0  0  0  0  0  0  0  0  0  0  0 
    7.1500   -2.0326    0.9569 H   0  0  0  0  0  0  0  0  0  0  0  0 
    2.5121   -2.1998    0.0767 H   0  0  0  0  0  0  0  0  0  0  0  0 
    4.9621   -2.2365    0.0749 H   0  0  0  0  0  0  0  0  0  0  0  0 
    7.3606    5.6928    0.0832 H   0  0  0  0  0  0  0  0  0  0  0  0 
    2.5466    2.0726    0.0790 H   0  0  0  0  0  0  0  0  0  0  0  0 
    3.5605    3.7473    0.0829 H   0  0  0  0  0  0  0  0  0  0  0  0 
    8.4200    1.0371    0.0764 H   0  0  0  0  0  0  0  0  0  0  0  0 
  1 21  1  0  0  0  0 
  2 22  1  0  0  0  0 
  2 23  1  0  0  0  0 
  3 13  1  0  0  0  0 
  3 27  1  0  0  0  0 
  4 28  1  0  0  0  0 
  4 14  1  0  0  0  0 
  4 30  1  0  0  0  0 
  5 11  2  0  0  0  0 
  6 15  2  0  0  0  0 
  6  5  1  0  0  0  0 
  7 33  1  0  0  0  0 
  7 12  1  0  0  0  0 
  9 35  1  0  0  0  0 
  9 12  2  0  0  0  0 
 10 16  1  0  0  0  0 
 11  8  1  0  0  0  0 
 11  1  1  0  0  0  0 
 12  2  1  0  0  0  0 
 13  7  2  0  0  0  0 
 14 10  2  0  0  0  0 
 14 15  1  0  0  0  0 
 15 17  1  0  0  0  0 
 16 18  2  0  0  0  0 
 16 13  1  0  0  0  0 
 17  8  2  0  0  0  0 
 17 18  1  0  0  0  0 
 18  9  1  0  0  0  0 
 19  1  1  0  0  0  0 
 20  1  1  0  0  0  0 
 24  2  1  0  0  0  0 
 25  3  1  0  0  0  0 
 26  3  1  0  0  0  0 
 29  4  1  0  0  0  0 
 31  5  1  0  0  0  0 
 32  6  1  0  0  0  0 
 34  8  1  0  0  0  0 
 36 10  1  0  0  0  0 
M  END 
>  <HBA> 
0 
 
>  <HBD> 
0 
 
>  <TPSA> 
0.0 
 
>  <cid> 
51365 
 
>  <dipole> 
0.16 
 
>  <excitation_energy_1> 
3.796 
 
>  <excitation_energy_2> 
3.991 
 
>  <excitation_energy_3> 
4.535 
 
>  <excitation_energy_4> 
4.725 
 
>  <homo_energy> 
-5.344 
 
>  <homo_lumo_gap> 
4.482 
 
>  <logP> 
5.227 
 
>  <lumo_energy> 
-0.863 
 
>  <melting_point> 
112.34 
 
>  <molecular_refractivity> 
81.32 
 
>  <oscillator_strength_1> 
0.0105 
 
>  <oscillator_strength_2> 
0.1571 
 
>  <oscillator_strength_3> 
0.1299 
 
>  <oscillator_strength_4> 
0.4375 
 
>  <open_babel_can_smiles> 
Cc1ccc2c(c1)c1cc(C)cc(c1cc2C)C 
 
>  <mulliken_charges> 
36 
1   -0.53302 
2   -0.534198 
3   -0.535852 
4   -0.540327 
5   -0.182181 
6   -0.215121 
7   -0.262146 
8   -0.257705 
9   -0.264004 
10   -0.301701 
11   0.184024 
12   0.196539 
13   0.126538 
14   0.162833 
15   0.08201 
16   0.097838 
17   0.067695 
18   0.072514 
19   0.154124 
20   0.162664 
21   0.162693 
22   0.153892 
23   0.161593 
24   0.161791 
25   0.154931 
26   0.16183 
27   0.161852 
28   0.155606 
29   0.160799 
30   0.160813 
31   0.119335 
32   0.126347 
33   0.111639 
34   0.125276 
35   0.122874 
36   0.118205 
 
>  <lowdin_charges> 
36 
1   -0.443758 
2   -0.443623 
3   -0.444365 
4   -0.441464 
5   -0.168128 
6   -0.162946 
7   -0.180536 
8   -0.168078 
9   -0.170854 
10   -0.176301 
11   0.000268 
12   -0.000887 
13   0.00017 
14   -0.002063 
15   -0.011818 
16   -0.014311 
17   0.001246 
18   -0.001432 
19   0.155494 
20   0.161386 
21   0.16138 
22   0.156275 
23   0.160515 
24   0.160557 
25   0.156429 
26   0.159709 
27   0.159727 
28   0.155723 
29   0.158933 
30   0.15895 
31   0.154184 
32   0.159261 
33   0.150873 
34   0.154408 
35   0.15108 
36   0.153995 
 
$$$$ 
 
