PCCDB-ID:  24803 
public computational chemistry database (PCCDB) project, http://pccdb.org 
 
 18 17  0  0  1  0  0  0  0  0999 V2000 
    1.1821    0.3750    1.5149 C   0  0  0  0  0  0  0  0  0  0  0  0 
    1.3941    2.4000   -0.7471 C   0  0  0  0  0  0  0  0  0  0  0  0 
    1.5299   -1.2761   -0.4070 C   0  0  0  0  0  0  0  0  0  0  0  0 
    1.7370    0.1564    0.1059 C   0  0  1  0  0  0  0  0  0  0  0  0 
    0.0750   -1.7568   -0.4670 C   0  0  0  0  0  0  0  0  0  0  0  0 
   -0.2612   -2.8719   -0.1488 O   0  0  0  0  0  0  0  0  0  0  0  0 
   -0.8198   -0.8620   -0.9407 O   0  0  0  0  0  0  0  0  0  0  0  0 
    1.1179    1.0136   -0.8714 O   0  0  0  0  0  0  0  0  0  0  0  0 
    1.6483   -0.3286    2.2128 H   0  0  0  0  0  0  0  0  0  0  0  0 
    0.0992    0.2129    1.5354 H   0  0  0  0  0  0  0  0  0  0  0  0 
    1.3875    1.3864    1.8793 H   0  0  0  0  0  0  0  0  0  0  0  0 
    0.9668    2.8845   -1.6280 H   0  0  0  0  0  0  0  0  0  0  0  0 
    2.4786    2.5800   -0.7287 H   0  0  0  0  0  0  0  0  0  0  0  0 
    0.9443    2.8371    0.1535 H   0  0  0  0  0  0  0  0  0  0  0  0 
    2.0771   -1.9836    0.2203 H   0  0  0  0  0  0  0  0  0  0  0  0 
    1.9450   -1.3412   -1.4213 H   0  0  0  0  0  0  0  0  0  0  0  0 
    2.8176    0.3687    0.1034 H   0  0  0  0  0  0  0  0  0  0  0  0 
   -0.3599   -0.0108   -1.1146 H   0  0  0  0  0  0  0  0  0  0  0  0 
  1 10  1  0  0  0  0 
  1 11  1  0  0  0  0 
  1  9  1  0  0  0  0 
  2 13  1  0  0  0  0 
  2 14  1  0  0  0  0 
  3  4  1  0  0  0  0 
  3 15  1  0  0  0  0 
  4 17  1  1  0  0  0 
  4  1  1  0  0  0  0 
  5  3  1  0  0  0  0 
  5  6  2  0  0  0  0 
  7  5  1  0  0  0  0 
  8  2  1  0  0  0  0 
  8  4  1  0  0  0  0 
 12  2  1  0  0  0  0 
 16  3  1  0  0  0  0 
 18  7  1  0  0  0  0 
M  END 
>  <HBA> 
3 
 
>  <HBD> 
1 
 
>  <TPSA> 
46.53 
 
>  <cid> 
24803 
 
>  <dipole> 
5.96 
 
>  <excitation_energy_1> 
5.609 
 
>  <excitation_energy_2> 
6.552 
 
>  <excitation_energy_3> 
6.817 
 
>  <excitation_energy_4> 
7.064 
 
>  <homo_energy> 
-6.95 
 
>  <homo_lumo_gap> 
7.508 
 
>  <logP> 
0.496 
 
>  <lumo_energy> 
0.558 
 
>  <melting_point> 
42.31 
 
>  <molecular_refractivity> 
29.01 
 
>  <oscillator_strength_1> 
0.0014 
 
>  <oscillator_strength_2> 
0.006 
 
>  <oscillator_strength_3> 
0.0116 
 
>  <oscillator_strength_4> 
0.0046 
 
>  <open_babel_can_smiles> 
C[C@H](OC)CC(=O)O 
 
>  <mulliken_charges> 
18 
1   -0.46805 
2   -0.203161 
3   -0.383691 
4   0.1247 
5   0.583803 
6   -0.450519 
7   -0.587507 
8   -0.497381 
9   0.162705 
10   0.173563 
11   0.153423 
12   0.171583 
13   0.144742 
14   0.151314 
15   0.177841 
16   0.181889 
17   0.133314 
18   0.431434 
 
>  <lowdin_charges> 
18 
1   -0.462972 
2   -0.277932 
3   -0.324431 
4   0.005085 
5   0.185765 
6   -0.250731 
7   -0.369838 
8   -0.282862 
9   0.166584 
10   0.163448 
11   0.15544 
12   0.163935 
13   0.140233 
14   0.143622 
15   0.177572 
16   0.175084 
17   0.136098 
18   0.355902 
 
$$$$ 
 
