PCCDB-ID:  12716 
public computational chemistry database (PCCDB) project, http://pccdb.org 
 
 18 17  0  0  0  0  0  0  0  0999 V2000 
    1.8176   -0.1287    1.0813 C   0  0  0  0  0  0  0  0  0  0  0  0 
    5.2123    4.1103    0.8305 C   0  0  0  0  0  0  0  0  0  0  0  0 
    6.5892    2.7613   -0.8397 C   0  0  0  0  0  0  0  0  0  0  0  0 
    3.0824    0.2684    0.9273 C   0  0  0  0  0  0  0  0  0  0  0  0 
    5.2089    3.0478   -0.2647 C   0  0  0  0  0  0  0  0  0  0  0  0 
    3.3959    1.6004    0.3463 C   0  0  0  0  0  0  0  0  0  0  0  0 
    2.5737    2.4139   -0.0294 O   0  0  0  0  0  0  0  0  0  0  0  0 
    4.7350    1.7853    0.2879 O   0  0  0  0  0  0  0  0  0  0  0  0 
    1.5708   -1.0982    1.5034 H   0  0  0  0  0  0  0  0  0  0  0  0 
    0.9988    0.5194    0.7821 H   0  0  0  0  0  0  0  0  0  0  0  0 
    5.5901    5.0593    0.4333 H   0  0  0  0  0  0  0  0  0  0  0  0 
    5.8560    3.8038    1.6626 H   0  0  0  0  0  0  0  0  0  0  0  0 
    4.1995    4.2764    1.2074 H   0  0  0  0  0  0  0  0  0  0  0  0 
    7.0027    3.6685   -1.2934 H   0  0  0  0  0  0  0  0  0  0  0  0 
    6.5373    1.9835   -1.6081 H   0  0  0  0  0  0  0  0  0  0  0  0 
    7.2755    2.4252   -0.0545 H   0  0  0  0  0  0  0  0  0  0  0  0 
    3.9260   -0.3520    1.2152 H   0  0  0  0  0  0  0  0  0  0  0  0 
    4.5117    3.3386   -1.0557 H   0  0  0  0  0  0  0  0  0  0  0  0 
  1  9  1  0  0  0  0 
  2 13  1  0  0  0  0 
  2 12  1  0  0  0  0 
  3  5  1  0  0  0  0 
  3 16  1  0  0  0  0 
  4  1  2  0  0  0  0 
  4 17  1  0  0  0  0 
  5  8  1  0  0  0  0 
  5  2  1  0  0  0  0 
  6  4  1  0  0  0  0 
  7  6  2  0  0  0  0 
  8  6  1  0  0  0  0 
 10  1  1  0  0  0  0 
 11  2  1  0  0  0  0 
 14  3  1  0  0  0  0 
 15  3  1  0  0  0  0 
 18  5  1  0  0  0  0 
M  END 
>  <HBA> 
2 
 
>  <HBD> 
0 
 
>  <TPSA> 
26.3 
 
>  <cid> 
12716 
 
>  <dipole> 
1.58 
 
>  <excitation_energy_1> 
4.724 
 
>  <excitation_energy_2> 
6.133 
 
>  <excitation_energy_3> 
6.258 
 
>  <excitation_energy_4> 
6.8 
 
>  <homo_energy> 
-7.317 
 
>  <homo_lumo_gap> 
6.18 
 
>  <logP> 
1.124 
 
>  <lumo_energy> 
-1.137 
 
>  <melting_point> 
-34.72 
 
>  <molecular_refractivity> 
31.77 
 
>  <oscillator_strength_1> 
0.0003 
 
>  <oscillator_strength_2> 
0.02 
 
>  <oscillator_strength_3> 
0.4528 
 
>  <oscillator_strength_4> 
0.0033 
 
>  <open_babel_can_smiles> 
C=CC(=O)OC(C)C 
 
>  <mulliken_charges> 
18 
1   -0.303187 
2   -0.458363 
3   -0.451402 
4   -0.134626 
5   0.1294 
6   0.612425 
7   -0.495454 
8   -0.483256 
9   0.156131 
10   0.179931 
11   0.147383 
12   0.150463 
13   0.174464 
14   0.149091 
15   0.15767 
16   0.1547 
17   0.151914 
18   0.162715 
 
>  <lowdin_charges> 
18 
1   -0.267935 
2   -0.454207 
3   -0.449364 
4   -0.187544 
5   0.010695 
6   0.198315 
7   -0.278293 
8   -0.196207 
9   0.167913 
10   0.180165 
11   0.156789 
12   0.154292 
13   0.165936 
14   0.157328 
15   0.15924 
16   0.156725 
17   0.170134 
18   0.156019 
 
$$$$ 
 
