PCCDB-ID:  8652 
public computational chemistry database (PCCDB) project, http://pccdb.org 
 
 27 28  0  0  0  0  0  0  0  0999 V2000 
    0.6134   -0.0678    0.0108 C   0  0  0  0  0  0  0  0  0  0  0  0 
    8.9678    3.3688    0.5329 C   0  0  0  0  0  0  0  0  0  0  0  0 
    7.7598    3.2076    1.2129 C   0  0  0  0  0  0  0  0  0  0  0  0 
    9.3327    2.4603   -0.4655 C   0  0  0  0  0  0  0  0  0  0  0  0 
    6.9073    2.1524    0.8851 C   0  0  0  0  0  0  0  0  0  0  0  0 
    8.4921    1.3969   -0.7802 C   0  0  0  0  0  0  0  0  0  0  0  0 
    2.8877   -1.1931   -0.0203 C   0  0  0  0  0  0  0  0  0  0  0  0 
    2.7845    1.1902   -0.3259 C   0  0  0  0  0  0  0  0  0  0  0  0 
    4.2736   -1.1499   -0.1275 C   0  0  0  0  0  0  0  0  0  0  0  0 
    4.1734    1.2433   -0.4153 C   0  0  0  0  0  0  0  0  0  0  0  0 
    2.1175   -0.0249   -0.1155 C   0  0  0  0  0  0  0  0  0  0  0  0 
    7.2623    1.2405   -0.1208 C   0  0  0  0  0  0  0  0  0  0  0  0 
    4.9396    0.0715   -0.3091 C   0  0  0  0  0  0  0  0  0  0  0  0 
    6.4290    0.0413   -0.4713 C   0  0  0  0  0  0  0  0  0  0  0  0 
    6.9760   -0.9725   -0.8938 O   0  0  0  0  0  0  0  0  0  0  0  0 
    0.2365   -1.0941   -0.0375 H   0  0  0  0  0  0  0  0  0  0  0  0 
    0.1286    0.5087   -0.7856 H   0  0  0  0  0  0  0  0  0  0  0  0 
    0.2830    0.3620    0.9655 H   0  0  0  0  0  0  0  0  0  0  0  0 
    9.6271    4.1955    0.7838 H   0  0  0  0  0  0  0  0  0  0  0  0 
    7.4818    3.9003    2.0026 H   0  0  0  0  0  0  0  0  0  0  0  0 
   10.2754    2.5802   -0.9925 H   0  0  0  0  0  0  0  0  0  0  0  0 
    5.9774    2.0238    1.4297 H   0  0  0  0  0  0  0  0  0  0  0  0 
    8.7690    0.6684   -1.5354 H   0  0  0  0  0  0  0  0  0  0  0  0 
    2.3907   -2.1481    0.1336 H   0  0  0  0  0  0  0  0  0  0  0  0 
    2.2074    2.1068   -0.4269 H   0  0  0  0  0  0  0  0  0  0  0  0 
    4.8646   -2.0588   -0.0770 H   0  0  0  0  0  0  0  0  0  0  0  0 
    4.6609    2.1959   -0.5967 H   0  0  0  0  0  0  0  0  0  0  0  0 
  1 18  1  0  0  0  0 
  2 19  1  0  0  0  0 
  2  3  2  0  0  0  0 
  3 20  1  0  0  0  0 
  4  2  1  0  0  0  0 
  5  3  1  0  0  0  0 
  5 22  1  0  0  0  0 
  6  4  2  0  0  0  0 
  6 12  1  0  0  0  0 
  7 24  1  0  0  0  0 
  8 11  1  0  0  0  0 
  9 26  1  0  0  0  0 
  9  7  1  0  0  0  0 
 10  8  2  0  0  0  0 
 10 13  1  0  0  0  0 
 11  7  2  0  0  0  0 
 11  1  1  0  0  0  0 
 12  5  2  0  0  0  0 
 13  9  2  0  0  0  0 
 14 13  1  0  0  0  0 
 14 12  1  0  0  0  0 
 15 14  2  0  0  0  0 
 16  1  1  0  0  0  0 
 17  1  1  0  0  0  0 
 21  4  1  0  0  0  0 
 23  6  1  0  0  0  0 
 25  8  1  0  0  0  0 
 27 10  1  0  0  0  0 
M  END 
>  <HBA> 
1 
 
>  <HBD> 
0 
 
>  <TPSA> 
17.07 
 
>  <cid> 
8652 
 
>  <dipole> 
3.26 
 
>  <excitation_energy_1> 
3.575 
 
>  <excitation_energy_2> 
4.489 
 
>  <excitation_energy_3> 
4.514 
 
>  <excitation_energy_4> 
4.587 
 
>  <homo_energy> 
-6.501 
 
>  <homo_lumo_gap> 
4.874 
 
>  <logP> 
3.226 
 
>  <lumo_energy> 
-1.627 
 
>  <melting_point> 
68.59 
 
>  <molecular_refractivity> 
61.28 
 
>  <oscillator_strength_1> 
0.0015 
 
>  <oscillator_strength_2> 
0.1464 
 
>  <oscillator_strength_3> 
0.1863 
 
>  <oscillator_strength_4> 
0.0105 
 
>  <open_babel_can_smiles> 
Cc1ccc(cc1)C(=O)c1ccccc1 
 
>  <mulliken_charges> 
27 
1   -0.532123 
2   -0.119643 
3   -0.136915 
4   -0.135234 
5   -0.176766 
6   -0.15081 
7   -0.187103 
8   -0.185571 
9   -0.149586 
10   -0.176732 
11   0.185472 
12   0.072463 
13   0.070005 
14   0.318665 
15   -0.467605 
16   0.159986 
17   0.164834 
18   0.168761 
19   0.135939 
20   0.135034 
21   0.137106 
22   0.148142 
23   0.158857 
24   0.129558 
25   0.127291 
26   0.158379 
27   0.147596 
 
>  <lowdin_charges> 
27 
1   -0.44314 
2   -0.143451 
3   -0.159332 
4   -0.155092 
5   -0.151899 
6   -0.130722 
7   -0.167481 
8   -0.169648 
9   -0.128243 
10   -0.150102 
11   0.016683 
12   -0.042941 
13   -0.049275 
14   0.15622 
15   -0.249769 
16   0.158677 
17   0.163818 
18   0.164608 
19   0.16133 
20   0.160861 
21   0.161019 
22   0.166344 
23   0.175089 
24   0.157941 
25   0.157363 
26   0.174813 
27   0.16633 
 
$$$$ 
 
