PCCDB-ID:  15901 
public computational chemistry database (PCCDB) project, http://pccdb.org 
 
 25 24  0  0  0  0  0  0  0  0999 V2000 
    2.5832   -1.5121    0.5588 C   0  0  0  0  0  0  0  0  0  0  0  0 
    0.7606    0.1353   -0.0541 C   0  0  0  0  0  0  0  0  0  0  0  0 
    6.1128    1.0657    1.8247 C   0  0  0  0  0  0  0  0  0  0  0  0 
    6.7216    2.2097   -0.3625 C   0  0  0  0  0  0  0  0  0  0  0  0 
    3.1335    0.9467    0.2496 C   0  0  0  0  0  0  0  0  0  0  0  0 
    2.2460   -0.2222   -0.2037 C   0  0  0  0  0  0  0  0  0  0  0  0 
    5.5789    1.7832    0.5654 C   0  0  0  0  0  0  0  0  0  0  0  0 
    4.6022    0.8403   -0.1482 C   0  0  0  0  0  0  0  0  0  0  0  0 
    4.9893    0.0479   -0.9887 O   0  0  0  0  0  0  0  0  0  0  0  0 
    1.9552   -2.3428    0.2164 H   0  0  0  0  0  0  0  0  0  0  0  0 
    2.4093   -1.3887    1.6365 H   0  0  0  0  0  0  0  0  0  0  0  0 
    3.6283   -1.7987    0.4084 H   0  0  0  0  0  0  0  0  0  0  0  0 
    0.1228   -0.6822   -0.4101 H   0  0  0  0  0  0  0  0  0  0  0  0 
    0.5022    1.0349   -0.6263 H   0  0  0  0  0  0  0  0  0  0  0  0 
    0.5012    0.3231    0.9963 H   0  0  0  0  0  0  0  0  0  0  0  0 
    6.7836    1.7278    2.3833 H   0  0  0  0  0  0  0  0  0  0  0  0 
    6.6748    0.1687    1.5419 H   0  0  0  0  0  0  0  0  0  0  0  0 
    5.3039    0.7611    2.4988 H   0  0  0  0  0  0  0  0  0  0  0  0 
    7.4283    2.8566    0.1693 H   0  0  0  0  0  0  0  0  0  0  0  0 
    6.3451    2.7598   -1.2320 H   0  0  0  0  0  0  0  0  0  0  0  0 
    7.2590    1.3319   -0.7327 H   0  0  0  0  0  0  0  0  0  0  0  0 
    3.0635    1.0957    1.3377 H   0  0  0  0  0  0  0  0  0  0  0  0 
    2.7716    1.8915   -0.1891 H   0  0  0  0  0  0  0  0  0  0  0  0 
    2.4597   -0.3958   -1.2660 H   0  0  0  0  0  0  0  0  0  0  0  0 
    5.0186    2.6699    0.8940 H   0  0  0  0  0  0  0  0  0  0  0  0 
  1 11  1  0  0  0  0 
  2 15  1  0  0  0  0 
  3 16  1  0  0  0  0 
  3 18  1  0  0  0  0 
  4 19  1  0  0  0  0 
  4  7  1  0  0  0  0 
  5 22  1  0  0  0  0 
  6  2  1  0  0  0  0 
  6  5  1  0  0  0  0 
  6  1  1  0  0  0  0 
  7 25  1  0  0  0  0 
  7  3  1  0  0  0  0 
  8  5  1  0  0  0  0 
  8  7  1  0  0  0  0 
  9  8  2  0  0  0  0 
 10  1  1  0  0  0  0 
 12  1  1  0  0  0  0 
 13  2  1  0  0  0  0 
 14  2  1  0  0  0  0 
 17  3  1  0  0  0  0 
 20  4  1  0  0  0  0 
 21  4  1  0  0  0  0 
 23  5  1  0  0  0  0 
 24  6  1  0  0  0  0 
M  END 
>  <HBA> 
1 
 
>  <HBD> 
0 
 
>  <TPSA> 
17.07 
 
>  <cid> 
15901 
 
>  <dipole> 
2.38 
 
>  <excitation_energy_1> 
4.341 
 
>  <excitation_energy_2> 
5.94 
 
>  <excitation_energy_3> 
6.566 
 
>  <excitation_energy_4> 
6.636 
 
>  <homo_energy> 
-6.49 
 
>  <homo_lumo_gap> 
6.215 
 
>  <logP> 
2.258 
 
>  <lumo_energy> 
-0.275 
 
>  <melting_point> 
-6.5 
 
>  <molecular_refractivity> 
40.77 
 
>  <oscillator_strength_1> 
0.0005 
 
>  <oscillator_strength_2> 
0.0051 
 
>  <oscillator_strength_3> 
0.0284 
 
>  <oscillator_strength_4> 
0.001 
 
>  <open_babel_can_smiles> 
CC(CC(=O)C(C)C)C 
 
>  <mulliken_charges> 
25 
1   -0.451169 
2   -0.446409 
3   -0.45326 
4   -0.439425 
5   -0.35921 
6   -0.057695 
7   -0.153904 
8   0.4632 
9   -0.460981 
10   0.141829 
11   0.129698 
12   0.162965 
13   0.144296 
14   0.138027 
15   0.136421 
16   0.153781 
17   0.164149 
18   0.147248 
19   0.138537 
20   0.14615 
21   0.168958 
22   0.148272 
23   0.159636 
24   0.148669 
25   0.130218 
 
>  <lowdin_charges> 
25 
1   -0.445283 
2   -0.444565 
3   -0.441178 
4   -0.442838 
5   -0.309007 
6   -0.116238 
7   -0.152841 
8   0.165064 
9   -0.24186 
10   0.150461 
11   0.138544 
12   0.157244 
13   0.151158 
14   0.146459 
15   0.142711 
16   0.156686 
17   0.158485 
18   0.150925 
19   0.150119 
20   0.152832 
21   0.163038 
22   0.152157 
23   0.164544 
24   0.149132 
25   0.14425 
 
$$$$ 
 
