PCCDB-ID:  29818 
public computational chemistry database (PCCDB) project, http://pccdb.org 
 
 34 35  0  0  0  0  0  0  0  0999 V2000 
    0.7155    0.5774   -0.3103 C   0  0  0  0  0  0  0  0  0  0  0  0 
    4.8870    4.1171    0.3069 C   0  0  0  0  0  0  0  0  0  0  0  0 
   -0.9021    1.5428    5.9742 C   0  0  0  0  0  0  0  0  0  0  0  0 
    2.2374    0.6070   -0.1400 C   0  0  0  0  0  0  0  0  0  0  0  0 
    2.3742   -0.4784    4.2231 C   0  0  0  0  0  0  0  0  0  0  0  0 
    2.8494   -0.0360    2.9936 C   0  0  0  0  0  0  0  0  0  0  0  0 
    1.2937    0.1511    4.8501 C   0  0  0  0  0  0  0  0  0  0  0  0 
    1.1709    1.6905    2.9785 C   0  0  0  0  0  0  0  0  0  0  0  0 
    2.6497    3.0315    0.6445 C   0  0  0  0  0  0  0  0  0  0  0  0 
    4.2929    1.7465    0.8746 C   0  0  0  0  0  0  0  0  0  0  0  0 
    2.2489    1.0639    2.3546 C   0  0  0  0  0  0  0  0  0  0  0  0 
    0.6903    1.2427    4.2185 C   0  0  0  0  0  0  0  0  0  0  0  0 
    2.7540    1.5164    1.0003 C   0  0  0  0  0  0  0  0  0  0  0  0 
    4.0219    2.9747    0.1050 N   0  0  0  0  0  0  0  0  0  0  0  0 
   -0.3696    1.9436    4.7229 O   0  0  0  0  0  0  0  0  0  0  0  0 
    0.4373   -0.0612   -1.1563 H   0  0  0  0  0  0  0  0  0  0  0  0 
    0.3119    1.5777   -0.5080 H   0  0  0  0  0  0  0  0  0  0  0  0 
    0.2171    0.1882    0.5835 H   0  0  0  0  0  0  0  0  0  0  0  0 
    4.5056    4.9742   -0.2604 H   0  0  0  0  0  0  0  0  0  0  0  0 
    5.8926    3.8893   -0.0656 H   0  0  0  0  0  0  0  0  0  0  0  0 
    4.9737    4.4188    1.3699 H   0  0  0  0  0  0  0  0  0  0  0  0 
   -1.7285    2.2254    6.1811 H   0  0  0  0  0  0  0  0  0  0  0  0 
   -0.1562    1.6236    6.7764 H   0  0  0  0  0  0  0  0  0  0  0  0 
   -1.2827    0.5131    5.9413 H   0  0  0  0  0  0  0  0  0  0  0  0 
    2.7081    0.9461   -1.0713 H   0  0  0  0  0  0  0  0  0  0  0  0 
    2.6012   -0.4135    0.0444 H   0  0  0  0  0  0  0  0  0  0  0  0 
    2.8479   -1.3257    4.7124 H   0  0  0  0  0  0  0  0  0  0  0  0 
    3.6921   -0.5395    2.5267 H   0  0  0  0  0  0  0  0  0  0  0  0 
    0.9435   -0.2095    5.8103 H   0  0  0  0  0  0  0  0  0  0  0  0 
    0.6755    2.5431    2.5237 H   0  0  0  0  0  0  0  0  0  0  0  0 
    2.5656    3.6601    1.5472 H   0  0  0  0  0  0  0  0  0  0  0  0 
    1.8856    3.3442   -0.0785 H   0  0  0  0  0  0  0  0  0  0  0  0 
    4.8829    0.9884    0.3419 H   0  0  0  0  0  0  0  0  0  0  0  0 
    4.7574    1.9404    1.8565 H   0  0  0  0  0  0  0  0  0  0  0  0 
  1  4  1  0  0  0  0 
  1 18  1  0  0  0  0 
  2 21  1  0  0  0  0 
  3 22  1  0  0  0  0 
  3 23  1  0  0  0  0 
  4 26  1  0  0  0  0 
  4 13  1  0  0  0  0 
  5 27  1  0  0  0  0 
  5  7  1  0  0  0  0 
  6  5  2  0  0  0  0 
  7 29  1  0  0  0  0 
  8 12  1  0  0  0  0 
  9 13  1  0  0  0  0 
  9 31  1  0  0  0  0 
 10 13  1  0  0  0  0 
 10 34  1  0  0  0  0 
 11  8  2  0  0  0  0 
 11  6  1  0  0  0  0 
 12 15  1  0  0  0  0 
 12  7  2  0  0  0  0 
 13 11  1  0  0  0  0 
 14  2  1  0  0  0  0 
 14  9  1  0  0  0  0 
 14 10  1  0  0  0  0 
 15  3  1  0  0  0  0 
 16  1  1  0  0  0  0 
 17  1  1  0  0  0  0 
 19  2  1  0  0  0  0 
 20  2  1  0  0  0  0 
 24  3  1  0  0  0  0 
 25  4  1  0  0  0  0 
 28  6  1  0  0  0  0 
 30  8  1  0  0  0  0 
 32  9  1  0  0  0  0 
 33 10  1  0  0  0  0 
M  END 
>  <HBA> 
2 
 
>  <HBD> 
0 
 
>  <TPSA> 
12.47 
 
>  <cid> 
29818 
 
>  <dipole> 
1.87 
 
>  <excitation_energy_1> 
4.921 
 
>  <excitation_energy_2> 
5.017 
 
>  <excitation_energy_3> 
5.242 
 
>  <excitation_energy_4> 
5.321 
 
>  <homo_energy> 
-5.625 
 
>  <homo_lumo_gap> 
5.731 
 
>  <logP> 
2.226 
 
>  <lumo_energy> 
0.106 
 
>  <melting_point> 
42.1 
 
>  <molecular_refractivity> 
66.52 
 
>  <oscillator_strength_1> 
0.0204 
 
>  <oscillator_strength_2> 
0.0077 
 
>  <oscillator_strength_3> 
0.0237 
 
>  <oscillator_strength_4> 
0.0103 
 
>  <open_babel_can_smiles> 
CCC1(CN(C1)C)c1cccc(c1)OC 
 
>  <mulliken_charges> 
34 
1   -0.453231 
2   -0.299142 
3   -0.213712 
4   -0.258117 
5   -0.138264 
6   -0.18152 
7   -0.199654 
8   -0.237698 
9   -0.13109 
10   -0.127189 
11   0.142075 
12   0.380045 
13   -0.02243 
14   -0.389394 
15   -0.508751 
16   0.142253 
17   0.141528 
18   0.156871 
19   0.149547 
20   0.149408 
21   0.116258 
22   0.168509 
23   0.150893 
24   0.15104 
25   0.150634 
26   0.132364 
27   0.127772 
28   0.12255 
29   0.128294 
30   0.13567 
31   0.121965 
32   0.137358 
33   0.132921 
34   0.122236 
 
>  <lowdin_charges> 
34 
1   -0.450322 
2   -0.359258 
3   -0.277561 
4   -0.26623 
5   -0.145449 
6   -0.190272 
7   -0.221268 
8   -0.196884 
9   -0.205962 
10   -0.202408 
11   0.006727 
12   0.103092 
13   0.004921 
14   -0.193202 
15   -0.200415 
16   0.15156 
17   0.145219 
18   0.15501 
19   0.151264 
20   0.1497 
21   0.11784 
22   0.162801 
23   0.145072 
24   0.143353 
25   0.152401 
26   0.141406 
27   0.157584 
28   0.15586 
29   0.160785 
30   0.165891 
31   0.130227 
32   0.140322 
33   0.13904 
34   0.129156 
 
$$$$ 
 
