PCCDB-ID:  11191 
public computational chemistry database (PCCDB) project, http://pccdb.org 
 
 16 15  0  0  0  0  0  0  0  0999 V2000 
    0.9538   -0.6450   -0.2183 C   0  0  0  0  0  0  0  0  0  0  0  0 
    6.6135    0.6041   -1.0203 C   0  0  0  0  0  0  0  0  0  0  0  0 
    2.0807   -0.0845    0.2181 C   0  0  0  0  0  0  0  0  0  0  0  0 
    5.2184    1.1800   -1.1993 C   0  0  0  0  0  0  0  0  0  0  0  0 
    2.9598    0.8072   -0.6082 C   0  0  0  0  0  0  0  0  0  0  0  0 
    4.2987    0.3492   -0.5115 O   0  0  0  0  0  0  0  0  0  0  0  0 
    0.3318   -1.2581    0.4281 H   0  0  0  0  0  0  0  0  0  0  0  0 
    0.6061   -0.5098   -1.2406 H   0  0  0  0  0  0  0  0  0  0  0  0 
    7.3527    1.2205   -1.5438 H   0  0  0  0  0  0  0  0  0  0  0  0 
    6.6620   -0.4134   -1.4213 H   0  0  0  0  0  0  0  0  0  0  0  0 
    6.8799    0.5671    0.0410 H   0  0  0  0  0  0  0  0  0  0  0  0 
    2.4148   -0.2431    1.2429 H   0  0  0  0  0  0  0  0  0  0  0  0 
    4.9561    1.2336   -2.2703 H   0  0  0  0  0  0  0  0  0  0  0  0 
    5.1691    2.2099   -0.8039 H   0  0  0  0  0  0  0  0  0  0  0  0 
    2.8968    1.8477   -0.2369 H   0  0  0  0  0  0  0  0  0  0  0  0 
    2.6217    0.8192   -1.6584 H   0  0  0  0  0  0  0  0  0  0  0  0 
  1  3  2  0  0  0  0 
  1  7  1  0  0  0  0 
  2 11  1  0  0  0  0 
  3 12  1  0  0  0  0 
  4  2  1  0  0  0  0 
  4 14  1  0  0  0  0 
  4  6  1  0  0  0  0 
  5  6  1  0  0  0  0 
  5 15  1  0  0  0  0 
  5  3  1  0  0  0  0 
  8  1  1  0  0  0  0 
  9  2  1  0  0  0  0 
 10  2  1  0  0  0  0 
 13  4  1  0  0  0  0 
 16  5  1  0  0  0  0 
M  END 
>  <HBA> 
1 
 
>  <HBD> 
0 
 
>  <TPSA> 
9.23 
 
>  <cid> 
11191 
 
>  <dipole> 
1.09 
 
>  <excitation_energy_1> 
6.1 
 
>  <excitation_energy_2> 
6.566 
 
>  <excitation_energy_3> 
6.845 
 
>  <excitation_energy_4> 
7.008 
 
>  <homo_energy> 
-6.77 
 
>  <homo_lumo_gap> 
7.203 
 
>  <logP> 
1.209 
 
>  <lumo_energy> 
0.433 
 
>  <melting_point> 
-55.45 
 
>  <molecular_refractivity> 
26.76 
 
>  <oscillator_strength_1> 
0.0188 
 
>  <oscillator_strength_2> 
0.01 
 
>  <oscillator_strength_3> 
0.0391 
 
>  <oscillator_strength_4> 
0.0147 
 
>  <open_babel_can_smiles> 
CCOCC=C 
 
>  <mulliken_charges> 
16 
1   -0.337036 
2   -0.452844 
3   -0.050456 
4   -0.001658 
5   -0.051682 
6   -0.47115 
7   0.143885 
8   0.138558 
9   0.141856 
10   0.159681 
11   0.157846 
12   0.139959 
13   0.117677 
14   0.116566 
15   0.125288 
16   0.123511 
 
>  <lowdin_charges> 
16 
1   -0.331231 
2   -0.447643 
3   -0.146215 
4   -0.122017 
5   -0.121635 
6   -0.275657 
7   0.162241 
8   0.154583 
9   0.154707 
10   0.156887 
11   0.155359 
12   0.157656 
13   0.12219 
14   0.122144 
15   0.129692 
16   0.128938 
 
$$$$ 
 
