PCCDB-ID:  51170 
public computational chemistry database (PCCDB) project, http://pccdb.org 
 
 26 27  0  0  0  0  0  0  0  0999 V2000 
    0.9796   -0.6474    0.6392 C   0  0  0  0  0  0  0  0  0  0  0  0 
    4.6583   -1.0563   -0.2673 C   0  0  0  0  0  0  0  0  0  0  0  0 
    5.0259    0.2324   -0.6522 C   0  0  0  0  0  0  0  0  0  0  0  0 
    3.3482   -1.3068    0.1369 C   0  0  0  0  0  0  0  0  0  0  0  0 
    4.0747    1.2486   -0.6315 C   0  0  0  0  0  0  0  0  0  0  0  0 
    2.1276    3.3532    0.3780 C   0  0  0  0  0  0  0  0  0  0  0  0 
    0.5596    2.0665   -0.9476 C   0  0  0  0  0  0  0  0  0  0  0  0 
    1.2627    4.4422    0.3401 C   0  0  0  0  0  0  0  0  0  0  0  0 
   -0.3063    3.1478   -0.9918 C   0  0  0  0  0  0  0  0  0  0  0  0 
    2.3724   -0.3013    0.1567 C   0  0  0  0  0  0  0  0  0  0  0  0 
    1.7910    2.1462   -0.2608 C   0  0  0  0  0  0  0  0  0  0  0  0 
    0.0463    4.3396   -0.3418 C   0  0  0  0  0  0  0  0  0  0  0  0 
    2.7459    1.0037   -0.2430 C   0  0  0  0  0  0  0  0  0  0  0  0 
   -0.7772    5.5170   -0.3237 N   0  0  0  0  0  0  0  0  0  0  0  0 
   -1.8405    5.4118   -0.9217 O   0  0  0  0  0  0  0  0  0  0  0  0 
    1.0115   -1.5203    1.2990 H   0  0  0  0  0  0  0  0  0  0  0  0 
    0.3067   -0.8977   -0.1909 H   0  0  0  0  0  0  0  0  0  0  0  0 
    0.5171    0.1768    1.1899 H   0  0  0  0  0  0  0  0  0  0  0  0 
    5.3875   -1.8619   -0.2734 H   0  0  0  0  0  0  0  0  0  0  0  0 
    6.0433    0.4464   -0.9677 H   0  0  0  0  0  0  0  0  0  0  0  0 
    3.0705   -2.3085    0.4570 H   0  0  0  0  0  0  0  0  0  0  0  0 
    4.3517    2.2519   -0.9437 H   0  0  0  0  0  0  0  0  0  0  0  0 
    3.0666    3.4228    0.9190 H   0  0  0  0  0  0  0  0  0  0  0  0 
    0.3020    1.1499   -1.4690 H   0  0  0  0  0  0  0  0  0  0  0  0 
    1.5033    5.3783    0.8357 H   0  0  0  0  0  0  0  0  0  0  0  0 
   -1.2509    3.1053   -1.5241 H   0  0  0  0  0  0  0  0  0  0  0  0 
  1 18  1  0  0  0  0 
  1 16  1  0  0  0  0 
  2  4  2  0  0  0  0 
  3  5  2  0  0  0  0 
  3  2  1  0  0  0  0 
  4 10  1  0  0  0  0 
  4 21  1  0  0  0  0 
  5 13  1  0  0  0  0 
  6 23  1  0  0  0  0 
  7 11  1  0  0  0  0 
  8  6  1  0  0  0  0 
  8 25  1  0  0  0  0 
  9  7  2  0  0  0  0 
  9 12  1  0  0  0  0 
 10  1  1  0  0  0  0 
 11 13  1  0  0  0  0 
 11  6  2  0  0  0  0 
 12 14  1  0  0  0  0 
 12  8  2  0  0  0  0 
 13 10  2  0  0  0  0 
 15 14  1  0  0  0  0 
 17  1  1  0  0  0  0 
 19  2  1  0  0  0  0 
 20  3  1  0  0  0  0 
 22  5  1  0  0  0  0 
 24  7  1  0  0  0  0 
 26  9  1  0  0  0  0 
M  RAD  2  14   2  15   2 
M  END 
>  <HBA> 
2 
 
>  <HBD> 
0 
 
>  <TPSA> 
29.43 
 
>  <cid> 
51170 
 
>  <dipole> 
4.44 
 
>  <excitation_energy_1> 
1.511 
 
>  <excitation_energy_2> 
3.446 
 
>  <excitation_energy_3> 
3.647 
 
>  <excitation_energy_4> 
3.921 
 
>  <homo_energy> 
-5.861 
 
>  <homo_lumo_gap> 
3.214 
 
>  <logP> 
4.06 
 
>  <lumo_energy> 
-2.648 
 
>  <melting_point> 
73.52 
 
>  <molecular_refractivity> 
62.3 
 
>  <oscillator_strength_1> 
0.0003 
 
>  <oscillator_strength_2> 
0.1927 
 
>  <oscillator_strength_3> 
0.0889 
 
>  <oscillator_strength_4> 
0.0169 
 
>  <open_babel_can_smiles> 
[O][N]c1ccc(cc1)c1ccccc1C 
 
>  <mulliken_charges> 
26 
1   -0.536519 
2   -0.117824 
3   -0.136396 
4   -0.189539 
5   -0.164753 
6   -0.179047 
7   -0.17458 
8   -0.129118 
9   -0.126849 
10   0.148029 
11   0.079579 
12   0.217253 
13   0.016139 
14   -0.060164 
15   -0.290241 
16   0.159826 
17   0.164932 
18   0.170544 
19   0.134002 
20   0.134477 
21   0.127923 
22   0.137659 
23   0.147786 
24   0.146724 
25   0.156466 
26   0.163692 
 
>  <lowdin_charges> 
26 
1   -0.447779 
2   -0.151178 
3   -0.157562 
4   -0.162573 
5   -0.15457 
6   -0.160788 
7   -0.152877 
8   -0.128844 
9   -0.132921 
10   0.002283 
11   0.024504 
12   -0.02538 
13   -0.020553 
14   0.041401 
15   -0.184034 
16   0.160498 
17   0.161238 
18   0.166539 
19   0.161154 
20   0.159572 
21   0.15633 
22   0.160817 
23   0.166891 
24   0.166244 
25   0.174423 
26   0.177166 
 
$$$$ 
 
