PCCDB-ID:  20508 
public computational chemistry database (PCCDB) project, http://pccdb.org 
 
 25 25  0  0  0  0  0  0  0  0999 V2000 
    0.4538    1.3881   -1.4459 C   0  0  0  0  0  0  0  0  0  0  0  0 
    1.4411    0.3658   -0.8620 C   0  0  0  0  0  0  0  0  0  0  0  0 
   -0.7827    1.5499   -0.5482 C   0  0  0  0  0  0  0  0  0  0  0  0 
    0.7576   -0.9829   -0.5792 C   0  0  0  0  0  0  0  0  0  0  0  0 
   -1.4555    0.1944   -0.2759 C   0  0  0  0  0  0  0  0  0  0  0  0 
   -0.1563   -0.5469    1.8048 C   0  0  0  0  0  0  0  0  0  0  0  0 
    0.4970   -1.7103    2.5567 C   0  0  0  0  0  0  0  0  0  0  0  0 
   -0.4904   -0.8516    0.3276 C   0  0  0  0  0  0  0  0  0  0  0  0 
    0.6807   -1.4322    3.9421 O   0  0  0  0  0  0  0  0  0  0  0  0 
    0.1324    1.0482   -2.4420 H   0  0  0  0  0  0  0  0  0  0  0  0 
    0.9499    2.3562   -1.5924 H   0  0  0  0  0  0  0  0  0  0  0  0 
    1.8743    0.7687    0.0646 H   0  0  0  0  0  0  0  0  0  0  0  0 
    2.2825    0.2154   -1.5506 H   0  0  0  0  0  0  0  0  0  0  0  0 
   -1.5033    2.2343   -1.0141 H   0  0  0  0  0  0  0  0  0  0  0  0 
   -0.4857    2.0172    0.4014 H   0  0  0  0  0  0  0  0  0  0  0  0 
    1.4790   -1.6872   -0.1467 H   0  0  0  0  0  0  0  0  0  0  0  0 
    0.4406   -1.4215   -1.5367 H   0  0  0  0  0  0  0  0  0  0  0  0 
   -1.8448   -0.1992   -1.2264 H   0  0  0  0  0  0  0  0  0  0  0  0 
   -2.3227    0.3260    0.3844 H   0  0  0  0  0  0  0  0  0  0  0  0 
    0.4976    0.3340    1.8814 H   0  0  0  0  0  0  0  0  0  0  0  0 
   -1.0800   -0.2887    2.3393 H   0  0  0  0  0  0  0  0  0  0  0  0 
    1.4514   -1.9969    2.0873 H   0  0  0  0  0  0  0  0  0  0  0  0 
   -0.1550   -2.5904    2.5229 H   0  0  0  0  0  0  0  0  0  0  0  0 
   -1.0117   -1.8210    0.3166 H   0  0  0  0  0  0  0  0  0  0  0  0 
    1.2850   -0.6764    4.0079 H   0  0  0  0  0  0  0  0  0  0  0  0 
  1  2  1  0  0  0  0 
  1  3  1  0  0  0  0 
  2  4  1  0  0  0  0 
  2 12  1  0  0  0  0 
  3  5  1  0  0  0  0 
  3 15  1  0  0  0  0 
  4 16  1  0  0  0  0 
  4  8  1  0  0  0  0 
  5  8  1  0  0  0  0 
  5 19  1  0  0  0  0 
  6 20  1  0  0  0  0 
  6 21  1  0  0  0  0 
  6  7  1  0  0  0  0 
  7  9  1  0  0  0  0 
  8  6  1  0  0  0  0 
  9 25  1  0  0  0  0 
 10  1  1  0  0  0  0 
 11  1  1  0  0  0  0 
 13  2  1  0  0  0  0 
 14  3  1  0  0  0  0 
 17  4  1  0  0  0  0 
 18  5  1  0  0  0  0 
 22  7  1  0  0  0  0 
 23  7  1  0  0  0  0 
 24  8  1  0  0  0  0 
M  END 
>  <HBA> 
1 
 
>  <HBD> 
1 
 
>  <TPSA> 
20.23 
 
>  <cid> 
20508 
 
>  <dipole> 
1.78 
 
>  <excitation_energy_1> 
6.299 
 
>  <excitation_energy_2> 
6.854 
 
>  <excitation_energy_3> 
7.118 
 
>  <excitation_energy_4> 
7.243 
 
>  <homo_energy> 
-6.999 
 
>  <homo_lumo_gap> 
8.966 
 
>  <logP> 
1.949 
 
>  <lumo_energy> 
1.967 
 
>  <melting_point> 
13.31 
 
>  <molecular_refractivity> 
39.62 
 
>  <oscillator_strength_1> 
0.008 
 
>  <oscillator_strength_2> 
0.0103 
 
>  <oscillator_strength_3> 
0.0068 
 
>  <oscillator_strength_4> 
0.0124 
 
>  <open_babel_can_smiles> 
OCCC1CCCCC1 
 
>  <mulliken_charges> 
25 
1   -0.254477 
2   -0.259042 
3   -0.260441 
4   -0.26958 
5   -0.263997 
6   -0.284421 
7   -0.032532 
8   -0.081052 
9   -0.617138 
10   0.127033 
11   0.129046 
12   0.126992 
13   0.131037 
14   0.130939 
15   0.131027 
16   0.131133 
17   0.128523 
18   0.126054 
19   0.128882 
20   0.121217 
21   0.14324 
22   0.121225 
23   0.14419 
24   0.11757 
25   0.384572 
 
>  <lowdin_charges> 
25 
1   -0.277103 
2   -0.280615 
3   -0.281524 
4   -0.283757 
5   -0.278563 
6   -0.29976 
7   -0.136673 
8   -0.129171 
9   -0.469734 
10   0.136427 
11   0.142385 
12   0.135973 
13   0.144572 
14   0.145275 
15   0.138026 
16   0.142359 
17   0.140447 
18   0.138811 
19   0.142467 
20   0.134047 
21   0.14906 
22   0.124969 
23   0.145162 
24   0.13757 
25   0.339348 
 
$$$$ 
 
