PCCDB-ID:  31493 
public computational chemistry database (PCCDB) project, http://pccdb.org 
 
 23 23  0  0  0  0  0  0  0  0999 V2000 
    3.6909   -0.4393    0.7776 C   0  0  0  0  0  0  0  0  0  0  0  0 
    3.5885   -0.8643   -5.1461 C   0  0  0  0  0  0  0  0  0  0  0  0 
    2.4862    0.0717   -0.0333 C   0  0  0  0  0  0  0  0  0  0  0  0 
    3.4749    3.1320   -2.1071 C   0  0  0  0  0  0  0  0  0  0  0  0 
    3.0683    2.3277   -1.0394 C   0  0  0  0  0  0  0  0  0  0  0  0 
    3.7072    2.5680   -3.3568 C   0  0  0  0  0  0  0  0  0  0  0  0 
    3.1251    0.3950   -2.4659 C   0  0  0  0  0  0  0  0  0  0  0  0 
    3.7826    0.6264   -4.9153 C   0  0  0  0  0  0  0  0  0  0  0  0 
    2.8902    0.9475   -1.2013 C   0  0  0  0  0  0  0  0  0  0  0  0 
    3.5325    1.1888   -3.5476 C   0  0  0  0  0  0  0  0  0  0  0  0 
    4.1383    1.3518   -5.8321 O   0  0  0  0  0  0  0  0  0  0  0  0 
    3.3615   -1.0662    1.6140 H   0  0  0  0  0  0  0  0  0  0  0  0 
    4.2722    0.3951    1.1859 H   0  0  0  0  0  0  0  0  0  0  0  0 
    4.3633   -1.0348    0.1498 H   0  0  0  0  0  0  0  0  0  0  0  0 
    2.5578   -1.1671   -4.9261 H   0  0  0  0  0  0  0  0  0  0  0  0 
    4.2471   -1.4536   -4.4970 H   0  0  0  0  0  0  0  0  0  0  0  0 
    3.8155   -1.0878   -6.1898 H   0  0  0  0  0  0  0  0  0  0  0  0 
    1.8174    0.6333    0.6311 H   0  0  0  0  0  0  0  0  0  0  0  0 
    1.9091   -0.7860   -0.4013 H   0  0  0  0  0  0  0  0  0  0  0  0 
    3.6031    4.2011   -1.9601 H   0  0  0  0  0  0  0  0  0  0  0  0 
    2.8818    2.7780   -0.0665 H   0  0  0  0  0  0  0  0  0  0  0  0 
    4.0202    3.1704   -4.2030 H   0  0  0  0  0  0  0  0  0  0  0  0 
    2.9804   -0.6737   -2.6013 H   0  0  0  0  0  0  0  0  0  0  0  0 
  1 13  1  0  0  0  0 
  1 12  1  0  0  0  0 
  2 15  1  0  0  0  0 
  2  8  1  0  0  0  0 
  2 16  1  0  0  0  0 
  3 18  1  0  0  0  0 
  3  1  1  0  0  0  0 
  4 20  1  0  0  0  0 
  4  5  2  0  0  0  0 
  5 21  1  0  0  0  0 
  6  4  1  0  0  0  0 
  7  9  2  0  0  0  0 
  8 10  1  0  0  0  0 
  9  5  1  0  0  0  0 
  9  3  1  0  0  0  0 
 10  6  2  0  0  0  0 
 10  7  1  0  0  0  0 
 11  8  2  0  0  0  0 
 14  1  1  0  0  0  0 
 17  2  1  0  0  0  0 
 19  3  1  0  0  0  0 
 22  6  1  0  0  0  0 
 23  7  1  0  0  0  0 
M  END 
>  <HBA> 
1 
 
>  <HBD> 
0 
 
>  <TPSA> 
17.07 
 
>  <cid> 
31493 
 
>  <dipole> 
3.37 
 
>  <excitation_energy_1> 
3.743 
 
>  <excitation_energy_2> 
4.554 
 
>  <excitation_energy_3> 
5.099 
 
>  <excitation_energy_4> 
5.575 
 
>  <homo_energy> 
-6.664 
 
>  <homo_lumo_gap> 
5.252 
 
>  <logP> 
2.452 
 
>  <lumo_energy> 
-1.412 
 
>  <melting_point> 
42.39 
 
>  <molecular_refractivity> 
46.41 
 
>  <oscillator_strength_1> 
0.0001 
 
>  <oscillator_strength_2> 
0.0313 
 
>  <oscillator_strength_3> 
0.2074 
 
>  <oscillator_strength_4> 
0.0001 
 
>  <open_babel_can_smiles> 
CCc1cccc(c1)C(=O)C 
 
>  <mulliken_charges> 
23 
1   -0.434095 
2   -0.542099 
3   -0.340666 
4   -0.128573 
5   -0.174588 
6   -0.163195 
7   -0.244017 
8   0.408022 
9   0.177673 
10   0.082119 
11   -0.453834 
12   0.147032 
13   0.151115 
14   0.149583 
15   0.170126 
16   0.169689 
17   0.180819 
18   0.146221 
19   0.144215 
20   0.136234 
21   0.129211 
22   0.162438 
23   0.126568 
 
>  <lowdin_charges> 
23 
1   -0.443224 
2   -0.476481 
3   -0.273407 
4   -0.151651 
5   -0.150907 
6   -0.134084 
7   -0.159183 
8   0.164637 
9   -0.001206 
10   -0.05133 
11   -0.244237 
12   0.152012 
13   0.152494 
14   0.152205 
15   0.168476 
16   0.170444 
17   0.173597 
18   0.152102 
19   0.150234 
20   0.159072 
21   0.157188 
22   0.177236 
23   0.156012 
 
$$$$ 
 
