PCCDB-ID:  10405 
public computational chemistry database (PCCDB) project, http://pccdb.org 
 
 28 27  0  0  0  0  0  0  0  0999 V2000 
    5.4151   -0.9586    2.3150 C   0  0  0  0  0  0  0  0  0  0  0  0 
    2.0702   -3.3235   -5.0905 C   0  0  0  0  0  0  0  0  0  0  0  0 
    4.6315   -0.2708    1.1922 C   0  0  0  0  0  0  0  0  0  0  0  0 
    3.2108   -2.3463   -4.7887 C   0  0  0  0  0  0  0  0  0  0  0  0 
    5.0597   -0.7341   -0.2054 C   0  0  0  0  0  0  0  0  0  0  0  0 
    2.7094   -1.0128   -4.2185 C   0  0  0  0  0  0  0  0  0  0  0  0 
    4.2764   -0.0550   -1.3296 C   0  0  0  0  0  0  0  0  0  0  0  0 
    3.8331   -0.0005   -3.8881 C   0  0  0  0  0  0  0  0  0  0  0  0 
    4.7077   -0.4713   -2.7315 C   0  0  0  0  0  0  0  0  0  0  0  0 
    5.6918   -1.1643   -2.9222 O   0  0  0  0  0  0  0  0  0  0  0  0 
    5.0897   -0.6100    3.3017 H   0  0  0  0  0  0  0  0  0  0  0  0 
    6.4898   -0.7583    2.2271 H   0  0  0  0  0  0  0  0  0  0  0  0 
    5.2788   -2.0464    2.2830 H   0  0  0  0  0  0  0  0  0  0  0  0 
    2.4524   -4.2640   -5.5027 H   0  0  0  0  0  0  0  0  0  0  0  0 
    1.3652   -2.9028   -5.8186 H   0  0  0  0  0  0  0  0  0  0  0  0 
    1.5027   -3.5650   -4.1831 H   0  0  0  0  0  0  0  0  0  0  0  0 
    4.7592    0.8186    1.2710 H   0  0  0  0  0  0  0  0  0  0  0  0 
    3.5567   -0.4602    1.3276 H   0  0  0  0  0  0  0  0  0  0  0  0 
    3.7817   -2.1493   -5.7065 H   0  0  0  0  0  0  0  0  0  0  0  0 
    3.9190   -2.8055   -4.0889 H   0  0  0  0  0  0  0  0  0  0  0  0 
    4.9373   -1.8219   -0.2904 H   0  0  0  0  0  0  0  0  0  0  0  0 
    6.1301   -0.5456   -0.3529 H   0  0  0  0  0  0  0  0  0  0  0  0 
    2.1069   -1.2001   -3.3174 H   0  0  0  0  0  0  0  0  0  0  0  0 
    2.0298   -0.5424   -4.9420 H   0  0  0  0  0  0  0  0  0  0  0  0 
    4.3825    1.0404   -1.2700 H   0  0  0  0  0  0  0  0  0  0  0  0 
    3.1957   -0.2379   -1.2273 H   0  0  0  0  0  0  0  0  0  0  0  0 
    3.3818    0.9694   -3.6433 H   0  0  0  0  0  0  0  0  0  0  0  0 
    4.4767    0.1300   -4.7652 H   0  0  0  0  0  0  0  0  0  0  0  0 
  1 11  1  0  0  0  0 
  2  4  1  0  0  0  0 
  2 16  1  0  0  0  0 
  3 17  1  0  0  0  0 
  3 18  1  0  0  0  0 
  3  1  1  0  0  0  0 
  4  6  1  0  0  0  0 
  4 20  1  0  0  0  0 
  5  3  1  0  0  0  0 
  6  8  1  0  0  0  0 
  6 23  1  0  0  0  0 
  7 25  1  0  0  0  0 
  7 26  1  0  0  0  0 
  7  5  1  0  0  0  0 
  8 27  1  0  0  0  0 
  8  9  1  0  0  0  0 
  9  7  1  0  0  0  0 
 10  9  2  0  0  0  0 
 12  1  1  0  0  0  0 
 13  1  1  0  0  0  0 
 14  2  1  0  0  0  0 
 15  2  1  0  0  0  0 
 19  4  1  0  0  0  0 
 21  5  1  0  0  0  0 
 22  5  1  0  0  0  0 
 24  6  1  0  0  0  0 
 28  8  1  0  0  0  0 
M  END 
>  <HBA> 
1 
 
>  <HBD> 
0 
 
>  <TPSA> 
17.07 
 
>  <cid> 
10405 
 
>  <dipole> 
2.48 
 
>  <excitation_energy_1> 
4.294 
 
>  <excitation_energy_2> 
6.024 
 
>  <excitation_energy_3> 
6.581 
 
>  <excitation_energy_4> 
6.608 
 
>  <homo_energy> 
-6.46 
 
>  <homo_lumo_gap> 
6.174 
 
>  <logP> 
2.936 
 
>  <lumo_energy> 
-0.286 
 
>  <melting_point> 
-7.16 
 
>  <molecular_refractivity> 
45.58 
 
>  <oscillator_strength_1> 
0.0006 
 
>  <oscillator_strength_2> 
0.0105 
 
>  <oscillator_strength_3> 
0.0048 
 
>  <oscillator_strength_4> 
0.0036 
 
>  <open_babel_can_smiles> 
CCCCC(=O)CCCC 
 
>  <mulliken_charges> 
28 
1   -0.441421 
2   -0.443778 
3   -0.251003 
4   -0.248706 
5   -0.238584 
6   -0.265074 
7   -0.365711 
8   -0.336231 
9   0.455377 
10   -0.449753 
11   0.141508 
12   0.144765 
13   0.143675 
14   0.146644 
15   0.139956 
16   0.140285 
17   0.128662 
18   0.127763 
19   0.13625 
20   0.156901 
21   0.14171 
22   0.150909 
23   0.133166 
24   0.140816 
25   0.158683 
26   0.153935 
27   0.138118 
28   0.161137 
 
>  <lowdin_charges> 
28 
1   -0.439868 
2   -0.446076 
3   -0.268916 
4   -0.277943 
5   -0.268063 
6   -0.269936 
7   -0.306429 
8   -0.30614 
9   0.162049 
10   -0.241081 
11   0.148815 
12   0.146484 
13   0.145715 
14   0.152103 
15   0.146303 
16   0.146028 
17   0.135651 
18   0.135309 
19   0.143295 
20   0.153324 
21   0.145117 
22   0.150108 
23   0.138957 
24   0.14753 
25   0.159152 
26   0.154514 
27   0.15092 
28   0.163075 
 
$$$$ 
 
