PCCDB-ID:  21773 
public computational chemistry database (PCCDB) project, http://pccdb.org 
 
 36 36  0  0  1  0  0  0  0  0999 V2000 
    1.5296   -2.1826   -1.3585 C   0  0  0  0  0  0  0  0  0  0  0  0 
    2.8683    2.7930   -3.9802 C   0  0  0  0  0  0  0  0  0  0  0  0 
    3.0049   -1.8893   -1.6558 C   0  0  0  0  0  0  0  0  0  0  0  0 
    3.4729    1.8344   -2.9515 C   0  0  0  0  0  0  0  0  0  0  0  0 
    3.1960   -1.5927   -6.7203 C   0  0  0  0  0  0  0  0  0  0  0  0 
    4.3273   -1.2386   -5.9825 C   0  0  0  0  0  0  0  0  0  0  0  0 
    1.9306   -1.2865   -6.2206 C   0  0  0  0  0  0  0  0  0  0  0  0 
    4.1903   -0.5841   -4.7587 C   0  0  0  0  0  0  0  0  0  0  0  0 
    1.7930   -0.6357   -4.9924 C   0  0  0  0  0  0  0  0  0  0  0  0 
    2.9206   -0.2782   -4.2442 C   0  0  0  0  0  0  0  0  0  0  0  0 
    3.4095   -0.4128   -1.7627 C   0  0  1  0  0  0  0  0  0  0  0  0 
    3.8778    0.2889    0.4928 C   0  0  0  0  0  0  0  0  0  0  0  0 
    2.7799    0.4426   -2.9039 C   0  0  1  0  0  0  0  0  0  0  0  0 
    5.0209   -0.2697    0.4670 N   0  0  0  0  0  0  0  0  0  0  0  0 
    3.2767    0.9869    1.4944 O   0  0  0  0  0  0  0  0  0  0  0  0 
    1.3851    0.6246   -2.6477 O   0  0  0  0  0  0  0  0  0  0  0  0 
    3.0233    0.2820   -0.5369 O   0  0  0  0  0  0  0  0  0  0  0  0 
    1.3845   -3.2615   -1.2315 H   0  0  0  0  0  0  0  0  0  0  0  0 
    0.8752   -1.8388   -2.1625 H   0  0  0  0  0  0  0  0  0  0  0  0 
    1.2084   -1.6936   -0.4323 H   0  0  0  0  0  0  0  0  0  0  0  0 
    3.3521    3.7743   -3.9193 H   0  0  0  0  0  0  0  0  0  0  0  0 
    1.7974    2.9258   -3.8013 H   0  0  0  0  0  0  0  0  0  0  0  0 
    2.9943    2.4180   -5.0013 H   0  0  0  0  0  0  0  0  0  0  0  0 
    3.3040   -2.3804   -2.5886 H   0  0  0  0  0  0  0  0  0  0  0  0 
    3.6306   -2.3211   -0.8657 H   0  0  0  0  0  0  0  0  0  0  0  0 
    3.3993    2.2756   -1.9499 H   0  0  0  0  0  0  0  0  0  0  0  0 
    4.5433    1.6974   -3.1503 H   0  0  0  0  0  0  0  0  0  0  0  0 
    3.3017   -2.0997   -7.6758 H   0  0  0  0  0  0  0  0  0  0  0  0 
    5.3201   -1.4704   -6.3597 H   0  0  0  0  0  0  0  0  0  0  0  0 
    1.0422   -1.5518   -6.7882 H   0  0  0  0  0  0  0  0  0  0  0  0 
    5.0843   -0.3144   -4.2022 H   0  0  0  0  0  0  0  0  0  0  0  0 
    0.8095   -0.3956   -4.6067 H   0  0  0  0  0  0  0  0  0  0  0  0 
    4.4982   -0.3583   -1.8360 H   0  0  0  0  0  0  0  0  0  0  0  0 
    5.5352   -0.1507    1.3388 H   0  0  0  0  0  0  0  0  0  0  0  0 
    3.8754    1.0052    2.2568 H   0  0  0  0  0  0  0  0  0  0  0  0 
    1.3177    0.9103   -1.7213 H   0  0  0  0  0  0  0  0  0  0  0  0 
  1 18  1  0  0  0  0 
  1 20  1  0  0  0  0 
  2 21  1  0  0  0  0 
  2 22  1  0  0  0  0 
  2  4  1  0  0  0  0 
  3  1  1  0  0  0  0 
  3 25  1  0  0  0  0 
  4 13  1  0  0  0  0 
  4 26  1  0  0  0  0 
  5  7  2  0  0  0  0 
  5  6  1  0  0  0  0 
  6  8  2  0  0  0  0 
  7  9  1  0  0  0  0 
  8 10  1  0  0  0  0 
  8 31  1  0  0  0  0 
  9 32  1  0  0  0  0 
  9 10  2  0  0  0  0 
 10 13  1  0  0  0  0 
 11 33  1  6  0  0  0 
 11  3  1  0  0  0  0 
 11 17  1  0  0  0  0 
 12 15  1  0  0  0  0 
 13 16  1  1  0  0  0 
 13 11  1  0  0  0  0 
 14 12  2  0  0  0  0 
 14 34  1  0  0  0  0 
 15 35  1  0  0  0  0 
 16 36  1  0  0  0  0 
 17 12  1  0  0  0  0 
 19  1  1  0  0  0  0 
 23  2  1  0  0  0  0 
 24  3  1  0  0  0  0 
 27  4  1  0  0  0  0 
 28  5  1  0  0  0  0 
 29  6  1  0  0  0  0 
 30  7  1  0  0  0  0 
M  END 
>  <HBA> 
4 
 
>  <HBD> 
2 
 
>  <TPSA> 
72.55 
 
>  <cid> 
21773 
 
>  <dipole> 
2.8 
 
>  <excitation_energy_1> 
5.294 
 
>  <excitation_energy_2> 
5.529 
 
>  <excitation_energy_3> 
5.815 
 
>  <excitation_energy_4> 
5.841 
 
>  <homo_energy> 
-6.414 
 
>  <homo_lumo_gap> 
6.452 
 
>  <logP> 
2.858 
 
>  <lumo_energy> 
0.038 
 
>  <melting_point> 
105.75 
 
>  <molecular_refractivity> 
65.68 
 
>  <oscillator_strength_1> 
0.0001 
 
>  <oscillator_strength_2> 
0.0134 
 
>  <oscillator_strength_3> 
0.0142 
 
>  <oscillator_strength_4> 
0.0295 
 
>  <open_babel_can_smiles> 
CC[C@@](c1ccccc1)([C@@H](OC(=N)O)CC)O 
 
>  <mulliken_charges> 
36 
1   -0.452699 
2   -0.447641 
3   -0.280074 
4   -0.270176 
5   -0.126407 
6   -0.136665 
7   -0.132238 
8   -0.185611 
9   -0.169131 
10   0.108043 
11   0.115967 
12   0.655733 
13   0.248136 
14   -0.622546 
15   -0.572516 
16   -0.667969 
17   -0.489515 
18   0.136378 
19   0.168457 
20   0.143974 
21   0.136977 
22   0.157685 
23   0.154388 
24   0.154568 
25   0.156524 
26   0.139896 
27   0.130614 
28   0.127299 
29   0.128442 
30   0.128782 
31   0.129742 
32   0.159711 
33   0.169869 
34   0.279471 
35   0.409965 
36   0.412567 
 
>  <lowdin_charges> 
36 
1   -0.452056 
2   -0.445292 
3   -0.287091 
4   -0.284177 
5   -0.158628 
6   -0.156299 
7   -0.155967 
8   -0.172267 
9   -0.160381 
10   -0.006438 
11   -0.001077 
12   0.190043 
13   0.111656 
14   -0.467467 
15   -0.365091 
16   -0.447786 
17   -0.188262 
18   0.145872 
19   0.159805 
20   0.147705 
21   0.147942 
22   0.153915 
23   0.15284 
24   0.159252 
25   0.157943 
26   0.145476 
27   0.141919 
28   0.156224 
29   0.156559 
30   0.157755 
31   0.156179 
32   0.173131 
33   0.162931 
34   0.258858 
35   0.36308 
36   0.34919 
 
$$$$ 
 
