PCCDB-ID:  57473 
public computational chemistry database (PCCDB) project, http://pccdb.org 
 
 22 22  0  0  1  0  0  0  0  0999 V2000 
   -1.5051   -0.4353    0.2363 C   0  0  0  0  0  0  0  0  0  0  0  0 
   -0.7508   -1.5042   -0.0410 C   0  0  0  0  0  0  0  0  0  0  0  0 
   -1.0245    0.9863    0.0868 C   0  0  0  0  0  0  0  0  0  0  0  0 
    0.6791   -1.4212   -0.5179 C   0  0  0  0  0  0  0  0  0  0  0  0 
    0.3042    1.0762   -0.6801 C   0  0  0  0  0  0  0  0  0  0  0  0 
    1.6955    0.1082    1.1785 C   0  0  0  0  0  0  0  0  0  0  0  0 
    3.9662    0.9212    0.7669 C   0  0  0  0  0  0  0  0  0  0  0  0 
    3.1492    0.6312    3.0552 C   0  0  0  0  0  0  0  0  0  0  0  0 
    1.3125   -0.0296   -0.2625 C   0  0  1  0  0  0  0  0  0  0  0  0 
    2.8940    0.5367    1.6442 C   0  0  0  0  0  0  0  0  0  0  0  0 
    4.8298    1.2313    0.0526 N   0  0  0  0  0  0  0  0  0  0  0  0 
    3.3469    0.7055    4.1985 N   0  0  0  0  0  0  0  0  0  0  0  0 
   -2.5242   -0.5765    0.5930 H   0  0  0  0  0  0  0  0  0  0  0  0 
   -1.1683   -2.5025    0.0782 H   0  0  0  0  0  0  0  0  0  0  0  0 
   -0.9318    1.4511    1.0808 H   0  0  0  0  0  0  0  0  0  0  0  0 
   -1.7856    1.5812   -0.4358 H   0  0  0  0  0  0  0  0  0  0  0  0 
    0.7288   -1.6320   -1.5966 H   0  0  0  0  0  0  0  0  0  0  0  0 
    1.2818   -2.2044   -0.0392 H   0  0  0  0  0  0  0  0  0  0  0  0 
    0.7572    2.0655   -0.5532 H   0  0  0  0  0  0  0  0  0  0  0  0 
    0.1145    0.9462   -1.7530 H   0  0  0  0  0  0  0  0  0  0  0  0 
    0.9456   -0.1630    1.9186 H   0  0  0  0  0  0  0  0  0  0  0  0 
    2.2124    0.0765   -0.8779 H   0  0  0  0  0  0  0  0  0  0  0  0 
  1 13  1  0  0  0  0 
  2 14  1  0  0  0  0 
  2  1  2  0  0  0  0 
  3  1  1  0  0  0  0 
  3 15  1  0  0  0  0 
  4  9  1  0  0  0  0 
  4  2  1  0  0  0  0 
  4 18  1  0  0  0  0 
  5 19  1  0  0  0  0 
  5  9  1  0  0  0  0 
  5  3  1  0  0  0  0 
  6 10  2  0  0  0  0 
  6 21  1  0  0  0  0 
  7 10  1  0  0  0  0 
  8 12  3  0  0  0  0 
  9 22  1  6  0  0  0 
  9  6  1  0  0  0  0 
 10  8  1  0  0  0  0 
 11  7  3  0  0  0  0 
 16  3  1  0  0  0  0 
 17  4  1  0  0  0  0 
 20  5  1  0  0  0  0 
M  END 
>  <HBA> 
2 
 
>  <HBD> 
0 
 
>  <TPSA> 
47.58 
 
>  <cid> 
57473 
 
>  <dipole> 
5.77 
 
>  <excitation_energy_1> 
4.001 
 
>  <excitation_energy_2> 
5.301 
 
>  <excitation_energy_3> 
5.664 
 
>  <excitation_energy_4> 
5.896 
 
>  <homo_energy> 
-7.132 
 
>  <homo_lumo_gap> 
4.808 
 
>  <logP> 
2.316 
 
>  <lumo_energy> 
-2.324 
 
>  <melting_point> 
84.16 
 
>  <molecular_refractivity> 
46.62 
 
>  <oscillator_strength_1> 
0.0113 
 
>  <oscillator_strength_2> 
0.4226 
 
>  <oscillator_strength_3> 
0.001 
 
>  <oscillator_strength_4> 
0.0006 
 
>  <open_babel_can_smiles> 
N#CC(=C[C@@H]1CCC=CC1)C#N 
 
>  <mulliken_charges> 
22 
1   -0.100794 
2   -0.118157 
3   -0.316491 
4   -0.307575 
5   -0.267483 
6   -0.057857 
7   0.302809 
8   0.295909 
9   -0.181024 
10   0.108533 
11   -0.470857 
12   -0.458429 
13   0.133455 
14   0.134543 
15   0.154062 
16   0.158483 
17   0.166036 
18   0.157657 
19   0.155395 
20   0.157013 
21   0.187925 
22   0.166845 
 
>  <lowdin_charges> 
22 
1   -0.171892 
2   -0.179444 
3   -0.281839 
4   -0.273094 
5   -0.266635 
6   -0.058962 
7   -0.005352 
8   -0.006866 
9   -0.131475 
10   -0.04692 
11   -0.093511 
12   -0.093559 
13   0.15669 
14   0.15797 
15   0.151489 
16   0.161551 
17   0.161159 
18   0.158451 
19   0.155013 
20   0.15399 
21   0.187375 
22   0.16586 
 
$$$$ 
 
