PCCDB-ID:  21469 
public computational chemistry database (PCCDB) project, http://pccdb.org 
 
 30 31  0  0  0  0  0  0  0  0999 V2000 
    0.9447   -0.4454    0.1322 C   0  0  0  0  0  0  0  0  0  0  0  0 
    7.7284   -3.5285    0.6567 C   0  0  0  0  0  0  0  0  0  0  0  0 
    6.5196   -3.7537    1.3191 C   0  0  0  0  0  0  0  0  0  0  0  0 
    7.8637   -2.4068   -0.1624 C   0  0  0  0  0  0  0  0  0  0  0  0 
    5.4589   -2.8613    1.1805 C   0  0  0  0  0  0  0  0  0  0  0  0 
    6.8051   -1.5129   -0.3214 C   0  0  0  0  0  0  0  0  0  0  0  0 
    6.9806    3.1601    0.0600 C   0  0  0  0  0  0  0  0  0  0  0  0 
    5.5690    2.6135   -0.0746 C   0  0  0  0  0  0  0  0  0  0  0  0 
    3.1797    0.9227    0.0141 C   0  0  0  0  0  0  0  0  0  0  0  0 
    2.4337   -0.2803    0.1403 C   0  0  0  0  0  0  0  0  0  0  0  0 
    5.6043   -1.7342    0.3634 C   0  0  0  0  0  0  0  0  0  0  0  0 
    4.4964    0.5143    0.0799 C   0  0  0  0  0  0  0  0  0  0  0  0 
    3.2220   -1.3393    0.2695 N   0  0  0  0  0  0  0  0  0  0  0  0 
    4.5053   -0.8479    0.2203 N   0  0  0  0  0  0  0  0  0  0  0  0 
    7.8472    2.6628   -0.9429 O   0  0  0  0  0  0  0  0  0  0  0  0 
    5.6649    1.1888    0.0724 O   0  0  0  0  0  0  0  0  0  0  0  0 
    0.4739    0.1269    0.9409 H   0  0  0  0  0  0  0  0  0  0  0  0 
    0.6889   -1.5005    0.2596 H   0  0  0  0  0  0  0  0  0  0  0  0 
    0.5084   -0.0954   -0.8113 H   0  0  0  0  0  0  0  0  0  0  0  0 
    8.5544   -4.2246    0.7714 H   0  0  0  0  0  0  0  0  0  0  0  0 
    6.3999   -4.6280    1.9531 H   0  0  0  0  0  0  0  0  0  0  0  0 
    8.7938   -2.2308   -0.6962 H   0  0  0  0  0  0  0  0  0  0  0  0 
    4.5143   -3.0240    1.6858 H   0  0  0  0  0  0  0  0  0  0  0  0 
    6.8989   -0.6613   -0.9846 H   0  0  0  0  0  0  0  0  0  0  0  0 
    7.3587    2.9397    1.0704 H   0  0  0  0  0  0  0  0  0  0  0  0 
    6.9523    4.2481   -0.0590 H   0  0  0  0  0  0  0  0  0  0  0  0 
    5.1510    2.8475   -1.0617 H   0  0  0  0  0  0  0  0  0  0  0  0 
    4.9120    3.0245    0.7036 H   0  0  0  0  0  0  0  0  0  0  0  0 
    2.8052    1.9283   -0.1027 H   0  0  0  0  0  0  0  0  0  0  0  0 
    7.8959    1.7022   -0.8155 H   0  0  0  0  0  0  0  0  0  0  0  0 
  1 10  1  0  0  0  0 
  1 18  1  0  0  0  0 
  1 17  1  0  0  0  0 
  2 20  1  0  0  0  0 
  2  3  2  0  0  0  0 
  3 21  1  0  0  0  0 
  4  2  1  0  0  0  0 
  5  3  1  0  0  0  0 
  5 23  1  0  0  0  0 
  6  4  2  0  0  0  0 
  6 11  1  0  0  0  0 
  7 25  1  0  0  0  0 
  8  7  1  0  0  0  0 
  8 16  1  0  0  0  0 
  8 28  1  0  0  0  0 
  9 12  2  0  0  0  0 
  9 10  1  0  0  0  0 
 10 13  2  0  0  0  0 
 11  5  2  0  0  0  0 
 12 14  1  0  0  0  0 
 14 13  1  0  0  0  0 
 14 11  1  0  0  0  0 
 15 30  1  0  0  0  0 
 15  7  1  0  0  0  0 
 16 12  1  0  0  0  0 
 19  1  1  0  0  0  0 
 22  4  1  0  0  0  0 
 24  6  1  0  0  0  0 
 26  7  1  0  0  0  0 
 27  8  1  0  0  0  0 
 29  9  1  0  0  0  0 
M  END 
>  <HBA> 
4 
 
>  <HBD> 
1 
 
>  <TPSA> 
47.28 
 
>  <cid> 
21469 
 
>  <dipole> 
1.83 
 
>  <excitation_energy_1> 
4.856 
 
>  <excitation_energy_2> 
4.878 
 
>  <excitation_energy_3> 
5.107 
 
>  <excitation_energy_4> 
5.208 
 
>  <homo_energy> 
-5.88 
 
>  <homo_lumo_gap> 
5.538 
 
>  <logP> 
1.552 
 
>  <lumo_energy> 
-0.343 
 
>  <melting_point> 
82.13 
 
>  <molecular_refractivity> 
60.99 
 
>  <oscillator_strength_1> 
0.1397 
 
>  <oscillator_strength_2> 
0.0508 
 
>  <oscillator_strength_3> 
0.2082 
 
>  <oscillator_strength_4> 
0.0169 
 
>  <open_babel_can_smiles> 
OCCOc1cc(nn1c1ccccc1)C 
 
>  <mulliken_charges> 
30 
1   -0.525106 
2   -0.122589 
3   -0.141755 
4   -0.145484 
5   -0.141922 
6   -0.153649 
7   -0.051591 
8   -0.049273 
9   -0.328982 
10   0.339994 
11   0.310698 
12   0.620216 
13   -0.35472 
14   -0.446731 
15   -0.613957 
16   -0.533327 
17   0.158475 
18   0.174432 
19   0.160527 
20   0.130782 
21   0.134815 
22   0.13168 
23   0.162415 
24   0.139781 
25   0.141788 
26   0.156176 
27   0.160943 
28   0.147075 
29   0.13241 
30   0.406879 
 
>  <lowdin_charges> 
30 
1   -0.442723 
2   -0.163056 
3   -0.149121 
4   -0.153024 
5   -0.158061 
6   -0.173948 
7   -0.136301 
8   -0.138393 
9   -0.295898 
10   0.022964 
11   0.051097 
12   0.115241 
13   -0.172123 
14   0.033505 
15   -0.457787 
16   -0.198314 
17   0.160949 
18   0.169275 
19   0.16108 
20   0.15976 
21   0.160744 
22   0.159094 
23   0.177352 
24   0.162525 
25   0.137863 
26   0.154658 
27   0.151336 
28   0.149811 
29   0.166659 
30   0.344834 
 
$$$$ 
 
