PCCDB-ID:  6632 
public computational chemistry database (PCCDB) project, http://pccdb.org 
 
 34 34  0  0  1  0  0  0  0  0999 V2000 
    0.8175    0.3562   -0.4034 C   0  0  0  0  0  0  0  0  0  0  0  0 
    2.2668    0.6260    1.6469 C   0  0  0  0  0  0  0  0  0  0  0  0 
    4.8217   -4.9053    1.2057 C   0  0  0  0  0  0  0  0  0  0  0  0 
    3.3382   -1.4565   -3.7802 C   0  0  0  0  0  0  0  0  0  0  0  0 
    4.7216   -2.3904    1.1252 C   0  0  0  0  0  0  0  0  0  0  0  0 
    2.6719   -3.7029    0.5540 C   0  0  0  0  0  0  0  0  0  0  0  0 
    4.2414   -1.3285    0.4693 C   0  0  0  0  0  0  0  0  0  0  0  0 
    1.9491   -2.3512    0.5551 C   0  0  0  0  0  0  0  0  0  0  0  0 
    2.2340    0.1938    0.1705 C   0  0  0  0  0  0  0  0  0  0  0  0 
    3.9478   -3.6567    1.4077 C   0  0  1  0  0  0  0  0  0  0  0  0 
    3.5656   -0.9026   -2.3880 C   0  0  0  0  0  0  0  0  0  0  0  0 
    2.8193   -1.2336   -0.0439 C   0  0  1  0  0  0  0  0  0  0  0  0 
    4.3459   -0.0112   -2.1254 O   0  0  0  0  0  0  0  0  0  0  0  0 
    2.7785   -1.5441   -1.5014 O   0  0  0  0  0  0  0  0  0  0  0  0 
    0.5203    1.4106   -0.3704 H   0  0  0  0  0  0  0  0  0  0  0  0 
    0.0775   -0.2095    0.1753 H   0  0  0  0  0  0  0  0  0  0  0  0 
    0.7574    0.0232   -1.4440 H   0  0  0  0  0  0  0  0  0  0  0  0 
    1.9634    1.6759    1.7311 H   0  0  0  0  0  0  0  0  0  0  0  0 
    3.2665    0.5308    2.0823 H   0  0  0  0  0  0  0  0  0  0  0  0 
    1.5740    0.0386    2.2611 H   0  0  0  0  0  0  0  0  0  0  0  0 
    5.7111   -4.8783    1.8466 H   0  0  0  0  0  0  0  0  0  0  0  0 
    5.1604   -4.9810    0.1655 H   0  0  0  0  0  0  0  0  0  0  0  0 
    4.2619   -5.8168    1.4462 H   0  0  0  0  0  0  0  0  0  0  0  0 
    3.9621   -0.9143   -4.4917 H   0  0  0  0  0  0  0  0  0  0  0  0 
    2.2840   -1.3615   -4.0600 H   0  0  0  0  0  0  0  0  0  0  0  0 
    3.5869   -2.5226   -3.8050 H   0  0  0  0  0  0  0  0  0  0  0  0 
    5.7487   -2.3588    1.4910 H   0  0  0  0  0  0  0  0  0  0  0  0 
    2.9375   -3.9641   -0.4784 H   0  0  0  0  0  0  0  0  0  0  0  0 
    2.0023   -4.4906    0.9214 H   0  0  0  0  0  0  0  0  0  0  0  0 
    4.8771   -0.4683    0.2861 H   0  0  0  0  0  0  0  0  0  0  0  0 
    1.6869   -2.0790    1.5847 H   0  0  0  0  0  0  0  0  0  0  0  0 
    1.0145   -2.4160   -0.0110 H   0  0  0  0  0  0  0  0  0  0  0  0 
    2.9008    0.8652   -0.3815 H   0  0  0  0  0  0  0  0  0  0  0  0 
    3.6506   -3.6336    2.4708 H   0  0  0  0  0  0  0  0  0  0  0  0 
  1 15  1  0  0  0  0 
  1  9  1  0  0  0  0 
  1 16  1  0  0  0  0 
  2 18  1  0  0  0  0 
  2 19  1  0  0  0  0 
  2 20  1  0  0  0  0 
  3 10  1  0  0  0  0 
  3 23  1  0  0  0  0 
  3 21  1  0  0  0  0 
  4 11  1  0  0  0  0 
  5 10  1  0  0  0  0 
  5 27  1  0  0  0  0 
  6  8  1  0  0  0  0 
  6 29  1  0  0  0  0 
  6 10  1  0  0  0  0 
  7  5  2  0  0  0  0 
  8 31  1  0  0  0  0 
  9  2  1  0  0  0  0 
 10 34  1  1  0  0  0 
 11 13  2  0  0  0  0 
 11 14  1  0  0  0  0 
 12 14  1  6  0  0  0 
 12  9  1  0  0  0  0 
 12  7  1  0  0  0  0 
 12  8  1  0  0  0  0 
 17  1  1  0  0  0  0 
 22  3  1  0  0  0  0 
 24  4  1  0  0  0  0 
 25  4  1  0  0  0  0 
 26  4  1  0  0  0  0 
 28  6  1  0  0  0  0 
 30  7  1  0  0  0  0 
 32  8  1  0  0  0  0 
 33  9  1  0  0  0  0 
M  END 
>  <HBA> 
2 
 
>  <HBD> 
0 
 
>  <TPSA> 
26.3 
 
>  <cid> 
6632 
 
>  <dipole> 
2.06 
 
>  <excitation_energy_1> 
5.617 
 
>  <excitation_energy_2> 
6.162 
 
>  <excitation_energy_3> 
6.299 
 
>  <excitation_energy_4> 
6.336 
 
>  <homo_energy> 
-6.694 
 
>  <homo_lumo_gap> 
6.977 
 
>  <logP> 
2.93 
 
>  <lumo_energy> 
0.283 
 
>  <melting_point> 
25.29 
 
>  <molecular_refractivity> 
58.53 
 
>  <oscillator_strength_1> 
0.0009 
 
>  <oscillator_strength_2> 
0.0501 
 
>  <oscillator_strength_3> 
0.011 
 
>  <oscillator_strength_4> 
0.0501 
 
>  <open_babel_can_smiles> 
CC(=O)O[C@]1(CC[C@H](C=C1)C)C(C)C 
 
>  <mulliken_charges> 
34 
1   -0.456266 
2   -0.456305 
3   -0.450655 
4   -0.522244 
5   -0.108928 
6   -0.273166 
7   -0.135794 
8   -0.305136 
9   -0.11451 
10   -0.106046 
11   0.616655 
12   0.300188 
13   -0.477387 
14   -0.499801 
15   0.143865 
16   0.141478 
17   0.149573 
18   0.145633 
19   0.154045 
20   0.140827 
21   0.142558 
22   0.148722 
23   0.143247 
24   0.179241 
25   0.177147 
26   0.178255 
27   0.124569 
28   0.145506 
29   0.129562 
30   0.155764 
31   0.142126 
32   0.149158 
33   0.162698 
34   0.135419 
 
>  <lowdin_charges> 
34 
1   -0.447044 
2   -0.446922 
3   -0.441225 
4   -0.463255 
5   -0.155619 
6   -0.275784 
7   -0.187115 
8   -0.279559 
9   -0.137144 
10   -0.123659 
11   0.200554 
12   0.138156 
13   -0.271261 
14   -0.203226 
15   0.150562 
16   0.146924 
17   0.15063 
18   0.151517 
19   0.154838 
20   0.14602 
21   0.149407 
22   0.149127 
23   0.150105 
24   0.1747 
25   0.173221 
26   0.174082 
27   0.152219 
28   0.146227 
29   0.145249 
30   0.170208 
31   0.148793 
32   0.155064 
33   0.161431 
34   0.142778 
 
$$$$ 
 
