PCCDB-ID:  14284 
public computational chemistry database (PCCDB) project, http://pccdb.org 
 
 19 19  0  0  0  0  0  0  0  0999 V2000 
    1.7028    0.5177   -0.9277 C   0  0  0  0  0  0  0  0  0  0  0  0 
    2.8291   -1.5811   -0.1479 C   0  0  0  0  0  0  0  0  0  0  0  0 
    3.9968   -0.0937    1.9912 C   0  0  0  0  0  0  0  0  0  0  0  0 
    2.9249    1.9134    1.2430 C   0  0  0  0  0  0  0  0  0  0  0  0 
    4.5919    0.6735    2.9858 C   0  0  0  0  0  0  0  0  0  0  0  0 
    3.5788    2.5702    2.2789 C   0  0  0  0  0  0  0  0  0  0  0  0 
    3.1160    0.5229    1.0732 C   0  0  0  0  0  0  0  0  0  0  0  0 
    4.4068    1.9895    3.1584 N   0  0  0  0  0  0  0  0  0  0  0  0 
    2.4785   -0.1884    0.0788 N   0  0  0  0  0  0  0  0  0  0  0  0 
    1.2421   -0.2093   -1.5990 H   0  0  0  0  0  0  0  0  0  0  0  0 
    2.3170    1.2032   -1.5316 H   0  0  0  0  0  0  0  0  0  0  0  0 
    0.8970    1.1008   -0.4659 H   0  0  0  0  0  0  0  0  0  0  0  0 
    2.2017   -1.9824   -0.9458 H   0  0  0  0  0  0  0  0  0  0  0  0 
    2.6503   -2.1839    0.7508 H   0  0  0  0  0  0  0  0  0  0  0  0 
    3.8825   -1.7096   -0.4404 H   0  0  0  0  0  0  0  0  0  0  0  0 
    4.2218   -1.1519    1.9358 H   0  0  0  0  0  0  0  0  0  0  0  0 
    2.2825    2.4814    0.5811 H   0  0  0  0  0  0  0  0  0  0  0  0 
    5.2678    0.1917    3.6919 H   0  0  0  0  0  0  0  0  0  0  0  0 
    3.4250    3.6415    2.4062 H   0  0  0  0  0  0  0  0  0  0  0  0 
  1 12  1  0  0  0  0 
  1  9  1  0  0  0  0 
  2  9  1  0  0  0  0 
  2 14  1  0  0  0  0 
  3  5  2  0  0  0  0 
  4  6  1  0  0  0  0 
  5  8  1  0  0  0  0 
  5 18  1  0  0  0  0 
  6 19  1  0  0  0  0 
  6  8  2  0  0  0  0 
  7  4  2  0  0  0  0 
  7  3  1  0  0  0  0 
  9  7  1  0  0  0  0 
 10  1  1  0  0  0  0 
 11  1  1  0  0  0  0 
 13  2  1  0  0  0  0 
 15  2  1  0  0  0  0 
 16  3  1  0  0  0  0 
 17  4  1  0  0  0  0 
M  END 
>  <HBA> 
2 
 
>  <HBD> 
0 
 
>  <TPSA> 
16.13 
 
>  <cid> 
14284 
 
>  <dipole> 
4.54 
 
>  <excitation_energy_1> 
4.819 
 
>  <excitation_energy_2> 
4.931 
 
>  <excitation_energy_3> 
5.177 
 
>  <excitation_energy_4> 
5.343 
 
>  <homo_energy> 
-5.622 
 
>  <homo_lumo_gap> 
5.766 
 
>  <logP> 
1.148 
 
>  <lumo_energy> 
0.144 
 
>  <melting_point> 
28.17 
 
>  <molecular_refractivity> 
38.44 
 
>  <oscillator_strength_1> 
0.0254 
 
>  <oscillator_strength_2> 
0.0335 
 
>  <oscillator_strength_3> 
0.0001 
 
>  <oscillator_strength_4> 
0.1638 
 
>  <open_babel_can_smiles> 
CN(c1ccncc1)C 
 
>  <mulliken_charges> 
19 
1   -0.313543 
2   -0.313577 
3   -0.203904 
4   -0.204088 
5   0.030395 
6   0.030452 
7   0.389892 
8   -0.427825 
9   -0.467633 
10   0.157795 
11   0.158712 
12   0.167526 
13   0.15777 
14   0.167397 
15   0.158903 
16   0.125051 
17   0.125068 
18   0.130804 
19   0.130805 
 
>  <lowdin_charges> 
19 
1   -0.353383 
2   -0.349013 
3   -0.231787 
4   -0.234164 
5   -0.086626 
6   -0.083203 
7   0.075148 
8   -0.182429 
9   -0.108222 
10   0.160594 
11   0.148137 
12   0.156452 
13   0.160287 
14   0.155697 
15   0.145459 
16   0.160342 
17   0.163321 
18   0.153397 
19   0.149994 
 
$$$$ 
 
