PCCDB-ID:  33198 
public computational chemistry database (PCCDB) project, http://pccdb.org 
 
 26 26  0  0  1  0  0  0  0  0999 V2000 
    0.4240   -0.1361    2.5308 C   0  0  0  0  0  0  0  0  0  0  0  0 
    0.8282    1.0621    1.6847 C   0  0  0  0  0  0  0  0  0  0  0  0 
    4.1170    0.3943    0.1696 C   0  0  0  0  0  0  0  0  0  0  0  0 
    4.7332   -0.2568   -0.8235 C   0  0  0  0  0  0  0  0  0  0  0  0 
    7.5952    1.0571   -3.9263 C   0  0  0  0  0  0  0  0  0  0  0  0 
    8.0123   -0.9808   -2.3129 C   0  0  0  0  0  0  0  0  0  0  0  0 
    8.4226   -0.0496   -3.4316 C   0  0  1  0  0  0  0  0  0  0  0  0 
    2.6405    0.3199    0.3290 C   0  0  0  0  0  0  0  0  0  0  0  0 
    6.2082   -0.1865   -0.9757 C   0  0  0  0  0  0  0  0  0  0  0  0 
    1.8904   -0.3018   -0.3974 O   0  0  0  0  0  0  0  0  0  0  0  0 
    6.9609    0.4382   -0.2569 O   0  0  0  0  0  0  0  0  0  0  0  0 
    2.2484    1.0469    1.3970 O   0  0  0  0  0  0  0  0  0  0  0  0 
    7.7209   -0.1638   -4.6703 O   0  0  0  0  0  0  0  0  0  0  0  0 
    6.6016   -0.9302   -2.0404 O   0  0  0  0  0  0  0  0  0  0  0  0 
   -0.6368   -0.0605    2.7956 H   0  0  0  0  0  0  0  0  0  0  0  0 
    1.0078   -0.1744    3.4561 H   0  0  0  0  0  0  0  0  0  0  0  0 
    0.5733   -1.0672    1.9771 H   0  0  0  0  0  0  0  0  0  0  0  0 
    0.6735    2.0024    2.2190 H   0  0  0  0  0  0  0  0  0  0  0  0 
    0.2795    1.0844    0.7401 H   0  0  0  0  0  0  0  0  0  0  0  0 
    4.6815    0.9866    0.8829 H   0  0  0  0  0  0  0  0  0  0  0  0 
    4.1701   -0.8509   -1.5362 H   0  0  0  0  0  0  0  0  0  0  0  0 
    8.0764    1.9300   -4.3681 H   0  0  0  0  0  0  0  0  0  0  0  0 
    6.6113    1.2346   -3.4965 H   0  0  0  0  0  0  0  0  0  0  0  0 
    8.5688   -0.7381   -1.4039 H   0  0  0  0  0  0  0  0  0  0  0  0 
    8.2141   -2.0160   -2.6038 H   0  0  0  0  0  0  0  0  0  0  0  0 
    9.5082    0.0321   -3.5354 H   0  0  0  0  0  0  0  0  0  0  0  0 
  1 15  1  0  0  0  0 
  1 16  1  0  0  0  0 
  2 18  1  0  0  0  0 
  2  1  1  0  0  0  0 
  3  8  1  0  0  0  0 
  3 20  1  0  0  0  0 
  4  3  2  0  0  0  0 
  5 23  1  0  0  0  0 
  5  7  1  0  0  0  0 
  6 14  1  0  0  0  0 
  6 24  1  0  0  0  0 
  7 26  1  6  0  0  0 
  7  6  1  0  0  0  0 
  8 12  1  0  0  0  0 
  9  4  1  0  0  0  0 
  9 11  2  0  0  0  0 
 10  8  2  0  0  0  0 
 12  2  1  0  0  0  0 
 13  5  1  0  0  0  0 
 13  7  1  0  0  0  0 
 14  9  1  0  0  0  0 
 17  1  1  0  0  0  0 
 19  2  1  0  0  0  0 
 21  4  1  0  0  0  0 
 22  5  1  0  0  0  0 
 25  6  1  0  0  0  0 
M  END 
>  <HBA> 
5 
 
>  <HBD> 
0 
 
>  <TPSA> 
65.13 
 
>  <cid> 
33198 
 
>  <dipole> 
2.04 
 
>  <excitation_energy_1> 
4.148 
 
>  <excitation_energy_2> 
4.332 
 
>  <excitation_energy_3> 
4.48 
 
>  <excitation_energy_4> 
5.391 
 
>  <homo_energy> 
-7.366 
 
>  <homo_lumo_gap> 
5.045 
 
>  <logP> 
0.048 
 
>  <lumo_energy> 
-2.321 
 
>  <melting_point> 
19.75 
 
>  <molecular_refractivity> 
46.44 
 
>  <oscillator_strength_1> 
0.0007 
 
>  <oscillator_strength_2> 
0.0012 
 
>  <oscillator_strength_3> 
0.0133 
 
>  <oscillator_strength_4> 
0.0471 
 
>  <open_babel_can_smiles> 
CCOC(=O)/C=C/C(=O)OC[C@@H]1CO1 
 
>  <mulliken_charges> 
26 
1   -0.463474 
2   -0.047171 
3   -0.160659 
4   -0.164847 
5   -0.100299 
6   -0.074032 
7   0.083099 
8   0.623433 
9   0.617279 
10   -0.48466 
11   -0.478264 
12   -0.469934 
13   -0.435946 
14   -0.467204 
15   0.153806 
16   0.160403 
17   0.178232 
18   0.157474 
19   0.174036 
20   0.187834 
21   0.192554 
22   0.155089 
23   0.160101 
24   0.181731 
25   0.172375 
26   0.149043 
 
>  <lowdin_charges> 
26 
1   -0.453075 
2   -0.126144 
3   -0.141524 
4   -0.147911 
5   -0.159728 
6   -0.138141 
7   -0.03111 
8   0.194903 
9   0.19557 
10   -0.266033 
11   -0.261972 
12   -0.187448 
13   -0.28184 
14   -0.180217 
15   0.159493 
16   0.15783 
17   0.166523 
18   0.155019 
19   0.160841 
20   0.189449 
21   0.191827 
22   0.157063 
23   0.158238 
24   0.17099 
25   0.165019 
26   0.152379 
 
$$$$ 
 
