PCCDB-ID:  30020 
public computational chemistry database (PCCDB) project, http://pccdb.org 
 
 23 22  0  0  1  0  0  0  0  0999 V2000 
    0.9793   -2.1165   -1.0930 C   0  0  0  0  0  0  0  0  0  0  0  0 
    4.7273   -1.1169    2.9056 C   0  0  0  0  0  0  0  0  0  0  0  0 
    2.5094   -2.1587   -1.0335 C   0  0  0  0  0  0  0  0  0  0  0  0 
    5.1640   -0.6970    1.4973 C   0  0  0  0  0  0  0  0  0  0  0  0 
    3.0673   -1.5693    0.2690 C   0  0  0  0  0  0  0  0  0  0  0  0 
    4.6016   -1.5789    0.3465 C   0  0  2  0  0  0  0  0  0  0  0  0 
    5.1421   -3.0043    0.4907 C   0  0  0  0  0  0  0  0  0  0  0  0 
    4.5176   -3.9403    0.9260 O   0  0  0  0  0  0  0  0  0  0  0  0 
    6.4495   -3.1755    0.1395 O   0  0  0  0  0  0  0  0  0  0  0  0 
    0.6056   -2.5445   -2.0299 H   0  0  0  0  0  0  0  0  0  0  0  0 
    0.6057   -1.0871   -1.0239 H   0  0  0  0  0  0  0  0  0  0  0  0 
    0.5370   -2.6862   -0.2670 H   0  0  0  0  0  0  0  0  0  0  0  0 
    5.2007   -0.4754    3.6567 H   0  0  0  0  0  0  0  0  0  0  0  0 
    5.0066   -2.1535    3.1225 H   0  0  0  0  0  0  0  0  0  0  0  0 
    3.6432   -1.0323    3.0332 H   0  0  0  0  0  0  0  0  0  0  0  0 
    2.9236   -1.6070   -1.8904 H   0  0  0  0  0  0  0  0  0  0  0  0 
    2.8495   -3.1966   -1.1336 H   0  0  0  0  0  0  0  0  0  0  0  0 
    6.2618   -0.6985    1.4472 H   0  0  0  0  0  0  0  0  0  0  0  0 
    4.8521    0.3376    1.3058 H   0  0  0  0  0  0  0  0  0  0  0  0 
    2.6637   -2.1305    1.1188 H   0  0  0  0  0  0  0  0  0  0  0  0 
    2.7232   -0.5306    0.3742 H   0  0  0  0  0  0  0  0  0  0  0  0 
    4.9958   -1.1666   -0.5962 H   0  0  0  0  0  0  0  0  0  0  0  0 
    6.8095   -2.3427   -0.2078 H   0  0  0  0  0  0  0  0  0  0  0  0 
  1  3  1  0  0  0  0 
  1 11  1  0  0  0  0 
  1 12  1  0  0  0  0 
  2 15  1  0  0  0  0 
  2 14  1  0  0  0  0 
  2 13  1  0  0  0  0 
  3  5  1  0  0  0  0 
  4  2  1  0  0  0  0 
  5  6  1  0  0  0  0 
  5 21  1  0  0  0  0 
  5 20  1  0  0  0  0 
  6 22  1  6  0  0  0 
  6  7  1  0  0  0  0 
  6  4  1  0  0  0  0 
  7  8  2  0  0  0  0 
  9  7  1  0  0  0  0 
 10  1  1  0  0  0  0 
 16  3  1  0  0  0  0 
 17  3  1  0  0  0  0 
 18  4  1  0  0  0  0 
 19  4  1  0  0  0  0 
 23  9  1  0  0  0  0 
M  END 
>  <HBA> 
2 
 
>  <HBD> 
1 
 
>  <TPSA> 
37.3 
 
>  <cid> 
30020 
 
>  <dipole> 
3.97 
 
>  <excitation_energy_1> 
5.589 
 
>  <excitation_energy_2> 
6.343 
 
>  <excitation_energy_3> 
7.203 
 
>  <excitation_energy_4> 
7.342 
 
>  <homo_energy> 
-7.249 
 
>  <homo_lumo_gap> 
7.508 
 
>  <logP> 
1.897 
 
>  <lumo_energy> 
0.259 
 
>  <melting_point> 
49.93 
 
>  <molecular_refractivity> 
37.53 
 
>  <oscillator_strength_1> 
0.0022 
 
>  <oscillator_strength_2> 
0.0089 
 
>  <oscillator_strength_3> 
0.0054 
 
>  <oscillator_strength_4> 
0.0044 
 
>  <open_babel_can_smiles> 
CCC[C@H](C(=O)O)CC 
 
>  <mulliken_charges> 
23 
1   -0.443747 
2   -0.452416 
3   -0.26213 
4   -0.26551 
5   -0.249769 
6   -0.204302 
7   0.614505 
8   -0.451439 
9   -0.572975 
10   0.144604 
11   0.13875 
12   0.149508 
13   0.147685 
14   0.170754 
15   0.156732 
16   0.123252 
17   0.157443 
18   0.126516 
19   0.147807 
20   0.164031 
21   0.125651 
22   0.126508 
23   0.40854 
 
>  <lowdin_charges> 
23 
1   -0.443534 
2   -0.448153 
3   -0.275477 
4   -0.266344 
5   -0.273413 
6   -0.170055 
7   0.198581 
8   -0.243217 
9   -0.361361 
10   0.151361 
11   0.143775 
12   0.151479 
13   0.155276 
14   0.159855 
15   0.152677 
16   0.135289 
17   0.151008 
18   0.135151 
19   0.147804 
20   0.159461 
21   0.139901 
22   0.143558 
23   0.356378 
 
$$$$ 
 
