PCCDB-ID:  31211 
public computational chemistry database (PCCDB) project, http://pccdb.org 
 
 28 28  0  0  0  0  0  0  0  0999 V2000 
   -0.6024   -0.6700   -1.8056 C   0  0  0  0  0  0  0  0  0  0  0  0 
    5.9289    3.6647   -6.3157 C   0  0  0  0  0  0  0  0  0  0  0  0 
    1.0956    1.1954   -2.3895 C   0  0  0  0  0  0  0  0  0  0  0  0 
    2.3777    1.9204   -1.9511 C   0  0  0  0  0  0  0  0  0  0  0  0 
    2.4788    4.3262   -2.7551 C   0  0  0  0  0  0  0  0  0  0  0  0 
    2.8530    5.2932   -3.6901 C   0  0  0  0  0  0  0  0  0  0  0  0 
    3.5493    2.6405   -4.0824 C   0  0  0  0  0  0  0  0  0  0  0  0 
    0.6274    0.1298   -1.4048 C   0  0  0  0  0  0  0  0  0  0  0  0 
    2.8130    2.9814   -2.9388 C   0  0  0  0  0  0  0  0  0  0  0  0 
    3.5699    4.9389   -4.8330 C   0  0  0  0  0  0  0  0  0  0  0  0 
    3.9317    3.5911   -5.0264 C   0  0  0  0  0  0  0  0  0  0  0  0 
    1.2058   -0.0738   -0.3537 O   0  0  0  0  0  0  0  0  0  0  0  0 
    3.9390    5.8470   -5.7922 O   0  0  0  0  0  0  0  0  0  0  0  0 
    4.5970    3.1708   -6.1526 O   0  0  0  0  0  0  0  0  0  0  0  0 
   -1.4433   -0.0045   -2.0360 H   0  0  0  0  0  0  0  0  0  0  0  0 
   -0.8807   -1.3505   -0.9983 H   0  0  0  0  0  0  0  0  0  0  0  0 
   -0.3975   -1.2495   -2.7148 H   0  0  0  0  0  0  0  0  0  0  0  0 
    6.3222    3.1764   -7.2104 H   0  0  0  0  0  0  0  0  0  0  0  0 
    6.5526    3.3959   -5.4525 H   0  0  0  0  0  0  0  0  0  0  0  0 
    5.9423    4.7500   -6.4531 H   0  0  0  0  0  0  0  0  0  0  0  0 
    1.2317    0.7262   -3.3749 H   0  0  0  0  0  0  0  0  0  0  0  0 
    0.2760    1.9157   -2.5314 H   0  0  0  0  0  0  0  0  0  0  0  0 
    3.1715    1.1773   -1.8131 H   0  0  0  0  0  0  0  0  0  0  0  0 
    2.2100    2.3665   -0.9650 H   0  0  0  0  0  0  0  0  0  0  0  0 
    1.9193    4.6289   -1.8732 H   0  0  0  0  0  0  0  0  0  0  0  0 
    2.5797    6.3361   -3.5344 H   0  0  0  0  0  0  0  0  0  0  0  0 
    3.8435    1.6103   -4.2675 H   0  0  0  0  0  0  0  0  0  0  0  0 
    3.6162    6.7222   -5.5272 H   0  0  0  0  0  0  0  0  0  0  0  0 
  1  8  1  0  0  0  0 
  1 16  1  0  0  0  0 
  2 14  1  0  0  0  0 
  2 19  1  0  0  0  0 
  3  4  1  0  0  0  0 
  3  8  1  0  0  0  0 
  4 23  1  0  0  0  0 
  4 24  1  0  0  0  0 
  5 25  1  0  0  0  0 
  6 26  1  0  0  0  0 
  6  5  2  0  0  0  0 
  7  9  2  0  0  0  0 
  8 12  2  0  0  0  0 
  9  5  1  0  0  0  0 
  9  4  1  0  0  0  0 
 10  6  1  0  0  0  0 
 11 10  2  0  0  0  0 
 11  7  1  0  0  0  0 
 13 28  1  0  0  0  0 
 13 10  1  0  0  0  0 
 14 11  1  0  0  0  0 
 15  1  1  0  0  0  0 
 17  1  1  0  0  0  0 
 18  2  1  0  0  0  0 
 20  2  1  0  0  0  0 
 21  3  1  0  0  0  0 
 22  3  1  0  0  0  0 
 27  7  1  0  0  0  0 
M  END 
>  <HBA> 
3 
 
>  <HBD> 
1 
 
>  <TPSA> 
46.53 
 
>  <cid> 
31211 
 
>  <dipole> 
2.58 
 
>  <excitation_energy_1> 
4.354 
 
>  <excitation_energy_2> 
4.814 
 
>  <excitation_energy_3> 
4.953 
 
>  <excitation_energy_4> 
5.0 
 
>  <homo_energy> 
-5.728 
 
>  <homo_lumo_gap> 
5.41 
 
>  <logP> 
1.922 
 
>  <lumo_energy> 
-0.318 
 
>  <melting_point> 
73.63 
 
>  <molecular_refractivity> 
54.54 
 
>  <oscillator_strength_1> 
0.0015 
 
>  <oscillator_strength_2> 
0.0341 
 
>  <oscillator_strength_3> 
0.002 
 
>  <oscillator_strength_4> 
0.0115 
 
>  <open_babel_can_smiles> 
COc1cc(CCC(=O)C)ccc1O 
 
>  <mulliken_charges> 
28 
1   -0.528159 
2   -0.213929 
3   -0.35314 
4   -0.346154 
5   -0.190882 
6   -0.199098 
7   -0.236304 
8   0.456419 
9   0.165533 
10   0.311334 
11   0.334018 
12   -0.436921 
13   -0.643394 
14   -0.521861 
15   0.166034 
16   0.179467 
17   0.17023 
18   0.157753 
19   0.138816 
20   0.168582 
21   0.162634 
22   0.16225 
23   0.159236 
24   0.157867 
25   0.123301 
26   0.118299 
27   0.129385 
28   0.408684 
 
>  <lowdin_charges> 
28 
1   -0.477542 
2   -0.2746 
3   -0.31035 
4   -0.267176 
5   -0.170132 
6   -0.207354 
7   -0.179473 
8   0.165534 
9   -0.015645 
10   0.072932 
11   0.070186 
12   -0.235854 
13   -0.377182 
14   -0.224587 
15   0.168627 
16   0.173514 
17   0.171062 
18   0.156297 
19   0.139353 
20   0.150277 
21   0.16222 
22   0.16377 
23   0.159401 
24   0.157804 
25   0.156325 
26   0.151627 
27   0.162296 
28   0.358671 
 
$$$$ 
 
