PCCDB-ID:  6599 
public computational chemistry database (PCCDB) project, http://pccdb.org 
 
 13 12  0  0  0  0  0  0  0  0999 V2000 
    0.9411   -0.0674   -0.0167 C   0  0  0  0  0  0  0  0  0  0  0  0 
    3.1221    0.3941    1.1094 C   0  0  0  0  0  0  0  0  0  0  0  0 
    3.1012   -0.2331   -1.2384 C   0  0  0  0  0  0  0  0  0  0  0  0 
    2.3954    0.0610   -0.1210 N   0  0  0  0  0  0  0  0  0  0  0  0 
    4.7601   -0.4022   -1.3051 S   0  0  0  0  0  0  0  0  0  0  0  0 
    2.2423   -0.4918   -2.7889 S   0  0  0  0  0  0  0  0  0  0  0  0 
    0.6746   -0.1740    1.0361 H   0  0  0  0  0  0  0  0  0  0  0  0 
    0.5912   -0.9591   -0.5432 H   0  0  0  0  0  0  0  0  0  0  0  0 
    0.4201    0.8141   -0.4140 H   0  0  0  0  0  0  0  0  0  0  0  0 
    2.4423    0.9229    1.7814 H   0  0  0  0  0  0  0  0  0  0  0  0 
    3.9751    1.0312    0.8725 H   0  0  0  0  0  0  0  0  0  0  0  0 
    3.4997   -0.5098    1.6020 H   0  0  0  0  0  0  0  0  0  0  0  0 
    1.0208    0.0218   -2.5079 H   0  0  0  0  0  0  0  0  0  0  0  0 
  1  7  1  0  0  0  0 
  2 12  1  0  0  0  0 
  2 10  1  0  0  0  0 
  3  4  1  0  0  0  0 
  4  1  1  0  0  0  0 
  4  2  1  0  0  0  0 
  5  3  2  0  0  0  0 
  6 13  1  0  0  0  0 
  6  3  1  0  0  0  0 
  8  1  1  0  0  0  0 
  9  1  1  0  0  0  0 
 11  2  1  0  0  0  0 
M  END 
>  <HBA> 
3 
 
>  <HBD> 
1 
 
>  <TPSA> 
74.13 
 
>  <cid> 
6599 
 
>  <dipole> 
5.79 
 
>  <excitation_energy_1> 
3.503 
 
>  <excitation_energy_2> 
4.655 
 
>  <excitation_energy_3> 
4.851 
 
>  <excitation_energy_4> 
5.082 
 
>  <homo_energy> 
-5.717 
 
>  <homo_lumo_gap> 
4.849 
 
>  <logP> 
0.763 
 
>  <lumo_energy> 
-0.868 
 
>  <melting_point> 
28.69 
 
>  <molecular_refractivity> 
35.15 
 
>  <oscillator_strength_1> 
0.0006 
 
>  <oscillator_strength_2> 
0.0289 
 
>  <oscillator_strength_3> 
0.0513 
 
>  <oscillator_strength_4> 
0.0062 
 
>  <open_babel_can_smiles> 
CN(C(=S)S)C 
 
>  <mulliken_charges> 
13 
1   -0.349697 
2   -0.316547 
3   -0.033815 
4   -0.30825 
5   -0.217317 
6   0.052538 
7   0.180517 
8   0.190471 
9   0.177557 
10   0.155916 
11   0.208198 
12   0.186583 
13   0.073848 
 
>  <lowdin_charges> 
13 
1   -0.358323 
2   -0.351747 
3   -0.164558 
4   -0.071153 
5   -0.197317 
6   0.031651 
7   0.168872 
8   0.171302 
9   0.158968 
10   0.157464 
11   0.184462 
12   0.168168 
13   0.102212 
 
$$$$ 
 
