PCCDB-ID:  70760 
public computational chemistry database (PCCDB) project, http://pccdb.org 
 
 23 23  0  0  0  0  0  0  0  0999 V2000 
    1.2586   -0.8111   -0.3637 C   0  0  0  0  0  0  0  0  0  0  0  0 
    2.9553    4.7722   -1.7171 C   0  0  0  0  0  0  0  0  0  0  0  0 
    4.4885    0.6592   -4.2547 C   0  0  0  0  0  0  0  0  0  0  0  0 
    2.4387    0.0593    0.0982 C   0  0  0  0  0  0  0  0  0  0  0  0 
    3.7024    2.7004   -2.9743 C   0  0  0  0  0  0  0  0  0  0  0  0 
    2.7056    2.4118   -0.8265 C   0  0  0  0  0  0  0  0  0  0  0  0 
    3.1199    3.2776   -1.8472 C   0  0  0  0  0  0  0  0  0  0  0  0 
    3.8549    1.3078   -3.0464 C   0  0  0  0  0  0  0  0  0  0  0  0 
    2.8890    1.0358   -0.9668 C   0  0  0  0  0  0  0  0  0  0  0  0 
    3.4557    0.4933   -2.0616 N   0  0  0  0  0  0  0  0  0  0  0  0 
    0.9815   -1.5359    0.4102 H   0  0  0  0  0  0  0  0  0  0  0  0 
    1.5278   -1.3591   -1.2718 H   0  0  0  0  0  0  0  0  0  0  0  0 
    0.3778   -0.1975   -0.5857 H   0  0  0  0  0  0  0  0  0  0  0  0 
    3.0830    5.2759   -2.6802 H   0  0  0  0  0  0  0  0  0  0  0  0 
    3.6971    5.1890   -1.0235 H   0  0  0  0  0  0  0  0  0  0  0  0 
    1.9662    5.0314   -1.3229 H   0  0  0  0  0  0  0  0  0  0  0  0 
    3.9416    0.9062   -5.1732 H   0  0  0  0  0  0  0  0  0  0  0  0 
    4.4912   -0.4257   -4.1292 H   0  0  0  0  0  0  0  0  0  0  0  0 
    5.5225    0.9989   -4.3934 H   0  0  0  0  0  0  0  0  0  0  0  0 
    3.2850   -0.5925    0.3491 H   0  0  0  0  0  0  0  0  0  0  0  0 
    2.1693    0.6048    1.0107 H   0  0  0  0  0  0  0  0  0  0  0  0 
    4.0389    3.3256   -3.7982 H   0  0  0  0  0  0  0  0  0  0  0  0 
    2.2407    2.8083    0.0732 H   0  0  0  0  0  0  0  0  0  0  0  0 
  1  4  1  0  0  0  0 
  1 11  1  0  0  0  0 
  2 16  1  0  0  0  0 
  2 15  1  0  0  0  0 
  3 18  1  0  0  0  0 
  3  8  1  0  0  0  0 
  4 20  1  0  0  0  0 
  4 21  1  0  0  0  0 
  5  7  1  0  0  0  0 
  6 23  1  0  0  0  0 
  7  2  1  0  0  0  0 
  7  6  2  0  0  0  0 
  8  5  2  0  0  0  0 
  8 10  1  0  0  0  0 
  9  6  1  0  0  0  0 
  9  4  1  0  0  0  0 
 10  9  2  0  0  0  0 
 12  1  1  0  0  0  0 
 13  1  1  0  0  0  0 
 14  2  1  0  0  0  0 
 17  3  1  0  0  0  0 
 19  3  1  0  0  0  0 
 22  5  1  0  0  0  0 
M  END 
>  <HBA> 
1 
 
>  <HBD> 
0 
 
>  <TPSA> 
12.89 
 
>  <cid> 
70760 
 
>  <dipole> 
1.91 
 
>  <excitation_energy_1> 
4.985 
 
>  <excitation_energy_2> 
5.145 
 
>  <excitation_energy_3> 
5.233 
 
>  <excitation_energy_4> 
5.844 
 
>  <homo_energy> 
-6.471 
 
>  <homo_lumo_gap> 
6.182 
 
>  <logP> 
2.261 
 
>  <lumo_energy> 
-0.288 
 
>  <melting_point> 
31.67 
 
>  <molecular_refractivity> 
43.94 
 
>  <oscillator_strength_1> 
0.0043 
 
>  <oscillator_strength_2> 
0.0001 
 
>  <oscillator_strength_3> 
0.0545 
 
>  <oscillator_strength_4> 
0.053 
 
>  <open_babel_can_smiles> 
CCc1cc(C)cc(n1)C 
 
>  <mulliken_charges> 
23 
1   -0.440202 
2   -0.530985 
3   -0.521942 
4   -0.312966 
5   -0.22527 
6   -0.231423 
7   0.204996 
8   0.312177 
9   0.309063 
10   -0.522216 
11   0.140038 
12   0.16793 
13   0.141096 
14   0.158929 
15   0.170414 
16   0.163846 
17   0.15783 
18   0.17374 
19   0.158898 
20   0.154797 
21   0.132386 
22   0.118832 
23   0.120031 
 
>  <lowdin_charges> 
23 
1   -0.442046 
2   -0.443229 
3   -0.447472 
4   -0.274764 
5   -0.204501 
6   -0.203892 
7   0.028128 
8   0.060813 
9   0.056416 
10   -0.17623 
11   0.14905 
12   0.160082 
13   0.147184 
14   0.158977 
15   0.167126 
16   0.162175 
17   0.160232 
18   0.167262 
19   0.159615 
20   0.158578 
21   0.143482 
22   0.156681 
23   0.156334 
 
$$$$ 
 
