PCCDB-ID:  28255 
public computational chemistry database (PCCDB) project, http://pccdb.org 
 
 32 31  0  0  1  0  0  0  0  0999 V2000 
    3.2062    0.9579   -0.7581 C   0  0  0  0  0  0  0  0  0  0  0  0 
    0.9686    1.9724    4.6599 C   0  0  0  0  0  0  0  0  0  0  0  0 
    2.9598    1.5119    6.1394 C   0  0  0  0  0  0  0  0  0  0  0  0 
    0.9352   -0.9339   -1.5024 C   0  0  0  0  0  0  0  0  0  0  0  0 
    2.5907    0.7591    2.3006 C   0  0  0  0  0  0  0  0  0  0  0  0 
    3.2407   -0.3374    1.4438 C   0  0  0  0  0  0  0  0  0  0  0  0 
    2.9530    0.6148    3.7851 C   0  0  0  0  0  0  0  0  0  0  0  0 
    2.8370   -0.3489   -0.0439 C   0  0  1  0  0  0  0  0  0  0  0  0 
    2.4911    1.7670    4.6979 C   0  0  0  0  0  0  0  0  0  0  0  0 
    1.3955   -0.6156   -0.1544 N   0  0  0  0  0  0  0  0  0  0  0  0 
    3.1505    2.9414    4.1882 O   0  0  0  0  0  0  0  0  0  0  0  0 
    4.2628    1.1969   -0.5913 H   0  0  0  0  0  0  0  0  0  0  0  0 
    2.5986    1.7900   -0.3887 H   0  0  0  0  0  0  0  0  0  0  0  0 
    3.0550    0.8828   -1.8401 H   0  0  0  0  0  0  0  0  0  0  0  0 
    0.4342    1.0689    4.9766 H   0  0  0  0  0  0  0  0  0  0  0  0 
    0.6342    2.2389    3.6535 H   0  0  0  0  0  0  0  0  0  0  0  0 
    0.6748    2.7834    5.3398 H   0  0  0  0  0  0  0  0  0  0  0  0 
    2.5080    0.6041    6.5562 H   0  0  0  0  0  0  0  0  0  0  0  0 
    2.6809    2.3501    6.7918 H   0  0  0  0  0  0  0  0  0  0  0  0 
    4.0491    1.4049    6.1715 H   0  0  0  0  0  0  0  0  0  0  0  0 
   -0.1027   -1.2799   -1.4548 H   0  0  0  0  0  0  0  0  0  0  0  0 
    1.5351   -1.7118   -2.0135 H   0  0  0  0  0  0  0  0  0  0  0  0 
    0.9505   -0.0377   -2.1313 H   0  0  0  0  0  0  0  0  0  0  0  0 
    1.5046    0.7180    2.1626 H   0  0  0  0  0  0  0  0  0  0  0  0 
    2.9154    1.7474    1.9585 H   0  0  0  0  0  0  0  0  0  0  0  0 
    2.9979   -1.3235    1.8721 H   0  0  0  0  0  0  0  0  0  0  0  0 
    4.3346   -0.2494    1.5016 H   0  0  0  0  0  0  0  0  0  0  0  0 
    4.0453    0.5454    3.8825 H   0  0  0  0  0  0  0  0  0  0  0  0 
    2.5426   -0.3252    4.1804 H   0  0  0  0  0  0  0  0  0  0  0  0 
    3.4215   -1.1600   -0.5263 H   0  0  0  0  0  0  0  0  0  0  0  0 
    1.1772   -1.4048    0.4520 H   0  0  0  0  0  0  0  0  0  0  0  0 
    2.8636    3.6924    4.7319 H   0  0  0  0  0  0  0  0  0  0  0  0 
  1 12  1  0  0  0  0 
  1 13  1  0  0  0  0 
  1  8  1  0  0  0  0 
  2  9  1  0  0  0  0 
  2 15  1  0  0  0  0 
  2 17  1  0  0  0  0 
  3 20  1  0  0  0  0 
  3 18  1  0  0  0  0 
  3 19  1  0  0  0  0 
  4 21  1  0  0  0  0 
  4 10  1  0  0  0  0 
  5  7  1  0  0  0  0 
  6 27  1  0  0  0  0 
  6 26  1  0  0  0  0 
  6  5  1  0  0  0  0 
  7 28  1  0  0  0  0 
  7 29  1  0  0  0  0 
  7  9  1  0  0  0  0 
  8 30  1  6  0  0  0 
  8  6  1  0  0  0  0 
  9  3  1  0  0  0  0 
 10  8  1  0  0  0  0 
 10 31  1  0  0  0  0 
 11  9  1  0  0  0  0 
 11 32  1  0  0  0  0 
 14  1  1  0  0  0  0 
 16  2  1  0  0  0  0 
 22  4  1  0  0  0  0 
 23  4  1  0  0  0  0 
 24  5  1  0  0  0  0 
 25  5  1  0  0  0  0 
M  END 
>  <HBA> 
2 
 
>  <HBD> 
2 
 
>  <TPSA> 
32.26 
 
>  <cid> 
28255 
 
>  <dipole> 
1.33 
 
>  <excitation_energy_1> 
5.274 
 
>  <excitation_energy_2> 
5.63 
 
>  <excitation_energy_3> 
5.872 
 
>  <excitation_energy_4> 
5.938 
 
>  <homo_energy> 
-5.788 
 
>  <homo_lumo_gap> 
7.611 
 
>  <logP> 
1.926 
 
>  <lumo_energy> 
1.823 
 
>  <melting_point> 
28.27 
 
>  <molecular_refractivity> 
49.38 
 
>  <oscillator_strength_1> 
0.0052 
 
>  <oscillator_strength_2> 
0.0109 
 
>  <oscillator_strength_3> 
0.008 
 
>  <oscillator_strength_4> 
0.0303 
 
>  <open_babel_can_smiles> 
CN[C@H](CCCC(O)(C)C)C 
 
>  <mulliken_charges> 
32 
1   -0.448749 
2   -0.462815 
3   -0.452158 
4   -0.303072 
5   -0.265487 
6   -0.284164 
7   -0.254133 
8   0.065613 
9   0.305467 
10   -0.541492 
11   -0.637246 
12   0.140041 
13   0.159172 
14   0.140704 
15   0.140204 
16   0.164161 
17   0.126171 
18   0.138877 
19   0.126329 
20   0.152713 
21   0.144231 
22   0.116644 
23   0.155408 
24   0.147643 
25   0.159872 
26   0.115107 
27   0.131146 
28   0.133917 
29   0.119974 
30   0.09486 
31   0.289109 
32   0.381951 
 
>  <lowdin_charges> 
32 
1   -0.449555 
2   -0.461082 
3   -0.455611 
4   -0.362363 
5   -0.280601 
6   -0.27632 
7   -0.275667 
8   -0.059717 
9   0.125492 
10   -0.365199 
11   -0.467339 
12   0.149532 
13   0.156875 
14   0.146692 
15   0.152009 
16   0.159134 
17   0.143097 
18   0.15068 
19   0.142821 
20   0.153292 
21   0.1483 
22   0.120574 
23   0.149214 
24   0.145675 
25   0.154096 
26   0.131545 
27   0.14067 
28   0.143328 
29   0.138882 
30   0.112768 
31   0.249991 
32   0.338784 
 
$$$$ 
 
