PCCDB-ID:  13613 
public computational chemistry database (PCCDB) project, http://pccdb.org 
 
 21 21  0  0  0  0  0  0  0  0999 V2000 
   -1.5614    0.8097    0.2046 C   0  0  0  0  0  0  0  0  0  0  0  0 
   -0.3374    1.6274   -0.2342 C   0  0  0  0  0  0  0  0  0  0  0  0 
   -1.5401   -0.6736   -0.1863 C   0  0  0  0  0  0  0  0  0  0  0  0 
    0.9977    1.1695    0.3829 C   0  0  0  0  0  0  0  0  0  0  0  0 
   -0.3632   -1.4768    0.3883 C   0  0  0  0  0  0  0  0  0  0  0  0 
    1.6742   -0.0127   -0.3101 C   0  0  0  0  0  0  0  0  0  0  0  0 
    1.3837   -2.3273   -0.9562 N   0  0  0  0  0  0  0  0  0  0  0  0 
    0.9054   -1.2616   -0.2987 N   0  0  0  0  0  0  0  0  0  0  0  0 
    2.4593   -2.1375   -1.5236 O   0  0  0  0  0  0  0  0  0  0  0  0 
   -2.4653    1.2706   -0.2142 H   0  0  0  0  0  0  0  0  0  0  0  0 
   -1.6603    0.8847    1.2981 H   0  0  0  0  0  0  0  0  0  0  0  0 
   -0.5094    2.6743    0.0462 H   0  0  0  0  0  0  0  0  0  0  0  0 
   -0.2525    1.6146   -1.3306 H   0  0  0  0  0  0  0  0  0  0  0  0 
   -1.5354   -0.7840   -1.2788 H   0  0  0  0  0  0  0  0  0  0  0  0 
   -2.4663   -1.1429    0.1714 H   0  0  0  0  0  0  0  0  0  0  0  0 
    0.8645    0.9652    1.4541 H   0  0  0  0  0  0  0  0  0  0  0  0 
    1.7180    1.9954    0.3259 H   0  0  0  0  0  0  0  0  0  0  0  0 
   -0.5505   -2.5484    0.2796 H   0  0  0  0  0  0  0  0  0  0  0  0 
   -0.2448   -1.2693    1.4606 H   0  0  0  0  0  0  0  0  0  0  0  0 
    2.6522   -0.2177    0.1444 H   0  0  0  0  0  0  0  0  0  0  0  0 
    1.8836    0.2280   -1.3599 H   0  0  0  0  0  0  0  0  0  0  0  0 
  1 11  1  0  0  0  0 
  2 12  1  0  0  0  0 
  2  1  1  0  0  0  0 
  2  4  1  0  0  0  0 
  3 15  1  0  0  0  0 
  3  1  1  0  0  0  0 
  3  5  1  0  0  0  0 
  4 16  1  0  0  0  0 
  5 19  1  0  0  0  0 
  6  8  1  0  0  0  0 
  6 20  1  0  0  0  0 
  6  4  1  0  0  0  0 
  7  8  1  0  0  0  0 
  8  5  1  0  0  0  0 
  9  7  1  0  0  0  0 
 10  1  1  0  0  0  0 
 13  2  1  0  0  0  0 
 14  3  1  0  0  0  0 
 17  4  1  0  0  0  0 
 18  5  1  0  0  0  0 
 21  6  1  0  0  0  0 
M  RAD  2   7   2   9   2 
M  END 
>  <HBA> 
3 
 
>  <HBD> 
0 
 
>  <TPSA> 
32.67 
 
>  <cid> 
13613 
 
>  <dipole> 
4.48 
 
>  <excitation_energy_1> 
3.4 
 
>  <excitation_energy_2> 
5.481 
 
>  <excitation_energy_3> 
5.855 
 
>  <excitation_energy_4> 
5.927 
 
>  <homo_energy> 
-5.848 
 
>  <homo_lumo_gap> 
5.265 
 
>  <logP> 
1.482 
 
>  <lumo_energy> 
-0.582 
 
>  <melting_point> 
17.7 
 
>  <molecular_refractivity> 
40.39 
 
>  <oscillator_strength_1> 
0.0014 
 
>  <oscillator_strength_2> 
0.0048 
 
>  <oscillator_strength_3> 
0.1479 
 
>  <oscillator_strength_4> 
0.0076 
 
>  <open_babel_can_smiles> 
[O][N]N1CCCCCC1 
 
>  <mulliken_charges> 
21 
1   -0.262164 
2   -0.257841 
3   -0.261365 
4   -0.291881 
5   -0.140689 
6   -0.120017 
7   0.141537 
8   -0.22631 
9   -0.387719 
10   0.14023 
11   0.13171 
12   0.140329 
13   0.139155 
14   0.149763 
15   0.143231 
16   0.142696 
17   0.151975 
18   0.177745 
19   0.150036 
20   0.168153 
21   0.171426 
 
>  <lowdin_charges> 
21 
1   -0.276879 
2   -0.276458 
3   -0.284327 
4   -0.283329 
5   -0.200482 
6   -0.20901 
7   0.042269 
8   -0.045818 
9   -0.278611 
10   0.149277 
11   0.136814 
12   0.147972 
13   0.141845 
14   0.148251 
15   0.153022 
16   0.143135 
17   0.158784 
18   0.168943 
19   0.144381 
20   0.160648 
21   0.159572 
 
$$$$ 
 
