PCCDB-ID:  13862 
public computational chemistry database (PCCDB) project, http://pccdb.org 
 
 17 17  0  0  0  0  0  0  0  0999 V2000 
    1.0461   -0.0584    0.0355 C   0  0  0  0  0  0  0  0  0  0  0  0 
    5.1353   -2.3898    0.0272 C   0  0  0  0  0  0  0  0  0  0  0  0 
    3.1569    1.3641    0.0315 C   0  0  0  0  0  0  0  0  0  0  0  0 
    5.2841    0.1513    0.0264 C   0  0  0  0  0  0  0  0  0  0  0  0 
    2.5236    0.1728    0.0327 C   0  0  0  0  0  0  0  0  0  0  0  0 
    4.5818   -1.0005    0.0280 C   0  0  0  0  0  0  0  0  0  0  0  0 
    4.6208    1.4599    0.0276 C   0  0  0  0  0  0  0  0  0  0  0  0 
    5.2304    2.5292    0.0254 O   0  0  0  0  0  0  0  0  0  0  0  0 
    3.2124   -1.0106    0.0312 O   0  0  0  0  0  0  0  0  0  0  0  0 
    0.5104    0.8933    0.0365 H   0  0  0  0  0  0  0  0  0  0  0  0 
    0.7459   -0.6337    0.9193 H   0  0  0  0  0  0  0  0  0  0  0  0 
    0.7427   -0.6335   -0.8475 H   0  0  0  0  0  0  0  0  0  0  0  0 
    6.2271   -2.3662    0.0169 H   0  0  0  0  0  0  0  0  0  0  0  0 
    4.7855   -2.9451   -0.8512 H   0  0  0  0  0  0  0  0  0  0  0  0 
    4.8024   -2.9397    0.9155 H   0  0  0  0  0  0  0  0  0  0  0  0 
    2.5828    2.2841    0.0330 H   0  0  0  0  0  0  0  0  0  0  0  0 
    6.3682    0.1262    0.0240 H   0  0  0  0  0  0  0  0  0  0  0  0 
  1 10  1  0  0  0  0 
  1 11  1  0  0  0  0 
  2  6  1  0  0  0  0 
  2 15  1  0  0  0  0 
  3  5  2  0  0  0  0 
  3 16  1  0  0  0  0 
  4  7  1  0  0  0  0 
  4  6  2  0  0  0  0 
  5  1  1  0  0  0  0 
  6  9  1  0  0  0  0 
  7  3  1  0  0  0  0 
  8  7  2  0  0  0  0 
  9  5  1  0  0  0  0 
 12  1  1  0  0  0  0 
 13  2  1  0  0  0  0 
 14  2  1  0  0  0  0 
 17  4  1  0  0  0  0 
M  END 
>  <HBA> 
2 
 
>  <HBD> 
0 
 
>  <TPSA> 
30.21 
 
>  <cid> 
13862 
 
>  <dipole> 
4.78 
 
>  <excitation_energy_1> 
3.952 
 
>  <excitation_energy_2> 
4.972 
 
>  <excitation_energy_3> 
5.486 
 
>  <excitation_energy_4> 
5.527 
 
>  <homo_energy> 
-6.182 
 
>  <homo_lumo_gap> 
5.355 
 
>  <logP> 
1.257 
 
>  <lumo_energy> 
-0.827 
 
>  <melting_point> 
46.66 
 
>  <molecular_refractivity> 
34.91 
 
>  <oscillator_strength_1> 
0.0 
 
>  <oscillator_strength_2> 
0.0003 
 
>  <oscillator_strength_3> 
0.1768 
 
>  <oscillator_strength_4> 
0.0138 
 
>  <open_babel_can_smiles> 
Cc1oc(C)cc(=O)c1 
 
>  <mulliken_charges> 
17 
1   -0.518273 
2   -0.518404 
3   -0.261242 
4   -0.261166 
5   0.373976 
6   0.374131 
7   0.463285 
8   -0.531799 
9   -0.492554 
10   0.176484 
11   0.179456 
12   0.179471 
13   0.176507 
14   0.179423 
15   0.179552 
16   0.150584 
17   0.15057 
 
>  <lowdin_charges> 
17 
1   -0.44197 
2   -0.440266 
3   -0.234007 
4   -0.231005 
5   0.117543 
6   0.119994 
7   0.134223 
8   -0.294087 
9   -0.120623 
10   0.172223 
11   0.173204 
12   0.173225 
13   0.170399 
14   0.173284 
15   0.173251 
16   0.178447 
17   0.176165 
 
$$$$ 
 
