PCCDB-ID:  7861 
public computational chemistry database (PCCDB) project, http://pccdb.org 
 
 10  9  0  0  0  0  0  0  0  0999 V2000 
    0.9205    0.1530    0.2069 C   0  0  0  0  0  0  0  0  0  0  0  0 
    4.1792   -0.2995   -1.2729 C   0  0  0  0  0  0  0  0  0  0  0  0 
    2.2193   -0.0707    0.0070 C   0  0  0  0  0  0  0  0  0  0  0  0 
    2.8030    0.0456   -1.2191 O   0  0  0  0  0  0  0  0  0  0  0  0 
    0.5022    0.0582    1.2018 H   0  0  0  0  0  0  0  0  0  0  0  0 
    0.2617    0.4334   -0.6083 H   0  0  0  0  0  0  0  0  0  0  0  0 
    4.5036   -0.1263   -2.3009 H   0  0  0  0  0  0  0  0  0  0  0  0 
    4.3404   -1.3564   -1.0192 H   0  0  0  0  0  0  0  0  0  0  0  0 
    4.7786    0.3270   -0.5977 H   0  0  0  0  0  0  0  0  0  0  0  0 
    2.8910   -0.3533    0.8191 H   0  0  0  0  0  0  0  0  0  0  0  0 
  1  5  1  0  0  0  0 
  2  4  1  0  0  0  0 
  2  8  1  0  0  0  0 
  2  9  1  0  0  0  0 
  3  1  2  0  0  0  0 
  3 10  1  0  0  0  0 
  4  3  1  0  0  0  0 
  6  1  1  0  0  0  0 
  7  2  1  0  0  0  0 
M  END 
>  <HBA> 
1 
 
>  <HBD> 
0 
 
>  <TPSA> 
9.23 
 
>  <cid> 
7861 
 
>  <dipole> 
1.75 
 
>  <excitation_energy_1> 
5.686 
 
>  <excitation_energy_2> 
6.108 
 
>  <excitation_energy_3> 
6.31 
 
>  <excitation_energy_4> 
6.341 
 
>  <homo_energy> 
-5.921 
 
>  <homo_lumo_gap> 
6.977 
 
>  <logP> 
0.776 
 
>  <lumo_energy> 
1.056 
 
>  <melting_point> 
-54.12 
 
>  <molecular_refractivity> 
17.15 
 
>  <oscillator_strength_1> 
0.0411 
 
>  <oscillator_strength_2> 
0.0169 
 
>  <oscillator_strength_3> 
0.0456 
 
>  <oscillator_strength_4> 
0.3232 
 
>  <open_babel_can_smiles> 
COC=C 
 
>  <mulliken_charges> 
10 
1   -0.392262 
2   -0.211331 
3   0.174851 
4   -0.440886 
5   0.13899 
6   0.144808 
7   0.169044 
8   0.147988 
9   0.146698 
10   0.122099 
 
>  <lowdin_charges> 
10 
1   -0.398517 
2   -0.275722 
3   -0.04033 
4   -0.207026 
5   0.165606 
6   0.166916 
7   0.160919 
8   0.140793 
9   0.143447 
10   0.143914 
 
$$$$ 
 
