PCCDB-ID:  12189 
public computational chemistry database (PCCDB) project, http://pccdb.org 
 
 21 20  0  0  0  0  0  0  0  0999 V2000 
    0.9735   -1.6187    0.5305 C   0  0  0  0  0  0  0  0  0  0  0  0 
   10.6074   -2.3795    0.9153 C   0  0  0  0  0  0  0  0  0  0  0  0 
    2.2893   -0.9149    0.4423 C   0  0  0  0  0  0  0  0  0  0  0  0 
    9.4024   -1.5613    1.2514 C   0  0  0  0  0  0  0  0  0  0  0  0 
    3.4836   -1.4723    0.6846 C   0  0  0  0  0  0  0  0  0  0  0  0 
    8.1462   -1.8430    0.8794 C   0  0  0  0  0  0  0  0  0  0  0  0 
    4.7194   -0.6727    0.5745 C   0  0  0  0  0  0  0  0  0  0  0  0 
    7.0336   -0.9524    1.2634 C   0  0  0  0  0  0  0  0  0  0  0  0 
    4.8041    0.4905    0.2735 O   0  0  0  0  0  0  0  0  0  0  0  0 
    7.1069    0.0572    1.9161 O   0  0  0  0  0  0  0  0  0  0  0  0 
    5.8273   -1.4882    0.8096 O   0  0  0  0  0  0  0  0  0  0  0  0 
    0.4410   -1.5646   -0.4284 H   0  0  0  0  0  0  0  0  0  0  0  0 
    0.3248   -1.1326    1.2714 H   0  0  0  0  0  0  0  0  0  0  0  0 
    1.0866   -2.6716    0.8064 H   0  0  0  0  0  0  0  0  0  0  0  0 
   11.1204   -2.7060    1.8298 H   0  0  0  0  0  0  0  0  0  0  0  0 
   11.3350   -1.7811    0.3507 H   0  0  0  0  0  0  0  0  0  0  0  0 
   10.3535   -3.2648    0.3245 H   0  0  0  0  0  0  0  0  0  0  0  0 
    2.2751    0.1376    0.1606 H   0  0  0  0  0  0  0  0  0  0  0  0 
    9.5597   -0.6612    1.8452 H   0  0  0  0  0  0  0  0  0  0  0  0 
    3.5876   -2.5153    0.9697 H   0  0  0  0  0  0  0  0  0  0  0  0 
    7.9016   -2.7197    0.2866 H   0  0  0  0  0  0  0  0  0  0  0  0 
  1 14  1  0  0  0  0 
  1 13  1  0  0  0  0 
  2  4  1  0  0  0  0 
  2 15  1  0  0  0  0 
  3  1  1  0  0  0  0 
  3  5  2  0  0  0  0 
  4 19  1  0  0  0  0 
  5 20  1  0  0  0  0 
  6  4  2  0  0  0  0 
  6  8  1  0  0  0  0 
  7  5  1  0  0  0  0 
  7 11  1  0  0  0  0 
  8 10  2  0  0  0  0 
  9  7  2  0  0  0  0 
 11  8  1  0  0  0  0 
 12  1  1  0  0  0  0 
 16  2  1  0  0  0  0 
 17  2  1  0  0  0  0 
 18  3  1  0  0  0  0 
 21  6  1  0  0  0  0 
M  END 
>  <HBA> 
3 
 
>  <HBD> 
0 
 
>  <TPSA> 
43.37 
 
>  <cid> 
12189 
 
>  <dipole> 
3.77 
 
>  <excitation_energy_1> 
4.268 
 
>  <excitation_energy_2> 
4.712 
 
>  <excitation_energy_3> 
5.248 
 
>  <excitation_energy_4> 
5.319 
 
>  <homo_energy> 
-7.162 
 
>  <homo_lumo_gap> 
5.543 
 
>  <logP> 
1.208 
 
>  <lumo_energy> 
-1.619 
 
>  <melting_point> 
25.52 
 
>  <molecular_refractivity> 
41.11 
 
>  <oscillator_strength_1> 
0.0099 
 
>  <oscillator_strength_2> 
0.0001 
 
>  <oscillator_strength_3> 
0.273 
 
>  <oscillator_strength_4> 
0.0136 
 
>  <open_babel_can_smiles> 
C/C=C/C(=O)OC(=O)/C=C/C 
 
>  <mulliken_charges> 
21 
1   -0.499874 
2   -0.499957 
3   -0.049876 
4   -0.049955 
5   -0.189354 
6   -0.189306 
7   0.611686 
8   0.611596 
9   -0.438884 
10   -0.43872 
11   -0.526303 
12   0.172168 
13   0.174042 
14   0.16384 
15   0.172327 
16   0.173961 
17   0.163885 
18   0.17231 
19   0.172304 
20   0.147032 
21   0.147077 
 
>  <lowdin_charges> 
21 
1   -0.438594 
2   -0.440883 
3   -0.083036 
4   -0.084624 
5   -0.213589 
6   -0.215526 
7   0.213168 
8   0.214694 
9   -0.2205 
10   -0.220728 
11   -0.191615 
12   0.168605 
13   0.170907 
14   0.15943 
15   0.169228 
16   0.170951 
17   0.161178 
18   0.172888 
19   0.174447 
20   0.165973 
21   0.167628 
 
$$$$ 
 
