PCCDB-ID:  58853 
public computational chemistry database (PCCDB) project, http://pccdb.org 
 
 26 26  0  0  0  0  0  0  0  0999 V2000 
    0.9547    0.2725    0.2106 C   0  0  0  0  0  0  0  0  0  0  0  0 
    6.7169    2.4025   -0.2302 C   0  0  0  0  0  0  0  0  0  0  0  0 
    5.2314   -0.0056   -0.4558 C   0  0  0  0  0  0  0  0  0  0  0  0 
    4.4372   -1.1460   -0.5501 C   0  0  0  0  0  0  0  0  0  0  0  0 
    3.2551    1.2908    0.0647 C   0  0  0  0  0  0  0  0  0  0  0  0 
    0.5196   -4.3186   -0.5779 C   0  0  0  0  0  0  0  0  0  0  0  0 
    2.4946   -5.7104   -1.1045 C   0  0  0  0  0  0  0  0  0  0  0  0 
    2.4446    0.1637   -0.0239 C   0  0  0  0  0  0  0  0  0  0  0  0 
    1.9292   -4.4380   -0.7943 C   0  0  0  0  0  0  0  0  0  0  0  0 
    4.6401    1.2249   -0.1458 C   0  0  0  0  0  0  0  0  0  0  0  0 
    3.0602   -1.0680   -0.3387 C   0  0  0  0  0  0  0  0  0  0  0  0 
   -0.6038   -4.0791   -0.3779 N   0  0  0  0  0  0  0  0  0  0  0  0 
    2.9288   -6.7601   -1.3578 N   0  0  0  0  0  0  0  0  0  0  0  0 
    2.7346   -3.3958   -0.7150 N   0  0  0  0  0  0  0  0  0  0  0  0 
    2.2475   -2.2201   -0.4330 N   0  0  0  0  0  0  0  0  0  0  0  0 
    5.3108    2.4036   -0.0261 O   0  0  0  0  0  0  0  0  0  0  0  0 
    0.6776    1.3050    0.4374 H   0  0  0  0  0  0  0  0  0  0  0  0 
    0.6222   -0.3451    1.0558 H   0  0  0  0  0  0  0  0  0  0  0  0 
    0.3728   -0.0324   -0.6697 H   0  0  0  0  0  0  0  0  0  0  0  0 
    7.0388    3.4356   -0.0900 H   0  0  0  0  0  0  0  0  0  0  0  0 
    6.9756    2.0759   -1.2458 H   0  0  0  0  0  0  0  0  0  0  0  0 
    7.2283    1.7605    0.4986 H   0  0  0  0  0  0  0  0  0  0  0  0 
    6.2982   -0.0916   -0.6233 H   0  0  0  0  0  0  0  0  0  0  0  0 
    4.8835   -2.1040   -0.7902 H   0  0  0  0  0  0  0  0  0  0  0  0 
    2.8203    2.2564    0.3039 H   0  0  0  0  0  0  0  0  0  0  0  0 
    1.2441   -2.1162   -0.2749 H   0  0  0  0  0  0  0  0  0  0  0  0 
  1 17  1  0  0  0  0 
  1 18  1  0  0  0  0 
  2 20  1  0  0  0  0 
  2 16  1  0  0  0  0 
  2 22  1  0  0  0  0 
  3 10  1  0  0  0  0 
  4  3  2  0  0  0  0 
  4 11  1  0  0  0  0 
  5 25  1  0  0  0  0 
  6 12  3  0  0  0  0 
  7  9  1  0  0  0  0 
  8  5  1  0  0  0  0 
  8  1  1  0  0  0  0 
  9 14  2  0  0  0  0 
  9  6  1  0  0  0  0 
 10 16  1  0  0  0  0 
 10  5  2  0  0  0  0 
 11  8  2  0  0  0  0 
 13  7  3  0  0  0  0 
 14 15  1  0  0  0  0 
 15 11  1  0  0  0  0 
 15 26  1  0  0  0  0 
 19  1  1  0  0  0  0 
 21  2  1  0  0  0  0 
 23  3  1  0  0  0  0 
 24  4  1  0  0  0  0 
M  END 
>  <HBA> 
5 
 
>  <HBD> 
1 
 
>  <TPSA> 
81.2 
 
>  <cid> 
58853 
 
>  <dipole> 
7.21 
 
>  <excitation_energy_1> 
3.114 
 
>  <excitation_energy_2> 
4.027 
 
>  <excitation_energy_3> 
4.517 
 
>  <excitation_energy_4> 
4.712 
 
>  <homo_energy> 
-5.938 
 
>  <homo_lumo_gap> 
3.41 
 
>  <logP> 
1.892 
 
>  <lumo_energy> 
-2.528 
 
>  <melting_point> 
133.16 
 
>  <molecular_refractivity> 
60.0 
 
>  <oscillator_strength_1> 
0.5104 
 
>  <oscillator_strength_2> 
0.0091 
 
>  <oscillator_strength_3> 
0.0 
 
>  <oscillator_strength_4> 
0.136 
 
>  <open_babel_can_smiles> 
N#CC(=NNc1ccc(cc1C)OC)C#N 
 
>  <mulliken_charges> 
26 
1   -0.567558 
2   -0.220041 
3   -0.20979 
4   -0.162126 
5   -0.257658 
6   0.319971 
7   0.322446 
8   0.163789 
9   0.235926 
10   0.401829 
11   0.304187 
12   -0.470635 
13   -0.473178 
14   -0.191016 
15   -0.526335 
16   -0.506913 
17   0.179661 
18   0.175046 
19   0.174852 
20   0.176662 
21   0.15716 
22   0.15717 
23   0.145045 
24   0.173293 
25   0.143967 
26   0.354247 
 
>  <lowdin_charges> 
26 
1   -0.4519 
2   -0.275771 
3   -0.199558 
4   -0.154276 
5   -0.182216 
6   -0.026496 
7   -0.00829 
8   -0.00714 
9   -0.047367 
10   0.10202 
11   0.014215 
12   -0.102286 
13   -0.098744 
14   -0.0191 
15   -0.117786 
16   -0.192856 
17   0.171549 
18   0.165389 
19   0.165136 
20   0.165832 
21   0.147482 
22   0.149655 
23   0.167573 
24   0.180593 
25   0.170314 
26   0.284028 
 
$$$$ 
 
