PCCDB-ID:  20263 
public computational chemistry database (PCCDB) project, http://pccdb.org 
 
 18 19  0  0  0  0  0  0  0  0999 V2000 
    0.9790   -0.0611    0.0533 C   0  0  0  0  0  0  0  0  0  0  0  0 
    6.9693    0.8092    0.0539 C   0  0  0  0  0  0  0  0  0  0  0  0 
    6.9088   -0.5963    0.0542 C   0  0  0  0  0  0  0  0  0  0  0  0 
    5.8121    1.5845    0.0528 C   0  0  0  0  0  0  0  0  0  0  0  0 
    5.6852   -1.2669    0.0537 C   0  0  0  0  0  0  0  0  0  0  0  0 
    3.1844    1.3364    0.0529 C   0  0  0  0  0  0  0  0  0  0  0  0 
    2.4440    0.1967    0.0538 C   0  0  0  0  0  0  0  0  0  0  0  0 
    4.5699    0.9331    0.0531 C   0  0  0  0  0  0  0  0  0  0  0  0 
    4.5448   -0.4746    0.0542 C   0  0  0  0  0  0  0  0  0  0  0  0 
    3.2501   -0.9249    0.0547 O   0  0  0  0  0  0  0  0  0  0  0  0 
    0.4312    0.8848    0.0548 H   0  0  0  0  0  0  0  0  0  0  0  0 
    0.6770   -0.6380    0.9360 H   0  0  0  0  0  0  0  0  0  0  0  0 
    0.6770   -0.6350   -0.8315 H   0  0  0  0  0  0  0  0  0  0  0  0 
    7.9399    1.2977    0.0549 H   0  0  0  0  0  0  0  0  0  0  0  0 
    7.8306   -1.1712    0.0539 H   0  0  0  0  0  0  0  0  0  0  0  0 
    5.8717    2.6695    0.0508 H   0  0  0  0  0  0  0  0  0  0  0  0 
    5.6198   -2.3500    0.0535 H   0  0  0  0  0  0  0  0  0  0  0  0 
    2.7930    2.3446    0.0520 H   0  0  0  0  0  0  0  0  0  0  0  0 
  1  7  1  0  0  0  0 
  1 11  1  0  0  0  0 
  1 12  1  0  0  0  0 
  2  3  2  0  0  0  0 
  2 14  1  0  0  0  0 
  4  8  2  0  0  0  0 
  4  2  1  0  0  0  0 
  5  9  2  0  0  0  0 
  5  3  1  0  0  0  0 
  6  8  1  0  0  0  0 
  6  7  2  0  0  0  0 
  7 10  1  0  0  0  0 
  8  9  1  0  0  0  0 
  9 10  1  0  0  0  0 
 13  1  1  0  0  0  0 
 15  3  1  0  0  0  0 
 16  4  1  0  0  0  0 
 17  5  1  0  0  0  0 
 18  6  1  0  0  0  0 
M  END 
>  <HBA> 
1 
 
>  <HBD> 
0 
 
>  <TPSA> 
13.14 
 
>  <cid> 
20263 
 
>  <dipole> 
1.08 
 
>  <excitation_energy_1> 
4.902 
 
>  <excitation_energy_2> 
5.111 
 
>  <excitation_energy_3> 
5.432 
 
>  <excitation_energy_4> 
5.653 
 
>  <homo_energy> 
-5.747 
 
>  <homo_lumo_gap> 
5.426 
 
>  <logP> 
2.741 
 
>  <lumo_energy> 
-0.321 
 
>  <melting_point> 
51.72 
 
>  <molecular_refractivity> 
41.18 
 
>  <oscillator_strength_1> 
0.0984 
 
>  <oscillator_strength_2> 
0.1478 
 
>  <oscillator_strength_3> 
0.0016 
 
>  <oscillator_strength_4> 
0.0023 
 
>  <open_babel_can_smiles> 
Cc1cc2c(o1)cccc2 
 
>  <mulliken_charges> 
18 
1   -0.533253 
2   -0.135633 
3   -0.14796 
4   -0.209145 
5   -0.187766 
6   -0.254647 
7   0.353252 
8   0.129588 
9   0.317707 
10   -0.512704 
11   0.168035 
12   0.175387 
13   0.175403 
14   0.125309 
15   0.12834 
16   0.129191 
17   0.140512 
18   0.138385 
 
>  <lowdin_charges> 
18 
1   -0.442 
2   -0.168107 
3   -0.162597 
4   -0.16075 
5   -0.17482 
6   -0.229449 
7   0.094062 
8   -0.027732 
9   0.083423 
10   -0.126945 
11   0.169326 
12   0.170341 
13   0.170322 
14   0.156614 
15   0.158693 
16   0.156213 
17   0.165589 
18   0.167817 
 
$$$$ 
 
