PCCDB-ID:  47237 
public computational chemistry database (PCCDB) project, http://pccdb.org 
 
 21 22  0  0  1  0  0  0  0  0999 V2000 
    2.2085    0.9219   -1.4753 C   0  0  0  0  0  0  0  0  0  0  0  0 
    3.3303    1.5467   -1.9471 C   0  0  0  0  0  0  0  0  0  0  0  0 
    2.6212   -0.0476   -0.4663 C   0  0  0  0  0  0  0  0  0  0  0  0 
    4.6561    1.4192   -1.3509 C   0  0  0  0  0  0  0  0  0  0  0  0 
    2.8809    0.3313    0.8210 C   0  0  0  0  0  0  0  0  0  0  0  0 
    6.4499    1.1499    0.3768 C   0  0  0  0  0  0  0  0  0  0  0  0 
    6.4662    0.8602    1.7131 C   0  0  0  0  0  0  0  0  0  0  0  0 
    5.1080    0.9293   -0.1286 C   0  0  0  0  0  0  0  0  0  0  0  0 
    4.3164    0.4041    1.0303 C   0  0  0  0  0  0  0  0  0  0  0  0 
    5.1485    0.4247    2.1338 C   0  0  1  0  0  0  0  0  0  0  0  0 
    4.8235    0.0624    3.5296 C   0  0  0  0  0  0  0  0  0  0  0  0 
    5.5732    0.2517    4.4617 O   0  0  0  0  0  0  0  0  0  0  0  0 
    3.6016   -0.5065    3.7372 O   0  0  0  0  0  0  0  0  0  0  0  0 
    1.2015    1.1758   -1.7961 H   0  0  0  0  0  0  0  0  0  0  0  0 
    3.2555    2.2468   -2.7776 H   0  0  0  0  0  0  0  0  0  0  0  0 
    3.3916   -0.7094   -0.8678 H   0  0  0  0  0  0  0  0  0  0  0  0 
    5.4404    1.8905   -1.9437 H   0  0  0  0  0  0  0  0  0  0  0  0 
    2.2060    0.9581    1.4067 H   0  0  0  0  0  0  0  0  0  0  0  0 
    7.2809    1.5110   -0.2177 H   0  0  0  0  0  0  0  0  0  0  0  0 
    7.3096    0.9269    2.3889 H   0  0  0  0  0  0  0  0  0  0  0  0 
    3.1812   -0.7044    2.8812 H   0  0  0  0  0  0  0  0  0  0  0  0 
  1  3  1  0  0  0  0 
  2  1  2  0  0  0  0 
  2  4  1  0  0  0  0 
  3  5  1  0  0  0  0 
  4  8  1  0  0  0  0 
  5  9  1  0  0  0  0 
  5 18  1  0  0  0  0 
  6  7  2  0  0  0  0 
  7 10  1  0  0  0  0 
  7 20  1  0  0  0  0 
  8  6  1  0  0  0  0 
  8  9  2  0  0  0  0 
  9 10  1  0  0  0  0 
 10 11  1  6  0  0  0 
 11 13  1  0  0  0  0 
 11 12  2  0  0  0  0 
 14  1  1  0  0  0  0 
 15  2  1  0  0  0  0 
 16  3  1  0  0  0  0 
 17  4  1  0  0  0  0 
 19  6  1  0  0  0  0 
 21 13  1  0  0  0  0 
M  RAD  3   3   2   4   2   5   2 
M  END 
>  <HBA> 
2 
 
>  <HBD> 
1 
 
>  <TPSA> 
37.3 
 
>  <cid> 
47237 
 
>  <dipole> 
6.95 
 
>  <excitation_energy_1> 
2.437 
 
>  <excitation_energy_2> 
2.929 
 
>  <excitation_energy_3> 
3.481 
 
>  <excitation_energy_4> 
3.626 
 
>  <homo_energy> 
-6.055 
 
>  <homo_lumo_gap> 
3.124 
 
>  <logP> 
2.49 
 
>  <lumo_energy> 
-2.931 
 
>  <melting_point> 
132.15 
 
>  <molecular_refractivity> 
50.02 
 
>  <oscillator_strength_1> 
0.0192 
 
>  <oscillator_strength_2> 
0.0218 
 
>  <oscillator_strength_3> 
0.0157 
 
>  <oscillator_strength_4> 
0.0869 
 
>  <open_babel_can_smiles> 
OC(=O)[C@H]1C=CC2=C1[CH][CH]C=C[CH]2 
 
>  <mulliken_charges> 
21 
1   -0.096765 
2   -0.127014 
3   -0.209159 
4   -0.173424 
5   -0.180504 
6   -0.1851 
7   -0.143626 
8   0.090718 
9   0.01898 
10   -0.033203 
11   0.569277 
12   -0.459227 
13   -0.597363 
14   0.165046 
15   0.150504 
16   0.174523 
17   0.153549 
18   0.170652 
19   0.136939 
20   0.161686 
21   0.413513 
 
>  <lowdin_charges> 
21 
1   -0.110051 
2   -0.172061 
3   -0.139525 
4   -0.109874 
5   -0.177105 
6   -0.188821 
7   -0.134756 
8   0.000854 
9   -0.03051 
10   -0.070181 
11   0.193687 
12   -0.24825 
13   -0.365431 
14   0.17442 
15   0.166936 
16   0.170537 
17   0.17181 
18   0.172415 
19   0.164374 
20   0.177467 
21   0.354065 
 
$$$$ 
 
