PCCDB-ID:  66085 
public computational chemistry database (PCCDB) project, http://pccdb.org 
 
 28 27  0  0  0  0  0  0  0  0999 V2000 
    1.2877    0.1658   -0.3963 C   0  0  0  0  0  0  0  0  0  0  0  0 
    0.2366    0.5162   -1.4687 C   0  0  0  0  0  0  0  0  0  0  0  0 
    2.6966    0.7724   -0.5404 C   0  0  0  0  0  0  0  0  0  0  0  0 
   -0.2532    1.9796   -1.4981 C   0  0  0  0  0  0  0  0  0  0  0  0 
    3.4546    0.4118   -1.8297 C   0  0  0  0  0  0  0  0  0  0  0  0 
    0.6116    2.9425   -2.3407 C   0  0  0  0  0  0  0  0  0  0  0  0 
    3.7637   -1.0886   -2.0116 C   0  0  0  0  0  0  0  0  0  0  0  0 
    0.0876    4.3732   -2.3287 C   0  0  0  0  0  0  0  0  0  0  0  0 
    4.5911   -1.7263   -0.9830 N   0  0  0  0  0  0  0  0  0  0  0  0 
    0.6717    5.3112   -1.8486 O   0  0  0  0  0  0  0  0  0  0  0  0 
   -1.1403    4.5587   -2.8961 O   0  0  0  0  0  0  0  0  0  0  0  0 
    1.3743   -0.9290   -0.3655 H   0  0  0  0  0  0  0  0  0  0  0  0 
    0.8868    0.4563    0.5850 H   0  0  0  0  0  0  0  0  0  0  0  0 
   -0.6362   -0.1213   -1.2768 H   0  0  0  0  0  0  0  0  0  0  0  0 
    0.5970    0.2296   -2.4664 H   0  0  0  0  0  0  0  0  0  0  0  0 
    3.2935    0.4413    0.3213 H   0  0  0  0  0  0  0  0  0  0  0  0 
    2.6455    1.8641   -0.4463 H   0  0  0  0  0  0  0  0  0  0  0  0 
   -0.3257    2.3652   -0.4723 H   0  0  0  0  0  0  0  0  0  0  0  0 
   -1.2790    1.9917   -1.8928 H   0  0  0  0  0  0  0  0  0  0  0  0 
    4.4043    0.9666   -1.8406 H   0  0  0  0  0  0  0  0  0  0  0  0 
    2.8948    0.7612   -2.7090 H   0  0  0  0  0  0  0  0  0  0  0  0 
    0.6520    2.5831   -3.3795 H   0  0  0  0  0  0  0  0  0  0  0  0 
    1.6356    2.9849   -1.9690 H   0  0  0  0  0  0  0  0  0  0  0  0 
    4.2728   -1.2257   -2.9740 H   0  0  0  0  0  0  0  0  0  0  0  0 
    2.8301   -1.6612   -2.0817 H   0  0  0  0  0  0  0  0  0  0  0  0 
    5.4647   -1.2115   -0.8739 H   0  0  0  0  0  0  0  0  0  0  0  0 
    4.1251   -1.6847   -0.0781 H   0  0  0  0  0  0  0  0  0  0  0  0 
   -1.4753    3.7179   -3.2487 H   0  0  0  0  0  0  0  0  0  0  0  0 
  1 12  1  0  0  0  0 
  1 13  1  0  0  0  0 
  2 14  1  0  0  0  0 
  2  1  1  0  0  0  0 
  3 17  1  0  0  0  0 
  3  1  1  0  0  0  0 
  3 16  1  0  0  0  0 
  4  2  1  0  0  0  0 
  4 18  1  0  0  0  0 
  5  3  1  0  0  0  0 
  6  8  1  0  0  0  0 
  6 23  1  0  0  0  0 
  6  4  1  0  0  0  0 
  7  5  1  0  0  0  0 
  7  9  1  0  0  0  0 
  8 10  2  0  0  0  0 
  9 26  1  0  0  0  0 
  9 27  1  0  0  0  0 
 11  8  1  0  0  0  0 
 15  2  1  0  0  0  0 
 19  4  1  0  0  0  0 
 20  5  1  0  0  0  0 
 21  5  1  0  0  0  0 
 22  6  1  0  0  0  0 
 24  7  1  0  0  0  0 
 25  7  1  0  0  0  0 
 28 11  1  0  0  0  0 
M  END 
>  <HBA> 
3 
 
>  <HBD> 
2 
 
>  <TPSA> 
63.32 
 
>  <cid> 
66085 
 
>  <dipole> 
3.22 
 
>  <excitation_energy_1> 
5.557 
 
>  <excitation_energy_2> 
5.593 
 
>  <excitation_energy_3> 
5.778 
 
>  <excitation_energy_4> 
6.086 
 
>  <homo_energy> 
-6.368 
 
>  <homo_lumo_gap> 
6.607 
 
>  <logP> 
2.071 
 
>  <lumo_energy> 
0.239 
 
>  <melting_point> 
103.52 
 
>  <molecular_refractivity> 
45.05 
 
>  <oscillator_strength_1> 
0.0263 
 
>  <oscillator_strength_2> 
0.0013 
 
>  <oscillator_strength_3> 
0.0061 
 
>  <oscillator_strength_4> 
0.0045 
 
>  <open_babel_can_smiles> 
NCCCCCCCC(=O)O 
 
>  <mulliken_charges> 
28 
1   -0.263982 
2   -0.262933 
3   -0.266475 
4   -0.268756 
5   -0.266027 
6   -0.385209 
7   -0.147252 
8   0.587661 
9   -0.706286 
10   -0.43484 
11   -0.56397 
12   0.136065 
13   0.135434 
14   0.139887 
15   0.13693 
16   0.122004 
17   0.143816 
18   0.159755 
19   0.122888 
20   0.128376 
21   0.126597 
22   0.153444 
23   0.189292 
24   0.142977 
25   0.142227 
26   0.292635 
27   0.297501 
28   0.408242 
 
>  <lowdin_charges> 
28 
1   -0.277102 
2   -0.279367 
3   -0.284896 
4   -0.273159 
5   -0.300611 
6   -0.317803 
7   -0.210773 
8   0.196696 
9   -0.553187 
10   -0.238334 
11   -0.364223 
12   0.140658 
13   0.144035 
14   0.150271 
15   0.141356 
16   0.138672 
17   0.143577 
18   0.152842 
19   0.135445 
20   0.141221 
21   0.139957 
22   0.154321 
23   0.173639 
24   0.145209 
25   0.141444 
26   0.252385 
27   0.252001 
28   0.355728 
 
$$$$ 
 
