PCCDB-ID:  13252 
public computational chemistry database (PCCDB) project, http://pccdb.org 
 
 28 28  0  0  0  0  0  0  0  0999 V2000 
    0.8925   -0.8218    0.2159 C   0  0  0  0  0  0  0  0  0  0  0  0 
    5.4031   -3.0573   -0.3674 C   0  0  0  0  0  0  0  0  0  0  0  0 
    6.2480    4.2940   -0.2595 C   0  0  0  0  0  0  0  0  0  0  0  0 
    3.0299    0.5162    0.0921 C   0  0  0  0  0  0  0  0  0  0  0  0 
    5.1791   -0.5489   -0.1831 C   0  0  0  0  0  0  0  0  0  0  0  0 
    2.3937   -0.7262    0.0901 C   0  0  0  0  0  0  0  0  0  0  0  0 
    4.5750   -1.8077   -0.1914 C   0  0  0  0  0  0  0  0  0  0  0  0 
    4.4105    0.5979   -0.0350 C   0  0  0  0  0  0  0  0  0  0  0  0 
    3.1729   -1.8969   -0.0458 C   0  0  0  0  0  0  0  0  0  0  0  0 
    5.3979    2.5216    1.0081 C   0  0  0  0  0  0  0  0  0  0  0  0 
    2.5443   -3.1495   -0.1089 N   0  0  0  0  0  0  0  0  0  0  0  0 
    5.9642    3.6525    1.0165 N   0  0  0  0  0  0  0  0  0  0  0  0 
    5.1009    1.8621    2.1512 O   0  0  0  0  0  0  0  0  0  0  0  0 
    5.0318    1.8546   -0.1145 O   0  0  0  0  0  0  0  0  0  0  0  0 
    0.4399    0.1714    0.2836 H   0  0  0  0  0  0  0  0  0  0  0  0 
    0.5877   -1.3767    1.1162 H   0  0  0  0  0  0  0  0  0  0  0  0 
    0.4461   -1.3368   -0.6452 H   0  0  0  0  0  0  0  0  0  0  0  0 
    6.4595   -2.8117   -0.5075 H   0  0  0  0  0  0  0  0  0  0  0  0 
    5.0752   -3.6403   -1.2384 H   0  0  0  0  0  0  0  0  0  0  0  0 
    5.3401   -3.7225    0.5072 H   0  0  0  0  0  0  0  0  0  0  0  0 
    6.7817    5.2301   -0.0714 H   0  0  0  0  0  0  0  0  0  0  0  0 
    5.3301    4.5306   -0.8155 H   0  0  0  0  0  0  0  0  0  0  0  0 
    6.8718    3.6680   -0.9125 H   0  0  0  0  0  0  0  0  0  0  0  0 
    2.4476    1.4276    0.1906 H   0  0  0  0  0  0  0  0  0  0  0  0 
    6.2554   -0.4580   -0.2976 H   0  0  0  0  0  0  0  0  0  0  0  0 
    1.6430   -3.1949    0.3492 H   0  0  0  0  0  0  0  0  0  0  0  0 
    3.1267   -3.9303    0.1661 H   0  0  0  0  0  0  0  0  0  0  0  0 
    5.4185    2.4502    2.8590 H   0  0  0  0  0  0  0  0  0  0  0  0 
  1 15  1  0  0  0  0 
  1 16  1  0  0  0  0 
  2  7  1  0  0  0  0 
  2 20  1  0  0  0  0 
  3 21  1  0  0  0  0 
  3 12  1  0  0  0  0 
  4 24  1  0  0  0  0 
  5  8  1  0  0  0  0 
  6  4  1  0  0  0  0 
  6  1  1  0  0  0  0 
  7  5  2  0  0  0  0 
  7  9  1  0  0  0  0 
  8  4  2  0  0  0  0 
  9  6  2  0  0  0  0 
 10 12  2  0  0  0  0 
 10 13  1  0  0  0  0 
 11  9  1  0  0  0  0 
 11 27  1  0  0  0  0 
 11 26  1  0  0  0  0 
 13 28  1  0  0  0  0 
 14  8  1  0  0  0  0 
 14 10  1  0  0  0  0 
 17  1  1  0  0  0  0 
 18  2  1  0  0  0  0 
 19  2  1  0  0  0  0 
 22  3  1  0  0  0  0 
 23  3  1  0  0  0  0 
 25  5  1  0  0  0  0 
M  END 
>  <HBA> 
4 
 
>  <HBD> 
2 
 
>  <TPSA> 
64.35 
 
>  <cid> 
13252 
 
>  <dipole> 
3.47 
 
>  <excitation_energy_1> 
4.616 
 
>  <excitation_energy_2> 
4.72 
 
>  <excitation_energy_3> 
5.237 
 
>  <excitation_energy_4> 
5.294 
 
>  <homo_energy> 
-5.372 
 
>  <homo_lumo_gap> 
5.519 
 
>  <logP> 
2.576 
 
>  <lumo_energy> 
0.147 
 
>  <melting_point> 
126.5 
 
>  <molecular_refractivity> 
55.47 
 
>  <oscillator_strength_1> 
0.0094 
 
>  <oscillator_strength_2> 
0.052 
 
>  <oscillator_strength_3> 
0.0168 
 
>  <oscillator_strength_4> 
0.0003 
 
>  <open_babel_can_smiles> 
C/N=C(\Oc1cc(C)c(c(c1)C)N)/O 
 
>  <mulliken_charges> 
28 
1   -0.555805 
2   -0.555688 
3   -0.312477 
4   -0.230271 
5   -0.234303 
6   0.164988 
7   0.164671 
8   0.36983 
9   0.180673 
10   0.708413 
11   -0.799323 
12   -0.491828 
13   -0.594214 
14   -0.546748 
15   0.164081 
16   0.150219 
17   0.169378 
18   0.163998 
19   0.169402 
20   0.150367 
21   0.148788 
22   0.14654 
23   0.146231 
24   0.1284 
25   0.128454 
26   0.322554 
27   0.322587 
28   0.421082 
 
>  <lowdin_charges> 
28 
1   -0.445615 
2   -0.444236 
3   -0.354136 
4   -0.174814 
5   -0.173069 
6   -0.030032 
7   -0.030892 
8   0.080206 
9   0.038378 
10   0.188288 
11   -0.492739 
12   -0.27574 
13   -0.36213 
14   -0.162494 
15   0.162491 
16   0.151151 
17   0.161727 
18   0.161453 
19   0.161586 
20   0.151188 
21   0.149325 
22   0.14485 
23   0.145197 
24   0.163793 
25   0.161549 
26   0.275577 
27   0.276848 
28   0.372287 
 
$$$$ 
 
