PCCDB-ID:  7771 
public computational chemistry database (PCCDB) project, http://pccdb.org 
 
 19 19  0  0  0  0  0  0  0  0999 V2000 
    1.0179    0.0939    0.1084 C   0  0  0  0  0  0  0  0  0  0  0  0 
    5.3510   -2.4974   -0.3977 C   0  0  0  0  0  0  0  0  0  0  0  0 
    3.2609    1.2673   -0.0712 C   0  0  0  0  0  0  0  0  0  0  0  0 
    4.6514    1.2431   -0.2032 C   0  0  0  0  0  0  0  0  0  0  0  0 
    3.2244   -1.1273   -0.1506 C   0  0  0  0  0  0  0  0  0  0  0  0 
    2.5221    0.0833   -0.0417 C   0  0  0  0  0  0  0  0  0  0  0  0 
    4.6115   -1.1886   -0.2826 C   0  0  0  0  0  0  0  0  0  0  0  0 
    5.3218    0.0257   -0.3077 C   0  0  0  0  0  0  0  0  0  0  0  0 
    6.6861   -0.0575   -0.4416 O   0  0  0  0  0  0  0  0  0  0  0  0 
    0.6242    1.1154    0.0927 H   0  0  0  0  0  0  0  0  0  0  0  0 
    0.7020   -0.3667    1.0536 H   0  0  0  0  0  0  0  0  0  0  0  0 
    0.5267   -0.4639   -0.6987 H   0  0  0  0  0  0  0  0  0  0  0  0 
    4.6587   -3.3433   -0.3470 H   0  0  0  0  0  0  0  0  0  0  0  0 
    6.0911   -2.6094    0.4038 H   0  0  0  0  0  0  0  0  0  0  0  0 
    5.9045   -2.5618   -1.3424 H   0  0  0  0  0  0  0  0  0  0  0  0 
    2.7515    2.2248    0.0089 H   0  0  0  0  0  0  0  0  0  0  0  0 
    5.2141    2.1754   -0.2244 H   0  0  0  0  0  0  0  0  0  0  0  0 
    2.6684   -2.0635   -0.1303 H   0  0  0  0  0  0  0  0  0  0  0  0 
    7.0521    0.8403   -0.4546 H   0  0  0  0  0  0  0  0  0  0  0  0 
  1 11  1  0  0  0  0 
  2 13  1  0  0  0  0 
  2  7  1  0  0  0  0 
  2 14  1  0  0  0  0 
  3  6  1  0  0  0  0 
  3 16  1  0  0  0  0 
  4  3  2  0  0  0  0 
  5 18  1  0  0  0  0 
  5  6  2  0  0  0  0 
  6  1  1  0  0  0  0 
  7  5  1  0  0  0  0 
  8  7  2  0  0  0  0 
  8  4  1  0  0  0  0 
  9  8  1  0  0  0  0 
 10  1  1  0  0  0  0 
 12  1  1  0  0  0  0 
 15  2  1  0  0  0  0 
 17  4  1  0  0  0  0 
 19  9  1  0  0  0  0 
M  END 
>  <HBA> 
1 
 
>  <HBD> 
1 
 
>  <TPSA> 
20.23 
 
>  <cid> 
7771 
 
>  <dipole> 
1.07 
 
>  <excitation_energy_1> 
4.901 
 
>  <excitation_energy_2> 
4.956 
 
>  <excitation_energy_3> 
5.55 
 
>  <excitation_energy_4> 
5.623 
 
>  <homo_energy> 
-5.627 
 
>  <homo_lumo_gap> 
5.837 
 
>  <logP> 
2.009 
 
>  <lumo_energy> 
0.21 
 
>  <melting_point> 
52.97 
 
>  <molecular_refractivity> 
38.4 
 
>  <oscillator_strength_1> 
0.0462 
 
>  <oscillator_strength_2> 
0.0001 
 
>  <oscillator_strength_3> 
0.0003 
 
>  <oscillator_strength_4> 
0.0392 
 
>  <open_babel_can_smiles> 
Cc1ccc(c(c1)C)O 
 
>  <mulliken_charges> 
19 
1   -0.530523 
2   -0.514207 
3   -0.197045 
4   -0.186356 
5   -0.249311 
6   0.188045 
7   0.150605 
8   0.288022 
9   -0.645946 
10   0.151075 
11   0.158951 
12   0.157404 
13   0.14624 
14   0.165838 
15   0.165544 
16   0.119336 
17   0.112764 
18   0.113792 
19   0.405772 
 
>  <lowdin_charges> 
19 
1   -0.441768 
2   -0.437329 
3   -0.164654 
4   -0.214547 
5   -0.16773 
6   -0.017675 
7   -0.02503 
8   0.09167 
9   -0.385755 
10   0.153917 
11   0.157765 
12   0.158358 
13   0.154012 
14   0.163742 
15   0.162926 
16   0.153666 
17   0.150997 
18   0.151914 
19   0.355522 
 
$$$$ 
 
