PCCDB-ID:  11099 
public computational chemistry database (PCCDB) project, http://pccdb.org 
 
 25 25  0  0  1  0  0  0  0  0999 V2000 
    1.6281    1.0605    1.1810 C   0  0  0  0  0  0  0  0  0  0  0  0 
    5.2287   -0.6377    1.7902 C   0  0  0  0  0  0  0  0  0  0  0  0 
    5.1955    1.4767    0.6583 C   0  0  0  0  0  0  0  0  0  0  0  0 
    6.3142   -0.2146    2.5588 C   0  0  0  0  0  0  0  0  0  0  0  0 
    6.2798    1.9110    1.4136 C   0  0  0  0  0  0  0  0  0  0  0  0 
    2.2953    0.7314   -0.1596 C   0  0  1  0  0  0  0  0  0  0  0  0 
    4.6396    0.1980    0.8355 C   0  0  0  0  0  0  0  0  0  0  0  0 
    6.8426    1.0647    2.3753 C   0  0  0  0  0  0  0  0  0  0  0  0 
    3.4653   -0.2872   -0.0107 C   0  0  1  0  0  0  0  0  0  0  0  0 
    1.2667    0.2666   -1.0985 N   0  0  0  0  0  0  0  0  0  0  0  0 
    7.9046    1.5428    3.0933 O   0  0  0  0  0  0  0  0  0  0  0  0 
    2.9600   -1.5472    0.4418 O   0  0  0  0  0  0  0  0  0  0  0  0 
    2.3519    1.4300    1.9148 H   0  0  0  0  0  0  0  0  0  0  0  0 
    1.1303    0.1763    1.6015 H   0  0  0  0  0  0  0  0  0  0  0  0 
    0.8555    1.8188    1.0305 H   0  0  0  0  0  0  0  0  0  0  0  0 
    4.8464   -1.6448    1.9221 H   0  0  0  0  0  0  0  0  0  0  0  0 
    4.7836    2.1523   -0.0866 H   0  0  0  0  0  0  0  0  0  0  0  0 
    6.7528   -0.8862    3.2953 H   0  0  0  0  0  0  0  0  0  0  0  0 
    6.7044    2.8997    1.2707 H   0  0  0  0  0  0  0  0  0  0  0  0 
    2.7070    1.6602   -0.5733 H   0  0  0  0  0  0  0  0  0  0  0  0 
    3.8285   -0.5058   -1.0244 H   0  0  0  0  0  0  0  0  0  0  0  0 
    1.0132   -0.6862   -0.8325 H   0  0  0  0  0  0  0  0  0  0  0  0 
    1.6702    0.1869   -2.0324 H   0  0  0  0  0  0  0  0  0  0  0  0 
    8.1982    0.8579    3.7140 H   0  0  0  0  0  0  0  0  0  0  0  0 
    2.6620   -1.4229    1.3582 H   0  0  0  0  0  0  0  0  0  0  0  0 
  1 14  1  0  0  0  0 
  1 13  1  0  0  0  0 
  2 16  1  0  0  0  0 
  2  4  2  0  0  0  0 
  3  7  2  0  0  0  0 
  3  5  1  0  0  0  0 
  4 18  1  0  0  0  0 
  5  8  2  0  0  0  0 
  6 20  1  6  0  0  0 
  6  9  1  0  0  0  0 
  6  1  1  0  0  0  0 
  7  2  1  0  0  0  0 
  8  4  1  0  0  0  0 
  8 11  1  0  0  0  0 
  9 21  1  6  0  0  0 
  9 12  1  0  0  0  0 
  9  7  1  0  0  0  0 
 10 22  1  0  0  0  0 
 10  6  1  0  0  0  0 
 11 24  1  0  0  0  0 
 12 25  1  0  0  0  0 
 15  1  1  0  0  0  0 
 17  3  1  0  0  0  0 
 19  5  1  0  0  0  0 
 23 10  1  0  0  0  0 
M  END 
>  <HBA> 
3 
 
>  <HBD> 
3 
 
>  <TPSA> 
66.48 
 
>  <cid> 
11099 
 
>  <dipole> 
1.99 
 
>  <excitation_energy_1> 
4.884 
 
>  <excitation_energy_2> 
5.159 
 
>  <excitation_energy_3> 
5.344 
 
>  <excitation_energy_4> 
5.461 
 
>  <homo_energy> 
-5.88 
 
>  <homo_lumo_gap> 
5.731 
 
>  <logP> 
1.473 
 
>  <lumo_energy> 
-0.15 
 
>  <melting_point> 
119.66 
 
>  <molecular_refractivity> 
46.91 
 
>  <oscillator_strength_1> 
0.032 
 
>  <oscillator_strength_2> 
0.0021 
 
>  <oscillator_strength_3> 
0.0436 
 
>  <oscillator_strength_4> 
0.0172 
 
>  <open_babel_can_smiles> 
O[C@H](c1ccc(cc1)O)[C@@H](N)C 
 
>  <mulliken_charges> 
25 
1   -0.454283 
2   -0.19966 
3   -0.189855 
4   -0.193524 
5   -0.162397 
6   0.005331 
7   0.120907 
8   0.352856 
9   0.06002 
10   -0.705666 
11   -0.64316 
12   -0.629067 
13   0.15321 
14   0.127273 
15   0.167047 
16   0.136262 
17   0.130561 
18   0.118883 
19   0.141213 
20   0.131529 
21   0.142865 
22   0.300455 
23   0.290453 
24   0.407466 
25   0.391281 
 
>  <lowdin_charges> 
25 
1   -0.458455 
2   -0.159392 
3   -0.156791 
4   -0.214558 
5   -0.182779 
6   -0.083299 
7   -0.046143 
8   0.102143 
9   -0.017801 
10   -0.544923 
11   -0.379702 
12   -0.454616 
13   0.156026 
14   0.140917 
15   0.165805 
16   0.161671 
17   0.158725 
18   0.154365 
19   0.167331 
20   0.141982 
21   0.147317 
22   0.253595 
23   0.250719 
24   0.358793 
25   0.339069 
 
$$$$ 
 
