PCCDB-ID:  7529 
public computational chemistry database (PCCDB) project, http://pccdb.org 
 
 19 19  0  0  0  0  0  0  0  0999 V2000 
    1.4781    0.8207    0.5894 C   0  0  0  0  0  0  0  0  0  0  0  0 
    3.8461    2.9162   -3.8250 C   0  0  0  0  0  0  0  0  0  0  0  0 
    2.0875   -0.1011   -0.1668 C   0  0  0  0  0  0  0  0  0  0  0  0 
    4.1251   -0.8457   -3.2446 C   0  0  0  0  0  0  0  0  0  0  0  0 
    4.2565    0.4151   -3.8241 C   0  0  0  0  0  0  0  0  0  0  0  0 
    3.4179   -0.9989   -2.0538 C   0  0  0  0  0  0  0  0  0  0  0  0 
    2.9729    1.3697   -2.0261 C   0  0  0  0  0  0  0  0  0  0  0  0 
    3.6819    1.5418   -3.2165 C   0  0  0  0  0  0  0  0  0  0  0  0 
    2.8284    0.1084   -1.4220 C   0  0  0  0  0  0  0  0  0  0  0  0 
    0.9611    0.5393    1.5017 H   0  0  0  0  0  0  0  0  0  0  0  0 
    1.4679    1.8781    0.3392 H   0  0  0  0  0  0  0  0  0  0  0  0 
    3.9626    2.8616   -4.9126 H   0  0  0  0  0  0  0  0  0  0  0  0 
    4.7348    3.4242   -3.4272 H   0  0  0  0  0  0  0  0  0  0  0  0 
    2.9835    3.5559   -3.6095 H   0  0  0  0  0  0  0  0  0  0  0  0 
    2.0486   -1.1393    0.1639 H   0  0  0  0  0  0  0  0  0  0  0  0 
    4.5719   -1.7126   -3.7246 H   0  0  0  0  0  0  0  0  0  0  0  0 
    4.8055    0.5296   -4.7560 H   0  0  0  0  0  0  0  0  0  0  0  0 
    3.3149   -1.9847   -1.6062 H   0  0  0  0  0  0  0  0  0  0  0  0 
    2.5188    2.2404   -1.5594 H   0  0  0  0  0  0  0  0  0  0  0  0 
  1 10  1  0  0  0  0 
  2 14  1  0  0  0  0 
  2 13  1  0  0  0  0 
  2  8  1  0  0  0  0 
  3 15  1  0  0  0  0 
  3  1  2  0  0  0  0 
  4  6  1  0  0  0  0 
  5  4  2  0  0  0  0 
  5  8  1  0  0  0  0 
  6 18  1  0  0  0  0 
  6  9  2  0  0  0  0 
  7 19  1  0  0  0  0 
  7  9  1  0  0  0  0 
  8  7  2  0  0  0  0 
  9  3  1  0  0  0  0 
 11  1  1  0  0  0  0 
 12  2  1  0  0  0  0 
 16  4  1  0  0  0  0 
 17  5  1  0  0  0  0 
M  END 
>  <HBA> 
0 
 
>  <HBD> 
0 
 
>  <TPSA> 
0.0 
 
>  <cid> 
7529 
 
>  <dipole> 
0.45 
 
>  <excitation_energy_1> 
4.645 
 
>  <excitation_energy_2> 
4.853 
 
>  <excitation_energy_3> 
5.641 
 
>  <excitation_energy_4> 
5.669 
 
>  <homo_energy> 
-5.957 
 
>  <homo_lumo_gap> 
5.176 
 
>  <logP> 
2.638 
 
>  <lumo_energy> 
-0.781 
 
>  <melting_point> 
1.29 
 
>  <molecular_refractivity> 
41.5 
 
>  <oscillator_strength_1> 
0.1023 
 
>  <oscillator_strength_2> 
0.2641 
 
>  <oscillator_strength_3> 
0.1287 
 
>  <oscillator_strength_4> 
0.0835 
 
>  <open_babel_can_smiles> 
C=Cc1cccc(c1)C 
 
>  <mulliken_charges> 
19 
1   -0.35011 
2   -0.529132 
3   -0.118392 
4   -0.125348 
5   -0.180645 
6   -0.201347 
7   -0.240416 
8   0.180556 
9   0.179318 
10   0.143185 
11   0.141473 
12   0.15613 
13   0.166149 
14   0.157326 
15   0.126182 
16   0.128502 
17   0.121542 
18   0.126149 
19   0.118878 
 
>  <lowdin_charges> 
19 
1   -0.332338 
2   -0.441475 
3   -0.144178 
4   -0.155258 
5   -0.166242 
6   -0.165601 
7   -0.166086 
8   0.003413 
9   -0.001168 
10   0.162541 
11   0.154542 
12   0.155773 
13   0.162663 
14   0.158719 
15   0.152562 
16   0.158318 
17   0.154181 
18   0.154998 
19   0.154637 
 
$$$$ 
 
