PCCDB-ID:  61243 
public computational chemistry database (PCCDB) project, http://pccdb.org 
 
 24 24  0  0  1  0  0  0  0  0999 V2000 
    3.4245    0.1304    3.3436 C   0  0  0  0  0  0  0  0  0  0  0  0 
    3.0178    0.4086    2.1049 C   0  0  0  0  0  0  0  0  0  0  0  0 
    7.8763    2.0958    2.1635 C   0  0  0  0  0  0  0  0  0  0  0  0 
    7.5300    0.8289    1.6881 C   0  0  0  0  0  0  0  0  0  0  0  0 
    6.8933    3.0782    2.2713 C   0  0  0  0  0  0  0  0  0  0  0  0 
    6.2122    0.5562    1.3264 C   0  0  0  0  0  0  0  0  0  0  0  0 
    5.5720    2.8004    1.9095 C   0  0  0  0  0  0  0  0  0  0  0  0 
    2.9397    2.3418    0.4726 C   0  0  0  0  0  0  0  0  0  0  0  0 
    2.3923    3.3196    1.4925 C   0  0  0  0  0  0  0  0  0  0  0  0 
    3.7875    1.1622    1.0308 C   0  0  1  0  0  0  0  0  0  0  0  0 
    5.2106    1.5342    1.4319 C   0  0  0  0  0  0  0  0  0  0  0  0 
    2.4034    4.5245    1.3540 O   0  0  0  0  0  0  0  0  0  0  0  0 
    2.7917   -0.4285    4.0276 H   0  0  0  0  0  0  0  0  0  0  0  0 
    4.3954    0.4424    3.7170 H   0  0  0  0  0  0  0  0  0  0  0  0 
    2.0325    0.0628    1.7849 H   0  0  0  0  0  0  0  0  0  0  0  0 
    8.9035    2.3148    2.4422 H   0  0  0  0  0  0  0  0  0  0  0  0 
    8.2868    0.0543    1.5946 H   0  0  0  0  0  0  0  0  0  0  0  0 
    7.1502    4.0704    2.6327 H   0  0  0  0  0  0  0  0  0  0  0  0 
    5.9502   -0.4327    0.9563 H   0  0  0  0  0  0  0  0  0  0  0  0 
    4.8340    3.5914    1.9905 H   0  0  0  0  0  0  0  0  0  0  0  0 
    3.4918    2.9015   -0.2885 H   0  0  0  0  0  0  0  0  0  0  0  0 
    2.0553    1.9056   -0.0195 H   0  0  0  0  0  0  0  0  0  0  0  0 
    1.9350    2.8577    2.3940 H   0  0  0  0  0  0  0  0  0  0  0  0 
    3.8803    0.4631    0.1854 H   0  0  0  0  0  0  0  0  0  0  0  0 
  1 14  1  0  0  0  0 
  1 13  1  0  0  0  0 
  2  1  2  0  0  0  0 
  3  5  1  0  0  0  0 
  3 16  1  0  0  0  0 
  4  3  2  0  0  0  0 
  5 18  1  0  0  0  0 
  6 11  2  0  0  0  0 
  6  4  1  0  0  0  0 
  7 20  1  0  0  0  0 
  7  5  2  0  0  0  0 
  8 10  1  0  0  0  0 
  8  9  1  0  0  0  0 
  9 23  1  0  0  0  0 
 10 24  1  6  0  0  0 
 10 11  1  0  0  0  0 
 10  2  1  0  0  0  0 
 11  7  1  0  0  0  0 
 12  9  2  0  0  0  0 
 15  2  1  0  0  0  0 
 17  4  1  0  0  0  0 
 19  6  1  0  0  0  0 
 21  8  1  0  0  0  0 
 22  8  1  0  0  0  0 
M  END 
>  <HBA> 
1 
 
>  <HBD> 
0 
 
>  <TPSA> 
17.07 
 
>  <cid> 
61243 
 
>  <dipole> 
2.72 
 
>  <excitation_energy_1> 
4.087 
 
>  <excitation_energy_2> 
5.061 
 
>  <excitation_energy_3> 
5.172 
 
>  <excitation_energy_4> 
5.397 
 
>  <homo_energy> 
-6.566 
 
>  <homo_lumo_gap> 
5.837 
 
>  <logP> 
2.545 
 
>  <lumo_energy> 
-0.729 
 
>  <melting_point> 
15.62 
 
>  <molecular_refractivity> 
50.36 
 
>  <oscillator_strength_1> 
0.0005 
 
>  <oscillator_strength_2> 
0.0192 
 
>  <oscillator_strength_3> 
0.0017 
 
>  <oscillator_strength_4> 
0.0118 
 
>  <open_babel_can_smiles> 
C=C[C@H](c1ccccc1)CC=O 
 
>  <mulliken_charges> 
24 
1   -0.338265 
2   -0.061641 
3   -0.128435 
4   -0.128607 
5   -0.133546 
6   -0.174859 
7   -0.194621 
8   -0.357552 
9   0.268885 
10   -0.216743 
11   0.150859 
12   -0.399467 
13   0.1425 
14   0.158366 
15   0.125728 
16   0.130659 
17   0.130658 
18   0.134808 
19   0.127962 
20   0.151387 
21   0.175744 
22   0.164678 
23   0.118097 
24   0.153406 
 
>  <lowdin_charges> 
24 
1   -0.337103 
2   -0.159214 
3   -0.156399 
4   -0.156978 
5   -0.151923 
6   -0.1622 
7   -0.172841 
8   -0.310996 
9   0.048172 
10   -0.121283 
11   -0.005381 
12   -0.221785 
13   0.162911 
14   0.167183 
15   0.149257 
16   0.15734 
17   0.159141 
18   0.159399 
19   0.155855 
20   0.168897 
21   0.170545 
22   0.170782 
23   0.126031 
24   0.16059 
 
$$$$ 
 
