PCCDB-ID:  18334 
public computational chemistry database (PCCDB) project, http://pccdb.org 
 
 28 28  0  0  0  0  0  0  0  0999 V2000 
    4.2127    0.7315    0.2651 C   0  0  0  0  0  0  0  0  0  0  0  0 
    6.7529   -4.8651   -2.1029 C   0  0  0  0  0  0  0  0  0  0  0  0 
    5.9910   -0.6040   -3.0650 C   0  0  0  0  0  0  0  0  0  0  0  0 
    2.7692   -2.2934   -0.3740 C   0  0  0  0  0  0  0  0  0  0  0  0 
    4.2451   -4.0986   -1.0373 C   0  0  0  0  0  0  0  0  0  0  0  0 
    3.0202   -3.6612   -0.5098 C   0  0  0  0  0  0  0  0  0  0  0  0 
    3.7336   -1.3584   -0.7659 C   0  0  0  0  0  0  0  0  0  0  0  0 
    5.2104   -3.1705   -1.4315 C   0  0  0  0  0  0  0  0  0  0  0  0 
    4.9556   -1.7862   -1.3017 C   0  0  0  0  0  0  0  0  0  0  0  0 
    2.0003   -4.6675   -0.0795 C   0  0  0  0  0  0  0  0  0  0  0  0 
    2.2130   -5.7947    0.4716 N   0  0  0  0  0  0  0  0  0  0  0  0 
    0.7011   -4.3102   -0.2932 O   0  0  0  0  0  0  0  0  0  0  0  0 
    3.4270   -0.0266   -0.6643 O   0  0  0  0  0  0  0  0  0  0  0  0 
    6.4167   -3.4900   -1.9755 O   0  0  0  0  0  0  0  0  0  0  0  0 
    5.9088   -0.8672   -1.6590 O   0  0  0  0  0  0  0  0  0  0  0  0 
    3.8188    1.7494    0.2266 H   0  0  0  0  0  0  0  0  0  0  0  0 
    5.2696    0.7293   -0.0136 H   0  0  0  0  0  0  0  0  0  0  0  0 
    4.0949    0.3353    1.2820 H   0  0  0  0  0  0  0  0  0  0  0  0 
    6.0650   -5.3876   -2.7802 H   0  0  0  0  0  0  0  0  0  0  0  0 
    6.7540   -5.3683   -1.1278 H   0  0  0  0  0  0  0  0  0  0  0  0 
    7.7598   -4.8861   -2.5226 H   0  0  0  0  0  0  0  0  0  0  0  0 
    6.7712    0.1506   -3.1858 H   0  0  0  0  0  0  0  0  0  0  0  0 
    5.0392   -0.2111   -3.4427 H   0  0  0  0  0  0  0  0  0  0  0  0 
    6.2679   -1.5079   -3.6177 H   0  0  0  0  0  0  0  0  0  0  0  0 
    1.8471   -1.9245    0.0641 H   0  0  0  0  0  0  0  0  0  0  0  0 
    4.4147   -5.1614   -1.1621 H   0  0  0  0  0  0  0  0  0  0  0  0 
    3.2122   -5.9068    0.6491 H   0  0  0  0  0  0  0  0  0  0  0  0 
    0.6843   -3.5536   -0.9000 H   0  0  0  0  0  0  0  0  0  0  0  0 
  1 18  1  0  0  0  0 
  2 14  1  0  0  0  0 
  2 20  1  0  0  0  0 
  3 15  1  0  0  0  0 
  4 25  1  0  0  0  0 
  5  6  2  0  0  0  0 
  6  4  1  0  0  0  0 
  6 10  1  0  0  0  0 
  7 13  1  0  0  0  0 
  7  4  2  0  0  0  0 
  8  9  2  0  0  0  0 
  8  5  1  0  0  0  0 
  9  7  1  0  0  0  0 
 10 11  2  0  0  0  0 
 11 27  1  0  0  0  0 
 12 10  1  0  0  0  0 
 13  1  1  0  0  0  0 
 14  8  1  0  0  0  0 
 15  9  1  0  0  0  0 
 16  1  1  0  0  0  0 
 17  1  1  0  0  0  0 
 19  2  1  0  0  0  0 
 21  2  1  0  0  0  0 
 22  3  1  0  0  0  0 
 23  3  1  0  0  0  0 
 24  3  1  0  0  0  0 
 26  5  1  0  0  0  0 
 28 12  1  0  0  0  0 
M  END 
>  <HBA> 
5 
 
>  <HBD> 
1 
 
>  <TPSA> 
70.78 
 
>  <cid> 
18334 
 
>  <dipole> 
4.87 
 
>  <excitation_energy_1> 
4.654 
 
>  <excitation_energy_2> 
4.929 
 
>  <excitation_energy_3> 
5.104 
 
>  <excitation_energy_4> 
5.534 
 
>  <homo_energy> 
-6.272 
 
>  <homo_lumo_gap> 
5.358 
 
>  <logP> 
1.512 
 
>  <lumo_energy> 
-0.914 
 
>  <melting_point> 
111.45 
 
>  <molecular_refractivity> 
54.01 
 
>  <oscillator_strength_1> 
0.0308 
 
>  <oscillator_strength_2> 
0.164 
 
>  <oscillator_strength_3> 
0.0028 
 
>  <oscillator_strength_4> 
0.0801 
 
>  <open_babel_can_smiles> 
COc1cc(cc(c1OC)OC)C(=N)O 
 
>  <mulliken_charges> 
28 
1   -0.220265 
2   -0.219651 
3   -0.211021 
4   -0.265867 
5   -0.264151 
6   0.072635 
7   0.33835 
8   0.356843 
9   0.265951 
10   0.423266 
11   -0.585621 
12   -0.5768 
13   -0.526799 
14   -0.506773 
15   -0.519692 
16   0.16179 
17   0.176415 
18   0.145553 
19   0.158543 
20   0.158547 
21   0.176439 
22   0.162943 
23   0.153202 
24   0.159457 
25   0.148339 
26   0.146261 
27   0.284376 
28   0.407731 
 
>  <lowdin_charges> 
28 
1   -0.272926 
2   -0.276395 
3   -0.271356 
4   -0.205741 
5   -0.218837 
6   -0.041668 
7   0.084786 
8   0.089426 
9   0.047923 
10   0.125767 
11   -0.390261 
12   -0.362335 
13   -0.22371 
14   -0.189407 
15   -0.220123 
16   0.156982 
17   0.155442 
18   0.141333 
19   0.149999 
20   0.149378 
21   0.165758 
22   0.159282 
23   0.146579 
24   0.149841 
25   0.171387 
26   0.168014 
27   0.254351 
28   0.356512 
 
$$$$ 
 
