PCCDB-ID:  28661 
public computational chemistry database (PCCDB) project, http://pccdb.org 
 
 22 21  0  0  0  0  0  0  0  0999 V2000 
    7.0976   -1.6915   -0.2662 C   0  0  0  0  0  0  0  0  0  0  0  0 
    2.9040    4.7310    3.8899 C   0  0  0  0  0  0  0  0  0  0  0  0 
    5.2178   -0.4054    0.3172 C   0  0  0  0  0  0  0  0  0  0  0  0 
    4.7969    1.0393    0.5388 C   0  0  0  0  0  0  0  0  0  0  0  0 
    2.8643    2.2863    1.1160 C   0  0  0  0  0  0  0  0  0  0  0  0 
    3.2489    2.8756    2.4745 C   0  0  0  0  0  0  0  0  0  0  0  0 
    3.9907    2.3704    3.2844 O   0  0  0  0  0  0  0  0  0  0  0  0 
    6.5760   -0.3949   -0.0737 O   0  0  0  0  0  0  0  0  0  0  0  0 
    2.6306    4.0647    2.6448 O   0  0  0  0  0  0  0  0  0  0  0  0 
    3.4160    1.0222    0.8843 O   0  0  0  0  0  0  0  0  0  0  0  0 
    8.1443   -1.5782   -0.5608 H   0  0  0  0  0  0  0  0  0  0  0  0 
    6.5595   -2.2347   -1.0601 H   0  0  0  0  0  0  0  0  0  0  0  0 
    7.0485   -2.2918    0.6567 H   0  0  0  0  0  0  0  0  0  0  0  0 
    2.3307    5.6578    3.8581 H   0  0  0  0  0  0  0  0  0  0  0  0 
    3.9724    4.9422    3.9846 H   0  0  0  0  0  0  0  0  0  0  0  0 
    2.5879    4.1116    4.7333 H   0  0  0  0  0  0  0  0  0  0  0  0 
    4.5835   -0.8642   -0.4594 H   0  0  0  0  0  0  0  0  0  0  0  0 
    5.0748   -0.9785    1.2474 H   0  0  0  0  0  0  0  0  0  0  0  0 
    4.9547    1.6188   -0.3849 H   0  0  0  0  0  0  0  0  0  0  0  0 
    5.4002    1.4841    1.3382 H   0  0  0  0  0  0  0  0  0  0  0  0 
    3.1401    3.0128    0.3336 H   0  0  0  0  0  0  0  0  0  0  0  0 
    1.7743    2.1793    1.0869 H   0  0  0  0  0  0  0  0  0  0  0  0 
  1  8  1  0  0  0  0 
  1 13  1  0  0  0  0 
  2 15  1  0  0  0  0 
  2 16  1  0  0  0  0 
  3  4  1  0  0  0  0 
  3 18  1  0  0  0  0 
  4 10  1  0  0  0  0 
  4 20  1  0  0  0  0 
  5  6  1  0  0  0  0 
  6  9  1  0  0  0  0 
  6  7  2  0  0  0  0 
  8  3  1  0  0  0  0 
  9  2  1  0  0  0  0 
 10  5  1  0  0  0  0 
 11  1  1  0  0  0  0 
 12  1  1  0  0  0  0 
 14  2  1  0  0  0  0 
 17  3  1  0  0  0  0 
 19  4  1  0  0  0  0 
 21  5  1  0  0  0  0 
 22  5  1  0  0  0  0 
M  END 
>  <HBA> 
4 
 
>  <HBD> 
0 
 
>  <TPSA> 
44.76 
 
>  <cid> 
28661 
 
>  <dipole> 
1.46 
 
>  <excitation_energy_1> 
5.68 
 
>  <excitation_energy_2> 
6.445 
 
>  <excitation_energy_3> 
6.539 
 
>  <excitation_energy_4> 
6.591 
 
>  <homo_energy> 
-6.849 
 
>  <homo_lumo_gap> 
7.094 
 
>  <logP> 
-0.178 
 
>  <lumo_energy> 
0.245 
 
>  <melting_point> 
-32.02 
 
>  <molecular_refractivity> 
34.41 
 
>  <oscillator_strength_1> 
0.0018 
 
>  <oscillator_strength_2> 
0.0015 
 
>  <oscillator_strength_3> 
0.0171 
 
>  <oscillator_strength_4> 
0.0007 
 
>  <open_babel_can_smiles> 
COCCOCC(=O)OC 
 
>  <mulliken_charges> 
22 
1   -0.189527 
2   -0.219171 
3   -0.026774 
4   -0.03975 
5   -0.10414 
6   0.591771 
7   -0.463399 
8   -0.467149 
9   -0.448141 
10   -0.46336 
11   0.157931 
12   0.129991 
13   0.132663 
14   0.166875 
15   0.172384 
16   0.173402 
17   0.128043 
18   0.137476 
19   0.129641 
20   0.162667 
21   0.155984 
22   0.182582 
 
>  <lowdin_charges> 
22 
1   -0.278036 
2   -0.276527 
3   -0.133745 
4   -0.137412 
5   -0.159906 
6   0.180728 
7   -0.250711 
8   -0.271578 
9   -0.197301 
10   -0.254149 
11   0.153468 
12   0.132832 
13   0.133445 
14   0.161878 
15   0.158764 
16   0.161708 
17   0.132044 
18   0.135938 
19   0.132163 
20   0.151406 
21   0.153884 
22   0.171108 
 
$$$$ 
 
