PCCDB-ID:  40007 
public computational chemistry database (PCCDB) project, http://pccdb.org 
 
 28 27  0  0  0  0  0  0  0  0999 V2000 
    1.1235   -0.2704   -0.1959 C   0  0  0  0  0  0  0  0  0  0  0  0 
    6.4829    4.7844    1.3924 C   0  0  0  0  0  0  0  0  0  0  0  0 
    6.4316    3.4807    3.5657 C   0  0  0  0  0  0  0  0  0  0  0  0 
    8.3440    3.1849    1.9546 C   0  0  0  0  0  0  0  0  0  0  0  0 
    2.6424   -0.2324   -0.2410 C   0  0  0  0  0  0  0  0  0  0  0  0 
    4.4934    1.0216    0.5271 C   0  0  0  0  0  0  0  0  0  0  0  0 
    4.8285    2.2500    1.3629 C   0  0  0  0  0  0  0  0  0  0  0  0 
    6.8414    3.4588    2.0840 C   0  0  0  0  0  0  0  0  0  0  0  0 
    3.0862    0.8878    0.5050 O   0  0  0  0  0  0  0  0  0  0  0  0 
    6.2409    2.3420    1.3957 O   0  0  0  0  0  0  0  0  0  0  0  0 
    0.7446   -1.1258   -0.7659 H   0  0  0  0  0  0  0  0  0  0  0  0 
    0.7041    0.6461   -0.6234 H   0  0  0  0  0  0  0  0  0  0  0  0 
    0.7727   -0.3579    0.8375 H   0  0  0  0  0  0  0  0  0  0  0  0 
    7.0454    5.6122    1.8387 H   0  0  0  0  0  0  0  0  0  0  0  0 
    5.4183    5.0233    1.4875 H   0  0  0  0  0  0  0  0  0  0  0  0 
    6.7314    4.7345    0.3267 H   0  0  0  0  0  0  0  0  0  0  0  0 
    7.0071    4.2388    4.1084 H   0  0  0  0  0  0  0  0  0  0  0  0 
    6.6251    2.5066    4.0280 H   0  0  0  0  0  0  0  0  0  0  0  0 
    5.3705    3.7191    3.6958 H   0  0  0  0  0  0  0  0  0  0  0  0 
    8.9292    3.9758    2.4359 H   0  0  0  0  0  0  0  0  0  0  0  0 
    8.6289    3.1324    0.8987 H   0  0  0  0  0  0  0  0  0  0  0  0 
    8.5960    2.2281    2.4233 H   0  0  0  0  0  0  0  0  0  0  0  0 
    2.9980   -0.1594   -1.2833 H   0  0  0  0  0  0  0  0  0  0  0  0 
    3.0663   -1.1603    0.1802 H   0  0  0  0  0  0  0  0  0  0  0  0 
    4.9714    0.1325    0.9699 H   0  0  0  0  0  0  0  0  0  0  0  0 
    4.8986    1.1423   -0.4909 H   0  0  0  0  0  0  0  0  0  0  0  0 
    4.3980    2.1280    2.3671 H   0  0  0  0  0  0  0  0  0  0  0  0 
    4.3648    3.1349    0.9043 H   0  0  0  0  0  0  0  0  0  0  0  0 
  1 13  1  0  0  0  0 
  2 15  1  0  0  0  0 
  2 14  1  0  0  0  0 
  2  8  1  0  0  0  0 
  3 19  1  0  0  0  0 
  3 18  1  0  0  0  0 
  3 17  1  0  0  0  0 
  4  8  1  0  0  0  0 
  4 22  1  0  0  0  0 
  4 20  1  0  0  0  0 
  5  1  1  0  0  0  0 
  5 24  1  0  0  0  0 
  5  9  1  0  0  0  0 
  6 25  1  0  0  0  0 
  6  7  1  0  0  0  0 
  7 10  1  0  0  0  0 
  7 27  1  0  0  0  0 
  8  3  1  0  0  0  0 
  9  6  1  0  0  0  0 
 10  8  1  0  0  0  0 
 11  1  1  0  0  0  0 
 12  1  1  0  0  0  0 
 16  2  1  0  0  0  0 
 21  4  1  0  0  0  0 
 23  5  1  0  0  0  0 
 26  6  1  0  0  0  0 
 28  7  1  0  0  0  0 
M  END 
>  <HBA> 
2 
 
>  <HBD> 
0 
 
>  <TPSA> 
18.46 
 
>  <cid> 
40007 
 
>  <dipole> 
0.19 
 
>  <excitation_energy_1> 
6.341 
 
>  <excitation_energy_2> 
6.573 
 
>  <excitation_energy_3> 
6.774 
 
>  <excitation_energy_4> 
6.842 
 
>  <homo_energy> 
-6.659 
 
>  <homo_lumo_gap> 
8.836 
 
>  <logP> 
1.838 
 
>  <lumo_energy> 
2.177 
 
>  <melting_point> 
-34.77 
 
>  <molecular_refractivity> 
42.78 
 
>  <oscillator_strength_1> 
0.0026 
 
>  <oscillator_strength_2> 
0.0182 
 
>  <oscillator_strength_3> 
0.0023 
 
>  <oscillator_strength_4> 
0.0 
 
>  <open_babel_can_smiles> 
CCOCCOC(C)(C)C 
 
>  <mulliken_charges> 
28 
1   -0.453261 
2   -0.460743 
3   -0.463656 
4   -0.445381 
5   0.000291 
6   -0.020728 
7   -0.026634 
8   0.336846 
9   -0.48051 
10   -0.512835 
11   0.142253 
12   0.157438 
13   0.157454 
14   0.141966 
15   0.145276 
16   0.151174 
17   0.142795 
18   0.151693 
19   0.146177 
20   0.135819 
21   0.150439 
22   0.150027 
23   0.118647 
24   0.118846 
25   0.127574 
26   0.126718 
27   0.131899 
28   0.130419 
 
>  <lowdin_charges> 
28 
1   -0.448944 
2   -0.455418 
3   -0.457398 
4   -0.444084 
5   -0.122039 
6   -0.132158 
7   -0.136335 
8   0.134056 
9   -0.276947 
10   -0.279098 
11   0.154421 
12   0.156882 
13   0.155534 
14   0.154438 
15   0.148845 
16   0.153664 
17   0.155295 
18   0.155129 
19   0.149378 
20   0.149947 
21   0.153944 
22   0.154983 
23   0.123395 
24   0.125143 
25   0.131425 
26   0.129511 
27   0.132876 
28   0.133557 
 
$$$$ 
 
