PCCDB-ID:  12880 
public computational chemistry database (PCCDB) project, http://pccdb.org 
 
 33 33  0  0  0  0  0  0  0  0999 V2000 
    1.9642   -0.8506   -1.3239 C   0  0  0  0  0  0  0  0  0  0  0  0 
    7.8635   -0.3694   -0.7172 C   0  0  0  0  0  0  0  0  0  0  0  0 
    6.2726   -5.0682    0.8359 C   0  0  0  0  0  0  0  0  0  0  0  0 
    5.6211   -1.9336    4.5500 C   0  0  0  0  0  0  0  0  0  0  0  0 
    2.8109   -1.7130   -0.7598 C   0  0  0  0  0  0  0  0  0  0  0  0 
    6.9056   -0.0648    0.1598 C   0  0  0  0  0  0  0  0  0  0  0  0 
    3.3093   -1.5877    0.6539 C   0  0  0  0  0  0  0  0  0  0  0  0 
    5.4370   -0.3241   -0.0563 C   0  0  0  0  0  0  0  0  0  0  0  0 
    5.4820   -2.8071    0.3354 C   0  0  0  0  0  0  0  0  0  0  0  0 
    5.1175   -1.1845    2.2832 C   0  0  0  0  0  0  0  0  0  0  0  0 
    5.8721   -3.5099    2.6812 C   0  0  0  0  0  0  0  0  0  0  0  0 
    4.8793   -1.4893    0.8076 C   0  0  0  0  0  0  0  0  0  0  0  0 
    5.8106   -3.7528    1.3043 N   0  0  0  0  0  0  0  0  0  0  0  0 
    5.5030   -2.2296    3.1145 N   0  0  0  0  0  0  0  0  0  0  0  0 
    5.6100   -3.0707   -0.8486 O   0  0  0  0  0  0  0  0  0  0  0  0 
    4.9168   -0.0727    2.7437 O   0  0  0  0  0  0  0  0  0  0  0  0 
    6.2352   -4.3695    3.4636 O   0  0  0  0  0  0  0  0  0  0  0  0 
    1.6069   -0.9868   -2.3410 H   0  0  0  0  0  0  0  0  0  0  0  0 
    1.5883    0.0196   -0.7893 H   0  0  0  0  0  0  0  0  0  0  0  0 
    8.9104   -0.1593   -0.5133 H   0  0  0  0  0  0  0  0  0  0  0  0 
    7.6355   -0.8378   -1.6719 H   0  0  0  0  0  0  0  0  0  0  0  0 
    5.6864   -5.3461   -0.0390 H   0  0  0  0  0  0  0  0  0  0  0  0 
    6.1405   -5.7844    1.6434 H   0  0  0  0  0  0  0  0  0  0  0  0 
    7.3288   -5.0247    0.5536 H   0  0  0  0  0  0  0  0  0  0  0  0 
    4.7377   -1.3795    4.8684 H   0  0  0  0  0  0  0  0  0  0  0  0 
    6.5050   -1.3173    4.7374 H   0  0  0  0  0  0  0  0  0  0  0  0 
    5.7061   -2.8771    5.0831 H   0  0  0  0  0  0  0  0  0  0  0  0 
    3.1717   -2.5664   -1.3297 H   0  0  0  0  0  0  0  0  0  0  0  0 
    7.1745    0.4021    1.1073 H   0  0  0  0  0  0  0  0  0  0  0  0 
    2.9653   -2.4471    1.2485 H   0  0  0  0  0  0  0  0  0  0  0  0 
    2.8941   -0.6876    1.1196 H   0  0  0  0  0  0  0  0  0  0  0  0 
    5.2414   -0.5672   -1.1024 H   0  0  0  0  0  0  0  0  0  0  0  0 
    4.8591    0.5703    0.2005 H   0  0  0  0  0  0  0  0  0  0  0  0 
  1 19  1  0  0  0  0 
  1  5  2  0  0  0  0 
  2 20  1  0  0  0  0 
  2  6  2  0  0  0  0 
  3 13  1  0  0  0  0 
  3 23  1  0  0  0  0 
  4 26  1  0  0  0  0 
  4 25  1  0  0  0  0 
  4 27  1  0  0  0  0 
  5  7  1  0  0  0  0 
  6 29  1  0  0  0  0 
  7 12  1  0  0  0  0 
  7 31  1  0  0  0  0 
  7 30  1  0  0  0  0 
  8  6  1  0  0  0  0 
  8 33  1  0  0  0  0 
  8 12  1  0  0  0  0 
  9 12  1  0  0  0  0 
  9 13  1  0  0  0  0 
 10 16  2  0  0  0  0 
 10 14  1  0  0  0  0 
 11 14  1  0  0  0  0 
 11 17  2  0  0  0  0 
 12 10  1  0  0  0  0 
 13 11  1  0  0  0  0 
 14  4  1  0  0  0  0 
 15  9  2  0  0  0  0 
 18  1  1  0  0  0  0 
 21  2  1  0  0  0  0 
 22  3  1  0  0  0  0 
 24  3  1  0  0  0  0 
 28  5  1  0  0  0  0 
 32  8  1  0  0  0  0 
M  END 
>  <HBA> 
5 
 
>  <HBD> 
0 
 
>  <TPSA> 
57.69 
 
>  <cid> 
12880 
 
>  <dipole> 
0.88 
 
>  <excitation_energy_1> 
4.588 
 
>  <excitation_energy_2> 
4.898 
 
>  <excitation_energy_3> 
5.114 
 
>  <excitation_energy_4> 
5.351 
 
>  <homo_energy> 
-6.972 
 
>  <homo_lumo_gap> 
5.747 
 
>  <logP> 
1.051 
 
>  <lumo_energy> 
-1.225 
 
>  <melting_point> 
49.3 
 
>  <molecular_refractivity> 
71.09 
 
>  <oscillator_strength_1> 
0.0003 
 
>  <oscillator_strength_2> 
0.0078 
 
>  <oscillator_strength_3> 
0.0405 
 
>  <oscillator_strength_4> 
0.0117 
 
>  <open_babel_can_smiles> 
C=CCC1(CC=C)C(=O)N(C)C(=O)N(C1=O)C 
 
>  <mulliken_charges> 
33 
1   -0.341786 
2   -0.334687 
3   -0.319037 
4   -0.321493 
5   -0.040901 
6   -0.077805 
7   -0.334462 
8   -0.301275 
9   0.650911 
10   0.638908 
11   0.790509 
12   -0.137984 
13   -0.538174 
14   -0.535592 
15   -0.499778 
16   -0.503938 
17   -0.494895 
18   0.14782 
19   0.142176 
20   0.140404 
21   0.153663 
22   0.187576 
23   0.198304 
24   0.181152 
25   0.185997 
26   0.180501 
27   0.202985 
28   0.158694 
29   0.142837 
30   0.15525 
31   0.177546 
32   0.179353 
33   0.167223 
 
>  <lowdin_charges> 
33 
1   -0.329822 
2   -0.32733 
3   -0.347399 
4   -0.34831 
5   -0.151559 
6   -0.161738 
7   -0.260017 
8   -0.262881 
9   0.171096 
10   0.168662 
11   0.201063 
12   -0.040558 
13   -0.084286 
14   -0.084758 
15   -0.264524 
16   -0.268716 
17   -0.280883 
18   0.16177 
19   0.157054 
20   0.157277 
21   0.162367 
22   0.175716 
23   0.182357 
24   0.165027 
25   0.173601 
26   0.167016 
27   0.184436 
28   0.166216 
29   0.156371 
30   0.156076 
31   0.168386 
32   0.170884 
33   0.167406 
 
$$$$ 
 
