PCCDB-ID:  32826 
public computational chemistry database (PCCDB) project, http://pccdb.org 
 
 21 20  0  0  0  0  0  0  0  0999 V2000 
    1.4325   -0.5044    0.9983 C   0  0  0  0  0  0  0  0  0  0  0  0 
    7.9334   -4.0962   -2.3141 C   0  0  0  0  0  0  0  0  0  0  0  0 
    2.2275   -0.0131    0.0473 C   0  0  0  0  0  0  0  0  0  0  0  0 
    3.0029   -0.8377   -0.9433 C   0  0  0  0  0  0  0  0  0  0  0  0 
    4.5333   -0.6286   -0.8141 C   0  0  0  0  0  0  0  0  0  0  0  0 
    5.3020   -1.3880   -1.8511 C   0  0  0  0  0  0  0  0  0  0  0  0 
    6.2157   -2.3391   -1.6102 C   0  0  0  0  0  0  0  0  0  0  0  0 
    6.9184   -3.0414   -2.7207 C   0  0  0  0  0  0  0  0  0  0  0  0 
    6.6952   -2.7892   -3.8958 O   0  0  0  0  0  0  0  0  0  0  0  0 
    0.8989    0.1419    1.6900 H   0  0  0  0  0  0  0  0  0  0  0  0 
    1.2796   -1.5753    1.1180 H   0  0  0  0  0  0  0  0  0  0  0  0 
    8.7192   -3.6517   -1.6897 H   0  0  0  0  0  0  0  0  0  0  0  0 
    8.3813   -4.5429   -3.2036 H   0  0  0  0  0  0  0  0  0  0  0  0 
    7.4533   -4.8781   -1.7114 H   0  0  0  0  0  0  0  0  0  0  0  0 
    2.3523    1.0685   -0.0345 H   0  0  0  0  0  0  0  0  0  0  0  0 
    2.6998   -0.5697   -1.9665 H   0  0  0  0  0  0  0  0  0  0  0  0 
    2.7678   -1.9009   -0.8131 H   0  0  0  0  0  0  0  0  0  0  0  0 
    4.8585   -0.9131    0.1936 H   0  0  0  0  0  0  0  0  0  0  0  0 
    4.7464    0.4456   -0.9269 H   0  0  0  0  0  0  0  0  0  0  0  0 
    5.0927   -1.1562   -2.8964 H   0  0  0  0  0  0  0  0  0  0  0  0 
    6.4713   -2.6206   -0.5892 H   0  0  0  0  0  0  0  0  0  0  0  0 
  1 11  1  0  0  0  0 
  1 10  1  0  0  0  0 
  2 14  1  0  0  0  0 
  2 12  1  0  0  0  0 
  3  1  2  0  0  0  0 
  4  5  1  0  0  0  0 
  4 17  1  0  0  0  0 
  4  3  1  0  0  0  0 
  5 18  1  0  0  0  0 
  6  7  2  0  0  0  0 
  6  5  1  0  0  0  0 
  7 21  1  0  0  0  0 
  8  2  1  0  0  0  0 
  8  7  1  0  0  0  0 
  9  8  2  0  0  0  0 
 13  2  1  0  0  0  0 
 15  3  1  0  0  0  0 
 16  4  1  0  0  0  0 
 19  5  1  0  0  0  0 
 20  6  1  0  0  0  0 
M  END 
>  <HBA> 
1 
 
>  <HBD> 
0 
 
>  <TPSA> 
17.07 
 
>  <cid> 
32826 
 
>  <dipole> 
2.74 
 
>  <excitation_energy_1> 
3.699 
 
>  <excitation_energy_2> 
5.014 
 
>  <excitation_energy_3> 
5.627 
 
>  <excitation_energy_4> 
6.258 
 
>  <homo_energy> 
-6.566 
 
>  <homo_lumo_gap> 
5.271 
 
>  <logP> 
2.098 
 
>  <lumo_energy> 
-1.295 
 
>  <melting_point> 
-17.31 
 
>  <molecular_refractivity> 
39.82 
 
>  <oscillator_strength_1> 
0.0002 
 
>  <oscillator_strength_2> 
0.1024 
 
>  <oscillator_strength_3> 
0.3734 
 
>  <oscillator_strength_4> 
0.0369 
 
>  <open_babel_can_smiles> 
CC(=O)/C=C/CCC=C 
 
>  <mulliken_charges> 
21 
1   -0.338737 
2   -0.53797 
3   -0.042877 
4   -0.306061 
5   -0.315183 
6   -0.055467 
7   -0.191168 
8   0.434851 
9   -0.460746 
10   0.141438 
11   0.137321 
12   0.167599 
13   0.177754 
14   0.167267 
15   0.126456 
16   0.15158 
17   0.149684 
18   0.152019 
19   0.154063 
20   0.164359 
21   0.123818 
 
>  <lowdin_charges> 
21 
1   -0.338873 
2   -0.477351 
3   -0.144099 
4   -0.265939 
5   -0.269161 
6   -0.089586 
7   -0.226458 
8   0.159272 
9   -0.25206 
10   0.160989 
11   0.153361 
12   0.16958 
13   0.172559 
14   0.169464 
15   0.147853 
16   0.15203 
17   0.150207 
18   0.151596 
19   0.154857 
20   0.16912 
21   0.152641 
 
$$$$ 
 
