PCCDB-ID:  62609 
public computational chemistry database (PCCDB) project, http://pccdb.org 
 
 11 10  0  0  0  0  0  0  0  0999 V2000 
    3.9167   -0.9604    0.0625 C   0  0  0  0  0  0  0  0  0  0  0  0 
    4.7715    2.4343   -0.8388 C   0  0  0  0  0  0  0  0  0  0  0  0 
    2.9501    1.1892    0.2518 C   0  0  0  0  0  0  0  0  0  0  0  0 
    4.1384    2.0176    0.1078 N   0  0  0  0  0  0  0  0  0  0  0  0 
    5.4809    2.8957   -1.6581 O   0  0  0  0  0  0  0  0  0  0  0  0 
    3.0001   -0.0089   -0.4640 O   0  0  0  0  0  0  0  0  0  0  0  0 
    3.8005   -1.8673   -0.5345 H   0  0  0  0  0  0  0  0  0  0  0  0 
    3.6917   -1.1875    1.1152 H   0  0  0  0  0  0  0  0  0  0  0  0 
    4.9539   -0.6090   -0.0110 H   0  0  0  0  0  0  0  0  0  0  0  0 
    2.0797    1.7343   -0.1252 H   0  0  0  0  0  0  0  0  0  0  0  0 
    2.8253    1.0068    1.3272 H   0  0  0  0  0  0  0  0  0  0  0  0 
  1  8  1  0  0  0  0 
  2  4  2  0  0  0  0 
  3 11  1  0  0  0  0 
  4  3  1  0  0  0  0 
  5  2  2  0  0  0  0 
  6  1  1  0  0  0  0 
  6  3  1  0  0  0  0 
  7  1  1  0  0  0  0 
  9  1  1  0  0  0  0 
 10  3  1  0  0  0  0 
M  END 
>  <HBA> 
3 
 
>  <HBD> 
0 
 
>  <TPSA> 
38.66 
 
>  <cid> 
62609 
 
>  <dipole> 
2.47 
 
>  <excitation_energy_1> 
6.22 
 
>  <excitation_energy_2> 
6.595 
 
>  <excitation_energy_3> 
7.129 
 
>  <excitation_energy_4> 
7.201 
 
>  <homo_energy> 
-7.66 
 
>  <homo_lumo_gap> 
8.085 
 
>  <logP> 
-0.074 
 
>  <lumo_energy> 
0.425 
 
>  <melting_point> 
17.26 
 
>  <molecular_refractivity> 
19.88 
 
>  <oscillator_strength_1> 
0.0013 
 
>  <oscillator_strength_2> 
0.0152 
 
>  <oscillator_strength_3> 
0.0019 
 
>  <oscillator_strength_4> 
0.0011 
 
>  <open_babel_can_smiles> 
COCN=C=O 
 
>  <mulliken_charges> 
11 
1   -0.212027 
2   0.63392 
3   0.078637 
4   -0.454163 
5   -0.401542 
6   -0.436422 
7   0.169679 
8   0.139485 
9   0.154445 
10   0.175148 
11   0.152841 
 
>  <lowdin_charges> 
11 
1   -0.280189 
2   0.190364 
3   -0.045432 
4   -0.20794 
5   -0.148585 
6   -0.253797 
7   0.162329 
8   0.137125 
9   0.143641 
10   0.16162 
11   0.140862 
 
$$$$ 
 
