PCCDB-ID:  41971 
public computational chemistry database (PCCDB) project, http://pccdb.org 
 
 25 24  0  0  0  0  0  0  0  0999 V2000 
    2.5201    1.0515   -2.9262 C   0  0  0  0  0  0  0  0  0  0  0  0 
    7.4000    3.5590    4.9762 C   0  0  0  0  0  0  0  0  0  0  0  0 
    3.1827    0.6797   -1.8210 C   0  0  0  0  0  0  0  0  0  0  0  0 
    6.7129    2.6377    3.9625 C   0  0  0  0  0  0  0  0  0  0  0  0 
    3.7108    1.5999   -0.8238 C   0  0  0  0  0  0  0  0  0  0  0  0 
    7.0860    2.9660    2.5097 C   0  0  0  0  0  0  0  0  0  0  0  0 
    4.3717    1.2205    0.2828 C   0  0  0  0  0  0  0  0  0  0  0  0 
    6.4687    2.0338    1.4539 C   0  0  0  0  0  0  0  0  0  0  0  0 
    4.9351    2.1470    1.3215 C   0  0  0  0  0  0  0  0  0  0  0  0 
    2.1460    0.3244   -3.6405 H   0  0  0  0  0  0  0  0  0  0  0  0 
    2.3303    2.0988   -3.1516 H   0  0  0  0  0  0  0  0  0  0  0  0 
    7.1207    3.3024    6.0045 H   0  0  0  0  0  0  0  0  0  0  0  0 
    7.1249    4.6076    4.8083 H   0  0  0  0  0  0  0  0  0  0  0  0 
    8.4920    3.4880    4.8999 H   0  0  0  0  0  0  0  0  0  0  0  0 
    3.3510   -0.3815   -1.6337 H   0  0  0  0  0  0  0  0  0  0  0  0 
    5.6251    2.7049    4.0960 H   0  0  0  0  0  0  0  0  0  0  0  0 
    6.9822    1.5930    4.1755 H   0  0  0  0  0  0  0  0  0  0  0  0 
    3.5452    2.6631   -1.0067 H   0  0  0  0  0  0  0  0  0  0  0  0 
    8.1803    2.9267    2.4117 H   0  0  0  0  0  0  0  0  0  0  0  0 
    6.8007    4.0054    2.2877 H   0  0  0  0  0  0  0  0  0  0  0  0 
    4.5332    0.1538    0.4541 H   0  0  0  0  0  0  0  0  0  0  0  0 
    6.7361    0.9924    1.6863 H   0  0  0  0  0  0  0  0  0  0  0  0 
    6.9168    2.2519    0.4758 H   0  0  0  0  0  0  0  0  0  0  0  0 
    4.4728    1.9214    2.2938 H   0  0  0  0  0  0  0  0  0  0  0  0 
    4.6649    3.1839    1.0799 H   0  0  0  0  0  0  0  0  0  0  0  0 
  1  3  2  0  0  0  0 
  2 12  1  0  0  0  0 
  3 15  1  0  0  0  0 
  3  5  1  0  0  0  0 
  4 16  1  0  0  0  0 
  4 17  1  0  0  0  0 
  4  2  1  0  0  0  0 
  5  7  2  0  0  0  0 
  6  4  1  0  0  0  0 
  7 21  1  0  0  0  0 
  7  9  1  0  0  0  0 
  8 22  1  0  0  0  0 
  8  6  1  0  0  0  0 
  9  8  1  0  0  0  0 
  9 24  1  0  0  0  0 
 10  1  1  0  0  0  0 
 11  1  1  0  0  0  0 
 13  2  1  0  0  0  0 
 14  2  1  0  0  0  0 
 18  5  1  0  0  0  0 
 19  6  1  0  0  0  0 
 20  6  1  0  0  0  0 
 23  8  1  0  0  0  0 
 25  9  1  0  0  0  0 
M  END 
>  <HBA> 
0 
 
>  <HBD> 
0 
 
>  <TPSA> 
0.0 
 
>  <cid> 
41971 
 
>  <dipole> 
0.65 
 
>  <excitation_energy_1> 
5.454 
 
>  <excitation_energy_2> 
5.701 
 
>  <excitation_energy_3> 
5.836 
 
>  <excitation_energy_4> 
5.975 
 
>  <homo_energy> 
-5.891 
 
>  <homo_lumo_gap> 
5.475 
 
>  <logP> 
3.309 
 
>  <lumo_energy> 
-0.416 
 
>  <melting_point> 
-39.36 
 
>  <molecular_refractivity> 
44.43 
 
>  <oscillator_strength_1> 
0.8821 
 
>  <oscillator_strength_2> 
0.0109 
 
>  <oscillator_strength_3> 
0.0011 
 
>  <oscillator_strength_4> 
0.0126 
 
>  <open_babel_can_smiles> 
CCCCC/C=C/C=C 
 
>  <mulliken_charges> 
25 
1   -0.35965 
2   -0.441551 
3   -0.058083 
4   -0.250018 
5   -0.108583 
6   -0.248081 
7   -0.107135 
8   -0.255315 
9   -0.307544 
10   0.140391 
11   0.137303 
12   0.142077 
13   0.141978 
14   0.141698 
15   0.122519 
16   0.135358 
17   0.129941 
18   0.116931 
19   0.129518 
20   0.127232 
21   0.120949 
22   0.128845 
23   0.137904 
24   0.146561 
25   0.136758 
 
>  <lowdin_charges> 
25 
1   -0.341099 
2   -0.439559 
3   -0.139283 
4   -0.271751 
5   -0.165059 
6   -0.272493 
7   -0.151481 
8   -0.272379 
9   -0.271941 
10   0.161099 
11   0.154159 
12   0.148387 
13   0.145299 
14   0.144241 
15   0.150334 
16   0.137705 
17   0.137228 
18   0.148078 
19   0.139583 
20   0.136625 
21   0.146047 
22   0.13747 
23   0.145333 
24   0.149507 
25   0.143953 
 
$$$$ 
 
