PCCDB-ID:  29628 
public computational chemistry database (PCCDB) project, http://pccdb.org 
 
 42 42  0  0  1  0  0  0  0  0999 V2000 
    1.8335   -0.4633   -1.1339 C   0  0  0  0  0  0  0  0  0  0  0  0 
    6.6083    4.2963    1.0569 C   0  0  0  0  0  0  0  0  0  0  0  0 
    8.0803    2.9335    2.6032 C   0  0  0  0  0  0  0  0  0  0  0  0 
    3.5111    2.8361    1.8330 C   0  0  0  0  0  0  0  0  0  0  0  0 
    5.2184   -3.3909    3.4718 C   0  0  0  0  0  0  0  0  0  0  0  0 
    3.1078    0.1180   -0.5097 C   0  0  0  0  0  0  0  0  0  0  0  0 
    3.1538   -0.1036    1.0107 C   0  0  0  0  0  0  0  0  0  0  0  0 
    5.6534   -0.4243    1.3579 C   0  0  0  0  0  0  0  0  0  0  0  0 
    4.2219    0.1388    3.2832 C   0  0  0  0  0  0  0  0  0  0  0  0 
    6.9260    2.9013    1.6059 C   0  0  0  0  0  0  0  0  0  0  0  0 
    4.6905    1.9113    1.5105 C   0  0  2  0  0  0  0  0  0  0  0  0 
    5.3471   -1.9206    3.1371 C   0  0  1  0  0  0  0  0  0  0  0  0 
    4.4107    0.4006    1.7689 C   0  0  2  0  0  0  0  0  0  0  0  0 
    5.5226   -1.7925    1.7402 O   0  0  0  0  0  0  0  0  0  0  0  0 
    4.1776   -1.2600    3.5714 O   0  0  0  0  0  0  0  0  0  0  0  0 
    5.8171    2.3225    2.3005 O   0  0  0  0  0  0  0  0  0  0  0  0 
    1.8088   -0.3015   -2.2176 H   0  0  0  0  0  0  0  0  0  0  0  0 
    0.9359    0.0005   -0.7065 H   0  0  0  0  0  0  0  0  0  0  0  0 
    1.7641   -1.5428   -0.9547 H   0  0  0  0  0  0  0  0  0  0  0  0 
    7.4867    4.7158    0.5525 H   0  0  0  0  0  0  0  0  0  0  0  0 
    6.3217    4.9697    1.8723 H   0  0  0  0  0  0  0  0  0  0  0  0 
    5.7915    4.2689    0.3279 H   0  0  0  0  0  0  0  0  0  0  0  0 
    8.9844    3.3369    2.1342 H   0  0  0  0  0  0  0  0  0  0  0  0 
    8.3000    1.9274    2.9740 H   0  0  0  0  0  0  0  0  0  0  0  0 
    7.8226    3.5663    3.4596 H   0  0  0  0  0  0  0  0  0  0  0  0 
    2.6223    2.5881    1.2448 H   0  0  0  0  0  0  0  0  0  0  0  0 
    3.7838    3.8732    1.6176 H   0  0  0  0  0  0  0  0  0  0  0  0 
    3.2490    2.7787    2.8943 H   0  0  0  0  0  0  0  0  0  0  0  0 
    6.1144   -3.9293    3.1505 H   0  0  0  0  0  0  0  0  0  0  0  0 
    4.3480   -3.8077    2.9569 H   0  0  0  0  0  0  0  0  0  0  0  0 
    5.0873   -3.5188    4.5499 H   0  0  0  0  0  0  0  0  0  0  0  0 
    3.1608    1.1896   -0.7455 H   0  0  0  0  0  0  0  0  0  0  0  0 
    3.9810   -0.3448   -0.9876 H   0  0  0  0  0  0  0  0  0  0  0  0 
    3.0631   -1.1757    1.2135 H   0  0  0  0  0  0  0  0  0  0  0  0 
    2.2636    0.3599    1.4579 H   0  0  0  0  0  0  0  0  0  0  0  0 
    6.5499    0.0044    1.8291 H   0  0  0  0  0  0  0  0  0  0  0  0 
    5.8022   -0.4259    0.2739 H   0  0  0  0  0  0  0  0  0  0  0  0 
    3.2737    0.5448    3.6471 H   0  0  0  0  0  0  0  0  0  0  0  0 
    5.0425    0.6097    3.8429 H   0  0  0  0  0  0  0  0  0  0  0  0 
    7.2008    2.2454    0.7623 H   0  0  0  0  0  0  0  0  0  0  0  0 
    4.9471    2.0239    0.4468 H   0  0  0  0  0  0  0  0  0  0  0  0 
    6.2197   -1.4616    3.6430 H   0  0  0  0  0  0  0  0  0  0  0  0 
  1 19  1  0  0  0  0 
  1 18  1  0  0  0  0 
  1  6  1  0  0  0  0 
  2 10  1  0  0  0  0 
  2 21  1  0  0  0  0 
  3 24  1  0  0  0  0 
  3 25  1  0  0  0  0 
  4 28  1  0  0  0  0 
  5 31  1  0  0  0  0 
  6  7  1  0  0  0  0 
  7 34  1  0  0  0  0 
  7 35  1  0  0  0  0 
  8 14  1  0  0  0  0 
  8 13  1  0  0  0  0 
  8 36  1  0  0  0  0 
  9 15  1  0  0  0  0 
  9 38  1  0  0  0  0 
  9 39  1  0  0  0  0 
 10 16  1  0  0  0  0 
 10  3  1  0  0  0  0 
 11 41  1  6  0  0  0 
 11 13  1  0  0  0  0 
 11  4  1  0  0  0  0 
 11 16  1  0  0  0  0 
 12  5  1  0  0  0  0 
 12 15  1  0  0  0  0 
 12 42  1  1  0  0  0 
 13  7  1  6  0  0  0 
 13  9  1  0  0  0  0 
 14 12  1  0  0  0  0 
 17  1  1  0  0  0  0 
 20  2  1  0  0  0  0 
 22  2  1  0  0  0  0 
 23  3  1  0  0  0  0 
 26  4  1  0  0  0  0 
 27  4  1  0  0  0  0 
 29  5  1  0  0  0  0 
 30  5  1  0  0  0  0 
 32  6  1  0  0  0  0 
 33  6  1  0  0  0  0 
 37  8  1  0  0  0  0 
 40 10  1  0  0  0  0 
M  END 
>  <HBA> 
3 
 
>  <HBD> 
0 
 
>  <TPSA> 
27.69 
 
>  <cid> 
29628 
 
>  <dipole> 
2.35 
 
>  <excitation_energy_1> 
6.236 
 
>  <excitation_energy_2> 
6.396 
 
>  <excitation_energy_3> 
6.529 
 
>  <excitation_energy_4> 
6.564 
 
>  <homo_energy> 
-6.651 
 
>  <homo_lumo_gap> 
8.615 
 
>  <logP> 
2.979 
 
>  <lumo_energy> 
1.965 
 
>  <melting_point> 
-16.8 
 
>  <molecular_refractivity> 
65.49 
 
>  <oscillator_strength_1> 
0.0168 
 
>  <oscillator_strength_2> 
0.0009 
 
>  <oscillator_strength_3> 
0.016 
 
>  <oscillator_strength_4> 
0.0096 
 
>  <open_babel_can_smiles> 
CCC[C@@]1(CO[C@@H](OC1)C)[C@H](OC(C)C)C 
 
>  <mulliken_charges> 
42 
1   -0.441907 
2   -0.455837 
3   -0.45333 
4   -0.46555 
5   -0.466477 
6   -0.267174 
7   -0.266302 
8   -0.059912 
9   -0.055077 
10   0.156917 
11   0.135336 
12   0.363715 
13   0.034657 
14   -0.483317 
15   -0.48457 
16   -0.507572 
17   0.140797 
18   0.140939 
19   0.148277 
20   0.143097 
21   0.152949 
22   0.147878 
23   0.141865 
24   0.154915 
25   0.154461 
26   0.14932 
27   0.151829 
28   0.157091 
29   0.154353 
30   0.164791 
31   0.155545 
32   0.129883 
33   0.138012 
34   0.162306 
35   0.12639 
36   0.140085 
37   0.141165 
38   0.141484 
39   0.148239 
40   0.113205 
41   0.118919 
42   0.098606 
 
>  <lowdin_charges> 
42 
1   -0.439324 
2   -0.462745 
3   -0.448883 
4   -0.455049 
5   -0.448301 
6   -0.278138 
7   -0.281248 
8   -0.141941 
9   -0.141373 
10   0.008314 
11   0.006167 
12   0.100308 
13   -0.03529 
14   -0.26819 
15   -0.267143 
16   -0.279092 
17   0.146905 
18   0.146409 
19   0.147993 
20   0.154615 
21   0.155263 
22   0.151458 
23   0.153105 
24   0.155165 
25   0.156414 
26   0.154785 
27   0.155303 
28   0.15494 
29   0.161343 
30   0.16467 
31   0.159848 
32   0.133999 
33   0.142182 
34   0.157126 
35   0.140497 
36   0.138441 
37   0.144367 
38   0.148349 
39   0.143483 
40   0.122854 
41   0.131167 
42   0.111248 
 
$$$$ 
 
