PCCDB-ID:  20357 
public computational chemistry database (PCCDB) project, http://pccdb.org 
 
 32 32  0  0  1  0  0  0  0  0999 V2000 
    5.8102   -1.9311   -2.5105 C   0  0  0  0  0  0  0  0  0  0  0  0 
    8.2299   -0.2827    5.3449 C   0  0  0  0  0  0  0  0  0  0  0  0 
    6.3312   -1.1034   -1.3306 C   0  0  0  0  0  0  0  0  0  0  0  0 
    5.2094   -0.6077   -0.4066 C   0  0  0  0  0  0  0  0  0  0  0  0 
    5.6865    0.1726    0.8297 C   0  0  0  0  0  0  0  0  0  0  0  0 
    6.3329    1.5288    0.5061 C   0  0  0  0  0  0  0  0  0  0  0  0 
    6.7408    2.3625    1.7324 C   0  0  0  0  0  0  0  0  0  0  0  0 
    8.7911    2.1384    4.6128 C   0  0  0  0  0  0  0  0  0  0  0  0 
    8.6866    0.6488    4.2378 C   0  0  2  0  0  0  0  0  0  0  0  0 
    7.9716    1.8618    2.4706 C   0  0  1  0  0  0  0  0  0  0  0  0 
    8.3971    2.8320    3.4310 O   0  0  0  0  0  0  0  0  0  0  0  0 
    7.7082    0.6786    3.1958 O   0  0  0  0  0  0  0  0  0  0  0  0 
    6.6294   -2.2775   -3.1513 H   0  0  0  0  0  0  0  0  0  0  0  0 
    5.1252   -1.3436   -3.1345 H   0  0  0  0  0  0  0  0  0  0  0  0 
    5.2622   -2.8155   -2.1624 H   0  0  0  0  0  0  0  0  0  0  0  0 
    8.9610   -0.2959    6.1611 H   0  0  0  0  0  0  0  0  0  0  0  0 
    8.1205   -1.3042    4.9679 H   0  0  0  0  0  0  0  0  0  0  0  0 
    7.2642    0.0454    5.7434 H   0  0  0  0  0  0  0  0  0  0  0  0 
    6.9042   -0.2497   -1.7161 H   0  0  0  0  0  0  0  0  0  0  0  0 
    7.0392   -1.7062   -0.7437 H   0  0  0  0  0  0  0  0  0  0  0  0 
    4.6271   -1.4772   -0.0689 H   0  0  0  0  0  0  0  0  0  0  0  0 
    4.5117    0.0151   -0.9873 H   0  0  0  0  0  0  0  0  0  0  0  0 
    6.3867   -0.4417    1.4082 H   0  0  0  0  0  0  0  0  0  0  0  0 
    4.8253    0.3493    1.4897 H   0  0  0  0  0  0  0  0  0  0  0  0 
    5.6252    2.1222   -0.0899 H   0  0  0  0  0  0  0  0  0  0  0  0 
    7.2151    1.3856   -0.1335 H   0  0  0  0  0  0  0  0  0  0  0  0 
    5.9188    2.4280    2.4562 H   0  0  0  0  0  0  0  0  0  0  0  0 
    6.9715    3.3871    1.4161 H   0  0  0  0  0  0  0  0  0  0  0  0 
    9.8084    2.4302    4.9003 H   0  0  0  0  0  0  0  0  0  0  0  0 
    8.1054    2.3927    5.4332 H   0  0  0  0  0  0  0  0  0  0  0  0 
    9.6483    0.3048    3.8213 H   0  0  0  0  0  0  0  0  0  0  0  0 
    8.8050    1.6828    1.7646 H   0  0  0  0  0  0  0  0  0  0  0  0 
  1 15  1  0  0  0  0 
  1  3  1  0  0  0  0 
  2 18  1  0  0  0  0 
  2 16  1  0  0  0  0 
  3 20  1  0  0  0  0 
  3  4  1  0  0  0  0 
  4 21  1  0  0  0  0 
  4  5  1  0  0  0  0 
  5 23  1  0  0  0  0 
  5 24  1  0  0  0  0 
  6  5  1  0  0  0  0 
  6  7  1  0  0  0  0 
  7 27  1  0  0  0  0 
  7 10  1  0  0  0  0 
  8 29  1  0  0  0  0 
  8 30  1  0  0  0  0 
  9 31  1  6  0  0  0 
  9  8  1  0  0  0  0 
  9  2  1  0  0  0  0 
 10 32  1  6  0  0  0 
 10 12  1  0  0  0  0 
 10 11  1  0  0  0  0 
 11  8  1  0  0  0  0 
 12  9  1  0  0  0  0 
 13  1  1  0  0  0  0 
 14  1  1  0  0  0  0 
 17  2  1  0  0  0  0 
 19  3  1  0  0  0  0 
 22  4  1  0  0  0  0 
 25  6  1  0  0  0  0 
 26  6  1  0  0  0  0 
 28  7  1  0  0  0  0 
M  END 
>  <HBA> 
2 
 
>  <HBD> 
0 
 
>  <TPSA> 
18.46 
 
>  <cid> 
20357 
 
>  <dipole> 
1.38 
 
>  <excitation_energy_1> 
6.468 
 
>  <excitation_energy_2> 
6.735 
 
>  <excitation_energy_3> 
6.851 
 
>  <excitation_energy_4> 
6.916 
 
>  <homo_energy> 
-6.773 
 
>  <homo_lumo_gap> 
9.157 
 
>  <logP> 
2.718 
 
>  <lumo_energy> 
2.384 
 
>  <melting_point> 
-24.54 
 
>  <molecular_refractivity> 
50.24 
 
>  <oscillator_strength_1> 
0.0158 
 
>  <oscillator_strength_2> 
0.0073 
 
>  <oscillator_strength_3> 
0.0149 
 
>  <oscillator_strength_4> 
0.0017 
 
>  <open_babel_can_smiles> 
CCCCCC[C@H]1OC[C@H](O1)C 
 
>  <mulliken_charges> 
32 
1   -0.440984 
2   -0.465595 
3   -0.247865 
4   -0.248776 
5   -0.255374 
6   -0.271446 
7   -0.286059 
8   -0.023753 
9   0.121878 
10   0.386397 
11   -0.512656 
12   -0.494732 
13   0.13961 
14   0.140476 
15   0.140324 
16   0.148684 
17   0.164186 
18   0.160096 
19   0.132962 
20   0.129496 
21   0.125427 
22   0.122196 
23   0.15321 
24   0.124842 
25   0.130767 
26   0.132931 
27   0.143959 
28   0.148869 
29   0.13578 
30   0.135218 
31   0.125624 
32   0.104305 
 
>  <lowdin_charges> 
32 
1   -0.446972 
2   -0.44641 
3   -0.277084 
4   -0.278125 
5   -0.283296 
6   -0.278505 
7   -0.287025 
8   -0.144709 
9   -0.007402 
10   0.106569 
11   -0.281708 
12   -0.263094 
13   0.148938 
14   0.147124 
15   0.145999 
16   0.157447 
17   0.161825 
18   0.15887 
19   0.139655 
20   0.139823 
21   0.140162 
22   0.136186 
23   0.151382 
24   0.140724 
25   0.143675 
26   0.139735 
27   0.1529 
28   0.157594 
29   0.142078 
30   0.139454 
31   0.129768 
32   0.114421 
 
$$$$ 
 
