PCCDB-ID:  10341 
public computational chemistry database (PCCDB) project, http://pccdb.org 
 
 10 10  0  0  0  0  0  0  0  0999 V2000 
    1.0525    0.6586   -0.0258 C   0  0  0  0  0  0  0  0  0  0  0  0 
    1.0288   -0.6756   -0.0376 C   0  0  0  0  0  0  0  0  0  0  0  0 
   -0.3505    1.1679    0.1446 C   0  0  0  0  0  0  0  0  0  0  0  0 
   -0.3761   -1.1303    0.1212 C   0  0  0  0  0  0  0  0  0  0  0  0 
   -0.8292   -2.2449    0.1617 O   0  0  0  0  0  0  0  0  0  0  0  0 
   -1.1660   -0.0021    0.2250 O   0  0  0  0  0  0  0  0  0  0  0  0 
    1.9136    1.3109   -0.1200 H   0  0  0  0  0  0  0  0  0  0  0  0 
    1.8507   -1.3713   -0.1408 H   0  0  0  0  0  0  0  0  0  0  0  0 
   -0.6854    1.7812   -0.7022 H   0  0  0  0  0  0  0  0  0  0  0  0 
   -0.4786    1.7577    1.0617 H   0  0  0  0  0  0  0  0  0  0  0  0 
  1  3  1  0  0  0  0 
  2  1  2  0  0  0  0 
  2  4  1  0  0  0  0 
  3  6  1  0  0  0  0 
  3 10  1  0  0  0  0 
  4  5  2  0  0  0  0 
  4  6  1  0  0  0  0 
  7  1  1  0  0  0  0 
  8  2  1  0  0  0  0 
  9  3  1  0  0  0  0 
M  END 
>  <HBA> 
2 
 
>  <HBD> 
0 
 
>  <TPSA> 
26.3 
 
>  <cid> 
10341 
 
>  <dipole> 
4.86 
 
>  <excitation_energy_1> 
4.719 
 
>  <excitation_energy_2> 
6.056 
 
>  <excitation_energy_3> 
6.666 
 
>  <excitation_energy_4> 
7.036 
 
>  <homo_energy> 
-7.393 
 
>  <homo_lumo_gap> 
6.093 
 
>  <logP> 
0.099 
 
>  <lumo_energy> 
-1.301 
 
>  <melting_point> 
19.58 
 
>  <molecular_refractivity> 
20.04 
 
>  <oscillator_strength_1> 
0.0 
 
>  <oscillator_strength_2> 
0.1571 
 
>  <oscillator_strength_3> 
0.142 
 
>  <oscillator_strength_4> 
0.0148 
 
>  <open_babel_can_smiles> 
C1OC(=O)C=C1 
 
>  <mulliken_charges> 
10 
1   -0.138118 
2   -0.162007 
3   -0.063144 
4   0.593811 
5   -0.460761 
6   -0.457543 
7   0.166358 
8   0.167211 
9   0.177083 
10   0.177109 
 
>  <lowdin_charges> 
10 
1   -0.139762 
2   -0.191676 
3   -0.123046 
4   0.190629 
5   -0.233471 
6   -0.195497 
7   0.176403 
8   0.184021 
9   0.166462 
10   0.165937 
 
$$$$ 
 
