PCCDB-ID:  24585 
public computational chemistry database (PCCDB) project, http://pccdb.org 
 
 29 29  0  0  1  0  0  0  0  0999 V2000 
    2.1687    0.8468    1.2750 C   0  0  0  0  0  0  0  0  0  0  0  0 
    1.9438   -1.3936    0.2612 C   0  0  0  0  0  0  0  0  0  0  0  0 
    6.1603    1.7232   -4.0443 C   0  0  0  0  0  0  0  0  0  0  0  0 
    4.9304   -0.1133   -2.7889 C   0  0  0  0  0  0  0  0  0  0  0  0 
    4.2648   -0.5459   -1.4734 C   0  0  0  0  0  0  0  0  0  0  0  0 
    4.4903    2.2986   -2.2220 C   0  0  0  0  0  0  0  0  0  0  0  0 
    2.4421    0.0345    0.2438 C   0  0  0  0  0  0  0  0  0  0  0  0 
    5.5469    1.2929   -2.7075 C   0  0  2  0  0  0  0  0  0  0  0  0 
    3.1977    0.4746   -1.0108 C   0  0  1  0  0  0  0  0  0  0  0  0 
    3.8334    1.8789   -0.9038 C   0  0  1  0  0  0  0  0  0  0  0  0 
    4.8565    1.9263    0.0957 O   0  0  0  0  0  0  0  0  0  0  0  0 
    1.5943    0.4927    2.1274 H   0  0  0  0  0  0  0  0  0  0  0  0 
    2.4706    1.8893    1.3131 H   0  0  0  0  0  0  0  0  0  0  0  0 
    1.2706   -1.5671    1.1058 H   0  0  0  0  0  0  0  0  0  0  0  0 
    2.7685   -2.1130    0.3367 H   0  0  0  0  0  0  0  0  0  0  0  0 
    1.4014   -1.6345   -0.6631 H   0  0  0  0  0  0  0  0  0  0  0  0 
    6.9372    1.0205   -4.3695 H   0  0  0  0  0  0  0  0  0  0  0  0 
    6.6179    2.7171   -3.9710 H   0  0  0  0  0  0  0  0  0  0  0  0 
    5.3987    1.7654   -4.8344 H   0  0  0  0  0  0  0  0  0  0  0  0 
    4.1796   -0.1303   -3.5956 H   0  0  0  0  0  0  0  0  0  0  0  0 
    5.7010   -0.8437   -3.0697 H   0  0  0  0  0  0  0  0  0  0  0  0 
    5.0267   -0.6428   -0.6893 H   0  0  0  0  0  0  0  0  0  0  0  0 
    3.8137   -1.5354   -1.6047 H   0  0  0  0  0  0  0  0  0  0  0  0 
    3.7043    2.4080   -2.9839 H   0  0  0  0  0  0  0  0  0  0  0  0 
    4.9430    3.2886   -2.0850 H   0  0  0  0  0  0  0  0  0  0  0  0 
    6.3435    1.2677   -1.9519 H   0  0  0  0  0  0  0  0  0  0  0  0 
    2.4425    0.5329   -1.8144 H   0  0  0  0  0  0  0  0  0  0  0  0 
    3.0425    2.6080   -0.6634 H   0  0  0  0  0  0  0  0  0  0  0  0 
    4.5081    1.4856    0.8874 H   0  0  0  0  0  0  0  0  0  0  0  0 
  1 13  1  0  0  0  0 
  1 12  1  0  0  0  0 
  2 15  1  0  0  0  0 
  2 14  1  0  0  0  0 
  3 18  1  0  0  0  0 
  3  8  1  0  0  0  0 
  4  8  1  0  0  0  0 
  4  5  1  0  0  0  0 
  5  9  1  0  0  0  0 
  5 22  1  0  0  0  0 
  6 25  1  0  0  0  0 
  6 10  1  0  0  0  0 
  7  2  1  0  0  0  0 
  7  1  2  0  0  0  0 
  8  6  1  0  0  0  0 
  8 26  1  1  0  0  0 
  9 27  1  6  0  0  0 
  9 10  1  0  0  0  0 
  9  7  1  0  0  0  0 
 10 28  1  1  0  0  0 
 10 11  1  0  0  0  0 
 11 29  1  0  0  0  0 
 16  2  1  0  0  0  0 
 17  3  1  0  0  0  0 
 19  3  1  0  0  0  0 
 20  4  1  0  0  0  0 
 21  4  1  0  0  0  0 
 23  5  1  0  0  0  0 
 24  6  1  0  0  0  0 
M  END 
>  <HBA> 
1 
 
>  <HBD> 
1 
 
>  <TPSA> 
20.23 
 
>  <cid> 
24585 
 
>  <dipole> 
1.74 
 
>  <excitation_energy_1> 
6.147 
 
>  <excitation_energy_2> 
6.204 
 
>  <excitation_energy_3> 
6.462 
 
>  <excitation_energy_4> 
6.503 
 
>  <homo_energy> 
-6.808 
 
>  <homo_lumo_gap> 
7.225 
 
>  <logP> 
2.36 
 
>  <lumo_energy> 
0.416 
 
>  <melting_point> 
-5.2 
 
>  <molecular_refractivity> 
48.76 
 
>  <oscillator_strength_1> 
0.0023 
 
>  <oscillator_strength_2> 
0.0191 
 
>  <oscillator_strength_3> 
0.1124 
 
>  <oscillator_strength_4> 
0.0637 
 
>  <open_babel_can_smiles> 
C[C@@H]1CC[C@H]([C@H](C1)O)C(=C)C 
 
>  <mulliken_charges> 
29 
1   -0.433959 
2   -0.519145 
3   -0.447033 
4   -0.262741 
5   -0.269268 
6   -0.267347 
7   0.222162 
8   -0.070108 
9   -0.172062 
10   0.127897 
11   -0.645 
12   0.135709 
13   0.148123 
14   0.153417 
15   0.16452 
16   0.154754 
17   0.138472 
18   0.141151 
19   0.134349 
20   0.119381 
21   0.128935 
22   0.141924 
23   0.13233 
24   0.120886 
25   0.141852 
26   0.144599 
27   0.132402 
28   0.112106 
29   0.391693 
 
>  <lowdin_charges> 
29 
1   -0.381988 
2   -0.443659 
3   -0.444088 
4   -0.278079 
5   -0.28062 
6   -0.281959 
7   0.010679 
8   -0.127315 
9   -0.149206 
10   -0.003739 
11   -0.474435 
12   0.157505 
13   0.157315 
14   0.157937 
15   0.161285 
16   0.15631 
17   0.148148 
18   0.148157 
19   0.143373 
20   0.134099 
21   0.144131 
22   0.146488 
23   0.144385 
24   0.139985 
25   0.150873 
26   0.148186 
27   0.149645 
28   0.126623 
29   0.339964 
 
$$$$ 
 
