PCCDB-ID:  47552 
public computational chemistry database (PCCDB) project, http://pccdb.org 
 
 25 26  0  0  0  0  0  0  0  0999 V2000 
    2.0292    0.2282    0.7767 C   0  0  0  0  0  0  0  0  0  0  0  0 
    5.6293   -3.9260    0.5870 C   0  0  0  0  0  0  0  0  0  0  0  0 
    3.7364   -4.8039   -0.7012 C   0  0  0  0  0  0  0  0  0  0  0  0 
    5.4946   -5.1496    1.4985 C   0  0  0  0  0  0  0  0  0  0  0  0 
    3.6843   -5.9817    0.2706 C   0  0  0  0  0  0  0  0  0  0  0  0 
    3.4998   -0.0255    0.8430 C   0  0  0  0  0  0  0  0  0  0  0  0 
    4.2561   -1.2062    0.5062 C   0  0  0  0  0  0  0  0  0  0  0  0 
    3.6632   -2.4502   -0.0891 C   0  0  0  0  0  0  0  0  0  0  0  0 
    4.3390    0.8860    1.2603 N   0  0  0  0  0  0  0  0  0  0  0  0 
    5.5265   -0.9635    0.7173 N   0  0  0  0  0  0  0  0  0  0  0  0 
    4.3357   -3.6373   -0.0405 N   0  0  0  0  0  0  0  0  0  0  0  0 
    2.5513   -2.3357   -0.6091 O   0  0  0  0  0  0  0  0  0  0  0  0 
    4.9711   -6.2700    0.8025 O   0  0  0  0  0  0  0  0  0  0  0  0 
    5.5937    0.3172    1.1816 O   0  0  0  0  0  0  0  0  0  0  0  0 
    1.4811   -0.5186    1.3590 H   0  0  0  0  0  0  0  0  0  0  0  0 
    1.6768    0.1448   -0.2541 H   0  0  0  0  0  0  0  0  0  0  0  0 
    1.8098    1.2248    1.1668 H   0  0  0  0  0  0  0  0  0  0  0  0 
    6.3662   -4.1381   -0.2002 H   0  0  0  0  0  0  0  0  0  0  0  0 
    5.9805   -3.0647    1.1510 H   0  0  0  0  0  0  0  0  0  0  0  0 
    2.7414   -4.5250   -1.0479 H   0  0  0  0  0  0  0  0  0  0  0  0 
    4.3548   -5.0731   -1.5687 H   0  0  0  0  0  0  0  0  0  0  0  0 
    4.8490   -4.8998    2.3575 H   0  0  0  0  0  0  0  0  0  0  0  0 
    6.4780   -5.4463    1.8749 H   0  0  0  0  0  0  0  0  0  0  0  0 
    3.3501   -6.8869   -0.2447 H   0  0  0  0  0  0  0  0  0  0  0  0 
    2.9774   -5.7597    1.0872 H   0  0  0  0  0  0  0  0  0  0  0  0 
  1  6  1  0  0  0  0 
  1 17  1  0  0  0  0 
  1 15  1  0  0  0  0 
  2 19  1  0  0  0  0 
  2  4  1  0  0  0  0 
  3 11  1  0  0  0  0 
  3  5  1  0  0  0  0 
  4 23  1  0  0  0  0 
  4 22  1  0  0  0  0 
  5 13  1  0  0  0  0 
  5 25  1  0  0  0  0 
  6  9  2  0  0  0  0 
  7 10  2  0  0  0  0 
  7  6  1  0  0  0  0 
  8 11  1  0  0  0  0 
  8  7  1  0  0  0  0 
 10 14  1  0  0  0  0 
 11  2  1  0  0  0  0 
 12  8  2  0  0  0  0 
 13  4  1  0  0  0  0 
 14  9  1  0  0  0  0 
 16  1  1  0  0  0  0 
 18  2  1  0  0  0  0 
 20  3  1  0  0  0  0 
 21  3  1  0  0  0  0 
 24  5  1  0  0  0  0 
M  END 
>  <HBA> 
6 
 
>  <HBD> 
0 
 
>  <TPSA> 
68.46 
 
>  <cid> 
47552 
 
>  <dipole> 
2.21 
 
>  <excitation_energy_1> 
4.314 
 
>  <excitation_energy_2> 
4.515 
 
>  <excitation_energy_3> 
5.277 
 
>  <excitation_energy_4> 
5.597 
 
>  <homo_energy> 
-6.74 
 
>  <homo_lumo_gap> 
4.969 
 
>  <logP> 
-0.212 
 
>  <lumo_energy> 
-1.771 
 
>  <melting_point> 
87.56 
 
>  <molecular_refractivity> 
49.66 
 
>  <oscillator_strength_1> 
0.0401 
 
>  <oscillator_strength_2> 
0.0025 
 
>  <oscillator_strength_3> 
0.002 
 
>  <oscillator_strength_4> 
0.0018 
 
>  <open_babel_can_smiles> 
O=C(c1nonc1C)N1CCOCC1 
 
>  <mulliken_charges> 
25 
1   -0.50114 
2   -0.168848 
3   -0.161666 
4   -0.034354 
5   -0.039197 
6   0.283793 
7   0.197029 
8   0.601661 
9   -0.173581 
10   -0.208862 
11   -0.459152 
12   -0.528848 
13   -0.4615 
14   -0.205322 
15   0.179434 
16   0.201038 
17   0.175977 
18   0.163423 
19   0.199135 
20   0.199171 
21   0.160882 
22   0.130403 
23   0.158482 
24   0.157133 
25   0.134909 
 
>  <lowdin_charges> 
25 
1   -0.434608 
2   -0.219901 
3   -0.214181 
4   -0.141094 
5   -0.139747 
6   0.021176 
7   -0.03465 
8   0.152714 
9   -0.048062 
10   -0.043603 
11   -0.090667 
12   -0.307328 
13   -0.269861 
14   -0.026241 
15   0.17737 
16   0.185756 
17   0.171813 
18   0.155066 
19   0.182882 
20   0.183536 
21   0.153467 
22   0.13304 
23   0.158495 
24   0.158996 
25   0.13563 
 
$$$$ 
 
