PCCDB-ID:  66886 
public computational chemistry database (PCCDB) project, http://pccdb.org 
 
 24 24  0  0  0  0  0  0  0  0999 V2000 
    0.7653    0.7450    0.2162 C   0  0  0  0  0  0  0  0  0  0  0  0 
    4.4206    1.6909   -0.3121 C   0  0  0  0  0  0  0  0  0  0  0  0 
    3.0382    1.8009   -0.1736 C   0  0  0  0  0  0  0  0  0  0  0  0 
    5.0621    0.4579   -0.2014 C   0  0  0  0  0  0  0  0  0  0  0  0 
    6.3006   -2.1799    0.3918 C   0  0  0  0  0  0  0  0  0  0  0  0 
    6.6400   -3.6510    0.1579 C   0  0  0  0  0  0  0  0  0  0  0  0 
    2.9136   -0.5760    0.1880 C   0  0  0  0  0  0  0  0  0  0  0  0 
    2.2686    0.6575    0.0791 C   0  0  0  0  0  0  0  0  0  0  0  0 
    4.3065   -0.7002    0.0463 C   0  0  0  0  0  0  0  0  0  0  0  0 
    4.8787   -1.9836    0.1189 N   0  0  0  0  0  0  0  0  0  0  0  0 
    6.3729   -4.0359   -1.1771 O   0  0  0  0  0  0  0  0  0  0  0  0 
    0.4349    1.7826    0.3269 H   0  0  0  0  0  0  0  0  0  0  0  0 
    0.4065    0.1827    1.0863 H   0  0  0  0  0  0  0  0  0  0  0  0 
    0.2594    0.3306   -0.6657 H   0  0  0  0  0  0  0  0  0  0  0  0 
    5.0164    2.5805   -0.5008 H   0  0  0  0  0  0  0  0  0  0  0  0 
    2.5552    2.7709   -0.2563 H   0  0  0  0  0  0  0  0  0  0  0  0 
    6.1403    0.4059   -0.3030 H   0  0  0  0  0  0  0  0  0  0  0  0 
    6.8778   -1.5826   -0.3198 H   0  0  0  0  0  0  0  0  0  0  0  0 
    6.5914   -1.8667    1.4093 H   0  0  0  0  0  0  0  0  0  0  0  0 
    6.0799   -4.2776    0.8775 H   0  0  0  0  0  0  0  0  0  0  0  0 
    7.7058   -3.8226    0.3403 H   0  0  0  0  0  0  0  0  0  0  0  0 
    2.3232   -1.4713    0.3814 H   0  0  0  0  0  0  0  0  0  0  0  0 
    4.3028   -2.6150    0.6685 H   0  0  0  0  0  0  0  0  0  0  0  0 
    5.5275   -3.6095   -1.4043 H   0  0  0  0  0  0  0  0  0  0  0  0 
  1 12  1  0  0  0  0 
  1 13  1  0  0  0  0 
  2  4  2  0  0  0  0 
  2  3  1  0  0  0  0 
  3  8  2  0  0  0  0 
  4  9  1  0  0  0  0 
  5 19  1  0  0  0  0 
  6 21  1  0  0  0  0 
  6  5  1  0  0  0  0 
  6 20  1  0  0  0  0 
  7 22  1  0  0  0  0 
  8  7  1  0  0  0  0 
  8  1  1  0  0  0  0 
  9 10  1  0  0  0  0 
  9  7  2  0  0  0  0 
 10  5  1  0  0  0  0 
 10 23  1  0  0  0  0 
 11  6  1  0  0  0  0 
 14  1  1  0  0  0  0 
 15  2  1  0  0  0  0 
 16  3  1  0  0  0  0 
 17  4  1  0  0  0  0 
 18  5  1  0  0  0  0 
 24 11  1  0  0  0  0 
M  END 
>  <HBA> 
2 
 
>  <HBD> 
2 
 
>  <TPSA> 
32.26 
 
>  <cid> 
66886 
 
>  <dipole> 
2.05 
 
>  <excitation_energy_1> 
4.62 
 
>  <excitation_energy_2> 
4.923 
 
>  <excitation_energy_3> 
5.29 
 
>  <excitation_energy_4> 
5.375 
 
>  <homo_energy> 
-5.508 
 
>  <homo_lumo_gap> 
5.581 
 
>  <logP> 
1.472 
 
>  <lumo_energy> 
0.073 
 
>  <melting_point> 
60.66 
 
>  <molecular_refractivity> 
46.68 
 
>  <oscillator_strength_1> 
0.0364 
 
>  <oscillator_strength_2> 
0.0184 
 
>  <oscillator_strength_3> 
0.0783 
 
>  <oscillator_strength_4> 
0.0695 
 
>  <open_babel_can_smiles> 
OCCNc1cccc(c1)C 
 
>  <mulliken_charges> 
24 
1   -0.530264 
2   -0.136226 
3   -0.18786 
4   -0.181317 
5   -0.143603 
6   -0.030461 
7   -0.2443 
8   0.176623 
9   0.3551 
10   -0.686082 
11   -0.620991 
12   0.155265 
13   0.156573 
14   0.164341 
15   0.126123 
16   0.11576 
17   0.124468 
18   0.167927 
19   0.135938 
20   0.112836 
21   0.149782 
22   0.107245 
23   0.312776 
24   0.400348 
 
>  <lowdin_charges> 
24 
1   -0.442409 
2   -0.144775 
3   -0.194536 
4   -0.205968 
5   -0.21809 
6   -0.135648 
7   -0.209306 
8   0.01197 
9   0.058136 
10   -0.315789 
11   -0.469712 
12   0.156039 
13   0.158452 
14   0.16199 
15   0.157096 
16   0.152634 
17   0.155579 
18   0.158401 
19   0.135213 
20   0.121567 
21   0.149421 
22   0.148434 
23   0.270464 
24   0.340836 
 
$$$$ 
 
