PCCDB-ID:  15048 
public computational chemistry database (PCCDB) project, http://pccdb.org 
 
 18 19  0  0  0  0  0  0  0  0999 V2000 
    1.1003   -0.0983    0.0319 C   0  0  0  0  0  0  0  0  0  0  0  0 
    6.6448    1.5749    0.0284 C   0  0  0  0  0  0  0  0  0  0  0  0 
    2.6040   -0.1054    0.0172 C   0  0  0  0  0  0  0  0  0  0  0  0 
    5.3327   -0.0636   -0.0073 C   0  0  0  0  0  0  0  0  0  0  0  0 
    4.6188   -1.2635   -0.0256 C   0  0  0  0  0  0  0  0  0  0  0  0 
    4.6067    1.1507    0.0243 C   0  0  0  0  0  0  0  0  0  0  0  0 
    5.2204   -2.4714   -0.0736 N   0  0  0  0  0  0  0  0  0  0  0  0 
    6.6703    0.2391   -0.0026 N   0  0  0  0  0  0  0  0  0  0  0  0 
    5.4195    2.2021    0.0458 N   0  0  0  0  0  0  0  0  0  0  0  0 
    3.2498   -1.2512   -0.0097 N   0  0  0  0  0  0  0  0  0  0  0  0 
    3.2323    1.1035    0.0330 N   0  0  0  0  0  0  0  0  0  0  0  0 
    0.7421   -1.1277    0.0090 H   0  0  0  0  0  0  0  0  0  0  0  0 
    0.6963    0.4352   -0.8372 H   0  0  0  0  0  0  0  0  0  0  0  0 
    0.7128    0.3902    0.9343 H   0  0  0  0  0  0  0  0  0  0  0  0 
    7.5568    2.1617    0.0397 H   0  0  0  0  0  0  0  0  0  0  0  0 
    6.2249   -2.5214    0.0082 H   0  0  0  0  0  0  0  0  0  0  0  0 
    4.6634   -3.3063    0.0249 H   0  0  0  0  0  0  0  0  0  0  0  0 
    2.7008    1.9668    0.0562 H   0  0  0  0  0  0  0  0  0  0  0  0 
  1 14  1  0  0  0  0 
  2 15  1  0  0  0  0 
  2  9  1  0  0  0  0 
  3  1  1  0  0  0  0 
  3 11  1  0  0  0  0 
  4  8  1  0  0  0  0 
  4  6  1  0  0  0  0 
  5 10  1  0  0  0  0 
  5  4  2  0  0  0  0 
  6 11  1  0  0  0  0 
  6  9  2  0  0  0  0 
  7  5  1  0  0  0  0 
  7 16  1  0  0  0  0 
  7 17  1  0  0  0  0 
  8  2  2  0  0  0  0 
 10  3  2  0  0  0  0 
 11 18  1  0  0  0  0 
 12  1  1  0  0  0  0 
 13  1  1  0  0  0  0 
M  END 
>  <HBA> 
4 
 
>  <HBD> 
2 
 
>  <TPSA> 
80.48 
 
>  <cid> 
15048 
 
>  <dipole> 
4.83 
 
>  <excitation_energy_1> 
4.326 
 
>  <excitation_energy_2> 
4.648 
 
>  <excitation_energy_3> 
4.729 
 
>  <excitation_energy_4> 
5.007 
 
>  <homo_energy> 
-5.698 
 
>  <homo_lumo_gap> 
4.686 
 
>  <logP> 
0.825 
 
>  <lumo_energy> 
-1.012 
 
>  <melting_point> 
196.44 
 
>  <molecular_refractivity> 
41.05 
 
>  <oscillator_strength_1> 
0.0943 
 
>  <oscillator_strength_2> 
0.1398 
 
>  <oscillator_strength_3> 
0.0005 
 
>  <oscillator_strength_4> 
0.0003 
 
>  <open_babel_can_smiles> 
Cc1nc(N)c2c([nH]1)ncn2 
 
>  <mulliken_charges> 
18 
1   -0.537519 
2   0.161459 
3   0.51519 
4   0.232002 
5   0.472809 
6   0.486219 
7   -0.775351 
8   -0.534389 
9   -0.518124 
10   -0.558025 
11   -0.689773 
12   0.199853 
13   0.177015 
14   0.176866 
15   0.131698 
16   0.364987 
17   0.34691 
18   0.348175 
 
>  <lowdin_charges> 
18 
1   -0.451063 
2   -0.068894 
3   0.115938 
4   -0.06916 
5   0.12488 
6   0.045526 
7   -0.425342 
8   -0.234388 
9   -0.247643 
10   -0.216238 
11   -0.1625 
12   0.184828 
13   0.171255 
14   0.170915 
15   0.155247 
16   0.304652 
17   0.297269 
18   0.30472 
 
$$$$ 
 
