PCCDB-ID:  11288 
public computational chemistry database (PCCDB) project, http://pccdb.org 
 
 21 21  0  0  0  0  0  0  0  0999 V2000 
   -1.1808   -0.6214    0.2041 C   0  0  0  0  0  0  0  0  0  0  0  0 
   -0.0307   -1.3316    0.5262 C   0  0  0  0  0  0  0  0  0  0  0  0 
   -1.0813    0.7097   -0.1828 C   0  0  0  0  0  0  0  0  0  0  0  0 
    1.2360   -0.7435    0.4174 C   0  0  0  0  0  0  0  0  0  0  0  0 
    0.1594    1.3582   -0.2289 C   0  0  0  0  0  0  0  0  0  0  0  0 
    1.3348    0.6177    0.0411 C   0  0  0  0  0  0  0  0  0  0  0  0 
    2.3733   -1.6538    0.8495 C   0  0  0  0  0  0  0  0  0  0  0  0 
    0.0732    2.8169   -0.6518 C   0  0  0  0  0  0  0  0  0  0  0  0 
    2.6635    1.3109   -0.0330 C   0  0  0  0  0  0  0  0  0  0  0  0 
    2.2101   -2.4632    1.7314 O   0  0  0  0  0  0  0  0  0  0  0  0 
    3.5606   -1.5643    0.2192 O   0  0  0  0  0  0  0  0  0  0  0  0 
   -0.7719    3.1743   -1.4397 O   0  0  0  0  0  0  0  0  0  0  0  0 
    0.9132    3.7092   -0.1012 O   0  0  0  0  0  0  0  0  0  0  0  0 
    3.0224    2.2204    0.6860 O   0  0  0  0  0  0  0  0  0  0  0  0 
    3.4541    0.8458   -1.0326 O   0  0  0  0  0  0  0  0  0  0  0  0 
   -2.1529   -1.1013    0.2631 H   0  0  0  0  0  0  0  0  0  0  0  0 
   -0.0853   -2.3582    0.8702 H   0  0  0  0  0  0  0  0  0  0  0  0 
   -1.9617    1.2825   -0.4510 H   0  0  0  0  0  0  0  0  0  0  0  0 
    3.5206   -0.9443   -0.5323 H   0  0  0  0  0  0  0  0  0  0  0  0 
    1.5262    3.2962    0.5398 H   0  0  0  0  0  0  0  0  0  0  0  0 
    4.2930    1.3490   -0.9933 H   0  0  0  0  0  0  0  0  0  0  0  0 
  1 16  1  0  0  0  0 
  1  2  2  0  0  0  0 
  2 17  1  0  0  0  0 
  3  1  1  0  0  0  0 
  4  2  1  0  0  0  0 
  4  7  1  0  0  0  0 
  5  3  2  0  0  0  0 
  5  6  1  0  0  0  0 
  6  4  2  0  0  0  0 
  7 10  2  0  0  0  0 
  8  5  1  0  0  0  0 
  8 13  1  0  0  0  0 
  9  6  1  0  0  0  0 
  9 14  2  0  0  0  0 
 11  7  1  0  0  0  0 
 12  8  2  0  0  0  0 
 13 20  1  0  0  0  0 
 15 21  1  0  0  0  0 
 15  9  1  0  0  0  0 
 18  3  1  0  0  0  0 
 19 11  1  0  0  0  0 
M  END 
>  <HBA> 
6 
 
>  <HBD> 
3 
 
>  <TPSA> 
111.9 
 
>  <cid> 
11288 
 
>  <dipole> 
1.67 
 
>  <excitation_energy_1> 
4.478 
 
>  <excitation_energy_2> 
4.565 
 
>  <excitation_energy_3> 
4.75 
 
>  <excitation_energy_4> 
4.928 
 
>  <homo_energy> 
-7.554 
 
>  <homo_lumo_gap> 
5.314 
 
>  <logP> 
0.781 
 
>  <lumo_energy> 
-2.24 
 
>  <melting_point> 
279.31 
 
>  <molecular_refractivity> 
47.32 
 
>  <oscillator_strength_1> 
0.0333 
 
>  <oscillator_strength_2> 
0.0054 
 
>  <oscillator_strength_3> 
0.0019 
 
>  <oscillator_strength_4> 
0.0004 
 
>  <open_babel_can_smiles> 
OC(=O)c1c(cccc1C(=O)O)C(=O)O 
 
>  <mulliken_charges> 
21 
1   -0.12142 
2   -0.148596 
3   -0.149401 
4   0.009969 
5   0.012666 
6   0.030325 
7   0.545553 
8   0.543474 
9   0.473845 
10   -0.433006 
11   -0.586927 
12   -0.440335 
13   -0.579989 
14   -0.446878 
15   -0.562268 
16   0.162303 
17   0.185437 
18   0.186969 
19   0.439089 
20   0.441427 
21   0.43776 
 
>  <lowdin_charges> 
21 
1   -0.136613 
2   -0.112134 
3   -0.114204 
4   -0.045403 
5   -0.039912 
6   -0.040722 
7   0.18812 
8   0.186802 
9   0.206221 
10   -0.230968 
11   -0.353341 
12   -0.238654 
13   -0.346277 
14   -0.240148 
15   -0.336122 
16   0.17453 
17   0.186821 
18   0.189643 
19   0.358111 
20   0.364994 
21   0.379255 
 
$$$$ 
 
