PCCDB-ID:  30674 
public computational chemistry database (PCCDB) project, http://pccdb.org 
 
 26 27  0  0  0  0  0  0  0  0999 V2000 
    0.8325    1.5810   -0.1070 C   0  0  0  0  0  0  0  0  0  0  0  0 
    4.5636    2.2467    0.3617 C   0  0  0  0  0  0  0  0  0  0  0  0 
    3.1882    2.4585    0.2125 C   0  0  0  0  0  0  0  0  0  0  0  0 
    5.0871    0.9610    0.3635 C   0  0  0  0  0  0  0  0  0  0  0  0 
    2.8481    0.0728    0.0673 C   0  0  0  0  0  0  0  0  0  0  0  0 
    4.0128   -2.5075    0.0127 C   0  0  0  0  0  0  0  0  0  0  0  0 
    2.3204    1.3757    0.0634 C   0  0  0  0  0  0  0  0  0  0  0  0 
    4.2211   -0.1315    0.2145 C   0  0  0  0  0  0  0  0  0  0  0  0 
    4.8917   -3.7069    0.0018 C   0  0  0  0  0  0  0  0  0  0  0  0 
    6.4336   -5.0737   -0.7918 C   0  0  0  0  0  0  0  0  0  0  0  0 
    7.3048   -5.5145   -1.5972 N   0  0  0  0  0  0  0  0  0  0  0  0 
    4.8750   -4.6709    0.8522 N   0  0  0  0  0  0  0  0  0  0  0  0 
    5.8821   -5.5096    0.4067 N   0  0  0  0  0  0  0  0  0  0  0  0 
    4.8258   -1.3642    0.2318 O   0  0  0  0  0  0  0  0  0  0  0  0 
    5.8016   -3.8544   -1.0058 O   0  0  0  0  0  0  0  0  0  0  0  0 
    0.5613    2.6358   -0.0006 H   0  0  0  0  0  0  0  0  0  0  0  0 
    0.2609    1.0114    0.6359 H   0  0  0  0  0  0  0  0  0  0  0  0 
    0.4937    1.2492   -1.0969 H   0  0  0  0  0  0  0  0  0  0  0  0 
    5.2320    3.0959    0.4767 H   0  0  0  0  0  0  0  0  0  0  0  0 
    2.7916    3.4703    0.2124 H   0  0  0  0  0  0  0  0  0  0  0  0 
    6.1502    0.7745    0.4750 H   0  0  0  0  0  0  0  0  0  0  0  0 
    2.1684   -0.7664   -0.0422 H   0  0  0  0  0  0  0  0  0  0  0  0 
    3.2736   -2.6391    0.8122 H   0  0  0  0  0  0  0  0  0  0  0  0 
    3.4866   -2.4247   -0.9489 H   0  0  0  0  0  0  0  0  0  0  0  0 
    7.6803   -6.4096   -1.2861 H   0  0  0  0  0  0  0  0  0  0  0  0 
    5.9024   -6.4581    0.7476 H   0  0  0  0  0  0  0  0  0  0  0  0 
  1 16  1  0  0  0  0 
  1  7  1  0  0  0  0 
  1 17  1  0  0  0  0 
  2  4  1  0  0  0  0 
  2 19  1  0  0  0  0 
  3  2  2  0  0  0  0 
  4 21  1  0  0  0  0 
  5  8  1  0  0  0  0 
  6 14  1  0  0  0  0 
  6 23  1  0  0  0  0 
  7  5  2  0  0  0  0 
  7  3  1  0  0  0  0 
  8 14  1  0  0  0  0 
  8  4  2  0  0  0  0 
  9  6  1  0  0  0  0 
  9 12  2  0  0  0  0 
 10 13  1  0  0  0  0 
 11 25  1  0  0  0  0 
 11 10  2  0  0  0  0 
 13 26  1  0  0  0  0 
 13 12  1  0  0  0  0 
 15 10  1  0  0  0  0 
 15  9  1  0  0  0  0 
 18  1  1  0  0  0  0 
 20  3  1  0  0  0  0 
 22  5  1  0  0  0  0 
 24  6  1  0  0  0  0 
M  END 
>  <HBA> 
5 
 
>  <HBD> 
1 
 
>  <TPSA> 
74.17 
 
>  <cid> 
30674 
 
>  <dipole> 
3.21 
 
>  <excitation_energy_1> 
4.902 
 
>  <excitation_energy_2> 
5.046 
 
>  <excitation_energy_3> 
5.205 
 
>  <excitation_energy_4> 
5.252 
 
>  <homo_energy> 
-6.027 
 
>  <homo_lumo_gap> 
5.72 
 
>  <logP> 
2.12 
 
>  <lumo_energy> 
-0.307 
 
>  <melting_point> 
124.05 
 
>  <molecular_refractivity> 
54.65 
 
>  <oscillator_strength_1> 
0.0087 
 
>  <oscillator_strength_2> 
0.0314 
 
>  <oscillator_strength_3> 
0.0556 
 
>  <oscillator_strength_4> 
0.1046 
 
>  <open_babel_can_smiles> 
Cc1cccc(c1)OCc1n[nH]c(=N)o1 
 
>  <mulliken_charges> 
26 
1   -0.529738 
2   -0.129981 
3   -0.186093 
4   -0.174701 
5   -0.245832 
6   -0.105653 
7   0.171286 
8   0.382449 
9   0.527035 
10   0.710278 
11   -0.654153 
12   -0.280522 
13   -0.502232 
14   -0.517749 
15   -0.452814 
16   0.157477 
17   0.160332 
18   0.16341 
19   0.132216 
20   0.120504 
21   0.142158 
22   0.126716 
23   0.176731 
24   0.169618 
25   0.286119 
26   0.35314 
 
>  <lowdin_charges> 
26 
1   -0.441671 
2   -0.144398 
3   -0.186914 
4   -0.182263 
5   -0.225963 
6   -0.12612 
7   0.013348 
8   0.105446 
9   0.100943 
10   0.157569 
11   -0.43369 
12   -0.119464 
13   -0.215627 
14   -0.197586 
15   -0.118304 
16   0.157036 
17   0.160868 
18   0.160643 
19   0.160665 
20   0.154134 
21   0.167336 
22   0.158886 
23   0.166849 
24   0.16064 
25   0.266225 
26   0.301413 
 
$$$$ 
 
