PCCDB-ID:  46831 
public computational chemistry database (PCCDB) project, http://pccdb.org 
 
 30 31  0  0  1  0  0  0  0  0999 V2000 
    1.1913    0.5392    0.9288 C   0  0  0  0  0  0  0  0  0  0  0  0 
    0.8462    2.1688   -2.2282 C   0  0  0  0  0  0  0  0  0  0  0  0 
    3.4778    1.9565   -0.6074 C   0  0  0  0  0  0  0  0  0  0  0  0 
    2.6819   -2.0008   -1.6829 C   0  0  0  0  0  0  0  0  0  0  0  0 
    2.5320   -1.2899   -3.0615 C   0  0  0  0  0  0  0  0  0  0  0  0 
    0.5255   -0.9473   -1.7866 C   0  0  0  0  0  0  0  0  0  0  0  0 
    2.1814   -0.0780   -0.0835 C   0  0  1  0  0  0  0  0  0  0  0  0 
    1.9377    1.0801   -2.3253 C   0  0  2  0  0  0  0  0  0  0  0  0 
    1.6153   -1.3408   -0.7724 C   0  0  2  0  0  0  0  0  0  0  0  0 
    1.3890   -0.2624   -2.8615 C   0  0  1  0  0  0  0  0  0  0  0  0 
    2.7171    0.8309   -1.1055 N   0  0  0  0  0  0  0  0  0  0  0  0 
    0.9576   -0.1875    1.7169 H   0  0  0  0  0  0  0  0  0  0  0  0 
    0.2476    0.8465    0.4677 H   0  0  0  0  0  0  0  0  0  0  0  0 
    1.6249    1.4205    1.4141 H   0  0  0  0  0  0  0  0  0  0  0  0 
    0.4154    2.3591   -3.2191 H   0  0  0  0  0  0  0  0  0  0  0  0 
    1.2655    3.1140   -1.8661 H   0  0  0  0  0  0  0  0  0  0  0  0 
    0.0284    1.8905   -1.5565 H   0  0  0  0  0  0  0  0  0  0  0  0 
    4.2067    1.6046    0.1338 H   0  0  0  0  0  0  0  0  0  0  0  0 
    2.8821    2.7565   -0.1301 H   0  0  0  0  0  0  0  0  0  0  0  0 
    4.0365    2.4134   -1.4343 H   0  0  0  0  0  0  0  0  0  0  0  0 
    3.6893   -1.8894   -1.2697 H   0  0  0  0  0  0  0  0  0  0  0  0 
    2.4834   -3.0753   -1.7744 H   0  0  0  0  0  0  0  0  0  0  0  0 
    2.2566   -2.0081   -3.8428 H   0  0  0  0  0  0  0  0  0  0  0  0 
    3.4606   -0.8042   -3.3777 H   0  0  0  0  0  0  0  0  0  0  0  0 
   -0.2612   -0.3094   -1.3724 H   0  0  0  0  0  0  0  0  0  0  0  0 
    0.0373   -1.8416   -2.1952 H   0  0  0  0  0  0  0  0  0  0  0  0 
    3.0560   -0.4008    0.5042 H   0  0  0  0  0  0  0  0  0  0  0  0 
    2.6677    1.4446   -3.0659 H   0  0  0  0  0  0  0  0  0  0  0  0 
    1.2492   -2.0251    0.0020 H   0  0  0  0  0  0  0  0  0  0  0  0 
    0.8390   -0.0682   -3.7899 H   0  0  0  0  0  0  0  0  0  0  0  0 
  1 14  1  0  0  0  0 
  1 12  1  0  0  0  0 
  2 16  1  0  0  0  0 
  2 17  1  0  0  0  0 
  3 19  1  0  0  0  0 
  3 18  1  0  0  0  0 
  4 21  1  0  0  0  0 
  4  9  1  0  0  0  0 
  5 10  1  0  0  0  0 
  5  4  1  0  0  0  0 
  6 25  1  0  0  0  0 
  6  9  1  0  0  0  0 
  7 27  1  1  0  0  0 
  7  1  1  0  0  0  0 
  8 28  1  6  0  0  0 
  8  2  1  0  0  0  0 
  8 11  1  0  0  0  0 
  9  7  1  0  0  0  0 
  9 29  1  1  0  0  0 
 10 30  1  6  0  0  0 
 10  8  1  0  0  0  0 
 10  6  1  0  0  0  0 
 11  3  1  0  0  0  0 
 11  7  1  0  0  0  0 
 13  1  1  0  0  0  0 
 15  2  1  0  0  0  0 
 20  3  1  0  0  0  0 
 22  4  1  0  0  0  0 
 23  5  1  0  0  0  0 
 24  5  1  0  0  0  0 
 26  6  1  0  0  0  0 
M  END 
>  <HBA> 
1 
 
>  <HBD> 
0 
 
>  <TPSA> 
3.24 
 
>  <cid> 
46831 
 
>  <dipole> 
0.31 
 
>  <excitation_energy_1> 
4.624 
 
>  <excitation_energy_2> 
5.041 
 
>  <excitation_energy_3> 
5.101 
 
>  <excitation_energy_4> 
5.144 
 
>  <homo_energy> 
-5.181 
 
>  <homo_lumo_gap> 
7.157 
 
>  <logP> 
2.063 
 
>  <lumo_energy> 
1.976 
 
>  <melting_point> 
18.57 
 
>  <molecular_refractivity> 
52.77 
 
>  <oscillator_strength_1> 
0.0001 
 
>  <oscillator_strength_2> 
0.0032 
 
>  <oscillator_strength_3> 
0.0347 
 
>  <oscillator_strength_4> 
0.0175 
 
>  <open_babel_can_smiles> 
CN1[C@H](C)[C@H]2CC[C@@H]([C@@H]1C)C2 
 
>  <mulliken_charges> 
30 
1   -0.459954 
2   -0.459628 
3   -0.295513 
4   -0.261988 
5   -0.261742 
6   -0.280567 
7   0.062637 
8   0.062096 
9   -0.106021 
10   -0.106064 
11   -0.401301 
12   0.136711 
13   0.144322 
14   0.143777 
15   0.136703 
16   0.143703 
17   0.144333 
18   0.14161 
19   0.123707 
20   0.141646 
21   0.136448 
22   0.126248 
23   0.126223 
24   0.136328 
25   0.132512 
26   0.130121 
27   0.118621 
28   0.118673 
29   0.113188 
30   0.113172 
 
>  <lowdin_charges> 
30 
1   -0.466313 
2   -0.465425 
3   -0.357134 
4   -0.280277 
5   -0.283732 
6   -0.288505 
7   -0.058154 
8   -0.058065 
9   -0.137569 
10   -0.1367 
11   -0.191058 
12   0.149408 
13   0.146883 
14   0.151126 
15   0.148292 
16   0.150506 
17   0.147589 
18   0.147409 
19   0.12176 
20   0.147651 
21   0.146309 
22   0.138368 
23   0.141059 
24   0.147278 
25   0.143255 
26   0.143687 
27   0.135359 
28   0.135708 
29   0.141168 
30   0.140119 
 
$$$$ 
 
