PCCDB-ID:  68255 
public computational chemistry database (PCCDB) project, http://pccdb.org 
 
 16 16  0  0  0  0  0  0  0  0999 V2000 
   -1.3926   -0.0678    0.0493 C   0  0  0  0  0  0  0  0  0  0  0  0 
   -0.6190   -1.2420    0.0530 C   0  0  0  0  0  0  0  0  0  0  0  0 
   -0.7411    1.1518   -0.0074 C   0  0  0  0  0  0  0  0  0  0  0  0 
    0.7645   -1.1948    0.0071 C   0  0  0  0  0  0  0  0  0  0  0  0 
    1.2773    2.5583   -0.1447 C   0  0  0  0  0  0  0  0  0  0  0  0 
    0.6641    1.2404   -0.0593 C   0  0  0  0  0  0  0  0  0  0  0  0 
    1.4451    0.0437   -0.0447 C   0  0  0  0  0  0  0  0  0  0  0  0 
    2.8036    0.1016   -0.0604 N   0  0  0  0  0  0  0  0  0  0  0  0 
    2.4821    2.7983   -0.2150 O   0  0  0  0  0  0  0  0  0  0  0  0 
   -2.4757   -0.1208    0.0884 H   0  0  0  0  0  0  0  0  0  0  0  0 
   -1.1119   -2.2102    0.0939 H   0  0  0  0  0  0  0  0  0  0  0  0 
   -1.3125    2.0781   -0.0190 H   0  0  0  0  0  0  0  0  0  0  0  0 
    1.3453   -2.1143    0.0141 H   0  0  0  0  0  0  0  0  0  0  0  0 
    0.5538    3.4014   -0.1509 H   0  0  0  0  0  0  0  0  0  0  0  0 
    3.3431   -0.7404   -0.1874 H   0  0  0  0  0  0  0  0  0  0  0  0 
    3.2361    1.0098   -0.1922 H   0  0  0  0  0  0  0  0  0  0  0  0 
  1  2  1  0  0  0  0 
  1 10  1  0  0  0  0 
  2 11  1  0  0  0  0 
  3  1  2  0  0  0  0 
  4 13  1  0  0  0  0 
  4  2  2  0  0  0  0 
  5  6  1  0  0  0  0 
  6  7  2  0  0  0  0 
  6  3  1  0  0  0  0 
  7  4  1  0  0  0  0 
  8  7  1  0  0  0  0 
  9  5  2  0  0  0  0 
 12  3  1  0  0  0  0 
 14  5  1  0  0  0  0 
 15  8  1  0  0  0  0 
 16  8  1  0  0  0  0 
M  END 
>  <HBA> 
2 
 
>  <HBD> 
1 
 
>  <TPSA> 
43.09 
 
>  <cid> 
68255 
 
>  <dipole> 
2.45 
 
>  <excitation_energy_1> 
3.695 
 
>  <excitation_energy_2> 
3.928 
 
>  <excitation_energy_3> 
5.018 
 
>  <excitation_energy_4> 
5.131 
 
>  <homo_energy> 
-5.646 
 
>  <homo_lumo_gap> 
4.226 
 
>  <logP> 
1.663 
 
>  <lumo_energy> 
-1.42 
 
>  <melting_point> 
87.24 
 
>  <molecular_refractivity> 
36.23 
 
>  <oscillator_strength_1> 
0.0881 
 
>  <oscillator_strength_2> 
0.0017 
 
>  <oscillator_strength_3> 
0.0241 
 
>  <oscillator_strength_4> 
0.0069 
 
>  <open_babel_can_smiles> 
O=Cc1ccccc1N 
 
>  <mulliken_charges> 
16 
1   -0.143232 
2   -0.127187 
3   -0.196605 
4   -0.173803 
5   0.191231 
6   0.070296 
7   0.326345 
8   -0.824839 
9   -0.461992 
10   0.129433 
11   0.135633 
12   0.136926 
13   0.12315 
14   0.107915 
15   0.329315 
16   0.377414 
 
>  <lowdin_charges> 
16 
1   -0.194695 
2   -0.122382 
3   -0.128489 
4   -0.207048 
5   0.039564 
6   -0.100432 
7   0.097243 
8   -0.458143 
9   -0.274435 
10   0.157432 
11   0.161072 
12   0.160516 
13   0.156109 
14   0.124265 
15   0.284485 
16   0.304939 
 
$$$$ 
 
