PCCDB-ID:  69267 
public computational chemistry database (PCCDB) project, http://pccdb.org 
 
 18 18  0  0  0  0  0  0  0  0999 V2000 
   -0.7388    1.1909    0.0318 C   0  0  0  0  0  0  0  0  0  0  0  0 
   -1.3526   -0.0625    0.0662 C   0  0  0  0  0  0  0  0  0  0  0  0 
    0.6483    1.2945   -0.0542 C   0  0  0  0  0  0  0  0  0  0  0  0 
    0.8000   -1.1416   -0.0588 C   0  0  0  0  0  0  0  0  0  0  0  0 
   -1.2714   -2.5963    0.0210 C   0  0  0  0  0  0  0  0  0  0  0  0 
   -0.5907   -1.2383    0.0178 C   0  0  0  0  0  0  0  0  0  0  0  0 
    1.3934    0.1183   -0.0977 C   0  0  0  0  0  0  0  0  0  0  0  0 
    2.8615    0.2082   -0.1792 N   0  0  0  0  0  0  0  0  0  0  0  0 
   -2.4847   -2.6203    0.7584 O   0  0  0  0  0  0  0  0  0  0  0  0 
    3.3643    1.3307   -0.2190 O   0  0  0  0  0  0  0  0  0  0  0  0 
    3.4990   -0.8446   -0.2031 O   0  0  0  0  0  0  0  0  0  0  0  0 
   -1.3432    2.0924    0.0694 H   0  0  0  0  0  0  0  0  0  0  0  0 
   -2.4328   -0.1443    0.1386 H   0  0  0  0  0  0  0  0  0  0  0  0 
    1.1542    2.2514   -0.0834 H   0  0  0  0  0  0  0  0  0  0  0  0 
    1.4298   -2.0238   -0.0850 H   0  0  0  0  0  0  0  0  0  0  0  0 
   -0.5654   -3.3640    0.3731 H   0  0  0  0  0  0  0  0  0  0  0  0 
   -1.5564   -2.8710   -1.0013 H   0  0  0  0  0  0  0  0  0  0  0  0 
   -2.2689   -2.4285    1.6851 H   0  0  0  0  0  0  0  0  0  0  0  0 
  1  2  1  0  0  0  0 
  1 12  1  0  0  0  0 
  2 13  1  0  0  0  0 
  3  1  2  0  0  0  0 
  4  6  1  0  0  0  0 
  5 16  1  0  0  0  0 
  5  9  1  0  0  0  0 
  6  5  1  0  0  0  0 
  6  2  2  0  0  0  0 
  7  4  2  0  0  0  0 
  7  3  1  0  0  0  0 
  8  7  1  0  0  0  0 
  9 18  1  0  0  0  0 
 10  8  2  0  0  0  0 
 11  8  2  0  0  0  0 
 14  3  1  0  0  0  0 
 15  4  1  0  0  0  0 
 17  5  1  0  0  0  0 
M  END 
>  <HBA> 
1 
 
>  <HBD> 
1 
 
>  <TPSA> 
66.05 
 
>  <cid> 
69267 
 
>  <dipole> 
3.52 
 
>  <excitation_energy_1> 
3.738 
 
>  <excitation_energy_2> 
4.093 
 
>  <excitation_energy_3> 
4.247 
 
>  <excitation_energy_4> 
4.571 
 
>  <homo_energy> 
-7.38 
 
>  <homo_lumo_gap> 
4.917 
 
>  <logP> 
1.61 
 
>  <lumo_energy> 
-2.463 
 
>  <melting_point> 
65.57 
 
>  <molecular_refractivity> 
41.39 
 
>  <oscillator_strength_1> 
0.0 
 
>  <oscillator_strength_2> 
0.0194 
 
>  <oscillator_strength_3> 
0.0006 
 
>  <oscillator_strength_4> 
0.1632 
 
>  <open_babel_can_smiles> 
OCc1cccc(c1)N(=O)=O 
 
>  <mulliken_charges> 
18 
1   -0.139876 
2   -0.150901 
3   -0.148928 
4   -0.206778 
5   -0.094565 
6   0.092615 
7   0.275184 
8   0.380606 
9   -0.60446 
10   -0.393239 
11   -0.394485 
12   0.151068 
13   0.160498 
14   0.183487 
15   0.17746 
16   0.142557 
17   0.176002 
18   0.393755 
 
>  <lowdin_charges> 
18 
1   -0.146365 
2   -0.136834 
3   -0.140282 
4   -0.150595 
5   -0.13359 
6   -0.024584 
7   0.005501 
8   0.308746 
9   -0.453228 
10   -0.24514 
11   -0.247649 
12   0.169029 
13   0.172003 
14   0.188164 
15   0.185371 
16   0.141489 
17   0.163189 
18   0.344773 
 
$$$$ 
 
