PCCDB-ID:  14586 
public computational chemistry database (PCCDB) project, http://pccdb.org 
 
 25 27  0  0  0  0  0  0  0  0999 V2000 
   -3.6553   -0.7391    0.0006 C   0  0  0  0  0  0  0  0  0  0  0  0 
    3.6647   -0.7139   -0.0008 C   0  0  0  0  0  0  0  0  0  0  0  0 
   -3.6696    0.6852    0.0002 C   0  0  0  0  0  0  0  0  0  0  0  0 
    3.6693    0.7104   -0.0013 C   0  0  0  0  0  0  0  0  0  0  0  0 
   -2.4641   -1.4142    0.0006 C   0  0  0  0  0  0  0  0  0  0  0  0 
    2.4782   -1.3972   -0.0005 C   0  0  0  0  0  0  0  0  0  0  0  0 
   -2.4996    1.4004   -0.0001 C   0  0  0  0  0  0  0  0  0  0  0  0 
    2.4945    1.4175   -0.0011 C   0  0  0  0  0  0  0  0  0  0  0  0 
    0.0070   -1.3808    0.0001 C   0  0  0  0  0  0  0  0  0  0  0  0 
   -0.0077    2.8572   -0.0011 C   0  0  0  0  0  0  0  0  0  0  0  0 
   -1.2208   -0.7090    0.0003 C   0  0  0  0  0  0  0  0  0  0  0  0 
    1.2301   -0.7006   -0.0006 C   0  0  0  0  0  0  0  0  0  0  0  0 
   -1.2381    0.7331   -0.0001 C   0  0  0  0  0  0  0  0  0  0  0  0 
    1.2375    0.7416   -0.0009 C   0  0  0  0  0  0  0  0  0  0  0  0 
   -0.0026    1.4268   -0.0007 C   0  0  0  0  0  0  0  0  0  0  0  0 
   -0.0119    4.0221   -0.0015 N   0  0  0  0  0  0  0  0  0  0  0  0 
   -4.5948   -1.2842    0.0010 H   0  0  0  0  0  0  0  0  0  0  0  0 
    4.6080   -1.2525   -0.0003 H   0  0  0  0  0  0  0  0  0  0  0  0 
   -4.6217    1.2084   -0.0003 H   0  0  0  0  0  0  0  0  0  0  0  0 
    4.6177    1.2402   -0.0016 H   0  0  0  0  0  0  0  0  0  0  0  0 
   -2.4416   -2.5012    0.0007 H   0  0  0  0  0  0  0  0  0  0  0  0 
    2.4630   -2.4843    0.0002 H   0  0  0  0  0  0  0  0  0  0  0  0 
   -2.5180    2.4860   -0.0005 H   0  0  0  0  0  0  0  0  0  0  0  0 
    2.5055    2.5032   -0.0007 H   0  0  0  0  0  0  0  0  0  0  0  0 
    0.0105   -2.4690    0.0007 H   0  0  0  0  0  0  0  0  0  0  0  0 
  1  5  1  0  0  0  0 
  1 17  1  0  0  0  0 
  2  6  2  0  0  0  0 
  2 18  1  0  0  0  0 
  3  1  2  0  0  0  0 
  4  8  2  0  0  0  0 
  4  2  1  0  0  0  0 
  5 21  1  0  0  0  0 
  6 22  1  0  0  0  0 
  7 13  2  0  0  0  0 
  7  3  1  0  0  0  0 
  8 14  1  0  0  0  0 
  8 24  1  0  0  0  0 
  9 11  1  0  0  0  0 
  9 25  1  0  0  0  0 
 10 15  1  0  0  0  0 
 11  5  2  0  0  0  0 
 12  6  1  0  0  0  0 
 12  9  2  0  0  0  0 
 13 11  1  0  0  0  0 
 14 15  2  0  0  0  0 
 14 12  1  0  0  0  0 
 15 13  1  0  0  0  0 
 16 10  3  0  0  0  0 
 19  3  1  0  0  0  0 
 20  4  1  0  0  0  0 
 23  7  1  0  0  0  0 
M  END 
>  <HBA> 
1 
 
>  <HBD> 
0 
 
>  <TPSA> 
23.79 
 
>  <cid> 
14586 
 
>  <dipole> 
4.57 
 
>  <excitation_energy_1> 
3.042 
 
>  <excitation_energy_2> 
3.781 
 
>  <excitation_energy_3> 
4.25 
 
>  <excitation_energy_4> 
4.749 
 
>  <homo_energy> 
-5.723 
 
>  <homo_lumo_gap> 
3.366 
 
>  <logP> 
3.865 
 
>  <lumo_energy> 
-2.357 
 
>  <melting_point> 
131.73 
 
>  <molecular_refractivity> 
66.17 
 
>  <oscillator_strength_1> 
0.0966 
 
>  <oscillator_strength_2> 
0.0159 
 
>  <oscillator_strength_3> 
0.0017 
 
>  <oscillator_strength_4> 
0.0 
 
>  <open_babel_can_smiles> 
N#Cc1c2ccccc2cc2c1cccc2 
 
>  <mulliken_charges> 
25 
1   -0.134505 
2   -0.134491 
3   -0.134866 
4   -0.134853 
5   -0.186175 
6   -0.186176 
7   -0.192686 
8   -0.192772 
9   -0.278082 
10   0.220228 
11   0.140715 
12   0.140745 
13   0.131684 
14   0.131759 
15   0.012629 
16   -0.50797 
17   0.138786 
18   0.138779 
19   0.142347 
20   0.142351 
21   0.137777 
22   0.137779 
23   0.163222 
24   0.163221 
25   0.140557 
 
>  <lowdin_charges> 
25 
1   -0.154786 
2   -0.154738 
3   -0.144502 
4   -0.144551 
5   -0.147607 
6   -0.147593 
7   -0.153126 
8   -0.153133 
9   -0.133252 
10   -0.012953 
11   -0.002193 
12   -0.002196 
13   0.015736 
14   0.015751 
15   -0.035484 
16   -0.130878 
17   0.163475 
18   0.163437 
19   0.164975 
20   0.165016 
21   0.15962 
22   0.159617 
23   0.17425 
24   0.174241 
25   0.160875 
 
$$$$ 
 
