PCCDB-ID:  70492 
public computational chemistry database (PCCDB) project, http://pccdb.org 
 
 17 17  0  0  0  0  0  0  0  0999 V2000 
    0.5102   -0.2739   -0.1525 C   0  0  0  0  0  0  0  0  0  0  0  0 
    7.7004    0.9633    0.5482 C   0  0  0  0  0  0  0  0  0  0  0  0 
    2.8153    0.9665    0.1626 C   0  0  0  0  0  0  0  0  0  0  0  0 
    1.9999   -0.1868   -0.0263 C   0  0  0  0  0  0  0  0  0  0  0  0 
    4.0821    0.4662    0.2088 C   0  0  0  0  0  0  0  0  0  0  0  0 
    5.3677    1.1752    0.3864 C   0  0  0  0  0  0  0  0  0  0  0  0 
    2.7329   -1.2821   -0.0871 N   0  0  0  0  0  0  0  0  0  0  0  0 
    5.4363    2.3801    0.5197 O   0  0  0  0  0  0  0  0  0  0  0  0 
    6.4160    0.3371    0.3815 O   0  0  0  0  0  0  0  0  0  0  0  0 
    4.0563   -0.8758    0.0614 O   0  0  0  0  0  0  0  0  0  0  0  0 
    0.1553    0.3102   -1.0089 H   0  0  0  0  0  0  0  0  0  0  0  0 
    0.0179    0.1190    0.7442 H   0  0  0  0  0  0  0  0  0  0  0  0 
    0.2071   -1.3146   -0.2897 H   0  0  0  0  0  0  0  0  0  0  0  0 
    8.4252    0.1510    0.4992 H   0  0  0  0  0  0  0  0  0  0  0  0 
    7.7541    1.4714    1.5146 H   0  0  0  0  0  0  0  0  0  0  0  0 
    7.8777    1.6894   -0.2492 H   0  0  0  0  0  0  0  0  0  0  0  0 
    2.5194    2.0007    0.2506 H   0  0  0  0  0  0  0  0  0  0  0  0 
  1  4  1  0  0  0  0 
  1 12  1  0  0  0  0 
  2 15  1  0  0  0  0 
  3  5  2  0  0  0  0 
  3 17  1  0  0  0  0 
  4  3  1  0  0  0  0 
  5  6  1  0  0  0  0 
  6  8  2  0  0  0  0 
  7  4  2  0  0  0  0 
  7 10  1  0  0  0  0 
  9  6  1  0  0  0  0 
  9  2  1  0  0  0  0 
 10  5  1  0  0  0  0 
 11  1  1  0  0  0  0 
 13  1  1  0  0  0  0 
 14  2  1  0  0  0  0 
 16  2  1  0  0  0  0 
M  END 
>  <HBA> 
4 
 
>  <HBD> 
0 
 
>  <TPSA> 
52.33 
 
>  <cid> 
70492 
 
>  <dipole> 
1.16 
 
>  <excitation_energy_1> 
4.797 
 
>  <excitation_energy_2> 
5.459 
 
>  <excitation_energy_3> 
5.686 
 
>  <excitation_energy_4> 
5.759 
 
>  <homo_energy> 
-7.44 
 
>  <homo_lumo_gap> 
5.807 
 
>  <logP> 
0.77 
 
>  <lumo_energy> 
-1.633 
 
>  <melting_point> 
48.84 
 
>  <molecular_refractivity> 
32.75 
 
>  <oscillator_strength_1> 
0.0 
 
>  <oscillator_strength_2> 
0.3367 
 
>  <oscillator_strength_3> 
0.0182 
 
>  <oscillator_strength_4> 
0.0038 
 
>  <open_babel_can_smiles> 
COC(=O)c1onc(c1)C 
 
>  <mulliken_charges> 
17 
1   -0.526212 
2   -0.221558 
3   -0.253309 
4   0.313788 
5   0.360862 
6   0.587527 
7   -0.194652 
8   -0.483717 
9   -0.445231 
10   -0.374906 
11   0.17489 
12   0.174932 
13   0.187542 
14   0.175192 
15   0.175627 
16   0.176291 
17   0.172932 
 
>  <lowdin_charges> 
17 
1   -0.440598 
2   -0.275526 
3   -0.199223 
4   0.022946 
5   0.056541 
6   0.182732 
7   -0.068896 
8   -0.254113 
9   -0.16869 
10   -0.055686 
11   0.170887 
12   0.170744 
13   0.176687 
14   0.167169 
15   0.162292 
16   0.163735 
17   0.189 
 
$$$$ 
 
