PCCDB-ID:  12378 
public computational chemistry database (PCCDB) project, http://pccdb.org 
 
 16 16  0  0  0  0  0  0  0  0999 V2000 
   -1.6920    0.2424    0.3698 C   0  0  0  0  0  0  0  0  0  0  0  0 
   -1.3453   -1.0544    0.3705 C   0  0  0  0  0  0  0  0  0  0  0  0 
   -1.0544    1.3449   -0.3713 C   0  0  0  0  0  0  0  0  0  0  0  0 
   -0.2424   -1.6922   -0.3699 C   0  0  0  0  0  0  0  0  0  0  0  0 
    0.2425    1.6915   -0.3712 C   0  0  0  0  0  0  0  0  0  0  0  0 
    1.0544   -1.3456   -0.3698 C   0  0  0  0  0  0  0  0  0  0  0  0 
    1.3451    1.0543    0.3701 C   0  0  0  0  0  0  0  0  0  0  0  0 
    1.6918   -0.2425    0.3707 C   0  0  0  0  0  0  0  0  0  0  0  0 
   -2.5929    0.5208    0.9197 H   0  0  0  0  0  0  0  0  0  0  0  0 
   -1.9873   -1.7448    0.9207 H   0  0  0  0  0  0  0  0  0  0  0  0 
   -1.7448    1.9865   -0.9217 H   0  0  0  0  0  0  0  0  0  0  0  0 
   -0.5206   -2.5931   -0.9199 H   0  0  0  0  0  0  0  0  0  0  0  0 
    0.5208    2.5920   -0.9216 H   0  0  0  0  0  0  0  0  0  0  0  0 
    1.7451   -1.9876   -0.9196 H   0  0  0  0  0  0  0  0  0  0  0  0 
    1.9868    1.7451    0.9200 H   0  0  0  0  0  0  0  0  0  0  0  0 
    2.5924   -0.5205    0.9212 H   0  0  0  0  0  0  0  0  0  0  0  0 
  1  2  2  0  0  0  0 
  1  9  1  0  0  0  0 
  2 10  1  0  0  0  0 
  3  5  2  0  0  0  0 
  3  1  1  0  0  0  0 
  4  6  2  0  0  0  0 
  4  2  1  0  0  0  0 
  5  7  1  0  0  0  0 
  6  8  1  0  0  0  0 
  7  8  2  0  0  0  0 
  7 15  1  0  0  0  0 
  8 16  1  0  0  0  0 
 11  3  1  0  0  0  0 
 12  4  1  0  0  0  0 
 13  5  1  0  0  0  0 
 14  6  1  0  0  0  0 
M  END 
>  <HBA> 
0 
 
>  <HBD> 
0 
 
>  <TPSA> 
0.0 
 
>  <cid> 
12378 
 
>  <dipole> 
0.0 
 
>  <excitation_energy_1> 
3.288 
 
>  <excitation_energy_2> 
4.982 
 
>  <excitation_energy_3> 
4.982 
 
>  <excitation_energy_4> 
5.222 
 
>  <homo_energy> 
-5.538 
 
>  <homo_lumo_gap> 
4.297 
 
>  <logP> 
2.225 
 
>  <lumo_energy> 
-1.241 
 
>  <melting_point> 
33.85 
 
>  <molecular_refractivity> 
36.56 
 
>  <oscillator_strength_1> 
0.0 
 
>  <oscillator_strength_2> 
0.0002 
 
>  <oscillator_strength_3> 
0.0002 
 
>  <oscillator_strength_4> 
0.0 
 
>  <open_babel_can_smiles> 
C1=CC=CC=CC=C1 
 
>  <mulliken_charges> 
16 
1   -0.13112 
2   -0.131097 
3   -0.131054 
4   -0.131179 
5   -0.131202 
6   -0.13109 
7   -0.131062 
8   -0.131184 
9   0.131125 
10   0.131121 
11   0.131114 
12   0.131128 
13   0.131127 
14   0.131125 
15   0.131119 
16   0.131129 
 
>  <lowdin_charges> 
16 
1   -0.156775 
2   -0.157698 
3   -0.157694 
4   -0.156783 
5   -0.156785 
6   -0.157698 
7   -0.15769 
8   -0.15679 
9   0.156584 
10   0.157893 
11   0.157891 
12   0.156586 
13   0.156588 
14   0.157894 
15   0.157892 
16   0.156587 
 
$$$$ 
 
