PCCDB-ID:  30249 
public computational chemistry database (PCCDB) project, http://pccdb.org 
 
 38 37  0  0  1  0  0  0  0  0999 V2000 
    2.4578    0.3019    1.0443 C   0  0  0  0  0  0  0  0  0  0  0  0 
    0.4661    0.0596   -0.4870 C   0  0  0  0  0  0  0  0  0  0  0  0 
    6.8291   -0.8370   -3.0681 C   0  0  0  0  0  0  0  0  0  0  0  0 
    9.0420    3.1424   -7.5771 C   0  0  0  0  0  0  0  0  0  0  0  0 
    4.2431    0.2203   -1.5591 C   0  0  0  0  0  0  0  0  0  0  0  0 
    2.7404    0.5287   -1.4902 C   0  0  0  0  0  0  0  0  0  0  0  0 
    4.9240    0.8549   -2.7811 C   0  0  0  0  0  0  0  0  0  0  0  0 
    7.1185    1.5637   -3.9003 C   0  0  0  0  0  0  0  0  0  0  0  0 
    6.7021    1.3140   -5.3492 C   0  0  0  0  0  0  0  0  0  0  0  0 
    1.9791   -0.1615   -0.3403 C   0  0  0  0  0  0  0  0  0  0  0  0 
    6.4511    0.6392   -2.8552 C   0  0  2  0  0  0  0  0  0  0  0  0 
    8.5307    2.0114   -6.7140 C   0  0  0  0  0  0  0  0  0  0  0  0 
    9.1390    0.9919   -6.4690 O   0  0  0  0  0  0  0  0  0  0  0  0 
    7.3006    2.2987   -6.2275 O   0  0  0  0  0  0  0  0  0  0  0  0 
    1.8955   -0.1991    1.8412 H   0  0  0  0  0  0  0  0  0  0  0  0 
    2.3108    1.3837    1.1651 H   0  0  0  0  0  0  0  0  0  0  0  0 
    3.5198    0.0892    1.2069 H   0  0  0  0  0  0  0  0  0  0  0  0 
   -0.0904   -0.4611    0.3014 H   0  0  0  0  0  0  0  0  0  0  0  0 
    0.0998   -0.3055   -1.4540 H   0  0  0  0  0  0  0  0  0  0  0  0 
    0.2173    1.1269   -0.4186 H   0  0  0  0  0  0  0  0  0  0  0  0 
    6.5046   -1.4587   -2.2272 H   0  0  0  0  0  0  0  0  0  0  0  0 
    7.9144   -0.9547   -3.1676 H   0  0  0  0  0  0  0  0  0  0  0  0 
    6.3673   -1.2474   -3.9747 H   0  0  0  0  0  0  0  0  0  0  0  0 
    9.8699    2.7843   -8.1907 H   0  0  0  0  0  0  0  0  0  0  0  0 
    9.4035    3.9537   -6.9345 H   0  0  0  0  0  0  0  0  0  0  0  0 
    8.2449    3.5479   -8.2057 H   0  0  0  0  0  0  0  0  0  0  0  0 
    4.3814   -0.8695   -1.5764 H   0  0  0  0  0  0  0  0  0  0  0  0 
    4.7433    0.5791   -0.6491 H   0  0  0  0  0  0  0  0  0  0  0  0 
    2.2778    0.2290   -2.4423 H   0  0  0  0  0  0  0  0  0  0  0  0 
    2.5933    1.6173   -1.4129 H   0  0  0  0  0  0  0  0  0  0  0  0 
    4.7216    1.9364   -2.7697 H   0  0  0  0  0  0  0  0  0  0  0  0 
    4.4487    0.4667   -3.6941 H   0  0  0  0  0  0  0  0  0  0  0  0 
    6.8907    2.6095   -3.6548 H   0  0  0  0  0  0  0  0  0  0  0  0 
    8.2073    1.4480   -3.8370 H   0  0  0  0  0  0  0  0  0  0  0  0 
    5.6270    1.4435   -5.4925 H   0  0  0  0  0  0  0  0  0  0  0  0 
    6.9981    0.3193   -5.6887 H   0  0  0  0  0  0  0  0  0  0  0  0 
    2.1692   -1.2435   -0.4187 H   0  0  0  0  0  0  0  0  0  0  0  0 
    6.8665    0.9457   -1.8830 H   0  0  0  0  0  0  0  0  0  0  0  0 
  1 16  1  0  0  0  0 
  1 17  1  0  0  0  0 
  1 15  1  0  0  0  0 
  2 20  1  0  0  0  0 
  2 10  1  0  0  0  0 
  2 18  1  0  0  0  0 
  3 11  1  0  0  0  0 
  3 21  1  0  0  0  0 
  4 25  1  0  0  0  0 
  4 12  1  0  0  0  0 
  5  6  1  0  0  0  0 
  5 28  1  0  0  0  0 
  6 30  1  0  0  0  0 
  6 10  1  0  0  0  0 
  7 31  1  0  0  0  0 
  7  5  1  0  0  0  0 
  8 34  1  0  0  0  0 
  8 33  1  0  0  0  0 
  8 11  1  0  0  0  0 
  9  8  1  0  0  0  0 
 10  1  1  0  0  0  0 
 11  7  1  0  0  0  0 
 11 38  1  1  0  0  0 
 12 13  2  0  0  0  0 
 12 14  1  0  0  0  0 
 14  9  1  0  0  0  0 
 19  2  1  0  0  0  0 
 22  3  1  0  0  0  0 
 23  3  1  0  0  0  0 
 24  4  1  0  0  0  0 
 26  4  1  0  0  0  0 
 27  5  1  0  0  0  0 
 29  6  1  0  0  0  0 
 32  7  1  0  0  0  0 
 35  9  1  0  0  0  0 
 36  9  1  0  0  0  0 
 37 10  1  0  0  0  0 
M  END 
>  <HBA> 
2 
 
>  <HBD> 
0 
 
>  <TPSA> 
26.3 
 
>  <cid> 
30249 
 
>  <dipole> 
1.72 
 
>  <excitation_energy_1> 
5.818 
 
>  <excitation_energy_2> 
6.982 
 
>  <excitation_energy_3> 
7.285 
 
>  <excitation_energy_4> 
7.361 
 
>  <homo_energy> 
-7.241 
 
>  <homo_lumo_gap> 
7.714 
 
>  <logP> 
3.402 
 
>  <lumo_energy> 
0.473 
 
>  <melting_point> 
-18.11 
 
>  <molecular_refractivity> 
61.08 
 
>  <oscillator_strength_1> 
0.0011 
 
>  <oscillator_strength_2> 
0.0338 
 
>  <oscillator_strength_3> 
0.0065 
 
>  <oscillator_strength_4> 
0.0416 
 
>  <open_babel_can_smiles> 
C[C@@H](CCOC(=O)C)CCCC(C)C 
 
>  <mulliken_charges> 
38 
1   -0.444793 
2   -0.441937 
3   -0.456331 
4   -0.524267 
5   -0.265885 
6   -0.246821 
7   -0.259345 
8   -0.284269 
9   -0.052039 
10   -0.065783 
11   -0.078666 
12   0.601462 
13   -0.470751 
14   -0.457453 
15   0.139903 
16   0.13724 
17   0.144481 
18   0.139257 
19   0.138886 
20   0.138108 
21   0.147282 
22   0.152592 
23   0.141543 
24   0.18169 
25   0.183239 
26   0.1777 
27   0.132849 
28   0.132655 
29   0.124499 
30   0.123155 
31   0.127301 
32   0.126174 
33   0.137863 
34   0.153791 
35   0.15184 
36   0.171345 
37   0.119363 
38   0.124122 
 
>  <lowdin_charges> 
38 
1   -0.44482 
2   -0.444032 
3   -0.449509 
4   -0.467775 
5   -0.276298 
6   -0.272928 
7   -0.276487 
8   -0.285989 
9   -0.134338 
10   -0.117852 
11   -0.122494 
12   0.200796 
13   -0.270974 
14   -0.197937 
15   0.14936 
16   0.142989 
17   0.146881 
18   0.148628 
19   0.146685 
20   0.143636 
21   0.151643 
22   0.15282 
23   0.1462 
24   0.176327 
25   0.180077 
26   0.175174 
27   0.137853 
28   0.140036 
29   0.138482 
30   0.134157 
31   0.137607 
32   0.136434 
33   0.144263 
34   0.152118 
35   0.149263 
36   0.158484 
37   0.131907 
38   0.139613 
 
$$$$ 
 
