PCCDB-ID:  10328 
public computational chemistry database (PCCDB) project, http://pccdb.org 
 
 18 19  0  0  0  0  0  0  0  0999 V2000 
    1.9694    1.0493   -0.0935 C   0  0  0  0  0  0  0  0  0  0  0  0 
    2.2130   -0.3235   -0.0151 C   0  0  0  0  0  0  0  0  0  0  0  0 
    0.6522    1.5308   -0.0545 C   0  0  0  0  0  0  0  0  0  0  0  0 
    1.1628   -1.2416    0.1022 C   0  0  0  0  0  0  0  0  0  0  0  0 
   -1.8950    0.8410    0.1525 C   0  0  0  0  0  0  0  0  0  0  0  0 
   -2.4417   -0.5776   -0.1406 C   0  0  0  0  0  0  0  0  0  0  0  0 
   -0.3976    0.6306    0.0511 C   0  0  0  0  0  0  0  0  0  0  0  0 
   -0.1422   -0.7497    0.1339 C   0  0  0  0  0  0  0  0  0  0  0  0 
   -1.3403   -1.4639    0.2840 N   0  0  0  0  0  0  0  0  0  0  0  0 
    2.7987    1.7445   -0.1871 H   0  0  0  0  0  0  0  0  0  0  0  0 
    3.2355   -0.6914   -0.0489 H   0  0  0  0  0  0  0  0  0  0  0  0 
    0.4579    2.5993   -0.1171 H   0  0  0  0  0  0  0  0  0  0  0  0 
    1.3613   -2.3088    0.1624 H   0  0  0  0  0  0  0  0  0  0  0  0 
   -2.1725    1.1565    1.1683 H   0  0  0  0  0  0  0  0  0  0  0  0 
   -2.2901    1.5889   -0.5425 H   0  0  0  0  0  0  0  0  0  0  0  0 
   -2.6506   -0.6852   -1.2175 H   0  0  0  0  0  0  0  0  0  0  0  0 
   -3.3590   -0.8053    0.4106 H   0  0  0  0  0  0  0  0  0  0  0  0 
   -1.3550   -2.3984   -0.1089 H   0  0  0  0  0  0  0  0  0  0  0  0 
  1  3  2  0  0  0  0 
  1  2  1  0  0  0  0 
  2  4  2  0  0  0  0 
  3  7  1  0  0  0  0 
  4  8  1  0  0  0  0 
  4 13  1  0  0  0  0 
  5 14  1  0  0  0  0 
  6  5  1  0  0  0  0 
  6  9  1  0  0  0  0 
  6 17  1  0  0  0  0 
  7  8  2  0  0  0  0 
  7  5  1  0  0  0  0 
  8  9  1  0  0  0  0 
 10  1  1  0  0  0  0 
 11  2  1  0  0  0  0 
 12  3  1  0  0  0  0 
 15  5  1  0  0  0  0 
 16  6  1  0  0  0  0 
 18  9  1  0  0  0  0 
M  END 
>  <HBA> 
1 
 
>  <HBD> 
1 
 
>  <TPSA> 
12.03 
 
>  <cid> 
10328 
 
>  <dipole> 
1.58 
 
>  <excitation_energy_1> 
4.446 
 
>  <excitation_energy_2> 
4.663 
 
>  <excitation_energy_3> 
5.132 
 
>  <excitation_energy_4> 
5.184 
 
>  <homo_energy> 
-5.135 
 
>  <homo_lumo_gap> 
5.363 
 
>  <logP> 
1.793 
 
>  <lumo_energy> 
0.229 
 
>  <melting_point> 
65.29 
 
>  <molecular_refractivity> 
41.53 
 
>  <oscillator_strength_1> 
0.0496 
 
>  <oscillator_strength_2> 
0.0056 
 
>  <oscillator_strength_3> 
0.0072 
 
>  <oscillator_strength_4> 
0.0554 
 
>  <open_babel_can_smiles> 
c1ccc2c(c1)NCC2 
 
>  <mulliken_charges> 
18 
1   -0.138797 
2   -0.140522 
3   -0.210254 
4   -0.187808 
5   -0.346373 
6   -0.133733 
7   0.116157 
8   0.302524 
9   -0.645403 
10   0.118409 
11   0.12214 
12   0.120062 
13   0.117499 
14   0.161231 
15   0.151186 
16   0.136222 
17   0.147748 
18   0.309713 
 
>  <lowdin_charges> 
18 
1   -0.186727 
2   -0.149533 
3   -0.157093 
4   -0.20022 
5   -0.278304 
6   -0.190404 
7   -0.040964 
8   0.045186 
9   -0.313021 
10   0.154634 
11   0.153843 
12   0.152167 
13   0.152037 
14   0.155336 
15   0.156827 
16   0.129621 
17   0.14806 
18   0.268554 
 
$$$$ 
 
