PCCDB-ID:  20927 
public computational chemistry database (PCCDB) project, http://pccdb.org 
 
 24 25  0  0  1  0  0  0  0  0999 V2000 
   -1.5287    0.0387   -0.3397 C   0  0  0  0  0  0  0  0  0  0  0  0 
    4.8527    0.4228   -2.4603 C   0  0  0  0  0  0  0  0  0  0  0  0 
   -0.7954    0.0514   -1.5292 C   0  0  0  0  0  0  0  0  0  0  0  0 
   -0.8596    0.1154    0.8818 C   0  0  0  0  0  0  0  0  0  0  0  0 
    4.1892    1.6422   -1.8792 C   0  0  0  0  0  0  0  0  0  0  0  0 
    4.3524   -0.8573   -1.8471 C   0  0  0  0  0  0  0  0  0  0  0  0 
    0.5954    0.1408   -1.4948 C   0  0  0  0  0  0  0  0  0  0  0  0 
    0.5343    0.2046    0.9114 C   0  0  0  0  0  0  0  0  0  0  0  0 
    3.2888    1.5963   -0.8945 C   0  0  0  0  0  0  0  0  0  0  0  0 
    3.4513   -0.9035   -0.8631 C   0  0  0  0  0  0  0  0  0  0  0  0 
    1.2783    0.2185   -0.2732 C   0  0  0  0  0  0  0  0  0  0  0  0 
    2.8064    0.3176   -0.2427 C   0  0  2  0  0  0  0  0  0  0  0  0 
   -2.6130   -0.0303   -0.3663 H   0  0  0  0  0  0  0  0  0  0  0  0 
    5.9462    0.4957   -2.3326 H   0  0  0  0  0  0  0  0  0  0  0  0 
    4.7068    0.3993   -3.5530 H   0  0  0  0  0  0  0  0  0  0  0  0 
   -1.3090   -0.0094   -2.4855 H   0  0  0  0  0  0  0  0  0  0  0  0 
   -1.4201    0.1055    1.8131 H   0  0  0  0  0  0  0  0  0  0  0  0 
    4.4786    2.6053   -2.2973 H   0  0  0  0  0  0  0  0  0  0  0  0 
    4.7664   -1.7849   -2.2397 H   0  0  0  0  0  0  0  0  0  0  0  0 
    1.1640    0.1510   -2.4211 H   0  0  0  0  0  0  0  0  0  0  0  0 
    1.0504    0.2636    1.8677 H   0  0  0  0  0  0  0  0  0  0  0  0 
    2.8461    2.5179   -0.5203 H   0  0  0  0  0  0  0  0  0  0  0  0 
    3.1319   -1.8649   -0.4644 H   0  0  0  0  0  0  0  0  0  0  0  0 
    3.0898    0.3490    0.8231 H   0  0  0  0  0  0  0  0  0  0  0  0 
  1  4  2  0  0  0  0 
  2 14  1  0  0  0  0 
  2  5  1  0  0  0  0 
  2  6  1  0  0  0  0 
  3  7  2  0  0  0  0 
  3  1  1  0  0  0  0 
  4  8  1  0  0  0  0 
  4 17  1  0  0  0  0 
  5  9  2  0  0  0  0 
  6 10  2  0  0  0  0 
  7 11  1  0  0  0  0 
  8 21  1  0  0  0  0 
  9 22  1  0  0  0  0 
  9 12  1  0  0  0  0 
 10 23  1  0  0  0  0 
 10 12  1  0  0  0  0 
 11 12  1  0  0  0  0 
 11  8  2  0  0  0  0 
 12 24  1  1  0  0  0 
 13  1  1  0  0  0  0 
 15  2  1  0  0  0  0 
 16  3  1  0  0  0  0 
 18  5  1  0  0  0  0 
 19  6  1  0  0  0  0 
 20  7  1  0  0  0  0 
M  END 
>  <HBA> 
0 
 
>  <HBD> 
0 
 
>  <TPSA> 
0.0 
 
>  <cid> 
20927 
 
>  <dipole> 
0.35 
 
>  <excitation_energy_1> 
5.196 
 
>  <excitation_energy_2> 
5.291 
 
>  <excitation_energy_3> 
5.487 
 
>  <excitation_energy_4> 
5.655 
 
>  <homo_energy> 
-6.319 
 
>  <homo_lumo_gap> 
6.234 
 
>  <logP> 
3.286 
 
>  <lumo_energy> 
-0.084 
 
>  <melting_point> 
45.99 
 
>  <molecular_refractivity> 
52.38 
 
>  <oscillator_strength_1> 
0.0226 
 
>  <oscillator_strength_2> 
0.0008 
 
>  <oscillator_strength_3> 
0.0 
 
>  <oscillator_strength_4> 
0.0535 
 
>  <open_babel_can_smiles> 
C1=C[C@H](C=CC1)c1ccccc1 
 
>  <mulliken_charges> 
24 
1   -0.130798 
2   -0.337459 
3   -0.129938 
4   -0.126478 
5   -0.118494 
6   -0.118662 
7   -0.168091 
8   -0.199954 
9   -0.088134 
10   -0.088707 
11   0.172865 
12   -0.256006 
13   0.126868 
14   0.154959 
15   0.152591 
16   0.12754 
17   0.127102 
18   0.123264 
19   0.123263 
20   0.133263 
21   0.122202 
22   0.126869 
23   0.126918 
24   0.145015 
 
>  <lowdin_charges> 
24 
1   -0.157705 
2   -0.267495 
3   -0.155712 
4   -0.156977 
5   -0.169774 
6   -0.170267 
7   -0.15722 
8   -0.171965 
9   -0.166473 
10   -0.166125 
11   -0.002383 
12   -0.117294 
13   0.154315 
14   0.154097 
15   0.153126 
16   0.156443 
17   0.156718 
18   0.153182 
19   0.153591 
20   0.161517 
21   0.153162 
22   0.155895 
23   0.155481 
24   0.151864 
 
$$$$ 
 
