PCCDB-ID:  18291 
public computational chemistry database (PCCDB) project, http://pccdb.org 
 
 13 12  0  0  0  0  0  0  0  0999 V2000 
    2.1695    1.2723    0.3290 C   0  0  0  0  0  0  0  0  0  0  0  0 
    4.4797   -1.8607   -2.1937 C   0  0  0  0  0  0  0  0  0  0  0  0 
    3.9534    0.1688    1.5642 C   0  0  0  0  0  0  0  0  0  0  0  0 
    3.1156    0.3352    0.4079 C   0  0  0  0  0  0  0  0  0  0  0  0 
    4.4919   -0.7217   -1.2102 C   0  0  0  0  0  0  0  0  0  0  0  0 
    4.6001    0.0232    2.5189 N   0  0  0  0  0  0  0  0  0  0  0  0 
    5.4100    0.0112   -0.9544 O   0  0  0  0  0  0  0  0  0  0  0  0 
    3.2528   -0.6125   -0.6008 O   0  0  0  0  0  0  0  0  0  0  0  0 
    2.0021    1.9586    1.1504 H   0  0  0  0  0  0  0  0  0  0  0  0 
    1.5473    1.3521   -0.5554 H   0  0  0  0  0  0  0  0  0  0  0  0 
    5.4251   -1.8773   -2.7362 H   0  0  0  0  0  0  0  0  0  0  0  0 
    3.6437   -1.7536   -2.8917 H   0  0  0  0  0  0  0  0  0  0  0  0 
    4.3427   -2.8074   -1.6601 H   0  0  0  0  0  0  0  0  0  0  0  0 
  1  4  2  0  0  0  0 
  1  9  1  0  0  0  0 
  2 13  1  0  0  0  0 
  2  5  1  0  0  0  0 
  3  6  3  0  0  0  0 
  4  3  1  0  0  0  0 
  5  7  2  0  0  0  0 
  5  8  1  0  0  0  0 
  8  4  1  0  0  0  0 
 10  1  1  0  0  0  0 
 11  2  1  0  0  0  0 
 12  2  1  0  0  0  0 
M  END 
>  <HBA> 
3 
 
>  <HBD> 
0 
 
>  <TPSA> 
50.09 
 
>  <cid> 
18291 
 
>  <dipole> 
4.57 
 
>  <excitation_energy_1> 
5.362 
 
>  <excitation_energy_2> 
5.947 
 
>  <excitation_energy_3> 
6.073 
 
>  <excitation_energy_4> 
6.323 
 
>  <homo_energy> 
-7.644 
 
>  <homo_lumo_gap> 
6.117 
 
>  <logP> 
0.587 
 
>  <lumo_energy> 
-1.527 
 
>  <melting_point> 
3.27 
 
>  <molecular_refractivity> 
26.71 
 
>  <oscillator_strength_1> 
0.0292 
 
>  <oscillator_strength_2> 
0.0152 
 
>  <oscillator_strength_3> 
0.2459 
 
>  <oscillator_strength_4> 
0.0053 
 
>  <open_babel_can_smiles> 
CC(=O)OC(=C)C#N 
 
>  <mulliken_charges> 
13 
1   -0.352689 
2   -0.527242 
3   0.317112 
4   0.386515 
5   0.596412 
6   -0.45671 
7   -0.422337 
8   -0.491222 
9   0.189459 
10   0.179846 
11   0.194489 
12   0.189501 
13   0.196866 
 
>  <lowdin_charges> 
13 
1   -0.295379 
2   -0.462751 
3   -0.015775 
4   0.100793 
5   0.218303 
6   -0.088563 
7   -0.217286 
8   -0.167656 
9   0.190691 
10   0.184878 
11   0.182867 
12   0.183024 
13   0.186854 
 
$$$$ 
 
