PCCDB-ID:  18049 
public computational chemistry database (PCCDB) project, http://pccdb.org 
 
 22 21  0  0  1  0  0  0  0  0999 V2000 
    4.3593    0.4390   -1.8881 C   0  0  0  0  0  0  0  0  0  0  0  0 
   -0.2997   -1.1821    2.2456 C   0  0  0  0  0  0  0  0  0  0  0  0 
    2.5664   -0.5133   -0.3490 C   0  0  0  0  0  0  0  0  0  0  0  0 
    1.4910   -0.2296    0.7042 C   0  0  0  0  0  0  0  0  0  0  0  0 
    3.3314    0.7395   -0.7953 C   0  0  1  0  0  0  0  0  0  0  0  0 
    0.7284   -1.4828    1.1530 C   0  0  2  0  0  0  0  0  0  0  0  0 
    3.9466    1.4056    0.3143 O   0  0  0  0  0  0  0  0  0  0  0  0 
    0.1141   -2.1521    0.0447 O   0  0  0  0  0  0  0  0  0  0  0  0 
    3.8802    0.0362   -2.7880 H   0  0  0  0  0  0  0  0  0  0  0  0 
    5.0898   -0.3047   -1.5407 H   0  0  0  0  0  0  0  0  0  0  0  0 
    4.9020    1.3499   -2.1599 H   0  0  0  0  0  0  0  0  0  0  0  0 
    0.1788   -0.7764    3.1444 H   0  0  0  0  0  0  0  0  0  0  0  0 
   -0.8404   -2.0936    2.5195 H   0  0  0  0  0  0  0  0  0  0  0  0 
   -1.0320   -0.4408    1.8967 H   0  0  0  0  0  0  0  0  0  0  0  0 
    2.1061   -0.9931   -1.2212 H   0  0  0  0  0  0  0  0  0  0  0  0 
    3.2898   -1.2428    0.0508 H   0  0  0  0  0  0  0  0  0  0  0  0 
    0.7662    0.4980    0.3034 H   0  0  0  0  0  0  0  0  0  0  0  0 
    1.9511    0.2525    1.5752 H   0  0  0  0  0  0  0  0  0  0  0  0 
    2.6122    1.4760   -1.1763 H   0  0  0  0  0  0  0  0  0  0  0  0 
    1.4491   -2.2173    1.5352 H   0  0  0  0  0  0  0  0  0  0  0  0 
    4.6239    0.8045    0.6661 H   0  0  0  0  0  0  0  0  0  0  0  0 
   -0.5644   -1.5528   -0.3079 H   0  0  0  0  0  0  0  0  0  0  0  0 
  1 10  1  0  0  0  0 
  1  5  1  0  0  0  0 
  2 13  1  0  0  0  0 
  2 12  1  0  0  0  0 
  3 16  1  0  0  0  0 
  3  4  1  0  0  0  0 
  4  6  1  0  0  0  0 
  4 18  1  0  0  0  0 
  5 19  1  6  0  0  0 
  5  3  1  0  0  0  0 
  5  7  1  0  0  0  0 
  6 20  1  1  0  0  0 
  6  2  1  0  0  0  0 
  7 21  1  0  0  0  0 
  8  6  1  0  0  0  0 
  9  1  1  0  0  0  0 
 11  1  1  0  0  0  0 
 14  2  1  0  0  0  0 
 15  3  1  0  0  0  0 
 17  4  1  0  0  0  0 
 22  8  1  0  0  0  0 
M  END 
>  <HBA> 
2 
 
>  <HBD> 
2 
 
>  <TPSA> 
40.46 
 
>  <cid> 
18049 
 
>  <dipole> 
0.0 
 
>  <excitation_energy_1> 
6.653 
 
>  <excitation_energy_2> 
6.66 
 
>  <excitation_energy_3> 
7.049 
 
>  <excitation_energy_4> 
7.064 
 
>  <homo_energy> 
-7.102 
 
>  <homo_lumo_gap> 
8.996 
 
>  <logP> 
0.528 
 
>  <lumo_energy> 
1.894 
 
>  <melting_point> 
10.67 
 
>  <molecular_refractivity> 
33.28 
 
>  <oscillator_strength_1> 
0.0002 
 
>  <oscillator_strength_2> 
0.04 
 
>  <oscillator_strength_3> 
0.0183 
 
>  <oscillator_strength_4> 
0.0 
 
>  <open_babel_can_smiles> 
C[C@H](CC[C@@H](O)C)O 
 
>  <mulliken_charges> 
22 
1   -0.457364 
2   -0.457356 
3   -0.264458 
4   -0.264644 
5   0.135605 
6   0.135626 
7   -0.620034 
8   -0.62006 
9   0.144858 
10   0.131571 
11   0.157348 
12   0.144864 
13   0.157342 
14   0.131552 
15   0.145708 
16   0.114783 
17   0.114754 
18   0.145831 
19   0.132332 
20   0.132324 
21   0.379716 
22   0.379702 
 
>  <lowdin_charges> 
22 
1   -0.46172 
2   -0.461731 
3   -0.294292 
4   -0.294367 
5   -0.000749 
6   -0.000744 
7   -0.467995 
8   -0.468008 
9   0.154517 
10   0.144265 
11   0.158138 
12   0.154528 
13   0.158134 
14   0.144261 
15   0.153438 
16   0.135367 
17   0.13535 
18   0.153495 
19   0.141581 
20   0.141573 
21   0.337483 
22   0.337476 
 
$$$$ 
 
