PCCDB-ID:  38357 
public computational chemistry database (PCCDB) project, http://pccdb.org 
 
 16 16  0  0  1  0  0  0  0  0999 V2000 
    1.0363    0.0479    0.2271 C   0  0  0  0  0  0  0  0  0  0  0  0 
    3.3607   -1.5248   -1.8774 C   0  0  0  0  0  0  0  0  0  0  0  0 
    2.9577   -0.1102   -2.3131 C   0  0  0  0  0  0  0  0  0  0  0  0 
    2.5208   -0.1558   -0.0512 C   0  0  1  0  0  0  0  0  0  0  0  0 
    3.0330   -2.5648    0.2945 N   0  0  0  0  0  0  0  0  0  0  0  0 
    2.8339   -1.5272   -0.5135 N   0  0  0  0  0  0  0  0  0  0  0  0 
    2.7223   -2.3555    1.4689 O   0  0  0  0  0  0  0  0  0  0  0  0 
    3.0081    0.6575   -1.1096 O   0  0  0  0  0  0  0  0  0  0  0  0 
    0.7242   -0.6095    1.0428 H   0  0  0  0  0  0  0  0  0  0  0  0 
    0.4340   -0.1767   -0.6591 H   0  0  0  0  0  0  0  0  0  0  0  0 
    0.8607    1.0884    0.5180 H   0  0  0  0  0  0  0  0  0  0  0  0 
    4.4489   -1.6563   -1.8733 H   0  0  0  0  0  0  0  0  0  0  0  0 
    2.9050   -2.3137   -2.4817 H   0  0  0  0  0  0  0  0  0  0  0  0 
    1.9464   -0.1038   -2.7449 H   0  0  0  0  0  0  0  0  0  0  0  0 
    3.6514    0.3395   -3.0263 H   0  0  0  0  0  0  0  0  0  0  0  0 
    3.1125    0.0549    0.8459 H   0  0  0  0  0  0  0  0  0  0  0  0 
  1 11  1  0  0  0  0 
  1  9  1  0  0  0  0 
  2 12  1  0  0  0  0 
  2  6  1  0  0  0  0 
  3  2  1  0  0  0  0 
  3  8  1  0  0  0  0 
  4  1  1  0  0  0  0 
  4 16  1  1  0  0  0 
  5  7  1  0  0  0  0 
  6  4  1  0  0  0  0 
  6  5  1  0  0  0  0 
  8  4  1  0  0  0  0 
 10  1  1  0  0  0  0 
 13  2  1  0  0  0  0 
 14  3  1  0  0  0  0 
 15  3  1  0  0  0  0 
M  RAD  2   5   2   7   2 
M  END 
>  <HBA> 
4 
 
>  <HBD> 
0 
 
>  <TPSA> 
41.9 
 
>  <cid> 
38357 
 
>  <dipole> 
3.67 
 
>  <excitation_energy_1> 
3.231 
 
>  <excitation_energy_2> 
5.432 
 
>  <excitation_energy_3> 
5.773 
 
>  <excitation_energy_4> 
5.928 
 
>  <homo_energy> 
-6.158 
 
>  <homo_lumo_gap> 
5.078 
 
>  <logP> 
0.284 
 
>  <lumo_energy> 
-1.08 
 
>  <melting_point> 
10.08 
 
>  <molecular_refractivity> 
31.86 
 
>  <oscillator_strength_1> 
0.0015 
 
>  <oscillator_strength_2> 
0.0147 
 
>  <oscillator_strength_3> 
0.0722 
 
>  <oscillator_strength_4> 
0.0831 
 
>  <open_babel_can_smiles> 
C[C@@H]1OCCN1[N][O] 
 
>  <mulliken_charges> 
16 
1   -0.450202 
2   -0.128301 
3   -0.058937 
4   0.285737 
5   0.142987 
6   -0.267965 
7   -0.375325 
8   -0.485057 
9   0.181887 
10   0.147307 
11   0.163767 
12   0.176996 
13   0.177367 
14   0.14963 
15   0.168174 
16   0.171934 
 
>  <lowdin_charges> 
16 
1   -0.459563 
2   -0.207121 
3   -0.13152 
4   0.055878 
5   0.056958 
6   -0.063719 
7   -0.27236 
8   -0.261306 
9   0.174664 
10   0.154803 
11   0.16305 
12   0.157788 
13   0.167777 
14   0.139458 
15   0.163918 
16   0.161296 
 
$$$$ 
 
