PCCDB-ID:  8119 
public computational chemistry database (PCCDB) project, http://pccdb.org 
 
 20 20  0  0  0  0  0  0  0  0999 V2000 
   -1.5439    0.7581    0.1110 C   0  0  0  0  0  0  0  0  0  0  0  0 
   -0.3171    1.5310   -0.4069 C   0  0  0  0  0  0  0  0  0  0  0  0 
   -1.5241   -0.7619   -0.1068 C   0  0  0  0  0  0  0  0  0  0  0  0 
    0.9645    1.2581    0.3990 C   0  0  0  0  0  0  0  0  0  0  0  0 
   -0.2655   -1.5006    0.3872 C   0  0  0  0  0  0  0  0  0  0  0  0 
    1.7295   -0.0345    0.0180 C   0  0  0  0  0  0  0  0  0  0  0  0 
    0.9554   -1.2155   -0.3666 N   0  0  0  0  0  0  0  0  0  0  0  0 
   -2.4495    1.1627   -0.3611 H   0  0  0  0  0  0  0  0  0  0  0  0 
   -1.6473    0.9654    1.1868 H   0  0  0  0  0  0  0  0  0  0  0  0 
   -0.5448    2.6035   -0.3516 H   0  0  0  0  0  0  0  0  0  0  0  0 
   -0.1524    1.3123   -1.4728 H   0  0  0  0  0  0  0  0  0  0  0  0 
   -1.6339   -0.9761   -1.1818 H   0  0  0  0  0  0  0  0  0  0  0  0 
   -2.4092   -1.2013    0.3759 H   0  0  0  0  0  0  0  0  0  0  0  0 
    0.6997    1.2307    1.4652 H   0  0  0  0  0  0  0  0  0  0  0  0 
    1.6619    2.1003    0.2909 H   0  0  0  0  0  0  0  0  0  0  0  0 
   -0.4584   -2.5815    0.3327 H   0  0  0  0  0  0  0  0  0  0  0  0 
   -0.0762   -1.2781    1.4458 H   0  0  0  0  0  0  0  0  0  0  0  0 
    2.3841   -0.3045    0.8593 H   0  0  0  0  0  0  0  0  0  0  0  0 
    2.3977    0.1791   -0.8254 H   0  0  0  0  0  0  0  0  0  0  0  0 
    0.7316   -1.1754   -1.3576 H   0  0  0  0  0  0  0  0  0  0  0  0 
  1  9  1  0  0  0  0 
  2 10  1  0  0  0  0 
  2  1  1  0  0  0  0 
  2  4  1  0  0  0  0 
  3  1  1  0  0  0  0 
  3 13  1  0  0  0  0 
  3  5  1  0  0  0  0 
  4 14  1  0  0  0  0 
  5 17  1  0  0  0  0 
  6  4  1  0  0  0  0 
  6 18  1  0  0  0  0 
  7  6  1  0  0  0  0 
  7  5  1  0  0  0  0 
  8  1  1  0  0  0  0 
 11  2  1  0  0  0  0 
 12  3  1  0  0  0  0 
 15  4  1  0  0  0  0 
 16  5  1  0  0  0  0 
 19  6  1  0  0  0  0 
 20  7  1  0  0  0  0 
M  END 
>  <HBA> 
1 
 
>  <HBD> 
1 
 
>  <TPSA> 
12.03 
 
>  <cid> 
8119 
 
>  <dipole> 
1.13 
 
>  <excitation_energy_1> 
5.071 
 
>  <excitation_energy_2> 
5.487 
 
>  <excitation_energy_3> 
5.63 
 
>  <excitation_energy_4> 
5.747 
 
>  <homo_energy> 
-5.551 
 
>  <homo_lumo_gap> 
7.66 
 
>  <logP> 
1.479 
 
>  <lumo_energy> 
2.109 
 
>  <melting_point> 
23.19 
 
>  <molecular_refractivity> 
35.56 
 
>  <oscillator_strength_1> 
0.0057 
 
>  <oscillator_strength_2> 
0.011 
 
>  <oscillator_strength_3> 
0.0383 
 
>  <oscillator_strength_4> 
0.0081 
 
>  <open_babel_can_smiles> 
C1CCCCNC1 
 
>  <mulliken_charges> 
20 
1   -0.252673 
2   -0.253985 
3   -0.263888 
4   -0.269554 
5   -0.131554 
6   -0.133813 
7   -0.53991 
8   0.129011 
9   0.128086 
10   0.131339 
11   0.121133 
12   0.121632 
13   0.126808 
14   0.130213 
15   0.129285 
16   0.136188 
17   0.135537 
18   0.136881 
19   0.131189 
20   0.288076 
 
>  <lowdin_charges> 
20 
1   -0.276121 
2   -0.276035 
3   -0.29131 
4   -0.299272 
5   -0.204183 
6   -0.209658 
7   -0.365007 
8   0.143088 
9   0.13544 
10   0.14312 
11   0.133167 
12   0.132201 
13   0.143464 
14   0.136048 
15   0.146 
16   0.139852 
17   0.140353 
18   0.1392 
19   0.14224 
20   0.247412 
 
$$$$ 
 
