PCCDB-ID:  55649 
public computational chemistry database (PCCDB) project, http://pccdb.org 
 
 12 11  0  0  0  0  0  0  0  0999 V2000 
    1.2662    0.1381   -0.0055 C   0  0  0  0  0  0  0  0  0  0  0  0 
    0.7435   -1.2944    0.1425 C   0  0  0  0  0  0  0  0  0  0  0  0 
    2.5924    0.2584    0.5982 N   0  0  0  0  0  0  0  0  0  0  0  0 
    2.2530   -2.2644    3.0002 N   0  0  0  0  0  0  0  0  0  0  0  0 
    0.4790   -1.6684    1.5437 N   0  0  0  0  0  0  0  0  0  0  0  0 
    1.4620   -1.9481    2.2401 N   0  0  0  0  0  0  0  0  0  0  0  0 
    0.5844    0.8090    0.5282 H   0  0  0  0  0  0  0  0  0  0  0  0 
    1.2202    0.4114   -1.0756 H   0  0  0  0  0  0  0  0  0  0  0  0 
    1.4431   -2.0033   -0.3247 H   0  0  0  0  0  0  0  0  0  0  0  0 
   -0.2176   -1.3916   -0.3696 H   0  0  0  0  0  0  0  0  0  0  0  0 
    2.8286    1.2339    0.7608 H   0  0  0  0  0  0  0  0  0  0  0  0 
    3.3051   -0.1153   -0.0260 H   0  0  0  0  0  0  0  0  0  0  0  0 
  1  2  1  0  0  0  0 
  1  7  1  0  0  0  0 
  1  3  1  0  0  0  0 
  2  5  1  0  0  0  0 
  3 11  1  0  0  0  0 
  5  6  2  0  0  0  0 
  6  4  2  0  0  0  0 
  8  1  1  0  0  0  0 
  9  2  1  0  0  0  0 
 10  2  1  0  0  0  0 
 12  3  1  0  0  0  0 
M  RAD  1   4   2 
M  END 
>  <HBA> 
2 
 
>  <HBD> 
1 
 
>  <TPSA> 
75.77 
 
>  <cid> 
55649 
 
>  <dipole> 
3.82 
 
>  <excitation_energy_1> 
4.295 
 
>  <excitation_energy_2> 
5.37 
 
>  <excitation_energy_3> 
5.658 
 
>  <excitation_energy_4> 
5.8 
 
>  <homo_energy> 
-6.411 
 
>  <homo_lumo_gap> 
6.076 
 
>  <logP> 
0.408 
 
>  <lumo_energy> 
-0.335 
 
>  <melting_point> 
77.27 
 
>  <molecular_refractivity> 
19.26 
 
>  <oscillator_strength_1> 
0.0001 
 
>  <oscillator_strength_2> 
0.0075 
 
>  <oscillator_strength_3> 
0.0161 
 
>  <oscillator_strength_4> 
0.0172 
 
>  <open_babel_can_smiles> 
NCCN=[N]=[N] 
 
>  <mulliken_charges> 
12 
1   -0.138157 
2   -0.134434 
3   -0.717386 
4   -0.271459 
5   -0.363931 
6   0.422555 
7   0.159898 
8   0.122671 
9   0.147075 
10   0.16456 
11   0.308775 
12   0.299834 
 
>  <lowdin_charges> 
12 
1   -0.212715 
2   -0.195792 
3   -0.556174 
4   -0.119376 
5   -0.219713 
6   0.198862 
7   0.155497 
8   0.124268 
9   0.14452 
10   0.16141 
11   0.261768 
12   0.257447 
 
$$$$ 
 
