PCCDB-ID:  32273 
public computational chemistry database (PCCDB) project, http://pccdb.org 
 
 32 32  0  0  1  0  0  0  0  0999 V2000 
    0.9265    0.2284   -1.1776 C   0  0  0  0  0  0  0  0  0  0  0  0 
    3.9310    0.2613    2.9366 C   0  0  0  0  0  0  0  0  0  0  0  0 
    5.7179    1.9070    2.3109 C   0  0  0  0  0  0  0  0  0  0  0  0 
    1.5714    3.0524    0.4461 C   0  0  0  0  0  0  0  0  0  0  0  0 
    3.9128    3.6013   -0.2258 C   0  0  0  0  0  0  0  0  0  0  0  0 
    2.0589    0.1208   -0.1452 C   0  0  0  0  0  0  0  0  0  0  0  0 
    4.4872    0.6308    0.4547 C   0  0  0  0  0  0  0  0  0  0  0  0 
    4.4006    1.2557    1.8669 C   0  0  0  0  0  0  0  0  0  0  0  0 
    3.0064    2.5200    0.3942 C   0  0  0  0  0  0  0  0  0  0  0  0 
    3.2339    1.1215   -0.3021 C   0  0  2  0  0  0  0  0  0  0  0  0 
    3.6025    1.2374   -1.6790 O   0  0  0  0  0  0  0  0  0  0  0  0 
    3.3755    2.2758    1.7624 O   0  0  0  0  0  0  0  0  0  0  0  0 
    0.1531   -0.5167   -0.9613 H   0  0  0  0  0  0  0  0  0  0  0  0 
    1.2933    0.0207   -2.1895 H   0  0  0  0  0  0  0  0  0  0  0  0 
    0.4383    1.2078   -1.1821 H   0  0  0  0  0  0  0  0  0  0  0  0 
    4.6953   -0.5023    3.1221 H   0  0  0  0  0  0  0  0  0  0  0  0 
    3.0076   -0.2424    2.6350 H   0  0  0  0  0  0  0  0  0  0  0  0 
    3.7368    0.7894    3.8764 H   0  0  0  0  0  0  0  0  0  0  0  0 
    6.5091    1.1543    2.4122 H   0  0  0  0  0  0  0  0  0  0  0  0 
    5.5876    2.4002    3.2802 H   0  0  0  0  0  0  0  0  0  0  0  0 
    6.0519    2.6582    1.5889 H   0  0  0  0  0  0  0  0  0  0  0  0 
    1.1988    3.3009   -0.5538 H   0  0  0  0  0  0  0  0  0  0  0  0 
    1.5543    3.9693    1.0445 H   0  0  0  0  0  0  0  0  0  0  0  0 
    0.8888    2.3386    0.9136 H   0  0  0  0  0  0  0  0  0  0  0  0 
    3.5623    3.8921   -1.2215 H   0  0  0  0  0  0  0  0  0  0  0  0 
    4.9466    3.2652   -0.3329 H   0  0  0  0  0  0  0  0  0  0  0  0 
    3.8995    4.4857    0.4196 H   0  0  0  0  0  0  0  0  0  0  0  0 
    2.4763   -0.8908   -0.2200 H   0  0  0  0  0  0  0  0  0  0  0  0 
    1.6480    0.2099    0.8669 H   0  0  0  0  0  0  0  0  0  0  0  0 
    4.5461   -0.4614    0.4874 H   0  0  0  0  0  0  0  0  0  0  0  0 
    5.3706    0.9869   -0.0843 H   0  0  0  0  0  0  0  0  0  0  0  0 
    2.8208    1.5290   -2.1733 H   0  0  0  0  0  0  0  0  0  0  0  0 
  1 13  1  0  0  0  0 
  1  6  1  0  0  0  0 
  2 16  1  0  0  0  0 
  2 18  1  0  0  0  0 
  3 19  1  0  0  0  0 
  3 20  1  0  0  0  0 
  4 24  1  0  0  0  0 
  4 23  1  0  0  0  0 
  5  9  1  0  0  0  0 
  5 27  1  0  0  0  0 
  6 29  1  0  0  0  0 
  7 30  1  0  0  0  0 
  7  8  1  0  0  0  0 
  8  3  1  0  0  0  0 
  8  2  1  0  0  0  0 
  9  4  1  0  0  0  0 
  9 12  1  0  0  0  0 
 10 11  1  6  0  0  0 
 10  6  1  0  0  0  0 
 10  9  1  0  0  0  0 
 10  7  1  0  0  0  0 
 12  8  1  0  0  0  0 
 14  1  1  0  0  0  0 
 15  1  1  0  0  0  0 
 17  2  1  0  0  0  0 
 21  3  1  0  0  0  0 
 22  4  1  0  0  0  0 
 25  5  1  0  0  0  0 
 26  5  1  0  0  0  0 
 28  6  1  0  0  0  0 
 31  7  1  0  0  0  0 
 32 11  1  0  0  0  0 
M  END 
>  <HBA> 
2 
 
>  <HBD> 
1 
 
>  <TPSA> 
29.46 
 
>  <cid> 
32273 
 
>  <dipole> 
1.16 
 
>  <excitation_energy_1> 
5.887 
 
>  <excitation_energy_2> 
6.273 
 
>  <excitation_energy_3> 
6.54 
 
>  <excitation_energy_4> 
6.555 
 
>  <homo_energy> 
-6.4 
 
>  <homo_lumo_gap> 
8.068 
 
>  <logP> 
2.105 
 
>  <lumo_energy> 
1.668 
 
>  <melting_point> 
36.1 
 
>  <molecular_refractivity> 
50.43 
 
>  <oscillator_strength_1> 
0.0043 
 
>  <oscillator_strength_2> 
0.0165 
 
>  <oscillator_strength_3> 
0.0262 
 
>  <oscillator_strength_4> 
0.0015 
 
>  <open_babel_can_smiles> 
CC[C@]1(O)CC(OC1(C)C)(C)C 
 
>  <mulliken_charges> 
32 
1   -0.486443 
2   -0.458294 
3   -0.456977 
4   -0.463688 
5   -0.443204 
6   -0.282466 
7   -0.356659 
8   0.359208 
9   0.292355 
10   0.319387 
11   -0.658715 
12   -0.543911 
13   0.15376 
14   0.147449 
15   0.151924 
16   0.136623 
17   0.145983 
18   0.151855 
19   0.136799 
20   0.149047 
21   0.147507 
22   0.130811 
23   0.156649 
24   0.152901 
25   0.131607 
26   0.150873 
27   0.145559 
28   0.139502 
29   0.153252 
30   0.144889 
31   0.159282 
32   0.393132 
 
>  <lowdin_charges> 
32 
1   -0.459943 
2   -0.450989 
3   -0.453305 
4   -0.450071 
5   -0.453218 
6   -0.288918 
7   -0.292073 
8   0.13258 
9   0.109615 
10   0.10564 
11   -0.452912 
12   -0.280798 
13   0.15881 
14   0.147095 
15   0.149343 
16   0.149113 
17   0.150811 
18   0.155811 
19   0.149358 
20   0.153902 
21   0.153363 
22   0.144134 
23   0.160131 
24   0.156392 
25   0.147628 
26   0.152784 
27   0.153599 
28   0.147857 
29   0.151076 
30   0.150918 
31   0.160053 
32   0.342214 
 
$$$$ 
 
