PCCDB-ID:  66722 
public computational chemistry database (PCCDB) project, http://pccdb.org 
 
 30 31  0  0  0  0  0  0  0  0999 V2000 
   -2.7696   -0.2422    0.5455 C   0  0  0  0  0  0  0  0  0  0  0  0 
   -2.7457    1.0757    0.0271 C   0  0  0  0  0  0  0  0  0  0  0  0 
   -1.6013   -0.9619    0.6559 C   0  0  0  0  0  0  0  0  0  0  0  0 
   -1.5589    1.6522   -0.3684 C   0  0  0  0  0  0  0  0  0  0  0  0 
    2.5327   -3.4829   -0.7643 C   0  0  0  0  0  0  0  0  0  0  0  0 
    3.2951   -4.4562   -1.6745 C   0  0  0  0  0  0  0  0  0  0  0  0 
    0.8585   -1.1160    0.3455 C   0  0  0  0  0  0  0  0  0  0  0  0 
    0.9105    1.4945   -0.6423 C   0  0  0  0  0  0  0  0  0  0  0  0 
   -0.3613   -0.3979    0.2537 C   0  0  0  0  0  0  0  0  0  0  0  0 
   -0.3376    0.9359   -0.2642 C   0  0  0  0  0  0  0  0  0  0  0  0 
    2.0710   -0.5766   -0.0407 C   0  0  0  0  0  0  0  0  0  0  0  0 
    2.0728    0.7696   -0.5239 C   0  0  0  0  0  0  0  0  0  0  0  0 
    3.3389   -1.3725    0.0909 C   0  0  0  0  0  0  0  0  0  0  0  0 
    3.5166   -2.6032   -0.1648 N   0  0  0  0  0  0  0  0  0  0  0  0 
    4.3318   -5.1010   -0.9639 O   0  0  0  0  0  0  0  0  0  0  0  0 
    3.3028    1.2969   -0.8485 O   0  0  0  0  0  0  0  0  0  0  0  0 
    4.4090   -0.7038    0.6067 O   0  0  0  0  0  0  0  0  0  0  0  0 
   -3.7135   -0.6823    0.8540 H   0  0  0  0  0  0  0  0  0  0  0  0 
   -3.6735    1.6351   -0.0571 H   0  0  0  0  0  0  0  0  0  0  0  0 
   -1.6115   -1.9746    1.0515 H   0  0  0  0  0  0  0  0  0  0  0  0 
   -1.5435    2.6648   -0.7641 H   0  0  0  0  0  0  0  0  0  0  0  0 
    2.0437   -4.0713    0.0261 H   0  0  0  0  0  0  0  0  0  0  0  0 
    1.7475   -2.9612   -1.3326 H   0  0  0  0  0  0  0  0  0  0  0  0 
    3.6861   -3.9000   -2.5440 H   0  0  0  0  0  0  0  0  0  0  0  0 
    2.6184   -5.2325   -2.0495 H   0  0  0  0  0  0  0  0  0  0  0  0 
    0.8337   -2.1211    0.7536 H   0  0  0  0  0  0  0  0  0  0  0  0 
    0.9426    2.5149   -1.0214 H   0  0  0  0  0  0  0  0  0  0  0  0 
    4.7562   -4.3825   -0.4579 H   0  0  0  0  0  0  0  0  0  0  0  0 
    3.1957    2.2211   -1.1241 H   0  0  0  0  0  0  0  0  0  0  0  0 
    4.2802    0.2506    0.4698 H   0  0  0  0  0  0  0  0  0  0  0  0 
  1  3  1  0  0  0  0 
  1 18  1  0  0  0  0 
  2  1  2  0  0  0  0 
  3 20  1  0  0  0  0 
  4 10  2  0  0  0  0 
  4  2  1  0  0  0  0 
  5 14  1  0  0  0  0 
  5 22  1  0  0  0  0 
  6 15  1  0  0  0  0 
  6  5  1  0  0  0  0 
  7 26  1  0  0  0  0 
  8 12  2  0  0  0  0 
  8 10  1  0  0  0  0 
  9  7  1  0  0  0  0 
  9  3  2  0  0  0  0 
 10  9  1  0  0  0  0 
 11 13  1  0  0  0  0 
 11  7  2  0  0  0  0 
 12 11  1  0  0  0  0 
 13 17  1  0  0  0  0 
 14 13  2  0  0  0  0 
 15 28  1  0  0  0  0 
 16 12  1  0  0  0  0 
 19  2  1  0  0  0  0 
 21  4  1  0  0  0  0 
 23  5  1  0  0  0  0 
 24  6  1  0  0  0  0 
 25  6  1  0  0  0  0 
 27  8  1  0  0  0  0 
 29 16  1  0  0  0  0 
 30 17  1  0  0  0  0 
M  END 
>  <HBA> 
4 
 
>  <HBD> 
3 
 
>  <TPSA> 
69.56 
 
>  <cid> 
66722 
 
>  <dipole> 
7.56 
 
>  <excitation_energy_1> 
3.97 
 
>  <excitation_energy_2> 
4.187 
 
>  <excitation_energy_3> 
4.332 
 
>  <excitation_energy_4> 
4.687 
 
>  <homo_energy> 
-6.172 
 
>  <homo_lumo_gap> 
4.547 
 
>  <logP> 
1.658 
 
>  <lumo_energy> 
-1.625 
 
>  <melting_point> 
169.66 
 
>  <molecular_refractivity> 
64.94 
 
>  <oscillator_strength_1> 
0.027 
 
>  <oscillator_strength_2> 
0.0192 
 
>  <oscillator_strength_3> 
0.0273 
 
>  <oscillator_strength_4> 
0.043 
 
>  <open_babel_can_smiles> 
OCC/N=C(\c1cc2ccccc2cc1O)/O 
 
>  <mulliken_charges> 
30 
1   -0.138585 
2   -0.131225 
3   -0.18691 
4   -0.19613 
5   -0.167423 
6   -0.009996 
7   -0.263574 
8   -0.268994 
9   0.141392 
10   0.144347 
11   0.052092 
12   0.309602 
13   0.442618 
14   -0.441661 
15   -0.631285 
16   -0.66999 
17   -0.600392 
18   0.137446 
19   0.137555 
20   0.139472 
21   0.132347 
22   0.148286 
23   0.129544 
24   0.11582 
25   0.130894 
26   0.160703 
27   0.12667 
28   0.406355 
29   0.422154 
30   0.428871 
 
>  <lowdin_charges> 
30 
1   -0.160541 
2   -0.147166 
3   -0.146021 
4   -0.161034 
5   -0.226107 
6   -0.13888 
7   -0.129845 
8   -0.213762 
9   -0.011829 
10   0.013954 
11   -0.065089 
12   0.096324 
13   0.135192 
14   -0.208576 
15   -0.475893 
16   -0.381719 
17   -0.367991 
18   0.162723 
19   0.162638 
20   0.161234 
21   0.157855 
22   0.147345 
23   0.137087 
24   0.123798 
25   0.142163 
26   0.172281 
27   0.156674 
28   0.344209 
29   0.365893 
30   0.355086 
 
$$$$ 
 
