PCCDB-ID:  15575 
public computational chemistry database (PCCDB) project, http://pccdb.org 
 
 14 13  0  0  0  0  0  0  0  0999 V2000 
    0.8874   -0.7612    0.0618 C   0  0  0  0  0  0  0  0  0  0  0  0 
    3.0708   -1.5053   -1.0322 C   0  0  0  0  0  0  0  0  0  0  0  0 
    2.3442   -0.4274   -0.2362 C   0  0  0  0  0  0  0  0  0  0  0  0 
    3.4406    1.5993   -1.0161 N   0  0  0  0  0  0  0  0  0  0  0  0 
    3.3381    2.5818   -1.7112 O   0  0  0  0  0  0  0  0  0  0  0  0 
    4.3841    1.2306   -0.3422 O   0  0  0  0  0  0  0  0  0  0  0  0 
    2.2700    0.8123   -1.0144 O   0  0  0  0  0  0  0  0  0  0  0  0 
    0.8395   -1.6706    0.6701 H   0  0  0  0  0  0  0  0  0  0  0  0 
    0.3288   -0.9364   -0.8635 H   0  0  0  0  0  0  0  0  0  0  0  0 
    0.4045    0.0513    0.6122 H   0  0  0  0  0  0  0  0  0  0  0  0 
    3.0881   -2.4395   -0.4600 H   0  0  0  0  0  0  0  0  0  0  0  0 
    4.1044   -1.2144   -1.2364 H   0  0  0  0  0  0  0  0  0  0  0  0 
    2.5582   -1.6919   -1.9820 H   0  0  0  0  0  0  0  0  0  0  0  0 
    2.8833   -0.2022    0.6872 H   0  0  0  0  0  0  0  0  0  0  0  0 
  1 10  1  0  0  0  0 
  1  8  1  0  0  0  0 
  2 11  1  0  0  0  0 
  2  3  1  0  0  0  0 
  3  1  1  0  0  0  0 
  3 14  1  0  0  0  0 
  4  7  1  0  0  0  0 
  4  6  2  0  0  0  0 
  5  4  2  0  0  0  0 
  7  3  1  0  0  0  0 
  9  1  1  0  0  0  0 
 12  2  1  0  0  0  0 
 13  2  1  0  0  0  0 
M  END 
>  <HBA> 
0 
 
>  <HBD> 
0 
 
>  <TPSA> 
55.05 
 
>  <cid> 
15575 
 
>  <dipole> 
3.48 
 
>  <excitation_energy_1> 
4.679 
 
>  <excitation_energy_2> 
5.605 
 
>  <excitation_energy_3> 
6.103 
 
>  <excitation_energy_4> 
6.941 
 
>  <homo_energy> 
-8.414 
 
>  <homo_lumo_gap> 
6.746 
 
>  <logP> 
1.126 
 
>  <lumo_energy> 
-1.668 
 
>  <melting_point> 
-0.42 
 
>  <molecular_refractivity> 
25.73 
 
>  <oscillator_strength_1> 
0.0 
 
>  <oscillator_strength_2> 
0.0021 
 
>  <oscillator_strength_3> 
0.0685 
 
>  <oscillator_strength_4> 
0.0123 
 
>  <open_babel_can_smiles> 
CC(ON(=O)=O)C 
 
>  <mulliken_charges> 
14 
1   -0.456577 
2   -0.45969 
3   0.120556 
4   0.747998 
5   -0.355838 
6   -0.374463 
7   -0.384329 
8   0.159863 
9   0.166843 
10   0.169427 
11   0.156167 
12   0.175359 
13   0.161669 
14   0.173014 
 
>  <lowdin_charges> 
14 
1   -0.446864 
2   -0.455996 
3   0.001707 
4   0.374647 
5   -0.197983 
6   -0.228488 
7   -0.185218 
8   0.163584 
9   0.162433 
10   0.166073 
11   0.162128 
12   0.165498 
13   0.159688 
14   0.15879 
 
$$$$ 
 
