PCCDB-ID:  33108 
public computational chemistry database (PCCDB) project, http://pccdb.org 
 
 21 22  0  0  0  0  0  0  0  0999 V2000 
    0.9776    0.1339    0.0753 C   0  0  0  0  0  0  0  0  0  0  0  0 
    4.1408   -4.7714    0.0688 C   0  0  0  0  0  0  0  0  0  0  0  0 
    4.6856    1.1510    0.0654 C   0  0  0  0  0  0  0  0  0  0  0  0 
    3.2797    1.2096    0.0693 C   0  0  0  0  0  0  0  0  0  0  0  0 
    5.3594   -0.0687    0.0640 C   0  0  0  0  0  0  0  0  0  0  0  0 
    2.7481   -2.5619    0.0729 C   0  0  0  0  0  0  0  0  0  0  0  0 
    2.4841    0.0626    0.0719 C   0  0  0  0  0  0  0  0  0  0  0  0 
    3.8860   -3.3058    0.0698 C   0  0  0  0  0  0  0  0  0  0  0  0 
    3.1551   -1.1768    0.0711 C   0  0  0  0  0  0  0  0  0  0  0  0 
    4.5607   -1.2056    0.0669 C   0  0  0  0  0  0  0  0  0  0  0  0 
    5.0079   -2.5016    0.0660 O   0  0  0  0  0  0  0  0  0  0  0  0 
    0.6297    1.1715    0.0729 H   0  0  0  0  0  0  0  0  0  0  0  0 
    0.5538   -0.3594    0.9596 H   0  0  0  0  0  0  0  0  0  0  0  0 
    0.5498   -0.3649   -0.8041 H   0  0  0  0  0  0  0  0  0  0  0  0 
    3.1935   -5.3171    0.0718 H   0  0  0  0  0  0  0  0  0  0  0  0 
    4.7184   -5.0754    0.9505 H   0  0  0  0  0  0  0  0  0  0  0  0 
    4.7124   -5.0750   -0.8170 H   0  0  0  0  0  0  0  0  0  0  0  0 
    5.2553    2.0760    0.0635 H   0  0  0  0  0  0  0  0  0  0  0  0 
    2.7952    2.1832    0.0698 H   0  0  0  0  0  0  0  0  0  0  0  0 
    6.4422   -0.1354    0.0608 H   0  0  0  0  0  0  0  0  0  0  0  0 
    1.7403   -2.9536    0.0767 H   0  0  0  0  0  0  0  0  0  0  0  0 
  1 13  1  0  0  0  0 
  2  8  1  0  0  0  0 
  2 15  1  0  0  0  0 
  2 16  1  0  0  0  0 
  3  4  1  0  0  0  0 
  4 19  1  0  0  0  0 
  4  7  2  0  0  0  0 
  5  3  2  0  0  0  0 
  5 10  1  0  0  0  0 
  6 21  1  0  0  0  0 
  7  1  1  0  0  0  0 
  8  6  2  0  0  0  0 
  9  7  1  0  0  0  0 
  9  6  1  0  0  0  0 
 10  9  2  0  0  0  0 
 11 10  1  0  0  0  0 
 11  8  1  0  0  0  0 
 12  1  1  0  0  0  0 
 14  1  1  0  0  0  0 
 17  2  1  0  0  0  0 
 18  3  1  0  0  0  0 
 20  5  1  0  0  0  0 
M  END 
>  <HBA> 
1 
 
>  <HBD> 
0 
 
>  <TPSA> 
13.14 
 
>  <cid> 
33108 
 
>  <dipole> 
1.24 
 
>  <excitation_energy_1> 
4.884 
 
>  <excitation_energy_2> 
4.986 
 
>  <excitation_energy_3> 
5.279 
 
>  <excitation_energy_4> 
5.584 
 
>  <homo_energy> 
-5.622 
 
>  <homo_lumo_gap> 
5.328 
 
>  <logP> 
3.05 
 
>  <lumo_energy> 
-0.294 
 
>  <melting_point> 
56.56 
 
>  <molecular_refractivity> 
46.15 
 
>  <oscillator_strength_1> 
0.083 
 
>  <oscillator_strength_2> 
0.1998 
 
>  <oscillator_strength_3> 
0.0042 
 
>  <oscillator_strength_4> 
0.0054 
 
>  <open_babel_can_smiles> 
Cc1cc2c(o1)cccc2C 
 
>  <mulliken_charges> 
21 
1   -0.527537 
2   -0.533445 
3   -0.143439 
4   -0.19487 
5   -0.191927 
6   -0.259111 
7   0.113741 
8   0.352163 
9   0.067298 
10   0.322213 
11   -0.513634 
12   0.154896 
13   0.160229 
14   0.160196 
15   0.167302 
16   0.174674 
17   0.174708 
18   0.12664 
19   0.116301 
20   0.138311 
21   0.135289 
 
>  <lowdin_charges> 
21 
1   -0.440966 
2   -0.44206 
3   -0.161153 
4   -0.181509 
5   -0.180289 
6   -0.232608 
7   -0.002884 
8   0.093129 
9   -0.037687 
10   0.084171 
11   -0.126047 
12   0.1566 
13   0.159824 
14   0.15985 
15   0.168854 
16   0.169861 
17   0.169862 
18   0.158073 
19   0.153001 
20   0.16493 
21   0.167048 
 
$$$$ 
 
