PCCDB-ID:  69865 
public computational chemistry database (PCCDB) project, http://pccdb.org 
 
 19 20  0  0  0  0  0  0  0  0999 V2000 
    2.4908   -0.6279   -0.1523 C   0  0  0  0  0  0  0  0  0  0  0  0 
    2.4425    0.7652   -0.0939 C   0  0  0  0  0  0  0  0  0  0  0  0 
    1.3153   -1.3801   -0.0973 C   0  0  0  0  0  0  0  0  0  0  0  0 
    1.2142    1.4238    0.0145 C   0  0  0  0  0  0  0  0  0  0  0  0 
   -2.2987    0.6787   -0.3255 C   0  0  0  0  0  0  0  0  0  0  0  0 
    0.0927   -0.7202    0.0180 C   0  0  0  0  0  0  0  0  0  0  0  0 
    0.0398    0.6839    0.0734 C   0  0  0  0  0  0  0  0  0  0  0  0 
   -2.3507   -0.8171   -0.0566 C   0  0  0  0  0  0  0  0  0  0  0  0 
   -1.1341   -1.3886    0.1210 N   0  0  0  0  0  0  0  0  0  0  0  0 
   -3.3798   -1.4934   -0.0507 O   0  0  0  0  0  0  0  0  0  0  0  0 
   -1.1088   -2.7747    0.2629 O   0  0  0  0  0  0  0  0  0  0  0  0 
   -1.1633    1.3254    0.2470 O   0  0  0  0  0  0  0  0  0  0  0  0 
    3.4449   -1.1386   -0.2399 H   0  0  0  0  0  0  0  0  0  0  0  0 
    3.3586    1.3465   -0.1377 H   0  0  0  0  0  0  0  0  0  0  0  0 
    1.3334   -2.4628   -0.1300 H   0  0  0  0  0  0  0  0  0  0  0  0 
    1.1490    2.5060    0.0634 H   0  0  0  0  0  0  0  0  0  0  0  0 
   -3.1818    1.1421    0.1163 H   0  0  0  0  0  0  0  0  0  0  0  0 
   -2.3272    0.8393   -1.4151 H   0  0  0  0  0  0  0  0  0  0  0  0 
   -2.0708   -2.9790    0.1807 H   0  0  0  0  0  0  0  0  0  0  0  0 
  1  3  2  0  0  0  0 
  1  2  1  0  0  0  0 
  2  4  2  0  0  0  0 
  3  6  1  0  0  0  0 
  4 16  1  0  0  0  0 
  4  7  1  0  0  0  0 
  5  8  1  0  0  0  0 
  5 17  1  0  0  0  0 
  5 12  1  0  0  0  0 
  6  7  2  0  0  0  0 
  6  9  1  0  0  0  0 
  7 12  1  0  0  0  0 
  8 10  2  0  0  0  0 
  8  9  1  0  0  0  0 
  9 11  1  0  0  0  0 
 13  1  1  0  0  0  0 
 14  2  1  0  0  0  0 
 15  3  1  0  0  0  0 
 18  5  1  0  0  0  0 
 19 11  1  0  0  0  0 
M  END 
>  <HBA> 
4 
 
>  <HBD> 
1 
 
>  <TPSA> 
49.77 
 
>  <cid> 
69865 
 
>  <dipole> 
1.99 
 
>  <excitation_energy_1> 
4.487 
 
>  <excitation_energy_2> 
4.757 
 
>  <excitation_energy_3> 
5.298 
 
>  <excitation_energy_4> 
5.412 
 
>  <homo_energy> 
-5.826 
 
>  <homo_lumo_gap> 
5.083 
 
>  <logP> 
0.866 
 
>  <lumo_energy> 
-0.743 
 
>  <melting_point> 
117.31 
 
>  <molecular_refractivity> 
44.08 
 
>  <oscillator_strength_1> 
0.1596 
 
>  <oscillator_strength_2> 
0.0165 
 
>  <oscillator_strength_3> 
0.011 
 
>  <oscillator_strength_4> 
0.1336 
 
>  <open_babel_can_smiles> 
O=C1COc2c(N1O)cccc2 
 
>  <mulliken_charges> 
19 
1   -0.13985 
2   -0.132856 
3   -0.170169 
4   -0.187578 
5   -0.129342 
6   0.33752 
7   0.313937 
8   0.567958 
9   -0.288032 
10   -0.532846 
11   -0.516126 
12   -0.520943 
13   0.136944 
14   0.136246 
15   0.1671 
16   0.147475 
17   0.197858 
18   0.177501 
19   0.435203 
 
>  <lowdin_charges> 
19 
1   -0.159438 
2   -0.157831 
3   -0.166515 
4   -0.171021 
5   -0.139673 
6   0.014707 
7   0.080947 
8   0.12728 
9   0.06267 
10   -0.311002 
11   -0.35955 
12   -0.2026 
13   0.163015 
14   0.163186 
15   0.177068 
16   0.169997 
17   0.183891 
18   0.159848 
19   0.365021 
 
$$$$ 
 
