PCCDB-ID:  10222 
public computational chemistry database (PCCDB) project, http://pccdb.org 
 
 36 38  0  0  0  0  0  0  0  0999 V2000 
    3.7825    0.5618    0.8387 C   0  0  0  0  0  0  0  0  0  0  0  0 
    1.7718    1.0839   -0.6221 C   0  0  0  0  0  0  0  0  0  0  0  0 
    5.8106   -5.4541   -6.3090 C   0  0  0  0  0  0  0  0  0  0  0  0 
    3.5740   -7.0434   -3.6642 C   0  0  0  0  0  0  0  0  0  0  0  0 
    4.4068   -6.8631   -4.7820 C   0  0  0  0  0  0  0  0  0  0  0  0 
    3.2504   -5.9721   -2.8564 C   0  0  0  0  0  0  0  0  0  0  0  0 
    2.3198   -2.4913   -0.3807 C   0  0  0  0  0  0  0  0  0  0  0  0 
    4.7946   -2.1148   -3.7812 C   0  0  0  0  0  0  0  0  0  0  0  0 
    5.0984   -3.1871   -4.5617 C   0  0  0  0  0  0  0  0  0  0  0  0 
    2.6008   -3.6066   -1.1484 C   0  0  0  0  0  0  0  0  0  0  0  0 
    3.6496   -1.1246   -1.8245 C   0  0  0  0  0  0  0  0  0  0  0  0 
    2.5197   -0.0086    0.1650 C   0  0  0  0  0  0  0  0  0  0  0  0 
    4.9183   -5.6155   -5.0994 C   0  0  0  0  0  0  0  0  0  0  0  0 
    2.8403   -1.2187   -0.7029 C   0  0  0  0  0  0  0  0  0  0  0  0 
    3.9532   -2.2459   -2.6287 C   0  0  0  0  0  0  0  0  0  0  0  0 
    4.5906   -4.4997   -4.2711 C   0  0  0  0  0  0  0  0  0  0  0  0 
    3.4230   -3.5267   -2.2955 C   0  0  0  0  0  0  0  0  0  0  0  0 
    3.7458   -4.6762   -3.1322 C   0  0  0  0  0  0  0  0  0  0  0  0 
    3.5234    1.3933    1.5051 H   0  0  0  0  0  0  0  0  0  0  0  0 
    4.4927    0.9398    0.0937 H   0  0  0  0  0  0  0  0  0  0  0  0 
    4.2962   -0.2033    1.4307 H   0  0  0  0  0  0  0  0  0  0  0  0 
    1.5092    1.9221    0.0342 H   0  0  0  0  0  0  0  0  0  0  0  0 
    0.8486    0.6931   -1.0636 H   0  0  0  0  0  0  0  0  0  0  0  0 
    2.3892    1.4800   -1.4371 H   0  0  0  0  0  0  0  0  0  0  0  0 
    5.9451   -6.4127   -6.8188 H   0  0  0  0  0  0  0  0  0  0  0  0 
    6.8064   -5.0818   -6.0372 H   0  0  0  0  0  0  0  0  0  0  0  0 
    5.3914   -4.7481   -7.0369 H   0  0  0  0  0  0  0  0  0  0  0  0 
    3.1837   -8.0318   -3.4367 H   0  0  0  0  0  0  0  0  0  0  0  0 
    4.6539   -7.7163   -5.4091 H   0  0  0  0  0  0  0  0  0  0  0  0 
    2.6058   -6.1374   -2.0003 H   0  0  0  0  0  0  0  0  0  0  0  0 
    1.6821   -2.5954    0.4945 H   0  0  0  0  0  0  0  0  0  0  0  0 
    5.1902   -1.1309   -4.0223 H   0  0  0  0  0  0  0  0  0  0  0  0 
    5.7398   -3.0518   -5.4261 H   0  0  0  0  0  0  0  0  0  0  0  0 
    2.1730   -4.5577   -0.8502 H   0  0  0  0  0  0  0  0  0  0  0  0 
    4.0745   -0.1647   -2.1114 H   0  0  0  0  0  0  0  0  0  0  0  0 
    1.8490   -0.3543    0.9636 H   0  0  0  0  0  0  0  0  0  0  0  0 
  1 21  1  0  0  0  0 
  1 19  1  0  0  0  0 
  2 22  1  0  0  0  0 
  2 12  1  0  0  0  0 
  3 26  1  0  0  0  0 
  3 13  1  0  0  0  0 
  4 28  1  0  0  0  0 
  4  6  2  0  0  0  0 
  5  4  1  0  0  0  0 
  6 30  1  0  0  0  0 
  7 31  1  0  0  0  0 
  8 15  2  0  0  0  0 
  9 16  2  0  0  0  0 
  9  8  1  0  0  0  0 
 10 34  1  0  0  0  0 
 10  7  2  0  0  0  0 
 11 14  2  0  0  0  0 
 12  1  1  0  0  0  0 
 12 36  1  0  0  0  0 
 13  5  2  0  0  0  0 
 13 16  1  0  0  0  0 
 14  7  1  0  0  0  0 
 14 12  1  0  0  0  0 
 15 17  1  0  0  0  0 
 15 11  1  0  0  0  0 
 16 18  1  0  0  0  0 
 17 10  1  0  0  0  0 
 18  6  1  0  0  0  0 
 18 17  2  0  0  0  0 
 20  1  1  0  0  0  0 
 23  2  1  0  0  0  0 
 24  2  1  0  0  0  0 
 25  3  1  0  0  0  0 
 27  3  1  0  0  0  0 
 29  5  1  0  0  0  0 
 32  8  1  0  0  0  0 
 33  9  1  0  0  0  0 
 35 11  1  0  0  0  0 
M  END 
>  <HBA> 
0 
 
>  <HBD> 
0 
 
>  <TPSA> 
0.0 
 
>  <cid> 
10222 
 
>  <dipole> 
0.3 
 
>  <excitation_energy_1> 
3.889 
 
>  <excitation_energy_2> 
4.104 
 
>  <excitation_energy_3> 
4.602 
 
>  <excitation_energy_4> 
4.76 
 
>  <homo_energy> 
-5.595 
 
>  <homo_lumo_gap> 
4.626 
 
>  <logP> 
5.425 
 
>  <lumo_energy> 
-0.969 
 
>  <melting_point> 
101.34 
 
>  <molecular_refractivity> 
81.0 
 
>  <oscillator_strength_1> 
0.0015 
 
>  <oscillator_strength_2> 
0.0923 
 
>  <oscillator_strength_3> 
0.1406 
 
>  <oscillator_strength_4> 
0.7573 
 
>  <open_babel_can_smiles> 
CC(c1ccc2c(c1)ccc1c2cccc1C)C 
 
>  <mulliken_charges> 
36 
1   -0.437149 
2   -0.438471 
3   -0.53584 
4   -0.132592 
5   -0.194788 
6   -0.190596 
7   -0.20673 
8   -0.192731 
9   -0.20162 
10   -0.185922 
11   -0.284574 
12   -0.160773 
13   0.120271 
14   0.198481 
15   0.156815 
16   0.081147 
17   0.054038 
18   0.064015 
19   0.140763 
20   0.143911 
21   0.149999 
22   0.14091 
23   0.150164 
24   0.143935 
25   0.15572 
26   0.162862 
27   0.162822 
28   0.126793 
29   0.119994 
30   0.130308 
31   0.121795 
32   0.126234 
33   0.127594 
34   0.131948 
35   0.123005 
36   0.128263 
 
>  <lowdin_charges> 
36 
1   -0.44384 
2   -0.442954 
3   -0.444481 
4   -0.156251 
5   -0.172141 
6   -0.162562 
7   -0.16766 
8   -0.157365 
9   -0.163663 
10   -0.156895 
11   -0.167989 
12   -0.119036 
13   0.000782 
14   -0.001015 
15   0.000249 
16   -0.012473 
17   -0.005699 
18   -0.00032 
19   0.148713 
20   0.148822 
21   0.154272 
22   0.148909 
23   0.153315 
24   0.148509 
25   0.157843 
26   0.159135 
27   0.160701 
28   0.15675 
29   0.154894 
30   0.157129 
31   0.154384 
32   0.156152 
33   0.160692 
34   0.157488 
35   0.152977 
36   0.142631 
 
$$$$ 
 
