PCCDB-ID:  69156 
public computational chemistry database (PCCDB) project, http://pccdb.org 
 
 20 20  0  0  0  0  0  0  0  0999 V2000 
    1.4716   -0.7765    0.0503 C   0  0  0  0  0  0  0  0  0  0  0  0 
    2.6634    0.0725   -0.4284 C   0  0  0  0  0  0  0  0  0  0  0  0 
    4.0826    2.1409    2.4408 C   0  0  0  0  0  0  0  0  0  0  0  0 
    3.5442    3.4128    2.2341 C   0  0  0  0  0  0  0  0  0  0  0  0 
    3.7819    1.1050    1.5605 C   0  0  0  0  0  0  0  0  0  0  0  0 
    2.7104    3.6275    1.1447 C   0  0  0  0  0  0  0  0  0  0  0  0 
    2.9264    1.2732    0.4592 C   0  0  0  0  0  0  0  0  0  0  0  0 
    2.4000    2.5678    0.2862 C   0  0  0  0  0  0  0  0  0  0  0  0 
    1.4900    2.8978   -0.8259 N   0  0  0  0  0  0  0  0  0  0  0  0 
    1.4297    4.0752   -1.1811 O   0  0  0  0  0  0  0  0  0  0  0  0 
    0.8267    1.9914   -1.3333 O   0  0  0  0  0  0  0  0  0  0  0  0 
    1.3495   -1.6525   -0.5961 H   0  0  0  0  0  0  0  0  0  0  0  0 
    0.5473   -0.1946    0.0168 H   0  0  0  0  0  0  0  0  0  0  0  0 
    1.6243   -1.1304    1.0763 H   0  0  0  0  0  0  0  0  0  0  0  0 
    2.4898    0.3832   -1.4600 H   0  0  0  0  0  0  0  0  0  0  0  0 
    3.5691   -0.5465   -0.4222 H   0  0  0  0  0  0  0  0  0  0  0  0 
    4.7434    1.9573    3.2834 H   0  0  0  0  0  0  0  0  0  0  0  0 
    3.7741    4.2298    2.9111 H   0  0  0  0  0  0  0  0  0  0  0  0 
    4.2230    0.1242    1.7193 H   0  0  0  0  0  0  0  0  0  0  0  0 
    2.2864    4.6026    0.9396 H   0  0  0  0  0  0  0  0  0  0  0  0 
  1 14  1  0  0  0  0 
  2 16  1  0  0  0  0 
  2  1  1  0  0  0  0 
  2  7  1  0  0  0  0 
  3 17  1  0  0  0  0 
  4  3  1  0  0  0  0 
  4 18  1  0  0  0  0 
  5 19  1  0  0  0  0 
  5  3  2  0  0  0  0 
  6  4  2  0  0  0  0 
  7  5  1  0  0  0  0 
  8  7  2  0  0  0  0 
  8  6  1  0  0  0  0 
  9  8  1  0  0  0  0 
 10  9  2  0  0  0  0 
 11  9  2  0  0  0  0 
 12  1  1  0  0  0  0 
 13  1  1  0  0  0  0 
 15  2  1  0  0  0  0 
 20  6  1  0  0  0  0 
M  END 
>  <HBA> 
0 
 
>  <HBD> 
0 
 
>  <TPSA> 
45.82 
 
>  <cid> 
69156 
 
>  <dipole> 
4.23 
 
>  <excitation_energy_1> 
3.698 
 
>  <excitation_energy_2> 
4.065 
 
>  <excitation_energy_3> 
4.304 
 
>  <excitation_energy_4> 
4.708 
 
>  <homo_energy> 
-7.233 
 
>  <homo_lumo_gap> 
4.944 
 
>  <logP> 
2.68 
 
>  <lumo_energy> 
-2.288 
 
>  <melting_point> 
46.28 
 
>  <molecular_refractivity> 
45.04 
 
>  <oscillator_strength_1> 
0.0131 
 
>  <oscillator_strength_2> 
0.0238 
 
>  <oscillator_strength_3> 
0.0053 
 
>  <oscillator_strength_4> 
0.1491 
 
>  <open_babel_can_smiles> 
CCc1ccccc1N(=O)=O 
 
>  <mulliken_charges> 
20 
1   -0.441644 
2   -0.324083 
3   -0.102837 
4   -0.145115 
5   -0.198436 
6   -0.138512 
7   0.170868 
8   0.203042 
9   0.358128 
10   -0.386281 
11   -0.390771 
12   0.150006 
13   0.175042 
14   0.141743 
15   0.170619 
16   0.142368 
17   0.145722 
18   0.147824 
19   0.140992 
20   0.181325 
 
>  <lowdin_charges> 
20 
1   -0.439182 
2   -0.272639 
3   -0.132152 
4   -0.155667 
5   -0.159035 
6   -0.137043 
7   0.022681 
8   -0.005227 
9   0.307041 
10   -0.245117 
11   -0.244554 
12   0.154469 
13   0.162685 
14   0.145545 
15   0.164612 
16   0.149661 
17   0.166461 
18   0.168193 
19   0.163326 
20   0.185942 
 
$$$$ 
 
