PCCDB-ID:  27559 
public computational chemistry database (PCCDB) project, http://pccdb.org 
 
 31 33  0  0  0  0  0  0  0  0999 V2000 
    0.9954    0.1648    0.0564 C   0  0  0  0  0  0  0  0  0  0  0  0 
    5.3474    3.0632    0.4497 C   0  0  0  0  0  0  0  0  0  0  0  0 
    4.0090    3.5038    0.4355 C   0  0  0  0  0  0  0  0  0  0  0  0 
    5.6532    1.7117    0.3564 C   0  0  0  0  0  0  0  0  0  0  0  0 
    2.9551    2.6027    0.3280 C   0  0  0  0  0  0  0  0  0  0  0  0 
    5.7586   -1.5746    0.0688 C   0  0  0  0  0  0  0  0  0  0  0  0 
    2.6389   -2.3814   -0.1013 C   0  0  0  0  0  0  0  0  0  0  0  0 
    5.6586   -2.8465    0.9220 C   0  0  0  0  0  0  0  0  0  0  0  0 
    3.2636   -3.4607    0.7982 C   0  0  0  0  0  0  0  0  0  0  0  0 
    4.6097    0.7760    0.2475 C   0  0  0  0  0  0  0  0  0  0  0  0 
    4.5678   -0.6572    0.1369 C   0  0  0  0  0  0  0  0  0  0  0  0 
    3.2658    1.2407    0.2324 C   0  0  0  0  0  0  0  0  0  0  0  0 
    3.2387   -1.0134    0.0603 C   0  0  0  0  0  0  0  0  0  0  0  0 
    4.6428   -3.7860    0.4347 N   0  0  0  0  0  0  0  0  0  0  0  0 
    2.4430    0.1330    0.1178 N   0  0  0  0  0  0  0  0  0  0  0  0 
    0.6615    1.2017    0.1098 H   0  0  0  0  0  0  0  0  0  0  0  0 
    0.5432   -0.3792    0.8944 H   0  0  0  0  0  0  0  0  0  0  0  0 
    0.6232   -0.2639   -0.8814 H   0  0  0  0  0  0  0  0  0  0  0  0 
    6.1480    3.7932    0.5336 H   0  0  0  0  0  0  0  0  0  0  0  0 
    3.7944    4.5665    0.5093 H   0  0  0  0  0  0  0  0  0  0  0  0 
    6.6892    1.3820    0.3650 H   0  0  0  0  0  0  0  0  0  0  0  0 
    1.9287    2.9589    0.3179 H   0  0  0  0  0  0  0  0  0  0  0  0 
    5.9525   -1.8828   -0.9692 H   0  0  0  0  0  0  0  0  0  0  0  0 
    6.6473   -1.0214    0.3982 H   0  0  0  0  0  0  0  0  0  0  0  0 
    1.5652   -2.3475    0.1169 H   0  0  0  0  0  0  0  0  0  0  0  0 
    2.7369   -2.7167   -1.1443 H   0  0  0  0  0  0  0  0  0  0  0  0 
    5.4892   -2.5586    1.9773 H   0  0  0  0  0  0  0  0  0  0  0  0 
    6.6232   -3.3662    0.8766 H   0  0  0  0  0  0  0  0  0  0  0  0 
    2.6723   -4.3764    0.6780 H   0  0  0  0  0  0  0  0  0  0  0  0 
    3.1671   -3.1432    1.8543 H   0  0  0  0  0  0  0  0  0  0  0  0 
    4.8586   -4.7088    0.8031 H   0  0  0  0  0  0  0  0  0  0  0  0 
  1 16  1  0  0  0  0 
  1 15  1  0  0  0  0 
  1 17  1  0  0  0  0 
  2 19  1  0  0  0  0 
  3  2  1  0  0  0  0 
  3 20  1  0  0  0  0 
  4 21  1  0  0  0  0 
  4  2  2  0  0  0  0 
  5  3  2  0  0  0  0 
  6 11  1  0  0  0  0 
  6 24  1  0  0  0  0 
  6  8  1  0  0  0  0 
  7 13  1  0  0  0  0 
  7 25  1  0  0  0  0 
  7  9  1  0  0  0  0 
  8 27  1  0  0  0  0 
  9 30  1  0  0  0  0 
 10  4  1  0  0  0  0 
 11 10  1  0  0  0  0 
 12 10  2  0  0  0  0 
 12  5  1  0  0  0  0 
 13 15  1  0  0  0  0 
 13 11  2  0  0  0  0 
 14  9  1  0  0  0  0 
 14 31  1  0  0  0  0 
 14  8  1  0  0  0  0 
 15 12  1  0  0  0  0 
 18  1  1  0  0  0  0 
 22  5  1  0  0  0  0 
 23  6  1  0  0  0  0 
 26  7  1  0  0  0  0 
 28  8  1  0  0  0  0 
 29  9  1  0  0  0  0 
M  END 
>  <HBA> 
2 
 
>  <HBD> 
1 
 
>  <TPSA> 
16.96 
 
>  <cid> 
27559 
 
>  <dipole> 
2.76 
 
>  <excitation_energy_1> 
4.349 
 
>  <excitation_energy_2> 
4.497 
 
>  <excitation_energy_3> 
4.706 
 
>  <excitation_energy_4> 
4.774 
 
>  <homo_energy> 
-4.969 
 
>  <homo_lumo_gap> 
5.034 
 
>  <logP> 
2.195 
 
>  <lumo_energy> 
0.065 
 
>  <melting_point> 
108.92 
 
>  <molecular_refractivity> 
67.35 
 
>  <oscillator_strength_1> 
0.086 
 
>  <oscillator_strength_2> 
0.0124 
 
>  <oscillator_strength_3> 
0.0297 
 
>  <oscillator_strength_4> 
0.0132 
 
>  <open_babel_can_smiles> 
Cn1c2ccccc2c2c1CCNCC2 
 
>  <mulliken_charges> 
31 
1   -0.328675 
2   -0.141471 
3   -0.151352 
4   -0.211821 
5   -0.168678 
6   -0.32422 
7   -0.333313 
8   -0.135408 
9   -0.129861 
10   0.061234 
11   0.031096 
12   0.309033 
13   0.275188 
14   -0.544143 
15   -0.574521 
16   0.175216 
17   0.16696 
18   0.168414 
19   0.115136 
20   0.116954 
21   0.119062 
22   0.118999 
23   0.152104 
24   0.137189 
25   0.13583 
26   0.165482 
27   0.118455 
28   0.128949 
29   0.130944 
30   0.119694 
31   0.297526 
 
>  <lowdin_charges> 
31 
1   -0.348261 
2   -0.180469 
3   -0.167549 
4   -0.16579 
5   -0.191756 
6   -0.272796 
7   -0.281355 
8   -0.200566 
9   -0.19734 
10   -0.033418 
11   -0.077302 
12   0.025155 
13   0.011066 
14   -0.367111 
15   -0.036583 
16   0.167741 
17   0.156309 
18   0.15708 
19   0.152989 
20   0.151297 
21   0.151513 
22   0.150995 
23   0.152517 
24   0.151639 
25   0.150922 
26   0.160289 
27   0.118838 
28   0.142398 
29   0.144121 
30   0.119398 
31   0.25603 
 
$$$$ 
 
