PCCDB-ID:  8014 
public computational chemistry database (PCCDB) project, http://pccdb.org 
 
 15 14  0  0  0  0  0  0  0  0999 V2000 
    2.1812    0.6500    0.2740 C   0  0  0  0  0  0  0  0  0  0  0  0 
    4.7698   -1.4857   -1.4665 C   0  0  0  0  0  0  0  0  0  0  0  0 
    3.3861   -1.0631   -0.9695 C   0  0  0  0  0  0  0  0  0  0  0  0 
    5.6863   -1.6804   -0.3311 N   0  0  0  0  0  0  0  0  0  0  0  0 
    3.4834    0.1166   -0.1120 N   0  0  0  0  0  0  0  0  0  0  0  0 
    2.3183    1.4751    0.9811 H   0  0  0  0  0  0  0  0  0  0  0  0 
    1.5037   -0.0924    0.7369 H   0  0  0  0  0  0  0  0  0  0  0  0 
    1.6742    1.0516   -0.6117 H   0  0  0  0  0  0  0  0  0  0  0  0 
    5.1315   -0.7400   -2.1938 H   0  0  0  0  0  0  0  0  0  0  0  0 
    4.6739   -2.4407   -1.9965 H   0  0  0  0  0  0  0  0  0  0  0  0 
    2.9044   -1.9183   -0.4587 H   0  0  0  0  0  0  0  0  0  0  0  0 
    2.7599   -0.8085   -1.8352 H   0  0  0  0  0  0  0  0  0  0  0  0 
    6.0456   -0.7715   -0.0431 H   0  0  0  0  0  0  0  0  0  0  0  0 
    6.4997   -2.2137   -0.6316 H   0  0  0  0  0  0  0  0  0  0  0  0 
    3.9790   -0.1677    0.7320 H   0  0  0  0  0  0  0  0  0  0  0  0 
  1  7  1  0  0  0  0 
  1  6  1  0  0  0  0 
  2  3  1  0  0  0  0 
  2  4  1  0  0  0  0 
  3 11  1  0  0  0  0 
  3  5  1  0  0  0  0 
  4 13  1  0  0  0  0 
  5  1  1  0  0  0  0 
  5 15  1  0  0  0  0 
  8  1  1  0  0  0  0 
  9  2  1  0  0  0  0 
 10  2  1  0  0  0  0 
 12  3  1  0  0  0  0 
 14  4  1  0  0  0  0 
M  END 
>  <HBA> 
2 
 
>  <HBD> 
2 
 
>  <TPSA> 
38.05 
 
>  <cid> 
8014 
 
>  <dipole> 
0.65 
 
>  <excitation_energy_1> 
5.347 
 
>  <excitation_energy_2> 
5.752 
 
>  <excitation_energy_3> 
5.935 
 
>  <excitation_energy_4> 
5.96 
 
>  <homo_energy> 
-5.788 
 
>  <homo_lumo_gap> 
7.91 
 
>  <logP> 
0.256 
 
>  <lumo_energy> 
2.123 
 
>  <melting_point> 
56.86 
 
>  <molecular_refractivity> 
22.04 
 
>  <oscillator_strength_1> 
0.0007 
 
>  <oscillator_strength_2> 
0.0019 
 
>  <oscillator_strength_3> 
0.0361 
 
>  <oscillator_strength_4> 
0.0364 
 
>  <open_babel_can_smiles> 
CNCCN 
 
>  <mulliken_charges> 
15 
1   -0.29703 
2   -0.142473 
3   -0.10046 
4   -0.729279 
5   -0.553568 
6   0.145112 
7   0.119762 
8   0.148694 
9   0.126064 
10   0.133428 
11   0.116355 
12   0.129468 
13   0.301844 
14   0.299427 
15   0.302656 
 
>  <lowdin_charges> 
15 
1   -0.362024 
2   -0.210102 
3   -0.208315 
4   -0.565896 
5   -0.370294 
6   0.149218 
7   0.122399 
8   0.147011 
9   0.126803 
10   0.142609 
11   0.120972 
12   0.140487 
13   0.254951 
14   0.257454 
15   0.254728 
 
$$$$ 
 
