PCCDB-ID:  11716 
public computational chemistry database (PCCDB) project, http://pccdb.org 
 
 13 12  0  0  1  0  0  0  0  0999 V2000 
    1.2515   -0.1552    0.5725 C   0  0  0  0  0  0  0  0  0  0  0  0 
    2.9188   -0.4185   -2.5759 C   0  0  0  0  0  0  0  0  0  0  0  0 
    2.2639    0.1956   -0.2192 C   0  0  0  0  0  0  0  0  0  0  0  0 
    3.0551   -0.7525   -1.0864 C   0  0  2  0  0  0  0  0  0  0  0  0 
    4.4346   -0.7827   -0.6951 O   0  0  0  0  0  0  0  0  0  0  0  0 
    0.7121    0.5716    1.1741 H   0  0  0  0  0  0  0  0  0  0  0  0 
    0.9213   -1.1893    0.6502 H   0  0  0  0  0  0  0  0  0  0  0  0 
    1.8772   -0.4963   -2.9064 H   0  0  0  0  0  0  0  0  0  0  0  0 
    3.5327   -1.1022   -3.1715 H   0  0  0  0  0  0  0  0  0  0  0  0 
    3.2554    0.6081   -2.7764 H   0  0  0  0  0  0  0  0  0  0  0  0 
    2.5698    1.2436   -0.2724 H   0  0  0  0  0  0  0  0  0  0  0  0 
    2.7009   -1.7745   -0.9117 H   0  0  0  0  0  0  0  0  0  0  0  0 
    4.8096    0.0916   -0.8902 H   0  0  0  0  0  0  0  0  0  0  0  0 
  1  7  1  0  0  0  0 
  1  6  1  0  0  0  0 
  2  4  1  0  0  0  0 
  3  1  2  0  0  0  0 
  4 12  1  1  0  0  0 
  4  5  1  0  0  0  0 
  4  3  1  0  0  0  0 
  8  2  1  0  0  0  0 
  9  2  1  0  0  0  0 
 10  2  1  0  0  0  0 
 11  3  1  0  0  0  0 
 13  5  1  0  0  0  0 
M  END 
>  <HBA> 
1 
 
>  <HBD> 
1 
 
>  <TPSA> 
20.23 
 
>  <cid> 
11716 
 
>  <dipole> 
1.65 
 
>  <excitation_energy_1> 
6.3 
 
>  <excitation_energy_2> 
6.587 
 
>  <excitation_energy_3> 
6.867 
 
>  <excitation_energy_4> 
6.978 
 
>  <homo_energy> 
-6.999 
 
>  <homo_lumo_gap> 
7.377 
 
>  <logP> 
0.553 
 
>  <lumo_energy> 
0.378 
 
>  <melting_point> 
-27.22 
 
>  <molecular_refractivity> 
22.03 
 
>  <oscillator_strength_1> 
0.0154 
 
>  <oscillator_strength_2> 
0.0158 
 
>  <oscillator_strength_3> 
0.0386 
 
>  <oscillator_strength_4> 
0.0606 
 
>  <open_babel_can_smiles> 
C[C@H](C=C)O 
 
>  <mulliken_charges> 
13 
1   -0.341917 
2   -0.459771 
3   -0.042087 
4   0.092786 
5   -0.614128 
6   0.142429 
7   0.141095 
8   0.152717 
9   0.159924 
10   0.13145 
11   0.115564 
12   0.141283 
13   0.380654 
 
>  <lowdin_charges> 
13 
1   -0.331559 
2   -0.459114 
3   -0.159041 
4   0.006098 
5   -0.461146 
6   0.161519 
7   0.156025 
8   0.156918 
9   0.160257 
10   0.142537 
11   0.144236 
12   0.146914 
13   0.336355 
 
$$$$ 
 
