PCCDB-ID:  59822 
public computational chemistry database (PCCDB) project, http://pccdb.org 
 
 22 22  0  0  0  0  0  0  0  0999 V2000 
    1.6326   -1.9772   -1.7196 C   0  0  0  0  0  0  0  0  0  0  0  0 
    8.9368   -1.0112   -0.4275 C   0  0  0  0  0  0  0  0  0  0  0  0 
    7.6741   -0.8510    0.0043 C   0  0  0  0  0  0  0  0  0  0  0  0 
    2.9708   -1.4119   -1.3639 C   0  0  0  0  0  0  0  0  0  0  0  0 
    9.5403   -2.3447   -0.6747 C   0  0  0  0  0  0  0  0  0  0  0  0 
    7.0131    0.4532    0.1685 C   0  0  0  0  0  0  0  0  0  0  0  0 
    4.9192   -0.2126   -0.5943 C   0  0  0  0  0  0  0  0  0  0  0  0 
   10.7837   -2.6173   -0.6200 N   0  0  0  0  0  0  0  0  0  0  0  0 
    5.7734    0.7129   -0.0575 N   0  0  0  0  0  0  0  0  0  0  0  0 
    4.0969   -1.9841   -1.6931 N   0  0  0  0  0  0  0  0  0  0  0  0 
    5.2024   -1.3074   -1.2678 N   0  0  0  0  0  0  0  0  0  0  0  0 
    8.6748   -3.3580   -0.9393 O   0  0  0  0  0  0  0  0  0  0  0  0 
    7.7687    1.4967    0.5761 O   0  0  0  0  0  0  0  0  0  0  0  0 
    3.1842    0.0799   -0.4669 S   0  0  0  0  0  0  0  0  0  0  0  0 
    1.7875   -2.9076   -2.2712 H   0  0  0  0  0  0  0  0  0  0  0  0 
    1.0586   -1.2857   -2.3468 H   0  0  0  0  0  0  0  0  0  0  0  0 
    1.0362   -2.1897   -0.8251 H   0  0  0  0  0  0  0  0  0  0  0  0 
    9.5706   -0.1538   -0.6499 H   0  0  0  0  0  0  0  0  0  0  0  0 
    7.0419   -1.7136    0.1795 H   0  0  0  0  0  0  0  0  0  0  0  0 
   11.3162   -1.7823   -0.3682 H   0  0  0  0  0  0  0  0  0  0  0  0 
    7.8311   -2.9959   -1.2599 H   0  0  0  0  0  0  0  0  0  0  0  0 
    8.6208    1.1612    0.8994 H   0  0  0  0  0  0  0  0  0  0  0  0 
  1  4  1  0  0  0  0 
  1 17  1  0  0  0  0 
  2  3  2  0  0  0  0 
  3  6  1  0  0  0  0 
  3 19  1  0  0  0  0 
  4 14  1  0  0  0  0 
  5  8  2  0  0  0  0 
  5  2  1  0  0  0  0 
  6 13  1  0  0  0  0 
  7 14  1  0  0  0  0 
  7  9  1  0  0  0  0 
  8 20  1  0  0  0  0 
  9  6  2  0  0  0  0 
 10  4  2  0  0  0  0 
 10 11  1  0  0  0  0 
 11  7  2  0  0  0  0 
 12  5  1  0  0  0  0 
 13 22  1  0  0  0  0 
 15  1  1  0  0  0  0 
 16  1  1  0  0  0  0 
 18  2  1  0  0  0  0 
 21 12  1  0  0  0  0 
M  END 
>  <HBA> 
7 
 
>  <HBD> 
2 
 
>  <TPSA> 
126.21 
 
>  <cid> 
59822 
 
>  <dipole> 
3.3 
 
>  <excitation_energy_1> 
3.531 
 
>  <excitation_energy_2> 
3.915 
 
>  <excitation_energy_3> 
4.188 
 
>  <excitation_energy_4> 
4.536 
 
>  <homo_energy> 
-6.757 
 
>  <homo_lumo_gap> 
4.21 
 
>  <logP> 
0.6 
 
>  <lumo_energy> 
-2.547 
 
>  <melting_point> 
177.78 
 
>  <molecular_refractivity> 
51.24 
 
>  <oscillator_strength_1> 
0.0829 
 
>  <oscillator_strength_2> 
0.283 
 
>  <oscillator_strength_3> 
0.0089 
 
>  <oscillator_strength_4> 
0.0998 
 
>  <open_babel_can_smiles> 
Cc1nnc(s1)/N=C(\C=C\C(=N)O)/O 
 
>  <mulliken_charges> 
22 
1   -0.515175 
2   -0.203325 
3   -0.161807 
4   0.122155 
5   0.480442 
6   0.477592 
7   0.267125 
8   -0.569799 
9   -0.469437 
10   -0.256482 
11   -0.322997 
12   -0.579235 
13   -0.557956 
14   0.239508 
15   0.197387 
16   0.181227 
17   0.180307 
18   0.161638 
19   0.196841 
20   0.286649 
21   0.427313 
22   0.418029 
 
>  <lowdin_charges> 
22 
1   -0.441876 
2   -0.184737 
3   -0.179582 
4   -0.092 
5   0.122884 
6   0.166471 
7   -0.051442 
8   -0.368393 
9   -0.170302 
10   -0.122915 
11   -0.162432 
12   -0.355454 
13   -0.325884 
14   0.280699 
15   0.184068 
16   0.174846 
17   0.173555 
18   0.169173 
19   0.191614 
20   0.25815 
21   0.36901 
22   0.364549 
 
$$$$ 
 
