PCCDB-ID:  26496 
public computational chemistry database (PCCDB) project, http://pccdb.org 
 
 29 28  0  0  0  0  0  0  0  0999 V2000 
    2.1887   -1.2898    2.3637 C   0  0  0  0  0  0  0  0  0  0  0  0 
    0.8310    0.8360    2.5254 C   0  0  0  0  0  0  0  0  0  0  0  0 
    5.6970    1.3209    1.6597 C   0  0  0  0  0  0  0  0  0  0  0  0 
    6.8468    0.7762    0.8148 C   0  0  0  0  0  0  0  0  0  0  0  0 
    3.3226    0.9903    2.1914 C   0  0  0  0  0  0  0  0  0  0  0  0 
    2.0595    0.1666    1.8926 C   0  0  0  0  0  0  0  0  0  0  0  0 
    7.2854    0.1656   -1.5140 C   0  0  0  0  0  0  0  0  0  0  0  0 
    8.4984   -0.1256   -1.2045 N   0  0  0  0  0  0  0  0  0  0  0  0 
    6.6536   -0.0295   -2.7571 N   0  0  0  0  0  0  0  0  0  0  0  0 
    4.5061    0.4821    1.4964 N   0  0  0  0  0  0  0  0  0  0  0  0 
    6.4249    0.7108   -0.5763 N   0  0  0  0  0  0  0  0  0  0  0  0 
    1.2666   -1.8477    2.1634 H   0  0  0  0  0  0  0  0  0  0  0  0 
    2.3768   -1.3397    3.4448 H   0  0  0  0  0  0  0  0  0  0  0  0 
    3.0014   -1.8173    1.8511 H   0  0  0  0  0  0  0  0  0  0  0  0 
   -0.0844    0.2813    2.2897 H   0  0  0  0  0  0  0  0  0  0  0  0 
    0.7026    1.8633    2.1639 H   0  0  0  0  0  0  0  0  0  0  0  0 
    0.9214    0.8755    3.6188 H   0  0  0  0  0  0  0  0  0  0  0  0 
    5.4415    2.3317    1.3175 H   0  0  0  0  0  0  0  0  0  0  0  0 
    6.0280    1.4083    2.7109 H   0  0  0  0  0  0  0  0  0  0  0  0 
    7.1637   -0.2121    1.1867 H   0  0  0  0  0  0  0  0  0  0  0  0 
    7.7221    1.4277    0.8960 H   0  0  0  0  0  0  0  0  0  0  0  0 
    3.4686    1.0465    3.2892 H   0  0  0  0  0  0  0  0  0  0  0  0 
    3.1632    2.0215    1.8496 H   0  0  0  0  0  0  0  0  0  0  0  0 
    1.9314    0.1621    0.8011 H   0  0  0  0  0  0  0  0  0  0  0  0 
    9.0206   -0.4253   -2.0301 H   0  0  0  0  0  0  0  0  0  0  0  0 
    7.3040   -0.2064   -3.5134 H   0  0  0  0  0  0  0  0  0  0  0  0 
    6.0043    0.7113   -3.0025 H   0  0  0  0  0  0  0  0  0  0  0  0 
    4.7238   -0.4496    1.8486 H   0  0  0  0  0  0  0  0  0  0  0  0 
    5.4553    0.4172   -0.6568 H   0  0  0  0  0  0  0  0  0  0  0  0 
  1 13  1  0  0  0  0 
  2 17  1  0  0  0  0 
  3 19  1  0  0  0  0 
  4 21  1  0  0  0  0 
  4 20  1  0  0  0  0 
  4  3  1  0  0  0  0 
  5 22  1  0  0  0  0 
  6  5  1  0  0  0  0 
  6  1  1  0  0  0  0 
  6  2  1  0  0  0  0 
  7  8  1  0  0  0  0 
  7 11  1  0  0  0  0 
  9  7  2  0  0  0  0 
 10  3  1  0  0  0  0 
 10 28  1  0  0  0  0 
 10  5  1  0  0  0  0 
 11  4  1  0  0  0  0 
 12  1  1  0  0  0  0 
 14  1  1  0  0  0  0 
 15  2  1  0  0  0  0 
 16  2  1  0  0  0  0 
 18  3  1  0  0  0  0 
 23  5  1  0  0  0  0 
 24  6  1  0  0  0  0 
 25  8  1  0  0  0  0 
 26  9  1  0  0  0  0 
 27  9  1  0  0  0  0 
 29 11  1  0  0  0  0 
M  RAD  1   8   2 
M  END 
>  <HBA> 
4 
 
>  <HBD> 
3 
 
>  <TPSA> 
76.43 
 
>  <cid> 
26496 
 
>  <dipole> 
2.41 
 
>  <excitation_energy_1> 
5.189 
 
>  <excitation_energy_2> 
5.591 
 
>  <excitation_energy_3> 
5.774 
 
>  <excitation_energy_4> 
5.883 
 
>  <homo_energy> 
-5.753 
 
>  <homo_lumo_gap> 
7.527 
 
>  <logP> 
1.297 
 
>  <lumo_energy> 
1.774 
 
>  <melting_point> 
126.31 
 
>  <molecular_refractivity> 
47.66 
 
>  <oscillator_strength_1> 
0.0031 
 
>  <oscillator_strength_2> 
0.0025 
 
>  <oscillator_strength_3> 
0.0247 
 
>  <oscillator_strength_4> 
0.0049 
 
>  <open_babel_can_smiles> 
CC(CNCCNC(=[NH2])[NH])C 
 
>  <mulliken_charges> 
29 
1   -0.456099 
2   -0.446314 
3   -0.14159 
4   -0.105723 
5   -0.104673 
6   -0.070041 
7   0.583606 
8   -0.651459 
9   -0.755096 
10   -0.579234 
11   -0.604473 
12   0.146632 
13   0.139107 
14   0.144608 
15   0.143807 
16   0.14168 
17   0.140573 
18   0.147507 
19   0.120877 
20   0.14075 
21   0.164443 
22   0.107775 
23   0.13581 
24   0.132689 
25   0.259217 
26   0.314935 
27   0.319315 
28   0.301165 
29   0.330204 
 
>  <lowdin_charges> 
29 
1   -0.449431 
2   -0.441481 
3   -0.206558 
4   -0.192284 
5   -0.198724 
6   -0.123107 
7   0.121471 
8   -0.486416 
9   -0.516444 
10   -0.367175 
11   -0.311565 
12   0.152561 
13   0.143546 
14   0.149202 
15   0.150695 
16   0.147391 
17   0.144215 
18   0.144797 
19   0.124618 
20   0.136683 
21   0.161632 
22   0.113585 
23   0.14136 
24   0.139796 
25   0.24362 
26   0.273627 
27   0.276601 
28   0.252575 
29   0.275212 
 
$$$$ 
 
