PCCDB-ID:  20238 
public computational chemistry database (PCCDB) project, http://pccdb.org 
 
 18 17  0  0  0  0  0  0  0  0999 V2000 
    2.8931   -1.2736    1.9375 C   0  0  0  0  0  0  0  0  0  0  0  0 
    2.7485   -0.5903    0.5771 C   0  0  0  0  0  0  0  0  0  0  0  0 
    1.7896    1.7168    0.8672 C   0  0  0  0  0  0  0  0  0  0  0  0 
    0.6328    1.2047    0.9252 N   0  0  0  0  0  0  0  0  0  0  0  0 
    2.1902    3.0621    0.9986 N   0  0  0  0  0  0  0  0  0  0  0  0 
    4.1293    1.4623    0.5910 N   0  0  0  0  0  0  0  0  0  0  0  0 
    2.9120    0.8705    0.6668 N   0  0  0  0  0  0  0  0  0  0  0  0 
    1.3427    4.1554    1.0049 N   0  0  0  0  0  0  0  0  0  0  0  0 
    5.0717    0.7018    0.4556 O   0  0  0  0  0  0  0  0  0  0  0  0 
    1.9106    5.2370    0.9346 O   0  0  0  0  0  0  0  0  0  0  0  0 
    0.1340    3.9621    1.0986 O   0  0  0  0  0  0  0  0  0  0  0  0 
    2.7824   -2.3561    1.8139 H   0  0  0  0  0  0  0  0  0  0  0  0 
    2.1200   -0.9271    2.6295 H   0  0  0  0  0  0  0  0  0  0  0  0 
    3.8778   -1.0780    2.3717 H   0  0  0  0  0  0  0  0  0  0  0  0 
    1.7619   -0.7627    0.1489 H   0  0  0  0  0  0  0  0  0  0  0  0 
    3.5192   -0.9309   -0.1172 H   0  0  0  0  0  0  0  0  0  0  0  0 
   -0.0769    1.9197    1.0759 H   0  0  0  0  0  0  0  0  0  0  0  0 
    3.1598    3.3182    0.8432 H   0  0  0  0  0  0  0  0  0  0  0  0 
  1 14  1  0  0  0  0 
  1 13  1  0  0  0  0 
  2  7  1  0  0  0  0 
  2  1  1  0  0  0  0 
  3  4  2  0  0  0  0 
  3  5  1  0  0  0  0 
  4 17  1  0  0  0  0 
  5  8  1  0  0  0  0 
  6  7  1  0  0  0  0 
  7  3  1  0  0  0  0 
  8 11  2  0  0  0  0 
  9  6  2  0  0  0  0 
 10  8  2  0  0  0  0 
 12  1  1  0  0  0  0 
 15  2  1  0  0  0  0 
 16  2  1  0  0  0  0 
 18  5  1  0  0  0  0 
M  END 
>  <HBA> 
5 
 
>  <HBD> 
1 
 
>  <TPSA> 
116.87 
 
>  <cid> 
20238 
 
>  <dipole> 
2.26 
 
>  <excitation_energy_1> 
3.098 
 
>  <excitation_energy_2> 
4.125 
 
>  <excitation_energy_3> 
4.535 
 
>  <excitation_energy_4> 
4.744 
 
>  <homo_energy> 
-7.217 
 
>  <homo_lumo_gap> 
4.795 
 
>  <logP> 
0.72 
 
>  <lumo_energy> 
-2.422 
 
>  <melting_point> 
99.99 
 
>  <molecular_refractivity> 
38.67 
 
>  <oscillator_strength_1> 
0.0008 
 
>  <oscillator_strength_2> 
0.0007 
 
>  <oscillator_strength_3> 
0.001 
 
>  <oscillator_strength_4> 
0.011 
 
>  <open_babel_can_smiles> 
CCN(C(=N)NN(=O)=O)N=O 
 
>  <mulliken_charges> 
18 
1   -0.453159 
2   -0.150688 
3   0.750695 
4   -0.624889 
5   -0.527809 
6   0.171911 
7   -0.321892 
8   0.664889 
9   -0.35086 
10   -0.386723 
11   -0.408059 
12   0.162821 
13   0.172835 
14   0.170977 
15   0.20589 
16   0.186991 
17   0.346479 
18   0.390592 
 
>  <lowdin_charges> 
18 
1   -0.445213 
2   -0.206026 
3   0.136185 
4   -0.390928 
5   -0.221095 
6   0.054056 
7   -0.021856 
8   0.346862 
9   -0.217035 
10   -0.237121 
11   -0.245892 
12   0.162256 
13   0.164528 
14   0.161873 
15   0.18394 
16   0.173346 
17   0.286347 
18   0.315774 
 
$$$$ 
 
