PCCDB-ID:  65253 
public computational chemistry database (PCCDB) project, http://pccdb.org 
 
 28 29  0  0  1  0  0  0  0  0999 V2000 
    1.3810    0.4020   -0.6756 C   0  0  0  0  0  0  0  0  0  0  0  0 
    4.2319   -3.0669   -1.8868 C   0  0  0  0  0  0  0  0  0  0  0  0 
    2.5823   -0.0645    0.1466 C   0  0  1  0  0  0  0  0  0  0  0  0 
    3.9026   -1.6155   -1.5324 C   0  0  0  0  0  0  0  0  0  0  0  0 
    5.0306   -0.7791   -3.3642 C   0  0  0  0  0  0  0  0  0  0  0  0 
    3.0672   -1.4479   -0.3325 C   0  0  0  0  0  0  0  0  0  0  0  0 
    5.4900   -2.0405   -3.7569 C   0  0  0  0  0  0  0  0  0  0  0  0 
    5.4711    0.3491   -4.1415 C   0  0  0  0  0  0  0  0  0  0  0  0 
    6.6515   -0.9512   -5.6437 C   0  0  0  0  0  0  0  0  0  0  0  0 
    7.3656   -1.0747   -6.6994 N   0  0  0  0  0  0  0  0  0  0  0  0 
    5.1683   -3.1237   -3.0257 N   0  0  0  0  0  0  0  0  0  0  0  0 
    4.2726   -0.5999   -2.2507 N   0  0  0  0  0  0  0  0  0  0  0  0 
    6.2742   -2.1163   -4.8532 N   0  0  0  0  0  0  0  0  0  0  0  0 
    6.2161    0.2735   -5.2031 N   0  0  0  0  0  0  0  0  0  0  0  0 
    3.5549    0.9732    0.0897 O   0  0  0  0  0  0  0  0  0  0  0  0 
    2.7126   -2.4547    0.2821 O   0  0  0  0  0  0  0  0  0  0  0  0 
    5.0792    1.5588   -3.7216 O   0  0  0  0  0  0  0  0  0  0  0  0 
    0.5798   -0.3431   -0.6422 H   0  0  0  0  0  0  0  0  0  0  0  0 
    1.6715    0.5707   -1.7164 H   0  0  0  0  0  0  0  0  0  0  0  0 
    1.0040    1.3428   -0.2626 H   0  0  0  0  0  0  0  0  0  0  0  0 
    3.3084   -3.6127   -2.1273 H   0  0  0  0  0  0  0  0  0  0  0  0 
    4.6738   -3.5741   -1.0217 H   0  0  0  0  0  0  0  0  0  0  0  0 
    2.2589   -0.2385    1.1839 H   0  0  0  0  0  0  0  0  0  0  0  0 
    7.6034   -2.0516   -6.8871 H   0  0  0  0  0  0  0  0  0  0  0  0 
    5.4966   -4.0348   -3.3158 H   0  0  0  0  0  0  0  0  0  0  0  0 
    6.6283   -3.0148   -5.1599 H   0  0  0  0  0  0  0  0  0  0  0  0 
    4.3114    0.7106    0.6367 H   0  0  0  0  0  0  0  0  0  0  0  0 
    4.5602    1.4213   -2.9010 H   0  0  0  0  0  0  0  0  0  0  0  0 
  1 18  1  0  0  0  0 
  1 20  1  0  0  0  0 
  1  3  1  0  0  0  0 
  2  4  1  0  0  0  0 
  2 22  1  0  0  0  0 
  3 23  1  1  0  0  0 
  4  6  1  0  0  0  0 
  5 12  1  0  0  0  0 
  6  3  1  0  0  0  0 
  6 16  2  0  0  0  0 
  7  5  2  0  0  0  0 
  7 11  1  0  0  0  0 
  8 17  1  0  0  0  0 
  8  5  1  0  0  0  0 
  9 14  2  0  0  0  0 
  9 13  1  0  0  0  0 
 10  9  1  0  0  0  0 
 11  2  1  0  0  0  0 
 12  4  2  0  0  0  0 
 13  7  1  0  0  0  0 
 14  8  2  0  0  0  0 
 15  3  1  0  0  0  0 
 15 27  1  0  0  0  0 
 17 28  1  0  0  0  0 
 19  1  1  0  0  0  0 
 21  2  1  0  0  0  0 
 24 10  1  0  0  0  0 
 25 11  1  0  0  0  0 
 26 13  1  0  0  0  0 
M  RAD  1  10   2 
M  END 
>  <HBA> 
7 
 
>  <HBD> 
4 
 
>  <TPSA> 
133.46 
 
>  <cid> 
65253 
 
>  <dipole> 
7.58 
 
>  <excitation_energy_1> 
2.977 
 
>  <excitation_energy_2> 
3.079 
 
>  <excitation_energy_3> 
3.973 
 
>  <excitation_energy_4> 
4.011 
 
>  <homo_energy> 
-5.63 
 
>  <homo_lumo_gap> 
3.23 
 
>  <logP> 
-1.045 
 
>  <lumo_energy> 
-2.4 
 
>  <melting_point> 
273.09 
 
>  <molecular_refractivity> 
67.71 
 
>  <oscillator_strength_1> 
0.3347 
 
>  <oscillator_strength_2> 
0.0432 
 
>  <oscillator_strength_3> 
0.0015 
 
>  <oscillator_strength_4> 
0.0002 
 
>  <open_babel_can_smiles> 
C[C@@H](C(=O)C1=NC2=C(NC1)NC(=[N]=C2O)[NH])O 
 
>  <mulliken_charges> 
28 
1   -0.461627 
2   -0.146463 
3   0.077177 
4   0.178054 
5   0.158268 
6   0.382267 
7   0.713219 
8   0.526171 
9   0.612325 
10   -0.605752 
11   -0.698448 
12   -0.540648 
13   -0.748258 
14   -0.509488 
15   -0.614924 
16   -0.483929 
17   -0.595188 
18   0.158333 
19   0.16617 
20   0.168005 
21   0.183987 
22   0.187461 
23   0.142793 
24   0.259236 
25   0.335384 
26   0.324399 
27   0.392927 
28   0.438549 
 
>  <lowdin_charges> 
28 
1   -0.443956 
2   -0.197067 
3   -0.018358 
4   -0.027916 
5   -0.131798 
6   0.119416 
7   0.148873 
8   0.152536 
9   0.131751 
10   -0.405815 
11   -0.24792 
12   -0.0976 
13   -0.241057 
14   -0.196168 
15   -0.453396 
16   -0.262344 
17   -0.325856 
18   0.161115 
19   0.159611 
20   0.164966 
21   0.162361 
22   0.170242 
23   0.143861 
24   0.239428 
25   0.291431 
26   0.287538 
27   0.346359 
28   0.369763 
 
$$$$ 
 
