PCCDB-ID:  64960 
public computational chemistry database (PCCDB) project, http://pccdb.org 
 
 23 23  0  0  1  0  0  0  0  0999 V2000 
    1.2551    0.4551    0.3728 C   0  0  0  0  0  0  0  0  0  0  0  0 
   -0.8168    1.9775   -2.2437 C   0  0  0  0  0  0  0  0  0  0  0  0 
   -0.7466    3.4454   -1.7582 C   0  0  1  0  0  0  0  0  0  0  0  0 
    1.0044    1.1800   -0.9532 C   0  0  2  0  0  0  0  0  0  0  0  0 
    0.3236    3.6095   -0.6552 C   0  0  2  0  0  0  0  0  0  0  0  0 
    1.4959    2.6528   -0.9149 C   0  0  2  0  0  0  0  0  0  0  0  0 
    0.8688   -0.9049    0.3609 O   0  0  0  0  0  0  0  0  0  0  0  0 
   -0.5054    4.3247   -2.8480 O   0  0  0  0  0  0  0  0  0  0  0  0 
   -0.2670    3.3541    0.6157 O   0  0  0  0  0  0  0  0  0  0  0  0 
    2.0486    3.0827   -2.1695 O   0  0  0  0  0  0  0  0  0  0  0  0 
   -0.3741    1.0648   -1.2485 O   0  0  0  0  0  0  0  0  0  0  0  0 
    0.6568    0.9356    1.1505 H   0  0  0  0  0  0  0  0  0  0  0  0 
    2.3225    0.5705    0.6345 H   0  0  0  0  0  0  0  0  0  0  0  0 
   -1.8428    1.6888   -2.4845 H   0  0  0  0  0  0  0  0  0  0  0  0 
   -0.2116    1.8792   -3.1592 H   0  0  0  0  0  0  0  0  0  0  0  0 
   -1.7019    3.7521   -1.3242 H   0  0  0  0  0  0  0  0  0  0  0  0 
    1.5894    0.6639   -1.7471 H   0  0  0  0  0  0  0  0  0  0  0  0 
    0.6875    4.6436   -0.7206 H   0  0  0  0  0  0  0  0  0  0  0  0 
    2.2552    2.7649   -0.1240 H   0  0  0  0  0  0  0  0  0  0  0  0 
    1.3163   -1.3391   -0.3823 H   0  0  0  0  0  0  0  0  0  0  0  0 
    0.3984    4.1248   -3.1498 H   0  0  0  0  0  0  0  0  0  0  0  0 
    0.3016    3.7507    1.2935 H   0  0  0  0  0  0  0  0  0  0  0  0 
    2.7051    2.4307   -2.4597 H   0  0  0  0  0  0  0  0  0  0  0  0 
  1 13  1  0  0  0  0 
  1 12  1  0  0  0  0 
  2  3  1  0  0  0  0 
  2 11  1  0  0  0  0 
  3 16  1  1  0  0  0 
  3  5  1  0  0  0  0 
  4 17  1  6  0  0  0 
  4  6  1  0  0  0  0 
  4  1  1  0  0  0  0 
  5 18  1  6  0  0  0 
  5  9  1  0  0  0  0 
  6  5  1  0  0  0  0 
  6 19  1  1  0  0  0 
  7  1  1  0  0  0  0 
  8  3  1  0  0  0  0 
  9 22  1  0  0  0  0 
 10  6  1  0  0  0  0 
 11  4  1  0  0  0  0 
 14  2  1  0  0  0  0 
 15  2  1  0  0  0  0 
 20  7  1  0  0  0  0 
 21  8  1  0  0  0  0 
 23 10  1  0  0  0  0 
M  END 
>  <HBA> 
5 
 
>  <HBD> 
4 
 
>  <TPSA> 
90.15 
 
>  <cid> 
64960 
 
>  <dipole> 
4.37 
 
>  <excitation_energy_1> 
5.715 
 
>  <excitation_energy_2> 
5.936 
 
>  <excitation_energy_3> 
6.182 
 
>  <excitation_energy_4> 
6.241 
 
>  <homo_energy> 
-6.64 
 
>  <homo_lumo_gap> 
7.753 
 
>  <logP> 
-2.54 
 
>  <lumo_energy> 
1.113 
 
>  <melting_point> 
61.54 
 
>  <molecular_refractivity> 
34.57 
 
>  <oscillator_strength_1> 
0.0262 
 
>  <oscillator_strength_2> 
0.0094 
 
>  <oscillator_strength_3> 
0.0175 
 
>  <oscillator_strength_4> 
0.0125 
 
>  <open_babel_can_smiles> 
OC[C@H]1OC[C@@H]([C@H]([C@@H]1O)O)O 
 
>  <mulliken_charges> 
23 
1   -0.034964 
2   -0.044394 
3   0.11688 
4   0.131662 
5   0.09833 
6   0.060554 
7   -0.602522 
8   -0.642157 
9   -0.617245 
10   -0.647268 
11   -0.46829 
12   0.174221 
13   0.105562 
14   0.157479 
15   0.118501 
16   0.160783 
17   0.082517 
18   0.146403 
19   0.117931 
20   0.385638 
21   0.405876 
22   0.395597 
23   0.398905 
 
>  <lowdin_charges> 
23 
1   -0.145709 
2   -0.14968 
3   -0.022881 
4   -0.031493 
5   -0.028263 
6   -0.038227 
7   -0.452176 
8   -0.45905 
9   -0.450664 
10   -0.467364 
11   -0.250979 
12   0.165 
13   0.118855 
14   0.157326 
15   0.128954 
16   0.159407 
17   0.111685 
18   0.145019 
19   0.133357 
20   0.341063 
21   0.340245 
22   0.348529 
23   0.347046 
 
$$$$ 
 
