PCCDB-ID:  10315 
public computational chemistry database (PCCDB) project, http://pccdb.org 
 
 23 23  0  0  0  0  0  0  0  0999 V2000 
    1.8570   -2.3752   -2.2027 C   0  0  0  0  0  0  0  0  0  0  0  0 
    3.1118   -1.5640   -1.8668 C   0  0  0  0  0  0  0  0  0  0  0  0 
    4.1696    2.6994    3.1852 C   0  0  0  0  0  0  0  0  0  0  0  0 
    3.0216    1.9632    2.8867 C   0  0  0  0  0  0  0  0  0  0  0  0 
    5.3023    2.5856    2.3735 C   0  0  0  0  0  0  0  0  0  0  0  0 
    2.9406   -0.7165   -0.6042 C   0  0  0  0  0  0  0  0  0  0  0  0 
    3.0041    1.1150    1.7795 C   0  0  0  0  0  0  0  0  0  0  0  0 
    5.2849    1.7390    1.2694 C   0  0  0  0  0  0  0  0  0  0  0  0 
    4.1360    0.9940    0.9590 C   0  0  0  0  0  0  0  0  0  0  0  0 
    4.1802    0.0975   -0.2454 C   0  0  0  0  0  0  0  0  0  0  0  0 
    5.1947    0.0232   -0.9233 O   0  0  0  0  0  0  0  0  0  0  0  0 
    2.0047   -2.9715   -3.1100 H   0  0  0  0  0  0  0  0  0  0  0  0 
    0.9909   -1.7230   -2.3719 H   0  0  0  0  0  0  0  0  0  0  0  0 
    1.5965   -3.0656   -1.3907 H   0  0  0  0  0  0  0  0  0  0  0  0 
    3.3731   -0.9076   -2.7049 H   0  0  0  0  0  0  0  0  0  0  0  0 
    3.9705   -2.2322   -1.7348 H   0  0  0  0  0  0  0  0  0  0  0  0 
    4.1822    3.3599    4.0483 H   0  0  0  0  0  0  0  0  0  0  0  0 
    2.1399    2.0489    3.5159 H   0  0  0  0  0  0  0  0  0  0  0  0 
    6.1966    3.1582    2.6039 H   0  0  0  0  0  0  0  0  0  0  0  0 
    2.6843   -1.3555    0.2545 H   0  0  0  0  0  0  0  0  0  0  0  0 
    2.0900   -0.0279   -0.7164 H   0  0  0  0  0  0  0  0  0  0  0  0 
    2.1039    0.5494    1.5603 H   0  0  0  0  0  0  0  0  0  0  0  0 
    6.1523    1.6341    0.6260 H   0  0  0  0  0  0  0  0  0  0  0  0 
  1  2  1  0  0  0  0 
  1 14  1  0  0  0  0 
  2 16  1  0  0  0  0 
  2  6  1  0  0  0  0 
  3 17  1  0  0  0  0 
  4  3  1  0  0  0  0 
  4 18  1  0  0  0  0 
  5 19  1  0  0  0  0 
  5  3  2  0  0  0  0 
  6 10  1  0  0  0  0 
  6 20  1  0  0  0  0 
  7  4  2  0  0  0  0 
  8  5  1  0  0  0  0 
  9  8  2  0  0  0  0 
  9  7  1  0  0  0  0 
 10  9  1  0  0  0  0 
 11 10  2  0  0  0  0 
 12  1  1  0  0  0  0 
 13  1  1  0  0  0  0 
 15  2  1  0  0  0  0 
 21  6  1  0  0  0  0 
 22  7  1  0  0  0  0 
 23  8  1  0  0  0  0 
M  END 
>  <HBA> 
1 
 
>  <HBD> 
0 
 
>  <TPSA> 
17.07 
 
>  <cid> 
10315 
 
>  <dipole> 
2.76 
 
>  <excitation_energy_1> 
3.742 
 
>  <excitation_energy_2> 
4.739 
 
>  <excitation_energy_3> 
5.153 
 
>  <excitation_energy_4> 
5.517 
 
>  <homo_energy> 
-6.691 
 
>  <homo_lumo_gap> 
5.252 
 
>  <logP> 
2.669 
 
>  <lumo_energy> 
-1.439 
 
>  <melting_point> 
36.88 
 
>  <molecular_refractivity> 
46.25 
 
>  <oscillator_strength_1> 
0.0 
 
>  <oscillator_strength_2> 
0.0217 
 
>  <oscillator_strength_3> 
0.2583 
 
>  <oscillator_strength_4> 
0.0001 
 
>  <open_babel_can_smiles> 
CCCC(=O)c1ccccc1 
 
>  <mulliken_charges> 
23 
1   -0.44689 
2   -0.239492 
3   -0.119102 
4   -0.134058 
5   -0.133239 
6   -0.364078 
7   -0.183382 
8   -0.155804 
9   0.080013 
10   0.40484 
11   -0.466175 
12   0.147465 
13   0.139458 
14   0.139545 
15   0.150635 
16   0.151858 
17   0.137127 
18   0.135406 
19   0.137944 
20   0.159502 
21   0.158637 
22   0.136333 
23   0.163458 
 
>  <lowdin_charges> 
23 
1   -0.446636 
2   -0.269026 
3   -0.139628 
4   -0.158492 
5   -0.155642 
6   -0.311744 
7   -0.151195 
8   -0.128562 
9   -0.051011 
10   0.161297 
11   -0.242661 
12   0.152583 
13   0.145598 
14   0.145987 
15   0.15235 
16   0.152727 
17   0.161304 
18   0.160768 
19   0.16183 
20   0.160822 
21   0.159998 
22   0.16221 
23   0.177123 
 
$$$$ 
 
