PCCDB-ID:  20197 
public computational chemistry database (PCCDB) project, http://pccdb.org 
 
 27 27  0  0  0  0  0  0  0  0999 V2000 
    3.9481   -0.3911    0.9697 C   0  0  0  0  0  0  0  0  0  0  0  0 
    2.2322    4.7442   -4.3185 C   0  0  0  0  0  0  0  0  0  0  0  0 
    4.6732    4.8910   -3.6373 C   0  0  0  0  0  0  0  0  0  0  0  0 
    2.6614   -0.1172    0.1702 C   0  0  0  0  0  0  0  0  0  0  0  0 
    3.2581    0.5713   -2.1997 C   0  0  0  0  0  0  0  0  0  0  0  0 
    2.6545    2.2897   -0.6421 C   0  0  0  0  0  0  0  0  0  0  0  0 
    3.4681    1.5396   -3.1823 C   0  0  0  0  0  0  0  0  0  0  0  0 
    2.8643    3.2567   -1.6236 C   0  0  0  0  0  0  0  0  0  0  0  0 
    3.5105    3.9467   -3.9976 C   0  0  0  0  0  0  0  0  0  0  0  0 
    2.8492    0.9277   -0.9096 C   0  0  0  0  0  0  0  0  0  0  0  0 
    3.2763    2.9005   -2.9162 C   0  0  0  0  0  0  0  0  0  0  0  0 
    3.7765   -1.1498    1.7424 H   0  0  0  0  0  0  0  0  0  0  0  0 
    4.3058    0.5205    1.4615 H   0  0  0  0  0  0  0  0  0  0  0  0 
    4.7490   -0.7492    0.3130 H   0  0  0  0  0  0  0  0  0  0  0  0 
    2.4112    5.4479   -5.1404 H   0  0  0  0  0  0  0  0  0  0  0  0 
    1.8966    5.3253   -3.4513 H   0  0  0  0  0  0  0  0  0  0  0  0 
    1.4129    4.0783   -4.6109 H   0  0  0  0  0  0  0  0  0  0  0  0 
    4.8682    5.5960   -4.4545 H   0  0  0  0  0  0  0  0  0  0  0  0 
    5.5937    4.3297   -3.4433 H   0  0  0  0  0  0  0  0  0  0  0  0 
    4.4446    5.4773   -2.7393 H   0  0  0  0  0  0  0  0  0  0  0  0 
    1.8714    0.2057    0.8603 H   0  0  0  0  0  0  0  0  0  0  0  0 
    2.3139   -1.0545   -0.2831 H   0  0  0  0  0  0  0  0  0  0  0  0 
    3.4111   -0.4787   -2.4417 H   0  0  0  0  0  0  0  0  0  0  0  0 
    2.3294    2.5971    0.3502 H   0  0  0  0  0  0  0  0  0  0  0  0 
    3.7820    1.2309   -4.1776 H   0  0  0  0  0  0  0  0  0  0  0  0 
    2.6989    4.3032   -1.3775 H   0  0  0  0  0  0  0  0  0  0  0  0 
    3.7971    3.4068   -4.9107 H   0  0  0  0  0  0  0  0  0  0  0  0 
  1 13  1  0  0  0  0 
  1 12  1  0  0  0  0 
  2  9  1  0  0  0  0 
  2 16  1  0  0  0  0 
  3 19  1  0  0  0  0 
  3 20  1  0  0  0  0 
  4 21  1  0  0  0  0 
  4  1  1  0  0  0  0 
  5 10  2  0  0  0  0 
  6 24  1  0  0  0  0 
  7 11  2  0  0  0  0 
  7  5  1  0  0  0  0 
  8 26  1  0  0  0  0 
  8  6  2  0  0  0  0 
  9  3  1  0  0  0  0 
  9 11  1  0  0  0  0 
 10  6  1  0  0  0  0 
 10  4  1  0  0  0  0 
 11  8  1  0  0  0  0 
 14  1  1  0  0  0  0 
 15  2  1  0  0  0  0 
 17  2  1  0  0  0  0 
 18  3  1  0  0  0  0 
 22  4  1  0  0  0  0 
 23  5  1  0  0  0  0 
 25  7  1  0  0  0  0 
 27  9  1  0  0  0  0 
M  END 
>  <HBA> 
0 
 
>  <HBD> 
0 
 
>  <TPSA> 
0.0 
 
>  <cid> 
20197 
 
>  <dipole> 
0.04 
 
>  <excitation_energy_1> 
5.201 
 
>  <excitation_energy_2> 
5.661 
 
>  <excitation_energy_3> 
5.808 
 
>  <excitation_energy_4> 
6.082 
 
>  <homo_energy> 
-6.166 
 
>  <homo_lumo_gap> 
6.324 
 
>  <logP> 
3.372 
 
>  <lumo_energy> 
0.158 
 
>  <melting_point> 
10.0 
 
>  <molecular_refractivity> 
50.8 
 
>  <oscillator_strength_1> 
0.003 
 
>  <oscillator_strength_2> 
0.0924 
 
>  <oscillator_strength_3> 
0.0376 
 
>  <oscillator_strength_4> 
0.0168 
 
>  <open_babel_can_smiles> 
CCc1ccc(cc1)C(C)C 
 
>  <mulliken_charges> 
27 
1   -0.432525 
2   -0.438749 
3   -0.437559 
4   -0.339779 
5   -0.179757 
6   -0.183672 
7   -0.196926 
8   -0.184943 
9   -0.159112 
10   0.176232 
11   0.186541 
12   0.141789 
13   0.148551 
14   0.148578 
15   0.139843 
16   0.142574 
17   0.149179 
18   0.139689 
19   0.148908 
20   0.142575 
21   0.141276 
22   0.141456 
23   0.118658 
24   0.118752 
25   0.11975 
26   0.121582 
27   0.127085 
 
>  <lowdin_charges> 
27 
1   -0.442509 
2   -0.444041 
3   -0.442818 
4   -0.271848 
5   -0.166015 
6   -0.165527 
7   -0.168396 
8   -0.163662 
9   -0.118231 
10   -0.005174 
11   -0.004605 
12   0.148962 
13   0.150656 
14   0.151143 
15   0.148236 
16   0.147653 
17   0.153323 
18   0.148118 
19   0.152582 
20   0.147478 
21   0.148771 
22   0.148192 
23   0.151185 
24   0.151749 
25   0.151793 
26   0.151497 
27   0.141488 
 
$$$$ 
 
