PCCDB-ID:  61003 
public computational chemistry database (PCCDB) project, http://pccdb.org 
 
 31 31  0  0  0  0  0  0  0  0999 V2000 
    4.6097   -0.9850    0.1189 C   0  0  0  0  0  0  0  0  0  0  0  0 
    4.5175    1.2822   -1.0297 C   0  0  0  0  0  0  0  0  0  0  0  0 
   -2.6607    6.8208    4.1637 C   0  0  0  0  0  0  0  0  0  0  0  0 
   -0.9274    3.3925    2.3914 C   0  0  0  0  0  0  0  0  0  0  0  0 
    1.2115    4.4875    2.5298 C   0  0  0  0  0  0  0  0  0  0  0  0 
    1.0359    2.1660    1.5413 C   0  0  0  0  0  0  0  0  0  0  0  0 
   -1.5488    4.4973    2.9714 C   0  0  0  0  0  0  0  0  0  0  0  0 
    0.6117    5.5913    3.1076 C   0  0  0  0  0  0  0  0  0  0  0  0 
    2.3260    1.9306    1.2208 C   0  0  0  0  0  0  0  0  0  0  0  0 
    4.2174    0.4875    0.2604 C   0  0  0  0  0  0  0  0  0  0  0  0 
    0.4562    3.3540    2.1539 C   0  0  0  0  0  0  0  0  0  0  0  0 
   -0.7770    5.6075    3.3345 C   0  0  0  0  0  0  0  0  0  0  0  0 
    2.7317    0.6432    0.6076 C   0  0  0  0  0  0  0  0  0  0  0  0 
    1.9250   -0.2476    0.3653 O   0  0  0  0  0  0  0  0  0  0  0  0 
   -1.2656    6.7403    3.9068 O   0  0  0  0  0  0  0  0  0  0  0  0 
    5.6695   -1.0778   -0.1442 H   0  0  0  0  0  0  0  0  0  0  0  0 
    4.0117   -1.4680   -0.6594 H   0  0  0  0  0  0  0  0  0  0  0  0 
    4.4369   -1.5333    1.0509 H   0  0  0  0  0  0  0  0  0  0  0  0 
    5.5843    1.2240   -1.2736 H   0  0  0  0  0  0  0  0  0  0  0  0 
    4.2511    2.3407   -0.9324 H   0  0  0  0  0  0  0  0  0  0  0  0 
    3.9527    0.8687   -1.8732 H   0  0  0  0  0  0  0  0  0  0  0  0 
   -2.8243    7.8000    4.6163 H   0  0  0  0  0  0  0  0  0  0  0  0 
   -2.9864    6.0381    4.8610 H   0  0  0  0  0  0  0  0  0  0  0  0 
   -3.2444    6.7456    3.2372 H   0  0  0  0  0  0  0  0  0  0  0  0 
   -1.5338    2.5340    2.1130 H   0  0  0  0  0  0  0  0  0  0  0  0 
    2.2849    4.4994    2.3660 H   0  0  0  0  0  0  0  0  0  0  0  0 
    0.3392    1.3601    1.3105 H   0  0  0  0  0  0  0  0  0  0  0  0 
   -2.6202    4.4823    3.1342 H   0  0  0  0  0  0  0  0  0  0  0  0 
    1.1915    6.4620    3.3970 H   0  0  0  0  0  0  0  0  0  0  0  0 
    3.1061    2.6652    1.4077 H   0  0  0  0  0  0  0  0  0  0  0  0 
    4.7974    0.9443    1.0763 H   0  0  0  0  0  0  0  0  0  0  0  0 
  1 10  1  0  0  0  0 
  1 18  1  0  0  0  0 
  2 20  1  0  0  0  0 
  2 10  1  0  0  0  0 
  3 22  1  0  0  0  0 
  3 23  1  0  0  0  0 
  4  7  1  0  0  0  0 
  5  8  2  0  0  0  0 
  6 11  1  0  0  0  0 
  7 28  1  0  0  0  0 
  7 12  2  0  0  0  0 
  8 12  1  0  0  0  0 
  8 29  1  0  0  0  0 
  9 30  1  0  0  0  0 
  9  6  2  0  0  0  0 
 10 13  1  0  0  0  0 
 10 31  1  0  0  0  0 
 11  4  2  0  0  0  0 
 11  5  1  0  0  0  0 
 12 15  1  0  0  0  0 
 13  9  1  0  0  0  0 
 14 13  2  0  0  0  0 
 15  3  1  0  0  0  0 
 16  1  1  0  0  0  0 
 17  1  1  0  0  0  0 
 19  2  1  0  0  0  0 
 21  2  1  0  0  0  0 
 24  3  1  0  0  0  0 
 25  4  1  0  0  0  0 
 26  5  1  0  0  0  0 
 27  6  1  0  0  0  0 
M  END 
>  <HBA> 
2 
 
>  <HBD> 
0 
 
>  <TPSA> 
26.3 
 
>  <cid> 
61003 
 
>  <dipole> 
3.91 
 
>  <excitation_energy_1> 
3.377 
 
>  <excitation_energy_2> 
3.909 
 
>  <excitation_energy_3> 
4.492 
 
>  <excitation_energy_4> 
5.112 
 
>  <homo_energy> 
-5.812 
 
>  <homo_lumo_gap> 
4.155 
 
>  <logP> 
2.933 
 
>  <lumo_energy> 
-1.657 
 
>  <melting_point> 
51.68 
 
>  <molecular_refractivity> 
62.45 
 
>  <oscillator_strength_1> 
0.0007 
 
>  <oscillator_strength_2> 
0.7929 
 
>  <oscillator_strength_3> 
0.0118 
 
>  <oscillator_strength_4> 
0.0788 
 
>  <open_babel_can_smiles> 
COc1ccc(cc1)/C=C/C(=O)C(C)C 
 
>  <mulliken_charges> 
31 
1   -0.436169 
2   -0.450257 
3   -0.218999 
4   -0.199595 
5   -0.176495 
6   -0.153031 
7   -0.19718 
8   -0.173119 
9   -0.20969 
10   -0.164301 
11   0.173053 
12   0.382341 
13   0.441118 
14   -0.486742 
15   -0.501077 
16   0.132436 
17   0.163658 
18   0.148468 
19   0.150368 
20   0.146959 
21   0.159758 
22   0.174911 
23   0.157113 
24   0.157053 
25   0.142517 
26   0.135878 
27   0.1632 
28   0.137854 
29   0.144486 
30   0.124207 
31   0.13128 
 
>  <lowdin_charges> 
31 
1   -0.440205 
2   -0.437115 
3   -0.277391 
4   -0.137213 
5   -0.13431 
6   -0.097159 
7   -0.211968 
8   -0.178289 
9   -0.228756 
10   -0.15279 
11   -0.0277 
12   0.110349 
13   0.155891 
14   -0.264315 
15   -0.189924 
16   0.144335 
17   0.16138 
18   0.154178 
19   0.151594 
20   0.149087 
21   0.156695 
22   0.165406 
23   0.149293 
24   0.14865 
25   0.164186 
26   0.159712 
27   0.174184 
28   0.163616 
29   0.170273 
30   0.153035 
31   0.145271 
 
$$$$ 
 
