PCCDB-ID:  15514 
public computational chemistry database (PCCDB) project, http://pccdb.org 
 
 25 26  0  0  0  0  0  0  0  0999 V2000 
    1.0021   -0.0684   -0.0249 C   0  0  0  0  0  0  0  0  0  0  0  0 
    7.5082    1.2499   -0.4643 C   0  0  0  0  0  0  0  0  0  0  0  0 
    6.8272    2.4240    0.2474 C   0  0  0  0  0  0  0  0  0  0  0  0 
    6.8700   -0.0764   -0.0317 C   0  0  0  0  0  0  0  0  0  0  0  0 
    5.3478    2.5016   -0.1504 C   0  0  0  0  0  0  0  0  0  0  0  0 
    3.2400   -1.2690   -0.0239 C   0  0  0  0  0  0  0  0  0  0  0  0 
    4.6324   -1.2519   -0.0337 C   0  0  0  0  0  0  0  0  0  0  0  0 
    3.2341    1.1257   -0.0687 C   0  0  0  0  0  0  0  0  0  0  0  0 
    2.5138   -0.0723   -0.0397 C   0  0  0  0  0  0  0  0  0  0  0  0 
    5.3504   -0.0503   -0.0601 C   0  0  0  0  0  0  0  0  0  0  0  0 
    4.6337    1.1607   -0.0824 C   0  0  0  0  0  0  0  0  0  0  0  0 
    0.6015   -1.0866    0.0117 H   0  0  0  0  0  0  0  0  0  0  0  0 
    0.5913    0.4185   -0.9184 H   0  0  0  0  0  0  0  0  0  0  0  0 
    0.6097    0.4748    0.8441 H   0  0  0  0  0  0  0  0  0  0  0  0 
    8.5838    1.2330   -0.2502 H   0  0  0  0  0  0  0  0  0  0  0  0 
    7.4036    1.3761   -1.5514 H   0  0  0  0  0  0  0  0  0  0  0  0 
    7.3272    3.3702    0.0069 H   0  0  0  0  0  0  0  0  0  0  0  0 
    6.9136    2.2877    1.3349 H   0  0  0  0  0  0  0  0  0  0  0  0 
    7.2026   -0.3104    0.9916 H   0  0  0  0  0  0  0  0  0  0  0  0 
    7.2363   -0.8994   -0.6589 H   0  0  0  0  0  0  0  0  0  0  0  0 
    5.2785    2.8877   -1.1793 H   0  0  0  0  0  0  0  0  0  0  0  0 
    4.8205    3.2315    0.4774 H   0  0  0  0  0  0  0  0  0  0  0  0 
    2.7114   -2.2196   -0.0062 H   0  0  0  0  0  0  0  0  0  0  0  0 
    5.1789   -2.1934   -0.0181 H   0  0  0  0  0  0  0  0  0  0  0  0 
    2.6893    2.0696   -0.0810 H   0  0  0  0  0  0  0  0  0  0  0  0 
  1 12  1  0  0  0  0 
  1 14  1  0  0  0  0 
  2 15  1  0  0  0  0 
  2  4  1  0  0  0  0 
  2  3  1  0  0  0  0 
  3 18  1  0  0  0  0 
  4 19  1  0  0  0  0 
  5 11  1  0  0  0  0 
  5  3  1  0  0  0  0 
  5 22  1  0  0  0  0 
  6 23  1  0  0  0  0 
  7  6  1  0  0  0  0 
  7 24  1  0  0  0  0 
  8  9  1  0  0  0  0 
  9  1  1  0  0  0  0 
  9  6  2  0  0  0  0 
 10  7  2  0  0  0  0 
 10  4  1  0  0  0  0 
 11  8  2  0  0  0  0 
 11 10  1  0  0  0  0 
 13  1  1  0  0  0  0 
 16  2  1  0  0  0  0 
 17  3  1  0  0  0  0 
 20  4  1  0  0  0  0 
 21  5  1  0  0  0  0 
 25  8  1  0  0  0  0 
M  END 
>  <HBA> 
0 
 
>  <HBD> 
0 
 
>  <TPSA> 
0.0 
 
>  <cid> 
15514 
 
>  <dipole> 
0.37 
 
>  <excitation_energy_1> 
5.016 
 
>  <excitation_energy_2> 
5.541 
 
>  <excitation_energy_3> 
5.709 
 
>  <excitation_energy_4> 
5.929 
 
>  <homo_energy> 
-6.008 
 
>  <homo_lumo_gap> 
6.139 
 
>  <logP> 
2.874 
 
>  <lumo_energy> 
0.131 
 
>  <melting_point> 
38.08 
 
>  <molecular_refractivity> 
48.84 
 
>  <oscillator_strength_1> 
0.0189 
 
>  <oscillator_strength_2> 
0.0194 
 
>  <oscillator_strength_3> 
0.0062 
 
>  <oscillator_strength_4> 
0.0223 
 
>  <open_babel_can_smiles> 
Cc1ccc2c(c1)CCCC2 
 
>  <mulliken_charges> 
25 
1   -0.530627 
2   -0.264959 
3   -0.265327 
4   -0.339999 
5   -0.339998 
6   -0.185171 
7   -0.186832 
8   -0.245283 
9   0.18481 
10   0.11841 
11   0.126212 
12   0.152248 
13   0.159469 
14   0.159355 
15   0.131579 
16   0.135793 
17   0.131591 
18   0.135975 
19   0.148137 
20   0.142576 
21   0.1487 
22   0.142852 
23   0.115793 
24   0.115805 
25   0.108893 
 
>  <lowdin_charges> 
25 
1   -0.443192 
2   -0.272195 
3   -0.274236 
4   -0.276626 
5   -0.276976 
6   -0.173433 
7   -0.164342 
8   -0.175407 
9   -0.001816 
10   -0.020318 
11   -0.013674 
12   0.15446 
13   0.159316 
14   0.159483 
15   0.142746 
16   0.138899 
17   0.144596 
18   0.138994 
19   0.148814 
20   0.151403 
21   0.149194 
22   0.151997 
23   0.151773 
24   0.151758 
25   0.148782 
 
$$$$ 
 
