PCCDB-ID:  15721 
public computational chemistry database (PCCDB) project, http://pccdb.org 
 
 35 36  0  0  1  0  0  0  0  0999 V2000 
    1.0345   -0.5929    0.5399 C   0  0  0  0  0  0  0  0  0  0  0  0 
   10.0025   -1.3689    3.7442 C   0  0  0  0  0  0  0  0  0  0  0  0 
    2.0941   -0.3276    1.3038 C   0  0  0  0  0  0  0  0  0  0  0  0 
    8.9763   -1.6062    2.6369 C   0  0  0  0  0  0  0  0  0  0  0  0 
    6.3581    0.5377   -0.6548 C   0  0  0  0  0  0  0  0  0  0  0  0 
    6.6554   -0.9676   -0.9194 C   0  0  0  0  0  0  0  0  0  0  0  0 
    3.2108   -1.3053    1.5680 C   0  0  0  0  0  0  0  0  0  0  0  0 
    5.0206    0.3548    1.5135 C   0  0  0  0  0  0  0  0  0  0  0  0 
    5.4773   -2.0025    1.0986 C   0  0  0  0  0  0  0  0  0  0  0  0 
    6.3913    0.6652    0.8873 C   0  0  1  0  0  0  0  0  0  0  0  0 
    6.8290   -1.5721    0.4971 C   0  0  2  0  0  0  0  0  0  0  0  0 
    8.1643   -0.3453    2.3254 C   0  0  0  0  0  0  0  0  0  0  0  0 
    4.5025   -0.9149    0.9891 N   0  0  0  0  0  0  0  0  0  0  0  0 
    7.3103   -0.4155    1.2592 N   0  0  0  0  0  0  0  0  0  0  0  0 
    8.2948    0.6876    2.9780 O   0  0  0  0  0  0  0  0  0  0  0  0 
    0.2365    0.1308    0.3961 H   0  0  0  0  0  0  0  0  0  0  0  0 
    0.9214   -1.5473    0.0293 H   0  0  0  0  0  0  0  0  0  0  0  0 
   10.5487   -2.2925    3.9648 H   0  0  0  0  0  0  0  0  0  0  0  0 
    9.5141   -1.0227    4.6590 H   0  0  0  0  0  0  0  0  0  0  0  0 
   10.7238   -0.6002    3.4518 H   0  0  0  0  0  0  0  0  0  0  0  0 
    2.1561    0.6388    1.8028 H   0  0  0  0  0  0  0  0  0  0  0  0 
    8.2849   -2.4112    2.9242 H   0  0  0  0  0  0  0  0  0  0  0  0 
    9.4729   -1.9513    1.7198 H   0  0  0  0  0  0  0  0  0  0  0  0 
    5.3897    0.8418   -1.0601 H   0  0  0  0  0  0  0  0  0  0  0  0 
    7.1306    1.1728   -1.0994 H   0  0  0  0  0  0  0  0  0  0  0  0 
    7.5805   -1.0907   -1.4917 H   0  0  0  0  0  0  0  0  0  0  0  0 
    5.8476   -1.4606   -1.4665 H   0  0  0  0  0  0  0  0  0  0  0  0 
    2.9398   -2.2765    1.1364 H   0  0  0  0  0  0  0  0  0  0  0  0 
    3.3033   -1.4577    2.6645 H   0  0  0  0  0  0  0  0  0  0  0  0 
    4.3135    1.1514    1.2585 H   0  0  0  0  0  0  0  0  0  0  0  0 
    5.1330    0.3424    2.6152 H   0  0  0  0  0  0  0  0  0  0  0  0 
    5.6430   -2.3168    2.1498 H   0  0  0  0  0  0  0  0  0  0  0  0 
    5.0841   -2.8721    0.5557 H   0  0  0  0  0  0  0  0  0  0  0  0 
    6.7735    1.6157    1.2593 H   0  0  0  0  0  0  0  0  0  0  0  0 
    7.5380   -2.4018    0.5297 H   0  0  0  0  0  0  0  0  0  0  0  0 
  1  3  2  0  0  0  0 
  2 18  1  0  0  0  0 
  2 19  1  0  0  0  0 
  3  7  1  0  0  0  0 
  3 21  1  0  0  0  0 
  4 22  1  0  0  0  0 
  4  2  1  0  0  0  0 
  5 10  1  0  0  0  0 
  6  5  1  0  0  0  0 
  6 11  1  0  0  0  0 
  7 29  1  0  0  0  0 
  8 31  1  0  0  0  0 
  9 32  1  0  0  0  0 
 10 14  1  0  0  0  0 
 10 34  1  1  0  0  0 
 10  8  1  0  0  0  0 
 11 35  1  1  0  0  0 
 11  9  1  0  0  0  0 
 11 14  1  0  0  0  0 
 12  4  1  0  0  0  0 
 12 15  2  0  0  0  0 
 13  9  1  0  0  0  0 
 13  8  1  0  0  0  0 
 13  7  1  0  0  0  0 
 14 12  1  0  0  0  0 
 16  1  1  0  0  0  0 
 17  1  1  0  0  0  0 
 20  2  1  0  0  0  0 
 23  4  1  0  0  0  0 
 24  5  1  0  0  0  0 
 25  5  1  0  0  0  0 
 26  6  1  0  0  0  0 
 27  6  1  0  0  0  0 
 28  7  1  0  0  0  0 
 30  8  1  0  0  0  0 
 33  9  1  0  0  0  0 
M  END 
>  <HBA> 
3 
 
>  <HBD> 
0 
 
>  <TPSA> 
23.55 
 
>  <cid> 
15721 
 
>  <dipole> 
3.42 
 
>  <excitation_energy_1> 
4.996 
 
>  <excitation_energy_2> 
5.321 
 
>  <excitation_energy_3> 
5.548 
 
>  <excitation_energy_4> 
5.584 
 
>  <homo_energy> 
-5.886 
 
>  <homo_lumo_gap> 
6.172 
 
>  <logP> 
1.133 
 
>  <lumo_energy> 
0.286 
 
>  <melting_point> 
20.67 
 
>  <molecular_refractivity> 
68.92 
 
>  <oscillator_strength_1> 
0.0092 
 
>  <oscillator_strength_2> 
0.0049 
 
>  <oscillator_strength_3> 
0.0069 
 
>  <oscillator_strength_4> 
0.0008 
 
>  <open_babel_can_smiles> 
C=CCN1C[C@@H]2CC[C@H](C1)N2C(=O)CC 
 
>  <mulliken_charges> 
35 
1   -0.331663 
2   -0.428441 
3   -0.052871 
4   -0.365356 
5   -0.267962 
6   -0.262805 
7   -0.154462 
8   -0.121983 
9   -0.10329 
10   -0.007461 
11   -0.019196 
12   0.586453 
13   -0.40853 
14   -0.420895 
15   -0.524765 
16   0.143297 
17   0.139162 
18   0.13235 
19   0.164241 
20   0.159956 
21   0.13609 
22   0.155266 
23   0.155406 
24   0.152019 
25   0.144786 
26   0.14126 
27   0.150185 
28   0.140607 
29   0.121001 
30   0.146698 
31   0.13154 
32   0.115166 
33   0.140352 
34   0.170785 
35   0.143062 
 
>  <lowdin_charges> 
35 
1   -0.326706 
2   -0.438712 
3   -0.151423 
4   -0.308153 
5   -0.28407 
6   -0.284113 
7   -0.190239 
8   -0.208691 
9   -0.208238 
10   -0.063819 
11   -0.068289 
12   0.154991 
13   -0.192168 
14   -0.109264 
15   -0.320049 
16   0.160844 
17   0.15546 
18   0.146274 
19   0.161267 
20   0.159367 
21   0.153097 
22   0.155853 
23   0.15567 
24   0.155465 
25   0.151616 
26   0.148624 
27   0.155694 
28   0.148069 
29   0.122223 
30   0.150728 
31   0.127541 
32   0.11886 
33   0.146796 
34   0.170246 
35   0.155248 
 
$$$$ 
 
