PCCDB-ID:  34922 
public computational chemistry database (PCCDB) project, http://pccdb.org 
 
 29 31  0  0  1  0  0  0  0  0999 V2000 
    2.4289    0.8750   -0.2439 C   0  0  0  0  0  0  0  0  0  0  0  0 
    2.5069   -0.5317   -0.1219 C   0  0  0  0  0  0  0  0  0  0  0  0 
   -2.4146    0.6673    0.1403 C   0  0  0  0  0  0  0  0  0  0  0  0 
    1.2033    1.4969   -0.2024 C   0  0  0  0  0  0  0  0  0  0  0  0 
   -1.2557    1.3915   -0.0060 C   0  0  0  0  0  0  0  0  0  0  0  0 
    1.3700   -1.2915    0.0445 C   0  0  0  0  0  0  0  0  0  0  0  0 
   -2.3529   -0.7374    0.2577 C   0  0  0  0  0  0  0  0  0  0  0  0 
    0.0086    0.7461   -0.0364 C   0  0  0  0  0  0  0  0  0  0  0  0 
    0.0860   -0.6823    0.0973 C   0  0  0  0  0  0  0  0  0  0  0  0 
   -1.1427   -1.4152    0.2436 C   0  0  0  0  0  0  0  0  0  0  0  0 
   -1.1738   -2.8958    0.3915 C   0  0  1  0  0  0  0  0  0  0  0  0 
   -0.4517   -4.9154    1.2821 C   0  0  0  0  0  0  0  0  0  0  0  0 
   -2.3592   -4.9292   -0.2939 C   0  0  0  0  0  0  0  0  0  0  0  0 
    0.3133   -5.6414    2.0036 N   0  0  0  0  0  0  0  0  0  0  0  0 
   -3.2276   -5.6029   -0.9459 N   0  0  0  0  0  0  0  0  0  0  0  0 
   -0.3485   -3.5214    1.1664 N   0  0  0  0  0  0  0  0  0  0  0  0 
   -2.1692   -3.5371   -0.3265 N   0  0  0  0  0  0  0  0  0  0  0  0 
   -1.4737   -5.5437    0.5604 N   0  0  0  0  0  0  0  0  0  0  0  0 
    3.3359    1.4593   -0.3710 H   0  0  0  0  0  0  0  0  0  0  0  0 
    3.4766   -1.0206   -0.1567 H   0  0  0  0  0  0  0  0  0  0  0  0 
   -3.3784    1.1665    0.1745 H   0  0  0  0  0  0  0  0  0  0  0  0 
    1.1272    2.5771   -0.3002 H   0  0  0  0  0  0  0  0  0  0  0  0 
   -1.2902    2.4743   -0.0991 H   0  0  0  0  0  0  0  0  0  0  0  0 
    1.4466   -2.3646    0.1589 H   0  0  0  0  0  0  0  0  0  0  0  0 
   -3.2758   -1.2918    0.4057 H   0  0  0  0  0  0  0  0  0  0  0  0 
    0.9900   -5.0328    2.4669 H   0  0  0  0  0  0  0  0  0  0  0  0 
   -3.8156   -5.0034   -1.5251 H   0  0  0  0  0  0  0  0  0  0  0  0 
   -2.6940   -3.0083   -1.0083 H   0  0  0  0  0  0  0  0  0  0  0  0 
   -1.5461   -6.5498    0.6417 H   0  0  0  0  0  0  0  0  0  0  0  0 
  1  4  2  0  0  0  0 
  1  2  1  0  0  0  0 
  2  6  2  0  0  0  0 
  3 21  1  0  0  0  0 
  3  7  2  0  0  0  0 
  4  8  1  0  0  0  0 
  5  3  1  0  0  0  0 
  6  9  1  0  0  0  0 
  6 24  1  0  0  0  0 
  7 25  1  0  0  0  0 
  8  5  2  0  0  0  0 
  8  9  1  0  0  0  0 
  9 10  2  0  0  0  0 
 10  7  1  0  0  0  0 
 11 10  1  1  0  0  0 
 11 16  1  0  0  0  0 
 12 14  1  0  0  0  0 
 13 18  1  0  0  0  0 
 14 26  1  0  0  0  0 
 15 13  2  0  0  0  0 
 16 12  2  0  0  0  0 
 17 13  1  0  0  0  0 
 17 11  1  0  0  0  0 
 18 29  1  0  0  0  0 
 18 12  1  0  0  0  0 
 19  1  1  0  0  0  0 
 20  2  1  0  0  0  0 
 22  4  1  0  0  0  0 
 23  5  1  0  0  0  0 
 27 15  1  0  0  0  0 
 28 17  1  0  0  0  0 
M  RAD  2  11   2  14   2 
M  END 
>  <HBA> 
5 
 
>  <HBD> 
2 
 
>  <TPSA> 
90.71 
 
>  <cid> 
34922 
 
>  <dipole> 
6.08 
 
>  <excitation_energy_1> 
3.799 
 
>  <excitation_energy_2> 
3.972 
 
>  <excitation_energy_3> 
4.256 
 
>  <excitation_energy_4> 
4.28 
 
>  <homo_energy> 
-6.174 
 
>  <homo_lumo_gap> 
4.297 
 
>  <logP> 
3.019 
 
>  <lumo_energy> 
-1.878 
 
>  <melting_point> 
232.76 
 
>  <molecular_refractivity> 
71.58 
 
>  <oscillator_strength_1> 
0.1817 
 
>  <oscillator_strength_2> 
0.0033 
 
>  <oscillator_strength_3> 
0.0198 
 
>  <oscillator_strength_4> 
0.0088 
 
>  <open_babel_can_smiles> 
N=C1NC(=N[C](N1)c1cccc2c1cccc2)[NH] 
 
>  <mulliken_charges> 
29 
1   -0.127217 
2   -0.137795 
3   -0.138646 
4   -0.19451 
5   -0.175471 
6   -0.174248 
7   -0.196804 
8   0.122542 
9   0.097909 
10   0.031809 
11   0.464236 
12   0.609765 
13   0.694979 
14   -0.64983 
15   -0.648277 
16   -0.512807 
17   -0.693358 
18   -0.646152 
19   0.137275 
20   0.139114 
21   0.141206 
22   0.135195 
23   0.140424 
24   0.165923 
25   0.144083 
26   0.295559 
27   0.276021 
28   0.340277 
29   0.358796 
 
>  <lowdin_charges> 
29 
1   -0.151773 
2   -0.150089 
3   -0.160758 
4   -0.153362 
5   -0.136081 
6   -0.149836 
7   -0.162953 
8   0.002187 
9   0.008683 
10   -0.02252 
11   0.127157 
12   0.116487 
13   0.139698 
14   -0.426536 
15   -0.456354 
16   -0.218952 
17   -0.252658 
18   -0.231232 
19   0.162695 
20   0.162869 
21   0.164324 
22   0.15815 
23   0.161104 
24   0.176295 
25   0.162904 
26   0.264735 
27   0.256302 
28   0.299237 
29   0.310276 
 
$$$$ 
 
