PCCDB-ID:  9994 
public computational chemistry database (PCCDB) project, http://pccdb.org 
 
 13 13  0  0  0  0  0  0  0  0999 V2000 
    3.1941    1.0402    0.0773 C   0  0  0  0  0  0  0  0  0  0  0  0 
    4.0892   -2.5751   -0.4046 C   0  0  0  0  0  0  0  0  0  0  0  0 
    3.2569   -2.1273    0.7609 C   0  0  0  0  0  0  0  0  0  0  0  0 
    3.7313   -0.1356   -0.7164 C   0  0  0  0  0  0  0  0  0  0  0  0 
    4.1612   -1.2122    0.0741 N   0  0  0  0  0  0  0  0  0  0  0  0 
    3.8787   -0.1176   -1.9243 O   0  0  0  0  0  0  0  0  0  0  0  0 
    4.0375    1.6220    0.4682 H   0  0  0  0  0  0  0  0  0  0  0  0 
    2.5922    0.7201    0.9333 H   0  0  0  0  0  0  0  0  0  0  0  0 
    2.6049    1.6821   -0.5802 H   0  0  0  0  0  0  0  0  0  0  0  0 
    3.5928   -2.7325   -1.3601 H   0  0  0  0  0  0  0  0  0  0  0  0 
    4.9745   -3.1835   -0.2348 H   0  0  0  0  0  0  0  0  0  0  0  0 
    3.5352   -2.4015    1.7765 H   0  0  0  0  0  0  0  0  0  0  0  0 
    2.1869   -2.0065    0.5949 H   0  0  0  0  0  0  0  0  0  0  0  0 
  1  7  1  0  0  0  0 
  1  8  1  0  0  0  0 
  2 11  1  0  0  0  0 
  2  5  1  0  0  0  0 
  2  3  1  0  0  0  0 
  3 12  1  0  0  0  0 
  4  5  1  0  0  0  0 
  4  1  1  0  0  0  0 
  5  3  1  0  0  0  0 
  6  4  2  0  0  0  0 
  9  1  1  0  0  0  0 
 10  2  1  0  0  0  0 
 13  3  1  0  0  0  0 
M  END 
>  <HBA> 
2 
 
>  <HBD> 
0 
 
>  <TPSA> 
20.08 
 
>  <cid> 
9994 
 
>  <dipole> 
3.05 
 
>  <excitation_energy_1> 
5.038 
 
>  <excitation_energy_2> 
6.278 
 
>  <excitation_energy_3> 
6.507 
 
>  <excitation_energy_4> 
6.8 
 
>  <homo_energy> 
-6.7 
 
>  <homo_lumo_gap> 
6.784 
 
>  <logP> 
-0.214 
 
>  <lumo_energy> 
0.084 
 
>  <melting_point> 
7.45 
 
>  <molecular_refractivity> 
26.24 
 
>  <oscillator_strength_1> 
0.0061 
 
>  <oscillator_strength_2> 
0.0473 
 
>  <oscillator_strength_3> 
0.0647 
 
>  <oscillator_strength_4> 
0.0487 
 
>  <open_babel_can_smiles> 
CC(=O)N1CC1 
 
>  <mulliken_charges> 
13 
1   -0.517637 
2   -0.186681 
3   -0.201748 
4   0.52587 
5   -0.366814 
6   -0.457334 
7   0.187109 
8   0.158771 
9   0.179856 
10   0.178963 
11   0.167263 
12   0.167087 
13   0.165295 
 
>  <lowdin_charges> 
13 
1   -0.470538 
2   -0.220354 
3   -0.222526 
4   0.164358 
5   -0.159278 
6   -0.261856 
7   0.181849 
8   0.163775 
9   0.175332 
10   0.166417 
11   0.16528 
12   0.161605 
13   0.155936 
 
$$$$ 
 
