PCCDB-ID:  21895 
public computational chemistry database (PCCDB) project, http://pccdb.org 
 
 28 29  0  0  1  0  0  0  0  0999 V2000 
   -2.2038    0.3946   -0.8512 C   0  0  0  0  0  0  0  0  0  0  0  0 
   -1.7635   -0.0473    0.3979 C   0  0  0  0  0  0  0  0  0  0  0  0 
   -1.3021    0.4624   -1.9150 C   0  0  0  0  0  0  0  0  0  0  0  0 
   -0.4301   -0.4168    0.5810 C   0  0  0  0  0  0  0  0  0  0  0  0 
    0.0300    0.0908   -1.7280 C   0  0  0  0  0  0  0  0  0  0  0  0 
    1.9210   -0.7819   -0.2846 C   0  0  0  0  0  0  0  0  0  0  0  0 
    0.2341   -3.9976   -2.9938 C   0  0  0  0  0  0  0  0  0  0  0  0 
    0.4885   -3.8887   -0.4178 C   0  0  0  0  0  0  0  0  0  0  0  0 
    0.4853   -0.3508   -0.4785 C   0  0  0  0  0  0  0  0  0  0  0  0 
    1.1616   -3.9169   -1.7909 C   0  0  2  0  0  0  0  0  0  0  0  0 
    2.1540   -2.2825   -0.5047 C   0  0  1  0  0  0  0  0  0  0  0  0 
    0.9530   -3.9145   -4.2121 O   0  0  0  0  0  0  0  0  0  0  0  0 
    1.3634   -3.0812    0.3690 O   0  0  0  0  0  0  0  0  0  0  0  0 
    1.8117   -2.6389   -1.8317 O   0  0  0  0  0  0  0  0  0  0  0  0 
   -3.2408    0.6868   -0.9939 H   0  0  0  0  0  0  0  0  0  0  0  0 
   -2.4573   -0.1001    1.2329 H   0  0  0  0  0  0  0  0  0  0  0  0 
   -1.6344    0.8085   -2.8904 H   0  0  0  0  0  0  0  0  0  0  0  0 
   -0.0928   -0.7649    1.5536 H   0  0  0  0  0  0  0  0  0  0  0  0 
    0.7277    0.1431   -2.5601 H   0  0  0  0  0  0  0  0  0  0  0  0 
    2.2591   -0.5522    0.7329 H   0  0  0  0  0  0  0  0  0  0  0  0 
    2.5849   -0.2439   -0.9723 H   0  0  0  0  0  0  0  0  0  0  0  0 
   -0.5202   -3.1992   -2.9116 H   0  0  0  0  0  0  0  0  0  0  0  0 
   -0.2855   -4.9620   -3.0022 H   0  0  0  0  0  0  0  0  0  0  0  0 
    0.4134   -4.8763    0.0471 H   0  0  0  0  0  0  0  0  0  0  0  0 
   -0.5108   -3.4346   -0.4694 H   0  0  0  0  0  0  0  0  0  0  0  0 
    1.9162   -4.7159   -1.8486 H   0  0  0  0  0  0  0  0  0  0  0  0 
    3.2111   -2.5261   -0.3104 H   0  0  0  0  0  0  0  0  0  0  0  0 
    1.4679   -3.0924   -4.1638 H   0  0  0  0  0  0  0  0  0  0  0  0 
  1  2  2  0  0  0  0 
  2  4  1  0  0  0  0 
  2 16  1  0  0  0  0 
  3  5  2  0  0  0  0 
  3  1  1  0  0  0  0 
  4 18  1  0  0  0  0 
  5  9  1  0  0  0  0 
  6 20  1  0  0  0  0 
  7 22  1  0  0  0  0 
  7 10  1  0  0  0  0 
  8 24  1  0  0  0  0 
  8 13  1  0  0  0  0 
  9  6  1  0  0  0  0 
  9  4  2  0  0  0  0 
 10 26  1  6  0  0  0 
 10  8  1  0  0  0  0 
 11 27  1  1  0  0  0 
 11  6  1  0  0  0  0 
 11 13  1  0  0  0  0 
 12 28  1  0  0  0  0 
 12  7  1  0  0  0  0 
 14 10  1  0  0  0  0 
 14 11  1  0  0  0  0 
 15  1  1  0  0  0  0 
 17  3  1  0  0  0  0 
 19  5  1  0  0  0  0 
 21  6  1  0  0  0  0 
 23  7  1  0  0  0  0 
 25  8  1  0  0  0  0 
M  END 
>  <HBA> 
3 
 
>  <HBD> 
1 
 
>  <TPSA> 
38.69 
 
>  <cid> 
21895 
 
>  <dipole> 
1.02 
 
>  <excitation_energy_1> 
5.295 
 
>  <excitation_energy_2> 
5.759 
 
>  <excitation_energy_3> 
6.037 
 
>  <excitation_energy_4> 
6.073 
 
>  <homo_energy> 
-6.514 
 
>  <homo_lumo_gap> 
6.495 
 
>  <logP> 
0.963 
 
>  <lumo_energy> 
-0.019 
 
>  <melting_point> 
27.79 
 
>  <molecular_refractivity> 
51.85 
 
>  <oscillator_strength_1> 
0.0 
 
>  <oscillator_strength_2> 
0.08 
 
>  <oscillator_strength_3> 
0.0046 
 
>  <oscillator_strength_4> 
0.0126 
 
>  <open_babel_can_smiles> 
OC[C@@H]1CO[C@@H](O1)Cc1ccccc1 
 
>  <mulliken_charges> 
28 
1   -0.130842 
2   -0.132639 
3   -0.132494 
4   -0.173011 
5   -0.172909 
6   -0.379944 
7   -0.042209 
8   -0.040168 
9   0.166105 
10   0.098062 
11   0.392748 
12   -0.618972 
13   -0.505128 
14   -0.528087 
15   0.128233 
16   0.128635 
17   0.128909 
18   0.133576 
19   0.124774 
20   0.156041 
21   0.152314 
22   0.138428 
23   0.146014 
24   0.148834 
25   0.147631 
26   0.140072 
27   0.123175 
28   0.402853 
 
>  <lowdin_charges> 
28 
1   -0.158622 
2   -0.160358 
3   -0.15891 
4   -0.161575 
5   -0.16474 
6   -0.291997 
7   -0.142274 
8   -0.140713 
9   -0.002043 
10   -0.027446 
11   0.114477 
12   -0.462013 
13   -0.27278 
14   -0.278144 
15   0.1557 
16   0.157853 
17   0.156908 
18   0.159773 
19   0.156493 
20   0.160946 
21   0.161172 
22   0.138601 
23   0.151085 
24   0.15175 
25   0.142714 
26   0.140217 
27   0.126331 
28   0.347597 
 
$$$$ 
 
