PCCDB-ID:  48161 
public computational chemistry database (PCCDB) project, http://pccdb.org 
 
 26 26  0  0  1  0  0  0  0  0999 V2000 
    0.6958    0.3702   -1.4585 C   0  0  0  0  0  0  0  0  0  0  0  0 
    2.5970    1.4403    0.8003 C   0  0  0  0  0  0  0  0  0  0  0  0 
    5.4547    1.3457    0.3224 C   0  0  0  0  0  0  0  0  0  0  0  0 
    2.1947    0.4412   -1.4840 C   0  0  0  0  0  0  0  0  0  0  0  0 
    3.0456    0.8910   -0.5371 C   0  0  0  0  0  0  0  0  0  0  0  0 
    4.9147    1.7048   -2.0816 C   0  0  0  0  0  0  0  0  0  0  0  0 
    5.0383   -0.5741   -1.2024 C   0  0  0  0  0  0  0  0  0  0  0  0 
    6.6301    0.2709   -2.6379 C   0  0  0  0  0  0  0  0  0  0  0  0 
    4.5617    0.8471   -0.8539 C   0  0  1  0  0  0  0  0  0  0  0  0 
    5.8733    1.4495   -2.8779 N   0  0  0  0  0  0  0  0  0  0  0  0 
    5.9966   -0.8295   -1.9994 N   0  0  0  0  0  0  0  0  0  0  0  0 
    4.2087    2.8369   -2.2699 O   0  0  0  0  0  0  0  0  0  0  0  0 
    4.4515   -1.5994   -0.5551 O   0  0  0  0  0  0  0  0  0  0  0  0 
    7.7742    0.1851   -3.0207 O   0  0  0  0  0  0  0  0  0  0  0  0 
    0.3632   -0.6651   -1.6088 H   0  0  0  0  0  0  0  0  0  0  0  0 
    0.2753    0.9510   -2.2898 H   0  0  0  0  0  0  0  0  0  0  0  0 
    0.2511    0.7369   -0.5310 H   0  0  0  0  0  0  0  0  0  0  0  0 
    1.5109    1.4199    0.9023 H   0  0  0  0  0  0  0  0  0  0  0  0 
    2.9216    2.4781    0.9446 H   0  0  0  0  0  0  0  0  0  0  0  0 
    3.0165    0.8696    1.6375 H   0  0  0  0  0  0  0  0  0  0  0  0 
    5.2260    2.3847    0.5754 H   0  0  0  0  0  0  0  0  0  0  0  0 
    6.5076    1.2914    0.0364 H   0  0  0  0  0  0  0  0  0  0  0  0 
    5.3131    0.7244    1.2113 H   0  0  0  0  0  0  0  0  0  0  0  0 
    2.6365    0.0703   -2.4116 H   0  0  0  0  0  0  0  0  0  0  0  0 
    3.3951    2.7859   -1.7383 H   0  0  0  0  0  0  0  0  0  0  0  0 
    3.6264   -1.2769   -0.1519 H   0  0  0  0  0  0  0  0  0  0  0  0 
  1 17  1  0  0  0  0 
  2 18  1  0  0  0  0 
  2 19  1  0  0  0  0 
  2 20  1  0  0  0  0 
  3 21  1  0  0  0  0 
  3 23  1  0  0  0  0 
  4  1  1  0  0  0  0 
  4  5  2  0  0  0  0 
  5  2  1  0  0  0  0 
  6  9  1  0  0  0  0 
  7  9  1  0  0  0  0 
  7 13  1  0  0  0  0 
  8 11  1  0  0  0  0 
  9  5  1  1  0  0  0 
  9  3  1  0  0  0  0 
 10  8  2  0  0  0  0 
 10  6  2  0  0  0  0 
 11  7  2  0  0  0  0 
 12  6  1  0  0  0  0 
 12 25  1  0  0  0  0 
 13 26  1  0  0  0  0 
 14  8  2  0  0  0  0 
 15  1  1  0  0  0  0 
 16  1  1  0  0  0  0 
 22  3  1  0  0  0  0 
 24  4  1  0  0  0  0 
M  END 
>  <HBA> 
5 
 
>  <HBD> 
2 
 
>  <TPSA> 
75.27 
 
>  <cid> 
48161 
 
>  <dipole> 
10.51 
 
>  <excitation_energy_1> 
3.953 
 
>  <excitation_energy_2> 
4.282 
 
>  <excitation_energy_3> 
5.138 
 
>  <excitation_energy_4> 
5.392 
 
>  <homo_energy> 
-6.738 
 
>  <homo_lumo_gap> 
5.295 
 
>  <logP> 
0.983 
 
>  <lumo_energy> 
-1.442 
 
>  <melting_point> 
154.78 
 
>  <molecular_refractivity> 
56.95 
 
>  <oscillator_strength_1> 
0.0009 
 
>  <oscillator_strength_2> 
0.0014 
 
>  <oscillator_strength_3> 
0.0456 
 
>  <oscillator_strength_4> 
0.0147 
 
>  <open_babel_can_smiles> 
C/C=C(/[C@@]1(C)C(=N[C](=[N]=C1O)=O)O)\C 
 
>  <mulliken_charges> 
26 
1   -0.501186 
2   -0.523085 
3   -0.451871 
4   -0.125716 
5   -0.005117 
6   0.521016 
7   0.518513 
8   0.601888 
9   -0.126969 
10   -0.450652 
11   -0.451569 
12   -0.572584 
13   -0.571946 
14   -0.42964 
15   0.178987 
16   0.179264 
17   0.165837 
18   0.170775 
19   0.16944 
20   0.170828 
21   0.1677 
22   0.198589 
23   0.167348 
24   0.167405 
25   0.416909 
26   0.415838 
 
>  <lowdin_charges> 
26 
1   -0.444465 
2   -0.447379 
3   -0.42771 
4   -0.155918 
5   -0.067219 
6   0.142294 
7   0.140575 
8   0.170087 
9   -0.055256 
10   -0.182786 
11   -0.18384 
12   -0.33161 
13   -0.330171 
14   -0.212719 
15   0.170974 
16   0.172982 
17   0.160452 
18   0.164217 
19   0.16247 
20   0.165545 
21   0.16137 
22   0.17853 
23   0.162452 
24   0.16813 
25   0.359829 
26   0.359165 
 
$$$$ 
 
