PCCDB-ID:  31155 
public computational chemistry database (PCCDB) project, http://pccdb.org 
 
 19 19  0  0  0  0  0  0  0  0999 V2000 
    0.8919   -0.0671   -0.1266 C   0  0  0  0  0  0  0  0  0  0  0  0 
    4.4787   -1.3753   -0.0642 C   0  0  0  0  0  0  0  0  0  0  0  0 
    5.2217   -0.1965   -0.0569 C   0  0  0  0  0  0  0  0  0  0  0  0 
    3.0849   -1.3159   -0.0863 C   0  0  0  0  0  0  0  0  0  0  0  0 
    4.5586    1.0305   -0.0718 C   0  0  0  0  0  0  0  0  0  0  0  0 
    2.4851    2.4597   -0.0960 C   0  0  0  0  0  0  0  0  0  0  0  0 
    1.8717    2.8025   -1.3882 C   0  0  0  0  0  0  0  0  0  0  0  0 
    2.4028   -0.0936   -0.1013 C   0  0  0  0  0  0  0  0  0  0  0  0 
    3.1625    1.0941   -0.0925 C   0  0  0  0  0  0  0  0  0  0  0  0 
    1.3865    3.0609   -2.4107 N   0  0  0  0  0  0  0  0  0  0  0  0 
    0.4851   -1.0824   -0.1243 H   0  0  0  0  0  0  0  0  0  0  0  0 
    0.5087    0.4455   -1.0170 H   0  0  0  0  0  0  0  0  0  0  0  0 
    0.4782    0.4547    0.7469 H   0  0  0  0  0  0  0  0  0  0  0  0 
    4.9796   -2.3395   -0.0539 H   0  0  0  0  0  0  0  0  0  0  0  0 
    6.3073   -0.2279   -0.0379 H   0  0  0  0  0  0  0  0  0  0  0  0 
    2.5082   -2.2377   -0.0932 H   0  0  0  0  0  0  0  0  0  0  0  0 
    5.1334    1.9538   -0.0683 H   0  0  0  0  0  0  0  0  0  0  0  0 
    1.7019    2.5137    0.6714 H   0  0  0  0  0  0  0  0  0  0  0  0 
    3.2153    3.2395    0.1483 H   0  0  0  0  0  0  0  0  0  0  0  0 
  1 11  1  0  0  0  0 
  1  8  1  0  0  0  0 
  1 13  1  0  0  0  0 
  2  3  1  0  0  0  0 
  2 14  1  0  0  0  0 
  3 15  1  0  0  0  0 
  4  2  2  0  0  0  0 
  5 17  1  0  0  0  0 
  5  3  2  0  0  0  0 
  6  9  1  0  0  0  0 
  6 19  1  0  0  0  0 
  6 18  1  0  0  0  0 
  7  6  1  0  0  0  0 
  8  9  2  0  0  0  0 
  8  4  1  0  0  0  0 
  9  5  1  0  0  0  0 
 10  7  3  0  0  0  0 
 12  1  1  0  0  0  0 
 16  4  1  0  0  0  0 
M  END 
>  <HBA> 
1 
 
>  <HBD> 
0 
 
>  <TPSA> 
23.79 
 
>  <cid> 
31155 
 
>  <dipole> 
3.79 
 
>  <excitation_energy_1> 
5.248 
 
>  <excitation_energy_2> 
5.861 
 
>  <excitation_energy_3> 
6.045 
 
>  <excitation_energy_4> 
6.242 
 
>  <homo_energy> 
-6.792 
 
>  <homo_lumo_gap> 
6.381 
 
>  <logP> 
2.061 
 
>  <lumo_energy> 
-0.411 
 
>  <melting_point> 
45.23 
 
>  <molecular_refractivity> 
40.93 
 
>  <oscillator_strength_1> 
0.0038 
 
>  <oscillator_strength_2> 
0.0122 
 
>  <oscillator_strength_3> 
0.0126 
 
>  <oscillator_strength_4> 
0.0269 
 
>  <open_babel_can_smiles> 
N#CCc1ccccc1C 
 
>  <mulliken_charges> 
19 
1   -0.550644 
2   -0.120695 
3   -0.129039 
4   -0.184515 
5   -0.177151 
6   -0.44185 
7   0.3712 
8   0.148563 
9   0.115493 
10   -0.472907 
11   0.161964 
12   0.189097 
13   0.158612 
14   0.134468 
15   0.134683 
16   0.129235 
17   0.130737 
18   0.202025 
19   0.200724 
 
>  <lowdin_charges> 
19 
1   -0.448336 
2   -0.150508 
3   -0.154444 
4   -0.162596 
5   -0.16047 
6   -0.270701 
7   -0.015001 
8   0.002509 
9   -0.01395 
10   -0.129237 
11   0.16119 
12   0.174042 
13   0.158668 
14   0.160523 
15   0.158764 
16   0.158177 
17   0.157725 
18   0.186325 
19   0.18732 
 
$$$$ 
 
