PCCDB-ID:  69857 
public computational chemistry database (PCCDB) project, http://pccdb.org 
 
 25 26  0  0  0  0  0  0  0  0999 V2000 
    2.6209   -0.0086    0.2939 C   0  0  0  0  0  0  0  0  0  0  0  0 
    1.8602    1.2939    0.5897 C   0  0  0  0  0  0  0  0  0  0  0  0 
    1.8664   -1.3116    0.6017 C   0  0  0  0  0  0  0  0  0  0  0  0 
    0.6692    1.6014   -0.3403 C   0  0  0  0  0  0  0  0  0  0  0  0 
    0.6771   -1.6169   -0.3244 C   0  0  0  0  0  0  0  0  0  0  0  0 
   -1.9156    1.2342   -0.1001 C   0  0  0  0  0  0  0  0  0  0  0  0 
   -2.8293    0.0002   -0.0181 C   0  0  0  0  0  0  0  0  0  0  0  0 
   -0.5101    0.6748   -0.2165 C   0  0  0  0  0  0  0  0  0  0  0  0 
   -0.4895   -0.6765   -0.2104 C   0  0  0  0  0  0  0  0  0  0  0  0 
   -1.8731   -1.1970   -0.0891 C   0  0  0  0  0  0  0  0  0  0  0  0 
   -2.2001   -2.3711   -0.0518 O   0  0  0  0  0  0  0  0  0  0  0  0 
    3.5471    0.0008    0.8840 H   0  0  0  0  0  0  0  0  0  0  0  0 
    2.9342   -0.0117   -0.7614 H   0  0  0  0  0  0  0  0  0  0  0  0 
    2.5649    2.1320    0.5092 H   0  0  0  0  0  0  0  0  0  0  0  0 
    1.5093    1.2839    1.6309 H   0  0  0  0  0  0  0  0  0  0  0  0 
    1.5183   -1.2937    1.6439 H   0  0  0  0  0  0  0  0  0  0  0  0 
    2.5754   -2.1467    0.5276 H   0  0  0  0  0  0  0  0  0  0  0  0 
    1.0232    1.5836   -1.3840 H   0  0  0  0  0  0  0  0  0  0  0  0 
    0.3345    2.6308   -0.1585 H   0  0  0  0  0  0  0  0  0  0  0  0 
    0.2994   -2.6259   -0.1223 H   0  0  0  0  0  0  0  0  0  0  0  0 
    1.0340   -1.6315   -1.3665 H   0  0  0  0  0  0  0  0  0  0  0  0 
   -1.9983    1.8819    0.7840 H   0  0  0  0  0  0  0  0  0  0  0  0 
   -2.1458    1.8758   -0.9625 H   0  0  0  0  0  0  0  0  0  0  0  0 
   -3.5489   -0.0595   -0.8420 H   0  0  0  0  0  0  0  0  0  0  0  0 
   -3.4085   -0.0484    0.9103 H   0  0  0  0  0  0  0  0  0  0  0  0 
  1  2  1  0  0  0  0 
  1  3  1  0  0  0  0 
  1 12  1  0  0  0  0 
  2 15  1  0  0  0  0 
  3 16  1  0  0  0  0 
  4  8  1  0  0  0  0 
  4 19  1  0  0  0  0 
  4  2  1  0  0  0  0 
  5  9  1  0  0  0  0 
  5 20  1  0  0  0  0 
  5  3  1  0  0  0  0 
  6  7  1  0  0  0  0 
  6 22  1  0  0  0  0 
  7 25  1  0  0  0  0 
  8  9  2  0  0  0  0 
  8  6  1  0  0  0  0 
  9 10  1  0  0  0  0 
 10 11  2  0  0  0  0 
 10  7  1  0  0  0  0 
 13  1  1  0  0  0  0 
 14  2  1  0  0  0  0 
 17  3  1  0  0  0  0 
 18  4  1  0  0  0  0 
 21  5  1  0  0  0  0 
 23  6  1  0  0  0  0 
 24  7  1  0  0  0  0 
M  END 
>  <HBA> 
1 
 
>  <HBD> 
0 
 
>  <TPSA> 
17.07 
 
>  <cid> 
69857 
 
>  <dipole> 
3.85 
 
>  <excitation_energy_1> 
3.885 
 
>  <excitation_energy_2> 
5.423 
 
>  <excitation_energy_3> 
5.922 
 
>  <excitation_energy_4> 
6.082 
 
>  <homo_energy> 
-6.278 
 
>  <homo_lumo_gap> 
5.347 
 
>  <logP> 
2.61 
 
>  <lumo_energy> 
-0.931 
 
>  <melting_point> 
53.96 
 
>  <molecular_refractivity> 
45.68 
 
>  <oscillator_strength_1> 
0.0003 
 
>  <oscillator_strength_2> 
0.2669 
 
>  <oscillator_strength_3> 
0.0183 
 
>  <oscillator_strength_4> 
0.0038 
 
>  <open_babel_can_smiles> 
O=C1CCC2=C1CCCCC2 
 
>  <mulliken_charges> 
25 
1   -0.257892 
2   -0.252338 
3   -0.252345 
4   -0.338647 
5   -0.348682 
6   -0.348033 
7   -0.364918 
8   0.089616 
9   0.091162 
10   0.384562 
11   -0.481196 
12   0.134664 
13   0.127059 
14   0.135292 
15   0.137012 
16   0.135429 
17   0.134888 
18   0.157337 
19   0.142527 
20   0.169968 
21   0.145239 
22   0.156194 
23   0.156886 
24   0.173147 
25   0.173066 
 
>  <lowdin_charges> 
25 
1   -0.277387 
2   -0.27071 
3   -0.271391 
4   -0.278323 
5   -0.276544 
6   -0.279755 
7   -0.30896 
8   0.016146 
9   -0.070361 
10   0.138852 
11   -0.257832 
12   0.145986 
13   0.135824 
14   0.147155 
15   0.141716 
16   0.140918 
17   0.146794 
18   0.158208 
19   0.150391 
20   0.166508 
21   0.150352 
22   0.155566 
23   0.156027 
24   0.170676 
25   0.170144 
 
$$$$ 
 
