PCCDB-ID:  70555 
public computational chemistry database (PCCDB) project, http://pccdb.org 
 
 31 32  0  0  0  0  0  0  0  0999 V2000 
    1.0349    0.4430    0.9591 C   0  0  0  0  0  0  0  0  0  0  0  0 
    2.5388    0.6389    1.0471 C   0  0  0  0  0  0  0  0  0  0  0  0 
   11.2391   -4.4544    1.3584 C   0  0  0  0  0  0  0  0  0  0  0  0 
   11.6220   -3.3846    2.1712 C   0  0  0  0  0  0  0  0  0  0  0  0 
    9.9674   -4.4401    0.7836 C   0  0  0  0  0  0  0  0  0  0  0  0 
   10.7466   -2.3315    2.4165 C   0  0  0  0  0  0  0  0  0  0  0  0 
    9.0852   -3.3845    1.0092 C   0  0  0  0  0  0  0  0  0  0  0  0 
    6.7355    0.1717    1.5222 C   0  0  0  0  0  0  0  0  0  0  0  0 
    6.3490   -2.1402    2.0717 C   0  0  0  0  0  0  0  0  0  0  0  0 
    5.3625    0.3754    1.3658 C   0  0  0  0  0  0  0  0  0  0  0  0 
    4.9859   -1.9494    1.8909 C   0  0  0  0  0  0  0  0  0  0  0  0 
    9.4617   -2.3139    1.8403 C   0  0  0  0  0  0  0  0  0  0  0  0 
    7.2540   -1.0797    1.8767 C   0  0  0  0  0  0  0  0  0  0  0  0 
    4.4755   -0.6918    1.5387 C   0  0  0  0  0  0  0  0  0  0  0  0 
    8.6363   -1.2163    2.0923 N   0  0  0  0  0  0  0  0  0  0  0  0 
    3.1169   -0.6161    1.3934 O   0  0  0  0  0  0  0  0  0  0  0  0 
    0.5457    1.3879    0.6988 H   0  0  0  0  0  0  0  0  0  0  0  0 
    0.6354    0.0963    1.9173 H   0  0  0  0  0  0  0  0  0  0  0  0 
    0.7875   -0.2995    0.1939 H   0  0  0  0  0  0  0  0  0  0  0  0 
    2.7916    1.3915    1.8087 H   0  0  0  0  0  0  0  0  0  0  0  0 
    2.9449    0.9865    0.0856 H   0  0  0  0  0  0  0  0  0  0  0  0 
   11.9194   -5.2809    1.1758 H   0  0  0  0  0  0  0  0  0  0  0  0 
   12.6083   -3.3718    2.6283 H   0  0  0  0  0  0  0  0  0  0  0  0 
    9.6548   -5.2561    0.1366 H   0  0  0  0  0  0  0  0  0  0  0  0 
   11.0491   -1.5115    3.0649 H   0  0  0  0  0  0  0  0  0  0  0  0 
    8.1150   -3.3779    0.5253 H   0  0  0  0  0  0  0  0  0  0  0  0 
    7.4164    1.0049    1.3626 H   0  0  0  0  0  0  0  0  0  0  0  0 
    6.7161   -3.1119    2.3839 H   0  0  0  0  0  0  0  0  0  0  0  0 
    5.0057    1.3629    1.0965 H   0  0  0  0  0  0  0  0  0  0  0  0 
    4.2880   -2.7675    2.0407 H   0  0  0  0  0  0  0  0  0  0  0  0 
    9.1142   -0.3765    2.3861 H   0  0  0  0  0  0  0  0  0  0  0  0 
  1  2  1  0  0  0  0 
  1 18  1  0  0  0  0 
  2 16  1  0  0  0  0 
  2 20  1  0  0  0  0 
  3  4  2  0  0  0  0 
  4  6  1  0  0  0  0 
  4 23  1  0  0  0  0 
  5  7  2  0  0  0  0 
  5  3  1  0  0  0  0 
  6 25  1  0  0  0  0 
  7 12  1  0  0  0  0 
  8 13  1  0  0  0  0 
  9 28  1  0  0  0  0 
 10  8  2  0  0  0  0 
 10 14  1  0  0  0  0 
 11 30  1  0  0  0  0 
 11  9  1  0  0  0  0 
 12 15  1  0  0  0  0 
 12  6  2  0  0  0  0 
 13  9  2  0  0  0  0 
 13 15  1  0  0  0  0 
 14 11  2  0  0  0  0 
 15 31  1  0  0  0  0 
 16 14  1  0  0  0  0 
 17  1  1  0  0  0  0 
 19  1  1  0  0  0  0 
 21  2  1  0  0  0  0 
 22  3  1  0  0  0  0 
 24  5  1  0  0  0  0 
 26  7  1  0  0  0  0 
 27  8  1  0  0  0  0 
 29 10  1  0  0  0  0 
M  END 
>  <HBA> 
1 
 
>  <HBD> 
1 
 
>  <TPSA> 
21.26 
 
>  <cid> 
70555 
 
>  <dipole> 
2.21 
 
>  <excitation_energy_1> 
3.994 
 
>  <excitation_energy_2> 
4.128 
 
>  <excitation_energy_3> 
4.189 
 
>  <excitation_energy_4> 
4.431 
 
>  <homo_energy> 
-4.808 
 
>  <homo_lumo_gap> 
4.795 
 
>  <logP> 
3.902 
 
>  <lumo_energy> 
-0.014 
 
>  <melting_point> 
82.88 
 
>  <molecular_refractivity> 
67.28 
 
>  <oscillator_strength_1> 
0.0312 
 
>  <oscillator_strength_2> 
0.2886 
 
>  <oscillator_strength_3> 
0.0322 
 
>  <oscillator_strength_4> 
0.2254 
 
>  <open_babel_can_smiles> 
CCOc1ccc(cc1)Nc1ccccc1 
 
>  <mulliken_charges> 
31 
1   -0.456413 
2   -0.026679 
3   -0.137027 
4   -0.132265 
5   -0.14007 
6   -0.194398 
7   -0.180778 
8   -0.198415 
9   -0.171538 
10   -0.199246 
11   -0.188597 
12   0.368548 
13   0.357208 
14   0.379082 
15   -0.796986 
16   -0.521851 
17   0.147103 
18   0.163201 
19   0.163209 
20   0.137433 
21   0.138091 
22   0.121306 
23   0.125303 
24   0.126329 
25   0.115615 
26   0.141203 
27   0.121825 
28   0.147518 
29   0.132316 
30   0.137973 
31   0.321001 
 
>  <lowdin_charges> 
31 
1   -0.448214 
2   -0.124546 
3   -0.18761 
4   -0.14612 
5   -0.146763 
6   -0.199708 
7   -0.20095 
8   -0.183797 
9   -0.175653 
10   -0.205136 
11   -0.175699 
12   0.060751 
13   0.03976 
14   0.090063 
15   -0.259335 
16   -0.207817 
17   0.156516 
18   0.159775 
19   0.160519 
20   0.136992 
21   0.13624 
22   0.155819 
23   0.15542 
24   0.156927 
25   0.151535 
26   0.164483 
27   0.155209 
28   0.167856 
29   0.162147 
30   0.167663 
31   0.283674 
 
$$$$ 
 
