PCCDB-ID:  69522 
public computational chemistry database (PCCDB) project, http://pccdb.org 
 
 28 27  0  0  1  0  0  0  0  0999 V2000 
    5.5087    3.0496    1.2744 C   0  0  0  0  0  0  0  0  0  0  0  0 
    4.9925    2.5706    2.6366 C   0  0  0  0  0  0  0  0  0  0  0  0 
    5.5268    1.1956    3.0727 C   0  0  0  0  0  0  0  0  0  0  0  0 
    5.0629    0.0263    2.1905 C   0  0  0  0  0  0  0  0  0  0  0  0 
    5.4618   -1.3670    2.7061 C   0  0  0  0  0  0  0  0  0  0  0  0 
    6.9721   -1.6376    2.8015 C   0  0  0  0  0  0  0  0  0  0  0  0 
    7.7076   -1.6186    1.4391 C   0  0  1  0  0  0  0  0  0  0  0  0 
    9.2198   -1.7963    1.6713 C   0  0  0  0  0  0  0  0  0  0  0  0 
    7.1526   -2.6286    0.5478 N   0  0  0  0  0  0  0  0  0  0  0  0 
    9.8247   -2.8044    1.4012 O   0  0  0  0  0  0  0  0  0  0  0  0 
    9.8677   -0.7422    2.2397 O   0  0  0  0  0  0  0  0  0  0  0  0 
    5.1333    4.0525    1.0425 H   0  0  0  0  0  0  0  0  0  0  0  0 
    5.1942    2.3865    0.4608 H   0  0  0  0  0  0  0  0  0  0  0  0 
    6.6055    3.0959    1.2613 H   0  0  0  0  0  0  0  0  0  0  0  0 
    3.8939    2.5385    2.6193 H   0  0  0  0  0  0  0  0  0  0  0  0 
    5.2636    3.3115    3.4005 H   0  0  0  0  0  0  0  0  0  0  0  0 
    5.2089    1.0037    4.1077 H   0  0  0  0  0  0  0  0  0  0  0  0 
    6.6268    1.2389    3.0999 H   0  0  0  0  0  0  0  0  0  0  0  0 
    5.4288    0.1573    1.1638 H   0  0  0  0  0  0  0  0  0  0  0  0 
    3.9665    0.0589    2.1177 H   0  0  0  0  0  0  0  0  0  0  0  0 
    5.0203   -2.1265    2.0527 H   0  0  0  0  0  0  0  0  0  0  0  0 
    5.0296   -1.5136    3.7059 H   0  0  0  0  0  0  0  0  0  0  0  0 
    7.1313   -2.6268    3.2524 H   0  0  0  0  0  0  0  0  0  0  0  0 
    7.4468   -0.9201    3.4836 H   0  0  0  0  0  0  0  0  0  0  0  0 
    7.5563   -0.6369    0.9673 H   0  0  0  0  0  0  0  0  0  0  0  0 
    7.4696   -3.5424    0.8747 H   0  0  0  0  0  0  0  0  0  0  0  0 
    7.5707   -2.5267   -0.3762 H   0  0  0  0  0  0  0  0  0  0  0  0 
    9.2455   -0.0086    2.3795 H   0  0  0  0  0  0  0  0  0  0  0  0 
  1  2  1  0  0  0  0 
  2  3  1  0  0  0  0 
  2 16  1  0  0  0  0 
  3 18  1  0  0  0  0 
  3 17  1  0  0  0  0 
  4  5  1  0  0  0  0 
  4  3  1  0  0  0  0 
  5  6  1  0  0  0  0 
  5 22  1  0  0  0  0 
  6 23  1  0  0  0  0 
  6 24  1  0  0  0  0 
  7 25  1  6  0  0  0 
  7  8  1  0  0  0  0 
  7  6  1  0  0  0  0 
  8 11  1  0  0  0  0 
  9 26  1  0  0  0  0 
  9  7  1  0  0  0  0 
 10  8  2  0  0  0  0 
 11 28  1  0  0  0  0 
 12  1  1  0  0  0  0 
 13  1  1  0  0  0  0 
 14  1  1  0  0  0  0 
 15  2  1  0  0  0  0 
 19  4  1  0  0  0  0 
 20  4  1  0  0  0  0 
 21  5  1  0  0  0  0 
 27  9  1  0  0  0  0 
M  END 
>  <HBA> 
3 
 
>  <HBD> 
2 
 
>  <TPSA> 
63.32 
 
>  <cid> 
69522 
 
>  <dipole> 
3.35 
 
>  <excitation_energy_1> 
5.57 
 
>  <excitation_energy_2> 
5.796 
 
>  <excitation_energy_3> 
6.051 
 
>  <excitation_energy_4> 
6.318 
 
>  <homo_energy> 
-6.781 
 
>  <homo_lumo_gap> 
6.993 
 
>  <logP> 
2.069 
 
>  <lumo_energy> 
0.212 
 
>  <melting_point> 
103.52 
 
>  <molecular_refractivity> 
45.05 
 
>  <oscillator_strength_1> 
0.0021 
 
>  <oscillator_strength_2> 
0.0011 
 
>  <oscillator_strength_3> 
0.0016 
 
>  <oscillator_strength_4> 
0.0173 
 
>  <open_babel_can_smiles> 
CCCCCC[C@@H](C(=O)O)N 
 
>  <mulliken_charges> 
28 
1   -0.444452 
2   -0.2489 
3   -0.247375 
4   -0.267138 
5   -0.251429 
6   -0.267267 
7   -0.109388 
8   0.581328 
9   -0.691432 
10   -0.445698 
11   -0.565935 
12   0.14716 
13   0.148951 
14   0.133589 
15   0.134442 
16   0.132806 
17   0.132377 
18   0.105578 
19   0.140721 
20   0.134746 
21   0.164147 
22   0.129801 
23   0.149155 
24   0.129892 
25   0.144125 
26   0.311681 
27   0.306795 
28   0.411718 
 
>  <lowdin_charges> 
28 
1   -0.445686 
2   -0.271173 
3   -0.273682 
4   -0.27792 
5   -0.276994 
6   -0.282256 
7   -0.114665 
8   0.175122 
9   -0.529387 
10   -0.244884 
11   -0.356907 
12   0.151816 
13   0.149169 
14   0.140131 
15   0.138917 
16   0.143584 
17   0.140983 
18   0.12261 
19   0.140109 
20   0.14327 
21   0.161206 
22   0.141991 
23   0.152902 
24   0.140752 
25   0.147097 
26   0.263603 
27   0.261991 
28   0.358298 
 
$$$$ 
 
