PCCDB-ID:  69810 
public computational chemistry database (PCCDB) project, http://pccdb.org 
 
 27 26  0  0  0  0  0  0  0  0999 V2000 
    3.6649    0.9333   -0.8251 C   0  0  0  0  0  0  0  0  0  0  0  0 
    9.8165    0.3954    2.3427 C   0  0  0  0  0  0  0  0  0  0  0  0 
    9.1236   -1.4512    3.9076 C   0  0  0  0  0  0  0  0  0  0  0  0 
    5.1794    0.7661   -0.6652 C   0  0  0  0  0  0  0  0  0  0  0  0 
    5.5817    0.1572    0.6840 C   0  0  0  0  0  0  0  0  0  0  0  0 
    7.0983   -0.0147    0.8483 C   0  0  0  0  0  0  0  0  0  0  0  0 
    7.4721   -0.6185    2.2098 C   0  0  0  0  0  0  0  0  0  0  0  0 
    8.9716   -0.8785    2.4900 C   0  0  0  0  0  0  0  0  0  0  0  0 
    9.5344   -2.1668    1.2455 S   0  0  0  0  0  0  0  0  0  0  0  0 
    3.4111    1.3713   -1.7972 H   0  0  0  0  0  0  0  0  0  0  0  0 
    3.2534    1.5882   -0.0470 H   0  0  0  0  0  0  0  0  0  0  0  0 
    3.1492   -0.0321   -0.7502 H   0  0  0  0  0  0  0  0  0  0  0  0 
    9.4493    1.1718    3.0280 H   0  0  0  0  0  0  0  0  0  0  0  0 
    9.7860    0.7909    1.3245 H   0  0  0  0  0  0  0  0  0  0  0  0 
   10.8649    0.1996    2.5950 H   0  0  0  0  0  0  0  0  0  0  0  0 
    8.7784   -0.7172    4.6484 H   0  0  0  0  0  0  0  0  0  0  0  0 
   10.1704   -1.6838    4.1338 H   0  0  0  0  0  0  0  0  0  0  0  0 
    8.5370   -2.3667    4.0305 H   0  0  0  0  0  0  0  0  0  0  0  0 
    5.6696    1.7431   -0.7826 H   0  0  0  0  0  0  0  0  0  0  0  0 
    5.5657    0.1335   -1.4768 H   0  0  0  0  0  0  0  0  0  0  0  0 
    5.0895   -0.8198    0.8012 H   0  0  0  0  0  0  0  0  0  0  0  0 
    5.1949    0.7906    1.4967 H   0  0  0  0  0  0  0  0  0  0  0  0 
    7.5826    0.9630    0.7242 H   0  0  0  0  0  0  0  0  0  0  0  0 
    7.4802   -0.6501    0.0385 H   0  0  0  0  0  0  0  0  0  0  0  0 
    6.9303   -1.5649    2.3428 H   0  0  0  0  0  0  0  0  0  0  0  0 
    7.1131    0.0518    3.0052 H   0  0  0  0  0  0  0  0  0  0  0  0 
   10.7828   -2.3143    1.7407 H   0  0  0  0  0  0  0  0  0  0  0  0 
  1 12  1  0  0  0  0 
  1  4  1  0  0  0  0 
  1 11  1  0  0  0  0 
  2  8  1  0  0  0  0 
  2 15  1  0  0  0  0 
  2 13  1  0  0  0  0 
  3 18  1  0  0  0  0 
  3 17  1  0  0  0  0 
  3 16  1  0  0  0  0 
  4  5  1  0  0  0  0 
  5 21  1  0  0  0  0 
  5  6  1  0  0  0  0 
  5 22  1  0  0  0  0 
  6  7  1  0  0  0  0 
  7 25  1  0  0  0  0 
  7  8  1  0  0  0  0 
  7 26  1  0  0  0  0 
  8  3  1  0  0  0  0 
  9 27  1  0  0  0  0 
  9  8  1  0  0  0  0 
 10  1  1  0  0  0  0 
 14  2  1  0  0  0  0 
 19  4  1  0  0  0  0 
 20  4  1  0  0  0  0 
 23  6  1  0  0  0  0 
 24  6  1  0  0  0  0 
M  END 
>  <HBA> 
1 
 
>  <HBD> 
1 
 
>  <TPSA> 
38.8 
 
>  <cid> 
69810 
 
>  <dipole> 
1.71 
 
>  <excitation_energy_1> 
5.192 
 
>  <excitation_energy_2> 
5.643 
 
>  <excitation_energy_3> 
6.264 
 
>  <excitation_energy_4> 
6.319 
 
>  <homo_energy> 
-6.245 
 
>  <homo_lumo_gap> 
6.972 
 
>  <logP> 
3.275 
 
>  <lumo_energy> 
0.727 
 
>  <melting_point> 
3.39 
 
>  <molecular_refractivity> 
48.54 
 
>  <oscillator_strength_1> 
0.0088 
 
>  <oscillator_strength_2> 
0.0265 
 
>  <oscillator_strength_3> 
0.0006 
 
>  <oscillator_strength_4> 
0.0008 
 
>  <open_babel_can_smiles> 
CCCCCC(S)(C)C 
 
>  <mulliken_charges> 
27 
1   -0.441617 
2   -0.431991 
3   -0.430621 
4   -0.2481 
5   -0.248218 
6   -0.268344 
7   -0.26082 
8   -0.066804 
9   -0.101735 
10   0.14222 
11   0.140431 
12   0.142046 
13   0.142722 
14   0.167574 
15   0.142468 
16   0.143422 
17   0.141974 
18   0.162066 
19   0.129848 
20   0.134048 
21   0.129768 
22   0.125087 
23   0.133361 
24   0.156502 
25   0.146419 
26   0.135001 
27   0.083295 
 
>  <lowdin_charges> 
27 
1   -0.445236 
2   -0.445048 
3   -0.443707 
4   -0.272576 
5   -0.27425 
6   -0.280357 
7   -0.278145 
8   -0.064417 
9   -0.111638 
10   0.149354 
11   0.146811 
12   0.146411 
13   0.150057 
14   0.160193 
15   0.149416 
16   0.149985 
17   0.148381 
18   0.159623 
19   0.138276 
20   0.141625 
21   0.138257 
22   0.137117 
23   0.140813 
24   0.153524 
25   0.149921 
26   0.145739 
27   0.109868 
 
$$$$ 
 
