PCCDB-ID:  69153 
public computational chemistry database (PCCDB) project, http://pccdb.org 
 
 20 20  0  0  0  0  0  0  0  0999 V2000 
   -1.4063   -0.0483    0.1118 C   0  0  0  0  0  0  0  0  0  0  0  0 
   -0.6210   -1.1973    0.0498 C   0  0  0  0  0  0  0  0  0  0  0  0 
   -0.7983    1.2035    0.0034 C   0  0  0  0  0  0  0  0  0  0  0  0 
    0.7606   -1.0841   -0.1198 C   0  0  0  0  0  0  0  0  0  0  0  0 
    1.1923    2.7091   -0.2618 C   0  0  0  0  0  0  0  0  0  0  0  0 
    2.8943    0.2358   -0.4064 C   0  0  0  0  0  0  0  0  0  0  0  0 
    0.5848    1.3268   -0.1707 C   0  0  0  0  0  0  0  0  0  0  0  0 
    1.3846    0.1617   -0.2340 C   0  0  0  0  0  0  0  0  0  0  0  0 
    2.0341    3.0359    0.8632 O   0  0  0  0  0  0  0  0  0  0  0  0 
    3.5829    0.6773    0.7531 O   0  0  0  0  0  0  0  0  0  0  0  0 
   -2.4823   -0.1221    0.2433 H   0  0  0  0  0  0  0  0  0  0  0  0 
   -1.0787   -2.1794    0.1336 H   0  0  0  0  0  0  0  0  0  0  0  0 
   -1.4088    2.1034    0.0475 H   0  0  0  0  0  0  0  0  0  0  0  0 
    1.3710   -1.9830   -0.1653 H   0  0  0  0  0  0  0  0  0  0  0  0 
    0.3980    3.4611   -0.3609 H   0  0  0  0  0  0  0  0  0  0  0  0 
    1.8496    2.8077   -1.1309 H   0  0  0  0  0  0  0  0  0  0  0  0 
    3.1379    0.8684   -1.2777 H   0  0  0  0  0  0  0  0  0  0  0  0 
    3.2779   -0.7653   -0.6267 H   0  0  0  0  0  0  0  0  0  0  0  0 
    1.5108    2.8762    1.6661 H   0  0  0  0  0  0  0  0  0  0  0  0 
    3.2779    1.5915    0.9178 H   0  0  0  0  0  0  0  0  0  0  0  0 
  1 11  1  0  0  0  0 
  2  1  1  0  0  0  0 
  2 12  1  0  0  0  0 
  3 13  1  0  0  0  0 
  3  1  2  0  0  0  0 
  4  2  2  0  0  0  0 
  5  7  1  0  0  0  0 
  5  9  1  0  0  0  0 
  6  8  1  0  0  0  0 
  6 10  1  0  0  0  0 
  7  3  1  0  0  0  0 
  8  7  2  0  0  0  0 
  8  4  1  0  0  0  0 
  9 19  1  0  0  0  0 
 10 20  1  0  0  0  0 
 14  4  1  0  0  0  0 
 15  5  1  0  0  0  0 
 16  5  1  0  0  0  0 
 17  6  1  0  0  0  0 
 18  6  1  0  0  0  0 
M  END 
>  <HBA> 
2 
 
>  <HBD> 
2 
 
>  <TPSA> 
40.46 
 
>  <cid> 
69153 
 
>  <dipole> 
3.13 
 
>  <excitation_energy_1> 
5.211 
 
>  <excitation_energy_2> 
5.445 
 
>  <excitation_energy_3> 
5.751 
 
>  <excitation_energy_4> 
5.786 
 
>  <homo_energy> 
-6.667 
 
>  <homo_lumo_gap> 
6.174 
 
>  <logP> 
0.671 
 
>  <lumo_energy> 
-0.493 
 
>  <melting_point> 
49.23 
 
>  <molecular_refractivity> 
38.7 
 
>  <oscillator_strength_1> 
0.0027 
 
>  <oscillator_strength_2> 
0.0051 
 
>  <oscillator_strength_3> 
0.0201 
 
>  <oscillator_strength_4> 
0.0319 
 
>  <open_babel_can_smiles> 
OCc1ccccc1CO 
 
>  <mulliken_charges> 
20 
1   -0.125867 
2   -0.122476 
3   -0.188073 
4   -0.182034 
5   -0.12473 
6   -0.110556 
7   0.074036 
8   0.115988 
9   -0.612782 
10   -0.64049 
11   0.132874 
12   0.134179 
13   0.126901 
14   0.133937 
15   0.14423 
16   0.167033 
17   0.120086 
18   0.144242 
19   0.400177 
20   0.413325 
 
>  <lowdin_charges> 
20 
1   -0.155052 
2   -0.149959 
3   -0.166711 
4   -0.157698 
5   -0.136594 
6   -0.131984 
7   -0.043231 
8   -0.016481 
9   -0.457019 
10   -0.483503 
11   0.157678 
12   0.159874 
13   0.155393 
14   0.160113 
15   0.143899 
16   0.158752 
17   0.128121 
18   0.148546 
19   0.349256 
20   0.336599 
 
$$$$ 
 
