PCCDB-ID:  7843 
public computational chemistry database (PCCDB) project, http://pccdb.org 
 
 14 13  0  0  0  0  0  0  0  0999 V2000 
    1.0009   -0.1056   -0.1256 C   0  0  0  0  0  0  0  0  0  0  0  0 
    4.5895    0.8603    1.1579 C   0  0  0  0  0  0  0  0  0  0  0  0 
    2.5305   -0.0526   -0.0615 C   0  0  0  0  0  0  0  0  0  0  0  0 
    3.0599    0.8061    1.0947 C   0  0  0  0  0  0  0  0  0  0  0  0 
    0.6551   -0.7261   -0.9604 H   0  0  0  0  0  0  0  0  0  0  0  0 
    0.5744    0.8966   -0.2573 H   0  0  0  0  0  0  0  0  0  0  0  0 
    0.5796   -0.5242    0.7969 H   0  0  0  0  0  0  0  0  0  0  0  0 
    4.9353    1.4800    1.9933 H   0  0  0  0  0  0  0  0  0  0  0  0 
    5.0100    1.2804    0.2358 H   0  0  0  0  0  0  0  0  0  0  0  0 
    5.0169   -0.1417    1.2881 H   0  0  0  0  0  0  0  0  0  0  0  0 
    2.9242    0.3385   -1.0107 H   0  0  0  0  0  0  0  0  0  0  0  0 
    2.9294   -1.0726    0.0351 H   0  0  0  0  0  0  0  0  0  0  0  0 
    2.6603    1.8259    0.9986 H   0  0  0  0  0  0  0  0  0  0  0  0 
    2.6671    0.4144    2.0439 H   0  0  0  0  0  0  0  0  0  0  0  0 
  1  3  1  0  0  0  0 
  1  7  1  0  0  0  0 
  2 10  1  0  0  0  0 
  2  8  1  0  0  0  0 
  3 12  1  0  0  0  0 
  3  4  1  0  0  0  0 
  4  2  1  0  0  0  0 
  4 14  1  0  0  0  0 
  5  1  1  0  0  0  0 
  6  1  1  0  0  0  0 
  9  2  1  0  0  0  0 
 11  3  1  0  0  0  0 
 13  4  1  0  0  0  0 
M  END 
>  <HBA> 
0 
 
>  <HBD> 
0 
 
>  <TPSA> 
0.0 
 
>  <cid> 
7843 
 
>  <dipole> 
0.0 
 
>  <excitation_energy_1> 
8.369 
 
>  <excitation_energy_2> 
8.384 
 
>  <excitation_energy_3> 
8.576 
 
>  <excitation_energy_4> 
8.619 
 
>  <homo_energy> 
-8.64 
 
>  <homo_lumo_gap> 
11.222 
 
>  <logP> 
1.806 
 
>  <lumo_energy> 
2.582 
 
>  <melting_point> 
-25.23 
 
>  <molecular_refractivity> 
21.34 
 
>  <oscillator_strength_1> 
0.0 
 
>  <oscillator_strength_2> 
0.0 
 
>  <oscillator_strength_3> 
0.0496 
 
>  <oscillator_strength_4> 
0.0082 
 
>  <open_babel_can_smiles> 
CCCC 
 
>  <mulliken_charges> 
14 
1   -0.441157 
2   -0.441192 
3   -0.23995 
4   -0.23997 
5   0.14108 
6   0.140815 
7   0.140821 
8   0.141086 
9   0.140829 
10   0.140817 
11   0.129205 
12   0.129205 
13   0.1292 
14   0.12921 
 
>  <lowdin_charges> 
14 
1   -0.445506 
2   -0.445515 
3   -0.271531 
4   -0.271534 
5   0.1497 
6   0.145422 
7   0.146303 
8   0.149699 
9   0.146307 
10   0.145424 
11   0.138258 
12   0.137357 
13   0.137356 
14   0.138261 
 
$$$$ 
 
