PCCDB-ID:  41509 
public computational chemistry database (PCCDB) project, http://pccdb.org 
 
 21 20  0  0  0  0  0  0  0  0999 V2000 
    1.8613    0.7581   -1.2499 C   0  0  0  0  0  0  0  0  0  0  0  0 
    2.0182   -2.4217   -0.2076 C   0  0  0  0  0  0  0  0  0  0  0  0 
    5.7145    0.6736   -3.3956 C   0  0  0  0  0  0  0  0  0  0  0  0 
    2.5644    0.0197   -0.0951 C   0  0  0  0  0  0  0  0  0  0  0  0 
    4.2622   -1.7312   -0.9552 C   0  0  0  0  0  0  0  0  0  0  0  0 
    2.8862   -1.4276   -0.4199 C   0  0  0  0  0  0  0  0  0  0  0  0 
    5.5316   -0.0166   -2.0638 C   0  0  0  0  0  0  0  0  0  0  0  0 
    6.1516    0.2410   -1.0553 O   0  0  0  0  0  0  0  0  0  0  0  0 
    4.5565   -0.9565   -2.1485 O   0  0  0  0  0  0  0  0  0  0  0  0 
    1.6668    1.8026   -0.9803 H   0  0  0  0  0  0  0  0  0  0  0  0 
    0.9029    0.2827   -1.4857 H   0  0  0  0  0  0  0  0  0  0  0  0 
    2.4692    0.7447   -2.1596 H   0  0  0  0  0  0  0  0  0  0  0  0 
    1.0463   -2.2436    0.2468 H   0  0  0  0  0  0  0  0  0  0  0  0 
    2.2469   -3.4517   -0.4707 H   0  0  0  0  0  0  0  0  0  0  0  0 
    6.6184    1.2832   -3.3670 H   0  0  0  0  0  0  0  0  0  0  0  0 
    4.8513    1.3184   -3.5963 H   0  0  0  0  0  0  0  0  0  0  0  0 
    5.7723   -0.0586   -4.2059 H   0  0  0  0  0  0  0  0  0  0  0  0 
    1.9194    0.0546    0.7913 H   0  0  0  0  0  0  0  0  0  0  0  0 
    3.4879    0.5507    0.1676 H   0  0  0  0  0  0  0  0  0  0  0  0 
    4.3485   -2.7806   -1.2492 H   0  0  0  0  0  0  0  0  0  0  0  0 
    5.0296   -1.4977   -0.2111 H   0  0  0  0  0  0  0  0  0  0  0  0 
  1 10  1  0  0  0  0 
  1  4  1  0  0  0  0 
  2 13  1  0  0  0  0 
  3 15  1  0  0  0  0 
  3  7  1  0  0  0  0 
  4 19  1  0  0  0  0 
  4 18  1  0  0  0  0 
  5  6  1  0  0  0  0 
  5 21  1  0  0  0  0 
  6  2  2  0  0  0  0 
  6  4  1  0  0  0  0 
  7  8  2  0  0  0  0 
  9  7  1  0  0  0  0 
  9  5  1  0  0  0  0 
 11  1  1  0  0  0  0 
 12  1  1  0  0  0  0 
 14  2  1  0  0  0  0 
 16  3  1  0  0  0  0 
 17  3  1  0  0  0  0 
 20  5  1  0  0  0  0 
M  END 
>  <HBA> 
2 
 
>  <HBD> 
0 
 
>  <TPSA> 
26.3 
 
>  <cid> 
41509 
 
>  <dipole> 
1.59 
 
>  <excitation_energy_1> 
5.769 
 
>  <excitation_energy_2> 
6.283 
 
>  <excitation_energy_3> 
6.45 
 
>  <excitation_energy_4> 
6.63 
 
>  <homo_energy> 
-6.846 
 
>  <homo_lumo_gap> 
6.983 
 
>  <logP> 
1.516 
 
>  <lumo_energy> 
0.136 
 
>  <melting_point> 
-31.96 
 
>  <molecular_refractivity> 
36.57 
 
>  <oscillator_strength_1> 
0.0084 
 
>  <oscillator_strength_2> 
0.1295 
 
>  <oscillator_strength_3> 
0.0329 
 
>  <oscillator_strength_4> 
0.1593 
 
>  <open_babel_can_smiles> 
CCC(=C)COC(=O)C 
 
>  <mulliken_charges> 
21 
1   -0.439238 
2   -0.400683 
3   -0.527362 
4   -0.337631 
5   -0.135906 
6   0.22931 
7   0.610375 
8   -0.466718 
9   -0.453104 
10   0.143014 
11   0.14892 
12   0.153344 
13   0.140527 
14   0.138382 
15   0.18327 
16   0.185696 
17   0.18109 
18   0.146829 
19   0.157679 
20   0.153286 
21   0.188918 
 
>  <lowdin_charges> 
21 
1   -0.440332 
2   -0.345955 
3   -0.465836 
4   -0.276595 
5   -0.133116 
6   -0.002604 
7   0.202391 
8   -0.26601 
9   -0.201837 
10   0.14813 
11   0.15035 
12   0.150975 
13   0.157444 
14   0.155784 
15   0.176384 
16   0.179787 
17   0.177178 
18   0.152682 
19   0.155814 
20   0.153746 
21   0.171619 
 
$$$$ 
 
