PCCDB-ID:  6986 
public computational chemistry database (PCCDB) project, http://pccdb.org 
 
 29 29  0  0  1  0  0  0  0  0999 V2000 
    3.3525    0.3567   -1.3477 C   0  0  0  0  0  0  0  0  0  0  0  0 
    2.5713   -1.3754    0.3016 C   0  0  0  0  0  0  0  0  0  0  0  0 
    2.7843    4.1645    4.2476 C   0  0  0  0  0  0  0  0  0  0  0  0 
    2.6685    1.7245    3.5177 C   0  0  0  0  0  0  0  0  0  0  0  0 
    2.2424    0.7336    2.4239 C   0  0  0  0  0  0  0  0  0  0  0  0 
    2.9329    3.5370    1.7854 C   0  0  0  0  0  0  0  0  0  0  0  0 
    2.4808    0.1040   -0.1054 C   0  0  0  0  0  0  0  0  0  0  0  0 
    2.3288    3.1809    3.1648 C   0  0  2  0  0  0  0  0  0  0  0  0 
    2.8657    1.0685    1.0401 C   0  0  1  0  0  0  0  0  0  0  0  0 
    2.5028    2.5271    0.7305 C   0  0  0  0  0  0  0  0  0  0  0  0 
    1.8553    2.8614   -0.2456 O   0  0  0  0  0  0  0  0  0  0  0  0 
    3.0522   -0.3028   -2.1704 H   0  0  0  0  0  0  0  0  0  0  0  0 
    4.4099    0.1514   -1.1313 H   0  0  0  0  0  0  0  0  0  0  0  0 
    3.2631    1.3885   -1.6953 H   0  0  0  0  0  0  0  0  0  0  0  0 
    2.3595   -2.0166   -0.5618 H   0  0  0  0  0  0  0  0  0  0  0  0 
    1.8569   -1.6408    1.0875 H   0  0  0  0  0  0  0  0  0  0  0  0 
    3.5777   -1.6313    0.6600 H   0  0  0  0  0  0  0  0  0  0  0  0 
    2.3226    3.9290    5.2138 H   0  0  0  0  0  0  0  0  0  0  0  0 
    2.5147    5.1949    3.9884 H   0  0  0  0  0  0  0  0  0  0  0  0 
    3.8734    4.1267    4.3793 H   0  0  0  0  0  0  0  0  0  0  0  0 
    3.7537    1.6395    3.6826 H   0  0  0  0  0  0  0  0  0  0  0  0 
    2.1893    1.4531    4.4675 H   0  0  0  0  0  0  0  0  0  0  0  0 
    1.1463    0.7309    2.3328 H   0  0  0  0  0  0  0  0  0  0  0  0 
    2.5344   -0.2790    2.7197 H   0  0  0  0  0  0  0  0  0  0  0  0 
    4.0307    3.5263    1.8663 H   0  0  0  0  0  0  0  0  0  0  0  0 
    2.6238    4.5343    1.4576 H   0  0  0  0  0  0  0  0  0  0  0  0 
    1.4403    0.3251   -0.3776 H   0  0  0  0  0  0  0  0  0  0  0  0 
    1.2345    3.2570    3.0711 H   0  0  0  0  0  0  0  0  0  0  0  0 
    3.9606    1.0354    1.1745 H   0  0  0  0  0  0  0  0  0  0  0  0 
  1 13  1  0  0  0  0 
  1  7  1  0  0  0  0 
  2 17  1  0  0  0  0 
  2 16  1  0  0  0  0 
  3 20  1  0  0  0  0 
  3 18  1  0  0  0  0 
  4 21  1  0  0  0  0 
  4 22  1  0  0  0  0 
  5 24  1  0  0  0  0 
  5  4  1  0  0  0  0 
  6 25  1  0  0  0  0 
  6  8  1  0  0  0  0 
  7  2  1  0  0  0  0 
  7  9  1  0  0  0  0 
  8 28  1  6  0  0  0 
  8  4  1  0  0  0  0 
  8  3  1  0  0  0  0 
  9 29  1  1  0  0  0 
  9  5  1  0  0  0  0 
 10  9  1  0  0  0  0 
 10  6  1  0  0  0  0 
 11 10  2  0  0  0  0 
 12  1  1  0  0  0  0 
 14  1  1  0  0  0  0 
 15  2  1  0  0  0  0 
 19  3  1  0  0  0  0 
 23  5  1  0  0  0  0 
 26  6  1  0  0  0  0 
 27  7  1  0  0  0  0 
M  END 
>  <HBA> 
1 
 
>  <HBD> 
0 
 
>  <TPSA> 
17.07 
 
>  <cid> 
6986 
 
>  <dipole> 
2.79 
 
>  <excitation_energy_1> 
4.205 
 
>  <excitation_energy_2> 
6.048 
 
>  <excitation_energy_3> 
6.311 
 
>  <excitation_energy_4> 
6.351 
 
>  <homo_energy> 
-6.365 
 
>  <homo_lumo_gap> 
6.044 
 
>  <logP> 
2.648 
 
>  <lumo_energy> 
-0.321 
 
>  <melting_point> 
14.75 
 
>  <molecular_refractivity> 
48.27 
 
>  <oscillator_strength_1> 
0.0 
 
>  <oscillator_strength_2> 
0.018 
 
>  <oscillator_strength_3> 
0.003 
 
>  <oscillator_strength_4> 
0.0054 
 
>  <open_babel_can_smiles> 
C[C@@H]1CC[C@H](C(=O)C1)C(C)C 
 
>  <mulliken_charges> 
29 
1   -0.458022 
2   -0.454986 
3   -0.443973 
4   -0.263286 
5   -0.284732 
6   -0.333873 
7   -0.059513 
8   -0.085972 
9   -0.159766 
10   0.441219 
11   -0.453769 
12   0.138789 
13   0.128053 
14   0.168901 
15   0.143492 
16   0.143956 
17   0.134853 
18   0.14519 
19   0.147873 
20   0.141253 
21   0.128693 
22   0.136842 
23   0.141491 
24   0.149071 
25   0.144355 
26   0.158146 
27   0.140502 
28   0.135119 
29   0.130092 
 
>  <lowdin_charges> 
29 
1   -0.446867 
2   -0.447995 
3   -0.439528 
4   -0.277546 
5   -0.272709 
6   -0.302216 
7   -0.117956 
8   -0.118664 
9   -0.158989 
10   0.160331 
11   -0.238055 
12   0.14892 
13   0.137827 
14   0.160445 
15   0.151569 
16   0.148743 
17   0.142572 
18   0.150951 
19   0.151447 
20   0.145153 
21   0.136718 
22   0.14774 
23   0.142381 
24   0.152376 
25   0.152009 
26   0.160727 
27   0.146624 
28   0.138989 
29   0.145001 
 
$$$$ 
 
