PCCDB-ID:  58097 
public computational chemistry database (PCCDB) project, http://pccdb.org 
 
 32 32  0  0  1  0  0  0  0  0999 V2000 
    1.5841   -2.2669   -1.6682 C   0  0  0  0  0  0  0  0  0  0  0  0 
    3.8538   -2.7679    1.3522 C   0  0  0  0  0  0  0  0  0  0  0  0 
    3.0469    0.6565   -0.4317 C   0  0  0  0  0  0  0  0  0  0  0  0 
    2.4211   -1.6352   -1.0713 C   0  0  0  0  0  0  0  0  0  0  0  0 
    3.4582   -1.3027    1.1565 C   0  0  0  0  0  0  0  0  0  0  0  0 
   10.0583    1.9176   -2.0997 C   0  0  0  0  0  0  0  0  0  0  0  0 
   10.0187    1.1908   -0.9081 C   0  0  0  0  0  0  0  0  0  0  0  0 
    9.1013    1.6776   -3.0864 C   0  0  0  0  0  0  0  0  0  0  0  0 
    9.0283    0.2301   -0.7058 C   0  0  0  0  0  0  0  0  0  0  0  0 
    8.1120    0.7145   -2.8810 C   0  0  0  0  0  0  0  0  0  0  0  0 
    6.9855   -1.0569   -1.4718 C   0  0  0  0  0  0  0  0  0  0  0  0 
    8.0658   -0.0212   -1.6909 C   0  0  0  0  0  0  0  0  0  0  0  0 
    5.8331   -0.5537   -0.6009 C   0  0  0  0  0  0  0  0  0  0  0  0 
    3.4007   -0.8355   -0.3182 C   0  0  2  0  0  0  0  0  0  0  0  0 
    5.9615    0.1980    0.3402 O   0  0  0  0  0  0  0  0  0  0  0  0 
    4.6728   -1.1060   -1.0184 O   0  0  0  0  0  0  0  0  0  0  0  0 
    0.8455   -2.8259   -2.1970 H   0  0  0  0  0  0  0  0  0  0  0  0 
    3.8367   -3.0228    2.4172 H   0  0  0  0  0  0  0  0  0  0  0  0 
    4.8649   -2.9664    0.9809 H   0  0  0  0  0  0  0  0  0  0  0  0 
    3.1670   -3.4415    0.8294 H   0  0  0  0  0  0  0  0  0  0  0  0 
    2.0515    0.8253   -0.0097 H   0  0  0  0  0  0  0  0  0  0  0  0 
    3.0317    0.9615   -1.4820 H   0  0  0  0  0  0  0  0  0  0  0  0 
    3.7760    1.2598    0.1114 H   0  0  0  0  0  0  0  0  0  0  0  0 
    4.1509   -0.6472    1.6893 H   0  0  0  0  0  0  0  0  0  0  0  0 
    2.4581   -1.1321    1.5737 H   0  0  0  0  0  0  0  0  0  0  0  0 
   10.8304    2.6658   -2.2580 H   0  0  0  0  0  0  0  0  0  0  0  0 
   10.7601    1.3709   -0.1341 H   0  0  0  0  0  0  0  0  0  0  0  0 
    9.1242    2.2377   -4.0175 H   0  0  0  0  0  0  0  0  0  0  0  0 
    8.9965   -0.3269    0.2267 H   0  0  0  0  0  0  0  0  0  0  0  0 
    7.3711    0.5288   -3.6556 H   0  0  0  0  0  0  0  0  0  0  0  0 
    7.3954   -1.9309   -0.9468 H   0  0  0  0  0  0  0  0  0  0  0  0 
    6.5825   -1.4212   -2.4203 H   0  0  0  0  0  0  0  0  0  0  0  0 
  1  4  3  0  0  0  0 
  2 18  1  0  0  0  0 
  3 14  1  0  0  0  0 
  3 21  1  0  0  0  0 
  3 23  1  0  0  0  0 
  5  2  1  0  0  0  0 
  5 25  1  0  0  0  0 
  5 24  1  0  0  0  0 
  6  7  2  0  0  0  0 
  7  9  1  0  0  0  0 
  7 27  1  0  0  0  0 
  8 10  2  0  0  0  0 
  8  6  1  0  0  0  0 
  9 29  1  0  0  0  0 
 10 12  1  0  0  0  0 
 11 31  1  0  0  0  0 
 11 13  1  0  0  0  0 
 12 11  1  0  0  0  0 
 12  9  2  0  0  0  0 
 13 15  2  0  0  0  0 
 14  4  1  6  0  0  0 
 14  5  1  0  0  0  0 
 16 13  1  0  0  0  0 
 16 14  1  0  0  0  0 
 17  1  1  0  0  0  0 
 19  2  1  0  0  0  0 
 20  2  1  0  0  0  0 
 22  3  1  0  0  0  0 
 26  6  1  0  0  0  0 
 28  8  1  0  0  0  0 
 30 10  1  0  0  0  0 
 32 11  1  0  0  0  0 
M  END 
>  <HBA> 
2 
 
>  <HBD> 
0 
 
>  <TPSA> 
26.3 
 
>  <cid> 
58097 
 
>  <dipole> 
1.29 
 
>  <excitation_energy_1> 
5.257 
 
>  <excitation_energy_2> 
5.557 
 
>  <excitation_energy_3> 
5.709 
 
>  <excitation_energy_4> 
5.97 
 
>  <homo_energy> 
-6.542 
 
>  <homo_lumo_gap> 
6.446 
 
>  <logP> 
2.574 
 
>  <lumo_energy> 
-0.095 
 
>  <melting_point> 
43.31 
 
>  <molecular_refractivity> 
64.54 
 
>  <oscillator_strength_1> 
0.0033 
 
>  <oscillator_strength_2> 
0.0123 
 
>  <oscillator_strength_3> 
0.0095 
 
>  <oscillator_strength_4> 
0.005 
 
>  <open_babel_can_smiles> 
CC[C@@](OC(=O)Cc1ccccc1)(C#C)C 
 
>  <mulliken_charges> 
32 
1   -0.536988 
2   -0.453237 
3   -0.467487 
4   0.370024 
5   -0.278571 
6   -0.128506 
7   -0.130107 
8   -0.127905 
9   -0.160284 
10   -0.178195 
11   -0.462852 
12   0.181122 
13   0.652693 
14   0.197956 
15   -0.475368 
16   -0.498373 
17   0.197169 
18   0.147714 
19   0.147937 
20   0.159416 
21   0.157441 
22   0.161697 
23   0.19043 
24   0.180452 
25   0.145889 
26   0.128726 
27   0.130177 
28   0.128968 
29   0.131241 
30   0.125681 
31   0.184229 
32   0.178909 
 
>  <lowdin_charges> 
32 
1   -0.241194 
2   -0.446228 
3   -0.445588 
4   -0.034748 
5   -0.281551 
6   -0.157442 
7   -0.154628 
8   -0.155589 
9   -0.153855 
10   -0.165683 
11   -0.29724 
12   0.000714 
13   0.202082 
14   0.150869 
15   -0.262838 
16   -0.190411 
17   0.208953 
18   0.152962 
19   0.149205 
20   0.158481 
21   0.16261 
22   0.161515 
23   0.176057 
24   0.169176 
25   0.154357 
26   0.157867 
27   0.158829 
28   0.157424 
29   0.159394 
30   0.155892 
31   0.178174 
32   0.172434 
 
$$$$ 
 
