PCCDB-ID:  52780 
public computational chemistry database (PCCDB) project, http://pccdb.org 
 
 26 27  0  0  0  0  0  0  0  0999 V2000 
   -1.2129    0.4013    0.2701 C   0  0  0  0  0  0  0  0  0  0  0  0 
   -0.7093    1.6977    0.2796 C   0  0  0  0  0  0  0  0  0  0  0  0 
    2.0758   -3.8568    3.1459 C   0  0  0  0  0  0  0  0  0  0  0  0 
    1.9578   -3.7045    1.7875 C   0  0  0  0  0  0  0  0  0  0  0  0 
    1.0480   -0.4796    0.2792 C   0  0  0  0  0  0  0  0  0  0  0  0 
   -0.0420   -3.3066    0.2623 C   0  0  0  0  0  0  0  0  0  0  0  0 
   -0.0051   -3.5372    2.7762 C   0  0  0  0  0  0  0  0  0  0  0  0 
   -0.3415   -0.6989    0.2699 C   0  0  0  0  0  0  0  0  0  0  0  0 
    0.6691    1.9054    0.2861 C   0  0  0  0  0  0  0  0  0  0  0  0 
    1.5561    0.8125    0.2865 C   0  0  0  0  0  0  0  0  0  0  0  0 
   -0.9454   -2.0569    0.2378 C   0  0  0  0  0  0  0  0  0  0  0  0 
    0.8464   -3.7503    3.7564 N   0  0  0  0  0  0  0  0  0  0  0  0 
    0.6104   -3.4957    1.5525 N   0  0  0  0  0  0  0  0  0  0  0  0 
    1.2705    3.1366    0.2927 O   0  0  0  0  0  0  0  0  0  0  0  0 
    2.9029    1.0145    0.2941 O   0  0  0  0  0  0  0  0  0  0  0  0 
   -2.1557   -2.2241    0.1897 O   0  0  0  0  0  0  0  0  0  0  0  0 
   -2.2813    0.2186    0.2621 H   0  0  0  0  0  0  0  0  0  0  0  0 
   -1.3833    2.5521    0.2810 H   0  0  0  0  0  0  0  0  0  0  0  0 
    2.9754   -4.0378    3.7190 H   0  0  0  0  0  0  0  0  0  0  0  0 
    2.6763   -3.7350    0.9813 H   0  0  0  0  0  0  0  0  0  0  0  0 
    1.7589   -1.2971    0.3009 H   0  0  0  0  0  0  0  0  0  0  0  0 
    0.7360   -3.2426   -0.5036 H   0  0  0  0  0  0  0  0  0  0  0  0 
   -0.6860   -4.1601    0.0323 H   0  0  0  0  0  0  0  0  0  0  0  0 
   -1.0745   -3.4065    2.8793 H   0  0  0  0  0  0  0  0  0  0  0  0 
    0.5977    3.8341    0.3171 H   0  0  0  0  0  0  0  0  0  0  0  0 
    3.0597    1.9739    0.3167 H   0  0  0  0  0  0  0  0  0  0  0  0 
  1  2  1  0  0  0  0 
  2 18  1  0  0  0  0 
  2  9  2  0  0  0  0 
  3 19  1  0  0  0  0 
  3 12  1  0  0  0  0 
  4  3  2  0  0  0  0 
  5 10  2  0  0  0  0 
  5 21  1  0  0  0  0 
  6 13  1  0  0  0  0 
  7 24  1  0  0  0  0 
  7 12  2  0  0  0  0 
  8  1  2  0  0  0  0 
  8  5  1  0  0  0  0 
  9 10  1  0  0  0  0 
  9 14  1  0  0  0  0 
 10 15  1  0  0  0  0 
 11  6  1  0  0  0  0 
 11  8  1  0  0  0  0 
 13  4  1  0  0  0  0 
 13  7  1  0  0  0  0 
 14 25  1  0  0  0  0 
 15 26  1  0  0  0  0 
 16 11  2  0  0  0  0 
 17  1  1  0  0  0  0 
 20  4  1  0  0  0  0 
 22  6  1  0  0  0  0 
 23  6  1  0  0  0  0 
M  END 
>  <HBA> 
5 
 
>  <HBD> 
2 
 
>  <TPSA> 
75.35 
 
>  <cid> 
52780 
 
>  <dipole> 
5.75 
 
>  <excitation_energy_1> 
3.55 
 
>  <excitation_energy_2> 
3.76 
 
>  <excitation_energy_3> 
3.998 
 
>  <excitation_energy_4> 
4.608 
 
>  <homo_energy> 
-6.049 
 
>  <homo_lumo_gap> 
4.313 
 
>  <logP> 
1.177 
 
>  <lumo_energy> 
-1.736 
 
>  <melting_point> 
164.39 
 
>  <molecular_refractivity> 
57.25 
 
>  <oscillator_strength_1> 
0.0243 
 
>  <oscillator_strength_2> 
0.0012 
 
>  <oscillator_strength_3> 
0.0965 
 
>  <oscillator_strength_4> 
0.0921 
 
>  <open_babel_can_smiles> 
O=C(c1ccc(c(c1)O)O)Cn1cncc1 
 
>  <mulliken_charges> 
26 
1   -0.1691 
2   -0.189665 
3   -0.036506 
4   0.004618 
5   -0.218265 
6   -0.233874 
7   0.199728 
8   0.079118 
9   0.313029 
10   0.326989 
11   0.387471 
12   -0.435489 
13   -0.378264 
14   -0.666718 
15   -0.648727 
16   -0.460245 
17   0.166848 
18   0.134265 
19   0.135943 
20   0.151214 
21   0.14813 
22   0.173278 
23   0.192255 
24   0.169407 
25   0.424223 
26   0.430336 
 
>  <lowdin_charges> 
26 
1   -0.132451 
2   -0.200115 
3   -0.151503 
4   -0.183162 
5   -0.170201 
6   -0.217245 
7   -0.097488 
8   -0.056004 
9   0.075167 
10   0.080546 
11   0.145019 
12   -0.183912 
13   -0.012183 
14   -0.38585 
15   -0.371032 
16   -0.238605 
17   0.178087 
18   0.161635 
19   0.162454 
20   0.168343 
21   0.175009 
22   0.170891 
23   0.175728 
24   0.170712 
25   0.370974 
26   0.365187 
 
$$$$ 
 
