PCCDB-ID:  70961 
public computational chemistry database (PCCDB) project, http://pccdb.org 
 
 19 19  0  0  0  0  0  0  0  0999 V2000 
    2.7727    2.0367    1.1147 C   0  0  0  0  0  0  0  0  0  0  0  0 
    1.6125    3.5983   -3.6313 C   0  0  0  0  0  0  0  0  0  0  0  0 
    1.2418    2.2771   -3.8633 C   0  0  0  0  0  0  0  0  0  0  0  0 
    2.3923    3.8764   -2.5094 C   0  0  0  0  0  0  0  0  0  0  0  0 
    1.6628    1.2953   -2.9695 C   0  0  0  0  0  0  0  0  0  0  0  0 
    2.4437    1.6587   -1.8494 C   0  0  0  0  0  0  0  0  0  0  0  0 
    2.9389    0.6528   -0.8371 C   0  0  0  0  0  0  0  0  0  0  0  0 
    3.0936    0.8150    0.4080 N   0  0  0  0  0  0  0  0  0  0  0  0 
    2.7932    2.9373   -1.6495 N   0  0  0  0  0  0  0  0  0  0  0  0 
    1.3478   -0.0309   -3.1398 O   0  0  0  0  0  0  0  0  0  0  0  0 
    3.3170   -0.5596   -1.3477 O   0  0  0  0  0  0  0  0  0  0  0  0 
    2.4912    1.7701    2.1400 H   0  0  0  0  0  0  0  0  0  0  0  0 
    1.9656    2.6319    0.6691 H   0  0  0  0  0  0  0  0  0  0  0  0 
    3.6570    2.6836    1.1722 H   0  0  0  0  0  0  0  0  0  0  0  0 
    1.3046    4.3908   -4.3064 H   0  0  0  0  0  0  0  0  0  0  0  0 
    0.6376    2.0072   -4.7278 H   0  0  0  0  0  0  0  0  0  0  0  0 
    2.7134    4.8930   -2.2932 H   0  0  0  0  0  0  0  0  0  0  0  0 
    0.8633   -0.1505   -3.9723 H   0  0  0  0  0  0  0  0  0  0  0  0 
    2.8955   -0.6927   -2.2130 H   0  0  0  0  0  0  0  0  0  0  0  0 
  1 14  1  0  0  0  0 
  1 12  1  0  0  0  0 
  2  4  1  0  0  0  0 
  3  2  2  0  0  0  0 
  3  5  1  0  0  0  0 
  4 17  1  0  0  0  0 
  4  9  2  0  0  0  0 
  5  6  2  0  0  0  0 
  6  9  1  0  0  0  0 
  6  7  1  0  0  0  0 
  7  8  2  0  0  0  0 
  8  1  1  0  0  0  0 
 10  5  1  0  0  0  0 
 11  7  1  0  0  0  0 
 13  1  1  0  0  0  0 
 15  2  1  0  0  0  0 
 16  3  1  0  0  0  0 
 18 10  1  0  0  0  0 
 19 11  1  0  0  0  0 
M  END 
>  <HBA> 
4 
 
>  <HBD> 
2 
 
>  <TPSA> 
62.22 
 
>  <cid> 
70961 
 
>  <dipole> 
7.02 
 
>  <excitation_energy_1> 
3.775 
 
>  <excitation_energy_2> 
4.322 
 
>  <excitation_energy_3> 
4.559 
 
>  <excitation_energy_4> 
4.769 
 
>  <homo_energy> 
-6.136 
 
>  <homo_lumo_gap> 
4.781 
 
>  <logP> 
0.538 
 
>  <lumo_energy> 
-1.355 
 
>  <melting_point> 
121.87 
 
>  <molecular_refractivity> 
39.26 
 
>  <oscillator_strength_1> 
0.0035 
 
>  <oscillator_strength_2> 
0.074 
 
>  <oscillator_strength_3> 
0.003 
 
>  <oscillator_strength_4> 
0.0225 
 
>  <open_babel_can_smiles> 
C/N=C(\c1ncccc1O)/O 
 
>  <mulliken_charges> 
19 
1   -0.300623 
2   -0.145011 
3   -0.150201 
4   0.036138 
5   0.315044 
6   0.183974 
7   0.475608 
8   -0.405423 
9   -0.464898 
10   -0.661606 
11   -0.609826 
12   0.145644 
13   0.135616 
14   0.159421 
15   0.149415 
16   0.140475 
17   0.14981 
18   0.421772 
19   0.424669 
 
>  <lowdin_charges> 
19 
1   -0.353513 
2   -0.158748 
3   -0.17917 
4   -0.100664 
5   0.083459 
6   -0.006286 
7   0.11805 
8   -0.180239 
9   -0.120482 
10   -0.37774 
11   -0.38033 
12   0.144799 
13   0.138278 
14   0.157322 
15   0.171543 
16   0.163523 
17   0.161138 
18   0.367181 
19   0.351878 
 
$$$$ 
 
