PCCDB-ID:  7043 
public computational chemistry database (PCCDB) project, http://pccdb.org 
 
 20 20  0  0  0  0  0  0  0  0999 V2000 
    1.6156   -0.5659   -0.6409 C   0  0  0  0  0  0  0  0  0  0  0  0 
    5.3877    0.1274    1.3492 C   0  0  0  0  0  0  0  0  0  0  0  0 
    3.1056   -4.2776    0.7393 C   0  0  0  0  0  0  0  0  0  0  0  0 
    4.4504   -4.3753    1.0827 C   0  0  0  0  0  0  0  0  0  0  0  0 
    2.5722   -3.0601    0.3020 C   0  0  0  0  0  0  0  0  0  0  0  0 
    5.2645   -3.2417    0.9990 C   0  0  0  0  0  0  0  0  0  0  0  0 
    3.3863   -1.9279    0.2063 C   0  0  0  0  0  0  0  0  0  0  0  0 
    4.7499   -2.0226    0.5683 C   0  0  0  0  0  0  0  0  0  0  0  0 
    2.9659   -0.7017   -0.2292 O   0  0  0  0  0  0  0  0  0  0  0  0 
    5.6021   -0.9515    0.4376 O   0  0  0  0  0  0  0  0  0  0  0  0 
    1.5035    0.4720   -0.9597 H   0  0  0  0  0  0  0  0  0  0  0  0 
    0.9178   -0.7704    0.1822 H   0  0  0  0  0  0  0  0  0  0  0  0 
    1.3830   -1.2313   -1.4827 H   0  0  0  0  0  0  0  0  0  0  0  0 
    6.1669    0.8627    1.1350 H   0  0  0  0  0  0  0  0  0  0  0  0 
    5.4875   -0.2137    2.3888 H   0  0  0  0  0  0  0  0  0  0  0  0 
    4.4036    0.5847    1.2072 H   0  0  0  0  0  0  0  0  0  0  0  0 
    2.4578   -5.1476    0.8028 H   0  0  0  0  0  0  0  0  0  0  0  0 
    4.8671   -5.3202    1.4189 H   0  0  0  0  0  0  0  0  0  0  0  0 
    1.5240   -3.0052    0.0300 H   0  0  0  0  0  0  0  0  0  0  0  0 
    6.3188   -3.2824    1.2562 H   0  0  0  0  0  0  0  0  0  0  0  0 
  1  9  1  0  0  0  0 
  1 12  1  0  0  0  0 
  2 15  1  0  0  0  0 
  3 17  1  0  0  0  0 
  3  4  2  0  0  0  0 
  4 18  1  0  0  0  0 
  5  3  1  0  0  0  0 
  6  4  1  0  0  0  0 
  6 20  1  0  0  0  0 
  7  5  2  0  0  0  0 
  7  8  1  0  0  0  0 
  8  6  2  0  0  0  0 
  9  7  1  0  0  0  0 
 10  8  1  0  0  0  0 
 10  2  1  0  0  0  0 
 11  1  1  0  0  0  0 
 13  1  1  0  0  0  0 
 14  2  1  0  0  0  0 
 16  2  1  0  0  0  0 
 19  5  1  0  0  0  0 
M  END 
>  <HBA> 
2 
 
>  <HBD> 
0 
 
>  <TPSA> 
18.46 
 
>  <cid> 
7043 
 
>  <dipole> 
2.19 
 
>  <excitation_energy_1> 
5.02 
 
>  <excitation_energy_2> 
5.402 
 
>  <excitation_energy_3> 
5.569 
 
>  <excitation_energy_4> 
5.759 
 
>  <homo_energy> 
-5.739 
 
>  <homo_lumo_gap> 
5.948 
 
>  <logP> 
1.704 
 
>  <lumo_energy> 
0.21 
 
>  <melting_point> 
14.53 
 
>  <molecular_refractivity> 
39.43 
 
>  <oscillator_strength_1> 
0.0383 
 
>  <oscillator_strength_2> 
0.0056 
 
>  <oscillator_strength_3> 
0.063 
 
>  <oscillator_strength_4> 
0.0108 
 
>  <open_babel_can_smiles> 
COc1ccccc1OC 
 
>  <mulliken_charges> 
20 
1   -0.215052 
2   -0.209228 
3   -0.134839 
4   -0.141284 
5   -0.207091 
6   -0.171963 
7   0.348054 
8   0.307764 
9   -0.507287 
10   -0.519033 
11   0.169877 
12   0.151075 
13   0.154621 
14   0.156878 
15   0.137101 
16   0.160857 
17   0.126314 
18   0.126436 
19   0.131746 
20   0.135053 
 
>  <lowdin_charges> 
20 
1   -0.276594 
2   -0.274213 
3   -0.15953 
4   -0.172363 
5   -0.209176 
6   -0.169242 
7   0.077437 
8   0.070029 
9   -0.196186 
10   -0.224633 
11   0.161645 
12   0.145222 
13   0.147387 
14   0.155907 
15   0.135913 
16   0.148314 
17   0.1577 
18   0.157684 
19   0.16048 
20   0.164218 
 
$$$$ 
 
