PCCDB-ID:  36668 
public computational chemistry database (PCCDB) project, http://pccdb.org 
 
 31 30  0  0  0  0  0  0  0  0999 V2000 
    3.8577   -0.2144   -2.3798 C   0  0  0  0  0  0  0  0  0  0  0  0 
   12.0654   -0.0853    4.5372 C   0  0  0  0  0  0  0  0  0  0  0  0 
    4.8762   -0.0726   -1.2850 C   0  0  0  0  0  0  0  0  0  0  0  0 
   10.9788   -1.1131    4.8692 C   0  0  0  0  0  0  0  0  0  0  0  0 
    4.8171   -0.6736   -0.0936 C   0  0  0  0  0  0  0  0  0  0  0  0 
   10.0877   -1.4580    3.6698 C   0  0  0  0  0  0  0  0  0  0  0  0 
    5.8384   -0.5310    1.0019 C   0  0  0  0  0  0  0  0  0  0  0  0 
    9.0012   -2.4888    3.9999 C   0  0  0  0  0  0  0  0  0  0  0  0 
    6.5205   -1.8585    1.3387 C   0  0  0  0  0  0  0  0  0  0  0  0 
    8.0925   -2.8212    2.8219 C   0  0  0  0  0  0  0  0  0  0  0  0 
    7.3940   -1.6508    2.4325 O   0  0  0  0  0  0  0  0  0  0  0  0 
    4.3123   -0.6092   -3.2987 H   0  0  0  0  0  0  0  0  0  0  0  0 
    3.4163    0.7568   -2.6423 H   0  0  0  0  0  0  0  0  0  0  0  0 
    3.0441   -0.8874   -2.0882 H   0  0  0  0  0  0  0  0  0  0  0  0 
   12.6825    0.1433    5.4138 H   0  0  0  0  0  0  0  0  0  0  0  0 
   11.6253    0.8556    4.1847 H   0  0  0  0  0  0  0  0  0  0  0  0 
   12.7322   -0.4535    3.7476 H   0  0  0  0  0  0  0  0  0  0  0  0 
    5.7229    0.5828   -1.4991 H   0  0  0  0  0  0  0  0  0  0  0  0 
   10.3516   -0.7303    5.6870 H   0  0  0  0  0  0  0  0  0  0  0  0 
   11.4478   -2.0315    5.2511 H   0  0  0  0  0  0  0  0  0  0  0  0 
    3.9700   -1.3294    0.1215 H   0  0  0  0  0  0  0  0  0  0  0  0 
   10.7143   -1.8428    2.8505 H   0  0  0  0  0  0  0  0  0  0  0  0 
    9.6094   -0.5472    3.2890 H   0  0  0  0  0  0  0  0  0  0  0  0 
    5.3631   -0.1597    1.9211 H   0  0  0  0  0  0  0  0  0  0  0  0 
    6.6051    0.2005    0.7205 H   0  0  0  0  0  0  0  0  0  0  0  0 
    8.3776   -2.1206    4.8259 H   0  0  0  0  0  0  0  0  0  0  0  0 
    9.4641   -3.4235    4.3471 H   0  0  0  0  0  0  0  0  0  0  0  0 
    7.0770   -2.2320    0.4624 H   0  0  0  0  0  0  0  0  0  0  0  0 
    5.7654   -2.6238    1.5928 H   0  0  0  0  0  0  0  0  0  0  0  0 
    7.3761   -3.6128    3.1027 H   0  0  0  0  0  0  0  0  0  0  0  0 
    8.6875   -3.2073    1.9748 H   0  0  0  0  0  0  0  0  0  0  0  0 
  1 14  1  0  0  0  0 
  1  3  1  0  0  0  0 
  2  4  1  0  0  0  0 
  2 15  1  0  0  0  0 
  3  5  2  0  0  0  0 
  4 20  1  0  0  0  0 
  4 19  1  0  0  0  0 
  5 21  1  0  0  0  0 
  5  7  1  0  0  0  0 
  6  8  1  0  0  0  0 
  6  4  1  0  0  0  0 
  7  9  1  0  0  0  0 
  7 24  1  0  0  0  0 
  8 27  1  0  0  0  0 
  8 26  1  0  0  0  0 
  9 29  1  0  0  0  0 
  9 11  1  0  0  0  0 
 10 30  1  0  0  0  0 
 10  8  1  0  0  0  0 
 11 10  1  0  0  0  0 
 12  1  1  0  0  0  0 
 13  1  1  0  0  0  0 
 16  2  1  0  0  0  0 
 17  2  1  0  0  0  0 
 18  3  1  0  0  0  0 
 22  6  1  0  0  0  0 
 23  6  1  0  0  0  0 
 25  7  1  0  0  0  0 
 28  9  1  0  0  0  0 
 31 10  1  0  0  0  0 
M  END 
>  <HBA> 
1 
 
>  <HBD> 
0 
 
>  <TPSA> 
9.23 
 
>  <cid> 
36668 
 
>  <dipole> 
1.01 
 
>  <excitation_energy_1> 
6.206 
 
>  <excitation_energy_2> 
6.479 
 
>  <excitation_energy_3> 
6.525 
 
>  <excitation_energy_4> 
6.588 
 
>  <homo_energy> 
-6.52 
 
>  <homo_lumo_gap> 
7.298 
 
>  <logP> 
3.159 
 
>  <lumo_energy> 
0.778 
 
>  <melting_point> 
-28.38 
 
>  <molecular_refractivity> 
50.8 
 
>  <oscillator_strength_1> 
0.0153 
 
>  <oscillator_strength_2> 
0.0215 
 
>  <oscillator_strength_3> 
0.005 
 
>  <oscillator_strength_4> 
0.0027 
 
>  <open_babel_can_smiles> 
CCCCCOCC/C=C/C 
 
>  <mulliken_charges> 
31 
1   -0.486941 
2   -0.441322 
3   -0.088168 
4   -0.247026 
5   -0.098733 
6   -0.24466 
7   -0.318516 
8   -0.273822 
9   0.001752 
10   -0.007916 
11   -0.478572 
12   0.154206 
13   0.155078 
14   0.151548 
15   0.140126 
16   0.142592 
17   0.140034 
18   0.119748 
19   0.130926 
20   0.126499 
21   0.115241 
22   0.121255 
23   0.151368 
24   0.152867 
25   0.148543 
26   0.141836 
27   0.127953 
28   0.121882 
29   0.113442 
30   0.115139 
31   0.113642 
 
>  <lowdin_charges> 
31 
1   -0.439945 
2   -0.445794 
3   -0.163283 
4   -0.273368 
5   -0.173532 
6   -0.27789 
7   -0.2765 
8   -0.282226 
9   -0.129195 
10   -0.129715 
11   -0.275674 
12   0.156429 
13   0.156447 
14   0.154806 
15   0.148914 
16   0.146989 
17   0.146462 
18   0.147086 
19   0.14004 
20   0.136993 
21   0.145014 
22   0.136361 
23   0.150025 
24   0.155403 
25   0.153258 
26   0.147748 
27   0.143784 
28   0.127709 
29   0.123406 
30   0.126413 
31   0.123839 
 
$$$$ 
 
