PCCDB-ID:  61198 
public computational chemistry database (PCCDB) project, http://pccdb.org 
 
 21 20  0  0  0  0  0  0  0  0999 V2000 
    0.7691    1.5338   -0.3388 C   0  0  0  0  0  0  0  0  0  0  0  0 
    1.8067    1.8314    1.7625 C   0  0  0  0  0  0  0  0  0  0  0  0 
   -0.4259    0.8062   -0.9468 C   0  0  0  0  0  0  0  0  0  0  0  0 
    1.6718    1.4654    3.2266 C   0  0  0  0  0  0  0  0  0  0  0  0 
    0.2098    0.4210   -3.2425 N   0  0  0  0  0  0  0  0  0  0  0  0 
    1.8409   -0.4642    4.6321 N   0  0  0  0  0  0  0  0  0  0  0  0 
    0.9602   -0.4154   -2.7826 O   0  0  0  0  0  0  0  0  0  0  0  0 
    0.0282    0.7498   -4.3873 O   0  0  0  0  0  0  0  0  0  0  0  0 
    2.0435   -1.6519    4.6852 O   0  0  0  0  0  0  0  0  0  0  0  0 
    1.5910    0.3236    5.5234 O   0  0  0  0  0  0  0  0  0  0  0  0 
    0.7172    1.2805    1.0522 O   0  0  0  0  0  0  0  0  0  0  0  0 
   -0.6085    1.1532   -2.3345 O   0  0  0  0  0  0  0  0  0  0  0  0 
    1.9191    0.0454    3.3142 O   0  0  0  0  0  0  0  0  0  0  0  0 
    0.6945    2.6126   -0.5512 H   0  0  0  0  0  0  0  0  0  0  0  0 
    1.7076    1.1605   -0.7733 H   0  0  0  0  0  0  0  0  0  0  0  0 
    2.7647    1.4604    1.3665 H   0  0  0  0  0  0  0  0  0  0  0  0 
    1.8126    2.9317    1.6843 H   0  0  0  0  0  0  0  0  0  0  0  0 
   -1.3537    1.1457   -0.4805 H   0  0  0  0  0  0  0  0  0  0  0  0 
   -0.3344   -0.2750   -0.8317 H   0  0  0  0  0  0  0  0  0  0  0  0 
    0.6676    1.6918    3.5943 H   0  0  0  0  0  0  0  0  0  0  0  0 
    2.4069    2.0076    3.8290 H   0  0  0  0  0  0  0  0  0  0  0  0 
  1 11  1  0  0  0  0 
  2  4  1  0  0  0  0 
  3 19  1  0  0  0  0 
  3 18  1  0  0  0  0 
  3  1  1  0  0  0  0 
  4 13  1  0  0  0  0 
  4 20  1  0  0  0  0 
  4 21  1  0  0  0  0 
  5  7  2  0  0  0  0 
  5 12  1  0  0  0  0 
  6  9  2  0  0  0  0 
  6 10  2  0  0  0  0 
  8  5  2  0  0  0  0 
 11  2  1  0  0  0  0 
 12  3  1  0  0  0  0 
 13  6  1  0  0  0  0 
 14  1  1  0  0  0  0 
 15  1  1  0  0  0  0 
 16  2  1  0  0  0  0 
 17  2  1  0  0  0  0 
M  END 
>  <HBA> 
1 
 
>  <HBD> 
0 
 
>  <TPSA> 
119.33 
 
>  <cid> 
61198 
 
>  <dipole> 
3.5 
 
>  <excitation_energy_1> 
4.716 
 
>  <excitation_energy_2> 
4.725 
 
>  <excitation_energy_3> 
5.035 
 
>  <excitation_energy_4> 
5.184 
 
>  <homo_energy> 
-7.845 
 
>  <homo_lumo_gap> 
5.831 
 
>  <logP> 
0.466 
 
>  <lumo_energy> 
-2.014 
 
>  <melting_point> 
14.12 
 
>  <molecular_refractivity> 
40.81 
 
>  <oscillator_strength_1> 
0.0 
 
>  <oscillator_strength_2> 
0.0001 
 
>  <oscillator_strength_3> 
0.0003 
 
>  <oscillator_strength_4> 
0.0066 
 
>  <open_babel_can_smiles> 
O=N(=O)OCCOCCON(=O)=O 
 
>  <mulliken_charges> 
21 
1   -0.030229 
2   -0.033285 
3   -0.072154 
4   -0.047287 
5   0.743137 
6   0.753484 
7   -0.364908 
8   -0.343794 
9   -0.351426 
10   -0.369656 
11   -0.475293 
12   -0.37432 
13   -0.374314 
14   0.141851 
15   0.15437 
16   0.154295 
17   0.142125 
18   0.189588 
19   0.198402 
20   0.185308 
21   0.174106 
 
>  <lowdin_charges> 
21 
1   -0.139844 
2   -0.129487 
3   -0.144121 
4   -0.142315 
5   0.372769 
6   0.373187 
7   -0.216452 
8   -0.182551 
9   -0.187658 
10   -0.2213 
11   -0.266159 
12   -0.182195 
13   -0.180033 
14   0.135886 
15   0.144962 
16   0.146655 
17   0.140669 
18   0.175625 
19   0.170847 
20   0.166508 
21   0.165009 
 
$$$$ 
 
