PCCDB-ID:  62136 
public computational chemistry database (PCCDB) project, http://pccdb.org 
 
 27 26  0  0  1  0  0  0  0  0999 V2000 
    1.0355   -0.2265    0.0220 C   0  0  0  0  0  0  0  0  0  0  0  0 
    5.2805    2.1141    0.3247 C   0  0  0  0  0  0  0  0  0  0  0  0 
    2.8069    0.6693   -2.9000 C   0  0  0  0  0  0  0  0  0  0  0  0 
    4.6837    0.8612   -0.3259 C   0  0  0  0  0  0  0  0  0  0  0  0 
    2.6957    1.5147   -1.6164 C   0  0  0  0  0  0  0  0  0  0  0  0 
    2.5603   -0.2754    0.1391 C   0  0  1  0  0  0  0  0  0  0  0  0 
    6.7451    2.0471    0.2907 N   0  0  0  0  0  0  0  0  0  0  0  0 
    2.2797    1.4423   -4.0303 N   0  0  0  0  0  0  0  0  0  0  0  0 
    3.2149    0.9199   -0.3839 N   0  0  0  0  0  0  0  0  0  0  0  0 
    2.9361   -0.4344    1.5050 O   0  0  0  0  0  0  0  0  0  0  0  0 
    0.6833   -0.2899   -1.0124 H   0  0  0  0  0  0  0  0  0  0  0  0 
    0.6450    0.6962    0.4682 H   0  0  0  0  0  0  0  0  0  0  0  0 
    0.6264   -1.0769    0.5741 H   0  0  0  0  0  0  0  0  0  0  0  0 
    4.8466    2.2182    1.3356 H   0  0  0  0  0  0  0  0  0  0  0  0 
    4.9721    3.0018   -0.2412 H   0  0  0  0  0  0  0  0  0  0  0  0 
    2.3110   -0.3070   -2.7508 H   0  0  0  0  0  0  0  0  0  0  0  0 
    3.8612    0.4544   -3.1079 H   0  0  0  0  0  0  0  0  0  0  0  0 
    4.9686   -0.0118    0.2700 H   0  0  0  0  0  0  0  0  0  0  0  0 
    5.1356    0.7363   -1.3203 H   0  0  0  0  0  0  0  0  0  0  0  0 
    1.6460    1.7919   -1.4619 H   0  0  0  0  0  0  0  0  0  0  0  0 
    3.2297    2.4549   -1.7905 H   0  0  0  0  0  0  0  0  0  0  0  0 
    2.9282   -1.2017   -0.3344 H   0  0  0  0  0  0  0  0  0  0  0  0 
    7.0677    1.3150    0.9230 H   0  0  0  0  0  0  0  0  0  0  0  0 
    7.1405    2.9161    0.6451 H   0  0  0  0  0  0  0  0  0  0  0  0 
    1.2673    1.5282   -3.9465 H   0  0  0  0  0  0  0  0  0  0  0  0 
    2.4478    0.9443   -4.9024 H   0  0  0  0  0  0  0  0  0  0  0  0 
    2.7789    0.4354    1.9130 H   0  0  0  0  0  0  0  0  0  0  0  0 
  1  6  1  0  0  0  0 
  1 12  1  0  0  0  0 
  1 13  1  0  0  0  0 
  2 14  1  0  0  0  0 
  3 16  1  0  0  0  0 
  3  5  1  0  0  0  0 
  4 18  1  0  0  0  0 
  4  2  1  0  0  0  0 
  5 20  1  0  0  0  0 
  5  9  1  0  0  0  0 
  6 22  1  6  0  0  0 
  6 10  1  0  0  0  0 
  7  2  1  0  0  0  0 
  7 24  1  0  0  0  0 
  7 23  1  0  0  0  0 
  8 25  1  0  0  0  0 
  8  3  1  0  0  0  0 
  9  4  1  0  0  0  0 
  9  6  1  0  0  0  0 
 10 27  1  0  0  0  0 
 11  1  1  0  0  0  0 
 15  2  1  0  0  0  0 
 17  3  1  0  0  0  0 
 19  4  1  0  0  0  0 
 21  5  1  0  0  0  0 
 26  8  1  0  0  0  0 
M  END 
>  <HBA> 
4 
 
>  <HBD> 
3 
 
>  <TPSA> 
75.51 
 
>  <cid> 
62136 
 
>  <dipole> 
1.28 
 
>  <excitation_energy_1> 
5.092 
 
>  <excitation_energy_2> 
5.324 
 
>  <excitation_energy_3> 
5.533 
 
>  <excitation_energy_4> 
5.631 
 
>  <homo_energy> 
-5.63 
 
>  <homo_lumo_gap> 
7.535 
 
>  <logP> 
-0.055 
 
>  <lumo_energy> 
1.905 
 
>  <melting_point> 
103.19 
 
>  <molecular_refractivity> 
40.43 
 
>  <oscillator_strength_1> 
0.0051 
 
>  <oscillator_strength_2> 
0.0276 
 
>  <oscillator_strength_3> 
0.0117 
 
>  <oscillator_strength_4> 
0.0115 
 
>  <open_babel_can_smiles> 
NCCN([C@@H](O)C)CCN 
 
>  <mulliken_charges> 
27 
1   -0.475477 
2   -0.128972 
3   -0.153724 
4   -0.135229 
5   -0.135838 
6   0.269079 
7   -0.720466 
8   -0.716996 
9   -0.420595 
10   -0.61833 
11   0.143593 
12   0.144831 
13   0.163792 
14   0.108331 
15   0.140375 
16   0.117063 
17   0.148962 
18   0.153848 
19   0.14245 
20   0.134698 
21   0.159284 
22   0.119306 
23   0.293797 
24   0.296993 
25   0.292363 
26   0.299125 
27   0.377736 
 
>  <lowdin_charges> 
27 
1   -0.46673 
2   -0.209776 
3   -0.22259 
4   -0.210954 
5   -0.210061 
6   0.054601 
7   -0.5618 
8   -0.554238 
9   -0.19776 
10   -0.462577 
11   0.150029 
12   0.151108 
13   0.165429 
14   0.114309 
15   0.141988 
16   0.116531 
17   0.144269 
18   0.154273 
19   0.137885 
20   0.140721 
21   0.154765 
22   0.122313 
23   0.253162 
24   0.256259 
25   0.248736 
26   0.256985 
27   0.333123 
 
$$$$ 
 
