PCCDB-ID:  10300 
public computational chemistry database (PCCDB) project, http://pccdb.org 
 
 20 20  0  0  0  0  0  0  0  0999 V2000 
    0.4739    1.4035    0.3368 C   0  0  0  0  0  0  0  0  0  0  0  0 
    1.4396    0.4008   -0.3080 C   0  0  0  0  0  0  0  0  0  0  0  0 
   -0.9805    1.1181   -0.0703 C   0  0  0  0  0  0  0  0  0  0  0  0 
    1.1199   -1.0340    0.1343 C   0  0  0  0  0  0  0  0  0  0  0  0 
   -1.3241   -0.3445    0.0236 C   0  0  0  0  0  0  0  0  0  0  0  0 
   -0.3557   -1.3285    0.0588 C   0  0  0  0  0  0  0  0  0  0  0  0 
   -2.6494   -0.6794    0.1508 N   0  0  0  0  0  0  0  0  0  0  0  0 
   -0.8466   -2.6284    0.0044 N   0  0  0  0  0  0  0  0  0  0  0  0 
   -3.5396    0.1371   -0.5980 O   0  0  0  0  0  0  0  0  0  0  0  0 
   -0.0020   -3.5314    0.1038 O   0  0  0  0  0  0  0  0  0  0  0  0 
    0.7328    2.4309    0.0559 H   0  0  0  0  0  0  0  0  0  0  0  0 
    0.5630    1.3423    1.4301 H   0  0  0  0  0  0  0  0  0  0  0  0 
    2.4757    0.6507   -0.0513 H   0  0  0  0  0  0  0  0  0  0  0  0 
    1.3586    0.4741   -1.4016 H   0  0  0  0  0  0  0  0  0  0  0  0 
   -1.1564    1.4376   -1.1075 H   0  0  0  0  0  0  0  0  0  0  0  0 
   -1.6853    1.6954    0.5388 H   0  0  0  0  0  0  0  0  0  0  0  0 
    1.4758   -1.2037    1.1616 H   0  0  0  0  0  0  0  0  0  0  0  0 
    1.6484   -1.7709   -0.4801 H   0  0  0  0  0  0  0  0  0  0  0  0 
   -2.8250   -1.6684   -0.0358 H   0  0  0  0  0  0  0  0  0  0  0  0 
   -4.1723    0.4502    0.0702 H   0  0  0  0  0  0  0  0  0  0  0  0 
  1 12  1  0  0  0  0 
  2 13  1  0  0  0  0 
  2  4  1  0  0  0  0 
  2  1  1  0  0  0  0 
  3  5  1  0  0  0  0 
  3  1  1  0  0  0  0 
  3 16  1  0  0  0  0 
  4 17  1  0  0  0  0 
  5  6  2  0  0  0  0 
  5  7  1  0  0  0  0 
  6  4  1  0  0  0  0 
  8  6  1  0  0  0  0 
  8 10  2  0  0  0  0 
  9 20  1  0  0  0  0 
  9  7  1  0  0  0  0 
 11  1  1  0  0  0  0 
 14  2  1  0  0  0  0 
 15  3  1  0  0  0  0 
 18  4  1  0  0  0  0 
 19  7  1  0  0  0  0 
M  END 
>  <HBA> 
4 
 
>  <HBD> 
2 
 
>  <TPSA> 
61.69 
 
>  <cid> 
10300 
 
>  <dipole> 
4.89 
 
>  <excitation_energy_1> 
1.685 
 
>  <excitation_energy_2> 
4.081 
 
>  <excitation_energy_3> 
4.616 
 
>  <excitation_energy_4> 
4.971 
 
>  <homo_energy> 
-5.255 
 
>  <homo_lumo_gap> 
3.333 
 
>  <logP> 
1.908 
 
>  <lumo_energy> 
-1.921 
 
>  <melting_point> 
112.78 
 
>  <molecular_refractivity> 
36.64 
 
>  <oscillator_strength_1> 
0.0004 
 
>  <oscillator_strength_2> 
0.2573 
 
>  <oscillator_strength_3> 
0.0009 
 
>  <oscillator_strength_4> 
0.0192 
 
>  <open_babel_can_smiles> 
O=NC1=C(NO)CCCC1 
 
>  <mulliken_charges> 
20 
1   -0.272594 
2   -0.274555 
3   -0.328672 
4   -0.320568 
5   0.33686 
6   0.21888 
7   -0.40832 
8   -0.114796 
9   -0.499964 
10   -0.354549 
11   0.142132 
12   0.145862 
13   0.14105 
14   0.141573 
15   0.182137 
16   0.155572 
17   0.155987 
18   0.169378 
19   0.362053 
20   0.422535 
 
>  <lowdin_charges> 
20 
1   -0.271726 
2   -0.272152 
3   -0.279564 
4   -0.281938 
5   0.08189 
6   -0.075789 
7   -0.152668 
8   -0.001811 
9   -0.389238 
10   -0.241812 
11   0.149147 
12   0.143892 
13   0.148515 
14   0.141628 
15   0.17087 
16   0.16211 
17   0.154129 
18   0.168078 
19   0.286151 
20   0.360288 
 
$$$$ 
 
