PCCDB-ID:  65288 
public computational chemistry database (PCCDB) project, http://pccdb.org 
 
 16 16  0  0  0  0  0  0  0  0999 V2000 
    3.0021    0.8369    0.5231 C   0  0  0  0  0  0  0  0  0  0  0  0 
    1.9904   -0.0715   -0.1722 C   0  0  0  0  0  0  0  0  0  0  0  0 
   -0.1063   -3.1318   -2.3606 C   0  0  0  0  0  0  0  0  0  0  0  0 
    0.7909   -4.0748   -2.7954 C   0  0  0  0  0  0  0  0  0  0  0  0 
    2.6305   -1.2881   -0.8156 C   0  0  0  0  0  0  0  0  0  0  0  0 
    1.7232   -2.2287   -1.5265 C   0  0  0  0  0  0  0  0  0  0  0  0 
    0.4271   -2.0943   -1.6466 N   0  0  0  0  0  0  0  0  0  0  0  0 
    3.8288   -1.5197   -0.7733 O   0  0  0  0  0  0  0  0  0  0  0  0 
    2.3890   -3.6623   -2.2954 S   0  0  0  0  0  0  0  0  0  0  0  0 
    2.4951    1.6991    0.9684 H   0  0  0  0  0  0  0  0  0  0  0  0 
    3.7530    1.2045   -0.1828 H   0  0  0  0  0  0  0  0  0  0  0  0 
    3.5341    0.3018    1.3155 H   0  0  0  0  0  0  0  0  0  0  0  0 
    1.4310    0.4654   -0.9499 H   0  0  0  0  0  0  0  0  0  0  0  0 
    1.2206   -0.4279    0.5255 H   0  0  0  0  0  0  0  0  0  0  0  0 
   -1.1745   -3.1583   -2.5438 H   0  0  0  0  0  0  0  0  0  0  0  0 
    0.5907   -4.9695   -3.3693 H   0  0  0  0  0  0  0  0  0  0  0  0 
  1 10  1  0  0  0  0 
  1 12  1  0  0  0  0 
  2  1  1  0  0  0  0 
  2 14  1  0  0  0  0 
  3  7  1  0  0  0  0 
  4  3  2  0  0  0  0 
  4  9  1  0  0  0  0 
  5  8  2  0  0  0  0 
  5  2  1  0  0  0  0 
  6  5  1  0  0  0  0 
  7  6  2  0  0  0  0 
  9  6  1  0  0  0  0 
 11  1  1  0  0  0  0 
 13  2  1  0  0  0  0 
 15  3  1  0  0  0  0 
 16  4  1  0  0  0  0 
M  END 
>  <HBA> 
3 
 
>  <HBD> 
0 
 
>  <TPSA> 
58.2 
 
>  <cid> 
65288 
 
>  <dipole> 
2.51 
 
>  <excitation_energy_1> 
3.572 
 
>  <excitation_energy_2> 
4.52 
 
>  <excitation_energy_3> 
4.661 
 
>  <excitation_energy_4> 
5.434 
 
>  <homo_energy> 
-7.056 
 
>  <homo_lumo_gap> 
4.977 
 
>  <logP> 
1.736 
 
>  <lumo_energy> 
-2.079 
 
>  <melting_point> 
52.28 
 
>  <molecular_refractivity> 
37.12 
 
>  <oscillator_strength_1> 
0.0 
 
>  <oscillator_strength_2> 
0.1782 
 
>  <oscillator_strength_3> 
0.0003 
 
>  <oscillator_strength_4> 
0.0766 
 
>  <open_babel_can_smiles> 
CCC(=O)c1nccs1 
 
>  <mulliken_charges> 
16 
1   -0.438135 
2   -0.344776 
3   0.059083 
4   -0.344433 
5   0.446655 
6   0.009615 
7   -0.405176 
8   -0.453668 
9   0.301294 
10   0.143838 
11   0.161295 
12   0.161433 
13   0.177752 
14   0.177625 
15   0.159705 
16   0.187895 
 
>  <lowdin_charges> 
16 
1   -0.443214 
2   -0.300471 
3   -0.125934 
4   -0.31958 
5   0.15574 
6   -0.135994 
7   -0.13947 
8   -0.227872 
9   0.354235 
10   0.153391 
11   0.160011 
12   0.160129 
13   0.174032 
14   0.173893 
15   0.16916 
16   0.191944 
 
$$$$ 
 
