PCCDB-ID:  7406 
public computational chemistry database (PCCDB) project, http://pccdb.org 
 
 21 21  0  0  0  0  0  0  0  0999 V2000 
    0.9091    0.2392    0.1443 C   0  0  0  0  0  0  0  0  0  0  0  0 
    3.0635    1.0950   -0.8915 C   0  0  0  0  0  0  0  0  0  0  0  0 
    4.2009    0.4635    4.0668 C   0  0  0  0  0  0  0  0  0  0  0  0 
    4.3289   -0.7216    3.3426 C   0  0  0  0  0  0  0  0  0  0  0  0 
    3.5016    1.5360    3.5085 C   0  0  0  0  0  0  0  0  0  0  0  0 
    3.7617   -0.8297    2.0710 C   0  0  0  0  0  0  0  0  0  0  0  0 
    2.9365    1.4212    2.2387 C   0  0  0  0  0  0  0  0  0  0  0  0 
    2.4430    0.1018    0.1094 C   0  0  0  0  0  0  0  0  0  0  0  0 
    3.0567    0.2359    1.4974 C   0  0  0  0  0  0  0  0  0  0  0  0 
    0.4836    0.0839   -0.8545 H   0  0  0  0  0  0  0  0  0  0  0  0 
    0.6068    1.2373    0.4831 H   0  0  0  0  0  0  0  0  0  0  0  0 
    0.4609   -0.4934    0.8244 H   0  0  0  0  0  0  0  0  0  0  0  0 
    2.6509    0.9407   -1.8957 H   0  0  0  0  0  0  0  0  0  0  0  0 
    4.1510    0.9749   -0.9466 H   0  0  0  0  0  0  0  0  0  0  0  0 
    2.8568    2.1326   -0.6031 H   0  0  0  0  0  0  0  0  0  0  0  0 
    4.6410    0.5522    5.0565 H   0  0  0  0  0  0  0  0  0  0  0  0 
    4.8713   -1.5637    3.7651 H   0  0  0  0  0  0  0  0  0  0  0  0 
    3.3954    2.4645    4.0640 H   0  0  0  0  0  0  0  0  0  0  0  0 
    3.8669   -1.7582    1.5133 H   0  0  0  0  0  0  0  0  0  0  0  0 
    2.3953    2.2663    1.8199 H   0  0  0  0  0  0  0  0  0  0  0  0 
    2.6742   -0.9112   -0.2475 H   0  0  0  0  0  0  0  0  0  0  0  0 
  1 11  1  0  0  0  0 
  1 12  1  0  0  0  0 
  2 15  1  0  0  0  0 
  2  8  1  0  0  0  0 
  3 16  1  0  0  0  0 
  4 17  1  0  0  0  0 
  4  3  2  0  0  0  0 
  5 18  1  0  0  0  0 
  5  3  1  0  0  0  0 
  6  4  1  0  0  0  0 
  7  5  2  0  0  0  0 
  8  1  1  0  0  0  0 
  8  9  1  0  0  0  0 
  9  6  2  0  0  0  0 
  9  7  1  0  0  0  0 
 10  1  1  0  0  0  0 
 13  2  1  0  0  0  0 
 14  2  1  0  0  0  0 
 19  6  1  0  0  0  0 
 20  7  1  0  0  0  0 
 21  8  1  0  0  0  0 
M  END 
>  <HBA> 
0 
 
>  <HBD> 
0 
 
>  <TPSA> 
0.0 
 
>  <cid> 
7406 
 
>  <dipole> 
0.27 
 
>  <excitation_energy_1> 
5.315 
 
>  <excitation_energy_2> 
5.938 
 
>  <excitation_energy_3> 
5.976 
 
>  <excitation_energy_4> 
6.186 
 
>  <homo_energy> 
-6.414 
 
>  <homo_lumo_gap> 
6.536 
 
>  <logP> 
2.81 
 
>  <lumo_energy> 
0.122 
 
>  <melting_point> 
5.82 
 
>  <molecular_refractivity> 
41.02 
 
>  <oscillator_strength_1> 
0.0013 
 
>  <oscillator_strength_2> 
0.0247 
 
>  <oscillator_strength_3> 
0.0006 
 
>  <oscillator_strength_4> 
0.0 
 
>  <open_babel_can_smiles> 
CC(c1ccccc1)C 
 
>  <mulliken_charges> 
21 
1   -0.438284 
2   -0.438026 
3   -0.13232 
4   -0.12496 
5   -0.129024 
6   -0.197554 
7   -0.185097 
8   -0.160051 
9   0.187918 
10   0.140507 
11   0.143052 
12   0.149639 
13   0.140511 
14   0.149613 
15   0.142956 
16   0.126168 
17   0.12637 
18   0.126383 
19   0.121288 
20   0.123063 
21   0.127849 
 
>  <lowdin_charges> 
21 
1   -0.442173 
2   -0.437918 
3   -0.161315 
4   -0.157058 
5   -0.155734 
6   -0.171116 
7   -0.167424 
8   -0.117502 
9   0.001385 
10   0.147539 
11   0.146843 
12   0.153992 
13   0.147312 
14   0.150863 
15   0.146178 
16   0.15532 
17   0.156972 
18   0.155959 
19   0.153084 
20   0.154205 
21   0.140588 
 
$$$$ 
 
