PCCDB-ID:  70355 
public computational chemistry database (PCCDB) project, http://pccdb.org 
 
 31 32  0  0  0  0  0  0  0  0999 V2000 
    1.2853    0.3302   -4.2508 C   0  0  0  0  0  0  0  0  0  0  0  0 
    4.6631   -0.1856    2.4414 C   0  0  0  0  0  0  0  0  0  0  0  0 
    0.4275    0.3815   -3.1485 C   0  0  0  0  0  0  0  0  0  0  0  0 
    2.6286    0.6783   -4.1011 C   0  0  0  0  0  0  0  0  0  0  0  0 
    4.3974   -0.7734    1.0485 C   0  0  0  0  0  0  0  0  0  0  0  0 
    3.9857    1.1822    2.5999 C   0  0  0  0  0  0  0  0  0  0  0  0 
    0.9148    0.7768   -1.9069 C   0  0  0  0  0  0  0  0  0  0  0  0 
    3.1228    1.0689   -2.8564 C   0  0  0  0  0  0  0  0  0  0  0  0 
    4.8553    0.1877   -0.0593 C   0  0  0  0  0  0  0  0  0  0  0  0 
    4.3801    2.1456    1.4676 C   0  0  0  0  0  0  0  0  0  0  0  0 
    2.2690    1.1182   -1.7401 C   0  0  0  0  0  0  0  0  0  0  0  0 
    2.6926    1.5233   -0.3531 C   0  0  0  0  0  0  0  0  0  0  0  0 
    4.1954    1.5767    0.0463 C   0  0  0  0  0  0  0  0  0  0  0  0 
    1.8367    1.8036    0.4760 O   0  0  0  0  0  0  0  0  0  0  0  0 
    4.8935    2.4170   -0.8945 O   0  0  0  0  0  0  0  0  0  0  0  0 
    0.9068    0.0238   -5.2225 H   0  0  0  0  0  0  0  0  0  0  0  0 
    5.7490   -0.0798    2.5845 H   0  0  0  0  0  0  0  0  0  0  0  0 
    4.3105   -0.8752    3.2186 H   0  0  0  0  0  0  0  0  0  0  0  0 
   -0.6197    0.1130   -3.2586 H   0  0  0  0  0  0  0  0  0  0  0  0 
    3.2961    0.6522   -4.9583 H   0  0  0  0  0  0  0  0  0  0  0  0 
    3.3242   -0.9857    0.9389 H   0  0  0  0  0  0  0  0  0  0  0  0 
    4.9157   -1.7328    0.9296 H   0  0  0  0  0  0  0  0  0  0  0  0 
    4.2579    1.6308    3.5637 H   0  0  0  0  0  0  0  0  0  0  0  0 
    2.8979    1.0592    2.6011 H   0  0  0  0  0  0  0  0  0  0  0  0 
    0.2616    0.8294   -1.0423 H   0  0  0  0  0  0  0  0  0  0  0  0 
    4.1590    1.3648   -2.7518 H   0  0  0  0  0  0  0  0  0  0  0  0 
    4.6694   -0.2433   -1.0478 H   0  0  0  0  0  0  0  0  0  0  0  0 
    5.9382    0.3541    0.0174 H   0  0  0  0  0  0  0  0  0  0  0  0 
    5.4459    2.3963    1.5522 H   0  0  0  0  0  0  0  0  0  0  0  0 
    3.8122    3.0797    1.5597 H   0  0  0  0  0  0  0  0  0  0  0  0 
    4.5632    3.3233   -0.7771 H   0  0  0  0  0  0  0  0  0  0  0  0 
  1  4  2  0  0  0  0 
  1  3  1  0  0  0  0 
  2 17  1  0  0  0  0 
  2  6  1  0  0  0  0 
  2 18  1  0  0  0  0 
  3  7  2  0  0  0  0 
  4  8  1  0  0  0  0 
  5  2  1  0  0  0  0 
  6 24  1  0  0  0  0 
  6 23  1  0  0  0  0 
  7 11  1  0  0  0  0 
  7 25  1  0  0  0  0 
  8 26  1  0  0  0  0 
  8 11  2  0  0  0  0 
  9 28  1  0  0  0  0 
  9 13  1  0  0  0  0 
  9  5  1  0  0  0  0 
 10 29  1  0  0  0  0 
 10 30  1  0  0  0  0 
 10  6  1  0  0  0  0 
 11 12  1  0  0  0  0 
 12 13  1  0  0  0  0 
 12 14  2  0  0  0  0 
 13 10  1  0  0  0  0 
 15 31  1  0  0  0  0 
 15 13  1  0  0  0  0 
 16  1  1  0  0  0  0 
 19  3  1  0  0  0  0 
 20  4  1  0  0  0  0 
 21  5  1  0  0  0  0 
 22  5  1  0  0  0  0 
 27  9  1  0  0  0  0 
M  END 
>  <HBA> 
2 
 
>  <HBD> 
1 
 
>  <TPSA> 
37.3 
 
>  <cid> 
70355 
 
>  <dipole> 
1.28 
 
>  <excitation_energy_1> 
3.526 
 
>  <excitation_energy_2> 
4.565 
 
>  <excitation_energy_3> 
4.882 
 
>  <excitation_energy_4> 
5.233 
 
>  <homo_energy> 
-6.482 
 
>  <homo_lumo_gap> 
4.95 
 
>  <logP> 
2.564 
 
>  <lumo_energy> 
-1.532 
 
>  <melting_point> 
87.11 
 
>  <molecular_refractivity> 
59.76 
 
>  <oscillator_strength_1> 
0.0004 
 
>  <oscillator_strength_2> 
0.0175 
 
>  <oscillator_strength_3> 
0.2432 
 
>  <oscillator_strength_4> 
0.015 
 
>  <open_babel_can_smiles> 
O=C(C1(O)CCCCC1)c1ccccc1 
 
>  <mulliken_charges> 
31 
1   -0.117321 
2   -0.255693 
3   -0.134903 
4   -0.140092 
5   -0.270287 
6   -0.270539 
7   -0.153223 
8   -0.179498 
9   -0.285341 
10   -0.28416 
11   0.057835 
12   0.378754 
13   0.22797 
14   -0.467839 
15   -0.643987 
16   0.135616 
17   0.126791 
18   0.132701 
19   0.135807 
20   0.135106 
21   0.141481 
22   0.136927 
23   0.129703 
24   0.164158 
25   0.159478 
26   0.176427 
27   0.147841 
28   0.148964 
29   0.138482 
30   0.13442 
31   0.39442 
 
>  <lowdin_charges> 
31 
1   -0.139528 
2   -0.277088 
3   -0.156516 
4   -0.16167 
5   -0.277322 
6   -0.279838 
7   -0.13187 
8   -0.149496 
9   -0.280064 
10   -0.287829 
11   -0.051276 
12   0.143578 
13   0.090343 
14   -0.240613 
15   -0.446503 
16   0.160085 
17   0.134453 
18   0.146412 
19   0.159039 
20   0.160715 
21   0.141941 
22   0.147925 
23   0.144535 
24   0.153284 
25   0.174978 
26   0.177453 
27   0.154214 
28   0.151409 
29   0.145611 
30   0.148589 
31   0.345051 
 
$$$$ 
 
