PCCDB-ID:  26311 
public computational chemistry database (PCCDB) project, http://pccdb.org 
 
 16 15  0  0  0  0  0  0  0  0999 V2000 
    1.1438   -0.6938    0.5170 C   0  0  0  0  0  0  0  0  0  0  0  0 
    5.4611   -0.0483   -0.0302 C   0  0  0  0  0  0  0  0  0  0  0  0 
    3.2710   -0.4861   -0.8446 C   0  0  0  0  0  0  0  0  0  0  0  0 
    6.4248    0.7752   -0.1284 N   0  0  0  0  0  0  0  0  0  0  0  0 
    4.5245   -0.3477   -1.0212 N   0  0  0  0  0  0  0  0  0  0  0  0 
    3.0018    0.8086    1.0934 N   0  0  0  0  0  0  0  0  0  0  0  0 
    2.4806   -0.1526    0.2607 N   0  0  0  0  0  0  0  0  0  0  0  0 
    5.3371   -0.8296    1.0759 O   0  0  0  0  0  0  0  0  0  0  0  0 
    2.5064   -0.9798   -1.8412 O   0  0  0  0  0  0  0  0  0  0  0  0 
    2.2692    1.0867    2.0190 O   0  0  0  0  0  0  0  0  0  0  0  0 
    0.9593   -1.5081   -0.1787 H   0  0  0  0  0  0  0  0  0  0  0  0 
    0.3900    0.0889    0.3918 H   0  0  0  0  0  0  0  0  0  0  0  0 
    1.1069   -1.0508    1.5487 H   0  0  0  0  0  0  0  0  0  0  0  0 
    6.3865    1.2583   -1.0257 H   0  0  0  0  0  0  0  0  0  0  0  0 
    6.0538   -0.5412    1.6697 H   0  0  0  0  0  0  0  0  0  0  0  0 
    3.1320   -1.2391   -2.5426 H   0  0  0  0  0  0  0  0  0  0  0  0 
  1 13  1  0  0  0  0 
  2  8  1  0  0  0  0 
  3  7  1  0  0  0  0 
  4  2  1  0  0  0  0 
  5  3  2  0  0  0  0 
  5  2  2  0  0  0  0 
  6 10  1  0  0  0  0 
  7  1  1  0  0  0  0 
  7  6  1  0  0  0  0 
  8 15  1  0  0  0  0 
  9  3  1  0  0  0  0 
 11  1  1  0  0  0  0 
 12  1  1  0  0  0  0 
 14  4  1  0  0  0  0 
 16  9  1  0  0  0  0 
M  RAD  3   4   2   6   2  10   2 
M  END 
>  <HBA> 
7 
 
>  <HBD> 
2 
 
>  <TPSA> 
104.86 
 
>  <cid> 
26311 
 
>  <dipole> 
4.08 
 
>  <excitation_energy_1> 
3.081 
 
>  <excitation_energy_2> 
3.99 
 
>  <excitation_energy_3> 
4.465 
 
>  <excitation_energy_4> 
5.219 
 
>  <homo_energy> 
-6.83 
 
>  <homo_lumo_gap> 
4.738 
 
>  <logP> 
0.479 
 
>  <lumo_energy> 
-2.093 
 
>  <melting_point> 
141.99 
 
>  <molecular_refractivity> 
30.86 
 
>  <oscillator_strength_1> 
0.0011 
 
>  <oscillator_strength_2> 
0.0256 
 
>  <oscillator_strength_3> 
0.0271 
 
>  <oscillator_strength_4> 
0.0629 
 
>  <open_babel_can_smiles> 
[O][N]N(C(=[N]=C(O)[NH])O)C 
 
>  <mulliken_charges> 
16 
1   -0.32007 
2   0.606859 
3   0.724618 
4   -0.624914 
5   -0.511577 
6   0.2024 
7   -0.307511 
8   -0.58779 
9   -0.587027 
10   -0.329423 
11   0.199027 
12   0.19087 
13   0.197907 
14   0.294142 
15   0.419846 
16   0.432641 
 
>  <lowdin_charges> 
16 
1   -0.363001 
2   0.157079 
3   0.190706 
4   -0.436705 
5   -0.231968 
6   0.096338 
7   -0.035995 
8   -0.379206 
9   -0.344489 
10   -0.20014 
11   0.184314 
12   0.174192 
13   0.177499 
14   0.265134 
15   0.369078 
16   0.377163 
 
$$$$ 
 
