PCCDB-ID:  72909 
public computational chemistry database (PCCDB) project, http://pccdb.org 
 
 20 21  0  0  0  0  0  0  0  0999 V2000 
    2.4382    0.7174    0.0322 C   0  0  0  0  0  0  0  0  0  0  0  0 
    2.4499   -0.6814    0.0233 C   0  0  0  0  0  0  0  0  0  0  0  0 
    1.2281    1.4123    0.0322 C   0  0  0  0  0  0  0  0  0  0  0  0 
    1.2489   -1.3872    0.0144 C   0  0  0  0  0  0  0  0  0  0  0  0 
   -2.5103    0.7063    0.0060 C   0  0  0  0  0  0  0  0  0  0  0  0 
    0.0204    0.7141    0.0225 C   0  0  0  0  0  0  0  0  0  0  0  0 
    0.0329   -0.6933    0.0131 C   0  0  0  0  0  0  0  0  0  0  0  0 
   -2.5245   -0.6589   -0.0128 C   0  0  0  0  0  0  0  0  0  0  0  0 
   -1.2769    1.4745    0.0226 C   0  0  0  0  0  0  0  0  0  0  0  0 
   -1.2383   -1.4483    0.0045 C   0  0  0  0  0  0  0  0  0  0  0  0 
   -3.6239   -1.4466   -0.0565 N   0  0  0  0  0  0  0  0  0  0  0  0 
   -1.2745    2.7062    0.0357 O   0  0  0  0  0  0  0  0  0  0  0  0 
   -1.2916   -2.6743    0.0173 O   0  0  0  0  0  0  0  0  0  0  0  0 
    3.3759    1.2666    0.0394 H   0  0  0  0  0  0  0  0  0  0  0  0 
    3.3942   -1.2184    0.0233 H   0  0  0  0  0  0  0  0  0  0  0  0 
    1.1934    2.4968    0.0402 H   0  0  0  0  0  0  0  0  0  0  0  0 
    1.2304   -2.4722    0.0082 H   0  0  0  0  0  0  0  0  0  0  0  0 
   -3.4318    1.2820    0.0007 H   0  0  0  0  0  0  0  0  0  0  0  0 
   -4.5516   -1.0668    0.0457 H   0  0  0  0  0  0  0  0  0  0  0  0 
   -3.4799   -2.4446    0.0223 H   0  0  0  0  0  0  0  0  0  0  0  0 
  1  3  1  0  0  0  0 
  1 14  1  0  0  0  0 
  2 15  1  0  0  0  0 
  2  1  2  0  0  0  0 
  3 16  1  0  0  0  0 
  4  2  1  0  0  0  0 
  5  9  1  0  0  0  0 
  6  9  1  0  0  0  0 
  6  3  2  0  0  0  0 
  7  4  2  0  0  0  0 
  7  6  1  0  0  0  0 
  8 10  1  0  0  0  0 
  8  5  2  0  0  0  0 
  9 12  2  0  0  0  0 
 10  7  1  0  0  0  0 
 10 13  2  0  0  0  0 
 11  8  1  0  0  0  0 
 11 20  1  0  0  0  0 
 11 19  1  0  0  0  0 
 17  4  1  0  0  0  0 
 18  5  1  0  0  0  0 
M  END 
>  <HBA> 
3 
 
>  <HBD> 
1 
 
>  <TPSA> 
60.16 
 
>  <cid> 
72909 
 
>  <dipole> 
2.2 
 
>  <excitation_energy_1> 
2.768 
 
>  <excitation_energy_2> 
2.817 
 
>  <excitation_energy_3> 
3.376 
 
>  <excitation_energy_4> 
3.722 
 
>  <homo_energy> 
-6.221 
 
>  <homo_lumo_gap> 
3.45 
 
>  <logP> 
1.609 
 
>  <lumo_energy> 
-2.77 
 
>  <melting_point> 
164.15 
 
>  <molecular_refractivity> 
46.95 
 
>  <oscillator_strength_1> 
0.0002 
 
>  <oscillator_strength_2> 
0.0243 
 
>  <oscillator_strength_3> 
0.0 
 
>  <oscillator_strength_4> 
0.0552 
 
>  <open_babel_can_smiles> 
O=C1C=C(N)C(=O)c2c1cccc2 
 
>  <mulliken_charges> 
20 
1   -0.120273 
2   -0.129601 
3   -0.179712 
4   -0.169611 
5   -0.286932 
6   0.044346 
7   0.047703 
8   0.355761 
9   0.408574 
10   0.3586 
11   -0.800213 
12   -0.504318 
13   -0.491705 
14   0.144879 
15   0.143519 
16   0.169721 
17   0.164714 
18   0.136097 
19   0.345193 
20   0.363259 
 
>  <lowdin_charges> 
20 
1   -0.134898 
2   -0.14693 
3   -0.129573 
4   -0.123751 
5   -0.251644 
6   -0.024339 
7   -0.04499 
8   0.050288 
9   0.139523 
10   0.153218 
11   -0.430064 
12   -0.261146 
13   -0.241998 
14   0.165322 
15   0.164788 
16   0.178535 
17   0.175036 
18   0.168821 
19   0.293504 
20   0.300301 
 
$$$$ 
 
