PCCDB-ID:  21343 
public computational chemistry database (PCCDB) project, http://pccdb.org 
 
 21 21  0  0  0  0  0  0  0  0999 V2000 
    0.9639    0.1404    0.1515 C   0  0  0  0  0  0  0  0  0  0  0  0 
    3.1802    1.2231   -0.1419 C   0  0  0  0  0  0  0  0  0  0  0  0 
    4.5707   -1.1560   -0.2971 C   0  0  0  0  0  0  0  0  0  0  0  0 
    2.4573    0.0460   -0.0365 C   0  0  0  0  0  0  0  0  0  0  0  0 
    4.5856    1.2889   -0.3197 C   0  0  0  0  0  0  0  0  0  0  0  0 
    3.1970   -1.1684   -0.1206 C   0  0  0  0  0  0  0  0  0  0  0  0 
    5.2714    0.0417   -0.3953 C   0  0  0  0  0  0  0  0  0  0  0  0 
    5.1926    2.4898   -0.4134 N   0  0  0  0  0  0  0  0  0  0  0  0 
    2.5685   -2.4871   -0.0252 N   0  0  0  0  0  0  0  0  0  0  0  0 
    6.7113   -0.0447   -0.5701 N   0  0  0  0  0  0  0  0  0  0  0  0 
    3.2870   -3.4790   -0.1589 O   0  0  0  0  0  0  0  0  0  0  0  0 
    1.3540   -2.5429    0.1862 O   0  0  0  0  0  0  0  0  0  0  0  0 
    7.2292   -1.1566   -0.6315 O   0  0  0  0  0  0  0  0  0  0  0  0 
    7.3631    1.0128   -0.6499 O   0  0  0  0  0  0  0  0  0  0  0  0 
    0.6567    1.1903    0.1594 H   0  0  0  0  0  0  0  0  0  0  0  0 
    0.6504   -0.3305    1.0869 H   0  0  0  0  0  0  0  0  0  0  0  0 
    0.4271   -0.3820   -0.6448 H   0  0  0  0  0  0  0  0  0  0  0  0 
    2.6427    2.1662   -0.0855 H   0  0  0  0  0  0  0  0  0  0  0  0 
    5.1107   -2.0905   -0.3595 H   0  0  0  0  0  0  0  0  0  0  0  0 
    4.6532    3.3371   -0.3264 H   0  0  0  0  0  0  0  0  0  0  0  0 
    6.1980    2.5214   -0.5194 H   0  0  0  0  0  0  0  0  0  0  0  0 
  1 15  1  0  0  0  0 
  1 16  1  0  0  0  0 
  2 18  1  0  0  0  0 
  2  4  2  0  0  0  0 
  3  6  2  0  0  0  0 
  4  1  1  0  0  0  0 
  5  2  1  0  0  0  0 
  6  4  1  0  0  0  0 
  6  9  1  0  0  0  0 
  7  5  2  0  0  0  0 
  7  3  1  0  0  0  0 
  8 20  1  0  0  0  0 
  8  5  1  0  0  0  0 
  9 12  2  0  0  0  0 
 10  7  1  0  0  0  0 
 11  9  2  0  0  0  0 
 13 10  2  0  0  0  0 
 14 10  2  0  0  0  0 
 17  1  1  0  0  0  0 
 19  3  1  0  0  0  0 
 21  8  1  0  0  0  0 
M  END 
>  <HBA> 
1 
 
>  <HBD> 
1 
 
>  <TPSA> 
117.66 
 
>  <cid> 
21343 
 
>  <dipole> 
6.9 
 
>  <excitation_energy_1> 
3.419 
 
>  <excitation_energy_2> 
3.723 
 
>  <excitation_energy_3> 
3.83 
 
>  <excitation_energy_4> 
4.048 
 
>  <homo_energy> 
-6.795 
 
>  <homo_lumo_gap> 
4.098 
 
>  <logP> 
3.021 
 
>  <lumo_energy> 
-2.697 
 
>  <melting_point> 
136.91 
 
>  <molecular_refractivity> 
53.46 
 
>  <oscillator_strength_1> 
0.0747 
 
>  <oscillator_strength_2> 
0.001 
 
>  <oscillator_strength_3> 
0.0 
 
>  <oscillator_strength_4> 
0.213 
 
>  <open_babel_can_smiles> 
O=N(=O)c1cc(N(=O)=O)c(cc1C)N 
 
>  <mulliken_charges> 
21 
1   -0.50542 
2   -0.281223 
3   -0.211442 
4   0.189788 
5   0.40364 
6   0.214736 
7   0.261178 
8   -0.820033 
9   0.372772 
10   0.372357 
11   -0.397925 
12   -0.410914 
13   -0.387362 
14   -0.440731 
15   0.149727 
16   0.193223 
17   0.191376 
18   0.137725 
19   0.231108 
20   0.347205 
21   0.390214 
 
>  <lowdin_charges> 
21 
1   -0.43699 
2   -0.20699 
3   -0.105666 
4   0.05263 
5   0.101007 
6   -0.034782 
7   -0.0449 
8   -0.427128 
9   0.306693 
10   0.31491 
11   -0.251778 
12   -0.249471 
13   -0.234856 
14   -0.280795 
15   0.152493 
16   0.181269 
17   0.18127 
18   0.163703 
19   0.214454 
20   0.294549 
21   0.310379 
 
$$$$ 
 
