PCCDB-ID:  9150 
public computational chemistry database (PCCDB) project, http://pccdb.org 
 
 29 32  0  0  0  0  0  0  0  0999 V2000 
    0.9842   -0.0590   -0.3024 C   0  0  0  0  0  0  0  0  0  0  0  0 
    1.8406    5.0314    5.9324 C   0  0  0  0  0  0  0  0  0  0  0  0 
    0.1588    0.6737    0.5801 C   0  0  0  0  0  0  0  0  0  0  0  0 
    0.7497    4.4668    5.2675 C   0  0  0  0  0  0  0  0  0  0  0  0 
    2.3519    0.0328   -0.1880 C   0  0  0  0  0  0  0  0  0  0  0  0 
    3.1418    4.7221    5.5248 C   0  0  0  0  0  0  0  0  0  0  0  0 
    0.7111    1.4765    1.5548 C   0  0  0  0  0  0  0  0  0  0  0  0 
    0.9342    3.5936    4.1929 C   0  0  0  0  0  0  0  0  0  0  0  0 
    4.3710    0.9385    0.9033 C   0  0  0  0  0  0  0  0  0  0  0  0 
    4.9676    1.7316    1.8561 C   0  0  0  0  0  0  0  0  0  0  0  0 
    4.6260    3.3777    3.8515 C   0  0  0  0  0  0  0  0  0  0  0  0 
    2.9555    0.8512    0.8041 C   0  0  0  0  0  0  0  0  0  0  0  0 
    3.3293    3.8547    4.4567 C   0  0  0  0  0  0  0  0  0  0  0  0 
    4.1595    2.4618    2.7469 C   0  0  0  0  0  0  0  0  0  0  0  0 
    2.1189    1.5962    1.7090 C   0  0  0  0  0  0  0  0  0  0  0  0 
    2.2332    3.2778    3.7719 C   0  0  0  0  0  0  0  0  0  0  0  0 
    2.7653    2.4081    2.6971 C   0  0  0  0  0  0  0  0  0  0  0  0 
    0.5373   -0.6890   -1.0666 H   0  0  0  0  0  0  0  0  0  0  0  0 
    1.6784    5.7087    6.7664 H   0  0  0  0  0  0  0  0  0  0  0  0 
   -0.9220    0.6051    0.4886 H   0  0  0  0  0  0  0  0  0  0  0  0 
   -0.2605    4.7071    5.5884 H   0  0  0  0  0  0  0  0  0  0  0  0 
    2.9993   -0.5233   -0.8622 H   0  0  0  0  0  0  0  0  0  0  0  0 
    3.9964    5.1556    6.0393 H   0  0  0  0  0  0  0  0  0  0  0  0 
    0.0507    2.0294    2.2087 H   0  0  0  0  0  0  0  0  0  0  0  0 
    0.0592    3.1756    3.7111 H   0  0  0  0  0  0  0  0  0  0  0  0 
    4.9763    0.3642    0.2061 H   0  0  0  0  0  0  0  0  0  0  0  0 
    6.0509    1.7957    1.9239 H   0  0  0  0  0  0  0  0  0  0  0  0 
    5.2564    2.8520    4.5830 H   0  0  0  0  0  0  0  0  0  0  0  0 
    5.2324    4.2091    3.4643 H   0  0  0  0  0  0  0  0  0  0  0  0 
  1  5  2  0  0  0  0 
  1  3  1  0  0  0  0 
  2 19  1  0  0  0  0 
  3  7  2  0  0  0  0 
  4 21  1  0  0  0  0 
  4  2  2  0  0  0  0 
  5 12  1  0  0  0  0 
  6  2  1  0  0  0  0 
  6 23  1  0  0  0  0 
  7 15  1  0  0  0  0 
  7 24  1  0  0  0  0 
  8  4  1  0  0  0  0 
  9 10  1  0  0  0  0 
 10 27  1  0  0  0  0 
 10 14  2  0  0  0  0 
 11 13  1  0  0  0  0 
 11 28  1  0  0  0  0 
 12  9  2  0  0  0  0 
 12 15  1  0  0  0  0 
 13  6  2  0  0  0  0 
 14 11  1  0  0  0  0 
 15 17  2  0  0  0  0 
 16  8  2  0  0  0  0 
 16 13  1  0  0  0  0 
 17 14  1  0  0  0  0 
 17 16  1  0  0  0  0 
 18  1  1  0  0  0  0 
 20  3  1  0  0  0  0 
 22  5  1  0  0  0  0 
 25  8  1  0  0  0  0 
 26  9  1  0  0  0  0 
 29 11  1  0  0  0  0 
M  END 
>  <HBA> 
0 
 
>  <HBD> 
0 
 
>  <TPSA> 
0.0 
 
>  <cid> 
9150 
 
>  <dipole> 
0.58 
 
>  <excitation_energy_1> 
3.786 
 
>  <excitation_energy_2> 
4.144 
 
>  <excitation_energy_3> 
4.486 
 
>  <excitation_energy_4> 
4.687 
 
>  <homo_energy> 
-5.393 
 
>  <homo_lumo_gap> 
4.188 
 
>  <logP> 
4.411 
 
>  <lumo_energy> 
-1.205 
 
>  <melting_point> 
118.85 
 
>  <molecular_refractivity> 
72.39 
 
>  <oscillator_strength_1> 
0.2835 
 
>  <oscillator_strength_2> 
0.0021 
 
>  <oscillator_strength_3> 
0.014 
 
>  <oscillator_strength_4> 
0.0584 
 
>  <open_babel_can_smiles> 
c1ccc2c(c1)Cc1c2c2ccccc2cc1 
 
>  <mulliken_charges> 
29 
1   -0.129354 
2   -0.130686 
3   -0.143753 
4   -0.135364 
5   -0.20466 
6   -0.200447 
7   -0.179917 
8   -0.197619 
9   -0.194343 
10   -0.200035 
11   -0.426319 
12   0.145625 
13   0.106851 
14   0.09793 
15   0.083 
16   0.090672 
17   -0.024554 
18   0.129053 
19   0.126872 
20   0.128753 
21   0.126889 
22   0.128813 
23   0.123745 
24   0.137816 
25   0.141039 
26   0.1283 
27   0.125683 
28   0.172909 
29   0.173102 
 
>  <lowdin_charges> 
29 
1   -0.161624 
2   -0.158419 
3   -0.154432 
4   -0.15747 
5   -0.15611 
6   -0.166317 
7   -0.163511 
8   -0.171062 
9   -0.157024 
10   -0.163922 
11   -0.276874 
12   0.000365 
13   -0.00262 
14   -0.005098 
15   -0.002871 
16   -0.007511 
17   -0.016478 
18   0.159379 
19   0.157367 
20   0.155984 
21   0.156239 
22   0.158428 
23   0.157016 
24   0.161771 
25   0.158469 
26   0.158995 
27   0.155788 
28   0.170867 
29   0.170675 
 
$$$$ 
 
