PCCDB-ID:  24206 
public computational chemistry database (PCCDB) project, http://pccdb.org 
 
 24 24  0  0  0  0  0  0  0  0999 V2000 
    0.9608    0.9174    2.5988 C   0  0  0  0  0  0  0  0  0  0  0  0 
    7.2636   -1.3940    1.1232 C   0  0  0  0  0  0  0  0  0  0  0  0 
    7.2262    3.4826    1.0940 C   0  0  0  0  0  0  0  0  0  0  0  0 
    2.4908    0.9303    2.5506 C   0  0  0  0  0  0  0  0  0  0  0  0 
    3.0339    1.0097    1.1076 C   0  0  0  0  0  0  0  0  0  0  0  0 
    6.5088   -0.0944    1.1073 C   0  0  0  0  0  0  0  0  0  0  0  0 
    6.4919    2.1713    1.0942 C   0  0  0  0  0  0  0  0  0  0  0  0 
    4.5384    1.0237    1.0826 C   0  0  0  0  0  0  0  0  0  0  0  0 
    7.2190    1.0441    1.1037 N   0  0  0  0  0  0  0  0  0  0  0  0 
    5.1700   -0.1598    1.0971 N   0  0  0  0  0  0  0  0  0  0  0  0 
    5.1516    2.2164    1.0840 N   0  0  0  0  0  0  0  0  0  0  0  0 
    0.5994    0.8532    3.6313 H   0  0  0  0  0  0  0  0  0  0  0  0 
    0.5540    0.0604    2.0484 H   0  0  0  0  0  0  0  0  0  0  0  0 
    0.5417    1.8279    2.1538 H   0  0  0  0  0  0  0  0  0  0  0  0 
    8.3390   -1.2116    1.0960 H   0  0  0  0  0  0  0  0  0  0  0  0 
    6.9697   -2.0103    0.2666 H   0  0  0  0  0  0  0  0  0  0  0  0 
    7.0109   -1.9632    2.0251 H   0  0  0  0  0  0  0  0  0  0  0  0 
    8.3045    3.3167    1.0742 H   0  0  0  0  0  0  0  0  0  0  0  0 
    6.9601    4.0614    1.9858 H   0  0  0  0  0  0  0  0  0  0  0  0 
    6.9269    4.0812    0.2267 H   0  0  0  0  0  0  0  0  0  0  0  0 
    2.8889    0.0258    3.0279 H   0  0  0  0  0  0  0  0  0  0  0  0 
    2.8760    1.7849    3.1218 H   0  0  0  0  0  0  0  0  0  0  0  0 
    2.6652    1.9216    0.6264 H   0  0  0  0  0  0  0  0  0  0  0  0 
    2.6806    0.1422    0.5392 H   0  0  0  0  0  0  0  0  0  0  0  0 
  1 12  1  0  0  0  0 
  2 17  1  0  0  0  0 
  3  7  1  0  0  0  0 
  3 19  1  0  0  0  0 
  4  1  1  0  0  0  0 
  4 21  1  0  0  0  0 
  4 22  1  0  0  0  0 
  5  4  1  0  0  0  0 
  6  2  1  0  0  0  0 
  7  9  2  0  0  0  0 
  8 11  1  0  0  0  0 
  8 10  2  0  0  0  0 
  8  5  1  0  0  0  0 
  9  6  2  0  0  0  0 
 10  6  1  0  0  0  0 
 11  7  1  0  0  0  0 
 13  1  1  0  0  0  0 
 14  1  1  0  0  0  0 
 15  2  1  0  0  0  0 
 16  2  1  0  0  0  0 
 18  3  1  0  0  0  0 
 20  3  1  0  0  0  0 
 23  5  1  0  0  0  0 
 24  5  1  0  0  0  0 
M  RAD  1  11   2 
M  END 
>  <HBA> 
3 
 
>  <HBD> 
0 
 
>  <TPSA> 
38.67 
 
>  <cid> 
24206 
 
>  <dipole> 
0.3 
 
>  <excitation_energy_1> 
4.559 
 
>  <excitation_energy_2> 
4.654 
 
>  <excitation_energy_3> 
4.726 
 
>  <excitation_energy_4> 
4.761 
 
>  <homo_energy> 
-6.972 
 
>  <homo_lumo_gap> 
5.951 
 
>  <logP> 
1.441 
 
>  <lumo_energy> 
-1.02 
 
>  <melting_point> 
62.02 
 
>  <molecular_refractivity> 
44.34 
 
>  <oscillator_strength_1> 
0.0 
 
>  <oscillator_strength_2> 
0.0051 
 
>  <oscillator_strength_3> 
0.0 
 
>  <oscillator_strength_4> 
0.0079 
 
>  <open_babel_can_smiles> 
CCCC1=NC(=[N]=C([N]1)C)C 
 
>  <mulliken_charges> 
24 
1   -0.441739 
2   -0.505091 
3   -0.50505 
4   -0.259727 
5   -0.301768 
6   0.427795 
7   0.428122 
8   0.412822 
9   -0.455444 
10   -0.452936 
11   -0.453527 
12   0.146813 
13   0.145865 
14   0.146027 
15   0.175362 
16   0.177131 
17   0.17675 
18   0.175319 
19   0.176797 
20   0.177198 
21   0.150027 
22   0.147365 
23   0.156031 
24   0.155857 
 
>  <lowdin_charges> 
24 
1   -0.443646 
2   -0.446465 
3   -0.446443 
4   -0.267192 
5   -0.281625 
6   0.118816 
7   0.118908 
8   0.116488 
9   -0.191891 
10   -0.190792 
11   -0.190774 
12   0.151511 
13   0.149441 
14   0.149161 
15   0.168361 
16   0.175097 
17   0.174836 
18   0.168292 
19   0.174924 
20   0.175115 
21   0.148944 
22   0.147973 
23   0.160167 
24   0.160795 
 
$$$$ 
 
