PCCDB-ID:  6958 
public computational chemistry database (PCCDB) project, http://pccdb.org 
 
 22 22  0  0  0  0  0  0  0  0999 V2000 
    0.4002    1.3866    0.4527 C   0  0  0  0  0  0  0  0  0  0  0  0 
    1.3112    0.4861   -0.3802 C   0  0  0  0  0  0  0  0  0  0  0  0 
   -1.0699    1.0868    0.1421 C   0  0  0  0  0  0  0  0  0  0  0  0 
    1.0430   -0.9814   -0.0461 C   0  0  0  0  0  0  0  0  0  0  0  0 
   -1.3986   -0.4047    0.0691 C   0  0  0  0  0  0  0  0  0  0  0  0 
   -0.4299   -1.3494   -0.0140 C   0  0  0  0  0  0  0  0  0  0  0  0 
   -2.8643   -0.7306    0.0177 C   0  0  0  0  0  0  0  0  0  0  0  0 
   -0.6003   -2.8635    0.0611 C   0  0  0  0  0  0  0  0  0  0  0  0 
   -3.3664   -1.5659   -0.7150 O   0  0  0  0  0  0  0  0  0  0  0  0 
   -3.6904    0.0041    0.7896 O   0  0  0  0  0  0  0  0  0  0  0  0 
    0.2158   -3.5038    0.6908 O   0  0  0  0  0  0  0  0  0  0  0  0 
   -1.5853   -3.4609   -0.6093 O   0  0  0  0  0  0  0  0  0  0  0  0 
    0.6027    2.4465    0.2622 H   0  0  0  0  0  0  0  0  0  0  0  0 
    0.5928    1.2105    1.5196 H   0  0  0  0  0  0  0  0  0  0  0  0 
    2.3656    0.7205   -0.1959 H   0  0  0  0  0  0  0  0  0  0  0  0 
    1.1282    0.6667   -1.4484 H   0  0  0  0  0  0  0  0  0  0  0  0 
   -1.3547    1.5488   -0.8153 H   0  0  0  0  0  0  0  0  0  0  0  0 
   -1.6945    1.5914    0.8931 H   0  0  0  0  0  0  0  0  0  0  0  0 
    1.4757   -1.2485    0.9266 H   0  0  0  0  0  0  0  0  0  0  0  0 
    1.5442   -1.6415   -0.7640 H   0  0  0  0  0  0  0  0  0  0  0  0 
   -3.1829    0.5764    1.3877 H   0  0  0  0  0  0  0  0  0  0  0  0 
   -2.2328   -2.7958   -0.9505 H   0  0  0  0  0  0  0  0  0  0  0  0 
  1 14  1  0  0  0  0 
  2 15  1  0  0  0  0 
  2  4  1  0  0  0  0 
  2  1  1  0  0  0  0 
  3  1  1  0  0  0  0 
  3 18  1  0  0  0  0 
  4  6  1  0  0  0  0 
  4 19  1  0  0  0  0 
  5  3  1  0  0  0  0 
  6  8  1  0  0  0  0 
  6  5  2  0  0  0  0 
  7  5  1  0  0  0  0 
  7 10  1  0  0  0  0 
  8 11  2  0  0  0  0 
  9  7  2  0  0  0  0 
 10 21  1  0  0  0  0 
 12  8  1  0  0  0  0 
 13  1  1  0  0  0  0 
 16  2  1  0  0  0  0 
 17  3  1  0  0  0  0 
 20  4  1  0  0  0  0 
 22 12  1  0  0  0  0 
M  END 
>  <HBA> 
4 
 
>  <HBD> 
2 
 
>  <TPSA> 
74.6 
 
>  <cid> 
6958 
 
>  <dipole> 
6.59 
 
>  <excitation_energy_1> 
4.285 
 
>  <excitation_energy_2> 
4.84 
 
>  <excitation_energy_3> 
5.267 
 
>  <excitation_energy_4> 
5.525 
 
>  <homo_energy> 
-7.274 
 
>  <homo_lumo_gap> 
5.331 
 
>  <logP> 
1.026 
 
>  <lumo_energy> 
-1.943 
 
>  <melting_point> 
165.63 
 
>  <molecular_refractivity> 
41.53 
 
>  <oscillator_strength_1> 
0.0079 
 
>  <oscillator_strength_2> 
0.0099 
 
>  <oscillator_strength_3> 
0.1936 
 
>  <oscillator_strength_4> 
0.0026 
 
>  <open_babel_can_smiles> 
OC(=O)C1=C(CCCC1)C(=O)O 
 
>  <mulliken_charges> 
22 
1   -0.265917 
2   -0.274847 
3   -0.33436 
4   -0.321811 
5   -0.019762 
6   0.013867 
7   0.579036 
8   0.557179 
9   -0.476156 
10   -0.551033 
11   -0.454275 
12   -0.583307 
13   0.147905 
14   0.147781 
15   0.149578 
16   0.145174 
17   0.178683 
18   0.128865 
19   0.189029 
20   0.172906 
21   0.422112 
22   0.449355 
 
>  <lowdin_charges> 
22 
1   -0.271043 
2   -0.274525 
3   -0.277303 
4   -0.273589 
5   -0.082232 
6   -0.014818 
7   0.207207 
8   0.185423 
9   -0.254329 
10   -0.327562 
11   -0.253028 
12   -0.34655 
13   0.151913 
14   0.14589 
15   0.153453 
16   0.144532 
17   0.163856 
18   0.144221 
19   0.175173 
20   0.17143 
21   0.363783 
22   0.368096 
 
$$$$ 
 
