PCCDB-ID:  51003 
public computational chemistry database (PCCDB) project, http://pccdb.org 
 
 27 27  0  0  0  0  0  0  0  0999 V2000 
    2.1631   -1.0562   -0.6120 C   0  0  0  0  0  0  0  0  0  0  0  0 
    3.6968   -0.1803    1.6070 C   0  0  0  0  0  0  0  0  0  0  0  0 
    3.1365    2.0888    0.9621 C   0  0  0  0  0  0  0  0  0  0  0  0 
    4.4322    0.3231    2.6830 C   0  0  0  0  0  0  0  0  0  0  0  0 
    3.8698    2.5762    2.0353 C   0  0  0  0  0  0  0  0  0  0  0  0 
    8.0972    3.0817    4.6064 C   0  0  0  0  0  0  0  0  0  0  0  0 
    7.1286    2.5297    3.5616 C   0  0  0  0  0  0  0  0  0  0  0  0 
    3.0462    0.7058    0.7395 C   0  0  0  0  0  0  0  0  0  0  0  0 
    4.5338    1.6988    2.9089 C   0  0  0  0  0  0  0  0  0  0  0  0 
   10.3156    3.8437    5.0127 N   0  0  0  0  0  0  0  0  0  0  0  0 
    9.4365    3.1894    4.0150 N   0  0  0  0  0  0  0  0  0  0  0  0 
    2.3032    0.3298   -0.3397 O   0  0  0  0  0  0  0  0  0  0  0  0 
    5.4529    2.3305    4.3134 S   0  0  0  0  0  0  0  0  0  0  0  0 
    1.5359   -1.1234   -1.5027 H   0  0  0  0  0  0  0  0  0  0  0  0 
    1.6727   -1.5826    0.2173 H   0  0  0  0  0  0  0  0  0  0  0  0 
    3.1335   -1.5277   -0.8157 H   0  0  0  0  0  0  0  0  0  0  0  0 
    3.6375   -1.2526    1.4596 H   0  0  0  0  0  0  0  0  0  0  0  0 
    2.6188    2.7578    0.2817 H   0  0  0  0  0  0  0  0  0  0  0  0 
    4.9298   -0.3668    3.3582 H   0  0  0  0  0  0  0  0  0  0  0  0 
    3.9288    3.6469    2.2074 H   0  0  0  0  0  0  0  0  0  0  0  0 
    8.1591    2.3798    5.4491 H   0  0  0  0  0  0  0  0  0  0  0  0 
    7.7365    4.0419    5.0101 H   0  0  0  0  0  0  0  0  0  0  0  0 
    7.4827    1.5621    3.1957 H   0  0  0  0  0  0  0  0  0  0  0  0 
    7.0493    3.2138    2.7088 H   0  0  0  0  0  0  0  0  0  0  0  0 
   11.2439    3.7861    4.5848 H   0  0  0  0  0  0  0  0  0  0  0  0 
   10.3740    3.1550    5.7686 H   0  0  0  0  0  0  0  0  0  0  0  0 
    9.3631    3.9000    3.2832 H   0  0  0  0  0  0  0  0  0  0  0  0 
  1 12  1  0  0  0  0 
  1 15  1  0  0  0  0 
  2  4  2  0  0  0  0 
  3  5  1  0  0  0  0 
  4  9  1  0  0  0  0 
  4 19  1  0  0  0  0 
  5 20  1  0  0  0  0 
  5  9  2  0  0  0  0 
  6 22  1  0  0  0  0 
  6 21  1  0  0  0  0 
  7 13  1  0  0  0  0 
  7  6  1  0  0  0  0 
  8  3  2  0  0  0  0 
  8  2  1  0  0  0  0 
  9 13  1  0  0  0  0 
 10 26  1  0  0  0  0 
 11  6  1  0  0  0  0 
 11 10  1  0  0  0  0 
 12  8  1  0  0  0  0 
 14  1  1  0  0  0  0 
 16  1  1  0  0  0  0 
 17  2  1  0  0  0  0 
 18  3  1  0  0  0  0 
 23  7  1  0  0  0  0 
 24  7  1  0  0  0  0 
 25 10  1  0  0  0  0 
 27 11  1  0  0  0  0 
M  END 
>  <HBA> 
4 
 
>  <HBD> 
2 
 
>  <TPSA> 
72.58 
 
>  <cid> 
51003 
 
>  <dipole> 
2.97 
 
>  <excitation_energy_1> 
4.594 
 
>  <excitation_energy_2> 
4.751 
 
>  <excitation_energy_3> 
4.783 
 
>  <excitation_energy_4> 
4.858 
 
>  <homo_energy> 
-5.385 
 
>  <homo_lumo_gap> 
5.197 
 
>  <logP> 
2.342 
 
>  <lumo_energy> 
-0.188 
 
>  <melting_point> 
103.0 
 
>  <molecular_refractivity> 
54.97 
 
>  <oscillator_strength_1> 
0.0035 
 
>  <oscillator_strength_2> 
0.0002 
 
>  <oscillator_strength_3> 
0.0022 
 
>  <oscillator_strength_4> 
0.0068 
 
>  <open_babel_can_smiles> 
NNCCSc1ccc(cc1)OC 
 
>  <mulliken_charges> 
27 
1   -0.216928 
2   -0.185612 
3   -0.161796 
4   -0.150505 
5   -0.14709 
6   -0.125747 
7   -0.410566 
8   0.374453 
9   -0.100872 
10   -0.593662 
11   -0.471269 
12   -0.503276 
13   0.074433 
14   0.172267 
15   0.154793 
16   0.153786 
17   0.135063 
18   0.142151 
19   0.147899 
20   0.147773 
21   0.15037 
22   0.149426 
23   0.183162 
24   0.165025 
25   0.305404 
26   0.304742 
27   0.306575 
 
>  <lowdin_charges> 
27 
1   -0.278235 
2   -0.213521 
3   -0.183535 
4   -0.143225 
5   -0.141764 
6   -0.214022 
7   -0.37283 
8   0.10787 
9   -0.149051 
10   -0.494997 
11   -0.322069 
12   -0.195782 
13   0.112732 
14   0.164447 
15   0.147986 
16   0.146265 
17   0.162477 
18   0.170271 
19   0.168946 
20   0.166284 
21   0.146439 
22   0.138036 
23   0.162841 
24   0.153618 
25   0.253943 
26   0.25394 
27   0.252934 
 
$$$$ 
 
