PCCDB-ID:  16443 
public computational chemistry database (PCCDB) project, http://pccdb.org 
 
 14 14  0  0  0  0  0  0  0  0999 V2000 
    1.1573    0.0340    0.0112 C   0  0  0  0  0  0  0  0  0  0  0  0 
    2.6583    0.0546    0.0135 C   0  0  0  0  0  0  0  0  0  0  0  0 
    4.6447   -1.0112    0.0200 C   0  0  0  0  0  0  0  0  0  0  0  0 
    4.5990    1.2007    0.0160 C   0  0  0  0  0  0  0  0  0  0  0  0 
    3.3050   -1.1168    0.0169 N   0  0  0  0  0  0  0  0  0  0  0  0 
    3.2597    1.2528    0.0126 N   0  0  0  0  0  0  0  0  0  0  0  0 
    5.3596    0.1084    0.0196 N   0  0  0  0  0  0  0  0  0  0  0  0 
    5.3397   -2.1521    0.0237 O   0  0  0  0  0  0  0  0  0  0  0  0 
    5.2524    2.3663    0.0157 O   0  0  0  0  0  0  0  0  0  0  0  0 
    0.7886   -0.9928    0.0102 H   0  0  0  0  0  0  0  0  0  0  0  0 
    0.7765    0.5628   -0.8694 H   0  0  0  0  0  0  0  0  0  0  0  0 
    0.7742    0.5616    0.8916 H   0  0  0  0  0  0  0  0  0  0  0  0 
    4.6809   -2.8700    0.0256 H   0  0  0  0  0  0  0  0  0  0  0  0 
    4.5680    3.0598    0.0144 H   0  0  0  0  0  0  0  0  0  0  0  0 
  1  2  1  0  0  0  0 
  1 12  1  0  0  0  0 
  2  5  2  0  0  0  0 
  3  8  1  0  0  0  0 
  4  7  2  0  0  0  0 
  5  3  2  0  0  0  0 
  6  2  1  0  0  0  0 
  6  4  2  0  0  0  0 
  7  3  2  0  0  0  0 
  8 13  1  0  0  0  0 
  9  4  1  0  0  0  0 
 10  1  1  0  0  0  0 
 11  1  1  0  0  0  0 
 14  9  1  0  0  0  0 
M  END 
>  <HBA> 
3 
 
>  <HBD> 
2 
 
>  <TPSA> 
78.61 
 
>  <cid> 
16443 
 
>  <dipole> 
3.12 
 
>  <excitation_energy_1> 
5.223 
 
>  <excitation_energy_2> 
5.348 
 
>  <excitation_energy_3> 
5.609 
 
>  <excitation_energy_4> 
5.775 
 
>  <homo_energy> 
-7.538 
 
>  <homo_lumo_gap> 
6.542 
 
>  <logP> 
-1.233 
 
>  <lumo_energy> 
-0.996 
 
>  <melting_point> 
188.09 
 
>  <molecular_refractivity> 
30.44 
 
>  <oscillator_strength_1> 
0.0067 
 
>  <oscillator_strength_2> 
0.0002 
 
>  <oscillator_strength_3> 
0.0 
 
>  <oscillator_strength_4> 
0.0238 
 
>  <open_babel_can_smiles> 
CC1=[N]=[C](=[N]=[C](=N1)O)O 
 
>  <mulliken_charges> 
14 
1   -0.507398 
2   0.451059 
3   0.643489 
4   0.638899 
5   -0.50939 
6   -0.505937 
7   -0.450425 
8   -0.572787 
9   -0.573 
10   0.17743 
11   0.181454 
12   0.181487 
13   0.422804 
14   0.422316 
 
>  <lowdin_charges> 
14 
1   -0.446484 
2   0.13164 
3   0.176053 
4   0.17561 
5   -0.239682 
6   -0.241109 
7   -0.185125 
8   -0.317829 
9   -0.318843 
10   0.170674 
11   0.177671 
12   0.177708 
13   0.369991 
14   0.369725 
 
$$$$ 
 
