PCCDB-ID:  22634 
public computational chemistry database (PCCDB) project, http://pccdb.org 
 
 16 16  0  0  1  0  0  0  0  0999 V2000 
    3.1111    1.2885    0.1450 C   0  0  0  0  0  0  0  0  0  0  0  0 
    4.4295    1.7193    0.1444 C   0  0  0  0  0  0  0  0  0  0  0  0 
    2.6181    0.8323    1.4422 C   0  0  0  0  0  0  0  0  0  0  0  0 
    5.3147    0.7378   -0.3383 C   0  0  0  0  0  0  0  0  0  0  0  0 
    2.9565   -0.4689    1.6189 C   0  0  0  0  0  0  0  0  0  0  0  0 
    4.9077   -0.6039   -0.2409 C   0  0  2  0  0  0  0  0  0  0  0  0 
    3.8195   -1.2192    0.6741 C   0  0  0  0  0  0  0  0  0  0  0  0 
    5.6203   -1.5929   -0.8242 N   0  0  0  0  0  0  0  0  0  0  0  0 
    3.7861   -2.4565    0.6857 O   0  0  0  0  0  0  0  0  0  0  0  0 
    2.8442    0.6311   -0.6833 H   0  0  0  0  0  0  0  0  0  0  0  0 
    4.7862    2.5491    0.7575 H   0  0  0  0  0  0  0  0  0  0  0  0 
    2.1385    1.4367    2.2100 H   0  0  0  0  0  0  0  0  0  0  0  0 
    6.3456    0.9477   -0.6272 H   0  0  0  0  0  0  0  0  0  0  0  0 
    2.6118   -1.0649    2.4617 H   0  0  0  0  0  0  0  0  0  0  0  0 
    6.3676   -1.4027   -1.4719 H   0  0  0  0  0  0  0  0  0  0  0  0 
    5.3614   -2.5429   -0.5826 H   0  0  0  0  0  0  0  0  0  0  0  0 
  1  3  1  0  0  0  0 
  2  1  1  0  0  0  0 
  2 11  1  0  0  0  0 
  3  5  2  0  0  0  0 
  3 12  1  0  0  0  0 
  4  6  1  0  0  0  0 
  4  2  1  0  0  0  0 
  5 14  1  0  0  0  0 
  6  8  1  1  0  0  0 
  6  7  1  0  0  0  0 
  7  9  2  0  0  0  0 
  7  5  1  0  0  0  0 
  8 16  1  0  0  0  0 
 10  1  1  0  0  0  0 
 13  4  1  0  0  0  0 
 15  8  1  0  0  0  0 
M  RAD  4   1   2   2   2   4   2   6   2 
M  END 
>  <HBA> 
2 
 
>  <HBD> 
1 
 
>  <TPSA> 
43.09 
 
>  <cid> 
22634 
 
>  <dipole> 
2.57 
 
>  <excitation_energy_1> 
3.346 
 
>  <excitation_energy_2> 
3.58 
 
>  <excitation_energy_3> 
3.896 
 
>  <excitation_energy_4> 
4.04 
 
>  <homo_energy> 
-5.382 
 
>  <homo_lumo_gap> 
3.627 
 
>  <logP> 
1.21 
 
>  <lumo_energy> 
-1.755 
 
>  <melting_point> 
87.91 
 
>  <molecular_refractivity> 
37.12 
 
>  <oscillator_strength_1> 
0.1092 
 
>  <oscillator_strength_2> 
0.0029 
 
>  <oscillator_strength_3> 
0.0285 
 
>  <oscillator_strength_4> 
0.1128 
 
>  <open_babel_can_smiles> 
O=C1C=C[CH][CH][CH][C]1N 
 
>  <mulliken_charges> 
16 
1   -0.251788 
2   -0.090245 
3   -0.106699 
4   -0.198338 
5   -0.166014 
6   0.277687 
7   0.396931 
8   -0.767356 
9   -0.527707 
10   0.16244 
11   0.142226 
12   0.149265 
13   0.124012 
14   0.148148 
15   0.338699 
16   0.368739 
 
>  <lowdin_charges> 
16 
1   -0.190655 
2   -0.127418 
3   -0.119546 
4   -0.220568 
5   -0.202117 
6   0.049207 
7   0.127938 
8   -0.430573 
9   -0.292558 
10   0.165052 
11   0.161038 
12   0.168198 
13   0.149825 
14   0.169876 
15   0.289516 
16   0.302783 
 
$$$$ 
 
