PCCDB-ID:  18698 
public computational chemistry database (PCCDB) project, http://pccdb.org 
 
 27 27  0  0  1  0  0  0  0  0999 V2000 
    4.5062    2.7897   -0.3301 C   0  0  0  0  0  0  0  0  0  0  0  0 
    4.1879    1.3034   -0.1388 C   0  0  0  0  0  0  0  0  0  0  0  0 
    4.7810    0.7251    1.1522 C   0  0  0  0  0  0  0  0  0  0  0  0 
    5.2763   -3.3419    4.1358 C   0  0  0  0  0  0  0  0  0  0  0  0 
    4.4624   -0.7632    1.3442 C   0  0  0  0  0  0  0  0  0  0  0  0 
    4.8043   -2.8657    2.7616 C   0  0  0  0  0  0  0  0  0  0  0  0 
    4.4911   -2.6019    5.2226 C   0  0  0  0  0  0  0  0  0  0  0  0 
    5.0337   -1.3640    2.6270 C   0  0  2  0  0  0  0  0  0  0  0  0 
    4.3082   -1.1059    4.9902 C   0  0  0  0  0  0  0  0  0  0  0  0 
    3.9747   -0.3524    5.8733 O   0  0  0  0  0  0  0  0  0  0  0  0 
    4.4459   -0.6175    3.7295 O   0  0  0  0  0  0  0  0  0  0  0  0 
    4.0713    3.1759   -1.2590 H   0  0  0  0  0  0  0  0  0  0  0  0 
    5.5889    2.9611   -0.3726 H   0  0  0  0  0  0  0  0  0  0  0  0 
    4.1097    3.3884    0.4988 H   0  0  0  0  0  0  0  0  0  0  0  0 
    4.5633    0.7340   -1.0015 H   0  0  0  0  0  0  0  0  0  0  0  0 
    3.0980    1.1611   -0.1318 H   0  0  0  0  0  0  0  0  0  0  0  0 
    4.4053    1.2862    2.0161 H   0  0  0  0  0  0  0  0  0  0  0  0 
    5.8726    0.8637    1.1441 H   0  0  0  0  0  0  0  0  0  0  0  0 
    6.3506   -3.1391    4.2423 H   0  0  0  0  0  0  0  0  0  0  0  0 
    5.1480   -4.4244    4.2478 H   0  0  0  0  0  0  0  0  0  0  0  0 
    4.8626   -1.3402    0.4981 H   0  0  0  0  0  0  0  0  0  0  0  0 
    3.3745   -0.9167    1.3451 H   0  0  0  0  0  0  0  0  0  0  0  0 
    3.7363   -3.0885    2.6284 H   0  0  0  0  0  0  0  0  0  0  0  0 
    5.3448   -3.3766    1.9560 H   0  0  0  0  0  0  0  0  0  0  0  0 
    4.9358   -2.7178    6.2152 H   0  0  0  0  0  0  0  0  0  0  0  0 
    3.4743   -3.0134    5.2943 H   0  0  0  0  0  0  0  0  0  0  0  0 
    6.1156   -1.1661    2.6673 H   0  0  0  0  0  0  0  0  0  0  0  0 
  1  2  1  0  0  0  0 
  1 14  1  0  0  0  0 
  2 16  1  0  0  0  0 
  2  3  1  0  0  0  0 
  3  5  1  0  0  0  0 
  3 17  1  0  0  0  0 
  4 19  1  0  0  0  0 
  4 20  1  0  0  0  0 
  4  7  1  0  0  0  0 
  5 22  1  0  0  0  0 
  5  8  1  0  0  0  0 
  6  4  1  0  0  0  0 
  7 26  1  0  0  0  0 
  7 25  1  0  0  0  0 
  8 27  1  1  0  0  0 
  8  6  1  0  0  0  0 
  8 11  1  0  0  0  0 
  9  7  1  0  0  0  0 
  9 10  2  0  0  0  0 
 11  9  1  0  0  0  0 
 12  1  1  0  0  0  0 
 13  1  1  0  0  0  0 
 15  2  1  0  0  0  0 
 18  3  1  0  0  0  0 
 21  5  1  0  0  0  0 
 23  6  1  0  0  0  0 
 24  6  1  0  0  0  0 
M  END 
>  <HBA> 
2 
 
>  <HBD> 
0 
 
>  <TPSA> 
26.3 
 
>  <cid> 
18698 
 
>  <dipole> 
4.4 
 
>  <excitation_energy_1> 
5.468 
 
>  <excitation_energy_2> 
6.582 
 
>  <excitation_energy_3> 
6.977 
 
>  <excitation_energy_4> 
6.989 
 
>  <homo_energy> 
-6.963 
 
>  <homo_lumo_gap> 
7.336 
 
>  <logP> 
2.272 
 
>  <lumo_energy> 
0.373 
 
>  <melting_point> 
6.46 
 
>  <molecular_refractivity> 
44.55 
 
>  <oscillator_strength_1> 
0.001 
 
>  <oscillator_strength_2> 
0.002 
 
>  <oscillator_strength_3> 
0.0169 
 
>  <oscillator_strength_4> 
0.0615 
 
>  <open_babel_can_smiles> 
CCCC[C@@H]1CCCC(=O)O1 
 
>  <mulliken_charges> 
27 
1   -0.441996 
2   -0.249123 
3   -0.25593 
4   -0.277892 
5   -0.270678 
6   -0.289776 
7   -0.367696 
8   0.141679 
9   0.594349 
10   -0.452466 
11   -0.465806 
12   0.141995 
13   0.141318 
14   0.147277 
15   0.126801 
16   0.133095 
17   0.164303 
18   0.124883 
19   0.1464 
20   0.147777 
21   0.132107 
22   0.142031 
23   0.145211 
24   0.14756 
25   0.180509 
26   0.179165 
27   0.134904 
 
>  <lowdin_charges> 
27 
1   -0.443489 
2   -0.270244 
3   -0.275905 
4   -0.276054 
5   -0.279618 
6   -0.289586 
7   -0.311446 
8   0.012285 
9   0.196153 
10   -0.25019 
11   -0.19935 
12   0.149808 
13   0.14458 
14   0.150299 
15   0.137232 
16   0.138074 
17   0.156543 
18   0.135355 
19   0.144589 
20   0.150985 
21   0.146731 
22   0.146287 
23   0.146482 
24   0.157856 
25   0.174596 
26   0.172263 
27   0.135766 
 
$$$$ 
 
