PCCDB-ID:  34833 
public computational chemistry database (PCCDB) project, http://pccdb.org 
 
 33 33  0  0  0  0  0  0  0  0999 V2000 
    0.7718   -0.3673   -0.4086 C   0  0  0  0  0  0  0  0  0  0  0  0 
    2.8572   -1.5618    0.3164 C   0  0  0  0  0  0  0  0  0  0  0  0 
    2.9211   -0.0558   -1.6910 C   0  0  0  0  0  0  0  0  0  0  0  0 
    3.6487    5.4993    0.7835 C   0  0  0  0  0  0  0  0  0  0  0  0 
    1.4394    5.2285    1.9691 C   0  0  0  0  0  0  0  0  0  0  0  0 
    3.5894    5.0461    3.2522 C   0  0  0  0  0  0  0  0  0  0  0  0 
    3.3522    0.9325    1.8042 C   0  0  0  0  0  0  0  0  0  0  0  0 
    3.5044    2.2339    2.3773 C   0  0  0  0  0  0  0  0  0  0  0  0 
    2.6743    0.9205    0.6153 C   0  0  0  0  0  0  0  0  0  0  0  0 
    2.9453    3.2402    1.6371 C   0  0  0  0  0  0  0  0  0  0  0  0 
    2.3098   -0.2521   -0.2839 C   0  0  0  0  0  0  0  0  0  0  0  0 
    2.9050    4.7375    1.9063 C   0  0  0  0  0  0  0  0  0  0  0  0 
    2.2102    2.5624    0.1906 S   0  0  0  0  0  0  0  0  0  0  0  0 
    0.5038   -1.2228   -1.0406 H   0  0  0  0  0  0  0  0  0  0  0  0 
    0.3374    0.5322   -0.8582 H   0  0  0  0  0  0  0  0  0  0  0  0 
    0.3092   -0.5086    0.5744 H   0  0  0  0  0  0  0  0  0  0  0  0 
    2.5984   -2.4052   -0.3337 H   0  0  0  0  0  0  0  0  0  0  0  0 
    2.4304   -1.7584    1.3061 H   0  0  0  0  0  0  0  0  0  0  0  0 
    3.9482   -1.5338    0.4122 H   0  0  0  0  0  0  0  0  0  0  0  0 
    2.6755   -0.9089   -2.3352 H   0  0  0  0  0  0  0  0  0  0  0  0 
    4.0119    0.0299   -1.6360 H   0  0  0  0  0  0  0  0  0  0  0  0 
    2.5370    0.8501   -2.1728 H   0  0  0  0  0  0  0  0  0  0  0  0 
    3.6293    6.5787    0.9779 H   0  0  0  0  0  0  0  0  0  0  0  0 
    3.1860    5.3251   -0.1941 H   0  0  0  0  0  0  0  0  0  0  0  0 
    4.6950    5.1806    0.7210 H   0  0  0  0  0  0  0  0  0  0  0  0 
    1.4065    6.3036    2.1839 H   0  0  0  0  0  0  0  0  0  0  0  0 
    0.8836    4.7046    2.7545 H   0  0  0  0  0  0  0  0  0  0  0  0 
    0.9185    5.0602    1.0201 H   0  0  0  0  0  0  0  0  0  0  0  0 
    3.5541    6.1235    3.4486 H   0  0  0  0  0  0  0  0  0  0  0  0 
    4.6416    4.7409    3.2462 H   0  0  0  0  0  0  0  0  0  0  0  0 
    3.0887    4.5362    4.0826 H   0  0  0  0  0  0  0  0  0  0  0  0 
    3.7413    0.0364    2.2740 H   0  0  0  0  0  0  0  0  0  0  0  0 
    4.0186    2.4039    3.3164 H   0  0  0  0  0  0  0  0  0  0  0  0 
  1 11  1  0  0  0  0 
  1 16  1  0  0  0  0 
  2 19  1  0  0  0  0 
  2 18  1  0  0  0  0 
  3 21  1  0  0  0  0 
  3 11  1  0  0  0  0 
  4 23  1  0  0  0  0 
  4 12  1  0  0  0  0 
  5 26  1  0  0  0  0 
  5 27  1  0  0  0  0 
  6 29  1  0  0  0  0 
  6 31  1  0  0  0  0 
  7 32  1  0  0  0  0 
  7  8  1  0  0  0  0 
  8 33  1  0  0  0  0 
  9  7  2  0  0  0  0 
 10 12  1  0  0  0  0 
 10  8  2  0  0  0  0 
 11  2  1  0  0  0  0 
 11  9  1  0  0  0  0 
 12  5  1  0  0  0  0 
 12  6  1  0  0  0  0 
 13  9  1  0  0  0  0 
 13 10  1  0  0  0  0 
 14  1  1  0  0  0  0 
 15  1  1  0  0  0  0 
 17  2  1  0  0  0  0 
 20  3  1  0  0  0  0 
 22  3  1  0  0  0  0 
 24  4  1  0  0  0  0 
 25  4  1  0  0  0  0 
 28  5  1  0  0  0  0 
 30  6  1  0  0  0  0 
M  END 
>  <HBA> 
1 
 
>  <HBD> 
0 
 
>  <TPSA> 
28.24 
 
>  <cid> 
34833 
 
>  <dipole> 
0.48 
 
>  <excitation_energy_1> 
5.253 
 
>  <excitation_energy_2> 
5.291 
 
>  <excitation_energy_3> 
5.404 
 
>  <excitation_energy_4> 
5.651 
 
>  <homo_energy> 
-5.736 
 
>  <homo_lumo_gap> 
5.763 
 
>  <logP> 
4.343 
 
>  <lumo_energy> 
0.027 
 
>  <melting_point> 
21.13 
 
>  <molecular_refractivity> 
62.86 
 
>  <oscillator_strength_1> 
0.2248 
 
>  <oscillator_strength_2> 
0.0002 
 
>  <oscillator_strength_3> 
0.0045 
 
>  <oscillator_strength_4> 
0.0433 
 
>  <open_babel_can_smiles> 
CC(c1ccc(s1)C(C)(C)C)(C)C 
 
>  <mulliken_charges> 
33 
1   -0.441948 
2   -0.450512 
3   -0.442919 
4   -0.441399 
5   -0.443395 
6   -0.45048 
7   -0.13994 
8   -0.139949 
9   -0.116752 
10   -0.116632 
11   0.046499 
12   0.046033 
13   0.192995 
14   0.138018 
15   0.152512 
16   0.150343 
17   0.142396 
18   0.147468 
19   0.147734 
20   0.138042 
21   0.150603 
22   0.152699 
23   0.137984 
24   0.152563 
25   0.150103 
26   0.138121 
27   0.150739 
28   0.152788 
29   0.142446 
30   0.147413 
31   0.147864 
32   0.129301 
33   0.129263 
 
>  <lowdin_charges> 
33 
1   -0.441354 
2   -0.437631 
3   -0.439357 
4   -0.436566 
5   -0.439924 
6   -0.437465 
7   -0.205017 
8   -0.203298 
9   -0.149082 
10   -0.148421 
11   0.020504 
12   0.020916 
13   0.25725 
14   0.147516 
15   0.154384 
16   0.153059 
17   0.15163 
18   0.150673 
19   0.14938 
20   0.147615 
21   0.151456 
22   0.154299 
23   0.145057 
24   0.153497 
25   0.151944 
26   0.145297 
27   0.154636 
28   0.153864 
29   0.149359 
30   0.149726 
31   0.152342 
32   0.162298 
33   0.161415 
 
$$$$ 
 
