PCCDB-ID:  35797 
public computational chemistry database (PCCDB) project, http://pccdb.org 
 
 31 31  0  0  0  0  0  0  0  0999 V2000 
    1.6948    3.4632   -0.5755 C   0  0  0  0  0  0  0  0  0  0  0  0 
    4.0664    2.5368   -0.7911 C   0  0  0  0  0  0  0  0  0  0  0  0 
    2.7154    2.3618   -0.4702 C   0  0  0  0  0  0  0  0  0  0  0  0 
    2.4034    1.0547   -0.0449 C   0  0  0  0  0  0  0  0  0  0  0  0 
    0.9709   -1.7277    0.1375 C   0  0  0  0  0  0  0  0  0  0  0  0 
    5.8193   -2.9377    0.1397 C   0  0  0  0  0  0  0  0  0  0  0  0 
    4.5748    0.3965   -0.3044 C   0  0  0  0  0  0  0  0  0  0  0  0 
    1.6238   -2.7550    0.5569 N   0  0  0  0  0  0  0  0  0  0  0  0 
    0.1720   -1.6284   -0.9850 N   0  0  0  0  0  0  0  0  0  0  0  0 
    7.0216   -2.7731   -0.2831 N   0  0  0  0  0  0  0  0  0  0  0  0 
    5.1500   -4.1313    0.4193 N   0  0  0  0  0  0  0  0  0  0  0  0 
    5.0150    1.5987   -0.7249 N   0  0  0  0  0  0  0  0  0  0  0  0 
    3.3107    0.0948    0.0485 N   0  0  0  0  0  0  0  0  0  0  0  0 
    1.0958    0.6540    0.2744 N   0  0  0  0  0  0  0  0  0  0  0  0 
    0.9526   -0.5749    0.9547 N   0  0  0  0  0  0  0  0  0  0  0  0 
    5.0231   -1.8276    0.3790 N   0  0  0  0  0  0  0  0  0  0  0  0 
    5.4382   -0.6406   -0.2457 N   0  0  0  0  0  0  0  0  0  0  0  0 
    2.1537    4.3752   -0.9708 H   0  0  0  0  0  0  0  0  0  0  0  0 
    1.2523    3.7229    0.3977 H   0  0  0  0  0  0  0  0  0  0  0  0 
    0.8660    3.1964   -1.2454 H   0  0  0  0  0  0  0  0  0  0  0  0 
    4.4023    3.5186   -1.1279 H   0  0  0  0  0  0  0  0  0  0  0  0 
    1.4284   -3.5669   -0.0320 H   0  0  0  0  0  0  0  0  0  0  0  0 
    0.4300   -2.2365   -1.7503 H   0  0  0  0  0  0  0  0  0  0  0  0 
   -0.0227   -0.6765   -1.2745 H   0  0  0  0  0  0  0  0  0  0  0  0 
    7.5117   -3.6626   -0.3715 H   0  0  0  0  0  0  0  0  0  0  0  0 
    5.7559   -4.8823    0.7258 H   0  0  0  0  0  0  0  0  0  0  0  0 
    4.3330   -4.0341    1.0151 H   0  0  0  0  0  0  0  0  0  0  0  0 
    0.4946    1.3705    0.6637 H   0  0  0  0  0  0  0  0  0  0  0  0 
    1.6732   -0.6990    1.6660 H   0  0  0  0  0  0  0  0  0  0  0  0 
    4.0112   -1.9349    0.3015 H   0  0  0  0  0  0  0  0  0  0  0  0 
    6.4383   -0.5609   -0.3745 H   0  0  0  0  0  0  0  0  0  0  0  0 
  1  3  1  0  0  0  0 
  1 19  1  0  0  0  0 
  2 12  1  0  0  0  0 
  2  3  2  0  0  0  0 
  3  4  1  0  0  0  0 
  4 13  2  0  0  0  0 
  4 14  1  0  0  0  0 
  5  8  1  0  0  0  0 
  5 15  1  0  0  0  0 
  6 16  1  0  0  0  0 
  6 11  2  0  0  0  0 
  7 17  1  0  0  0  0 
  7 13  1  0  0  0  0 
  9  5  2  0  0  0  0 
 10  6  1  0  0  0  0 
 11 26  1  0  0  0  0 
 11 27  1  0  0  0  0 
 12  7  2  0  0  0  0 
 14 28  1  0  0  0  0 
 14 15  1  0  0  0  0 
 15 29  1  0  0  0  0 
 17 16  1  0  0  0  0 
 18  1  1  0  0  0  0 
 20  1  1  0  0  0  0 
 21  2  1  0  0  0  0 
 22  8  1  0  0  0  0 
 23  9  1  0  0  0  0 
 24  9  1  0  0  0  0 
 25 10  1  0  0  0  0 
 30 16  1  0  0  0  0 
 31 17  1  0  0  0  0 
M  RAD  2   8   2  10   2 
M  END 
>  <HBA> 
10 
 
>  <HBD> 
6 
 
>  <TPSA> 
178.64 
 
>  <cid> 
35797 
 
>  <dipole> 
3.57 
 
>  <excitation_energy_1> 
3.811 
 
>  <excitation_energy_2> 
4.38 
 
>  <excitation_energy_3> 
4.58 
 
>  <excitation_energy_4> 
4.807 
 
>  <homo_energy> 
-5.007 
 
>  <homo_lumo_gap> 
4.588 
 
>  <logP> 
0.933 
 
>  <lumo_energy> 
-0.419 
 
>  <melting_point> 
362.0 
 
>  <molecular_refractivity> 
63.81 
 
>  <oscillator_strength_1> 
0.0333 
 
>  <oscillator_strength_2> 
0.0015 
 
>  <oscillator_strength_3> 
0.0377 
 
>  <oscillator_strength_4> 
0.3849 
 
>  <open_babel_can_smiles> 
[NH]C(=[NH2])NNc1ncc(c(n1)NNC(=[NH2])[NH])C 
 
>  <mulliken_charges> 
31 
1   -0.552076 
2   0.000773 
3   0.111269 
4   0.461859 
5   0.624423 
6   0.626638 
7   0.726256 
8   -0.680355 
9   -0.736038 
10   -0.680558 
11   -0.771981 
12   -0.487633 
13   -0.60022 
14   -0.551463 
15   -0.440351 
16   -0.475921 
17   -0.519591 
18   0.167561 
19   0.152866 
20   0.159855 
21   0.136147 
22   0.275066 
23   0.328994 
24   0.341497 
25   0.272636 
26   0.323633 
27   0.343052 
28   0.342193 
29   0.339224 
30   0.390128 
31   0.372115 
 
>  <lowdin_charges> 
31 
1   -0.442638 
2   -0.063798 
3   -0.11169 
4   0.101065 
5   0.139936 
6   0.123168 
7   0.123084 
8   -0.496649 
9   -0.485251 
10   -0.50023 
11   -0.50335 
12   -0.21117 
13   -0.241012 
14   -0.243756 
15   -0.235144 
16   -0.226995 
17   -0.169959 
18   0.165794 
19   0.151161 
20   0.156365 
21   0.154971 
22   0.252018 
23   0.284748 
24   0.285243 
25   0.252239 
26   0.281095 
27   0.288021 
28   0.285798 
29   0.278381 
30   0.296703 
31   0.311853 
 
$$$$ 
 
