PCCDB-ID:  70329 
public computational chemistry database (PCCDB) project, http://pccdb.org 
 
 22 22  0  0  0  0  0  0  0  0999 V2000 
    0.3464    0.0163    0.0770 C   0  0  0  0  0  0  0  0  0  0  0  0 
    2.6146   -0.9757    0.6316 C   0  0  0  0  0  0  0  0  0  0  0  0 
    2.5468    1.0259   -0.6827 C   0  0  0  0  0  0  0  0  0  0  0  0 
    4.0129   -0.9732    0.5903 C   0  0  0  0  0  0  0  0  0  0  0  0 
    3.9350    1.0490   -0.7365 C   0  0  0  0  0  0  0  0  0  0  0  0 
    6.8627   -0.8253    0.4335 C   0  0  0  0  0  0  0  0  0  0  0  0 
    1.8558    0.0150    0.0049 C   0  0  0  0  0  0  0  0  0  0  0  0 
    4.6720    0.0465   -0.0966 C   0  0  0  0  0  0  0  0  0  0  0  0 
    8.3312   -0.4659    0.1943 C   0  0  0  0  0  0  0  0  0  0  0  0 
    9.2226   -1.1577    0.6171 O   0  0  0  0  0  0  0  0  0  0  0  0 
    8.5439    0.6604   -0.5067 O   0  0  0  0  0  0  0  0  0  0  0  0 
    6.0433    0.1449   -0.2033 O   0  0  0  0  0  0  0  0  0  0  0  0 
   -0.0411   -0.9680    0.3588 H   0  0  0  0  0  0  0  0  0  0  0  0 
   -0.1012    0.2906   -0.8849 H   0  0  0  0  0  0  0  0  0  0  0  0 
   -0.0195    0.7371    0.8203 H   0  0  0  0  0  0  0  0  0  0  0  0 
    2.1108   -1.7764    1.1679 H   0  0  0  0  0  0  0  0  0  0  0  0 
    1.9862    1.8092   -1.1878 H   0  0  0  0  0  0  0  0  0  0  0  0 
    4.5625   -1.7639    1.0884 H   0  0  0  0  0  0  0  0  0  0  0  0 
    4.4637    1.8318   -1.2721 H   0  0  0  0  0  0  0  0  0  0  0  0 
    6.6862   -0.8501    1.5164 H   0  0  0  0  0  0  0  0  0  0  0  0 
    6.6822   -1.8299    0.0311 H   0  0  0  0  0  0  0  0  0  0  0  0 
    7.6708    1.0361   -0.7368 H   0  0  0  0  0  0  0  0  0  0  0  0 
  1 13  1  0  0  0  0 
  1 15  1  0  0  0  0 
  2 16  1  0  0  0  0 
  3  7  1  0  0  0  0 
  4  2  1  0  0  0  0 
  4 18  1  0  0  0  0 
  5  3  2  0  0  0  0 
  5  8  1  0  0  0  0 
  6 20  1  0  0  0  0 
  7  1  1  0  0  0  0 
  7  2  2  0  0  0  0 
  8  4  2  0  0  0  0 
  9  6  1  0  0  0  0 
  9 10  2  0  0  0  0 
 11  9  1  0  0  0  0 
 12  8  1  0  0  0  0 
 12  6  1  0  0  0  0 
 14  1  1  0  0  0  0 
 17  3  1  0  0  0  0 
 19  5  1  0  0  0  0 
 21  6  1  0  0  0  0 
 22 11  1  0  0  0  0 
M  END 
>  <HBA> 
3 
 
>  <HBD> 
1 
 
>  <TPSA> 
46.53 
 
>  <cid> 
70329 
 
>  <dipole> 
4.92 
 
>  <excitation_energy_1> 
4.991 
 
>  <excitation_energy_2> 
5.61 
 
>  <excitation_energy_3> 
5.637 
 
>  <excitation_energy_4> 
5.759 
 
>  <homo_energy> 
-6.299 
 
>  <homo_lumo_gap> 
5.905 
 
>  <logP> 
1.458 
 
>  <lumo_energy> 
-0.395 
 
>  <melting_point> 
89.75 
 
>  <molecular_refractivity> 
44.48 
 
>  <oscillator_strength_1> 
0.0272 
 
>  <oscillator_strength_2> 
0.0628 
 
>  <oscillator_strength_3> 
0.0149 
 
>  <oscillator_strength_4> 
0.0442 
 
>  <open_babel_can_smiles> 
OC(=O)COc1ccc(cc1)C 
 
>  <mulliken_charges> 
22 
1   -0.530738 
2   -0.193557 
3   -0.182193 
4   -0.188007 
5   -0.172783 
6   -0.131336 
7   0.180902 
8   0.382449 
9   0.576777 
10   -0.444544 
11   -0.564756 
12   -0.566514 
13   0.157537 
14   0.160407 
15   0.166734 
16   0.13061 
17   0.130673 
18   0.141511 
19   0.136369 
20   0.187779 
21   0.188317 
22   0.434364 
 
>  <lowdin_charges> 
22 
1   -0.442235 
2   -0.155197 
3   -0.152947 
4   -0.20813 
5   -0.18036 
6   -0.166742 
7   -0.010647 
8   0.100142 
9   0.186578 
10   -0.242084 
11   -0.341998 
12   -0.223069 
13   0.158075 
14   0.159833 
15   0.163015 
16   0.159733 
17   0.160436 
18   0.166661 
19   0.166312 
20   0.168248 
21   0.169803 
22   0.364571 
 
$$$$ 
 
