PCCDB-ID:  37033 
public computational chemistry database (PCCDB) project, http://pccdb.org 
 
 32 33  0  0  1  0  0  0  0  0999 V2000 
    2.7140   -0.5842    1.4060 C   0  0  0  0  0  0  0  0  0  0  0  0 
    2.9011    1.2964   -0.0400 C   0  0  0  0  0  0  0  0  0  0  0  0 
    2.4519   -4.6704   -1.8192 C   0  0  0  0  0  0  0  0  0  0  0  0 
    2.1238   -0.4521   -2.3506 C   0  0  0  0  0  0  0  0  0  0  0  0 
    2.6417   -1.2710   -3.5402 C   0  0  0  0  0  0  0  0  0  0  0  0 
    2.6007   -5.5367   -2.9016 C   0  0  0  0  0  0  0  0  0  0  0  0 
    2.2698   -2.3777   -0.7959 C   0  0  0  0  0  0  0  0  0  0  0  0 
    2.4544   -3.2854   -2.0004 C   0  0  0  0  0  0  0  0  0  0  0  0 
    2.7388   -0.9304   -1.0249 C   0  0  2  0  0  0  0  0  0  0  0  0 
    2.6161   -2.7672   -3.2979 C   0  0  0  0  0  0  0  0  0  0  0  0 
    2.7700   -5.0331   -4.1893 C   0  0  0  0  0  0  0  0  0  0  0  0 
    2.7889   -3.6419   -4.3818 C   0  0  0  0  0  0  0  0  0  0  0  0 
    2.3507   -0.0502    0.0947 N   0  0  0  0  0  0  0  0  0  0  0  0 
    2.9330   -5.8229   -5.2958 O   0  0  0  0  0  0  0  0  0  0  0  0 
    2.9772   -3.2079   -5.6674 O   0  0  0  0  0  0  0  0  0  0  0  0 
    2.4247    0.1399    2.1745 H   0  0  0  0  0  0  0  0  0  0  0  0 
    3.7998   -0.7776    1.5169 H   0  0  0  0  0  0  0  0  0  0  0  0 
    2.1776   -1.5120    1.6153 H   0  0  0  0  0  0  0  0  0  0  0  0 
    2.5852    1.8998    0.8171 H   0  0  0  0  0  0  0  0  0  0  0  0 
    2.5261    1.7906   -0.9388 H   0  0  0  0  0  0  0  0  0  0  0  0 
    4.0090    1.3114   -0.0758 H   0  0  0  0  0  0  0  0  0  0  0  0 
    2.3324   -5.0811   -0.8197 H   0  0  0  0  0  0  0  0  0  0  0  0 
    1.0329   -0.5443   -2.2726 H   0  0  0  0  0  0  0  0  0  0  0  0 
    2.3397    0.6026   -2.5415 H   0  0  0  0  0  0  0  0  0  0  0  0 
    3.6701   -0.9501   -3.7748 H   0  0  0  0  0  0  0  0  0  0  0  0 
    2.0337   -1.0149   -4.4216 H   0  0  0  0  0  0  0  0  0  0  0  0 
    2.5968   -6.6145   -2.7466 H   0  0  0  0  0  0  0  0  0  0  0  0 
    2.8004   -2.8269    0.0496 H   0  0  0  0  0  0  0  0  0  0  0  0 
    1.2072   -2.3390   -0.5110 H   0  0  0  0  0  0  0  0  0  0  0  0 
    3.8451   -0.9388   -1.1343 H   0  0  0  0  0  0  0  0  0  0  0  0 
    2.8945   -6.7497   -5.0134 H   0  0  0  0  0  0  0  0  0  0  0  0 
    3.0426   -2.2417   -5.6643 H   0  0  0  0  0  0  0  0  0  0  0  0 
  1 17  1  0  0  0  0 
  1 18  1  0  0  0  0 
  1 16  1  0  0  0  0 
  2 13  1  0  0  0  0 
  2 19  1  0  0  0  0 
  3 22  1  0  0  0  0 
  4 23  1  0  0  0  0 
  4  9  1  0  0  0  0 
  5 10  1  0  0  0  0 
  5  4  1  0  0  0  0 
  6 27  1  0  0  0  0 
  6  3  2  0  0  0  0 
  7 29  1  0  0  0  0 
  7 28  1  0  0  0  0 
  8  3  1  0  0  0  0 
  8  7  1  0  0  0  0 
  9 30  1  6  0  0  0 
  9  7  1  0  0  0  0 
  9 13  1  0  0  0  0 
 10  8  2  0  0  0  0 
 11  6  1  0  0  0  0 
 12 11  2  0  0  0  0 
 12 10  1  0  0  0  0 
 13  1  1  0  0  0  0 
 14 31  1  0  0  0  0 
 14 11  1  0  0  0  0 
 15 32  1  0  0  0  0 
 15 12  1  0  0  0  0 
 20  2  1  0  0  0  0 
 21  2  1  0  0  0  0 
 24  4  1  0  0  0  0 
 25  5  1  0  0  0  0 
 26  5  1  0  0  0  0 
M  END 
>  <HBA> 
3 
 
>  <HBD> 
2 
 
>  <TPSA> 
43.7 
 
>  <cid> 
37033 
 
>  <dipole> 
1.74 
 
>  <excitation_energy_1> 
4.691 
 
>  <excitation_energy_2> 
4.793 
 
>  <excitation_energy_3> 
4.922 
 
>  <excitation_energy_4> 
5.204 
 
>  <homo_energy> 
-5.323 
 
>  <homo_lumo_gap> 
5.636 
 
>  <logP> 
1.517 
 
>  <lumo_energy> 
0.313 
 
>  <melting_point> 
116.5 
 
>  <molecular_refractivity> 
60.43 
 
>  <oscillator_strength_1> 
0.0034 
 
>  <oscillator_strength_2> 
0.0325 
 
>  <oscillator_strength_3> 
0.0008 
 
>  <oscillator_strength_4> 
0.0128 
 
>  <open_babel_can_smiles> 
CN([C@@H]1CCc2c(C1)ccc(c2O)O)C 
 
>  <mulliken_charges> 
32 
1   -0.300113 
2   -0.301699 
3   -0.203564 
4   -0.277943 
5   -0.399475 
6   -0.198857 
7   -0.375868 
8   0.11617 
9   0.077355 
10   0.101858 
11   0.322677 
12   0.225189 
13   -0.39173 
14   -0.636716 
15   -0.640465 
16   0.146637 
17   0.117277 
18   0.158242 
19   0.148397 
20   0.153573 
21   0.116927 
22   0.115247 
23   0.151184 
24   0.136868 
25   0.153235 
26   0.143064 
27   0.113958 
28   0.149533 
29   0.158743 
30   0.100772 
31   0.40474 
32   0.414785 
 
>  <lowdin_charges> 
32 
1   -0.357611 
2   -0.35721 
3   -0.178332 
4   -0.273431 
5   -0.284481 
6   -0.205449 
7   -0.278876 
8   -0.024789 
9   -0.056508 
10   -0.059247 
11   0.072227 
12   0.070501 
13   -0.18735 
14   -0.371724 
15   -0.372606 
16   0.151194 
17   0.118418 
18   0.153076 
19   0.151587 
20   0.150494 
21   0.117685 
22   0.152789 
23   0.148654 
24   0.146644 
25   0.147261 
26   0.147541 
27   0.150263 
28   0.154808 
29   0.153925 
30   0.111049 
31   0.355491 
32   0.354006 
 
$$$$ 
 
