PCCDB-ID:  33888 
public computational chemistry database (PCCDB) project, http://pccdb.org 
 
 34 34  0  0  1  0  0  0  0  0999 V2000 
    0.7935    1.1047   -1.0910 C   0  0  0  0  0  0  0  0  0  0  0  0 
    8.6064    0.6490    2.3954 C   0  0  0  0  0  0  0  0  0  0  0  0 
    7.0988   -1.1479    3.3608 C   0  0  0  0  0  0  0  0  0  0  0  0 
    6.9759    1.8177   -4.6557 C   0  0  0  0  0  0  0  0  0  0  0  0 
    2.2987    0.8936   -0.9351 C   0  0  0  0  0  0  0  0  0  0  0  0 
    6.6290   -0.2082    1.0641 C   0  0  0  0  0  0  0  0  0  0  0  0 
    7.7213   -0.5643    2.0862 C   0  0  0  0  0  0  0  0  0  0  0  0 
    6.2212    1.4342   -3.4134 C   0  0  2  0  0  0  0  0  0  0  0  0 
    4.2630    1.1705   -2.2085 C   0  0  0  0  0  0  0  0  0  0  0  0 
    6.4405    0.6026   -1.1368 C   0  0  0  0  0  0  0  0  0  0  0  0 
    2.9904    1.2690   -2.1571 N   0  0  0  0  0  0  0  0  0  0  0  0 
    7.2132    0.2052   -0.2025 N   0  0  0  0  0  0  0  0  0  0  0  0 
    4.9348    1.5300   -3.3779 N   0  0  0  0  0  0  0  0  0  0  0  0 
    6.9889    0.9968   -2.3577 N   0  0  0  0  0  0  0  0  0  0  0  0 
    5.0597    0.7058   -1.1305 N   0  0  0  0  0  0  0  0  0  0  0  0 
    0.2590    0.8219   -0.1767 H   0  0  0  0  0  0  0  0  0  0  0  0 
    0.4104    0.5029   -1.9213 H   0  0  0  0  0  0  0  0  0  0  0  0 
    0.5787    2.1550   -1.3119 H   0  0  0  0  0  0  0  0  0  0  0  0 
    9.4335    0.3752    3.0609 H   0  0  0  0  0  0  0  0  0  0  0  0 
    8.0265    1.4388    2.8925 H   0  0  0  0  0  0  0  0  0  0  0  0 
    9.0255    1.0655    1.4746 H   0  0  0  0  0  0  0  0  0  0  0  0 
    7.8737   -1.4285    4.0833 H   0  0  0  0  0  0  0  0  0  0  0  0 
    6.5015   -2.0430    3.1475 H   0  0  0  0  0  0  0  0  0  0  0  0 
    6.4422   -0.4166    3.8506 H   0  0  0  0  0  0  0  0  0  0  0  0 
    6.2635    2.1194   -5.4235 H   0  0  0  0  0  0  0  0  0  0  0  0 
    7.5736    0.9762   -5.0271 H   0  0  0  0  0  0  0  0  0  0  0  0 
    7.6612    2.6502   -4.4538 H   0  0  0  0  0  0  0  0  0  0  0  0 
    2.4884   -0.1658   -0.6802 H   0  0  0  0  0  0  0  0  0  0  0  0 
    2.6575    1.4887   -0.0744 H   0  0  0  0  0  0  0  0  0  0  0  0 
    5.9946    0.5893    1.4967 H   0  0  0  0  0  0  0  0  0  0  0  0 
    5.9754   -1.0878    0.9248 H   0  0  0  0  0  0  0  0  0  0  0  0 
    8.3491   -1.3356    1.6177 H   0  0  0  0  0  0  0  0  0  0  0  0 
    7.9957    0.9286   -2.4201 H   0  0  0  0  0  0  0  0  0  0  0  0 
    4.5901    0.4431   -0.2766 H   0  0  0  0  0  0  0  0  0  0  0  0 
  1  5  1  0  0  0  0 
  1 16  1  0  0  0  0 
  2 20  1  0  0  0  0 
  2 19  1  0  0  0  0 
  3 24  1  0  0  0  0 
  3 22  1  0  0  0  0 
  4 27  1  0  0  0  0 
  5 28  1  0  0  0  0 
  5 29  1  0  0  0  0 
  6 30  1  0  0  0  0 
  6  7  1  0  0  0  0 
  7  2  1  0  0  0  0 
  7  3  1  0  0  0  0 
  8  4  1  1  0  0  0 
  8 13  1  0  0  0  0 
  8 14  1  0  0  0  0 
  9 11  1  0  0  0  0 
  9 15  1  0  0  0  0 
 10 15  1  0  0  0  0 
 10 12  2  0  0  0  0 
 11  5  1  0  0  0  0 
 12  6  1  0  0  0  0 
 13  9  2  0  0  0  0 
 14 10  1  0  0  0  0 
 15 34  1  0  0  0  0 
 17  1  1  0  0  0  0 
 18  1  1  0  0  0  0 
 21  2  1  0  0  0  0 
 23  3  1  0  0  0  0 
 25  4  1  0  0  0  0 
 26  4  1  0  0  0  0 
 31  6  1  0  0  0  0 
 32  7  1  0  0  0  0 
 33 14  1  0  0  0  0 
M  RAD  2   8   2  11   2 
M  END 
>  <HBA> 
5 
 
>  <HBD> 
2 
 
>  <TPSA> 
62.73 
 
>  <cid> 
33888 
 
>  <dipole> 
2.87 
 
>  <excitation_energy_1> 
4.894 
 
>  <excitation_energy_2> 
4.945 
 
>  <excitation_energy_3> 
5.149 
 
>  <excitation_energy_4> 
5.414 
 
>  <homo_energy> 
-6.172 
 
>  <homo_lumo_gap> 
5.584 
 
>  <logP> 
1.826 
 
>  <lumo_energy> 
-0.588 
 
>  <melting_point> 
122.13 
 
>  <molecular_refractivity> 
62.63 
 
>  <oscillator_strength_1> 
0.0013 
 
>  <oscillator_strength_2> 
0.0951 
 
>  <oscillator_strength_3> 
0.0907 
 
>  <oscillator_strength_4> 
0.0 
 
>  <open_babel_can_smiles> 
CC[N]C1=N[C](N/C(=N/CC(C)C)/N1)C 
 
>  <mulliken_charges> 
34 
1   -0.431826 
2   -0.442392 
3   -0.448605 
4   -0.535567 
5   -0.160151 
6   -0.15004 
7   -0.068585 
8   0.517638 
9   0.651685 
10   0.764845 
11   -0.453003 
12   -0.512319 
13   -0.48855 
14   -0.675744 
15   -0.746049 
16   0.130125 
17   0.156729 
18   0.156418 
19   0.136844 
20   0.130703 
21   0.161014 
22   0.145357 
23   0.138244 
24   0.137188 
25   0.205291 
26   0.172563 
27   0.175119 
28   0.126245 
29   0.125094 
30   0.119861 
31   0.127662 
32   0.132653 
33   0.346681 
34   0.354869 
 
>  <lowdin_charges> 
34 
1   -0.443108 
2   -0.449058 
3   -0.448599 
4   -0.451558 
5   -0.206873 
6   -0.207537 
7   -0.123024 
8   0.116396 
9   0.117891 
10   0.137563 
11   -0.216504 
12   -0.269337 
13   -0.193702 
14   -0.227871 
15   -0.271356 
16   0.144657 
17   0.157235 
18   0.15493 
19   0.147467 
20   0.142773 
21   0.158436 
22   0.152443 
23   0.146529 
24   0.145669 
25   0.189247 
26   0.169571 
27   0.170843 
28   0.126666 
29   0.127997 
30   0.126229 
31   0.132127 
32   0.143685 
33   0.301778 
34   0.298396 
 
$$$$ 
 
