PCCDB-ID:  55918 
public computational chemistry database (PCCDB) project, http://pccdb.org 
 
 30 32  0  0  0  0  0  0  0  0999 V2000 
   -0.7845    1.0486   -0.0546 C   0  0  0  0  0  0  0  0  0  0  0  0 
    1.3698   -0.0279   -0.0968 C   0  0  0  0  0  0  0  0  0  0  0  0 
   -1.4108   -0.1960   -0.0386 C   0  0  0  0  0  0  0  0  0  0  0  0 
    0.7540   -1.2702   -0.1081 C   0  0  0  0  0  0  0  0  0  0  0  0 
    0.5292    3.7743   -0.1869 C   0  0  0  0  0  0  0  0  0  0  0  0 
    1.3987    4.7701   -0.9643 C   0  0  0  0  0  0  0  0  0  0  0  0 
   -1.7685   -4.7519    0.2225 C   0  0  0  0  0  0  0  0  0  0  0  0 
   -0.8369   -3.7956    0.5284 C   0  0  0  0  0  0  0  0  0  0  0  0 
   -2.4474   -2.9663   -0.7349 C   0  0  0  0  0  0  0  0  0  0  0  0 
    0.6144    1.1613   -0.0808 C   0  0  0  0  0  0  0  0  0  0  0  0 
   -0.6452   -1.3642   -0.0766 C   0  0  0  0  0  0  0  0  0  0  0  0 
    1.3020    2.4735   -0.0713 C   0  0  0  0  0  0  0  0  0  0  0  0 
    2.7758    4.7302   -0.3516 C   0  0  0  0  0  0  0  0  0  0  0  0 
   -2.7671   -4.2281   -0.5720 N   0  0  0  0  0  0  0  0  0  0  0  0 
    2.5920    2.4689    0.0194 N   0  0  0  0  0  0  0  0  0  0  0  0 
    3.2973    3.6728    0.1492 N   0  0  0  0  0  0  0  0  0  0  0  0 
   -1.2783   -2.6320   -0.0870 N   0  0  0  0  0  0  0  0  0  0  0  0 
    3.5166    5.8633   -0.2989 O   0  0  0  0  0  0  0  0  0  0  0  0 
   -1.4098    1.9346   -0.0165 H   0  0  0  0  0  0  0  0  0  0  0  0 
    2.4509    0.0497   -0.1127 H   0  0  0  0  0  0  0  0  0  0  0  0 
   -2.4923   -0.2595    0.0266 H   0  0  0  0  0  0  0  0  0  0  0  0 
    1.3530   -2.1740   -0.1606 H   0  0  0  0  0  0  0  0  0  0  0  0 
   -0.4255    3.6323   -0.6969 H   0  0  0  0  0  0  0  0  0  0  0  0 
    0.3083    4.1691    0.8157 H   0  0  0  0  0  0  0  0  0  0  0  0 
    0.9740    5.7800   -0.9234 H   0  0  0  0  0  0  0  0  0  0  0  0 
    1.4574    4.4825   -2.0239 H   0  0  0  0  0  0  0  0  0  0  0  0 
   -1.7818   -5.7883    0.5320 H   0  0  0  0  0  0  0  0  0  0  0  0 
    0.0504   -3.8091    1.1422 H   0  0  0  0  0  0  0  0  0  0  0  0 
   -2.9875   -2.2470   -1.3350 H   0  0  0  0  0  0  0  0  0  0  0  0 
    3.0099    6.5932   -0.6860 H   0  0  0  0  0  0  0  0  0  0  0  0 
  1  3  1  0  0  0  0 
  1 19  1  0  0  0  0 
  2 10  1  0  0  0  0 
  3 21  1  0  0  0  0 
  4  2  2  0  0  0  0 
  4 11  1  0  0  0  0 
  5 12  1  0  0  0  0 
  5 24  1  0  0  0  0 
  6 25  1  0  0  0  0 
  6 13  1  0  0  0  0 
  6  5  1  0  0  0  0 
  7  8  2  0  0  0  0 
  7 27  1  0  0  0  0 
  8 28  1  0  0  0  0 
  9 14  2  0  0  0  0 
  9 17  1  0  0  0  0 
 10 12  1  0  0  0  0 
 10  1  2  0  0  0  0 
 11  3  2  0  0  0  0 
 12 15  2  0  0  0  0 
 13 18  1  0  0  0  0 
 13 16  2  0  0  0  0 
 14  7  1  0  0  0  0 
 15 16  1  0  0  0  0 
 17 11  1  0  0  0  0 
 17  8  1  0  0  0  0 
 20  2  1  0  0  0  0 
 22  4  1  0  0  0  0 
 23  5  1  0  0  0  0 
 26  6  1  0  0  0  0 
 29  9  1  0  0  0  0 
 30 18  1  0  0  0  0 
M  END 
>  <HBA> 
5 
 
>  <HBD> 
1 
 
>  <TPSA> 
59.28 
 
>  <cid> 
55918 
 
>  <dipole> 
5.82 
 
>  <excitation_energy_1> 
3.635 
 
>  <excitation_energy_2> 
3.832 
 
>  <excitation_energy_3> 
4.096 
 
>  <excitation_energy_4> 
4.505 
 
>  <homo_energy> 
-5.976 
 
>  <homo_lumo_gap> 
4.264 
 
>  <logP> 
1.251 
 
>  <lumo_energy> 
-1.712 
 
>  <melting_point> 
145.09 
 
>  <molecular_refractivity> 
74.76 
 
>  <oscillator_strength_1> 
0.0034 
 
>  <oscillator_strength_2> 
0.5051 
 
>  <oscillator_strength_3> 
0.213 
 
>  <oscillator_strength_4> 
0.0021 
 
>  <open_babel_can_smiles> 
OC1=NN=C(CC1)c1ccc(cc1)n1cncc1 
 
>  <mulliken_charges> 
30 
1   -0.211295 
2   -0.173161 
3   -0.166719 
4   -0.161076 
5   -0.348177 
6   -0.370023 
7   -0.041115 
8   0.010255 
9   0.198206 
10   0.120253 
11   0.31677 
12   0.29705 
13   0.516365 
14   -0.434868 
15   -0.354176 
16   -0.306801 
17   -0.493795 
18   -0.56908 
19   0.133993 
20   0.17867 
21   0.148975 
22   0.15139 
23   0.165744 
24   0.178678 
25   0.151636 
26   0.189396 
27   0.139996 
28   0.162031 
29   0.159088 
30   0.41179 
 
>  <lowdin_charges> 
30 
1   -0.157572 
2   -0.124706 
3   -0.170604 
4   -0.168849 
5   -0.289709 
6   -0.303763 
7   -0.14796 
8   -0.170481 
9   -0.100372 
10   -0.017073 
11   0.053385 
12   0.027406 
13   0.118753 
14   -0.178763 
15   -0.108443 
16   -0.142478 
17   0.012364 
18   -0.341271 
19   0.161086 
20   0.182494 
21   0.166196 
22   0.169976 
23   0.165195 
24   0.16728 
25   0.157847 
26   0.171726 
27   0.162481 
28   0.173874 
29   0.17048 
30   0.3615 
 
$$$$ 
 
