PCCDB-ID:  20252 
public computational chemistry database (PCCDB) project, http://pccdb.org 
 
 22 21  0  0  0  0  0  0  0  0999 V2000 
    1.2059   -2.6178   -2.0160 C   0  0  0  0  0  0  0  0  0  0  0  0 
    7.9306   -2.0820    1.8818 C   0  0  0  0  0  0  0  0  0  0  0  0 
    2.0483   -1.5777   -1.2695 C   0  0  0  0  0  0  0  0  0  0  0  0 
    6.7527   -1.2011    1.4512 C   0  0  0  0  0  0  0  0  0  0  0  0 
    3.2381   -2.2070   -0.5441 C   0  0  0  0  0  0  0  0  0  0  0  0 
    5.6136   -2.0165    0.8381 C   0  0  0  0  0  0  0  0  0  0  0  0 
    4.8281   -0.0225   -0.8328 O   0  0  0  0  0  0  0  0  0  0  0  0 
    4.2576   -0.8962    0.2686 S   0  0  0  0  0  0  0  0  0  0  0  0 
    0.3669   -2.1401   -2.5339 H   0  0  0  0  0  0  0  0  0  0  0  0 
    0.7919   -3.3672   -1.3304 H   0  0  0  0  0  0  0  0  0  0  0  0 
    1.8035   -3.1471   -2.7676 H   0  0  0  0  0  0  0  0  0  0  0  0 
    8.7363   -1.4740    2.3077 H   0  0  0  0  0  0  0  0  0  0  0  0 
    8.3446   -2.6349    1.0302 H   0  0  0  0  0  0  0  0  0  0  0  0 
    7.6283   -2.8145    2.6402 H   0  0  0  0  0  0  0  0  0  0  0  0 
    1.4201   -1.0417   -0.5454 H   0  0  0  0  0  0  0  0  0  0  0  0 
    2.4304   -0.8275   -1.9713 H   0  0  0  0  0  0  0  0  0  0  0  0 
    7.0842   -0.4625    0.7124 H   0  0  0  0  0  0  0  0  0  0  0  0 
    6.3758   -0.6370    2.3148 H   0  0  0  0  0  0  0  0  0  0  0  0 
    3.8902   -2.7392   -1.2476 H   0  0  0  0  0  0  0  0  0  0  0  0 
    2.9177   -2.9040    0.2410 H   0  0  0  0  0  0  0  0  0  0  0  0 
    5.1746   -2.7161    1.5610 H   0  0  0  0  0  0  0  0  0  0  0  0 
    5.9618   -2.5806   -0.0359 H   0  0  0  0  0  0  0  0  0  0  0  0 
  1 10  1  0  0  0  0 
  1  3  1  0  0  0  0 
  2 12  1  0  0  0  0 
  2 14  1  0  0  0  0 
  3 15  1  0  0  0  0 
  3  5  1  0  0  0  0 
  4  2  1  0  0  0  0 
  4 18  1  0  0  0  0 
  5 20  1  0  0  0  0 
  5  8  1  0  0  0  0 
  6  4  1  0  0  0  0 
  6 21  1  0  0  0  0 
  7  8  2  0  0  0  0 
  8  6  1  0  0  0  0 
  9  1  1  0  0  0  0 
 11  1  1  0  0  0  0 
 13  2  1  0  0  0  0 
 16  3  1  0  0  0  0 
 17  4  1  0  0  0  0 
 19  5  1  0  0  0  0 
 22  6  1  0  0  0  0 
M  END 
>  <HBA> 
1 
 
>  <HBD> 
0 
 
>  <TPSA> 
36.28 
 
>  <cid> 
20252 
 
>  <dipole> 
3.67 
 
>  <excitation_energy_1> 
5.545 
 
>  <excitation_energy_2> 
5.628 
 
>  <excitation_energy_3> 
5.665 
 
>  <excitation_energy_4> 
6.06 
 
>  <homo_energy> 
-5.87 
 
>  <homo_lumo_gap> 
6.996 
 
>  <logP> 
2.421 
 
>  <lumo_energy> 
1.127 
 
>  <melting_point> 
-7.26 
 
>  <molecular_refractivity> 
39.23 
 
>  <oscillator_strength_1> 
0.0818 
 
>  <oscillator_strength_2> 
0.0174 
 
>  <oscillator_strength_3> 
0.0155 
 
>  <oscillator_strength_4> 
0.0678 
 
>  <open_babel_can_smiles> 
CCCS(=O)CCC 
 
>  <mulliken_charges> 
22 
1   -0.444063 
2   -0.443738 
3   -0.268372 
4   -0.267845 
5   -0.449988 
6   -0.450616 
7   -0.644525 
8   0.761029 
9   0.153802 
10   0.142721 
11   0.148885 
12   0.153709 
13   0.148669 
14   0.142627 
15   0.14787 
16   0.177351 
17   0.177443 
18   0.147791 
19   0.175053 
20   0.158624 
21   0.158718 
22   0.174857 
 
>  <lowdin_charges> 
22 
1   -0.445643 
2   -0.444958 
3   -0.280557 
4   -0.279665 
5   -0.424051 
6   -0.423347 
7   -0.684512 
8   0.794772 
9   0.156468 
10   0.148011 
11   0.151501 
12   0.156549 
13   0.151047 
14   0.147678 
15   0.149834 
16   0.164762 
17   0.164703 
18   0.149197 
19   0.162598 
20   0.161739 
21   0.16219 
22   0.161683 
 
$$$$ 
 
