PCCDB-ID:  33806 
public computational chemistry database (PCCDB) project, http://pccdb.org 
 
 26 27  0  0  0  0  0  0  0  0999 V2000 
    1.0093    0.0602    0.0911 C   0  0  0  0  0  0  0  0  0  0  0  0 
    2.4936    2.6001   -0.0046 C   0  0  0  0  0  0  0  0  0  0  0  0 
    5.4209   -3.6674    0.1101 C   0  0  0  0  0  0  0  0  0  0  0  0 
    3.2052   -1.1566    0.0818 C   0  0  0  0  0  0  0  0  0  0  0  0 
    4.6351    1.2940   -0.0104 C   0  0  0  0  0  0  0  0  0  0  0  0 
    2.5204    0.0534    0.0624 C   0  0  0  0  0  0  0  0  0  0  0  0 
    3.2405    1.2882    0.0161 C   0  0  0  0  0  0  0  0  0  0  0  0 
    5.6257   -2.1862    0.0659 C   0  0  0  0  0  0  0  0  0  0  0  0 
    4.6106   -1.1632    0.0561 C   0  0  0  0  0  0  0  0  0  0  0  0 
    5.2857    0.0669    0.0103 C   0  0  0  0  0  0  0  0  0  0  0  0 
    6.8018   -1.4816    0.0258 C   0  0  0  0  0  0  0  0  0  0  0  0 
    8.1479   -1.9484    0.0152 N   0  0  0  0  0  0  0  0  0  0  0  0 
    8.2996   -3.1787    0.0438 O   0  0  0  0  0  0  0  0  0  0  0  0 
    9.0544   -1.1168   -0.0206 O   0  0  0  0  0  0  0  0  0  0  0  0 
    6.6375   -0.1252   -0.0086 O   0  0  0  0  0  0  0  0  0  0  0  0 
    0.6137   -0.9594    0.1075 H   0  0  0  0  0  0  0  0  0  0  0  0 
    0.5869    0.5675   -0.7856 H   0  0  0  0  0  0  0  0  0  0  0  0 
    0.6210    0.5821    0.9752 H   0  0  0  0  0  0  0  0  0  0  0  0 
    3.1846    3.4475   -0.0215 H   0  0  0  0  0  0  0  0  0  0  0  0 
    1.8475    2.7115    0.8754 H   0  0  0  0  0  0  0  0  0  0  0  0 
    1.8431    2.6808   -0.8850 H   0  0  0  0  0  0  0  0  0  0  0  0 
    4.3542   -3.9079    0.1228 H   0  0  0  0  0  0  0  0  0  0  0  0 
    5.8906   -4.1034    0.9974 H   0  0  0  0  0  0  0  0  0  0  0  0 
    5.8824   -4.1546   -0.7544 H   0  0  0  0  0  0  0  0  0  0  0  0 
    2.6503   -2.0905    0.1167 H   0  0  0  0  0  0  0  0  0  0  0  0 
    5.1965    2.2219   -0.0463 H   0  0  0  0  0  0  0  0  0  0  0  0 
  1 16  1  0  0  0  0 
  1 18  1  0  0  0  0 
  2  7  1  0  0  0  0 
  2 20  1  0  0  0  0 
  3 22  1  0  0  0  0 
  3 23  1  0  0  0  0 
  4 25  1  0  0  0  0 
  5 10  2  0  0  0  0 
  5  7  1  0  0  0  0 
  6  4  1  0  0  0  0 
  6  1  1  0  0  0  0 
  7  6  2  0  0  0  0 
  8  3  1  0  0  0  0 
  9  8  1  0  0  0  0 
  9  4  2  0  0  0  0 
 10  9  1  0  0  0  0 
 11  8  2  0  0  0  0 
 12 11  1  0  0  0  0 
 12 13  2  0  0  0  0 
 14 12  2  0  0  0  0 
 15 10  1  0  0  0  0 
 15 11  1  0  0  0  0 
 17  1  1  0  0  0  0 
 19  2  1  0  0  0  0 
 21  2  1  0  0  0  0 
 24  3  1  0  0  0  0 
 26  5  1  0  0  0  0 
M  END 
>  <HBA> 
1 
 
>  <HBD> 
0 
 
>  <TPSA> 
58.96 
 
>  <cid> 
33806 
 
>  <dipole> 
6.4 
 
>  <excitation_energy_1> 
3.612 
 
>  <excitation_energy_2> 
3.73 
 
>  <excitation_energy_3> 
3.793 
 
>  <excitation_energy_4> 
4.249 
 
>  <homo_energy> 
-6.474 
 
>  <homo_lumo_gap> 
4.071 
 
>  <logP> 
3.789 
 
>  <lumo_energy> 
-2.403 
 
>  <melting_point> 
101.2 
 
>  <molecular_refractivity> 
59.93 
 
>  <oscillator_strength_1> 
0.0497 
 
>  <oscillator_strength_2> 
0.0 
 
>  <oscillator_strength_3> 
0.4382 
 
>  <oscillator_strength_4> 
0.0003 
 
>  <open_babel_can_smiles> 
Cc1cc2c(cc1C)oc(c2C)N(=O)=O 
 
>  <mulliken_charges> 
26 
1   -0.534495 
2   -0.535515 
3   -0.508363 
4   -0.26687 
5   -0.253789 
6   0.131904 
7   0.125238 
8   0.132162 
9   0.083889 
10   0.339143 
11   0.451379 
12   0.325537 
13   -0.416742 
14   -0.392005 
15   -0.49698 
16   0.159866 
17   0.163922 
18   0.164335 
19   0.163927 
20   0.166858 
21   0.16732 
22   0.156365 
23   0.190741 
24   0.191378 
25   0.137321 
26   0.153472 
 
>  <lowdin_charges> 
26 
1   -0.440926 
2   -0.440757 
3   -0.433729 
4   -0.161887 
5   -0.183518 
6   -0.009524 
7   0.009823 
8   0.00403 
9   -0.041257 
10   0.099582 
11   0.066298 
12   0.30111 
13   -0.263278 
14   -0.241114 
15   -0.091386 
16   0.158962 
17   0.161429 
18   0.161445 
19   0.162123 
20   0.163467 
21   0.163579 
22   0.157367 
23   0.181133 
24   0.181584 
25   0.161375 
26   0.174069 
 
$$$$ 
 
