PCCDB-ID:  14518 
public computational chemistry database (PCCDB) project, http://pccdb.org 
 
 19 19  0  0  0  0  0  0  0  0999 V2000 
    0.9358   -0.0166    0.0051 C   0  0  0  0  0  0  0  0  0  0  0  0 
    2.9894   -1.2663    0.8625 C   0  0  0  0  0  0  0  0  0  0  0  0 
    2.9884    1.2381    0.8575 C   0  0  0  0  0  0  0  0  0  0  0  0 
    3.1516   -0.0101    2.8267 C   0  0  0  0  0  0  0  0  0  0  0  0 
    2.4628   -0.0158    0.1231 C   0  0  0  0  0  0  0  0  0  0  0  0 
    3.0222   -0.0183   -1.2907 N   0  0  0  0  0  0  0  0  0  0  0  0 
    3.2108    1.0712   -1.8258 O   0  0  0  0  0  0  0  0  0  0  0  0 
    3.2153   -1.1098   -1.8202 O   0  0  0  0  0  0  0  0  0  0  0  0 
    2.6364   -1.1803    2.2373 O   0  0  0  0  0  0  0  0  0  0  0  0 
    2.6355    1.1575    2.2325 O   0  0  0  0  0  0  0  0  0  0  0  0 
    0.5110   -0.0147    1.0113 H   0  0  0  0  0  0  0  0  0  0  0  0 
    0.5897   -0.9090   -0.5254 H   0  0  0  0  0  0  0  0  0  0  0  0 
    0.5892    0.8734   -0.5291 H   0  0  0  0  0  0  0  0  0  0  0  0 
    4.0827   -1.3341    0.7483 H   0  0  0  0  0  0  0  0  0  0  0  0 
    2.5423   -2.1799    0.4705 H   0  0  0  0  0  0  0  0  0  0  0  0 
    2.5407    2.1497    0.4616 H   0  0  0  0  0  0  0  0  0  0  0  0 
    4.0817    1.3062    0.7430 H   0  0  0  0  0  0  0  0  0  0  0  0 
    4.2552   -0.0098    2.7555 H   0  0  0  0  0  0  0  0  0  0  0  0 
    2.8301   -0.0080    3.8684 H   0  0  0  0  0  0  0  0  0  0  0  0 
  1  5  1  0  0  0  0 
  1 11  1  0  0  0  0 
  2  9  1  0  0  0  0 
  3 10  1  0  0  0  0 
  4 19  1  0  0  0  0 
  5  3  1  0  0  0  0 
  5  2  1  0  0  0  0 
  6  5  1  0  0  0  0 
  7  6  2  0  0  0  0 
  8  6  2  0  0  0  0 
  9  4  1  0  0  0  0 
 10  4  1  0  0  0  0 
 12  1  1  0  0  0  0 
 13  1  1  0  0  0  0 
 14  2  1  0  0  0  0 
 15  2  1  0  0  0  0 
 16  3  1  0  0  0  0 
 17  3  1  0  0  0  0 
 18  4  1  0  0  0  0 
M  END 
>  <HBA> 
2 
 
>  <HBD> 
0 
 
>  <TPSA> 
64.28 
 
>  <cid> 
14518 
 
>  <dipole> 
2.05 
 
>  <excitation_energy_1> 
4.129 
 
>  <excitation_energy_2> 
4.354 
 
>  <excitation_energy_3> 
4.724 
 
>  <excitation_energy_4> 
4.982 
 
>  <homo_energy> 
-7.693 
 
>  <homo_lumo_gap> 
5.633 
 
>  <logP> 
0.549 
 
>  <lumo_energy> 
-2.06 
 
>  <melting_point> 
20.56 
 
>  <molecular_refractivity> 
34.35 
 
>  <oscillator_strength_1> 
0.0002 
 
>  <oscillator_strength_2> 
0.0001 
 
>  <oscillator_strength_3> 
0.0011 
 
>  <oscillator_strength_4> 
0.0047 
 
>  <open_babel_can_smiles> 
CC1(COCOC1)N(=O)=O 
 
>  <mulliken_charges> 
19 
1   -0.449379 
2   -0.0485 
3   -0.048517 
4   0.168954 
5   0.092447 
6   0.457462 
7   -0.37401 
8   -0.374009 
9   -0.455003 
10   -0.45498 
11   0.195562 
12   0.171953 
13   0.17202 
14   0.145342 
15   0.182369 
16   0.182425 
17   0.145305 
18   0.122063 
19   0.168493 
 
>  <lowdin_charges> 
19 
1   -0.440805 
2   -0.139101 
3   -0.139102 
4   -0.019676 
5   0.013378 
6   0.296518 
7   -0.236738 
8   -0.236674 
9   -0.255488 
10   -0.255469 
11   0.17998 
12   0.166469 
13   0.166518 
14   0.140049 
15   0.170973 
16   0.171015 
17   0.140021 
18   0.117029 
19   0.161104 
 
$$$$ 
 
