PCCDB-ID:  16656 
public computational chemistry database (PCCDB) project, http://pccdb.org 
 
 29 28  0  0  1  0  0  0  0  0999 V2000 
    0.5736   -2.2746   -0.2051 C   0  0  0  0  0  0  0  0  0  0  0  0 
    4.8125   -1.3613   -4.0794 C   0  0  0  0  0  0  0  0  0  0  0  0 
    5.0912   -3.8527   -3.7845 C   0  0  0  0  0  0  0  0  0  0  0  0 
    4.9383   -1.1140    0.4434 C   0  0  0  0  0  0  0  0  0  0  0  0 
    2.1011   -2.3993   -0.2411 C   0  0  0  0  0  0  0  0  0  0  0  0 
    2.7710   -1.1892   -0.9104 C   0  0  0  0  0  0  0  0  0  0  0  0 
    4.9158   -2.3896   -1.7358 C   0  0  0  0  0  0  0  0  0  0  0  0 
    4.4697   -2.5742   -3.2009 C   0  0  0  0  0  0  0  0  0  0  0  0 
    4.3170   -1.1955   -0.9614 C   0  0  2  0  0  0  0  0  0  0  0  0 
    0.1109   -3.1461    0.2723 H   0  0  0  0  0  0  0  0  0  0  0  0 
    0.1585   -2.1896   -1.2171 H   0  0  0  0  0  0  0  0  0  0  0  0 
    0.2620   -1.3836    0.3542 H   0  0  0  0  0  0  0  0  0  0  0  0 
    4.5103   -1.5331   -5.1194 H   0  0  0  0  0  0  0  0  0  0  0  0 
    5.8940   -1.1700   -4.0755 H   0  0  0  0  0  0  0  0  0  0  0  0 
    4.3126   -0.4484   -3.7376 H   0  0  0  0  0  0  0  0  0  0  0  0 
    4.7538   -4.0257   -4.8135 H   0  0  0  0  0  0  0  0  0  0  0  0 
    4.8232   -4.7350   -3.1908 H   0  0  0  0  0  0  0  0  0  0  0  0 
    6.1869   -3.7839   -3.8011 H   0  0  0  0  0  0  0  0  0  0  0  0 
    4.5310   -0.2674    1.0096 H   0  0  0  0  0  0  0  0  0  0  0  0 
    6.0253   -0.9830    0.3830 H   0  0  0  0  0  0  0  0  0  0  0  0 
    4.7519   -2.0247    1.0253 H   0  0  0  0  0  0  0  0  0  0  0  0 
    2.3739   -3.3203   -0.7734 H   0  0  0  0  0  0  0  0  0  0  0  0 
    2.4767   -2.5159    0.7839 H   0  0  0  0  0  0  0  0  0  0  0  0 
    2.4523   -0.2776   -0.3833 H   0  0  0  0  0  0  0  0  0  0  0  0 
    2.3759   -1.0924   -1.9316 H   0  0  0  0  0  0  0  0  0  0  0  0 
    6.0122   -2.2897   -1.7215 H   0  0  0  0  0  0  0  0  0  0  0  0 
    4.6974   -3.3161   -1.1853 H   0  0  0  0  0  0  0  0  0  0  0  0 
    3.3775   -2.7035   -3.2167 H   0  0  0  0  0  0  0  0  0  0  0  0 
    4.6090   -0.2753   -1.4882 H   0  0  0  0  0  0  0  0  0  0  0  0 
  1 10  1  0  0  0  0 
  1 12  1  0  0  0  0 
  2 14  1  0  0  0  0 
  2 15  1  0  0  0  0 
  2  8  1  0  0  0  0 
  3  8  1  0  0  0  0 
  3 17  1  0  0  0  0 
  4 19  1  0  0  0  0 
  4 21  1  0  0  0  0 
  5  1  1  0  0  0  0 
  5 23  1  0  0  0  0 
  6 24  1  0  0  0  0 
  6  5  1  0  0  0  0 
  7 26  1  0  0  0  0 
  7 27  1  0  0  0  0 
  7  9  1  0  0  0  0 
  8  7  1  0  0  0  0 
  9 29  1  6  0  0  0 
  9  6  1  0  0  0  0 
  9  4  1  0  0  0  0 
 11  1  1  0  0  0  0 
 13  2  1  0  0  0  0 
 16  3  1  0  0  0  0 
 18  3  1  0  0  0  0 
 20  4  1  0  0  0  0 
 22  5  1  0  0  0  0 
 25  6  1  0  0  0  0 
 28  8  1  0  0  0  0 
M  END 
>  <HBA> 
0 
 
>  <HBD> 
0 
 
>  <TPSA> 
0.0 
 
>  <cid> 
16656 
 
>  <dipole> 
0.04 
 
>  <excitation_energy_1> 
7.545 
 
>  <excitation_energy_2> 
7.648 
 
>  <excitation_energy_3> 
7.718 
 
>  <excitation_energy_4> 
7.867 
 
>  <homo_energy> 
-8.049 
 
>  <homo_lumo_gap> 
10.104 
 
>  <logP> 
3.469 
 
>  <lumo_energy> 
2.054 
 
>  <melting_point> 
-28.56 
 
>  <molecular_refractivity> 
45.38 
 
>  <oscillator_strength_1> 
0.0242 
 
>  <oscillator_strength_2> 
0.0307 
 
>  <oscillator_strength_3> 
0.0273 
 
>  <oscillator_strength_4> 
0.0071 
 
>  <open_babel_can_smiles> 
CCC[C@H](CC(C)C)C 
 
>  <mulliken_charges> 
29 
1   -0.441477 
2   -0.446032 
3   -0.441927 
4   -0.450032 
5   -0.255528 
6   -0.255772 
7   -0.248487 
8   -0.072996 
9   -0.076929 
10   0.140473 
11   0.140401 
12   0.140999 
13   0.138614 
14   0.137252 
15   0.14554 
16   0.137972 
17   0.138322 
18   0.137756 
19   0.137393 
20   0.138961 
21   0.142002 
22   0.134883 
23   0.134641 
24   0.123015 
25   0.129455 
26   0.12001 
27   0.1254 
28   0.124948 
29   0.121145 
 
>  <lowdin_charges> 
29 
1   -0.444075 
2   -0.44447 
3   -0.44076 
4   -0.445307 
5   -0.276227 
6   -0.279456 
7   -0.277012 
8   -0.120898 
9   -0.126555 
10   0.149159 
11   0.144855 
12   0.1463 
13   0.146582 
14   0.143125 
15   0.148526 
16   0.145721 
17   0.146971 
18   0.142629 
19   0.14729 
20   0.145636 
21   0.145727 
22   0.140136 
23   0.139792 
24   0.138824 
25   0.137993 
26   0.135618 
27   0.138727 
28   0.133467 
29   0.137679 
 
$$$$ 
 
