PCCDB-ID:  56139 
public computational chemistry database (PCCDB) project, http://pccdb.org 
 
 31 30  0  0  0  0  0  0  0  0999 V2000 
    1.2021    1.0697   -1.0675 C   0  0  0  0  0  0  0  0  0  0  0  0 
    1.1182   -1.4339   -1.4032 C   0  0  0  0  0  0  0  0  0  0  0  0 
    4.9070    0.8417    0.0827 C   0  0  0  0  0  0  0  0  0  0  0  0 
    5.0437    1.2042   -2.2827 C   0  0  0  0  0  0  0  0  0  0  0  0 
    0.8567   -0.6541    1.5126 C   0  0  0  0  0  0  0  0  0  0  0  0 
    1.2201   -0.3883    2.9758 C   0  0  0  0  0  0  0  0  0  0  0  0 
    3.3191   -0.2577   -1.4163 C   0  0  0  0  0  0  0  0  0  0  0  0 
    1.9050   -0.2629   -0.7704 C   0  0  0  0  0  0  0  0  0  0  0  0 
    2.0602   -0.4353    0.6972 N   0  0  0  0  0  0  0  0  0  0  0  0 
    4.1535    0.9160   -1.1641 N   0  0  0  0  0  0  0  0  0  0  0  0 
    1.7482    0.9132    3.1331 O   0  0  0  0  0  0  0  0  0  0  0  0 
    1.1500    1.2331   -2.1499 H   0  0  0  0  0  0  0  0  0  0  0  0 
    1.7599    1.8978   -0.6254 H   0  0  0  0  0  0  0  0  0  0  0  0 
    0.1756    1.0843   -0.6862 H   0  0  0  0  0  0  0  0  0  0  0  0 
    1.0085   -1.2993   -2.4856 H   0  0  0  0  0  0  0  0  0  0  0  0 
    0.1121   -1.5103   -0.9782 H   0  0  0  0  0  0  0  0  0  0  0  0 
    1.6289   -2.3909   -1.2337 H   0  0  0  0  0  0  0  0  0  0  0  0 
    5.4497    1.7808    0.2378 H   0  0  0  0  0  0  0  0  0  0  0  0 
    5.6482    0.0160    0.0856 H   0  0  0  0  0  0  0  0  0  0  0  0 
    4.2241    0.6950    0.9199 H   0  0  0  0  0  0  0  0  0  0  0  0 
    5.5926    2.1305   -2.0802 H   0  0  0  0  0  0  0  0  0  0  0  0 
    4.4618    1.3508   -3.1989 H   0  0  0  0  0  0  0  0  0  0  0  0 
    5.7889    0.4057   -2.4713 H   0  0  0  0  0  0  0  0  0  0  0  0 
    0.0942    0.0701    1.2114 H   0  0  0  0  0  0  0  0  0  0  0  0 
    0.4203   -1.6616    1.4061 H   0  0  0  0  0  0  0  0  0  0  0  0 
    1.9359   -1.1573    3.3222 H   0  0  0  0  0  0  0  0  0  0  0  0 
    0.3287   -0.4663    3.6086 H   0  0  0  0  0  0  0  0  0  0  0  0 
    3.1584   -0.3165   -2.4982 H   0  0  0  0  0  0  0  0  0  0  0  0 
    3.8410   -1.1976   -1.1362 H   0  0  0  0  0  0  0  0  0  0  0  0 
    2.6941   -1.2198    0.8560 H   0  0  0  0  0  0  0  0  0  0  0  0 
    2.2938    1.0435    2.3348 H   0  0  0  0  0  0  0  0  0  0  0  0 
  1  8  1  0  0  0  0 
  1 14  1  0  0  0  0 
  1 13  1  0  0  0  0 
  2 17  1  0  0  0  0 
  2 16  1  0  0  0  0 
  2  8  1  0  0  0  0 
  3 19  1  0  0  0  0 
  3 18  1  0  0  0  0 
  3 20  1  0  0  0  0 
  4 21  1  0  0  0  0 
  4 10  1  0  0  0  0 
  5  6  1  0  0  0  0 
  6 11  1  0  0  0  0 
  6 26  1  0  0  0  0 
  6 27  1  0  0  0  0 
  7 10  1  0  0  0  0 
  7 29  1  0  0  0  0 
  7  8  1  0  0  0  0 
  8  9  1  0  0  0  0 
  9 30  1  0  0  0  0 
  9  5  1  0  0  0  0 
 10  3  1  0  0  0  0 
 12  1  1  0  0  0  0 
 15  2  1  0  0  0  0 
 22  4  1  0  0  0  0 
 23  4  1  0  0  0  0 
 24  5  1  0  0  0  0 
 25  5  1  0  0  0  0 
 28  7  1  0  0  0  0 
 31 11  1  0  0  0  0 
M  END 
>  <HBA> 
3 
 
>  <HBD> 
2 
 
>  <TPSA> 
35.5 
 
>  <cid> 
56139 
 
>  <dipole> 
3.17 
 
>  <excitation_energy_1> 
5.161 
 
>  <excitation_energy_2> 
5.519 
 
>  <excitation_energy_3> 
5.653 
 
>  <excitation_energy_4> 
5.687 
 
>  <homo_energy> 
-5.704 
 
>  <homo_lumo_gap> 
7.402 
 
>  <logP> 
0.299 
 
>  <lumo_energy> 
1.698 
 
>  <melting_point> 
31.57 
 
>  <molecular_refractivity> 
47.47 
 
>  <oscillator_strength_1> 
0.0227 
 
>  <oscillator_strength_2> 
0.0167 
 
>  <oscillator_strength_3> 
0.0117 
 
>  <oscillator_strength_4> 
0.0178 
 
>  <open_babel_can_smiles> 
OCCNC(CN(C)C)(C)C 
 
>  <mulliken_charges> 
31 
1   -0.436448 
2   -0.455828 
3   -0.313935 
4   -0.296298 
5   -0.158626 
6   -0.014158 
7   -0.132733 
8   0.21795 
9   -0.591085 
10   -0.361223 
11   -0.635366 
12   0.134818 
13   0.171734 
14   0.137885 
15   0.142972 
16   0.150221 
17   0.13421 
18   0.146788 
19   0.109951 
20   0.170447 
21   0.149479 
22   0.148277 
23   0.11686 
24   0.15784 
25   0.121423 
26   0.106603 
27   0.137967 
28   0.135196 
29   0.102056 
30   0.292406 
31   0.410619 
 
>  <lowdin_charges> 
31 
1   -0.444958 
2   -0.455568 
3   -0.367506 
4   -0.357016 
5   -0.228583 
6   -0.138058 
7   -0.201576 
8   0.063074 
9   -0.360633 
10   -0.177235 
11   -0.476466 
12   0.148058 
13   0.165827 
14   0.145477 
15   0.149374 
16   0.152732 
17   0.1448 
18   0.149384 
19   0.116753 
20   0.15715 
21   0.150389 
22   0.148431 
23   0.120281 
24   0.152967 
25   0.12732 
26   0.118426 
27   0.144794 
28   0.146985 
29   0.116428 
30   0.25119 
31   0.337761 
 
$$$$ 
 
