PCCDB-ID:  10229 
public computational chemistry database (PCCDB) project, http://pccdb.org 
 
 25 27  0  0  0  0  0  0  0  0999 V2000 
    3.5593   -0.3029   -0.0020 C   0  0  0  0  0  0  0  0  0  0  0  0 
    2.8818   -1.5357   -0.0021 C   0  0  0  0  0  0  0  0  0  0  0  0 
   -2.8823   -1.5240   -0.0013 C   0  0  0  0  0  0  0  0  0  0  0  0 
   -3.5624   -0.2934   -0.0009 C   0  0  0  0  0  0  0  0  0  0  0  0 
    2.8378    0.8749   -0.0011 C   0  0  0  0  0  0  0  0  0  0  0  0 
    1.4984   -1.5677   -0.0013 C   0  0  0  0  0  0  0  0  0  0  0  0 
   -1.4995   -1.5588   -0.0010 C   0  0  0  0  0  0  0  0  0  0  0  0 
   -2.8425    0.8858   -0.0003 C   0  0  0  0  0  0  0  0  0  0  0  0 
    0.6851    2.0935    0.0004 C   0  0  0  0  0  0  0  0  0  0  0  0 
    1.4232    0.8660   -0.0006 C   0  0  0  0  0  0  0  0  0  0  0  0 
    0.7306   -0.3809   -0.0008 C   0  0  0  0  0  0  0  0  0  0  0  0 
   -0.7277   -0.3735   -0.0006 C   0  0  0  0  0  0  0  0  0  0  0  0 
   -1.4299    0.8674   -0.0002 C   0  0  0  0  0  0  0  0  0  0  0  0 
   -0.6780    2.0981    0.0004 C   0  0  0  0  0  0  0  0  0  0  0  0 
   -1.4235    3.2452    0.0012 O   0  0  0  0  0  0  0  0  0  0  0  0 
    4.6457   -0.2772   -0.0021 H   0  0  0  0  0  0  0  0  0  0  0  0 
    3.4434   -2.4657   -0.0034 H   0  0  0  0  0  0  0  0  0  0  0  0 
   -3.4431   -2.4548   -0.0021 H   0  0  0  0  0  0  0  0  0  0  0  0 
   -4.6486   -0.2695   -0.0010 H   0  0  0  0  0  0  0  0  0  0  0  0 
    3.3530    1.8329   -0.0007 H   0  0  0  0  0  0  0  0  0  0  0  0 
    1.0020   -2.5322   -0.0003 H   0  0  0  0  0  0  0  0  0  0  0  0 
   -1.0041   -2.5235   -0.0005 H   0  0  0  0  0  0  0  0  0  0  0  0 
   -3.3502    1.8437    0.0003 H   0  0  0  0  0  0  0  0  0  0  0  0 
    1.2366    3.0326    0.0012 H   0  0  0  0  0  0  0  0  0  0  0  0 
   -0.8214    4.0056   -0.0004 H   0  0  0  0  0  0  0  0  0  0  0  0 
  1  5  1  0  0  0  0 
  2  1  2  0  0  0  0 
  2  6  1  0  0  0  0 
  3  7  2  0  0  0  0 
  3  4  1  0  0  0  0 
  4  8  2  0  0  0  0 
  5 20  1  0  0  0  0 
  5 10  2  0  0  0  0 
  6 11  2  0  0  0  0 
  6 21  1  0  0  0  0 
  7 12  1  0  0  0  0 
  7 22  1  0  0  0  0 
  8 13  1  0  0  0  0 
  8 23  1  0  0  0  0 
  9 14  2  0  0  0  0 
  9 24  1  0  0  0  0 
 10  9  1  0  0  0  0 
 11 10  1  0  0  0  0 
 11 12  1  0  0  0  0 
 12 13  2  0  0  0  0 
 13 14  1  0  0  0  0 
 14 15  1  0  0  0  0 
 16  1  1  0  0  0  0 
 17  2  1  0  0  0  0 
 18  3  1  0  0  0  0 
 19  4  1  0  0  0  0 
 25 15  1  0  0  0  0 
M  END 
>  <HBA> 
1 
 
>  <HBD> 
1 
 
>  <TPSA> 
20.23 
 
>  <cid> 
10229 
 
>  <dipole> 
0.98 
 
>  <excitation_energy_1> 
3.826 
 
>  <excitation_energy_2> 
4.083 
 
>  <excitation_energy_3> 
4.602 
 
>  <excitation_energy_4> 
4.73 
 
>  <homo_energy> 
-5.434 
 
>  <homo_lumo_gap> 
4.596 
 
>  <logP> 
3.699 
 
>  <lumo_energy> 
-0.838 
 
>  <melting_point> 
133.96 
 
>  <molecular_refractivity> 
63.48 
 
>  <oscillator_strength_1> 
0.0172 
 
>  <oscillator_strength_2> 
0.0955 
 
>  <oscillator_strength_3> 
0.0675 
 
>  <oscillator_strength_4> 
0.0002 
 
>  <open_babel_can_smiles> 
Oc1cc2ccccc2c2c1cccc2 
 
>  <mulliken_charges> 
25 
1   -0.127802 
2   -0.14221 
3   -0.132891 
4   -0.130514 
5   -0.211967 
6   -0.190016 
7   -0.193917 
8   -0.184865 
9   -0.282156 
10   0.147483 
11   0.067854 
12   0.051689 
13   0.08864 
14   0.305702 
15   -0.647389 
16   0.12757 
17   0.126404 
18   0.129528 
19   0.130289 
20   0.123865 
21   0.131676 
22   0.133968 
23   0.154309 
24   0.113966 
25   0.410784 
 
>  <lowdin_charges> 
25 
1   -0.152372 
2   -0.16633 
3   -0.154462 
4   -0.154742 
5   -0.166272 
6   -0.155363 
7   -0.158371 
8   -0.149977 
9   -0.231406 
10   0.009248 
11   -0.013075 
12   0.0044 
13   -0.020946 
14   0.101264 
15   -0.375076 
16   0.155558 
17   0.157477 
18   0.158622 
19   0.156701 
20   0.154502 
21   0.15709 
22   0.158446 
23   0.171325 
24   0.152613 
25   0.361144 
 
$$$$ 
 
