PCCDB-ID:  6644 
public computational chemistry database (PCCDB) project, http://pccdb.org 
 
 32 32  0  0  1  0  0  0  0  0999 V2000 
    0.4697    0.1744   -0.4600 C   0  0  0  0  0  0  0  0  0  0  0  0 
    7.0854    1.0685   -1.6992 C   0  0  0  0  0  0  0  0  0  0  0  0 
    6.9120   -0.2338    0.4501 C   0  0  0  0  0  0  0  0  0  0  0  0 
    2.7132    1.3350   -0.7533 C   0  0  0  0  0  0  0  0  0  0  0  0 
    2.6044   -1.1821   -0.7396 C   0  0  0  0  0  0  0  0  0  0  0  0 
    4.2328    1.2756   -0.5237 C   0  0  0  0  0  0  0  0  0  0  0  0 
    4.1187   -1.2394   -0.4881 C   0  0  0  0  0  0  0  0  0  0  0  0 
    1.9763    0.1091   -0.1864 C   0  0  2  0  0  0  0  0  0  0  0  0 
    4.8420   -0.0209   -1.0960 C   0  0  2  0  0  0  0  0  0  0  0  0 
    6.3909   -0.1009   -0.9881 C   0  0  0  0  0  0  0  0  0  0  0  0 
    6.5590   -1.3643   -2.9952 O   0  0  0  0  0  0  0  0  0  0  0  0 
    6.8576   -1.3505   -1.5680 O   0  0  0  0  0  0  0  0  0  0  0  0 
    0.0260    1.0832   -0.0357 H   0  0  0  0  0  0  0  0  0  0  0  0 
   -0.0521   -0.6873   -0.0267 H   0  0  0  0  0  0  0  0  0  0  0  0 
    0.2665    0.1783   -1.5388 H   0  0  0  0  0  0  0  0  0  0  0  0 
    6.9402    2.0072   -1.1555 H   0  0  0  0  0  0  0  0  0  0  0  0 
    6.7050    1.1933   -2.7168 H   0  0  0  0  0  0  0  0  0  0  0  0 
    8.1602    0.8697   -1.7571 H   0  0  0  0  0  0  0  0  0  0  0  0 
    6.6203    0.6379    1.0439 H   0  0  0  0  0  0  0  0  0  0  0  0 
    8.0045   -0.2951    0.4451 H   0  0  0  0  0  0  0  0  0  0  0  0 
    6.5242   -1.1324    0.9379 H   0  0  0  0  0  0  0  0  0  0  0  0 
    2.5140    1.4008   -1.8342 H   0  0  0  0  0  0  0  0  0  0  0  0 
    2.3070    2.2537   -0.3088 H   0  0  0  0  0  0  0  0  0  0  0  0 
    2.1160   -2.0578   -0.2912 H   0  0  0  0  0  0  0  0  0  0  0  0 
    2.4087   -1.2380   -1.8220 H   0  0  0  0  0  0  0  0  0  0  0  0 
    4.4342    1.3349    0.5558 H   0  0  0  0  0  0  0  0  0  0  0  0 
    4.6992    2.1570   -0.9784 H   0  0  0  0  0  0  0  0  0  0  0  0 
    4.5378   -2.1696   -0.8900 H   0  0  0  0  0  0  0  0  0  0  0  0 
    4.2933   -1.2703    0.5966 H   0  0  0  0  0  0  0  0  0  0  0  0 
    2.1253    0.1074    0.9058 H   0  0  0  0  0  0  0  0  0  0  0  0 
    4.6306   -0.0222   -2.1756 H   0  0  0  0  0  0  0  0  0  0  0  0 
    5.8857   -2.0674   -3.0170 H   0  0  0  0  0  0  0  0  0  0  0  0 
  1  8  1  0  0  0  0 
  1 13  1  0  0  0  0 
  1 14  1  0  0  0  0 
  2 16  1  0  0  0  0 
  2 10  1  0  0  0  0 
  3 21  1  0  0  0  0 
  3 19  1  0  0  0  0 
  4  6  1  0  0  0  0 
  4 23  1  0  0  0  0 
  4  8  1  0  0  0  0 
  5  7  1  0  0  0  0 
  5 24  1  0  0  0  0 
  5  8  1  0  0  0  0 
  6 26  1  0  0  0  0 
  7 29  1  0  0  0  0 
  8 30  1  1  0  0  0 
  9 31  1  6  0  0  0 
  9 10  1  0  0  0  0 
  9  6  1  0  0  0  0 
  9  7  1  0  0  0  0 
 10  3  1  0  0  0  0 
 11 12  1  0  0  0  0 
 12 10  1  0  0  0  0 
 15  1  1  0  0  0  0 
 17  2  1  0  0  0  0 
 18  2  1  0  0  0  0 
 20  3  1  0  0  0  0 
 22  4  1  0  0  0  0 
 25  5  1  0  0  0  0 
 27  6  1  0  0  0  0 
 28  7  1  0  0  0  0 
 32 11  1  0  0  0  0 
M  END 
>  <HBA> 
2 
 
>  <HBD> 
1 
 
>  <TPSA> 
29.46 
 
>  <cid> 
6644 
 
>  <dipole> 
1.81 
 
>  <excitation_energy_1> 
5.477 
 
>  <excitation_energy_2> 
6.392 
 
>  <excitation_energy_3> 
6.501 
 
>  <excitation_energy_4> 
6.753 
 
>  <homo_energy> 
-6.808 
 
>  <homo_lumo_gap> 
7.617 
 
>  <logP> 
3.081 
 
>  <lumo_energy> 
0.808 
 
>  <melting_point> 
33.9 
 
>  <molecular_refractivity> 
50.76 
 
>  <oscillator_strength_1> 
0.0009 
 
>  <oscillator_strength_2> 
0.0024 
 
>  <oscillator_strength_3> 
0.0038 
 
>  <oscillator_strength_4> 
0.0119 
 
>  <open_babel_can_smiles> 
OOC([C@@H]1CC[C@H](CC1)C)(C)C 
 
>  <mulliken_charges> 
32 
1   -0.445102 
2   -0.462486 
3   -0.477651 
4   -0.25885 
5   -0.25855 
6   -0.277637 
7   -0.275517 
8   -0.06789 
9   -0.100816 
10   0.339077 
11   -0.412842 
12   -0.327374 
13   0.139807 
14   0.139614 
15   0.138575 
16   0.141936 
17   0.161897 
18   0.154822 
19   0.152388 
20   0.159747 
21   0.160048 
22   0.125263 
23   0.128026 
24   0.128037 
25   0.120495 
26   0.127709 
27   0.136481 
28   0.128209 
29   0.130167 
30   0.1165 
31   0.123862 
32   0.412053 
 
>  <lowdin_charges> 
32 
1   -0.443308 
2   -0.452559 
3   -0.448803 
4   -0.275383 
5   -0.276383 
6   -0.279569 
7   -0.279991 
8   -0.123346 
9   -0.143526 
10   0.121062 
11   -0.347463 
12   -0.16903 
13   0.148469 
14   0.148732 
15   0.143803 
16   0.151732 
17   0.159465 
18   0.157571 
19   0.158556 
20   0.158924 
21   0.159112 
22   0.135046 
23   0.142658 
24   0.142855 
25   0.132528 
26   0.135303 
27   0.147145 
28   0.141744 
29   0.137403 
30   0.130565 
31   0.138708 
32   0.347978 
 
$$$$ 
 
