PCCDB-ID:  27519 
public computational chemistry database (PCCDB) project, http://pccdb.org 
 
 24 23  0  0  0  0  0  0  0  0999 V2000 
    1.3126    0.9621   -0.1912 C   0  0  0  0  0  0  0  0  0  0  0  0 
    6.0189   -4.5221   -1.4987 C   0  0  0  0  0  0  0  0  0  0  0  0 
    6.7540   -3.4080    0.6001 C   0  0  0  0  0  0  0  0  0  0  0  0 
    2.7358    0.4235   -0.3711 C   0  0  0  0  0  0  0  0  0  0  0  0 
    2.8286   -1.1007   -0.2250 C   0  0  0  0  0  0  0  0  0  0  0  0 
    4.2523   -1.6452   -0.3993 C   0  0  0  0  0  0  0  0  0  0  0  0 
    4.3327   -3.1781   -0.2530 C   0  0  0  0  0  0  0  0  0  0  0  0 
    5.7223   -3.7486   -0.4490 C   0  0  0  0  0  0  0  0  0  0  0  0 
    1.2798    2.0523   -0.2983 H   0  0  0  0  0  0  0  0  0  0  0  0 
    0.9175    0.7126    0.8014 H   0  0  0  0  0  0  0  0  0  0  0  0 
    0.6293    0.5334   -0.9348 H   0  0  0  0  0  0  0  0  0  0  0  0 
    7.0157   -4.9311   -1.6465 H   0  0  0  0  0  0  0  0  0  0  0  0 
    5.2749   -4.7763   -2.2502 H   0  0  0  0  0  0  0  0  0  0  0  0 
    7.7139   -3.8903    0.3921 H   0  0  0  0  0  0  0  0  0  0  0  0 
    6.4201   -3.7279    1.5971 H   0  0  0  0  0  0  0  0  0  0  0  0 
    6.9278   -2.3258    0.6623 H   0  0  0  0  0  0  0  0  0  0  0  0 
    3.4022    0.8987    0.3629 H   0  0  0  0  0  0  0  0  0  0  0  0 
    3.1161    0.7157   -1.3602 H   0  0  0  0  0  0  0  0  0  0  0  0 
    2.1633   -1.5765   -0.9610 H   0  0  0  0  0  0  0  0  0  0  0  0 
    2.4454   -1.3938    0.7640 H   0  0  0  0  0  0  0  0  0  0  0  0 
    4.9113   -1.1647    0.3368 H   0  0  0  0  0  0  0  0  0  0  0  0 
    4.6370   -1.3614   -1.3888 H   0  0  0  0  0  0  0  0  0  0  0  0 
    3.6458   -3.6397   -0.9738 H   0  0  0  0  0  0  0  0  0  0  0  0 
    3.9644   -3.4523    0.7481 H   0  0  0  0  0  0  0  0  0  0  0  0 
  1 10  1  0  0  0  0 
  2  8  2  0  0  0  0 
  3 16  1  0  0  0  0 
  3 15  1  0  0  0  0 
  4  5  1  0  0  0  0 
  4  1  1  0  0  0  0 
  4 17  1  0  0  0  0 
  5 20  1  0  0  0  0 
  6  7  1  0  0  0  0 
  6  5  1  0  0  0  0 
  6 21  1  0  0  0  0 
  7 24  1  0  0  0  0 
  8  7  1  0  0  0  0 
  8  3  1  0  0  0  0 
  9  1  1  0  0  0  0 
 11  1  1  0  0  0  0 
 12  2  1  0  0  0  0 
 13  2  1  0  0  0  0 
 14  3  1  0  0  0  0 
 18  4  1  0  0  0  0 
 19  5  1  0  0  0  0 
 22  6  1  0  0  0  0 
 23  7  1  0  0  0  0 
M  END 
>  <HBA> 
0 
 
>  <HBD> 
0 
 
>  <TPSA> 
0.0 
 
>  <cid> 
27519 
 
>  <dipole> 
0.53 
 
>  <excitation_energy_1> 
6.115 
 
>  <excitation_energy_2> 
6.412 
 
>  <excitation_energy_3> 
6.658 
 
>  <excitation_energy_4> 
6.717 
 
>  <homo_energy> 
-6.474 
 
>  <homo_lumo_gap> 
7.301 
 
>  <logP> 
3.143 
 
>  <lumo_energy> 
0.827 
 
>  <melting_point> 
-45.07 
 
>  <molecular_refractivity> 
40.1 
 
>  <oscillator_strength_1> 
0.0212 
 
>  <oscillator_strength_2> 
0.1432 
 
>  <oscillator_strength_3> 
0.0598 
 
>  <oscillator_strength_4> 
0.0038 
 
>  <open_babel_can_smiles> 
CCCCCC(=C)C 
 
>  <mulliken_charges> 
24 
1   -0.441544 
2   -0.401288 
3   -0.512998 
4   -0.246921 
5   -0.245064 
6   -0.255528 
7   -0.326337 
8   0.236958 
9   0.141809 
10   0.141078 
11   0.141539 
12   0.128596 
13   0.129297 
14   0.151935 
15   0.150552 
16   0.156609 
17   0.129741 
18   0.131266 
19   0.127734 
20   0.126596 
21   0.130967 
22   0.136116 
23   0.135913 
24   0.132972 
 
>  <lowdin_charges> 
24 
1   -0.443216 
2   -0.367378 
3   -0.439691 
4   -0.272822 
5   -0.275282 
6   -0.275086 
7   -0.27289 
8   0.010274 
9   0.147365 
10   0.145653 
11   0.147437 
12   0.151543 
13   0.153124 
14   0.156076 
15   0.153697 
16   0.154009 
17   0.139775 
18   0.138981 
19   0.13898 
20   0.136831 
21   0.140203 
22   0.142049 
23   0.147548 
24   0.14282 
 
$$$$ 
 
