PCCDB-ID:  28594 
public computational chemistry database (PCCDB) project, http://pccdb.org 
 
 35 36  0  0  1  0  0  0  0  0999 V2000 
    0.4570    2.0807   -2.7549 C   0  0  0  0  0  0  0  0  0  0  0  0 
    2.5583    1.2305   -3.8712 C   0  0  0  0  0  0  0  0  0  0  0  0 
    4.5256    1.5527   -0.1566 C   0  0  0  0  0  0  0  0  0  0  0  0 
    0.1547   -2.1103   -2.9906 C   0  0  0  0  0  0  0  0  0  0  0  0 
    5.8418   -0.4043    0.9353 C   0  0  0  0  0  0  0  0  0  0  0  0 
   -2.0705   -2.5889   -4.2448 C   0  0  0  0  0  0  0  0  0  0  0  0 
    2.5414    1.8185   -1.4183 C   0  0  0  0  0  0  0  0  0  0  0  0 
    1.3346   -0.2173   -2.2052 C   0  0  0  0  0  0  0  0  0  0  0  0 
    5.7517    0.6783   -0.0520 C   0  0  2  0  0  0  0  0  0  0  0  0 
   -0.6038   -2.6135   -4.1950 C   0  0  2  0  0  0  0  0  0  0  0  0 
    1.7246    1.2243   -2.5766 C   0  0  0  0  0  0  0  0  0  0  0  0 
    3.7016    1.0352   -1.1835 O   0  0  0  0  0  0  0  0  0  0  0  0 
    0.5263   -0.7684   -3.2343 O   0  0  0  0  0  0  0  0  0  0  0  0 
    6.5181    0.8437    1.1459 O   0  0  0  0  0  0  0  0  0  0  0  0 
   -1.3623   -3.8098   -3.9852 O   0  0  0  0  0  0  0  0  0  0  0  0 
    0.7150    3.1143   -3.0144 H   0  0  0  0  0  0  0  0  0  0  0  0 
   -0.1438    2.1028   -1.8366 H   0  0  0  0  0  0  0  0  0  0  0  0 
   -0.1679    1.6724   -3.5534 H   0  0  0  0  0  0  0  0  0  0  0  0 
    2.7962    2.2577   -4.1731 H   0  0  0  0  0  0  0  0  0  0  0  0 
    2.0043    0.7530   -4.6843 H   0  0  0  0  0  0  0  0  0  0  0  0 
    3.5006    0.6926   -3.7290 H   0  0  0  0  0  0  0  0  0  0  0  0 
    4.8255    2.5895   -0.3860 H   0  0  0  0  0  0  0  0  0  0  0  0 
    4.0003    1.5694    0.8124 H   0  0  0  0  0  0  0  0  0  0  0  0 
    1.0473   -2.7373   -2.8238 H   0  0  0  0  0  0  0  0  0  0  0  0 
   -0.4801   -2.1977   -2.0932 H   0  0  0  0  0  0  0  0  0  0  0  0 
    6.4901   -1.2594    0.7443 H   0  0  0  0  0  0  0  0  0  0  0  0 
    4.9988   -0.5968    1.5996 H   0  0  0  0  0  0  0  0  0  0  0  0 
   -2.5798   -2.5409   -5.2073 H   0  0  0  0  0  0  0  0  0  0  0  0 
   -2.6294   -2.1844   -3.4004 H   0  0  0  0  0  0  0  0  0  0  0  0 
    1.9269    1.8595   -0.5018 H   0  0  0  0  0  0  0  0  0  0  0  0 
    2.8294    2.8548   -1.6652 H   0  0  0  0  0  0  0  0  0  0  0  0 
    0.7791   -0.2211   -1.2502 H   0  0  0  0  0  0  0  0  0  0  0  0 
    2.2387   -0.8276   -2.0638 H   0  0  0  0  0  0  0  0  0  0  0  0 
    6.3410    0.5985   -0.9672 H   0  0  0  0  0  0  0  0  0  0  0  0 
   -0.0510   -2.5799   -5.1356 H   0  0  0  0  0  0  0  0  0  0  0  0 
  1 11  1  0  0  0  0 
  1 17  1  0  0  0  0 
  2 21  1  0  0  0  0 
  2 11  1  0  0  0  0 
  3  9  1  0  0  0  0 
  3 23  1  0  0  0  0 
  4 24  1  0  0  0  0 
  4 25  1  0  0  0  0 
  5 14  1  0  0  0  0 
  5 27  1  0  0  0  0 
  6 10  1  0  0  0  0 
  6 15  1  0  0  0  0 
  6 29  1  0  0  0  0 
  7 12  1  0  0  0  0 
  7 30  1  0  0  0  0 
  8 33  1  0  0  0  0 
  8 32  1  0  0  0  0 
  9 34  1  6  0  0  0 
  9  5  1  0  0  0  0 
  9 14  1  0  0  0  0 
 10 35  1  6  0  0  0 
 10 15  1  0  0  0  0 
 10  4  1  0  0  0  0 
 11  8  1  0  0  0  0 
 11  7  1  0  0  0  0 
 12  3  1  0  0  0  0 
 13  4  1  0  0  0  0 
 13  8  1  0  0  0  0 
 16  1  1  0  0  0  0 
 18  1  1  0  0  0  0 
 19  2  1  0  0  0  0 
 20  2  1  0  0  0  0 
 22  3  1  0  0  0  0 
 26  5  1  0  0  0  0 
 28  6  1  0  0  0  0 
 31  7  1  0  0  0  0 
M  END 
>  <HBA> 
4 
 
>  <HBD> 
0 
 
>  <TPSA> 
43.52 
 
>  <cid> 
28594 
 
>  <dipole> 
1.51 
 
>  <excitation_energy_1> 
6.464 
 
>  <excitation_energy_2> 
6.637 
 
>  <excitation_energy_3> 
6.823 
 
>  <excitation_energy_4> 
6.915 
 
>  <homo_energy> 
-7.01 
 
>  <homo_lumo_gap> 
8.958 
 
>  <logP> 
0.843 
 
>  <lumo_energy> 
1.948 
 
>  <melting_point> 
-1.84 
 
>  <molecular_refractivity> 
54.84 
 
>  <oscillator_strength_1> 
0.0055 
 
>  <oscillator_strength_2> 
0.0251 
 
>  <oscillator_strength_3> 
0.011 
 
>  <oscillator_strength_4> 
0.0065 
 
>  <open_babel_can_smiles> 
CC(COC[C@H]1OC1)(COC[C@H]1OC1)C 
 
>  <mulliken_charges> 
35 
1   -0.453776 
2   -0.451085 
3   -0.027779 
4   -0.026029 
5   -0.103672 
6   -0.103261 
7   -0.003701 
8   0.001769 
9   0.08958 
10   0.090228 
11   0.03285 
12   -0.488027 
13   -0.488837 
14   -0.445839 
15   -0.446963 
16   0.139065 
17   0.135268 
18   0.169247 
19   0.133302 
20   0.159658 
21   0.155557 
22   0.133359 
23   0.129748 
24   0.131688 
25   0.128023 
26   0.15459 
27   0.15173 
28   0.153201 
29   0.151495 
30   0.117717 
31   0.123175 
32   0.110473 
33   0.141847 
34   0.153433 
35   0.151965 
 
>  <lowdin_charges> 
35 
1   -0.443947 
2   -0.446351 
3   -0.130251 
4   -0.131519 
5   -0.163354 
6   -0.163462 
7   -0.127929 
8   -0.131623 
9   -0.025258 
10   -0.025539 
11   -0.003308 
12   -0.272672 
13   -0.272158 
14   -0.283815 
15   -0.28432 
16   0.146573 
17   0.14584 
18   0.16452 
19   0.144809 
20   0.158976 
21   0.155551 
22   0.1346 
23   0.134932 
24   0.135891 
25   0.13458 
26   0.157167 
27   0.153846 
28   0.155642 
29   0.154474 
30   0.127071 
31   0.129493 
32   0.12427 
33   0.139437 
34   0.154344 
35   0.153495 
 
$$$$ 
 
