PCCDB-ID:  14291 
public computational chemistry database (PCCDB) project, http://pccdb.org 
 
 21 21  0  0  1  0  0  0  0  0999 V2000 
    1.0487   -0.1262    0.0666 C   0  0  0  0  0  0  0  0  0  0  0  0 
    4.8820   -1.8351    1.3965 C   0  0  0  0  0  0  0  0  0  0  0  0 
    3.2351   -1.3494   -0.4923 C   0  0  0  0  0  0  0  0  0  0  0  0 
    3.2537    1.0208    0.2954 C   0  0  0  0  0  0  0  0  0  0  0  0 
    5.4265   -0.1183   -0.4063 C   0  0  0  0  0  0  0  0  0  0  0  0 
    2.5493   -0.0860   -0.0167 C   0  0  0  0  0  0  0  0  0  0  0  0 
    4.7186   -1.4465   -0.0816 C   0  0  1  0  0  0  0  0  0  0  0  0 
    4.7230    1.0964    0.1921 C   0  0  0  0  0  0  0  0  0  0  0  0 
    5.3398    2.0981    0.5293 O   0  0  0  0  0  0  0  0  0  0  0  0 
    0.7198   -0.8823    0.7926 H   0  0  0  0  0  0  0  0  0  0  0  0 
    0.6131   -0.4144   -0.9002 H   0  0  0  0  0  0  0  0  0  0  0  0 
    0.6284    0.8403    0.3589 H   0  0  0  0  0  0  0  0  0  0  0  0 
    4.4156   -2.8064    1.5999 H   0  0  0  0  0  0  0  0  0  0  0  0 
    4.4229   -1.0967    2.0634 H   0  0  0  0  0  0  0  0  0  0  0  0 
    5.9422   -1.9104    1.6634 H   0  0  0  0  0  0  0  0  0  0  0  0 
    3.1508   -1.3898   -1.5906 H   0  0  0  0  0  0  0  0  0  0  0  0 
    2.6822   -2.2248   -0.1245 H   0  0  0  0  0  0  0  0  0  0  0  0 
    2.7593    1.9246    0.6450 H   0  0  0  0  0  0  0  0  0  0  0  0 
    5.4438    0.0304   -1.4973 H   0  0  0  0  0  0  0  0  0  0  0  0 
    6.4681   -0.1125   -0.0694 H   0  0  0  0  0  0  0  0  0  0  0  0 
    5.1825   -2.2378   -0.6851 H   0  0  0  0  0  0  0  0  0  0  0  0 
  1 12  1  0  0  0  0 
  1 10  1  0  0  0  0 
  2 13  1  0  0  0  0 
  2 15  1  0  0  0  0 
  2 14  1  0  0  0  0 
  3 17  1  0  0  0  0 
  3  7  1  0  0  0  0 
  3  6  1  0  0  0  0 
  4 18  1  0  0  0  0 
  5  7  1  0  0  0  0 
  5 20  1  0  0  0  0 
  5  8  1  0  0  0  0 
  6  1  1  0  0  0  0 
  6  4  2  0  0  0  0 
  7 21  1  6  0  0  0 
  7  2  1  0  0  0  0 
  8  4  1  0  0  0  0 
  8  9  2  0  0  0  0 
 11  1  1  0  0  0  0 
 16  3  1  0  0  0  0 
 19  5  1  0  0  0  0 
M  END 
>  <HBA> 
1 
 
>  <HBD> 
0 
 
>  <TPSA> 
17.07 
 
>  <cid> 
14291 
 
>  <dipole> 
4.14 
 
>  <excitation_energy_1> 
3.648 
 
>  <excitation_energy_2> 
5.606 
 
>  <excitation_energy_3> 
5.755 
 
>  <excitation_energy_4> 
6.222 
 
>  <homo_energy> 
-6.275 
 
>  <homo_lumo_gap> 
5.116 
 
>  <logP> 
1.932 
 
>  <lumo_energy> 
-1.159 
 
>  <melting_point> 
29.29 
 
>  <molecular_refractivity> 
38.18 
 
>  <oscillator_strength_1> 
0.0003 
 
>  <oscillator_strength_2> 
0.3473 
 
>  <oscillator_strength_3> 
0.003 
 
>  <oscillator_strength_4> 
0.0062 
 
>  <open_babel_can_smiles> 
C[C@H]1CC(=CC(=O)C1)C 
 
>  <mulliken_charges> 
21 
1   -0.520308 
2   -0.448356 
3   -0.334205 
4   -0.224755 
5   -0.354917 
6   0.185466 
7   -0.095118 
8   0.444238 
9   -0.481885 
10   0.165232 
11   0.164054 
12   0.166848 
13   0.141691 
14   0.155607 
15   0.150342 
16   0.15589 
17   0.14564 
18   0.135534 
19   0.158691 
20   0.161669 
21   0.128643 
 
>  <lowdin_charges> 
21 
1   -0.44144 
2   -0.448908 
3   -0.279845 
4   -0.224848 
5   -0.3035 
6   0.035641 
7   -0.122691 
8   0.148526 
9   -0.253263 
10   0.164563 
11   0.163068 
12   0.162665 
13   0.148552 
14   0.155272 
15   0.152295 
16   0.156659 
17   0.152954 
18   0.165296 
19   0.161652 
20   0.162469 
21   0.144885 
 
$$$$ 
 
