PCCDB-ID:  14232 
public computational chemistry database (PCCDB) project, http://pccdb.org 
 
 11 10  0  0  0  0  0  0  0  0999 V2000 
    1.1385   -0.1016    0.0395 C   0  0  0  0  0  0  0  0  0  0  0  0 
    4.0137    1.5702    0.5646 C   0  0  0  0  0  0  0  0  0  0  0  0 
    2.3897    0.3508   -0.5654 N   0  0  0  0  0  0  0  0  0  0  0  0 
    2.7007    1.6294    0.0326 O   0  0  0  0  0  0  0  0  0  0  0  0 
    0.8096   -0.9958   -0.5026 H   0  0  0  0  0  0  0  0  0  0  0  0 
    0.3387    0.6534    0.0127 H   0  0  0  0  0  0  0  0  0  0  0  0 
    1.3245   -0.3777    1.0815 H   0  0  0  0  0  0  0  0  0  0  0  0 
    4.1871    2.5466    1.0284 H   0  0  0  0  0  0  0  0  0  0  0  0 
    4.7643    1.4003   -0.2194 H   0  0  0  0  0  0  0  0  0  0  0  0 
    4.1111    0.7809    1.3219 H   0  0  0  0  0  0  0  0  0  0  0  0 
    2.1982    0.6017   -1.5376 H   0  0  0  0  0  0  0  0  0  0  0  0 
  1  7  1  0  0  0  0 
  2  8  1  0  0  0  0 
  2 10  1  0  0  0  0 
  3  4  1  0  0  0  0 
  3  1  1  0  0  0  0 
  4  2  1  0  0  0  0 
  5  1  1  0  0  0  0 
  6  1  1  0  0  0  0 
  9  2  1  0  0  0  0 
 11  3  1  0  0  0  0 
M  END 
>  <HBA> 
2 
 
>  <HBD> 
1 
 
>  <TPSA> 
21.26 
 
>  <cid> 
14232 
 
>  <dipole> 
0.54 
 
>  <excitation_energy_1> 
6.008 
 
>  <excitation_energy_2> 
6.661 
 
>  <excitation_energy_3> 
6.709 
 
>  <excitation_energy_4> 
6.74 
 
>  <homo_energy> 
-6.422 
 
>  <homo_lumo_gap> 
8.89 
 
>  <logP> 
0.158 
 
>  <lumo_energy> 
2.468 
 
>  <melting_point> 
-3.33 
 
>  <molecular_refractivity> 
15.61 
 
>  <oscillator_strength_1> 
0.0016 
 
>  <oscillator_strength_2> 
0.0143 
 
>  <oscillator_strength_3> 
0.0215 
 
>  <oscillator_strength_4> 
0.0154 
 
>  <open_babel_can_smiles> 
CONC 
 
>  <mulliken_charges> 
11 
1   -0.291707 
2   -0.162573 
3   -0.326636 
4   -0.400585 
5   0.146423 
6   0.143135 
7   0.161665 
8   0.147389 
9   0.134635 
10   0.136389 
11   0.311864 
 
>  <lowdin_charges> 
11 
1   -0.368077 
2   -0.281006 
3   -0.224656 
4   -0.24671 
5   0.153229 
6   0.13753 
7   0.153484 
8   0.149478 
9   0.136339 
10   0.13733 
11   0.253058 
 
$$$$ 
 
