PCCDB-ID:  68462 
public computational chemistry database (PCCDB) project, http://pccdb.org 
 
 20 21  0  0  0  0  0  0  0  0999 V2000 
    2.4231    0.7337   -0.0029 C   0  0  0  0  0  0  0  0  0  0  0  0 
    1.2290    1.4141   -0.0058 C   0  0  0  0  0  0  0  0  0  0  0  0 
    2.4447   -0.6822   -0.0030 C   0  0  0  0  0  0  0  0  0  0  0  0 
   -1.2580    1.3599   -0.0139 C   0  0  0  0  0  0  0  0  0  0  0  0 
   -2.4377    0.6515   -0.0164 C   0  0  0  0  0  0  0  0  0  0  0  0 
   -1.2181   -1.4469   -0.0175 C   0  0  0  0  0  0  0  0  0  0  0  0 
   -0.0013    0.7011   -0.0101 C   0  0  0  0  0  0  0  0  0  0  0  0 
   -2.4184   -0.7656   -0.0191 C   0  0  0  0  0  0  0  0  0  0  0  0 
    0.0025   -0.7313   -0.0114 C   0  0  0  0  0  0  0  0  0  0  0  0 
    1.2666   -1.3985   -0.0079 C   0  0  0  0  0  0  0  0  0  0  0  0 
   -3.5769   -1.4963   -0.0207 O   0  0  0  0  0  0  0  0  0  0  0  0 
    1.2267   -2.7671   -0.0082 O   0  0  0  0  0  0  0  0  0  0  0  0 
    3.3648    1.2754    0.0013 H   0  0  0  0  0  0  0  0  0  0  0  0 
    1.2085    2.5007   -0.0037 H   0  0  0  0  0  0  0  0  0  0  0  0 
    3.3975   -1.2090   -0.0006 H   0  0  0  0  0  0  0  0  0  0  0  0 
   -1.2796    2.4468   -0.0126 H   0  0  0  0  0  0  0  0  0  0  0  0 
   -3.3922    1.1759   -0.0176 H   0  0  0  0  0  0  0  0  0  0  0  0 
   -1.2157   -2.5302   -0.0195 H   0  0  0  0  0  0  0  0  0  0  0  0 
   -4.3319   -0.8887   -0.0390 H   0  0  0  0  0  0  0  0  0  0  0  0 
    2.1357   -3.1046   -0.0077 H   0  0  0  0  0  0  0  0  0  0  0  0 
  1 13  1  0  0  0  0 
  2 14  1  0  0  0  0 
  2  1  2  0  0  0  0 
  3  1  1  0  0  0  0 
  3 15  1  0  0  0  0 
  4 16  1  0  0  0  0 
  4  7  1  0  0  0  0 
  5  4  2  0  0  0  0 
  6  9  1  0  0  0  0 
  7  2  1  0  0  0  0 
  8  6  2  0  0  0  0 
  8  5  1  0  0  0  0 
  9  7  2  0  0  0  0 
  9 10  1  0  0  0  0 
 10  3  2  0  0  0  0 
 11  8  1  0  0  0  0 
 12 10  1  0  0  0  0 
 12 20  1  0  0  0  0 
 17  5  1  0  0  0  0 
 18  6  1  0  0  0  0 
 19 11  1  0  0  0  0 
M  END 
>  <HBA> 
2 
 
>  <HBD> 
2 
 
>  <TPSA> 
40.46 
 
>  <cid> 
68462 
 
>  <dipole> 
1.09 
 
>  <excitation_energy_1> 
3.913 
 
>  <excitation_energy_2> 
4.363 
 
>  <excitation_energy_3> 
4.621 
 
>  <excitation_energy_4> 
4.737 
 
>  <homo_energy> 
-5.197 
 
>  <homo_lumo_gap> 
4.446 
 
>  <logP> 
2.251 
 
>  <lumo_energy> 
-0.751 
 
>  <melting_point> 
129.6 
 
>  <molecular_refractivity> 
47.99 
 
>  <oscillator_strength_1> 
0.0616 
 
>  <oscillator_strength_2> 
0.0175 
 
>  <oscillator_strength_3> 
0.0 
 
>  <oscillator_strength_4> 
0.0001 
 
>  <open_babel_can_smiles> 
Oc1ccc2c(c1)c(O)ccc2 
 
>  <mulliken_charges> 
20 
1   -0.144578 
2   -0.192529 
3   -0.202 
4   -0.206063 
5   -0.189345 
6   -0.225857 
7   0.133142 
8   0.356213 
9   0.084278 
10   0.2852 
11   -0.645877 
12   -0.641231 
13   0.127099 
14   0.122683 
15   0.11314 
16   0.132486 
17   0.119345 
18   0.159078 
19   0.406109 
20   0.408706 
 
>  <lowdin_charges> 
20 
1   -0.15703 
2   -0.175495 
3   -0.223528 
4   -0.144388 
5   -0.203387 
6   -0.185486 
7   -0.006856 
8   0.098874 
9   -0.014079 
10   0.101523 
11   -0.380099 
12   -0.377229 
13   0.158131 
14   0.153704 
15   0.152232 
16   0.157296 
17   0.153722 
18   0.177059 
19   0.357149 
20   0.357886 
 
$$$$ 
 
