PCCDB-ID:  69013 
public computational chemistry database (PCCDB) project, http://pccdb.org 
 
 30 29  0  0  0  0  0  0  0  0999 V2000 
    1.1989    3.2271   -0.3084 C   0  0  0  0  0  0  0  0  0  0  0  0 
    3.8804   -1.6367   -2.7580 C   0  0  0  0  0  0  0  0  0  0  0  0 
    6.1873   -0.5288    1.3452 C   0  0  0  0  0  0  0  0  0  0  0  0 
    2.5039    2.5247   -0.6991 C   0  0  0  0  0  0  0  0  0  0  0  0 
    3.6643   -0.9859   -1.3867 C   0  0  0  0  0  0  0  0  0  0  0  0 
    4.7852    0.0873    1.3833 C   0  0  0  0  0  0  0  0  0  0  0  0 
    3.0046    1.5639    0.3873 C   0  0  0  0  0  0  0  0  0  0  0  0 
    4.5648    0.2387   -1.1772 C   0  0  0  0  0  0  0  0  0  0  0  0 
    4.4192    0.9756    0.1687 C   0  0  0  0  0  0  0  0  0  0  0  0 
    5.3733    2.0535    0.0671 O   0  0  0  0  0  0  0  0  0  0  0  0 
    0.8621    3.9089   -1.0977 H   0  0  0  0  0  0  0  0  0  0  0  0 
    1.3230    3.8163    0.6090 H   0  0  0  0  0  0  0  0  0  0  0  0 
    0.3937    2.5038   -0.1281 H   0  0  0  0  0  0  0  0  0  0  0  0 
    3.2370   -2.5142   -2.8891 H   0  0  0  0  0  0  0  0  0  0  0  0 
    4.9202   -1.9630   -2.8821 H   0  0  0  0  0  0  0  0  0  0  0  0 
    3.6566   -0.9339   -3.5698 H   0  0  0  0  0  0  0  0  0  0  0  0 
    6.4261   -1.0055    2.3026 H   0  0  0  0  0  0  0  0  0  0  0  0 
    6.9401    0.2405    1.1465 H   0  0  0  0  0  0  0  0  0  0  0  0 
    6.2767   -1.2944    0.5669 H   0  0  0  0  0  0  0  0  0  0  0  0 
    3.2844    3.2682   -0.9005 H   0  0  0  0  0  0  0  0  0  0  0  0 
    2.3486    1.9784   -1.6384 H   0  0  0  0  0  0  0  0  0  0  0  0 
    3.8515   -1.7318   -0.6024 H   0  0  0  0  0  0  0  0  0  0  0  0 
    2.6086   -0.6995   -1.2884 H   0  0  0  0  0  0  0  0  0  0  0  0 
    4.6934    0.7131    2.2846 H   0  0  0  0  0  0  0  0  0  0  0  0 
    4.0307   -0.7020    1.4972 H   0  0  0  0  0  0  0  0  0  0  0  0 
    2.2845    0.7448    0.5193 H   0  0  0  0  0  0  0  0  0  0  0  0 
    3.0173    2.0985    1.3514 H   0  0  0  0  0  0  0  0  0  0  0  0 
    4.3840    0.9669   -1.9770 H   0  0  0  0  0  0  0  0  0  0  0  0 
    5.6153   -0.0583   -1.2826 H   0  0  0  0  0  0  0  0  0  0  0  0 
    5.3182    2.5635    0.8920 H   0  0  0  0  0  0  0  0  0  0  0  0 
  1 13  1  0  0  0  0 
  1 12  1  0  0  0  0 
  2  5  1  0  0  0  0 
  3  6  1  0  0  0  0 
  3 17  1  0  0  0  0 
  4  1  1  0  0  0  0 
  4  7  1  0  0  0  0 
  5 23  1  0  0  0  0 
  5  8  1  0  0  0  0 
  5 22  1  0  0  0  0 
  6 25  1  0  0  0  0 
  6 24  1  0  0  0  0 
  7 26  1  0  0  0  0 
  7 27  1  0  0  0  0 
  8  9  1  0  0  0  0 
  9  7  1  0  0  0  0 
  9  6  1  0  0  0  0 
 10  9  1  0  0  0  0 
 10 30  1  0  0  0  0 
 11  1  1  0  0  0  0 
 14  2  1  0  0  0  0 
 15  2  1  0  0  0  0 
 16  2  1  0  0  0  0 
 18  3  1  0  0  0  0 
 19  3  1  0  0  0  0 
 20  4  1  0  0  0  0 
 21  4  1  0  0  0  0 
 28  8  1  0  0  0  0 
 29  8  1  0  0  0  0 
M  END 
>  <HBA> 
1 
 
>  <HBD> 
1 
 
>  <TPSA> 
20.23 
 
>  <cid> 
69013 
 
>  <dipole> 
1.35 
 
>  <excitation_energy_1> 
6.311 
 
>  <excitation_energy_2> 
6.987 
 
>  <excitation_energy_3> 
7.155 
 
>  <excitation_energy_4> 
7.206 
 
>  <homo_energy> 
-7.012 
 
>  <homo_lumo_gap> 
8.787 
 
>  <logP> 
2.728 
 
>  <lumo_energy> 
1.774 
 
>  <melting_point> 
1.09 
 
>  <molecular_refractivity> 
46.58 
 
>  <oscillator_strength_1> 
0.0061 
 
>  <oscillator_strength_2> 
0.0011 
 
>  <oscillator_strength_3> 
0.0021 
 
>  <oscillator_strength_4> 
0.0146 
 
>  <open_babel_can_smiles> 
CCCC(CCC)(CC)O 
 
>  <mulliken_charges> 
30 
1   -0.443683 
2   -0.44167 
3   -0.450569 
4   -0.254097 
5   -0.264049 
6   -0.269601 
7   -0.272664 
8   -0.27109 
9   0.309522 
10   -0.64622 
11   0.142795 
12   0.138338 
13   0.139577 
14   0.140925 
15   0.143471 
16   0.143436 
17   0.138533 
18   0.158463 
19   0.14585 
20   0.147515 
21   0.135148 
22   0.135314 
23   0.135006 
24   0.114679 
25   0.133629 
26   0.13101 
27   0.110723 
28   0.144643 
29   0.144086 
30   0.380979 
 
>  <lowdin_charges> 
30 
1   -0.445446 
2   -0.442498 
3   -0.45107 
4   -0.278244 
5   -0.275663 
6   -0.289914 
7   -0.291638 
8   -0.281993 
9   0.117704 
10   -0.462437 
11   0.150622 
12   0.144423 
13   0.145668 
14   0.149183 
15   0.146188 
16   0.147918 
17   0.149159 
18   0.156321 
19   0.148402 
20   0.148943 
21   0.141112 
22   0.141129 
23   0.138773 
24   0.134994 
25   0.144927 
26   0.143872 
27   0.132711 
28   0.151199 
29   0.149291 
30   0.336362 
 
$$$$ 
 
