PCCDB-ID:  51067 
public computational chemistry database (PCCDB) project, http://pccdb.org 
 
 37 38  0  0  0  0  0  0  0  0999 V2000 
    0.8216   -0.5912   -0.0043 C   0  0  0  0  0  0  0  0  0  0  0  0 
    6.8308    1.6514    3.5031 C   0  0  0  0  0  0  0  0  0  0  0  0 
    2.3437   -0.4898   -0.0743 C   0  0  0  0  0  0  0  0  0  0  0  0 
    9.2850   -3.8964    2.3589 C   0  0  0  0  0  0  0  0  0  0  0  0 
    7.9822   -4.0811    1.5716 C   0  0  0  0  0  0  0  0  0  0  0  0 
    9.7418   -2.4320    2.2647 C   0  0  0  0  0  0  0  0  0  0  0  0 
    4.9730   -0.8791    2.6438 C   0  0  0  0  0  0  0  0  0  0  0  0 
    4.4043   -0.6505    1.2311 C   0  0  0  0  0  0  0  0  0  0  0  0 
    6.8570   -3.2279    2.1648 C   0  0  0  0  0  0  0  0  0  0  0  0 
    8.6263   -0.1730    3.0010 C   0  0  0  0  0  0  0  0  0  0  0  0 
    7.2754    0.2756    3.0950 C   0  0  0  0  0  0  0  0  0  0  0  0 
    8.6190   -1.4833    2.5758 C   0  0  0  0  0  0  0  0  0  0  0  0 
    6.4679   -0.7883    2.7261 C   0  0  0  0  0  0  0  0  0  0  0  0 
    2.9453   -0.6939    1.2419 N   0  0  0  0  0  0  0  0  0  0  0  0 
    7.2976   -1.8544    2.3929 N   0  0  0  0  0  0  0  0  0  0  0  0 
    0.3714   -0.3994   -0.9844 H   0  0  0  0  0  0  0  0  0  0  0  0 
    0.4212    0.1323    0.7132 H   0  0  0  0  0  0  0  0  0  0  0  0 
    0.5059   -1.5931    0.3148 H   0  0  0  0  0  0  0  0  0  0  0  0 
    7.3903    2.0052    4.3780 H   0  0  0  0  0  0  0  0  0  0  0  0 
    5.7667    1.6780    3.7620 H   0  0  0  0  0  0  0  0  0  0  0  0 
    6.9867    2.3907    2.7052 H   0  0  0  0  0  0  0  0  0  0  0  0 
    2.6305    0.5130   -0.4182 H   0  0  0  0  0  0  0  0  0  0  0  0 
    2.7297   -1.1981   -0.8348 H   0  0  0  0  0  0  0  0  0  0  0  0 
   10.0653   -4.5621    1.9718 H   0  0  0  0  0  0  0  0  0  0  0  0 
    9.1190   -4.1708    3.4099 H   0  0  0  0  0  0  0  0  0  0  0  0 
    7.6622   -5.1298    1.5744 H   0  0  0  0  0  0  0  0  0  0  0  0 
    8.1452   -3.7961    0.5233 H   0  0  0  0  0  0  0  0  0  0  0  0 
   10.1208   -2.2516    1.2458 H   0  0  0  0  0  0  0  0  0  0  0  0 
   10.5836   -2.2415    2.9407 H   0  0  0  0  0  0  0  0  0  0  0  0 
    4.6230   -1.8542    3.0159 H   0  0  0  0  0  0  0  0  0  0  0  0 
    4.5283   -0.1302    3.3076 H   0  0  0  0  0  0  0  0  0  0  0  0 
    4.8541   -1.3762    0.5234 H   0  0  0  0  0  0  0  0  0  0  0  0 
    4.7138    0.3428    0.8822 H   0  0  0  0  0  0  0  0  0  0  0  0 
    6.5246   -3.6694    3.1167 H   0  0  0  0  0  0  0  0  0  0  0  0 
    5.9932   -3.2198    1.4919 H   0  0  0  0  0  0  0  0  0  0  0  0 
    9.5128    0.4144    3.2080 H   0  0  0  0  0  0  0  0  0  0  0  0 
    2.6439   -1.6001    1.6019 H   0  0  0  0  0  0  0  0  0  0  0  0 
  1 18  1  0  0  0  0 
  1 17  1  0  0  0  0 
  2 20  1  0  0  0  0 
  2 19  1  0  0  0  0 
  3  1  1  0  0  0  0 
  3 14  1  0  0  0  0 
  4 25  1  0  0  0  0 
  5 26  1  0  0  0  0 
  5  9  1  0  0  0  0 
  5  4  1  0  0  0  0 
  6  4  1  0  0  0  0 
  6 12  1  0  0  0  0 
  6 29  1  0  0  0  0 
  7 13  1  0  0  0  0 
  7 30  1  0  0  0  0 
  7 31  1  0  0  0  0 
  8 14  1  0  0  0  0 
  8  7  1  0  0  0  0 
  9 15  1  0  0  0  0 
  9 34  1  0  0  0  0 
 10 11  1  0  0  0  0 
 10 36  1  0  0  0  0 
 11  2  1  0  0  0  0 
 12 10  2  0  0  0  0 
 13 11  2  0  0  0  0 
 14 37  1  0  0  0  0 
 15 12  1  0  0  0  0 
 15 13  1  0  0  0  0 
 16  1  1  0  0  0  0 
 21  2  1  0  0  0  0 
 22  3  1  0  0  0  0 
 23  3  1  0  0  0  0 
 24  4  1  0  0  0  0 
 27  5  1  0  0  0  0 
 28  6  1  0  0  0  0 
 32  8  1  0  0  0  0 
 33  8  1  0  0  0  0 
 35  9  1  0  0  0  0 
M  END 
>  <HBA> 
2 
 
>  <HBD> 
1 
 
>  <TPSA> 
16.96 
 
>  <cid> 
51067 
 
>  <dipole> 
2.68 
 
>  <excitation_energy_1> 
4.346 
 
>  <excitation_energy_2> 
4.665 
 
>  <excitation_energy_3> 
4.865 
 
>  <excitation_energy_4> 
4.905 
 
>  <homo_energy> 
-4.865 
 
>  <homo_lumo_gap> 
6.131 
 
>  <logP> 
2.676 
 
>  <lumo_energy> 
1.265 
 
>  <melting_point> 
66.43 
 
>  <molecular_refractivity> 
65.31 
 
>  <oscillator_strength_1> 
0.006 
 
>  <oscillator_strength_2> 
0.0318 
 
>  <oscillator_strength_3> 
0.0081 
 
>  <oscillator_strength_4> 
0.0112 
 
>  <open_babel_can_smiles> 
CCNCCc1c(C)cc2n1CCCC2 
 
>  <mulliken_charges> 
37 
1   -0.45057 
2   -0.534642 
3   -0.104435 
4   -0.270632 
5   -0.283815 
6   -0.32945 
7   -0.364054 
8   -0.106822 
9   -0.128049 
10   -0.279073 
11   0.076547 
12   0.328672 
13   0.269329 
14   -0.549566 
15   -0.510989 
16   0.143586 
17   0.159511 
18   0.136132 
19   0.149877 
20   0.148542 
21   0.151706 
22   0.140581 
23   0.106996 
24   0.136893 
25   0.140297 
26   0.141115 
27   0.146697 
28   0.146986 
29   0.149981 
30   0.128906 
31   0.163934 
32   0.108579 
33   0.146746 
34   0.149619 
35   0.152414 
36   0.1046 
37   0.283853 
 
>  <lowdin_charges> 
37 
1   -0.44857 
2   -0.439416 
3   -0.197435 
4   -0.27621 
5   -0.278027 
6   -0.273979 
7   -0.281873 
8   -0.202926 
9   -0.192261 
10   -0.24292 
11   -0.055795 
12   -0.005446 
13   -0.023287 
14   -0.365417 
15   -0.028837 
16   0.152012 
17   0.157441 
18   0.143221 
19   0.154418 
20   0.151215 
21   0.153304 
22   0.140893 
23   0.114214 
24   0.148214 
25   0.142333 
26   0.149983 
27   0.145704 
28   0.146901 
29   0.157298 
30   0.140635 
31   0.164162 
32   0.113427 
33   0.145452 
34   0.142568 
35   0.151618 
36   0.152045 
37   0.245341 
 
$$$$ 
 
