PCCDB-ID:  47933 
public computational chemistry database (PCCDB) project, http://pccdb.org 
 
 24 24  0  0  0  0  0  0  0  0999 V2000 
   -2.4614   -1.6832    0.1451 C   0  0  0  0  0  0  0  0  0  0  0  0 
   -1.4496   -0.7402    0.3174 C   0  0  0  0  0  0  0  0  0  0  0  0 
    2.0667    1.4409    1.9877 C   0  0  0  0  0  0  0  0  0  0  0  0 
    1.0133    0.3518    2.0997 C   0  0  0  0  0  0  0  0  0  0  0  0 
   -0.8652   -3.4427    0.6203 C   0  0  0  0  0  0  0  0  0  0  0  0 
   -2.1736   -3.0492    0.3011 C   0  0  0  0  0  0  0  0  0  0  0  0 
    0.1522   -2.4981    0.7977 C   0  0  0  0  0  0  0  0  0  0  0  0 
   -0.1573   -1.1325    0.6439 C   0  0  0  0  0  0  0  0  0  0  0  0 
   -3.1909   -4.0075    0.1908 N   0  0  0  0  0  0  0  0  0  0  0  0 
    1.4516   -2.8631    1.1599 N   0  0  0  0  0  0  0  0  0  0  0  0 
    1.6783    2.4409    1.0623 O   0  0  0  0  0  0  0  0  0  0  0  0 
    0.8693   -0.2014    0.7774 O   0  0  0  0  0  0  0  0  0  0  0  0 
   -3.4702   -1.3652   -0.1047 H   0  0  0  0  0  0  0  0  0  0  0  0 
   -1.6552    0.3189    0.1869 H   0  0  0  0  0  0  0  0  0  0  0  0 
    3.0316    0.9860    1.7070 H   0  0  0  0  0  0  0  0  0  0  0  0 
    2.1972    1.9316    2.9581 H   0  0  0  0  0  0  0  0  0  0  0  0 
    0.0551    0.7780    2.4232 H   0  0  0  0  0  0  0  0  0  0  0  0 
    1.3141   -0.4307    2.8097 H   0  0  0  0  0  0  0  0  0  0  0  0 
   -0.6372   -4.4999    0.7457 H   0  0  0  0  0  0  0  0  0  0  0  0 
   -3.9709   -3.7203   -0.3882 H   0  0  0  0  0  0  0  0  0  0  0  0 
   -2.8704   -4.9323   -0.0701 H   0  0  0  0  0  0  0  0  0  0  0  0 
    1.7149   -3.8034    0.8914 H   0  0  0  0  0  0  0  0  0  0  0  0 
    2.1419   -2.1797    0.8694 H   0  0  0  0  0  0  0  0  0  0  0  0 
    1.4068    1.9592    0.2630 H   0  0  0  0  0  0  0  0  0  0  0  0 
  1  6  2  0  0  0  0 
  1  2  1  0  0  0  0 
  2  8  2  0  0  0  0 
  3  4  1  0  0  0  0 
  3 16  1  0  0  0  0 
  4 17  1  0  0  0  0 
  4 18  1  0  0  0  0 
  5 19  1  0  0  0  0 
  5  7  2  0  0  0  0 
  6  5  1  0  0  0  0 
  7 10  1  0  0  0  0 
  8 12  1  0  0  0  0 
  8  7  1  0  0  0  0 
  9  6  1  0  0  0  0 
 11  3  1  0  0  0  0 
 12  4  1  0  0  0  0 
 13  1  1  0  0  0  0 
 14  2  1  0  0  0  0 
 15  3  1  0  0  0  0 
 20  9  1  0  0  0  0 
 21  9  1  0  0  0  0 
 22 10  1  0  0  0  0 
 23 10  1  0  0  0  0 
 24 11  1  0  0  0  0 
M  END 
>  <HBA> 
4 
 
>  <HBD> 
3 
 
>  <TPSA> 
81.5 
 
>  <cid> 
47933 
 
>  <dipole> 
3.54 
 
>  <excitation_energy_1> 
4.441 
 
>  <excitation_energy_2> 
4.583 
 
>  <excitation_energy_3> 
4.753 
 
>  <excitation_energy_4> 
5.137 
 
>  <homo_energy> 
-5.086 
 
>  <homo_lumo_gap> 
5.434 
 
>  <logP> 
1.385 
 
>  <lumo_energy> 
0.348 
 
>  <melting_point> 
126.69 
 
>  <molecular_refractivity> 
47.71 
 
>  <oscillator_strength_1> 
0.0401 
 
>  <oscillator_strength_2> 
0.0202 
 
>  <oscillator_strength_3> 
0.008 
 
>  <oscillator_strength_4> 
0.0018 
 
>  <open_babel_can_smiles> 
OCCOc1ccc(cc1N)N 
 
>  <mulliken_charges> 
24 
1   -0.19695 
2   -0.174997 
3   -0.035315 
4   -0.050998 
5   -0.24624 
6   0.317513 
7   0.286462 
8   0.300397 
9   -0.790911 
10   -0.798409 
11   -0.622816 
12   -0.581493 
13   0.113429 
14   0.130239 
15   0.123557 
16   0.147521 
17   0.146207 
18   0.144634 
19   0.106601 
20   0.317746 
21   0.315798 
22   0.317105 
23   0.329545 
24   0.401373 
 
>  <lowdin_charges> 
24 
1   -0.22303 
2   -0.1581 
3   -0.140668 
4   -0.144898 
5   -0.241085 
6   0.064389 
7   0.050014 
8   0.028948 
9   -0.490574 
10   -0.491732 
11   -0.468693 
12   -0.258889 
13   0.151721 
14   0.161158 
15   0.128055 
16   0.151335 
17   0.143426 
18   0.145766 
19   0.147497 
20   0.274511 
21   0.272131 
22   0.273376 
23   0.28047 
24   0.344873 
 
$$$$ 
 
