PCCDB-ID:  72890 
public computational chemistry database (PCCDB) project, http://pccdb.org 
 
 26 26  0  0  0  0  0  0  0  0999 V2000 
    1.4948    0.3976    1.4369 C   0  0  0  0  0  0  0  0  0  0  0  0 
    9.2114    2.8511    2.8635 C   0  0  0  0  0  0  0  0  0  0  0  0 
    5.2374   -0.7886    1.1708 C   0  0  0  0  0  0  0  0  0  0  0  0 
    6.2358   -0.2695    2.2313 C   0  0  0  0  0  0  0  0  0  0  0  0 
    3.3363    0.3794   -0.0474 C   0  0  0  0  0  0  0  0  0  0  0  0 
    6.9868    2.1035    2.7342 C   0  0  0  0  0  0  0  0  0  0  0  0 
    5.0261    1.5534    1.3382 C   0  0  0  0  0  0  0  0  0  0  0  0 
    4.4137    0.3841    0.9072 N   0  0  0  0  0  0  0  0  0  0  0  0 
    6.1401    1.1738    2.0702 N   0  0  0  0  0  0  0  0  0  0  0  0 
    4.6475    2.6953    1.1267 O   0  0  0  0  0  0  0  0  0  0  0  0 
    2.1861   -0.2985    0.4114 O   0  0  0  0  0  0  0  0  0  0  0  0 
    8.2931    2.0194    2.1843 O   0  0  0  0  0  0  0  0  0  0  0  0 
    0.6278   -0.2129    1.7015 H   0  0  0  0  0  0  0  0  0  0  0  0 
    1.1514    1.3837    1.0900 H   0  0  0  0  0  0  0  0  0  0  0  0 
    2.1214    0.5407    2.3275 H   0  0  0  0  0  0  0  0  0  0  0  0 
   10.1835    2.7117    2.3846 H   0  0  0  0  0  0  0  0  0  0  0  0 
    9.2970    2.5835    3.9299 H   0  0  0  0  0  0  0  0  0  0  0  0 
    8.9295    3.9138    2.7962 H   0  0  0  0  0  0  0  0  0  0  0  0 
    4.6328   -1.6226    1.5379 H   0  0  0  0  0  0  0  0  0  0  0  0 
    5.7552   -1.1162    0.2564 H   0  0  0  0  0  0  0  0  0  0  0  0 
    7.2558   -0.6189    2.0504 H   0  0  0  0  0  0  0  0  0  0  0  0 
    5.9405   -0.5719    3.2475 H   0  0  0  0  0  0  0  0  0  0  0  0 
    3.6360   -0.1588   -0.9549 H   0  0  0  0  0  0  0  0  0  0  0  0 
    3.1240    1.4292   -0.2857 H   0  0  0  0  0  0  0  0  0  0  0  0 
    7.0345    1.8829    3.8168 H   0  0  0  0  0  0  0  0  0  0  0  0 
    6.5524    3.1013    2.5899 H   0  0  0  0  0  0  0  0  0  0  0  0 
  1 13  1  0  0  0  0 
  1 15  1  0  0  0  0 
  2 17  1  0  0  0  0 
  3 19  1  0  0  0  0 
  3  4  1  0  0  0  0 
  4 22  1  0  0  0  0 
  5 11  1  0  0  0  0 
  5  8  1  0  0  0  0 
  6 25  1  0  0  0  0 
  7  9  1  0  0  0  0 
  8  3  1  0  0  0  0 
  8  7  1  0  0  0  0 
  9  4  1  0  0  0  0 
  9  6  1  0  0  0  0 
 10  7  2  0  0  0  0 
 11  1  1  0  0  0  0 
 12  6  1  0  0  0  0 
 12  2  1  0  0  0  0 
 14  1  1  0  0  0  0 
 16  2  1  0  0  0  0 
 18  2  1  0  0  0  0 
 20  3  1  0  0  0  0 
 21  4  1  0  0  0  0 
 23  5  1  0  0  0  0 
 24  5  1  0  0  0  0 
 26  6  1  0  0  0  0 
M  END 
>  <HBA> 
5 
 
>  <HBD> 
0 
 
>  <TPSA> 
42.01 
 
>  <cid> 
72890 
 
>  <dipole> 
3.17 
 
>  <excitation_energy_1> 
5.926 
 
>  <excitation_energy_2> 
6.171 
 
>  <excitation_energy_3> 
6.393 
 
>  <excitation_energy_4> 
6.455 
 
>  <homo_energy> 
-6.43 
 
>  <homo_lumo_gap> 
7.946 
 
>  <logP> 
-0.192 
 
>  <lumo_energy> 
1.516 
 
>  <melting_point> 
14.45 
 
>  <molecular_refractivity> 
50.03 
 
>  <oscillator_strength_1> 
0.0054 
 
>  <oscillator_strength_2> 
0.1205 
 
>  <oscillator_strength_3> 
0.0043 
 
>  <oscillator_strength_4> 
0.0131 
 
>  <open_babel_can_smiles> 
COCN1CCN(C1=O)COC 
 
>  <mulliken_charges> 
26 
1   -0.206011 
2   -0.198763 
3   -0.137132 
4   -0.13205 
5   0.079672 
6   0.110402 
7   0.7851 
8   -0.479857 
9   -0.482204 
10   -0.542665 
11   -0.455106 
12   -0.45948 
13   0.156162 
14   0.141644 
15   0.14268 
16   0.162867 
17   0.129285 
18   0.138391 
19   0.170285 
20   0.153741 
21   0.175174 
22   0.149428 
23   0.144221 
24   0.169562 
25   0.115428 
26   0.169225 
 
>  <lowdin_charges> 
26 
1   -0.285578 
2   -0.277991 
3   -0.192484 
4   -0.188283 
5   -0.070682 
6   -0.061452 
7   0.177232 
8   -0.137745 
9   -0.12161 
10   -0.326581 
11   -0.271859 
12   -0.279125 
13   0.15531 
14   0.138572 
15   0.138678 
16   0.157827 
17   0.128913 
18   0.133938 
19   0.159592 
20   0.143597 
21   0.160335 
22   0.140495 
23   0.145208 
24   0.156297 
25   0.119191 
26   0.158206 
 
$$$$ 
 
