PCCDB-ID:  69145 
public computational chemistry database (PCCDB) project, http://pccdb.org 
 
 28 29  0  0  0  0  0  0  0  0999 V2000 
    0.6599    1.0980    1.1304 C   0  0  0  0  0  0  0  0  0  0  0  0 
    0.9491   -6.0167   -0.8673 C   0  0  0  0  0  0  0  0  0  0  0  0 
    0.0452   -0.1229    0.8685 C   0  0  0  0  0  0  0  0  0  0  0  0 
    0.3122   -4.7794   -0.8546 C   0  0  0  0  0  0  0  0  0  0  0  0 
    1.9975    1.3104    0.7978 C   0  0  0  0  0  0  0  0  0  0  0  0 
    2.0719   -6.2504   -0.0739 C   0  0  0  0  0  0  0  0  0  0  0  0 
    2.1324   -0.9461   -0.0535 C   0  0  0  0  0  0  0  0  0  0  0  0 
    1.9473   -3.9837    0.7510 C   0  0  0  0  0  0  0  0  0  0  0  0 
    0.7910   -1.1595    0.2868 C   0  0  0  0  0  0  0  0  0  0  0  0 
    0.8239   -3.7487   -0.0513 C   0  0  0  0  0  0  0  0  0  0  0  0 
    2.7494    0.2919    0.1897 C   0  0  0  0  0  0  0  0  0  0  0  0 
    2.5800   -5.2375    0.7556 C   0  0  0  0  0  0  0  0  0  0  0  0 
    0.0786   -2.4445   -0.0274 C   0  0  0  0  0  0  0  0  0  0  0  0 
    4.1019    0.4840   -0.1135 N   0  0  0  0  0  0  0  0  0  0  0  0 
    3.7283   -5.4518    1.5258 N   0  0  0  0  0  0  0  0  0  0  0  0 
   -1.1240   -2.4279   -0.2657 O   0  0  0  0  0  0  0  0  0  0  0  0 
    0.0940    1.9023    1.5933 H   0  0  0  0  0  0  0  0  0  0  0  0 
    0.5677   -6.8171   -1.4961 H   0  0  0  0  0  0  0  0  0  0  0  0 
   -1.0002   -0.2935    1.0999 H   0  0  0  0  0  0  0  0  0  0  0  0 
   -0.5747   -4.5907   -1.4490 H   0  0  0  0  0  0  0  0  0  0  0  0 
    2.4658    2.2700    1.0060 H   0  0  0  0  0  0  0  0  0  0  0  0 
    2.5600   -7.2226   -0.0919 H   0  0  0  0  0  0  0  0  0  0  0  0 
    2.7030   -1.7378   -0.5306 H   0  0  0  0  0  0  0  0  0  0  0  0 
    2.3268   -3.1965    1.3961 H   0  0  0  0  0  0  0  0  0  0  0  0 
    4.3659    1.4473   -0.2809 H   0  0  0  0  0  0  0  0  0  0  0  0 
    4.4627   -0.1246   -0.8383 H   0  0  0  0  0  0  0  0  0  0  0  0 
    3.8909   -6.4174    1.7845 H   0  0  0  0  0  0  0  0  0  0  0  0 
    3.8205   -4.8388    2.3268 H   0  0  0  0  0  0  0  0  0  0  0  0 
  1 17  1  0  0  0  0 
  2  4  2  0  0  0  0 
  2  6  1  0  0  0  0 
  3 19  1  0  0  0  0 
  3  1  1  0  0  0  0 
  4 10  1  0  0  0  0 
  5 21  1  0  0  0  0 
  5  1  2  0  0  0  0 
  6 12  2  0  0  0  0 
  7 11  2  0  0  0  0 
  7  9  1  0  0  0  0 
  8 12  1  0  0  0  0 
  8 24  1  0  0  0  0 
  9  3  2  0  0  0  0 
 10 13  1  0  0  0  0 
 10  8  2  0  0  0  0 
 11  5  1  0  0  0  0 
 12 15  1  0  0  0  0 
 13  9  1  0  0  0  0 
 14 11  1  0  0  0  0 
 15 27  1  0  0  0  0 
 15 28  1  0  0  0  0 
 16 13  2  0  0  0  0 
 18  2  1  0  0  0  0 
 20  4  1  0  0  0  0 
 22  6  1  0  0  0  0 
 23  7  1  0  0  0  0 
 25 14  1  0  0  0  0 
 26 14  1  0  0  0  0 
M  END 
>  <HBA> 
3 
 
>  <HBD> 
2 
 
>  <TPSA> 
69.11 
 
>  <cid> 
69145 
 
>  <dipole> 
4.24 
 
>  <excitation_energy_1> 
3.434 
 
>  <excitation_energy_2> 
3.555 
 
>  <excitation_energy_3> 
3.668 
 
>  <excitation_energy_4> 
4.528 
 
>  <homo_energy> 
-5.578 
 
>  <homo_lumo_gap> 
4.144 
 
>  <logP> 
3.244 
 
>  <lumo_energy> 
-1.434 
 
>  <melting_point> 
164.07 
 
>  <molecular_refractivity> 
65.13 
 
>  <oscillator_strength_1> 
0.0015 
 
>  <oscillator_strength_2> 
0.0636 
 
>  <oscillator_strength_3> 
0.0065 
 
>  <oscillator_strength_4> 
0.003 
 
>  <open_babel_can_smiles> 
Nc1cccc(c1)C(=O)c1cccc(c1)N 
 
>  <mulliken_charges> 
28 
1   -0.140649 
2   -0.140506 
3   -0.163336 
4   -0.163705 
5   -0.165289 
6   -0.165193 
7   -0.229682 
8   -0.230481 
9   0.069379 
10   0.069378 
11   0.307787 
12   0.308037 
13   0.314186 
14   -0.788899 
15   -0.788925 
16   -0.464805 
17   0.132108 
18   0.132138 
19   0.149791 
20   0.150358 
21   0.12109 
22   0.121095 
23   0.139618 
24   0.139978 
25   0.320644 
26   0.322607 
27   0.320647 
28   0.322629 
 
>  <lowdin_charges> 
28 
1   -0.146938 
2   -0.146837 
3   -0.160504 
4   -0.161513 
5   -0.188904 
6   -0.188705 
7   -0.198186 
8   -0.197942 
9   -0.031548 
10   -0.032241 
11   0.058886 
12   0.059322 
13   0.154999 
14   -0.490105 
15   -0.489345 
16   -0.245195 
17   0.160646 
18   0.16049 
19   0.170239 
20   0.172013 
21   0.154599 
22   0.154358 
23   0.164123 
24   0.16419 
25   0.27473 
26   0.277612 
27   0.274715 
28   0.277041 
 
$$$$ 
 
