PCCDB-ID:  10932 
public computational chemistry database (PCCDB) project, http://pccdb.org 
 
 16 15  0  0  1  0  0  0  0  0999 V2000 
    0.9924    0.2244   -0.0206 C   0  0  0  0  0  0  0  0  0  0  0  0 
    3.2142    1.4090   -0.4758 C   0  0  0  0  0  0  0  0  0  0  0  0 
    2.5173    0.1238    0.0662 C   0  0  1  0  0  0  0  0  0  0  0  0 
    2.9761    1.5896   -1.9684 C   0  0  0  0  0  0  0  0  0  0  0  0 
    2.8967   -0.2110    1.4393 N   0  0  0  0  0  0  0  0  0  0  0  0 
    3.5417    0.9381   -2.8106 O   0  0  0  0  0  0  0  0  0  0  0  0 
    2.0252    2.4961   -2.3354 O   0  0  0  0  0  0  0  0  0  0  0  0 
    0.6550    0.3897   -1.0491 H   0  0  0  0  0  0  0  0  0  0  0  0 
    0.6208    1.0549    0.5969 H   0  0  0  0  0  0  0  0  0  0  0  0 
    0.5360   -0.6963    0.3528 H   0  0  0  0  0  0  0  0  0  0  0  0 
    4.2955    1.3100   -0.3365 H   0  0  0  0  0  0  0  0  0  0  0  0 
    2.8799    2.2797    0.1066 H   0  0  0  0  0  0  0  0  0  0  0  0 
    2.8515   -0.7048   -0.5697 H   0  0  0  0  0  0  0  0  0  0  0  0 
    2.6400    0.5486    2.0702 H   0  0  0  0  0  0  0  0  0  0  0  0 
    3.9075   -0.3187    1.5124 H   0  0  0  0  0  0  0  0  0  0  0  0 
    1.6654    2.9355   -1.5485 H   0  0  0  0  0  0  0  0  0  0  0  0 
  1  3  1  0  0  0  0 
  1 10  1  0  0  0  0 
  1  9  1  0  0  0  0 
  2 11  1  0  0  0  0 
  2  3  1  0  0  0  0 
  2 12  1  0  0  0  0 
  3 13  1  6  0  0  0 
  3  5  1  0  0  0  0 
  4  2  1  0  0  0  0 
  5 15  1  0  0  0  0 
  5 14  1  0  0  0  0 
  6  4  2  0  0  0  0 
  7  4  1  0  0  0  0 
  7 16  1  0  0  0  0 
  8  1  1  0  0  0  0 
M  END 
>  <HBA> 
3 
 
>  <HBD> 
2 
 
>  <TPSA> 
63.32 
 
>  <cid> 
10932 
 
>  <dipole> 
4.3 
 
>  <excitation_energy_1> 
5.429 
 
>  <excitation_energy_2> 
5.713 
 
>  <excitation_energy_3> 
6.139 
 
>  <excitation_energy_4> 
6.269 
 
>  <homo_energy> 
-6.648 
 
>  <homo_lumo_gap> 
6.778 
 
>  <logP> 
0.509 
 
>  <lumo_energy> 
0.131 
 
>  <melting_point> 
106.17 
 
>  <molecular_refractivity> 
25.82 
 
>  <oscillator_strength_1> 
0.0084 
 
>  <oscillator_strength_2> 
0.0232 
 
>  <oscillator_strength_3> 
0.0467 
 
>  <oscillator_strength_4> 
0.0585 
 
>  <open_babel_can_smiles> 
C[C@@H](CC(=O)O)N 
 
>  <mulliken_charges> 
16 
1   -0.458687 
2   -0.37039 
3   0.024572 
4   0.586595 
5   -0.700021 
6   -0.440828 
7   -0.562712 
8   0.162462 
9   0.126873 
10   0.175179 
11   0.171869 
12   0.12104 
13   0.166859 
14   0.290216 
15   0.300012 
16   0.40696 
 
>  <lowdin_charges> 
16 
1   -0.454896 
2   -0.334257 
3   -0.058575 
4   0.195742 
5   -0.539902 
6   -0.243458 
7   -0.361083 
8   0.158144 
9   0.140781 
10   0.16832 
11   0.169031 
12   0.139665 
13   0.157158 
14   0.25196 
15   0.254319 
16   0.357049 
 
$$$$ 
 
