PCCDB-ID:  68268 
public computational chemistry database (PCCDB) project, http://pccdb.org 
 
 26 27  0  0  0  0  0  0  0  0999 V2000 
   -0.6579    1.2070    0.0783 C   0  0  0  0  0  0  0  0  0  0  0  0 
   -0.6589   -1.2062   -0.0800 C   0  0  0  0  0  0  0  0  0  0  0  0 
   -3.5663   -0.9643    0.7178 C   0  0  0  0  0  0  0  0  0  0  0  0 
   -3.5609    0.9686   -0.7358 C   0  0  0  0  0  0  0  0  0  0  0  0 
    1.4508   -0.0008    0.0049 C   0  0  0  0  0  0  0  0  0  0  0  0 
   -5.6728    0.0034   -0.0151 C   0  0  0  0  0  0  0  0  0  0  0  0 
   -1.3678    0.0008   -0.0027 C   0  0  0  0  0  0  0  0  0  0  0  0 
   -2.8543    0.0017   -0.0069 C   0  0  0  0  0  0  0  0  0  0  0  0 
    0.7412    1.1974    0.0847 C   0  0  0  0  0  0  0  0  0  0  0  0 
    0.7403   -1.1981   -0.0786 C   0  0  0  0  0  0  0  0  0  0  0  0 
   -4.9654   -0.9551    0.7106 C   0  0  0  0  0  0  0  0  0  0  0  0 
   -4.9601    0.9611   -0.7365 C   0  0  0  0  0  0  0  0  0  0  0  0 
    1.4753    2.3469    0.1777 O   0  0  0  0  0  0  0  0  0  0  0  0 
    1.4736   -2.3485   -0.1675 O   0  0  0  0  0  0  0  0  0  0  0  0 
   -5.7016   -1.8682    1.4128 O   0  0  0  0  0  0  0  0  0  0  0  0 
   -5.6912    1.8751   -1.4429 O   0  0  0  0  0  0  0  0  0  0  0  0 
   -1.1960    2.1469    0.1754 H   0  0  0  0  0  0  0  0  0  0  0  0 
   -1.1975   -2.1454   -0.1803 H   0  0  0  0  0  0  0  0  0  0  0  0 
   -3.0299   -1.6967    1.3162 H   0  0  0  0  0  0  0  0  0  0  0  0 
   -3.0203    1.7002   -1.3312 H   0  0  0  0  0  0  0  0  0  0  0  0 
    2.5346   -0.0014    0.0078 H   0  0  0  0  0  0  0  0  0  0  0  0 
   -6.7566    0.0040   -0.0182 H   0  0  0  0  0  0  0  0  0  0  0  0 
    0.8690    3.1014    0.2359 H   0  0  0  0  0  0  0  0  0  0  0  0 
    0.8667   -3.1024   -0.2277 H   0  0  0  0  0  0  0  0  0  0  0  0 
   -5.0967   -2.4671    1.8771 H   0  0  0  0  0  0  0  0  0  0  0  0 
   -5.0829    2.4737   -1.9034 H   0  0  0  0  0  0  0  0  0  0  0  0 
  1  9  1  0  0  0  0 
  1 17  1  0  0  0  0 
  2 10  2  0  0  0  0 
  2  7  1  0  0  0  0 
  3 19  1  0  0  0  0 
  4  8  1  0  0  0  0 
  5 21  1  0  0  0  0 
  5  9  2  0  0  0  0 
  6 11  2  0  0  0  0 
  7  1  2  0  0  0  0 
  8  7  1  0  0  0  0 
  8  3  2  0  0  0  0 
  9 13  1  0  0  0  0 
 10  5  1  0  0  0  0 
 11  3  1  0  0  0  0 
 11 15  1  0  0  0  0 
 12  4  2  0  0  0  0 
 12  6  1  0  0  0  0 
 13 23  1  0  0  0  0 
 14 10  1  0  0  0  0 
 15 25  1  0  0  0  0 
 16 12  1  0  0  0  0 
 18  2  1  0  0  0  0 
 20  4  1  0  0  0  0 
 22  6  1  0  0  0  0 
 24 14  1  0  0  0  0 
 26 16  1  0  0  0  0 
M  END 
>  <HBA> 
4 
 
>  <HBD> 
4 
 
>  <TPSA> 
80.92 
 
>  <cid> 
68268 
 
>  <dipole> 
0.0 
 
>  <excitation_energy_1> 
4.479 
 
>  <excitation_energy_2> 
4.498 
 
>  <excitation_energy_3> 
4.717 
 
>  <excitation_energy_4> 
5.035 
 
>  <homo_energy> 
-5.938 
 
>  <homo_lumo_gap> 
5.219 
 
>  <logP> 
2.176 
 
>  <lumo_energy> 
-0.718 
 
>  <melting_point> 
204.49 
 
>  <molecular_refractivity> 
59.97 
 
>  <oscillator_strength_1> 
0.0068 
 
>  <oscillator_strength_2> 
0.0401 
 
>  <oscillator_strength_3> 
0.3317 
 
>  <oscillator_strength_4> 
0.0 
 
>  <open_babel_can_smiles> 
Oc1cc(cc(c1)O)c1cc(O)cc(c1)O 
 
>  <mulliken_charges> 
26 
1   -0.257831 
2   -0.257937 
3   -0.25776 
4   -0.257818 
5   -0.203593 
6   -0.203443 
7   0.084764 
8   0.084364 
9   0.361852 
10   0.361927 
11   0.361778 
12   0.361876 
13   -0.645528 
14   -0.64552 
15   -0.64554 
16   -0.645554 
17   0.117621 
18   0.117627 
19   0.117596 
20   0.117599 
21   0.15013 
22   0.150097 
23   0.408317 
24   0.408317 
25   0.408331 
26   0.408328 
 
>  <lowdin_charges> 
26 
1   -0.243198 
2   -0.24321 
3   -0.244375 
4   -0.244399 
5   -0.215281 
6   -0.217378 
7   0.021508 
8   0.021685 
9   0.114613 
10   0.114622 
11   0.114954 
12   0.11498 
13   -0.376097 
14   -0.376106 
15   -0.376283 
16   -0.376286 
17   0.154983 
18   0.154997 
19   0.156104 
20   0.156119 
21   0.175793 
22   0.175804 
23   0.35871 
24   0.358713 
25   0.35952 
26   0.35951 
 
$$$$ 
 
