PCCDB-ID:  15395 
public computational chemistry database (PCCDB) project, http://pccdb.org 
 
 17 16  0  0  0  0  0  0  0  0999 V2000 
    0.9617   -0.1406    0.4173 C   0  0  0  0  0  0  0  0  0  0  0  0 
    4.8770    3.6340   -0.1320 C   0  0  0  0  0  0  0  0  0  0  0  0 
    2.4560   -0.2053    0.0886 C   0  0  0  0  0  0  0  0  0  0  0  0 
    5.3750    2.4073   -0.3203 C   0  0  0  0  0  0  0  0  0  0  0  0 
    3.1146    1.1759    0.0736 C   0  0  0  0  0  0  0  0  0  0  0  0 
    4.6057    1.1325   -0.2464 C   0  0  0  0  0  0  0  0  0  0  0  0 
    5.1879    0.0751   -0.4409 O   0  0  0  0  0  0  0  0  0  0  0  0 
    0.5150   -1.1412    0.4171 H   0  0  0  0  0  0  0  0  0  0  0  0 
    0.4154    0.4664   -0.3155 H   0  0  0  0  0  0  0  0  0  0  0  0 
    0.7868    0.3001    1.4069 H   0  0  0  0  0  0  0  0  0  0  0  0 
    5.5071    4.5165   -0.2010 H   0  0  0  0  0  0  0  0  0  0  0  0 
    3.8290    3.8099    0.0953 H   0  0  0  0  0  0  0  0  0  0  0  0 
    2.6076   -0.6843   -0.8856 H   0  0  0  0  0  0  0  0  0  0  0  0 
    2.9757   -0.8406    0.8149 H   0  0  0  0  0  0  0  0  0  0  0  0 
    6.4294    2.2616   -0.5466 H   0  0  0  0  0  0  0  0  0  0  0  0 
    2.9852    1.6742    1.0460 H   0  0  0  0  0  0  0  0  0  0  0  0 
    2.6195    1.8315   -0.6579 H   0  0  0  0  0  0  0  0  0  0  0  0 
  1 10  1  0  0  0  0 
  2 12  1  0  0  0  0 
  3  1  1  0  0  0  0 
  3 14  1  0  0  0  0 
  4  6  1  0  0  0  0 
  4  2  2  0  0  0  0 
  5  3  1  0  0  0  0 
  5 16  1  0  0  0  0 
  6  5  1  0  0  0  0 
  7  6  2  0  0  0  0 
  8  1  1  0  0  0  0 
  9  1  1  0  0  0  0 
 11  2  1  0  0  0  0 
 13  3  1  0  0  0  0 
 15  4  1  0  0  0  0 
 17  5  1  0  0  0  0 
M  END 
>  <HBA> 
1 
 
>  <HBD> 
0 
 
>  <TPSA> 
17.07 
 
>  <cid> 
15395 
 
>  <dipole> 
2.9 
 
>  <excitation_energy_1> 
3.61 
 
>  <excitation_energy_2> 
5.999 
 
>  <excitation_energy_3> 
6.43 
 
>  <excitation_energy_4> 
6.581 
 
>  <homo_energy> 
-6.713 
 
>  <homo_lumo_gap> 
5.197 
 
>  <logP> 
1.542 
 
>  <lumo_energy> 
-1.516 
 
>  <melting_point> 
-25.77 
 
>  <molecular_refractivity> 
30.68 
 
>  <oscillator_strength_1> 
0.0001 
 
>  <oscillator_strength_2> 
0.2638 
 
>  <oscillator_strength_3> 
0.0079 
 
>  <oscillator_strength_4> 
0.0004 
 
>  <open_babel_can_smiles> 
CCCC(=O)C=C 
 
>  <mulliken_charges> 
17 
1   -0.446973 
2   -0.328937 
3   -0.240566 
4   -0.114424 
5   -0.364901 
6   0.441359 
7   -0.460723 
8   0.147885 
9   0.139531 
10   0.139746 
11   0.16146 
12   0.157438 
13   0.15076 
14   0.152038 
15   0.151816 
16   0.157912 
17   0.156577 
 
>  <lowdin_charges> 
17 
1   -0.445723 
2   -0.290525 
3   -0.268412 
4   -0.175121 
5   -0.312113 
6   0.157447 
7   -0.236499 
8   0.152033 
9   0.146493 
10   0.144864 
11   0.170774 
12   0.163784 
13   0.151173 
14   0.153499 
15   0.168442 
16   0.159665 
17   0.160221 
 
$$$$ 
 
