PCCDB-ID:  8054 
public computational chemistry database (PCCDB) project, http://pccdb.org 
 
 18 17  0  0  0  0  0  0  0  0999 V2000 
    0.9114   -1.2386   -1.2060 C   0  0  0  0  0  0  0  0  0  0  0  0 
    7.3647   -3.1569   -1.7398 C   0  0  0  0  0  0  0  0  0  0  0  0 
    5.2274   -2.3308   -1.2032 C   0  0  0  0  0  0  0  0  0  0  0  0 
    4.5636   -1.0984   -0.5995 C   0  0  0  0  0  0  0  0  0  0  0  0 
    2.3706   -1.0186   -1.5292 C   0  0  0  0  0  0  0  0  0  0  0  0 
    2.8058   -0.6328   -2.5913 O   0  0  0  0  0  0  0  0  0  0  0  0 
    6.6213   -2.1043   -1.1624 O   0  0  0  0  0  0  0  0  0  0  0  0 
    3.1445   -1.3040   -0.4512 O   0  0  0  0  0  0  0  0  0  0  0  0 
    0.3118   -1.0688   -2.1008 H   0  0  0  0  0  0  0  0  0  0  0  0 
    0.5972   -0.5501   -0.4143 H   0  0  0  0  0  0  0  0  0  0  0  0 
    0.7534   -2.2560   -0.8345 H   0  0  0  0  0  0  0  0  0  0  0  0 
    8.4207   -2.8864   -1.6599 H   0  0  0  0  0  0  0  0  0  0  0  0 
    7.1103   -3.2996   -2.8021 H   0  0  0  0  0  0  0  0  0  0  0  0 
    7.1983   -4.1101   -1.2123 H   0  0  0  0  0  0  0  0  0  0  0  0 
    4.8779   -2.4764   -2.2369 H   0  0  0  0  0  0  0  0  0  0  0  0 
    4.9531   -3.2262   -0.6201 H   0  0  0  0  0  0  0  0  0  0  0  0 
    4.7504   -0.2213   -1.2224 H   0  0  0  0  0  0  0  0  0  0  0  0 
    4.9411   -0.9245    0.4102 H   0  0  0  0  0  0  0  0  0  0  0  0 
  1 11  1  0  0  0  0 
  1 10  1  0  0  0  0 
  2 12  1  0  0  0  0 
  2 14  1  0  0  0  0 
  2  7  1  0  0  0  0 
  3  7  1  0  0  0  0 
  3 16  1  0  0  0  0 
  3  4  1  0  0  0  0 
  4  8  1  0  0  0  0 
  4 18  1  0  0  0  0 
  5  1  1  0  0  0  0 
  5  8  1  0  0  0  0 
  6  5  2  0  0  0  0 
  9  1  1  0  0  0  0 
 13  2  1  0  0  0  0 
 15  3  1  0  0  0  0 
 17  4  1  0  0  0  0 
M  END 
>  <HBA> 
3 
 
>  <HBD> 
0 
 
>  <TPSA> 
35.53 
 
>  <cid> 
8054 
 
>  <dipole> 
1.97 
 
>  <excitation_energy_1> 
5.811 
 
>  <excitation_energy_2> 
6.553 
 
>  <excitation_energy_3> 
6.748 
 
>  <excitation_energy_4> 
6.956 
 
>  <homo_energy> 
-7.045 
 
>  <homo_lumo_gap> 
7.353 
 
>  <logP> 
0.196 
 
>  <lumo_energy> 
0.307 
 
>  <melting_point> 
-22.41 
 
>  <molecular_refractivity> 
28.52 
 
>  <oscillator_strength_1> 
0.0012 
 
>  <oscillator_strength_2> 
0.0029 
 
>  <oscillator_strength_3> 
0.0204 
 
>  <oscillator_strength_4> 
0.0029 
 
>  <open_babel_can_smiles> 
COCCOC(=O)C 
 
>  <mulliken_charges> 
18 
1   -0.522869 
2   -0.192186 
3   -0.027429 
4   -0.062363 
5   0.598163 
6   -0.463788 
7   -0.465603 
8   -0.456162 
9   0.183306 
10   0.184266 
11   0.180946 
12   0.160752 
13   0.135834 
14   0.131277 
15   0.145719 
16   0.126354 
17   0.179676 
18   0.164107 
 
>  <lowdin_charges> 
18 
1   -0.464824 
2   -0.274591 
3   -0.139574 
4   -0.13451 
5   0.199559 
6   -0.263057 
7   -0.270676 
8   -0.19847 
9   0.176477 
10   0.180179 
11   0.176463 
12   0.154936 
13   0.13312 
14   0.132147 
15   0.13937 
16   0.12984 
17   0.164645 
18   0.158969 
 
$$$$ 
 
