PCCDB-ID:  62003 
public computational chemistry database (PCCDB) project, http://pccdb.org 
 
 32 31  0  0  1  0  0  0  0  0999 V2000 
    2.0205    0.9846    1.0877 C   0  0  0  0  0  0  0  0  0  0  0  0 
    7.1603   -1.1244    2.3935 C   0  0  0  0  0  0  0  0  0  0  0  0 
    1.9414   -0.3764    0.3855 C   0  0  0  0  0  0  0  0  0  0  0  0 
    2.7846   -1.4835    1.0396 C   0  0  0  0  0  0  0  0  0  0  0  0 
    4.3011   -1.2468    0.9912 C   0  0  0  0  0  0  0  0  0  0  0  0 
    5.1056   -2.4185    1.5734 C   0  0  0  0  0  0  0  0  0  0  0  0 
    7.3792   -3.5854    1.7363 C   0  0  0  0  0  0  0  0  0  0  0  0 
    7.1752   -4.2031    3.1374 C   0  0  0  0  0  0  0  0  0  0  0  0 
    6.6375   -2.2518    1.4877 C   0  0  2  0  0  0  0  0  0  0  0  0 
    7.8962   -5.5350    3.2945 C   0  0  0  0  0  0  0  0  0  0  0  0 
    7.3487   -6.6007    3.4200 O   0  0  0  0  0  0  0  0  0  0  0  0 
    9.2603   -5.4738    3.2658 O   0  0  0  0  0  0  0  0  0  0  0  0 
    1.3522    1.7116    0.6123 H   0  0  0  0  0  0  0  0  0  0  0  0 
    3.0329    1.4032    1.0582 H   0  0  0  0  0  0  0  0  0  0  0  0 
    1.7257    0.9025    2.1416 H   0  0  0  0  0  0  0  0  0  0  0  0 
    6.7443   -0.1540    2.1047 H   0  0  0  0  0  0  0  0  0  0  0  0 
    8.2527   -1.0413    2.3310 H   0  0  0  0  0  0  0  0  0  0  0  0 
    6.8957   -1.2922    3.4450 H   0  0  0  0  0  0  0  0  0  0  0  0 
    2.2462   -0.2638   -0.6650 H   0  0  0  0  0  0  0  0  0  0  0  0 
    0.8933   -0.7038    0.3627 H   0  0  0  0  0  0  0  0  0  0  0  0 
    2.5599   -2.4381    0.5427 H   0  0  0  0  0  0  0  0  0  0  0  0 
    2.4703   -1.6057    2.0871 H   0  0  0  0  0  0  0  0  0  0  0  0 
    4.5462   -0.3238    1.5312 H   0  0  0  0  0  0  0  0  0  0  0  0 
    4.6077   -1.0826   -0.0531 H   0  0  0  0  0  0  0  0  0  0  0  0 
    4.8205   -3.3371    1.0397 H   0  0  0  0  0  0  0  0  0  0  0  0 
    4.8078   -2.5713    2.6211 H   0  0  0  0  0  0  0  0  0  0  0  0 
    7.0541   -4.3178    0.9861 H   0  0  0  0  0  0  0  0  0  0  0  0 
    8.4524   -3.4224    1.5585 H   0  0  0  0  0  0  0  0  0  0  0  0 
    6.1176   -4.3984    3.3248 H   0  0  0  0  0  0  0  0  0  0  0  0 
    7.5293   -3.5111    3.9138 H   0  0  0  0  0  0  0  0  0  0  0  0 
    6.8750   -1.9740    0.4494 H   0  0  0  0  0  0  0  0  0  0  0  0 
    9.5495   -4.5516    3.1700 H   0  0  0  0  0  0  0  0  0  0  0  0 
  1 15  1  0  0  0  0 
  2 18  1  0  0  0  0 
  3  4  1  0  0  0  0 
  3  1  1  0  0  0  0 
  4 22  1  0  0  0  0 
  5  4  1  0  0  0  0 
  5 23  1  0  0  0  0 
  5  6  1  0  0  0  0 
  6 26  1  0  0  0  0 
  7  8  1  0  0  0  0 
  8 10  1  0  0  0  0 
  8 29  1  0  0  0  0 
  8 30  1  0  0  0  0 
  9 31  1  6  0  0  0 
  9  6  1  0  0  0  0 
  9  7  1  0  0  0  0 
  9  2  1  0  0  0  0 
 10 11  2  0  0  0  0 
 12 10  1  0  0  0  0 
 13  1  1  0  0  0  0 
 14  1  1  0  0  0  0 
 16  2  1  0  0  0  0 
 17  2  1  0  0  0  0 
 19  3  1  0  0  0  0 
 20  3  1  0  0  0  0 
 21  4  1  0  0  0  0 
 24  5  1  0  0  0  0 
 25  6  1  0  0  0  0 
 27  7  1  0  0  0  0 
 28  7  1  0  0  0  0 
 32 12  1  0  0  0  0 
M  END 
>  <HBA> 
2 
 
>  <HBD> 
1 
 
>  <TPSA> 
37.3 
 
>  <cid> 
62003 
 
>  <dipole> 
4.66 
 
>  <excitation_energy_1> 
5.632 
 
>  <excitation_energy_2> 
6.363 
 
>  <excitation_energy_3> 
7.165 
 
>  <excitation_energy_4> 
7.215 
 
>  <homo_energy> 
-7.181 
 
>  <homo_lumo_gap> 
7.535 
 
>  <logP> 
3.068 
 
>  <lumo_energy> 
0.354 
 
>  <melting_point> 
47.94 
 
>  <molecular_refractivity> 
51.96 
 
>  <oscillator_strength_1> 
0.0016 
 
>  <oscillator_strength_2> 
0.0103 
 
>  <oscillator_strength_3> 
0.0063 
 
>  <oscillator_strength_4> 
0.0011 
 
>  <open_babel_can_smiles> 
CCCCC[C@H](CCC(=O)O)C 
 
>  <mulliken_charges> 
32 
1   -0.443679 
2   -0.458354 
3   -0.249215 
4   -0.250736 
5   -0.262099 
6   -0.259909 
7   -0.277484 
8   -0.384362 
9   -0.067826 
10   0.587072 
11   -0.435494 
12   -0.564808 
13   0.143692 
14   0.144406 
15   0.141152 
16   0.155173 
17   0.136382 
18   0.144169 
19   0.130067 
20   0.132991 
21   0.129812 
22   0.127784 
23   0.137696 
24   0.127459 
25   0.132654 
26   0.131364 
27   0.15737 
28   0.120284 
29   0.184255 
30   0.15525 
31   0.127211 
32   0.407726 
 
>  <lowdin_charges> 
32 
1   -0.44667 
2   -0.44682 
3   -0.270079 
4   -0.273789 
5   -0.277034 
6   -0.276456 
7   -0.274329 
8   -0.319579 
9   -0.122226 
10   0.197091 
11   -0.238755 
12   -0.364283 
13   0.15184 
14   0.145472 
15   0.144718 
16   0.154786 
17   0.144191 
18   0.145103 
19   0.137353 
20   0.141686 
21   0.140778 
22   0.136638 
23   0.141317 
24   0.13646 
25   0.142347 
26   0.137961 
27   0.154775 
28   0.132649 
29   0.172781 
30   0.157537 
31   0.140208 
32   0.354329 
 
$$$$ 
 
