PCCDB-ID:  69253 
public computational chemistry database (PCCDB) project, http://pccdb.org 
 
 19 19  0  0  0  0  0  0  0  0999 V2000 
    1.0187   -0.0383    0.2035 C   0  0  0  0  0  0  0  0  0  0  0  0 
    4.6423    1.1298   -0.1182 C   0  0  0  0  0  0  0  0  0  0  0  0 
    3.2530    1.1446    0.0038 C   0  0  0  0  0  0  0  0  0  0  0  0 
    5.3262   -0.0813   -0.2102 C   0  0  0  0  0  0  0  0  0  0  0  0 
    3.2176   -1.2577   -0.0730 C   0  0  0  0  0  0  0  0  0  0  0  0 
    2.5200   -0.0501    0.0327 C   0  0  0  0  0  0  0  0  0  0  0  0 
    4.6129   -1.2896   -0.1939 C   0  0  0  0  0  0  0  0  0  0  0  0 
    5.3250   -2.5993   -0.3229 C   0  0  0  0  0  0  0  0  0  0  0  0 
    4.9356   -3.6298   -0.9585 N   0  0  0  0  0  0  0  0  0  0  0  0 
    6.5392   -2.6688    0.2985 O   0  0  0  0  0  0  0  0  0  0  0  0 
    0.5841    0.9036   -0.1466 H   0  0  0  0  0  0  0  0  0  0  0  0 
    0.7391   -0.1552    1.2589 H   0  0  0  0  0  0  0  0  0  0  0  0 
    0.5454   -0.8567   -0.3492 H   0  0  0  0  0  0  0  0  0  0  0  0 
    5.1932    2.0658   -0.1518 H   0  0  0  0  0  0  0  0  0  0  0  0 
    2.7285    2.0944    0.0763 H   0  0  0  0  0  0  0  0  0  0  0  0 
    6.4058   -0.0887   -0.3360 H   0  0  0  0  0  0  0  0  0  0  0  0 
    2.6699   -2.1969   -0.0419 H   0  0  0  0  0  0  0  0  0  0  0  0 
    4.0585   -3.4264   -1.4400 H   0  0  0  0  0  0  0  0  0  0  0  0 
    6.6095   -1.9328    0.9260 H   0  0  0  0  0  0  0  0  0  0  0  0 
  1 12  1  0  0  0  0 
  2  3  2  0  0  0  0 
  3  6  1  0  0  0  0 
  3 15  1  0  0  0  0 
  4  7  2  0  0  0  0 
  4  2  1  0  0  0  0 
  5 17  1  0  0  0  0 
  5  6  2  0  0  0  0 
  6  1  1  0  0  0  0 
  7  5  1  0  0  0  0 
  8  7  1  0  0  0  0 
  8 10  1  0  0  0  0 
  9  8  2  0  0  0  0 
 10 19  1  0  0  0  0 
 11  1  1  0  0  0  0 
 13  1  1  0  0  0  0 
 14  2  1  0  0  0  0 
 16  4  1  0  0  0  0 
 18  9  1  0  0  0  0 
M  END 
>  <HBA> 
2 
 
>  <HBD> 
1 
 
>  <TPSA> 
43.09 
 
>  <cid> 
69253 
 
>  <dipole> 
4.94 
 
>  <excitation_energy_1> 
4.949 
 
>  <excitation_energy_2> 
5.061 
 
>  <excitation_energy_3> 
5.342 
 
>  <excitation_energy_4> 
5.777 
 
>  <homo_energy> 
-6.762 
 
>  <homo_lumo_gap> 
5.777 
 
>  <logP> 
1.794 
 
>  <lumo_energy> 
-0.985 
 
>  <melting_point> 
97.96 
 
>  <molecular_refractivity> 
39.5 
 
>  <oscillator_strength_1> 
0.0018 
 
>  <oscillator_strength_2> 
0.0308 
 
>  <oscillator_strength_3> 
0.1203 
 
>  <oscillator_strength_4> 
0.0703 
 
>  <open_babel_can_smiles> 
Cc1cccc(c1)C(=N)O 
 
>  <mulliken_charges> 
19 
1   -0.529748 
2   -0.126479 
3   -0.17239 
4   -0.198154 
5   -0.226269 
6   0.172836 
7   0.073155 
8   0.420315 
9   -0.580663 
10   -0.576885 
11   0.161019 
12   0.172478 
13   0.164036 
14   0.139702 
15   0.131777 
16   0.144663 
17   0.138092 
18   0.286779 
19   0.405736 
 
>  <lowdin_charges> 
19 
1   -0.442239 
2   -0.148516 
3   -0.158354 
4   -0.170777 
5   -0.163573 
6   0.009022 
7   -0.046893 
8   0.12572 
9   -0.388526 
10   -0.364516 
11   0.160822 
12   0.164886 
13   0.163154 
14   0.163005 
15   0.159538 
16   0.161119 
17   0.162195 
18   0.258169 
19   0.355765 
 
$$$$ 
 
