PCCDB-ID:  26105 
public computational chemistry database (PCCDB) project, http://pccdb.org 
 
 25 25  0  0  1  0  0  0  0  0999 V2000 
    7.1267    0.5854   -3.6124 C   0  0  0  0  0  0  0  0  0  0  0  0 
    2.6291   -1.5008    2.3854 C   0  0  0  0  0  0  0  0  0  0  0  0 
    3.0508   -1.8406    1.1151 C   0  0  0  0  0  0  0  0  0  0  0  0 
    4.8110   -1.0276   -0.4701 C   0  0  0  0  0  0  0  0  0  0  0  0 
    4.9909    0.0617   -2.7422 C   0  0  0  0  0  0  0  0  0  0  0  0 
    4.2292    0.0466   -1.4154 C   0  0  2  0  0  0  0  0  0  0  0  0 
    4.2849   -0.2518    1.9441 C   0  0  0  0  0  0  0  0  0  0  0  0 
    3.4094   -0.5101    2.8930 N   0  0  0  0  0  0  0  0  0  0  0  0 
    4.1282   -1.0424    0.8288 N   0  0  0  0  0  0  0  0  0  0  0  0 
    5.3273    0.7318    2.1103 N   0  0  0  0  0  0  0  0  0  0  0  0 
    4.2165    1.3246   -0.8161 O   0  0  0  0  0  0  0  0  0  0  0  0 
    6.1817    0.8314    1.2122 O   0  0  0  0  0  0  0  0  0  0  0  0 
    5.3158    1.3991    3.1343 O   0  0  0  0  0  0  0  0  0  0  0  0 
    6.3365    0.3905   -2.4560 O   0  0  0  0  0  0  0  0  0  0  0  0 
    8.1331    0.8414   -3.2731 H   0  0  0  0  0  0  0  0  0  0  0  0 
    6.7356    1.4051   -4.2343 H   0  0  0  0  0  0  0  0  0  0  0  0 
    7.1752   -0.3272   -4.2270 H   0  0  0  0  0  0  0  0  0  0  0  0 
    1.8133   -1.9258    2.9537 H   0  0  0  0  0  0  0  0  0  0  0  0 
    2.6892   -2.5674    0.4020 H   0  0  0  0  0  0  0  0  0  0  0  0 
    5.8716   -0.8521   -0.3092 H   0  0  0  0  0  0  0  0  0  0  0  0 
    4.6800   -2.0223   -0.9074 H   0  0  0  0  0  0  0  0  0  0  0  0 
    4.5351    0.8174   -3.4006 H   0  0  0  0  0  0  0  0  0  0  0  0 
    4.9243   -0.9172   -3.2497 H   0  0  0  0  0  0  0  0  0  0  0  0 
    3.1795   -0.1934   -1.6244 H   0  0  0  0  0  0  0  0  0  0  0  0 
    5.1445    1.5582   -0.6369 H   0  0  0  0  0  0  0  0  0  0  0  0 
  1 15  1  0  0  0  0 
  1 14  1  0  0  0  0 
  2  8  1  0  0  0  0 
  2 18  1  0  0  0  0 
  3  2  2  0  0  0  0 
  4 20  1  0  0  0  0 
  4  9  1  0  0  0  0 
  5 14  1  0  0  0  0 
  5  6  1  0  0  0  0 
  6 24  1  6  0  0  0 
  6 11  1  0  0  0  0 
  6  4  1  0  0  0  0 
  7 10  1  0  0  0  0 
  7  8  2  0  0  0  0 
  9  3  1  0  0  0  0 
  9  7  1  0  0  0  0 
 10 13  2  0  0  0  0 
 11 25  1  0  0  0  0 
 12 10  2  0  0  0  0 
 16  1  1  0  0  0  0 
 17  1  1  0  0  0  0 
 19  3  1  0  0  0  0 
 21  4  1  0  0  0  0 
 22  5  1  0  0  0  0 
 23  5  1  0  0  0  0 
M  END 
>  <HBA> 
4 
 
>  <HBD> 
1 
 
>  <TPSA> 
93.1 
 
>  <cid> 
26105 
 
>  <dipole> 
7.32 
 
>  <excitation_energy_1> 
3.649 
 
>  <excitation_energy_2> 
4.124 
 
>  <excitation_energy_3> 
4.279 
 
>  <excitation_energy_4> 
4.375 
 
>  <homo_energy> 
-6.955 
 
>  <homo_lumo_gap> 
4.591 
 
>  <logP> 
0.322 
 
>  <lumo_energy> 
-2.365 
 
>  <melting_point> 
68.46 
 
>  <molecular_refractivity> 
48.98 
 
>  <oscillator_strength_1> 
0.0006 
 
>  <oscillator_strength_2> 
0.1807 
 
>  <oscillator_strength_3> 
0.0245 
 
>  <oscillator_strength_4> 
0.0063 
 
>  <open_babel_can_smiles> 
COC[C@@H](Cn1ccnc1N(=O)=O)O 
 
>  <mulliken_charges> 
25 
1   -0.195432 
2   -0.020533 
3   0.029181 
4   -0.190802 
5   -0.027133 
6   0.122505 
7   0.682515 
8   -0.425483 
9   -0.421032 
10   0.372473 
11   -0.628088 
12   -0.439872 
13   -0.360045 
14   -0.471062 
15   0.16979 
16   0.140819 
17   0.134872 
18   0.156035 
19   0.168255 
20   0.222766 
21   0.15592 
22   0.144121 
23   0.117067 
24   0.143461 
25   0.419702 
 
>  <lowdin_charges> 
25 
1   -0.278574 
2   -0.137766 
3   -0.142133 
4   -0.217495 
5   -0.147005 
6   -0.0129 
7   0.044529 
8   -0.133482 
9   0.024049 
10   0.310955 
11   -0.450728 
12   -0.283602 
13   -0.202159 
14   -0.274574 
15   0.160713 
16   0.139181 
17   0.135312 
18   0.173098 
19   0.176964 
20   0.186771 
21   0.159371 
22   0.144719 
23   0.127793 
24   0.148 
25   0.348961 
 
$$$$ 
 
