PCCDB-ID:  38232 
public computational chemistry database (PCCDB) project, http://pccdb.org 
 
 25 24  0  0  0  0  0  0  0  0999 V2000 
    0.9797    0.1838    0.8482 C   0  0  0  0  0  0  0  0  0  0  0  0 
    3.4192    0.5595    1.3031 C   0  0  0  0  0  0  0  0  0  0  0  0 
    2.6557   -1.5410    0.1383 C   0  0  0  0  0  0  0  0  0  0  0  0 
    2.5202   -0.2522   -4.3236 C   0  0  0  0  0  0  0  0  0  0  0  0 
    3.8321    0.4882   -1.8780 C   0  0  0  0  0  0  0  0  0  0  0  0 
    2.5881    0.7056   -1.0464 C   0  0  0  0  0  0  0  0  0  0  0  0 
    2.4012   -0.0253    0.2916 C   0  0  0  0  0  0  0  0  0  0  0  0 
    1.6792    1.5570   -1.3586 N   0  0  0  0  0  0  0  0  0  0  0  0 
    1.9675    2.2547   -2.5559 O   0  0  0  0  0  0  0  0  0  0  0  0 
    3.7346   -0.8853   -3.1135 S   0  0  0  0  0  0  0  0  0  0  0  0 
    0.8796   -0.3501    1.8004 H   0  0  0  0  0  0  0  0  0  0  0  0 
    0.2230   -0.2012    0.1573 H   0  0  0  0  0  0  0  0  0  0  0  0 
    0.7642    1.2415    1.0193 H   0  0  0  0  0  0  0  0  0  0  0  0 
    3.3125    0.0572    2.2718 H   0  0  0  0  0  0  0  0  0  0  0  0 
    3.2500    1.6313    1.4542 H   0  0  0  0  0  0  0  0  0  0  0  0 
    4.4559    0.4211    0.9752 H   0  0  0  0  0  0  0  0  0  0  0  0 
    2.5162   -2.0321    1.1088 H   0  0  0  0  0  0  0  0  0  0  0  0 
    3.6721   -1.7628   -0.2013 H   0  0  0  0  0  0  0  0  0  0  0  0 
    1.9628   -1.9930   -0.5779 H   0  0  0  0  0  0  0  0  0  0  0  0 
    2.4370   -1.0267   -5.0915 H   0  0  0  0  0  0  0  0  0  0  0  0 
    2.8624    0.6779   -4.7827 H   0  0  0  0  0  0  0  0  0  0  0  0 
    1.5426   -0.0943   -3.8638 H   0  0  0  0  0  0  0  0  0  0  0  0 
    4.6713    0.1971   -1.2411 H   0  0  0  0  0  0  0  0  0  0  0  0 
    4.1008    1.4096   -2.3977 H   0  0  0  0  0  0  0  0  0  0  0  0 
    1.2063    2.8517   -2.6204 H   0  0  0  0  0  0  0  0  0  0  0  0 
  1 13  1  0  0  0  0 
  1 11  1  0  0  0  0 
  2 15  1  0  0  0  0 
  2 14  1  0  0  0  0 
  3  7  1  0  0  0  0 
  3 17  1  0  0  0  0 
  4 22  1  0  0  0  0 
  4 10  1  0  0  0  0 
  5 23  1  0  0  0  0 
  5  6  1  0  0  0  0 
  6  7  1  0  0  0  0 
  7  1  1  0  0  0  0 
  7  2  1  0  0  0  0 
  8  6  2  0  0  0  0 
  9  8  1  0  0  0  0 
 10  5  1  0  0  0  0 
 12  1  1  0  0  0  0 
 16  2  1  0  0  0  0 
 18  3  1  0  0  0  0 
 19  3  1  0  0  0  0 
 20  4  1  0  0  0  0 
 21  4  1  0  0  0  0 
 24  5  1  0  0  0  0 
 25  9  1  0  0  0  0 
M  END 
>  <HBA> 
3 
 
>  <HBD> 
1 
 
>  <TPSA> 
57.89 
 
>  <cid> 
38232 
 
>  <dipole> 
1.33 
 
>  <excitation_energy_1> 
4.484 
 
>  <excitation_energy_2> 
5.305 
 
>  <excitation_energy_3> 
5.357 
 
>  <excitation_energy_4> 
5.867 
 
>  <homo_energy> 
-5.859 
 
>  <homo_lumo_gap> 
5.704 
 
>  <logP> 
2.226 
 
>  <lumo_energy> 
-0.155 
 
>  <melting_point> 
72.2 
 
>  <molecular_refractivity> 
47.51 
 
>  <oscillator_strength_1> 
0.0105 
 
>  <oscillator_strength_2> 
0.0094 
 
>  <oscillator_strength_3> 
0.0008 
 
>  <oscillator_strength_4> 
0.0028 
 
>  <open_babel_can_smiles> 
CSC/C(=N\O)/C(C)(C)C 
 
>  <mulliken_charges> 
25 
1   -0.433465 
2   -0.448451 
3   -0.440613 
4   -0.572554 
5   -0.503257 
6   0.358583 
7   0.025362 
8   -0.238576 
9   -0.517469 
10   0.091054 
11   0.131621 
12   0.147737 
13   0.155284 
14   0.147939 
15   0.152925 
16   0.141128 
17   0.138946 
18   0.147467 
19   0.16144 
20   0.175135 
21   0.18349 
22   0.187234 
23   0.184049 
24   0.20824 
25   0.41675 
 
>  <lowdin_charges> 
25 
1   -0.438909 
2   -0.437565 
3   -0.440233 
4   -0.543423 
5   -0.393394 
6   0.019454 
7   0.015229 
8   -0.074224 
9   -0.388976 
10   0.101834 
11   0.144874 
12   0.154565 
13   0.155255 
14   0.152324 
15   0.152174 
16   0.145243 
17   0.148328 
18   0.151053 
19   0.159797 
20   0.172311 
21   0.166157 
22   0.166925 
23   0.175508 
24   0.1803 
25   0.355392 
 
$$$$ 
 
