PCCDB-ID:  54387 
public computational chemistry database (PCCDB) project, http://pccdb.org 
 
 22 23  0  0  1  0  0  0  0  0999 V2000 
   -1.7617   -0.9587    0.1147 C   0  0  0  0  0  0  0  0  0  0  0  0 
   -0.5498   -1.8229   -0.1402 C   0  0  0  0  0  0  0  0  0  0  0  0 
   -1.6712    0.5172   -0.3047 C   0  0  0  0  0  0  0  0  0  0  0  0 
    0.7505   -1.5005   -0.1060 C   0  0  0  0  0  0  0  0  0  0  0  0 
   -0.7451    1.3763    0.5638 C   0  0  0  0  0  0  0  0  0  0  0  0 
    1.4212   -0.2026    0.1649 C   0  0  2  0  0  0  0  0  0  0  0  0 
    0.7509    1.1396    0.4334 C   0  0  1  0  0  0  0  0  0  0  0  0 
    1.4738    0.9050   -0.8744 C   0  0  1  0  0  0  0  0  0  0  0  0 
    2.7417    1.5089   -1.2279 N   0  0  0  0  0  0  0  0  0  0  0  0 
   -2.0244   -1.0031    1.1851 H   0  0  0  0  0  0  0  0  0  0  0  0 
   -2.6141   -1.4146   -0.4068 H   0  0  0  0  0  0  0  0  0  0  0  0 
   -0.7799   -2.8637   -0.3693 H   0  0  0  0  0  0  0  0  0  0  0  0 
   -2.6797    0.9478   -0.2447 H   0  0  0  0  0  0  0  0  0  0  0  0 
   -1.3775    0.5812   -1.3606 H   0  0  0  0  0  0  0  0  0  0  0  0 
    1.4553   -2.3058   -0.3189 H   0  0  0  0  0  0  0  0  0  0  0  0 
   -1.0338    1.2367    1.6168 H   0  0  0  0  0  0  0  0  0  0  0  0 
   -0.9355    2.4360    0.3379 H   0  0  0  0  0  0  0  0  0  0  0  0 
    2.3658   -0.3346    0.6959 H   0  0  0  0  0  0  0  0  0  0  0  0 
    1.3225    1.7540    1.1321 H   0  0  0  0  0  0  0  0  0  0  0  0 
    0.8524    0.7294   -1.7498 H   0  0  0  0  0  0  0  0  0  0  0  0 
    3.3432    1.5557   -0.4063 H   0  0  0  0  0  0  0  0  0  0  0  0 
    2.5917    2.4751   -1.5208 H   0  0  0  0  0  0  0  0  0  0  0  0 
  1 10  1  0  0  0  0 
  2  4  2  0  0  0  0 
  2  1  1  0  0  0  0 
  3 13  1  0  0  0  0 
  3  1  1  0  0  0  0 
  3  5  1  0  0  0  0 
  4  6  1  0  0  0  0 
  5 16  1  0  0  0  0 
  6  7  1  0  0  0  0 
  6 18  1  1  0  0  0 
  7  5  1  0  0  0  0 
  7 19  1  1  0  0  0 
  8 20  1  6  0  0  0 
  8  6  1  0  0  0  0 
  8  7  1  0  0  0  0 
  9  8  1  0  0  0  0 
  9 21  1  0  0  0  0 
 11  1  1  0  0  0  0 
 12  2  1  0  0  0  0 
 14  3  1  0  0  0  0 
 15  4  1  0  0  0  0 
 17  5  1  0  0  0  0 
 22  9  1  0  0  0  0 
M  END 
>  <HBA> 
1 
 
>  <HBD> 
1 
 
>  <TPSA> 
26.02 
 
>  <cid> 
54387 
 
>  <dipole> 
1.64 
 
>  <excitation_energy_1> 
5.134 
 
>  <excitation_energy_2> 
5.481 
 
>  <excitation_energy_3> 
5.568 
 
>  <excitation_energy_4> 
5.678 
 
>  <homo_energy> 
-5.704 
 
>  <homo_lumo_gap> 
6.482 
 
>  <logP> 
2.0 
 
>  <lumo_energy> 
0.778 
 
>  <melting_point> 
81.3 
 
>  <molecular_refractivity> 
38.58 
 
>  <oscillator_strength_1> 
0.0116 
 
>  <oscillator_strength_2> 
0.0445 
 
>  <oscillator_strength_3> 
0.0029 
 
>  <oscillator_strength_4> 
0.0339 
 
>  <open_babel_can_smiles> 
N[C@H]1[C@H]2[C@@H]1CCCC=C2 
 
>  <mulliken_charges> 
22 
1   -0.289093 
2   -0.129181 
3   -0.271412 
4   -0.097708 
5   -0.258084 
6   -0.169475 
7   -0.122469 
8   0.006712 
9   -0.710238 
10   0.144738 
11   0.135297 
12   0.11793 
13   0.130435 
14   0.139201 
15   0.120617 
16   0.131108 
17   0.130477 
18   0.132967 
19   0.120224 
20   0.150247 
21   0.291583 
22   0.296127 
 
>  <lowdin_charges> 
22 
1   -0.275509 
2   -0.18239 
3   -0.274613 
4   -0.168234 
5   -0.265339 
6   -0.164989 
7   -0.177358 
8   -0.095961 
9   -0.531446 
10   0.147755 
11   0.149092 
12   0.149106 
13   0.144699 
14   0.141044 
15   0.155188 
16   0.140496 
17   0.142521 
18   0.153943 
19   0.148311 
20   0.156077 
21   0.253017 
22   0.25459 
 
$$$$ 
 
