PCCDB-ID:  38756 
public computational chemistry database (PCCDB) project, http://pccdb.org 
 
 22 21  0  0  1  0  0  0  0  0999 V2000 
    1.4195    0.4321    0.7692 C   0  0  0  0  0  0  0  0  0  0  0  0 
    1.5333   -1.0991   -1.9651 C   0  0  0  0  0  0  0  0  0  0  0  0 
    2.5089    0.5716   -0.3004 C   0  0  0  0  0  0  0  0  0  0  0  0 
    4.5056   -1.7575   -2.7359 C   0  0  0  0  0  0  0  0  0  0  0  0 
    4.0118   -0.4956   -2.0254 C   0  0  0  0  0  0  0  0  0  0  0  0 
    5.7901   -1.5674   -3.5104 C   0  0  0  0  0  0  0  0  0  0  0  0 
    2.7664   -0.6983   -1.1390 C   0  0  2  0  0  0  0  0  0  0  0  0 
    6.4026   -0.5256   -3.5962 O   0  0  0  0  0  0  0  0  0  0  0  0 
    1.3550    1.3400    1.3795 H   0  0  0  0  0  0  0  0  0  0  0  0 
    1.6336   -0.4062    1.4442 H   0  0  0  0  0  0  0  0  0  0  0  0 
    0.4296    0.2622    0.3324 H   0  0  0  0  0  0  0  0  0  0  0  0 
    0.6560   -1.2622   -1.3308 H   0  0  0  0  0  0  0  0  0  0  0  0 
    1.6996   -2.0263   -2.5247 H   0  0  0  0  0  0  0  0  0  0  0  0 
    1.2805   -0.3134   -2.6895 H   0  0  0  0  0  0  0  0  0  0  0  0 
    3.4494    0.8579    0.1902 H   0  0  0  0  0  0  0  0  0  0  0  0 
    2.2557    1.4011   -0.9771 H   0  0  0  0  0  0  0  0  0  0  0  0 
    3.7638   -2.1553   -3.4452 H   0  0  0  0  0  0  0  0  0  0  0  0 
    4.6775   -2.5795   -2.0214 H   0  0  0  0  0  0  0  0  0  0  0  0 
    3.8087    0.2810   -2.7751 H   0  0  0  0  0  0  0  0  0  0  0  0 
    4.8340   -0.1053   -1.4129 H   0  0  0  0  0  0  0  0  0  0  0  0 
    6.1624   -2.4839   -4.0244 H   0  0  0  0  0  0  0  0  0  0  0  0 
    2.9846   -1.5185   -0.4352 H   0  0  0  0  0  0  0  0  0  0  0  0 
  1  9  1  0  0  0  0 
  1 10  1  0  0  0  0 
  2 12  1  0  0  0  0 
  2  7  1  0  0  0  0 
  3 15  1  0  0  0  0 
  3  1  1  0  0  0  0 
  4  5  1  0  0  0  0 
  4 18  1  0  0  0  0 
  5 20  1  0  0  0  0 
  5  7  1  0  0  0  0 
  6  4  1  0  0  0  0 
  7 22  1  1  0  0  0 
  7  3  1  0  0  0  0 
  8  6  2  0  0  0  0 
 11  1  1  0  0  0  0 
 13  2  1  0  0  0  0 
 14  2  1  0  0  0  0 
 16  3  1  0  0  0  0 
 17  4  1  0  0  0  0 
 19  5  1  0  0  0  0 
 21  6  1  0  0  0  0 
M  END 
>  <HBA> 
1 
 
>  <HBD> 
0 
 
>  <TPSA> 
17.07 
 
>  <cid> 
38756 
 
>  <dipole> 
2.52 
 
>  <excitation_energy_1> 
4.337 
 
>  <excitation_energy_2> 
6.453 
 
>  <excitation_energy_3> 
6.88 
 
>  <excitation_energy_4> 
7.029 
 
>  <homo_energy> 
-6.846 
 
>  <homo_lumo_gap> 
6.354 
 
>  <logP> 
2.012 
 
>  <lumo_energy> 
-0.493 
 
>  <melting_point> 
4.5 
 
>  <molecular_refractivity> 
35.96 
 
>  <oscillator_strength_1> 
0.0002 
 
>  <oscillator_strength_2> 
0.0251 
 
>  <oscillator_strength_3> 
0.0495 
 
>  <oscillator_strength_4> 
0.0047 
 
>  <open_babel_can_smiles> 
C[C@H](CC)CCC=O 
 
>  <mulliken_charges> 
22 
1   -0.449067 
2   -0.455171 
3   -0.247746 
4   -0.356993 
5   -0.248159 
6   0.253063 
7   -0.067822 
8   -0.382788 
9   0.14438 
10   0.140683 
11   0.145978 
12   0.148485 
13   0.139694 
14   0.141028 
15   0.131912 
16   0.130225 
17   0.163782 
18   0.159345 
19   0.14422 
20   0.148283 
21   0.102706 
22   0.113962 
 
>  <lowdin_charges> 
22 
1   -0.447156 
2   -0.450581 
3   -0.27421 
4   -0.317139 
5   -0.274714 
6   0.056462 
7   -0.12458 
8   -0.220293 
9   0.151732 
10   0.146535 
11   0.146944 
12   0.152153 
13   0.146269 
14   0.147495 
15   0.142172 
16   0.140504 
17   0.165232 
18   0.163141 
19   0.149876 
20   0.153155 
21   0.114735 
22   0.132268 
 
$$$$ 
 
