PCCDB-ID:  23641 
public computational chemistry database (PCCDB) project, http://pccdb.org 
 
 30 31  0  0  0  0  0  0  0  0999 V2000 
    2.4825    1.2977   -0.9702 C   0  0  0  0  0  0  0  0  0  0  0  0 
    5.1187   -3.0389    1.2929 C   0  0  0  0  0  0  0  0  0  0  0  0 
    2.2011   -0.0278   -0.2643 C   0  0  0  0  0  0  0  0  0  0  0  0 
    6.3435   -4.8705   -3.2290 C   0  0  0  0  0  0  0  0  0  0  0  0 
    6.9239   -3.6698   -2.8191 C   0  0  0  0  0  0  0  0  0  0  0  0 
    5.1678   -5.3053   -2.6158 C   0  0  0  0  0  0  0  0  0  0  0  0 
    6.3302   -2.9108   -1.8095 C   0  0  0  0  0  0  0  0  0  0  0  0 
    4.5784   -4.5422   -1.6072 C   0  0  0  0  0  0  0  0  0  0  0  0 
    2.9809   -2.4059   -0.0848 C   0  0  0  0  0  0  0  0  0  0  0  0 
    4.5280   -0.9905   -0.2284 C   0  0  0  0  0  0  0  0  0  0  0  0 
    5.1418   -3.3268   -1.1933 C   0  0  0  0  0  0  0  0  0  0  0  0 
    4.5363   -2.5399   -0.0367 C   0  0  0  0  0  0  0  0  0  0  0  0 
    3.1262   -1.0667   -0.6801 N   0  0  0  0  0  0  0  0  0  0  0  0 
    1.7623    2.0629   -0.6597 H   0  0  0  0  0  0  0  0  0  0  0  0 
    2.4179    1.1752   -2.0563 H   0  0  0  0  0  0  0  0  0  0  0  0 
    3.4861    1.6687   -0.7308 H   0  0  0  0  0  0  0  0  0  0  0  0 
    4.6941   -2.4925    2.1428 H   0  0  0  0  0  0  0  0  0  0  0  0 
    6.2075   -2.9111    1.3133 H   0  0  0  0  0  0  0  0  0  0  0  0 
    4.9099   -4.1061    1.4335 H   0  0  0  0  0  0  0  0  0  0  0  0 
    1.1868   -0.3695   -0.5093 H   0  0  0  0  0  0  0  0  0  0  0  0 
    2.2286    0.1227    0.8360 H   0  0  0  0  0  0  0  0  0  0  0  0 
    6.8032   -5.4619   -4.0163 H   0  0  0  0  0  0  0  0  0  0  0  0 
    7.8423   -3.3209   -3.2846 H   0  0  0  0  0  0  0  0  0  0  0  0 
    4.7067   -6.2410   -2.9216 H   0  0  0  0  0  0  0  0  0  0  0  0 
    6.8012   -1.9818   -1.4995 H   0  0  0  0  0  0  0  0  0  0  0  0 
    3.6660   -4.8998   -1.1372 H   0  0  0  0  0  0  0  0  0  0  0  0 
    2.5482   -2.3891    0.9316 H   0  0  0  0  0  0  0  0  0  0  0  0 
    2.4116   -3.1159   -0.6958 H   0  0  0  0  0  0  0  0  0  0  0  0 
    5.2214   -0.5494   -0.9529 H   0  0  0  0  0  0  0  0  0  0  0  0 
    4.6460   -0.4664    0.7373 H   0  0  0  0  0  0  0  0  0  0  0  0 
  1 16  1  0  0  0  0 
  1 14  1  0  0  0  0 
  1  3  1  0  0  0  0 
  2 18  1  0  0  0  0 
  2 19  1  0  0  0  0 
  2 17  1  0  0  0  0 
  3 21  1  0  0  0  0 
  4  5  2  0  0  0  0 
  4  6  1  0  0  0  0 
  5  7  1  0  0  0  0 
  6  8  2  0  0  0  0 
  7 25  1  0  0  0  0 
  7 11  2  0  0  0  0 
  8 11  1  0  0  0  0 
  8 26  1  0  0  0  0 
  9 12  1  0  0  0  0 
  9 27  1  0  0  0  0 
 10 12  1  0  0  0  0 
 10 30  1  0  0  0  0 
 11 12  1  0  0  0  0 
 12  2  1  0  0  0  0 
 13  3  1  0  0  0  0 
 13 10  1  0  0  0  0 
 13  9  1  0  0  0  0 
 15  1  1  0  0  0  0 
 20  3  1  0  0  0  0 
 22  4  1  0  0  0  0 
 23  5  1  0  0  0  0 
 24  6  1  0  0  0  0 
 28  9  1  0  0  0  0 
 29 10  1  0  0  0  0 
M  END 
>  <HBA> 
1 
 
>  <HBD> 
0 
 
>  <TPSA> 
3.24 
 
>  <cid> 
23641 
 
>  <dipole> 
0.88 
 
>  <excitation_energy_1> 
4.974 
 
>  <excitation_energy_2> 
5.004 
 
>  <excitation_energy_3> 
5.309 
 
>  <excitation_energy_4> 
5.32 
 
>  <homo_energy> 
-5.682 
 
>  <homo_lumo_gap> 
5.802 
 
>  <logP> 
2.218 
 
>  <lumo_energy> 
0.12 
 
>  <melting_point> 
35.99 
 
>  <molecular_refractivity> 
60.02 
 
>  <oscillator_strength_1> 
0.0259 
 
>  <oscillator_strength_2> 
0.0006 
 
>  <oscillator_strength_3> 
0.0248 
 
>  <oscillator_strength_4> 
0.0005 
 
>  <open_babel_can_smiles> 
CCN1CC(C1)(C)c1ccccc1 
 
>  <mulliken_charges> 
30 
1   -0.447189 
2   -0.452743 
3   -0.112998 
4   -0.129559 
5   -0.130307 
6   -0.130235 
7   -0.180923 
8   -0.180402 
9   -0.122694 
10   -0.12781 
11   0.166013 
12   -0.028931 
13   -0.385966 
14   0.141413 
15   0.157658 
16   0.146451 
17   0.140742 
18   0.150215 
19   0.150208 
20   0.138521 
21   0.102246 
22   0.126414 
23   0.126852 
24   0.126846 
25   0.123341 
26   0.123513 
27   0.112519 
28   0.1415 
29   0.142951 
30   0.112353 
 
>  <lowdin_charges> 
30 
1   -0.446855 
2   -0.437536 
3   -0.196395 
4   -0.162607 
5   -0.154828 
6   -0.15484 
7   -0.167468 
8   -0.167351 
9   -0.201248 
10   -0.204127 
11   0.005073 
12   0.009212 
13   -0.190135 
14   0.152186 
15   0.153993 
16   0.148267 
17   0.147415 
18   0.151582 
19   0.151919 
20   0.142652 
21   0.108319 
22   0.157416 
23   0.156329 
24   0.156212 
25   0.1544 
26   0.1545 
27   0.123215 
28   0.143509 
29   0.143664 
30   0.123529 
 
$$$$ 
 
