PCCDB-ID:  10560 
public computational chemistry database (PCCDB) project, http://pccdb.org 
 
 15 14  0  0  1  0  0  0  0  0999 V2000 
    2.8717    0.8008   -1.2752 C   0  0  0  0  0  0  0  0  0  0  0  0 
    2.5608   -0.0787    2.5431 C   0  0  0  0  0  0  0  0  0  0  0  0 
    2.5555    0.0127   -0.0022 C   0  0  0  0  0  0  0  0  0  0  0  0 
    3.1048    0.6252    1.2969 C   0  0  2  0  0  0  0  0  0  0  0  0 
    4.9614    0.7115    1.3308 S   0  0  0  0  0  0  0  0  0  0  0  0 
    2.4298    0.3144   -2.1519 H   0  0  0  0  0  0  0  0  0  0  0  0 
    3.9514    0.8796   -1.4350 H   0  0  0  0  0  0  0  0  0  0  0  0 
    2.4662    1.8187   -1.2190 H   0  0  0  0  0  0  0  0  0  0  0  0 
    1.4643   -0.0323    2.5585 H   0  0  0  0  0  0  0  0  0  0  0  0 
    2.9403    0.3833    3.4588 H   0  0  0  0  0  0  0  0  0  0  0  0 
    2.8485   -1.1372    2.5524 H   0  0  0  0  0  0  0  0  0  0  0  0 
    2.9280   -1.0173   -0.0948 H   0  0  0  0  0  0  0  0  0  0  0  0 
    1.4642   -0.0685    0.1110 H   0  0  0  0  0  0  0  0  0  0  0  0 
    2.8234    1.6856    1.3343 H   0  0  0  0  0  0  0  0  0  0  0  0 
    5.1709   -0.6243    1.3680 H   0  0  0  0  0  0  0  0  0  0  0  0 
  1  8  1  0  0  0  0 
  1  3  1  0  0  0  0 
  2 11  1  0  0  0  0 
  2  9  1  0  0  0  0 
  2 10  1  0  0  0  0 
  3 13  1  0  0  0  0 
  3  4  1  0  0  0  0 
  4  5  1  0  0  0  0 
  4 14  1  1  0  0  0 
  4  2  1  0  0  0  0 
  5 15  1  0  0  0  0 
  6  1  1  0  0  0  0 
  7  1  1  0  0  0  0 
 12  3  1  0  0  0  0 
M  END 
>  <HBA> 
1 
 
>  <HBD> 
1 
 
>  <TPSA> 
38.8 
 
>  <cid> 
10560 
 
>  <dipole> 
1.82 
 
>  <excitation_energy_1> 
5.331 
 
>  <excitation_energy_2> 
5.829 
 
>  <excitation_energy_3> 
6.224 
 
>  <excitation_energy_4> 
6.455 
 
>  <homo_energy> 
-6.338 
 
>  <homo_lumo_gap> 
7.124 
 
>  <logP> 
1.715 
 
>  <lumo_energy> 
0.786 
 
>  <melting_point> 
-4.98 
 
>  <molecular_refractivity> 
29.27 
 
>  <oscillator_strength_1> 
0.0119 
 
>  <oscillator_strength_2> 
0.0402 
 
>  <oscillator_strength_3> 
0.0021 
 
>  <oscillator_strength_4> 
0.0014 
 
>  <open_babel_can_smiles> 
CC[C@H](S)C 
 
>  <mulliken_charges> 
15 
1   -0.446715 
2   -0.434003 
3   -0.235433 
4   -0.233788 
5   -0.093912 
6   0.142807 
7   0.172759 
8   0.140178 
9   0.147593 
10   0.165932 
11   0.145868 
12   0.135059 
13   0.137732 
14   0.167538 
15   0.088385 
 
>  <lowdin_charges> 
15 
1   -0.446034 
2   -0.443243 
3   -0.272334 
4   -0.20958 
5   -0.095196 
6   0.15156 
7   0.160135 
8   0.14568 
9   0.149221 
10   0.162327 
11   0.148491 
12   0.141322 
13   0.14284 
14   0.15788 
15   0.106932 
 
$$$$ 
 
