PCCDB-ID:  7078 
public computational chemistry database (PCCDB) project, http://pccdb.org 
 
 28 28  0  0  0  0  0  0  0  0999 V2000 
    5.0492   -1.7777    1.2983 C   0  0  0  0  0  0  0  0  0  0  0  0 
   -1.1640   -3.2953    1.3976 C   0  0  0  0  0  0  0  0  0  0  0  0 
   -0.6145    1.2594   -0.4690 C   0  0  0  0  0  0  0  0  0  0  0  0 
   -0.8843    0.2484   -1.3939 C   0  0  0  0  0  0  0  0  0  0  0  0 
   -0.1886    0.9380    0.8186 C   0  0  0  0  0  0  0  0  0  0  0  0 
   -0.7300   -1.0858   -1.0157 C   0  0  0  0  0  0  0  0  0  0  0  0 
    2.5240   -1.6958    1.8105 C   0  0  0  0  0  0  0  0  0  0  0  0 
    3.9425   -1.8936    2.3188 C   0  0  0  0  0  0  0  0  0  0  0  0 
    0.0003   -0.3978    1.2101 C   0  0  0  0  0  0  0  0  0  0  0  0 
   -0.2936   -1.4103    0.2685 C   0  0  0  0  0  0  0  0  0  0  0  0 
    1.4548   -1.2833    2.8231 C   0  0  0  0  0  0  0  0  0  0  0  0 
    0.3665   -0.6876    2.5310 N   0  0  0  0  0  0  0  0  0  0  0  0 
    4.1866   -2.1635    3.4892 O   0  0  0  0  0  0  0  0  0  0  0  0 
    1.6735   -1.6047    4.1065 O   0  0  0  0  0  0  0  0  0  0  0  0 
   -0.1110   -2.7441    0.5968 O   0  0  0  0  0  0  0  0  0  0  0  0 
    4.8189   -2.3712    0.4056 H   0  0  0  0  0  0  0  0  0  0  0  0 
    5.9961   -2.1025    1.7335 H   0  0  0  0  0  0  0  0  0  0  0  0 
    5.1373   -0.7335    0.9716 H   0  0  0  0  0  0  0  0  0  0  0  0 
   -0.8861   -4.3325    1.6006 H   0  0  0  0  0  0  0  0  0  0  0  0 
   -2.1162   -3.2729    0.8521 H   0  0  0  0  0  0  0  0  0  0  0  0 
   -1.2704   -2.7495    2.3417 H   0  0  0  0  0  0  0  0  0  0  0  0 
   -0.7385    2.3023   -0.7481 H   0  0  0  0  0  0  0  0  0  0  0  0 
   -1.2217    0.4939   -2.3968 H   0  0  0  0  0  0  0  0  0  0  0  0 
    0.0104    1.7156    1.5504 H   0  0  0  0  0  0  0  0  0  0  0  0 
   -0.9318   -1.8975   -1.7090 H   0  0  0  0  0  0  0  0  0  0  0  0 
    2.2017   -2.6544    1.3734 H   0  0  0  0  0  0  0  0  0  0  0  0 
    2.5180   -0.9930    0.9716 H   0  0  0  0  0  0  0  0  0  0  0  0 
    2.5986   -1.9366    4.1911 H   0  0  0  0  0  0  0  0  0  0  0  0 
  1 17  1  0  0  0  0 
  1  8  1  0  0  0  0 
  2 19  1  0  0  0  0 
  2 21  1  0  0  0  0 
  3  5  2  0  0  0  0 
  4  6  2  0  0  0  0 
  4  3  1  0  0  0  0 
  5  9  1  0  0  0  0 
  5 24  1  0  0  0  0 
  6 10  1  0  0  0  0 
  7  8  1  0  0  0  0 
  7 11  1  0  0  0  0 
  8 13  2  0  0  0  0 
  9 12  1  0  0  0  0 
 10 15  1  0  0  0  0 
 10  9  2  0  0  0  0 
 11 14  1  0  0  0  0 
 12 11  2  0  0  0  0 
 14 28  1  0  0  0  0 
 15  2  1  0  0  0  0 
 16  1  1  0  0  0  0 
 18  1  1  0  0  0  0 
 20  2  1  0  0  0  0 
 22  3  1  0  0  0  0 
 23  4  1  0  0  0  0 
 25  6  1  0  0  0  0 
 26  7  1  0  0  0  0 
 27  7  1  0  0  0  0 
M  END 
>  <HBA> 
4 
 
>  <HBD> 
1 
 
>  <TPSA> 
55.4 
 
>  <cid> 
7078 
 
>  <dipole> 
3.98 
 
>  <excitation_energy_1> 
3.793 
 
>  <excitation_energy_2> 
4.521 
 
>  <excitation_energy_3> 
4.628 
 
>  <excitation_energy_4> 
4.68 
 
>  <homo_energy> 
-5.701 
 
>  <homo_lumo_gap> 
4.438 
 
>  <logP> 
1.686 
 
>  <lumo_energy> 
-1.263 
 
>  <melting_point> 
84.77 
 
>  <molecular_refractivity> 
57.06 
 
>  <oscillator_strength_1> 
0.0019 
 
>  <oscillator_strength_2> 
0.0003 
 
>  <oscillator_strength_3> 
0.0756 
 
>  <oscillator_strength_4> 
0.0105 
 
>  <open_babel_can_smiles> 
COc1ccccc1/N=C(\CC(=O)C)/O 
 
>  <mulliken_charges> 
28 
1   -0.531627 
2   -0.217963 
3   -0.133393 
4   -0.145032 
5   -0.172524 
6   -0.16843 
7   -0.47035 
8   0.468421 
9   0.207371 
10   0.313223 
11   0.510018 
12   -0.489463 
13   -0.461281 
14   -0.595719 
15   -0.543627 
16   0.182978 
17   0.191449 
18   0.189477 
19   0.154868 
20   0.144535 
21   0.176359 
22   0.126932 
23   0.126467 
24   0.135076 
25   0.131906 
26   0.236884 
27   0.194172 
28   0.439274 
 
>  <lowdin_charges> 
28 
1   -0.465463 
2   -0.27504 
3   -0.15945 
4   -0.168783 
5   -0.174379 
6   -0.176281 
7   -0.348594 
8   0.182639 
9   0.021959 
10   0.059839 
11   0.151193 
12   -0.187941 
13   -0.24507 
14   -0.355661 
15   -0.245465 
16   0.177962 
17   0.179405 
18   0.181593 
19   0.152678 
20   0.141795 
21   0.156649 
22   0.156186 
23   0.156317 
24   0.164771 
25   0.164299 
26   0.208844 
27   0.185788 
28   0.360211 
 
$$$$ 
 
