PCCDB-ID:  41439 
public computational chemistry database (PCCDB) project, http://pccdb.org 
 
 25 24  0  0  0  0  0  0  0  0999 V2000 
    1.5133   -0.0215    2.6277 C   0  0  0  0  0  0  0  0  0  0  0  0 
    2.5032   -0.8927    2.4289 C   0  0  0  0  0  0  0  0  0  0  0  0 
    3.3576   -0.9354    1.1825 C   0  0  0  0  0  0  0  0  0  0  0  0 
    5.1614    0.5239    2.0253 C   0  0  0  0  0  0  0  0  0  0  0  0 
    5.4712   -1.9288    1.9750 C   0  0  0  0  0  0  0  0  0  0  0  0 
    6.5168    1.0039    1.4952 C   0  0  0  0  0  0  0  0  0  0  0  0 
    5.8950   -2.9403    0.9017 C   0  0  0  0  0  0  0  0  0  0  0  0 
    4.8059   -0.7564    1.3943 N   0  0  0  0  0  0  0  0  0  0  0  0 
    6.5180    1.0227    0.0811 O   0  0  0  0  0  0  0  0  0  0  0  0 
    6.4637   -4.1132    1.4687 O   0  0  0  0  0  0  0  0  0  0  0  0 
    0.9154   -0.0257    3.5353 H   0  0  0  0  0  0  0  0  0  0  0  0 
    1.2552    0.7284    1.8817 H   0  0  0  0  0  0  0  0  0  0  0  0 
    2.7239   -1.6307    3.2005 H   0  0  0  0  0  0  0  0  0  0  0  0 
    3.0187   -0.1597    0.4852 H   0  0  0  0  0  0  0  0  0  0  0  0 
    3.2196   -1.8978    0.6726 H   0  0  0  0  0  0  0  0  0  0  0  0 
    4.4005    1.2560    1.7363 H   0  0  0  0  0  0  0  0  0  0  0  0 
    5.1651    0.4755    3.1273 H   0  0  0  0  0  0  0  0  0  0  0  0 
    6.3700   -1.5918    2.5062 H   0  0  0  0  0  0  0  0  0  0  0  0 
    4.8474   -2.4459    2.7213 H   0  0  0  0  0  0  0  0  0  0  0  0 
    7.3295    0.3662    1.8870 H   0  0  0  0  0  0  0  0  0  0  0  0 
    6.7131    2.0237    1.8450 H   0  0  0  0  0  0  0  0  0  0  0  0 
    6.5797   -2.4518    0.1910 H   0  0  0  0  0  0  0  0  0  0  0  0 
    5.0252   -3.2817    0.3314 H   0  0  0  0  0  0  0  0  0  0  0  0 
    6.0161    0.2209   -0.1624 H   0  0  0  0  0  0  0  0  0  0  0  0 
    7.3099   -3.8652    1.8723 H   0  0  0  0  0  0  0  0  0  0  0  0 
  1 11  1  0  0  0  0 
  2  1  2  0  0  0  0 
  2 13  1  0  0  0  0 
  3  8  1  0  0  0  0 
  3  2  1  0  0  0  0 
  4 17  1  0  0  0  0 
  5 18  1  0  0  0  0 
  5 19  1  0  0  0  0 
  6 21  1  0  0  0  0 
  6 20  1  0  0  0  0 
  6  4  1  0  0  0  0 
  7 10  1  0  0  0  0 
  7  5  1  0  0  0  0 
  8  5  1  0  0  0  0 
  8  4  1  0  0  0  0 
  9  6  1  0  0  0  0 
 10 25  1  0  0  0  0 
 12  1  1  0  0  0  0 
 14  3  1  0  0  0  0 
 15  3  1  0  0  0  0 
 16  4  1  0  0  0  0 
 22  7  1  0  0  0  0 
 23  7  1  0  0  0  0 
 24  9  1  0  0  0  0 
M  END 
>  <HBA> 
3 
 
>  <HBD> 
2 
 
>  <TPSA> 
43.7 
 
>  <cid> 
41439 
 
>  <dipole> 
2.03 
 
>  <excitation_energy_1> 
5.131 
 
>  <excitation_energy_2> 
5.431 
 
>  <excitation_energy_3> 
5.845 
 
>  <excitation_energy_4> 
5.887 
 
>  <homo_energy> 
-6.114 
 
>  <homo_lumo_gap> 
6.335 
 
>  <logP> 
-0.541 
 
>  <lumo_energy> 
0.22 
 
>  <melting_point> 
-7.95 
 
>  <molecular_refractivity> 
40.51 
 
>  <oscillator_strength_1> 
0.025 
 
>  <oscillator_strength_2> 
0.0163 
 
>  <oscillator_strength_3> 
0.0029 
 
>  <oscillator_strength_4> 
0.0393 
 
>  <open_babel_can_smiles> 
OCCN(CC=C)CCO 
 
>  <mulliken_charges> 
25 
1   -0.337672 
2   -0.049868 
3   -0.196726 
4   -0.152842 
5   -0.156818 
6   -0.016843 
7   -0.033758 
8   -0.413463 
9   -0.629184 
10   -0.611914 
11   0.145349 
12   0.140552 
13   0.134005 
14   0.1522 
15   0.154787 
16   0.15317 
17   0.126576 
18   0.133494 
19   0.143044 
20   0.110337 
21   0.140962 
22   0.130647 
23   0.150307 
24   0.393723 
25   0.389937 
 
>  <lowdin_charges> 
25 
1   -0.332448 
2   -0.165874 
3   -0.201882 
4   -0.218251 
5   -0.225273 
6   -0.140757 
7   -0.146585 
8   -0.190703 
9   -0.47807 
10   -0.463106 
11   0.161098 
12   0.156425 
13   0.153564 
14   0.152454 
15   0.152696 
16   0.154979 
17   0.130632 
18   0.143386 
19   0.13817 
20   0.118923 
21   0.145682 
22   0.132099 
23   0.147718 
24   0.332398 
25   0.342726 
 
$$$$ 
 
