PCCDB-ID:  51850 
public computational chemistry database (PCCDB) project, http://pccdb.org 
 
 25 25  0  0  0  0  0  0  0  0999 V2000 
   -1.7745    0.0455   -0.6556 C   0  0  0  0  0  0  0  0  0  0  0  0 
   -1.4471   -0.5211    0.5769 C   0  0  0  0  0  0  0  0  0  0  0  0 
   -0.7603    0.5127   -1.4944 C   0  0  0  0  0  0  0  0  0  0  0  0 
   -0.1106   -0.6190    0.9685 C   0  0  0  0  0  0  0  0  0  0  0  0 
    0.5742    0.4138   -1.1011 C   0  0  0  0  0  0  0  0  0  0  0  0 
    2.3636   -0.2726    0.5547 C   0  0  0  0  0  0  0  0  0  0  0  0 
    5.2943   -3.2556   -0.0110 C   0  0  0  0  0  0  0  0  0  0  0  0 
    0.9151   -0.1508    0.1362 C   0  0  0  0  0  0  0  0  0  0  0  0 
    3.0573   -1.5348    0.0408 C   0  0  0  0  0  0  0  0  0  0  0  0 
    5.4679   -3.6168   -1.4935 C   0  0  0  0  0  0  0  0  0  0  0  0 
    2.5018   -2.5323   -0.5310 N   0  0  0  0  0  0  0  0  0  0  0  0 
    6.5548   -3.8658   -1.9607 O   0  0  0  0  0  0  0  0  0  0  0  0 
    4.3430   -3.6671   -2.2137 O   0  0  0  0  0  0  0  0  0  0  0  0 
    4.8110   -1.5117    0.3289 S   0  0  0  0  0  0  0  0  0  0  0  0 
   -2.8142    0.1249   -0.9606 H   0  0  0  0  0  0  0  0  0  0  0  0 
   -2.2304   -0.8838    1.2368 H   0  0  0  0  0  0  0  0  0  0  0  0 
   -1.0078    0.9572   -2.4544 H   0  0  0  0  0  0  0  0  0  0  0  0 
    0.1385   -1.0534    1.9342 H   0  0  0  0  0  0  0  0  0  0  0  0 
    1.3594    0.7825   -1.7571 H   0  0  0  0  0  0  0  0  0  0  0  0 
    2.4500   -0.2706    1.6484 H   0  0  0  0  0  0  0  0  0  0  0  0 
    2.9403    0.5939    0.2063 H   0  0  0  0  0  0  0  0  0  0  0  0 
    6.2598   -3.3798    0.4809 H   0  0  0  0  0  0  0  0  0  0  0  0 
    4.5507   -3.9017    0.4662 H   0  0  0  0  0  0  0  0  0  0  0  0 
    1.4904   -2.4021   -0.6176 H   0  0  0  0  0  0  0  0  0  0  0  0 
    3.5634   -3.4077   -1.6469 H   0  0  0  0  0  0  0  0  0  0  0  0 
  1  2  2  0  0  0  0 
  2  4  1  0  0  0  0 
  2 16  1  0  0  0  0 
  3  5  2  0  0  0  0 
  3  1  1  0  0  0  0 
  4 18  1  0  0  0  0 
  5  8  1  0  0  0  0 
  6 20  1  0  0  0  0 
  7 14  1  0  0  0  0 
  7 23  1  0  0  0  0 
  7 22  1  0  0  0  0 
  8  6  1  0  0  0  0 
  8  4  2  0  0  0  0 
  9 14  1  0  0  0  0 
  9  6  1  0  0  0  0 
 10  7  1  0  0  0  0 
 11  9  2  0  0  0  0 
 12 10  2  0  0  0  0 
 13 25  1  0  0  0  0 
 13 10  1  0  0  0  0 
 15  1  1  0  0  0  0 
 17  3  1  0  0  0  0 
 19  5  1  0  0  0  0 
 21  6  1  0  0  0  0 
 24 11  1  0  0  0  0 
M  END 
>  <HBA> 
4 
 
>  <HBD> 
2 
 
>  <TPSA> 
86.45 
 
>  <cid> 
51850 
 
>  <dipole> 
7.3 
 
>  <excitation_energy_1> 
5.09 
 
>  <excitation_energy_2> 
5.246 
 
>  <excitation_energy_3> 
5.3 
 
>  <excitation_energy_4> 
5.414 
 
>  <homo_energy> 
-6.702 
 
>  <homo_lumo_gap> 
5.856 
 
>  <logP> 
2.124 
 
>  <lumo_energy> 
-0.846 
 
>  <melting_point> 
122.59 
 
>  <molecular_refractivity> 
58.78 
 
>  <oscillator_strength_1> 
0.012 
 
>  <oscillator_strength_2> 
0.0618 
 
>  <oscillator_strength_3> 
0.0079 
 
>  <oscillator_strength_4> 
0.0032 
 
>  <open_babel_can_smiles> 
N=C(Cc1ccccc1)SCC(=O)O 
 
>  <mulliken_charges> 
25 
1   -0.126596 
2   -0.126493 
3   -0.127518 
4   -0.177186 
5   -0.1669 
6   -0.423157 
7   -0.543847 
8   0.124709 
9   0.167845 
10   0.597549 
11   -0.635974 
12   -0.444352 
13   -0.584551 
14   0.176559 
15   0.140765 
16   0.140755 
17   0.142688 
18   0.135815 
19   0.141316 
20   0.193788 
21   0.191729 
22   0.215611 
23   0.209742 
24   0.325469 
25   0.452233 
 
>  <lowdin_charges> 
25 
1   -0.149113 
2   -0.152621 
3   -0.148095 
4   -0.165881 
5   -0.161526 
6   -0.291345 
7   -0.416631 
8   -0.018404 
9   -0.035792 
10   0.184001 
11   -0.398471 
12   -0.253193 
13   -0.36625 
14   0.192456 
15   0.162094 
16   0.164384 
17   0.163736 
18   0.159286 
19   0.163821 
20   0.177864 
21   0.180476 
22   0.194602 
23   0.186318 
24   0.27358 
25   0.354706 
 
$$$$ 
 
