PCCDB-ID:  53674 
public computational chemistry database (PCCDB) project, http://pccdb.org 
 
 30 32  0  0  0  0  0  0  0  0999 V2000 
    2.1193   -0.4016    1.2887 C   0  0  0  0  0  0  0  0  0  0  0  0 
    5.9490   -5.7984   -8.2025 C   0  0  0  0  0  0  0  0  0  0  0  0 
    4.3177   -5.1244   -4.3759 C   0  0  0  0  0  0  0  0  0  0  0  0 
    4.8503   -5.3836   -5.6172 C   0  0  0  0  0  0  0  0  0  0  0  0 
    4.5131   -1.3764   -4.2618 C   0  0  0  0  0  0  0  0  0  0  0  0 
    5.1746   -3.0095   -5.9963 C   0  0  0  0  0  0  0  0  0  0  0  0 
    3.6346   -3.5416   -2.5971 C   0  0  0  0  0  0  0  0  0  0  0  0 
    3.7004    0.0379   -2.2210 C   0  0  0  0  0  0  0  0  0  0  0  0 
    2.6848    0.3750    0.1175 C   0  0  0  0  0  0  0  0  0  0  0  0 
    4.1846   -3.8009   -3.8785 C   0  0  0  0  0  0  0  0  0  0  0  0 
    4.6289   -2.7113   -4.7202 C   0  0  0  0  0  0  0  0  0  0  0  0 
    3.9727   -1.1338   -3.0085 C   0  0  0  0  0  0  0  0  0  0  0  0 
    5.2867   -4.3098   -6.4430 C   0  0  0  0  0  0  0  0  0  0  0  0 
    3.1538   -0.3958   -1.0506 C   0  0  0  0  0  0  0  0  0  0  0  0 
    3.5451   -2.2317   -2.2036 C   0  0  0  0  0  0  0  0  0  0  0  0 
    2.7660    1.5948    0.1073 O   0  0  0  0  0  0  0  0  0  0  0  0 
    5.8273   -4.4828   -7.6863 O   0  0  0  0  0  0  0  0  0  0  0  0 
    3.0464   -1.7761   -1.0095 O   0  0  0  0  0  0  0  0  0  0  0  0 
    1.2706   -1.0182    0.9706 H   0  0  0  0  0  0  0  0  0  0  0  0 
    1.8014    0.3012    2.0608 H   0  0  0  0  0  0  0  0  0  0  0  0 
    2.8727   -1.0864    1.6954 H   0  0  0  0  0  0  0  0  0  0  0  0 
    6.3875   -5.6876   -9.1960 H   0  0  0  0  0  0  0  0  0  0  0  0 
    4.9727   -6.2926   -8.2936 H   0  0  0  0  0  0  0  0  0  0  0  0 
    6.6117   -6.4192   -7.5849 H   0  0  0  0  0  0  0  0  0  0  0  0 
    3.9865   -5.9507   -3.7517 H   0  0  0  0  0  0  0  0  0  0  0  0 
    4.9344   -6.4092   -5.9578 H   0  0  0  0  0  0  0  0  0  0  0  0 
    4.8469   -0.5601   -4.8962 H   0  0  0  0  0  0  0  0  0  0  0  0 
    5.5127   -2.2042   -6.6416 H   0  0  0  0  0  0  0  0  0  0  0  0 
    3.2999   -4.3537   -1.9593 H   0  0  0  0  0  0  0  0  0  0  0  0 
    3.8791    1.0733   -2.4733 H   0  0  0  0  0  0  0  0  0  0  0  0 
  1 21  1  0  0  0  0 
  1 20  1  0  0  0  0 
  2 17  1  0  0  0  0 
  2 24  1  0  0  0  0 
  3 10  1  0  0  0  0 
  3 25  1  0  0  0  0 
  4  3  2  0  0  0  0 
  5 12  1  0  0  0  0 
  6 11  1  0  0  0  0 
  7 15  1  0  0  0  0 
  7 29  1  0  0  0  0 
  8 14  2  0  0  0  0 
  9  1  1  0  0  0  0 
 10  7  2  0  0  0  0 
 11  5  2  0  0  0  0 
 11 10  1  0  0  0  0 
 12  8  1  0  0  0  0 
 12 15  2  0  0  0  0 
 13  6  2  0  0  0  0 
 13  4  1  0  0  0  0 
 14 18  1  0  0  0  0 
 14  9  1  0  0  0  0 
 15 18  1  0  0  0  0 
 16  9  2  0  0  0  0 
 17 13  1  0  0  0  0 
 19  1  1  0  0  0  0 
 22  2  1  0  0  0  0 
 23  2  1  0  0  0  0 
 26  4  1  0  0  0  0 
 27  5  1  0  0  0  0 
 28  6  1  0  0  0  0 
 30  8  1  0  0  0  0 
M  END 
>  <HBA> 
3 
 
>  <HBD> 
0 
 
>  <TPSA> 
39.44 
 
>  <cid> 
53674 
 
>  <dipole> 
4.52 
 
>  <excitation_energy_1> 
2.935 
 
>  <excitation_energy_2> 
3.61 
 
>  <excitation_energy_3> 
3.792 
 
>  <excitation_energy_4> 
4.233 
 
>  <homo_energy> 
-5.41 
 
>  <homo_lumo_gap> 
3.396 
 
>  <logP> 
3.797 
 
>  <lumo_energy> 
-2.014 
 
>  <melting_point> 
134.23 
 
>  <molecular_refractivity> 
70.41 
 
>  <oscillator_strength_1> 
0.0351 
 
>  <oscillator_strength_2> 
0.0 
 
>  <oscillator_strength_3> 
0.4663 
 
>  <oscillator_strength_4> 
0.0928 
 
>  <open_babel_can_smiles> 
COc1ccc2c(c1)cc1c(c2)oc(c1)C(=O)C 
 
>  <mulliken_charges> 
30 
1   -0.530874 
2   -0.215449 
3   -0.203554 
4   -0.192553 
5   -0.289563 
6   -0.257763 
7   -0.275387 
8   -0.214382 
9   0.386726 
10   0.136227 
11   0.142487 
12   0.129455 
13   0.379388 
14   0.282863 
15   0.345228 
16   -0.450723 
17   -0.510685 
18   -0.542472 
19   0.178709 
20   0.178548 
21   0.179062 
22   0.172379 
23   0.152349 
24   0.152218 
25   0.134389 
26   0.136193 
27   0.140629 
28   0.137648 
29   0.144974 
30   0.173934 
 
>  <lowdin_charges> 
30 
1   -0.471789 
2   -0.278491 
3   -0.151015 
4   -0.198235 
5   -0.161468 
6   -0.192815 
7   -0.182406 
8   -0.162873 
9   0.14996 
10   -0.002164 
11   0.005827 
12   -0.025062 
13   0.099529 
14   0.051009 
15   0.088851 
16   -0.23779 
17   -0.200399 
18   -0.131611 
19   0.176436 
20   0.174633 
21   0.177137 
22   0.163542 
23   0.145009 
24   0.146451 
25   0.161136 
26   0.164442 
27   0.165394 
28   0.168509 
29   0.171241 
30   0.187014 
 
$$$$ 
 
