PCCDB-ID:  9149 
public computational chemistry database (PCCDB) project, http://pccdb.org 
 
 23 25  0  0  0  0  0  0  0  0999 V2000 
    0.7419    2.7299   -0.0065 C   0  0  0  0  0  0  0  0  0  0  0  0 
    2.0279   -1.9561    0.0040 C   0  0  0  0  0  0  0  0  0  0  0  0 
   -2.7785   -0.6635    0.0070 C   0  0  0  0  0  0  0  0  0  0  0  0 
    1.7267    1.7701   -0.0060 C   0  0  0  0  0  0  0  0  0  0  0  0 
   -0.6217    2.3561   -0.0036 C   0  0  0  0  0  0  0  0  0  0  0  0 
    2.3863   -0.6257   -0.0012 C   0  0  0  0  0  0  0  0  0  0  0  0 
   -2.4008    0.6224    0.0028 C   0  0  0  0  0  0  0  0  0  0  0  0 
    0.6671   -2.3277    0.0076 C   0  0  0  0  0  0  0  0  0  0  0  0 
   -1.7966   -1.8013    0.0106 C   0  0  0  0  0  0  0  0  0  0  0  0 
    1.3928    0.3857   -0.0024 C   0  0  0  0  0  0  0  0  0  0  0  0 
   -0.9968    1.0241    0.0002 C   0  0  0  0  0  0  0  0  0  0  0  0 
   -0.3385   -1.3766    0.0061 C   0  0  0  0  0  0  0  0  0  0  0  0 
    0.0133    0.0043    0.0012 C   0  0  0  0  0  0  0  0  0  0  0  0 
    1.0069    3.7839   -0.0095 H   0  0  0  0  0  0  0  0  0  0  0  0 
    2.7931   -2.7280    0.0064 H   0  0  0  0  0  0  0  0  0  0  0  0 
   -3.8346   -0.9244    0.0085 H   0  0  0  0  0  0  0  0  0  0  0  0 
    2.7762    2.0543   -0.0078 H   0  0  0  0  0  0  0  0  0  0  0  0 
   -1.3895    3.1262   -0.0039 H   0  0  0  0  0  0  0  0  0  0  0  0 
    3.4339   -0.3342   -0.0053 H   0  0  0  0  0  0  0  0  0  0  0  0 
   -3.1466    1.4147    0.0007 H   0  0  0  0  0  0  0  0  0  0  0  0 
    0.4041   -3.3837    0.0109 H   0  0  0  0  0  0  0  0  0  0  0  0 
   -1.9951   -2.4523   -0.8562 H   0  0  0  0  0  0  0  0  0  0  0  0 
   -1.9920   -2.4435    0.8847 H   0  0  0  0  0  0  0  0  0  0  0  0 
  1  4  2  0  0  0  0 
  1  5  1  0  0  0  0 
  2 15  1  0  0  0  0 
  2  8  2  0  0  0  0 
  3 16  1  0  0  0  0 
  3  9  1  0  0  0  0 
  4 10  1  0  0  0  0 
  5 11  2  0  0  0  0 
  6  2  1  0  0  0  0 
  7  3  2  0  0  0  0 
  8 21  1  0  0  0  0 
  9 23  1  0  0  0  0 
 10  6  2  0  0  0  0 
 10 13  1  0  0  0  0 
 11 13  1  0  0  0  0 
 11  7  1  0  0  0  0 
 12  8  1  0  0  0  0 
 12  9  1  0  0  0  0 
 13 12  2  0  0  0  0 
 14  1  1  0  0  0  0 
 17  4  1  0  0  0  0 
 18  5  1  0  0  0  0 
 19  6  1  0  0  0  0 
 20  7  1  0  0  0  0 
 22  9  1  0  0  0  0 
M  END 
>  <HBA> 
0 
 
>  <HBD> 
0 
 
>  <TPSA> 
0.0 
 
>  <cid> 
9149 
 
>  <dipole> 
0.66 
 
>  <excitation_energy_1> 
3.646 
 
>  <excitation_energy_2> 
4.125 
 
>  <excitation_energy_3> 
4.531 
 
>  <excitation_energy_4> 
4.946 
 
>  <homo_energy> 
-5.233 
 
>  <homo_lumo_gap> 
4.082 
 
>  <logP> 
3.409 
 
>  <lumo_energy> 
-1.151 
 
>  <melting_point> 
99.59 
 
>  <molecular_refractivity> 
56.89 
 
>  <oscillator_strength_1> 
0.1615 
 
>  <oscillator_strength_2> 
0.0081 
 
>  <oscillator_strength_3> 
0.0011 
 
>  <oscillator_strength_4> 
0.1008 
 
>  <open_babel_can_smiles> 
C1=Cc2c3c(C1)cccc3ccc2 
 
>  <mulliken_charges> 
23 
1   -0.127262 
2   -0.123515 
3   -0.122883 
4   -0.198906 
5   -0.227734 
6   -0.207598 
7   -0.148019 
8   -0.210908 
9   -0.394593 
10   0.152408 
11   0.12871 
12   0.130363 
13   0.009225 
14   0.128027 
15   0.127619 
16   0.128819 
17   0.126505 
18   0.125387 
19   0.126512 
20   0.123859 
21   0.119565 
22   0.167143 
23   0.167277 
 
>  <lowdin_charges> 
23 
1   -0.154464 
2   -0.156348 
3   -0.156377 
4   -0.160982 
5   -0.173388 
6   -0.162511 
7   -0.167145 
8   -0.169921 
9   -0.272851 
10   0.003081 
11   -0.000339 
12   -3.1e-05 
13   -0.006348 
14   0.156539 
15   0.158636 
16   0.155528 
17   0.155434 
18   0.156751 
19   0.155207 
20   0.157968 
21   0.152244 
22   0.164642 
23   0.164674 
 
$$$$ 
 
