PCCDB-ID:  21290 
public computational chemistry database (PCCDB) project, http://pccdb.org 
 
 34 34  0  0  0  0  0  0  0  0999 V2000 
    1.4116   -1.1786   -0.5845 C   0  0  0  0  0  0  0  0  0  0  0  0 
    4.2343    4.1078   -0.9862 C   0  0  0  0  0  0  0  0  0  0  0  0 
    6.0548    5.8972   -5.2094 C   0  0  0  0  0  0  0  0  0  0  0  0 
    6.8996    3.9385   -6.4405 C   0  0  0  0  0  0  0  0  0  0  0  0 
    2.7711   -0.5335   -0.2967 C   0  0  0  0  0  0  0  0  0  0  0  0 
    3.2234    0.4354   -1.3961 C   0  0  0  0  0  0  0  0  0  0  0  0 
    4.5974    1.0760   -1.1095 C   0  0  0  0  0  0  0  0  0  0  0  0 
    4.8930    3.4177   -2.1574 C   0  0  0  0  0  0  0  0  0  0  0  0 
    5.0619    2.0260   -2.1882 C   0  0  0  0  0  0  0  0  0  0  0  0 
    5.6837    1.5589   -3.3568 C   0  0  0  0  0  0  0  0  0  0  0  0 
    5.8991    3.6536   -4.2077 C   0  0  0  0  0  0  0  0  0  0  0  0 
    5.3006    4.2265   -3.1478 N   0  0  0  0  0  0  0  0  0  0  0  0 
    6.0993    2.3263   -4.3557 N   0  0  0  0  0  0  0  0  0  0  0  0 
    6.3545    4.4761   -5.2077 N   0  0  0  0  0  0  0  0  0  0  0  0 
    5.8804    0.2261   -3.4982 O   0  0  0  0  0  0  0  0  0  0  0  0 
    1.1163   -1.8657    0.2168 H   0  0  0  0  0  0  0  0  0  0  0  0 
    1.4346   -1.7491   -1.5212 H   0  0  0  0  0  0  0  0  0  0  0  0 
    0.6246   -0.4202   -0.6798 H   0  0  0  0  0  0  0  0  0  0  0  0 
    4.8222    3.9813   -0.0685 H   0  0  0  0  0  0  0  0  0  0  0  0 
    3.2358    3.7015   -0.7878 H   0  0  0  0  0  0  0  0  0  0  0  0 
    4.1467    5.1749   -1.1984 H   0  0  0  0  0  0  0  0  0  0  0  0 
    6.9529    6.4627   -5.4879 H   0  0  0  0  0  0  0  0  0  0  0  0 
    5.7268    6.1966   -4.2162 H   0  0  0  0  0  0  0  0  0  0  0  0 
    5.2624    6.1374   -5.9352 H   0  0  0  0  0  0  0  0  0  0  0  0 
    7.7380    4.5641   -6.7693 H   0  0  0  0  0  0  0  0  0  0  0  0 
    6.1479    3.9258   -7.2456 H   0  0  0  0  0  0  0  0  0  0  0  0 
    7.2504    2.9216   -6.2751 H   0  0  0  0  0  0  0  0  0  0  0  0 
    3.5306   -1.3186   -0.1740 H   0  0  0  0  0  0  0  0  0  0  0  0 
    2.7272   -0.0000    0.6640 H   0  0  0  0  0  0  0  0  0  0  0  0 
    2.4704    1.2268   -1.5215 H   0  0  0  0  0  0  0  0  0  0  0  0 
    3.2743   -0.0965   -2.3553 H   0  0  0  0  0  0  0  0  0  0  0  0 
    5.3380    0.2752   -0.9932 H   0  0  0  0  0  0  0  0  0  0  0  0 
    4.5549    1.5992   -0.1466 H   0  0  0  0  0  0  0  0  0  0  0  0 
    6.3245    0.1174   -4.3588 H   0  0  0  0  0  0  0  0  0  0  0  0 
  1  5  1  0  0  0  0 
  1 16  1  0  0  0  0 
  2 20  1  0  0  0  0 
  2 19  1  0  0  0  0 
  3 14  1  0  0  0  0 
  3 23  1  0  0  0  0 
  4 27  1  0  0  0  0 
  4 14  1  0  0  0  0 
  5 28  1  0  0  0  0 
  5 29  1  0  0  0  0 
  6  7  1  0  0  0  0 
  6  5  1  0  0  0  0 
  7 32  1  0  0  0  0 
  7 33  1  0  0  0  0 
  8  2  1  0  0  0  0 
  9  8  2  0  0  0  0 
  9  7  1  0  0  0  0 
 10  9  1  0  0  0  0 
 11 12  2  0  0  0  0 
 12  8  1  0  0  0  0 
 13 11  1  0  0  0  0 
 13 10  2  0  0  0  0 
 14 11  1  0  0  0  0 
 15 10  1  0  0  0  0 
 17  1  1  0  0  0  0 
 18  1  1  0  0  0  0 
 21  2  1  0  0  0  0 
 22  3  1  0  0  0  0 
 24  3  1  0  0  0  0 
 25  4  1  0  0  0  0 
 26  4  1  0  0  0  0 
 30  6  1  0  0  0  0 
 31  6  1  0  0  0  0 
 34 15  1  0  0  0  0 
M  END 
>  <HBA> 
3 
 
>  <HBD> 
1 
 
>  <TPSA> 
48.99 
 
>  <cid> 
21290 
 
>  <dipole> 
0.97 
 
>  <excitation_energy_1> 
4.425 
 
>  <excitation_energy_2> 
4.852 
 
>  <excitation_energy_3> 
4.964 
 
>  <excitation_energy_4> 
5.261 
 
>  <homo_energy> 
-5.339 
 
>  <homo_lumo_gap> 
5.197 
 
>  <logP> 
1.487 
 
>  <lumo_energy> 
-0.142 
 
>  <melting_point> 
118.57 
 
>  <molecular_refractivity> 
63.42 
 
>  <oscillator_strength_1> 
0.0683 
 
>  <oscillator_strength_2> 
0.0241 
 
>  <oscillator_strength_3> 
0.0026 
 
>  <oscillator_strength_4> 
0.0216 
 
>  <open_babel_can_smiles> 
CCCCc1c(C)nc(nc1O)N(C)C 
 
>  <mulliken_charges> 
34 
1   -0.441412 
2   -0.529758 
3   -0.311788 
4   -0.30571 
5   -0.245581 
6   -0.246392 
7   -0.341935 
8   0.278429 
9   0.061531 
10   0.495484 
11   0.693264 
12   -0.564578 
13   -0.592367 
14   -0.45593 
15   -0.622559 
16   0.140763 
17   0.142747 
18   0.140446 
19   0.165448 
20   0.163667 
21   0.172833 
22   0.145765 
23   0.202969 
24   0.144135 
25   0.147576 
26   0.145682 
27   0.189555 
28   0.132997 
29   0.127598 
30   0.127314 
31   0.144747 
32   0.153668 
33   0.133601 
34   0.407791 
 
>  <lowdin_charges> 
34 
1   -0.445451 
2   -0.447868 
3   -0.354555 
4   -0.35322 
5   -0.27311 
6   -0.274422 
7   -0.271368 
8   0.080341 
9   -0.107798 
10   0.15187 
11   0.135359 
12   -0.230675 
13   -0.249294 
14   -0.097023 
15   -0.36145 
16   0.149597 
17   0.146929 
18   0.146352 
19   0.164273 
20   0.162036 
21   0.167682 
22   0.147407 
23   0.182199 
24   0.142396 
25   0.149438 
26   0.142711 
27   0.174602 
28   0.140858 
29   0.136824 
30   0.137325 
31   0.145977 
32   0.156839 
33   0.146512 
34   0.358706 
 
$$$$ 
 
