PCCDB-ID:  23293 
public computational chemistry database (PCCDB) project, http://pccdb.org 
 
 18 18  0  0  1  0  0  0  0  0999 V2000 
    0.7256    1.2710   -0.2333 C   0  0  0  0  0  0  0  0  0  0  0  0 
    1.4705    0.0058    0.2248 C   0  0  0  0  0  0  0  0  0  0  0  0 
   -0.7461    1.2245    0.2142 C   0  0  0  0  0  0  0  0  0  0  0  0 
   -0.7416   -1.2103    0.2230 C   0  0  0  0  0  0  0  0  0  0  0  0 
    0.7318   -1.2615   -0.2227 C   0  0  2  0  0  0  0  0  0  0  0  0 
   -1.4558    0.0034   -0.1826 N   0  0  0  0  0  0  0  0  0  0  0  0 
    1.3767   -2.4539    0.2207 O   0  0  0  0  0  0  0  0  0  0  0  0 
    0.7668    1.3427   -1.3302 H   0  0  0  0  0  0  0  0  0  0  0  0 
    1.2174    2.1711    0.1592 H   0  0  0  0  0  0  0  0  0  0  0  0 
    1.5346    0.0010    1.3255 H   0  0  0  0  0  0  0  0  0  0  0  0 
    2.4996   -0.0134   -0.1528 H   0  0  0  0  0  0  0  0  0  0  0  0 
   -1.2994    2.0857   -0.1778 H   0  0  0  0  0  0  0  0  0  0  0  0 
   -0.7937    1.2897    1.3112 H   0  0  0  0  0  0  0  0  0  0  0  0 
   -0.7752   -1.2666    1.3235 H   0  0  0  0  0  0  0  0  0  0  0  0 
   -1.2761   -2.0881   -0.1565 H   0  0  0  0  0  0  0  0  0  0  0  0 
    0.7630   -1.3242   -1.3188 H   0  0  0  0  0  0  0  0  0  0  0  0 
   -1.5733   -0.0017   -1.1956 H   0  0  0  0  0  0  0  0  0  0  0  0 
    1.3849   -2.4323    1.1916 H   0  0  0  0  0  0  0  0  0  0  0  0 
  1  9  1  0  0  0  0 
  1  3  1  0  0  0  0 
  1  2  1  0  0  0  0 
  2 10  1  0  0  0  0 
  3 13  1  0  0  0  0 
  4 14  1  0  0  0  0 
  5 16  1  6  0  0  0 
  5  7  1  0  0  0  0 
  5  4  1  0  0  0  0 
  5  2  1  0  0  0  0 
  6  3  1  0  0  0  0 
  6  4  1  0  0  0  0 
  7 18  1  0  0  0  0 
  8  1  1  0  0  0  0 
 11  2  1  0  0  0  0 
 12  3  1  0  0  0  0 
 15  4  1  0  0  0  0 
 17  6  1  0  0  0  0 
M  END 
>  <HBA> 
2 
 
>  <HBD> 
2 
 
>  <TPSA> 
32.26 
 
>  <cid> 
23293 
 
>  <dipole> 
1.37 
 
>  <excitation_energy_1> 
5.242 
 
>  <excitation_energy_2> 
5.41 
 
>  <excitation_energy_3> 
5.832 
 
>  <excitation_energy_4> 
5.984 
 
>  <homo_energy> 
-5.755 
 
>  <homo_lumo_gap> 
7.709 
 
>  <logP> 
0.059 
 
>  <lumo_energy> 
1.954 
 
>  <melting_point> 
42.48 
 
>  <molecular_refractivity> 
31.91 
 
>  <oscillator_strength_1> 
0.0145 
 
>  <oscillator_strength_2> 
0.0052 
 
>  <oscillator_strength_3> 
0.0216 
 
>  <oscillator_strength_4> 
0.0126 
 
>  <open_babel_can_smiles> 
O[C@@H]1CCCNC1 
 
>  <mulliken_charges> 
18 
1   -0.267944 
2   -0.277708 
3   -0.146715 
4   -0.166068 
5   0.136782 
6   -0.526679 
7   -0.624447 
8   0.128289 
9   0.133618 
10   0.115336 
11   0.14667 
12   0.1402 
13   0.138307 
14   0.121957 
15   0.150307 
16   0.125503 
17   0.290268 
18   0.382325 
 
>  <lowdin_charges> 
18 
1   -0.293395 
2   -0.292019 
3   -0.208271 
4   -0.225968 
5   -0.020376 
6   -0.355402 
7   -0.456464 
8   0.135771 
9   0.147504 
10   0.130578 
11   0.150382 
12   0.147952 
13   0.137431 
14   0.13111 
15   0.152869 
16   0.134716 
17   0.248166 
18   0.335415 
 
$$$$ 
 
