PCCDB-ID:  27702 
public computational chemistry database (PCCDB) project, http://pccdb.org 
 
 28 29  0  0  0  0  0  0  0  0999 V2000 
    7.3376    2.2475   -0.9537 C   0  0  0  0  0  0  0  0  0  0  0  0 
    6.2949   -0.0044    4.4604 C   0  0  0  0  0  0  0  0  0  0  0  0 
    5.9805    4.9020    4.1957 C   0  0  0  0  0  0  0  0  0  0  0  0 
    6.3881    1.2224    5.1110 C   0  0  0  0  0  0  0  0  0  0  0  0 
    6.0800    3.7494    5.2023 C   0  0  0  0  0  0  0  0  0  0  0  0 
    5.7831   -0.0585    3.1612 C   0  0  0  0  0  0  0  0  0  0  0  0 
    4.8112    4.6417    3.2539 C   0  0  0  0  0  0  0  0  0  0  0  0 
    5.9669    2.4102    4.4993 C   0  0  0  0  0  0  0  0  0  0  0  0 
    5.3670    1.1087    2.5413 C   0  0  0  0  0  0  0  0  0  0  0  0 
    5.4387    2.3472    3.2003 C   0  0  0  0  0  0  0  0  0  0  0  0 
    5.4743    1.4695    0.2196 C   0  0  0  0  0  0  0  0  0  0  0  0 
    6.6968    1.7952    0.2686 N   0  0  0  0  0  0  0  0  0  0  0  0 
    4.6310    1.4478   -0.8425 O   0  0  0  0  0  0  0  0  0  0  0  0 
    4.9942    3.4350    2.5053 O   0  0  0  0  0  0  0  0  0  0  0  0 
    4.7670    1.0340    1.2870 O   0  0  0  0  0  0  0  0  0  0  0  0 
    8.3924    2.4516   -0.7498 H   0  0  0  0  0  0  0  0  0  0  0  0 
    6.8982    3.1805   -1.3447 H   0  0  0  0  0  0  0  0  0  0  0  0 
    7.3094    1.4952   -1.7616 H   0  0  0  0  0  0  0  0  0  0  0  0 
    6.6252   -0.9139    4.9530 H   0  0  0  0  0  0  0  0  0  0  0  0 
    6.9015    4.9723    3.6041 H   0  0  0  0  0  0  0  0  0  0  0  0 
    5.8403    5.8619    4.7063 H   0  0  0  0  0  0  0  0  0  0  0  0 
    6.7991    1.2721    6.1172 H   0  0  0  0  0  0  0  0  0  0  0  0 
    5.2805    3.8490    5.9513 H   0  0  0  0  0  0  0  0  0  0  0  0 
    7.0252    3.8003    5.7561 H   0  0  0  0  0  0  0  0  0  0  0  0 
    5.6984   -0.9951    2.6195 H   0  0  0  0  0  0  0  0  0  0  0  0 
    4.7023    5.4276    2.5021 H   0  0  0  0  0  0  0  0  0  0  0  0 
    3.8697    4.5715    3.8194 H   0  0  0  0  0  0  0  0  0  0  0  0 
    5.1264    1.7347   -1.6256 H   0  0  0  0  0  0  0  0  0  0  0  0 
  1 16  1  0  0  0  0 
  1 12  1  0  0  0  0 
  2 19  1  0  0  0  0 
  2  4  2  0  0  0  0 
  3 21  1  0  0  0  0 
  3  5  1  0  0  0  0 
  4 22  1  0  0  0  0 
  5 24  1  0  0  0  0 
  5 23  1  0  0  0  0 
  6  2  1  0  0  0  0 
  7 27  1  0  0  0  0 
  7  3  1  0  0  0  0 
  8  4  1  0  0  0  0 
  8  5  1  0  0  0  0 
  9  6  2  0  0  0  0 
  9 10  1  0  0  0  0 
 10  8  2  0  0  0  0 
 11 12  2  0  0  0  0 
 11 15  1  0  0  0  0 
 13 11  1  0  0  0  0 
 14 10  1  0  0  0  0 
 14  7  1  0  0  0  0 
 15  9  1  0  0  0  0 
 17  1  1  0  0  0  0 
 18  1  1  0  0  0  0 
 20  3  1  0  0  0  0 
 25  6  1  0  0  0  0 
 26  7  1  0  0  0  0 
 28 13  1  0  0  0  0 
M  END 
>  <HBA> 
4 
 
>  <HBD> 
1 
 
>  <TPSA> 
47.56 
 
>  <cid> 
27702 
 
>  <dipole> 
2.34 
 
>  <excitation_energy_1> 
4.882 
 
>  <excitation_energy_2> 
5.214 
 
>  <excitation_energy_3> 
5.388 
 
>  <excitation_energy_4> 
5.611 
 
>  <homo_energy> 
-5.687 
 
>  <homo_lumo_gap> 
5.823 
 
>  <logP> 
2.121 
 
>  <lumo_energy> 
0.136 
 
>  <melting_point> 
99.52 
 
>  <molecular_refractivity> 
55.28 
 
>  <oscillator_strength_1> 
0.0467 
 
>  <oscillator_strength_2> 
0.0054 
 
>  <oscillator_strength_3> 
0.0174 
 
>  <oscillator_strength_4> 
0.0147 
 
>  <open_babel_can_smiles> 
C/N=C(/Oc1cccc2c1OCCC2)\O 
 
>  <mulliken_charges> 
28 
1   -0.357757 
2   -0.144261 
3   -0.29532 
4   -0.190051 
5   -0.34216 
6   -0.164223 
7   -0.033583 
8   0.120415 
9   0.310161 
10   0.321533 
11   0.677296 
12   -0.425989 
13   -0.590576 
14   -0.527622 
15   -0.522379 
16   0.171877 
17   0.142914 
18   0.134758 
19   0.126984 
20   0.161911 
21   0.141246 
22   0.119873 
23   0.153984 
24   0.154422 
25   0.137798 
26   0.153299 
27   0.141883 
28   0.423568 
 
>  <lowdin_charges> 
28 
1   -0.364962 
2   -0.171079 
3   -0.29046 
4   -0.160694 
5   -0.273889 
6   -0.163186 
7   -0.124155 
8   -0.047752 
9   0.087307 
10   0.082479 
11   0.191579 
12   -0.262604 
13   -0.35745 
14   -0.199382 
15   -0.139337 
16   0.160941 
17   0.138011 
18   0.13341 
19   0.158699 
20   0.155632 
21   0.153246 
22   0.153503 
23   0.152634 
24   0.156942 
25   0.168229 
26   0.155874 
27   0.13881 
28   0.367652 
 
$$$$ 
 
