PCCDB-ID:  8158 
public computational chemistry database (PCCDB) project, http://pccdb.org 
 
 29 28  0  0  0  0  0  0  0  0999 V2000 
    4.7803    1.5242   -2.0483 C   0  0  0  0  0  0  0  0  0  0  0  0 
    4.4436    0.1694   -1.4149 C   0  0  0  0  0  0  0  0  0  0  0  0 
    5.3901   -0.2919   -0.2918 C   0  0  0  0  0  0  0  0  0  0  0  0 
    5.4046    0.6148    0.9626 C   0  0  0  0  0  0  0  0  0  0  0  0 
    6.4833    1.7243    0.9905 C   0  0  0  0  0  0  0  0  0  0  0  0 
    7.7841    1.3515    1.7238 C   0  0  0  0  0  0  0  0  0  0  0  0 
    8.5874    0.1990    1.1050 C   0  0  0  0  0  0  0  0  0  0  0  0 
    9.8970   -0.0700    1.8718 C   0  0  0  0  0  0  0  0  0  0  0  0 
   10.7806   -1.1450    1.2503 C   0  0  0  0  0  0  0  0  0  0  0  0 
   11.9310   -0.9828    0.9317 O   0  0  0  0  0  0  0  0  0  0  0  0 
   10.1915   -2.3616    1.0621 O   0  0  0  0  0  0  0  0  0  0  0  0 
    4.0896    1.7527   -2.8681 H   0  0  0  0  0  0  0  0  0  0  0  0 
    5.7968    1.5297   -2.4613 H   0  0  0  0  0  0  0  0  0  0  0  0 
    4.7101    2.3432   -1.3237 H   0  0  0  0  0  0  0  0  0  0  0  0 
    4.4401   -0.5983   -2.2005 H   0  0  0  0  0  0  0  0  0  0  0  0 
    3.4182    0.2016   -1.0191 H   0  0  0  0  0  0  0  0  0  0  0  0 
    6.4062   -0.3896   -0.6976 H   0  0  0  0  0  0  0  0  0  0  0  0 
    5.0845   -1.3048    0.0032 H   0  0  0  0  0  0  0  0  0  0  0  0 
    5.5263   -0.0073    1.8606 H   0  0  0  0  0  0  0  0  0  0  0  0 
    4.4119    1.0738    1.0645 H   0  0  0  0  0  0  0  0  0  0  0  0 
    6.0729    2.6113    1.4905 H   0  0  0  0  0  0  0  0  0  0  0  0 
    6.7236    2.0421   -0.0321 H   0  0  0  0  0  0  0  0  0  0  0  0 
    7.5453    1.0992    2.7680 H   0  0  0  0  0  0  0  0  0  0  0  0 
    8.4293    2.2400    1.7670 H   0  0  0  0  0  0  0  0  0  0  0  0 
    8.8237    0.4317    0.0581 H   0  0  0  0  0  0  0  0  0  0  0  0 
    7.9660   -0.7079    1.0842 H   0  0  0  0  0  0  0  0  0  0  0  0 
    9.6653   -0.3639    2.9064 H   0  0  0  0  0  0  0  0  0  0  0  0 
   10.5027    0.8384    1.9224 H   0  0  0  0  0  0  0  0  0  0  0  0 
    9.2705   -2.3364    1.3694 H   0  0  0  0  0  0  0  0  0  0  0  0 
  1  2  1  0  0  0  0 
  1 14  1  0  0  0  0 
  2 16  1  0  0  0  0 
  2  3  1  0  0  0  0 
  3 18  1  0  0  0  0 
  3  4  1  0  0  0  0 
  4  5  1  0  0  0  0 
  4 20  1  0  0  0  0 
  4 19  1  0  0  0  0 
  5 21  1  0  0  0  0 
  5  6  1  0  0  0  0 
  6 24  1  0  0  0  0 
  6 23  1  0  0  0  0 
  7  6  1  0  0  0  0 
  7  8  1  0  0  0  0 
  8 28  1  0  0  0  0 
  8 27  1  0  0  0  0 
  9  8  1  0  0  0  0 
 10  9  2  0  0  0  0 
 11  9  1  0  0  0  0 
 11 29  1  0  0  0  0 
 12  1  1  0  0  0  0 
 13  1  1  0  0  0  0 
 15  2  1  0  0  0  0 
 17  3  1  0  0  0  0 
 22  5  1  0  0  0  0 
 25  7  1  0  0  0  0 
 26  7  1  0  0  0  0 
M  END 
>  <HBA> 
2 
 
>  <HBD> 
1 
 
>  <TPSA> 
37.3 
 
>  <cid> 
8158 
 
>  <dipole> 
4.76 
 
>  <excitation_energy_1> 
5.609 
 
>  <excitation_energy_2> 
6.441 
 
>  <excitation_energy_3> 
7.132 
 
>  <excitation_energy_4> 
7.304 
 
>  <homo_energy> 
-7.184 
 
>  <homo_lumo_gap> 
7.519 
 
>  <logP> 
2.822 
 
>  <lumo_energy> 
0.335 
 
>  <melting_point> 
48.6 
 
>  <molecular_refractivity> 
47.15 
 
>  <oscillator_strength_1> 
0.002 
 
>  <oscillator_strength_2> 
0.0105 
 
>  <oscillator_strength_3> 
0.0003 
 
>  <oscillator_strength_4> 
0.0026 
 
>  <open_babel_can_smiles> 
CCCCCCCCC(=O)O 
 
>  <mulliken_charges> 
29 
1   -0.442624 
2   -0.251494 
3   -0.257955 
4   -0.265238 
5   -0.26293 
6   -0.258812 
7   -0.274074 
8   -0.380531 
9   0.589038 
10   -0.436714 
11   -0.565788 
12   0.144441 
13   0.141474 
14   0.147499 
15   0.133207 
16   0.131903 
17   0.132917 
18   0.128077 
19   0.12749 
20   0.137101 
21   0.134774 
22   0.142686 
23   0.13153 
24   0.138885 
25   0.158061 
26   0.127032 
27   0.161442 
28   0.179963 
29   0.408641 
 
>  <lowdin_charges> 
29 
1   -0.449147 
2   -0.27182 
3   -0.280726 
4   -0.282994 
5   -0.280357 
6   -0.273268 
7   -0.277546 
8   -0.315275 
9   0.190603 
10   -0.236072 
11   -0.361324 
12   0.151753 
13   0.144846 
14   0.148644 
15   0.143134 
16   0.137824 
17   0.138347 
18   0.141185 
19   0.139789 
20   0.144532 
21   0.14696 
22   0.14471 
23   0.137523 
24   0.146102 
25   0.150397 
26   0.135173 
27   0.160067 
28   0.173325 
29   0.353613 
 
$$$$ 
 
