PCCDB-ID:  18515 
public computational chemistry database (PCCDB) project, http://pccdb.org 
 
 25 25  0  0  0  0  0  0  0  0999 V2000 
    2.4790   -0.5031   -0.7412 C   0  0  0  0  0  0  0  0  0  0  0  0 
    2.8016   -0.6382    0.7519 C   0  0  0  0  0  0  0  0  0  0  0  0 
    2.9002   -2.0876    1.2580 C   0  0  0  0  0  0  0  0  0  0  0  0 
    3.6068   -6.2257    2.5101 C   0  0  0  0  0  0  0  0  0  0  0  0 
    4.6916   -6.9488    2.0223 C   0  0  0  0  0  0  0  0  0  0  0  0 
    4.0853   -2.8650    0.6733 C   0  0  0  0  0  0  0  0  0  0  0  0 
    3.4038   -4.9093    2.0825 C   0  0  0  0  0  0  0  0  0  0  0  0 
    5.5664   -6.3548    1.1106 C   0  0  0  0  0  0  0  0  0  0  0  0 
    4.2613   -4.2871    1.1717 C   0  0  0  0  0  0  0  0  0  0  0  0 
    5.3513   -5.0409    0.6927 C   0  0  0  0  0  0  0  0  0  0  0  0 
    6.1849   -4.4175   -0.2029 O   0  0  0  0  0  0  0  0  0  0  0  0 
    2.3655    0.5498   -1.0239 H   0  0  0  0  0  0  0  0  0  0  0  0 
    1.5414   -1.0165   -0.9895 H   0  0  0  0  0  0  0  0  0  0  0  0 
    3.2671   -0.9284   -1.3724 H   0  0  0  0  0  0  0  0  0  0  0  0 
    2.0237   -0.1216    1.3299 H   0  0  0  0  0  0  0  0  0  0  0  0 
    3.7422   -0.1135    0.9724 H   0  0  0  0  0  0  0  0  0  0  0  0 
    1.9605   -2.6111    1.0297 H   0  0  0  0  0  0  0  0  0  0  0  0 
    2.9848   -2.0698    2.3531 H   0  0  0  0  0  0  0  0  0  0  0  0 
    2.9203   -6.6766    3.2211 H   0  0  0  0  0  0  0  0  0  0  0  0 
    4.8640   -7.9723    2.3441 H   0  0  0  0  0  0  0  0  0  0  0  0 
    5.0129   -2.3086    0.8728 H   0  0  0  0  0  0  0  0  0  0  0  0 
    4.0099   -2.8938   -0.4220 H   0  0  0  0  0  0  0  0  0  0  0  0 
    2.5541   -4.3563    2.4702 H   0  0  0  0  0  0  0  0  0  0  0  0 
    6.4180   -6.9117    0.7219 H   0  0  0  0  0  0  0  0  0  0  0  0 
    6.8909   -5.0340   -0.4513 H   0  0  0  0  0  0  0  0  0  0  0  0 
  1  2  1  0  0  0  0 
  2 16  1  0  0  0  0 
  2  3  1  0  0  0  0 
  2 15  1  0  0  0  0 
  3 18  1  0  0  0  0 
  4 19  1  0  0  0  0 
  5 20  1  0  0  0  0 
  5  4  2  0  0  0  0 
  6 21  1  0  0  0  0 
  6  9  1  0  0  0  0 
  6  3  1  0  0  0  0 
  7 23  1  0  0  0  0 
  7  4  1  0  0  0  0 
  8  5  1  0  0  0  0 
  9  7  2  0  0  0  0 
 10  8  2  0  0  0  0 
 10  9  1  0  0  0  0 
 11 10  1  0  0  0  0 
 12  1  1  0  0  0  0 
 13  1  1  0  0  0  0 
 14  1  1  0  0  0  0 
 17  3  1  0  0  0  0 
 22  6  1  0  0  0  0 
 24  8  1  0  0  0  0 
 25 11  1  0  0  0  0 
M  END 
>  <HBA> 
1 
 
>  <HBD> 
1 
 
>  <TPSA> 
20.23 
 
>  <cid> 
18515 
 
>  <dipole> 
1.04 
 
>  <excitation_energy_1> 
5.063 
 
>  <excitation_energy_2> 
5.094 
 
>  <excitation_energy_3> 
5.683 
 
>  <excitation_energy_4> 
5.767 
 
>  <homo_energy> 
-5.785 
 
>  <homo_lumo_gap> 
6.008 
 
>  <logP> 
2.735 
 
>  <lumo_energy> 
0.223 
 
>  <melting_point> 
46.13 
 
>  <molecular_refractivity> 
47.85 
 
>  <oscillator_strength_1> 
0.0445 
 
>  <oscillator_strength_2> 
0.0004 
 
>  <oscillator_strength_3> 
0.0034 
 
>  <oscillator_strength_4> 
0.0243 
 
>  <open_babel_can_smiles> 
CCCCc1ccccc1O 
 
>  <mulliken_charges> 
25 
1   -0.445276 
2   -0.248486 
3   -0.264647 
4   -0.136506 
5   -0.13648 
6   -0.322307 
7   -0.198694 
8   -0.190546 
9   0.126995 
10   0.293417 
11   -0.645597 
12   0.1417 
13   0.141056 
14   0.149701 
15   0.130277 
16   0.131136 
17   0.133034 
18   0.134769 
19   0.122341 
20   0.126039 
21   0.153176 
22   0.158499 
23   0.127147 
24   0.112902 
25   0.406351 
 
>  <lowdin_charges> 
25 
1   -0.447741 
2   -0.273072 
3   -0.275391 
4   -0.180733 
5   -0.151394 
6   -0.269981 
7   -0.163108 
8   -0.216147 
9   -0.030791 
10   0.094041 
11   -0.383988 
12   0.148416 
13   0.146114 
14   0.149622 
15   0.143133 
16   0.139639 
17   0.139691 
18   0.140574 
19   0.156596 
20   0.155632 
21   0.155354 
22   0.154875 
23   0.159558 
24   0.151259 
25   0.357843 
 
$$$$ 
 
