PCCDB-ID:  70204 
public computational chemistry database (PCCDB) project, http://pccdb.org 
 
 14 13  0  0  0  0  0  0  0  0999 V2000 
    3.2050   -1.3387    0.3799 C   0  0  0  0  0  0  0  0  0  0  0  0 
    2.4005    1.8850    2.5528 C   0  0  0  0  0  0  0  0  0  0  0  0 
    2.4729   -0.2323    0.4983 C   0  0  0  0  0  0  0  0  0  0  0  0 
    2.7373    2.1670    1.2934 C   0  0  0  0  0  0  0  0  0  0  0  0 
    2.9675    1.1608    0.1829 C   0  0  0  0  0  0  0  0  0  0  0  0 
    4.3439    1.1943   -0.2076 O   0  0  0  0  0  0  0  0  0  0  0  0 
    2.7953   -2.3193    0.6048 H   0  0  0  0  0  0  0  0  0  0  0  0 
    4.2335   -1.2974    0.0333 H   0  0  0  0  0  0  0  0  0  0  0  0 
    2.3001    2.6671    3.3007 H   0  0  0  0  0  0  0  0  0  0  0  0 
    2.2120    0.8675    2.8855 H   0  0  0  0  0  0  0  0  0  0  0  0 
    1.4339   -0.2957    0.8209 H   0  0  0  0  0  0  0  0  0  0  0  0 
    2.9333    3.1990    1.0034 H   0  0  0  0  0  0  0  0  0  0  0  0 
    2.4326    1.5147   -0.7110 H   0  0  0  0  0  0  0  0  0  0  0  0 
    4.8596    1.0105    0.5953 H   0  0  0  0  0  0  0  0  0  0  0  0 
  1  3  2  0  0  0  0 
  1  7  1  0  0  0  0 
  2 10  1  0  0  0  0 
  2  9  1  0  0  0  0 
  3 11  1  0  0  0  0 
  4  2  2  0  0  0  0 
  5  3  1  0  0  0  0 
  5  4  1  0  0  0  0 
  6  5  1  0  0  0  0 
  6 14  1  0  0  0  0 
  8  1  1  0  0  0  0 
 12  4  1  0  0  0  0 
 13  5  1  0  0  0  0 
M  END 
>  <HBA> 
1 
 
>  <HBD> 
1 
 
>  <TPSA> 
20.23 
 
>  <cid> 
70204 
 
>  <dipole> 
1.51 
 
>  <excitation_energy_1> 
5.994 
 
>  <excitation_energy_2> 
6.303 
 
>  <excitation_energy_3> 
6.364 
 
>  <excitation_energy_4> 
6.718 
 
>  <homo_energy> 
-7.04 
 
>  <homo_lumo_gap> 
7.208 
 
>  <logP> 
0.719 
 
>  <lumo_energy> 
0.169 
 
>  <melting_point> 
-48.48 
 
>  <molecular_refractivity> 
26.36 
 
>  <oscillator_strength_1> 
0.0011 
 
>  <oscillator_strength_2> 
0.0527 
 
>  <oscillator_strength_3> 
0.0058 
 
>  <oscillator_strength_4> 
0.0522 
 
>  <open_babel_can_smiles> 
C=CC(C=C)O 
 
>  <mulliken_charges> 
14 
1   -0.341567 
2   -0.332473 
3   -0.085765 
4   -0.095983 
5   0.07279 
6   -0.614755 
7   0.140873 
8   0.147361 
9   0.145746 
10   0.148373 
11   0.134309 
12   0.139031 
13   0.155856 
14   0.386205 
 
>  <lowdin_charges> 
14 
1   -0.334957 
2   -0.332634 
3   -0.168453 
4   -0.169356 
5   0.000825 
6   -0.452633 
7   0.159767 
8   0.160216 
9   0.163257 
10   0.160769 
11   0.155639 
12   0.156792 
13   0.158364 
14   0.342403 
 
$$$$ 
 
