PCCDB-ID:  47256 
public computational chemistry database (PCCDB) project, http://pccdb.org 
 
 27 28  0  0  1  0  0  0  0  0999 V2000 
    0.8450   -0.2004   -0.1496 C   0  0  0  0  0  0  0  0  0  0  0  0 
    2.5232    2.0920   -1.2028 C   0  0  0  0  0  0  0  0  0  0  0  0 
    4.6409    0.7854    2.1775 C   0  0  0  0  0  0  0  0  0  0  0  0 
    4.4393   -0.5635    1.4215 C   0  0  0  0  0  0  0  0  0  0  0  0 
    2.3983    0.0071    2.5547 C   0  0  0  0  0  0  0  0  0  0  0  0 
    2.6796    2.1002    1.2246 C   0  0  0  0  0  0  0  0  0  0  0  0 
    2.3709   -0.0435    0.0201 C   0  0  2  0  0  0  0  0  0  0  0  0 
    3.2067    1.3109    2.4353 C   0  0  2  0  0  0  0  0  0  0  0  0 
    2.9021   -0.7334    1.2998 C   0  0  1  0  0  0  0  0  0  0  0  0 
    2.8692    1.3435   -0.0104 N   0  0  0  0  0  0  0  0  0  0  0  0 
    0.5619   -1.2581   -0.0889 H   0  0  0  0  0  0  0  0  0  0  0  0 
    0.5171    0.1726   -1.1257 H   0  0  0  0  0  0  0  0  0  0  0  0 
    0.2803    0.3397    0.6173 H   0  0  0  0  0  0  0  0  0  0  0  0 
    3.1259    3.0075   -1.2461 H   0  0  0  0  0  0  0  0  0  0  0  0 
    1.4596    2.3922   -1.2643 H   0  0  0  0  0  0  0  0  0  0  0  0 
    2.7548    1.4942   -2.0926 H   0  0  0  0  0  0  0  0  0  0  0  0 
    5.2371    1.4971    1.5979 H   0  0  0  0  0  0  0  0  0  0  0  0 
    5.1572    0.6238    3.1312 H   0  0  0  0  0  0  0  0  0  0  0  0 
    4.8635   -1.3974    1.9935 H   0  0  0  0  0  0  0  0  0  0  0  0 
    4.9228   -0.5596    0.4396 H   0  0  0  0  0  0  0  0  0  0  0  0 
    1.3151    0.1687    2.5778 H   0  0  0  0  0  0  0  0  0  0  0  0 
    2.6700   -0.5457    3.4634 H   0  0  0  0  0  0  0  0  0  0  0  0 
    3.2367    3.0416    1.1210 H   0  0  0  0  0  0  0  0  0  0  0  0 
    1.6208    2.3814    1.4028 H   0  0  0  0  0  0  0  0  0  0  0  0 
    2.8425   -0.5469   -0.8380 H   0  0  0  0  0  0  0  0  0  0  0  0 
    3.1428    1.9427    3.3289 H   0  0  0  0  0  0  0  0  0  0  0  0 
    2.6025   -1.7878    1.2782 H   0  0  0  0  0  0  0  0  0  0  0  0 
  1 11  1  0  0  0  0 
  1  7  1  0  0  0  0 
  1 13  1  0  0  0  0 
  2 10  1  0  0  0  0 
  3  8  1  0  0  0  0 
  3 18  1  0  0  0  0 
  4 19  1  0  0  0  0 
  4  3  1  0  0  0  0 
  5 21  1  0  0  0  0 
  5 22  1  0  0  0  0 
  6 24  1  0  0  0  0 
  6  8  1  0  0  0  0 
  7 25  1  6  0  0  0 
  7  9  1  0  0  0  0 
  8  5  1  0  0  0  0 
  8 26  1  1  0  0  0 
  9 27  1  1  0  0  0 
  9  4  1  0  0  0  0 
  9  5  1  0  0  0  0 
 10  7  1  0  0  0  0 
 10  6  1  0  0  0  0 
 12  1  1  0  0  0  0 
 14  2  1  0  0  0  0 
 15  2  1  0  0  0  0 
 16  2  1  0  0  0  0 
 17  3  1  0  0  0  0 
 20  4  1  0  0  0  0 
 23  6  1  0  0  0  0 
M  END 
>  <HBA> 
1 
 
>  <HBD> 
0 
 
>  <TPSA> 
3.24 
 
>  <cid> 
47256 
 
>  <dipole> 
0.45 
 
>  <excitation_energy_1> 
4.817 
 
>  <excitation_energy_2> 
5.268 
 
>  <excitation_energy_3> 
5.352 
 
>  <excitation_energy_4> 
5.426 
 
>  <homo_energy> 
-5.366 
 
>  <homo_lumo_gap> 
7.418 
 
>  <logP> 
1.675 
 
>  <lumo_energy> 
2.052 
 
>  <melting_point> 
19.24 
 
>  <molecular_refractivity> 
47.96 
 
>  <oscillator_strength_1> 
0.0098 
 
>  <oscillator_strength_2> 
0.007 
 
>  <oscillator_strength_3> 
0.0092 
 
>  <oscillator_strength_4> 
0.0127 
 
>  <open_babel_can_smiles> 
CN1C[C@@H]2CC[C@H]([C@H]1C)C2 
 
>  <mulliken_charges> 
27 
1   -0.463385 
2   -0.292903 
3   -0.25757 
4   -0.25964 
5   -0.275513 
6   -0.110802 
7   0.056119 
8   -0.108741 
9   -0.109727 
10   -0.392764 
11   0.140274 
12   0.144319 
13   0.14723 
14   0.144108 
15   0.120074 
16   0.143033 
17   0.137746 
18   0.126094 
19   0.125817 
20   0.138382 
21   0.131265 
22   0.129849 
23   0.130972 
24   0.104382 
25   0.121415 
26   0.115909 
27   0.114056 
 
>  <lowdin_charges> 
27 
1   -0.465365 
2   -0.353535 
3   -0.284607 
4   -0.283406 
5   -0.284821 
6   -0.19777 
7   -0.060377 
8   -0.137668 
9   -0.135859 
10   -0.190449 
11   0.149957 
12   0.150513 
13   0.149892 
14   0.147471 
15   0.118829 
16   0.147891 
17   0.149108 
18   0.139864 
19   0.140885 
20   0.147837 
21   0.139745 
22   0.142748 
23   0.140589 
24   0.112183 
25   0.136598 
26   0.141231 
27   0.138516 
 
$$$$ 
 
