PCCDB-ID:  70935 
public computational chemistry database (PCCDB) project, http://pccdb.org 
 
 13 13  0  0  0  0  0  0  0  0999 V2000 
    0.8877   -0.0371    0.0634 C   0  0  0  0  0  0  0  0  0  0  0  0 
    3.2656    1.0697    0.0733 C   0  0  0  0  0  0  0  0  0  0  0  0 
    2.3780    0.0281    0.0702 C   0  0  0  0  0  0  0  0  0  0  0  0 
    4.4767   -0.6787    0.0823 C   0  0  0  0  0  0  0  0  0  0  0  0 
    4.5821    0.6233    0.0807 N   0  0  0  0  0  0  0  0  0  0  0  0 
    3.1880   -1.1138    0.0770 N   0  0  0  0  0  0  0  0  0  0  0  0 
    5.4862   -1.5760    0.0897 O   0  0  0  0  0  0  0  0  0  0  0  0 
    0.4775    0.9769    0.0656 H   0  0  0  0  0  0  0  0  0  0  0  0 
    0.4881   -0.5563    0.9453 H   0  0  0  0  0  0  0  0  0  0  0  0 
    0.4955   -0.5494   -0.8259 H   0  0  0  0  0  0  0  0  0  0  0  0 
    3.0379    2.1273    0.0713 H   0  0  0  0  0  0  0  0  0  0  0  0 
    2.8894   -2.0779    0.0745 H   0  0  0  0  0  0  0  0  0  0  0  0 
    6.3038   -1.0499    0.0900 H   0  0  0  0  0  0  0  0  0  0  0  0 
  1  8  1  0  0  0  0 
  1  3  1  0  0  0  0 
  1  9  1  0  0  0  0 
  2  5  1  0  0  0  0 
  3  2  2  0  0  0  0 
  3  6  1  0  0  0  0 
  4  7  1  0  0  0  0 
  5  4  2  0  0  0  0 
  6  4  1  0  0  0  0 
  7 13  1  0  0  0  0 
 10  1  1  0  0  0  0 
 11  2  1  0  0  0  0 
 12  6  1  0  0  0  0 
M  END 
>  <HBA> 
1 
 
>  <HBD> 
2 
 
>  <TPSA> 
48.65 
 
>  <cid> 
70935 
 
>  <dipole> 
2.33 
 
>  <excitation_energy_1> 
4.715 
 
>  <excitation_energy_2> 
5.151 
 
>  <excitation_energy_3> 
5.67 
 
>  <excitation_energy_4> 
5.946 
 
>  <homo_energy> 
-5.361 
 
>  <homo_lumo_gap> 
6.724 
 
>  <logP> 
0.011 
 
>  <lumo_energy> 
1.363 
 
>  <melting_point> 
137.14 
 
>  <molecular_refractivity> 
26.38 
 
>  <oscillator_strength_1> 
0.0001 
 
>  <oscillator_strength_2> 
0.0001 
 
>  <oscillator_strength_3> 
0.0025 
 
>  <oscillator_strength_4> 
0.0829 
 
>  <open_babel_can_smiles> 
Cc1cnc([nH]1)O 
 
>  <mulliken_charges> 
13 
1   -0.534045 
2   -0.081922 
3   0.331332 
4   0.673467 
5   -0.494601 
6   -0.645696 
7   -0.625882 
8   0.172522 
9   0.158795 
10   0.15887 
11   0.127802 
12   0.33386 
13   0.425497 
 
>  <lowdin_charges> 
13 
1   -0.441545 
2   -0.164283 
3   -0.013738 
4   0.124974 
5   -0.244934 
6   -0.206026 
7   -0.368721 
8   0.170473 
9   0.157582 
10   0.157506 
11   0.157473 
12   0.295626 
13   0.375613 
 
$$$$ 
 
