PCCDB-ID:  11352 
public computational chemistry database (PCCDB) project, http://pccdb.org 
 
 25 27  0  0  0  0  0  0  0  0999 V2000 
   -3.6457   -0.6732   -0.0395 C   0  0  0  0  0  0  0  0  0  0  0  0 
   -3.5884    0.7491    0.0500 C   0  0  0  0  0  0  0  0  0  0  0  0 
    3.5768    0.7450   -0.0581 C   0  0  0  0  0  0  0  0  0  0  0  0 
   -2.4917   -1.4112   -0.0873 C   0  0  0  0  0  0  0  0  0  0  0  0 
    3.6407   -0.6741   -0.0618 C   0  0  0  0  0  0  0  0  0  0  0  0 
   -2.3840    1.4020    0.0856 C   0  0  0  0  0  0  0  0  0  0  0  0 
    2.3791    1.4078   -0.0067 C   0  0  0  0  0  0  0  0  0  0  0  0 
   -0.0046   -1.4662   -0.0808 C   0  0  0  0  0  0  0  0  0  0  0  0 
   -1.2178   -0.7692   -0.0454 C   0  0  0  0  0  0  0  0  0  0  0  0 
    1.2092   -0.7795   -0.0311 C   0  0  0  0  0  0  0  0  0  0  0  0 
    2.4940   -1.4397   -0.0375 C   0  0  0  0  0  0  0  0  0  0  0  0 
   -1.1565    0.6697    0.0357 C   0  0  0  0  0  0  0  0  0  0  0  0 
    1.1580    0.6680    0.0111 C   0  0  0  0  0  0  0  0  0  0  0  0 
    2.5399   -2.8390   -0.0821 N   0  0  0  0  0  0  0  0  0  0  0  0 
    0.0012    1.3506    0.0521 N   0  0  0  0  0  0  0  0  0  0  0  0 
   -4.6125   -1.1678   -0.0699 H   0  0  0  0  0  0  0  0  0  0  0  0 
   -4.5153    1.3155    0.0871 H   0  0  0  0  0  0  0  0  0  0  0  0 
    4.5077    1.3056   -0.0769 H   0  0  0  0  0  0  0  0  0  0  0  0 
   -2.5284   -2.4963   -0.1554 H   0  0  0  0  0  0  0  0  0  0  0  0 
    4.6114   -1.1650   -0.0699 H   0  0  0  0  0  0  0  0  0  0  0  0 
   -2.3168    2.4835    0.1489 H   0  0  0  0  0  0  0  0  0  0  0  0 
    2.3132    2.4901    0.0159 H   0  0  0  0  0  0  0  0  0  0  0  0 
   -0.0251   -2.5492   -0.1751 H   0  0  0  0  0  0  0  0  0  0  0  0 
    3.4680   -3.2151    0.0749 H   0  0  0  0  0  0  0  0  0  0  0  0 
    1.8687   -3.3018    0.5203 H   0  0  0  0  0  0  0  0  0  0  0  0 
  1  2  2  0  0  0  0 
  2  6  1  0  0  0  0 
  2 17  1  0  0  0  0 
  3  7  2  0  0  0  0 
  4  9  2  0  0  0  0 
  4  1  1  0  0  0  0 
  5  3  1  0  0  0  0 
  5 11  2  0  0  0  0 
  6 21  1  0  0  0  0 
  7 13  1  0  0  0  0 
  7 22  1  0  0  0  0 
  8  9  1  0  0  0  0 
  8 10  2  0  0  0  0 
  9 12  1  0  0  0  0 
 10 13  1  0  0  0  0 
 11 10  1  0  0  0  0 
 12 15  1  0  0  0  0 
 12  6  2  0  0  0  0 
 13 15  2  0  0  0  0 
 14 11  1  0  0  0  0 
 14 24  1  0  0  0  0 
 14 25  1  0  0  0  0 
 16  1  1  0  0  0  0 
 18  3  1  0  0  0  0 
 19  4  1  0  0  0  0 
 20  5  1  0  0  0  0 
 23  8  1  0  0  0  0 
M  END 
>  <HBA> 
2 
 
>  <HBD> 
1 
 
>  <TPSA> 
38.91 
 
>  <cid> 
11352 
 
>  <dipole> 
3.28 
 
>  <excitation_energy_1> 
2.884 
 
>  <excitation_energy_2> 
3.799 
 
>  <excitation_energy_3> 
3.829 
 
>  <excitation_energy_4> 
3.959 
 
>  <homo_energy> 
-5.208 
 
>  <homo_lumo_gap> 
3.38 
 
>  <logP> 
3.551 
 
>  <lumo_energy> 
-1.829 
 
>  <melting_point> 
158.65 
 
>  <molecular_refractivity> 
63.65 
 
>  <oscillator_strength_1> 
0.0562 
 
>  <oscillator_strength_2> 
0.0013 
 
>  <oscillator_strength_3> 
0.0024 
 
>  <oscillator_strength_4> 
0.0067 
 
>  <open_babel_can_smiles> 
Nc1cccc2c1cc1ccccc1n2 
 
>  <mulliken_charges> 
25 
1   -0.139663 
2   -0.136624 
3   -0.138667 
4   -0.188435 
5   -0.193815 
6   -0.143561 
7   -0.151307 
8   -0.238287 
9   0.159989 
10   0.123869 
11   0.243703 
12   0.250283 
13   0.242357 
14   -0.785864 
15   -0.606765 
16   0.132384 
17   0.133984 
18   0.131118 
19   0.129524 
20   0.116147 
21   0.143327 
22   0.136082 
23   0.136019 
24   0.322594 
25   0.321608 
 
>  <lowdin_charges> 
25 
1   -0.159815 
2   -0.152384 
3   -0.140944 
4   -0.15347 
5   -0.214754 
6   -0.15062 
7   -0.179869 
8   -0.131205 
9   -0.02073 
10   -0.039749 
11   0.05854 
12   0.045503 
13   0.053608 
14   -0.487477 
15   -0.15848 
16   0.159645 
17   0.160947 
18   0.160186 
19   0.155265 
20   0.152939 
21   0.167497 
22   0.165755 
23   0.157565 
24   0.275489 
25   0.276558 
 
$$$$ 
 
