PCCDB-ID:  10102 
public computational chemistry database (PCCDB) project, http://pccdb.org 
 
 39 41  0  0  1  0  0  0  0  0999 V2000 
    1.1160   -0.1414   -0.0430 C   0  0  0  0  0  0  0  0  0  0  0  0 
    2.7327    1.4663    0.9839 C   0  0  0  0  0  0  0  0  0  0  0  0 
    2.5422   -5.0605   -0.7580 C   0  0  0  0  0  0  0  0  0  0  0  0 
    5.7879   -3.0996    0.2374 C   0  0  0  0  0  0  0  0  0  0  0  0 
    3.1190   -1.9064    1.5073 C   0  0  0  0  0  0  0  0  0  0  0  0 
    4.7852   -4.2496    0.0136 C   0  0  0  0  0  0  0  0  0  0  0  0 
    5.6114   -1.9524   -0.7732 C   0  0  0  0  0  0  0  0  0  0  0  0 
    2.5749   -3.2450    0.9657 C   0  0  0  0  0  0  0  0  0  0  0  0 
    3.1213    0.5908   -1.3663 C   0  0  0  0  0  0  0  0  0  0  0  0 
    3.9410   -0.3439   -1.8511 C   0  0  0  0  0  0  0  0  0  0  0  0 
    3.3203   -2.7351   -1.3529 C   0  0  0  0  0  0  0  0  0  0  0  0 
    3.5943   -0.8879    0.4423 C   0  0  2  0  0  0  0  0  0  0  0  0 
    2.6060    0.2649    0.0263 C   0  0  0  0  0  0  0  0  0  0  0  0 
    3.3175   -3.8258   -0.2652 C   0  0  2  0  0  0  0  0  0  0  0  0 
    4.1382   -1.5019   -0.8949 C   0  0  1  0  0  0  0  0  0  0  0  0 
    0.7265   -0.4054    0.9478 H   0  0  0  0  0  0  0  0  0  0  0  0 
    0.5146    0.6973   -0.4151 H   0  0  0  0  0  0  0  0  0  0  0  0 
    0.9477   -0.9880   -0.7142 H   0  0  0  0  0  0  0  0  0  0  0  0 
    2.0885    2.2958    0.6660 H   0  0  0  0  0  0  0  0  0  0  0  0 
    3.7634    1.8366    1.0225 H   0  0  0  0  0  0  0  0  0  0  0  0 
    2.4332    1.1900    2.0032 H   0  0  0  0  0  0  0  0  0  0  0  0 
    2.5243   -5.8494    0.0052 H   0  0  0  0  0  0  0  0  0  0  0  0 
    3.0013   -5.4801   -1.6614 H   0  0  0  0  0  0  0  0  0  0  0  0 
    1.5024   -4.8061   -0.9979 H   0  0  0  0  0  0  0  0  0  0  0  0 
    6.8093   -3.4969    0.1708 H   0  0  0  0  0  0  0  0  0  0  0  0 
    5.6920   -2.7047    1.2544 H   0  0  0  0  0  0  0  0  0  0  0  0 
    3.9575   -2.1182    2.1787 H   0  0  0  0  0  0  0  0  0  0  0  0 
    2.3551   -1.4466    2.1483 H   0  0  0  0  0  0  0  0  0  0  0  0 
    4.8166   -4.9432    0.8655 H   0  0  0  0  0  0  0  0  0  0  0  0 
    5.1224   -4.8268   -0.8599 H   0  0  0  0  0  0  0  0  0  0  0  0 
    5.9564   -2.2825   -1.7647 H   0  0  0  0  0  0  0  0  0  0  0  0 
    6.2441   -1.1013   -0.4890 H   0  0  0  0  0  0  0  0  0  0  0  0 
    1.5242   -3.1153    0.6717 H   0  0  0  0  0  0  0  0  0  0  0  0 
    2.5716   -3.9840    1.7794 H   0  0  0  0  0  0  0  0  0  0  0  0 
    2.8019    1.4832   -1.9015 H   0  0  0  0  0  0  0  0  0  0  0  0 
    4.3934   -0.3307   -2.8409 H   0  0  0  0  0  0  0  0  0  0  0  0 
    2.2888   -2.4473   -1.5895 H   0  0  0  0  0  0  0  0  0  0  0  0 
    3.7534   -3.1287   -2.2844 H   0  0  0  0  0  0  0  0  0  0  0  0 
    4.4520   -0.3566    0.8778 H   0  0  0  0  0  0  0  0  0  0  0  0 
  1 13  1  0  0  0  0 
  1 16  1  0  0  0  0 
  2 20  1  0  0  0  0 
  2 21  1  0  0  0  0 
  3 22  1  0  0  0  0 
  4 26  1  0  0  0  0 
  5 28  1  0  0  0  0 
  5 27  1  0  0  0  0 
  6  4  1  0  0  0  0 
  6 29  1  0  0  0  0 
  7 32  1  0  0  0  0 
  7  4  1  0  0  0  0 
  8  5  1  0  0  0  0 
  8 34  1  0  0  0  0 
  9 13  1  0  0  0  0 
 10  9  2  0  0  0  0 
 11 15  1  0  0  0  0 
 11 14  1  0  0  0  0 
 12 39  1  1  0  0  0 
 12  5  1  0  0  0  0 
 13 12  1  0  0  0  0 
 13  2  1  0  0  0  0 
 14  3  1  6  0  0  0 
 14  6  1  0  0  0  0 
 14  8  1  0  0  0  0 
 15 10  1  6  0  0  0 
 15  7  1  0  0  0  0 
 15 12  1  0  0  0  0 
 17  1  1  0  0  0  0 
 18  1  1  0  0  0  0 
 19  2  1  0  0  0  0 
 23  3  1  0  0  0  0 
 24  3  1  0  0  0  0 
 25  4  1  0  0  0  0 
 30  6  1  0  0  0  0 
 31  7  1  0  0  0  0 
 33  8  1  0  0  0  0 
 35  9  1  0  0  0  0 
 36 10  1  0  0  0  0 
 37 11  1  0  0  0  0 
 38 11  1  0  0  0  0 
M  END 
>  <HBA> 
0 
 
>  <HBD> 
0 
 
>  <TPSA> 
0.0 
 
>  <cid> 
10102 
 
>  <dipole> 
0.18 
 
>  <excitation_energy_1> 
5.83 
 
>  <excitation_energy_2> 
6.194 
 
>  <excitation_energy_3> 
6.217 
 
>  <excitation_energy_4> 
6.287 
 
>  <homo_energy> 
-6.289 
 
>  <homo_lumo_gap> 
7.083 
 
>  <logP> 
4.559 
 
>  <lumo_energy> 
0.795 
 
>  <melting_point> 
101.04 
 
>  <molecular_refractivity> 
66.62 
 
>  <oscillator_strength_1> 
0.0374 
 
>  <oscillator_strength_2> 
0.0038 
 
>  <oscillator_strength_3> 
0.019 
 
>  <oscillator_strength_4> 
0.0202 
 
>  <open_babel_can_smiles> 
C[C@]12CCC[C@@]3(C2)[C@H](CC1)C(C=C3)(C)C 
 
>  <mulliken_charges> 
39 
1   -0.455251 
2   -0.456519 
3   -0.450179 
4   -0.274105 
5   -0.292714 
6   -0.2652 
7   -0.275098 
8   -0.264949 
9   -0.117912 
10   -0.120538 
11   -0.274214 
12   -0.117734 
13   0.062885 
14   0.096404 
15   0.051878 
16   0.14065 
17   0.138364 
18   0.151059 
19   0.136801 
20   0.143643 
21   0.13993 
22   0.136897 
23   0.136016 
24   0.135755 
25   0.130064 
26   0.137527 
27   0.136553 
28   0.131978 
29   0.124335 
30   0.124829 
31   0.122194 
32   0.129529 
33   0.128715 
34   0.123538 
35   0.11573 
36   0.116371 
37   0.131938 
38   0.118991 
39   0.121839 
 
>  <lowdin_charges> 
39 
1   -0.44682 
2   -0.442529 
3   -0.44005 
4   -0.280914 
5   -0.28832 
6   -0.27974 
7   -0.277522 
8   -0.277448 
9   -0.170162 
10   -0.166841 
11   -0.276145 
12   -0.128872 
13   0.012398 
14   0.003854 
15   0.001286 
16   0.146249 
17   0.149303 
18   0.15012 
19   0.146783 
20   0.147305 
21   0.14593 
22   0.146709 
23   0.145904 
24   0.144351 
25   0.1431 
26   0.140536 
27   0.143604 
28   0.145088 
29   0.141259 
30   0.140052 
31   0.136056 
32   0.142801 
33   0.138418 
34   0.140875 
35   0.150227 
36   0.149733 
37   0.140893 
38   0.137985 
39   0.144544 
 
$$$$ 
 
