PCCDB-ID:  25132 
public computational chemistry database (PCCDB) project, http://pccdb.org 
 
 27 28  0  0  1  0  0  0  0  0999 V2000 
    0.9065   -0.1099    0.1237 C   0  0  0  0  0  0  0  0  0  0  0  0 
    2.9138   -0.1288    1.5782 C   0  0  0  0  0  0  0  0  0  0  0  0 
    2.7707    2.5015   -0.3422 C   0  0  0  0  0  0  0  0  0  0  0  0 
    2.6197   -0.8629   -2.1985 C   0  0  0  0  0  0  0  0  0  0  0  0 
    2.5882    0.6962   -2.1866 C   0  0  0  0  0  0  0  0  0  0  0  0 
    4.5837    0.7002   -0.7253 C   0  0  0  0  0  0  0  0  0  0  0  0 
    3.0815   -1.2235   -0.7540 C   0  0  1  0  0  0  0  0  0  0  0  0 
    4.5584   -0.8385   -0.7225 C   0  0  0  0  0  0  0  0  0  0  0  0 
    2.4445   -0.0937    0.1112 C   0  0  0  0  0  0  0  0  0  0  0  0 
    3.0776    1.0685   -0.7578 C   0  0  1  0  0  0  0  0  0  0  0  0 
    5.5177   -1.5785   -0.7166 O   0  0  0  0  0  0  0  0  0  0  0  0 
    0.5426   -1.0073    0.6382 H   0  0  0  0  0  0  0  0  0  0  0  0 
    0.4567   -0.0980   -0.8720 H   0  0  0  0  0  0  0  0  0  0  0  0 
    0.5176    0.7568    0.6717 H   0  0  0  0  0  0  0  0  0  0  0  0 
    2.5047   -1.0128    2.0816 H   0  0  0  0  0  0  0  0  0  0  0  0 
    2.5559    0.7518    2.1248 H   0  0  0  0  0  0  0  0  0  0  0  0 
    4.0010   -0.1716    1.6919 H   0  0  0  0  0  0  0  0  0  0  0  0 
    3.2556    3.2166   -1.0182 H   0  0  0  0  0  0  0  0  0  0  0  0 
    3.1308    2.7138    0.6716 H   0  0  0  0  0  0  0  0  0  0  0  0 
    1.6937    2.7048   -0.3679 H   0  0  0  0  0  0  0  0  0  0  0  0 
    3.2997   -1.2700   -2.9537 H   0  0  0  0  0  0  0  0  0  0  0  0 
    1.6318   -1.2898   -2.3970 H   0  0  0  0  0  0  0  0  0  0  0  0 
    1.5798    1.0805   -2.3721 H   0  0  0  0  0  0  0  0  0  0  0  0 
    3.2382    1.1341   -2.9522 H   0  0  0  0  0  0  0  0  0  0  0  0 
    5.1464    1.0807   -1.5858 H   0  0  0  0  0  0  0  0  0  0  0  0 
    5.0943    1.0652    0.1736 H   0  0  0  0  0  0  0  0  0  0  0  0 
    2.8960   -2.2583   -0.4568 H   0  0  0  0  0  0  0  0  0  0  0  0 
  1 12  1  0  0  0  0 
  1 14  1  0  0  0  0 
  2 17  1  0  0  0  0 
  2 15  1  0  0  0  0 
  2 16  1  0  0  0  0 
  3 19  1  0  0  0  0 
  4  5  1  0  0  0  0 
  4  7  1  0  0  0  0 
  5 10  1  0  0  0  0 
  6  8  1  0  0  0  0 
  6 26  1  0  0  0  0 
  7  8  1  0  0  0  0 
  7 27  1  1  0  0  0 
  7  9  1  0  0  0  0 
  8 11  2  0  0  0  0 
  9  1  1  0  0  0  0 
  9  2  1  0  0  0  0 
 10  6  1  0  0  0  0 
 10  3  1  1  0  0  0 
 10  9  1  0  0  0  0 
 13  1  1  0  0  0  0 
 18  3  1  0  0  0  0 
 20  3  1  0  0  0  0 
 21  4  1  0  0  0  0 
 22  4  1  0  0  0  0 
 23  5  1  0  0  0  0 
 24  5  1  0  0  0  0 
 25  6  1  0  0  0  0 
M  END 
>  <HBA> 
1 
 
>  <HBD> 
0 
 
>  <TPSA> 
17.07 
 
>  <cid> 
25132 
 
>  <dipole> 
3.16 
 
>  <excitation_energy_1> 
4.2 
 
>  <excitation_energy_2> 
5.847 
 
>  <excitation_energy_3> 
6.266 
 
>  <excitation_energy_4> 
6.278 
 
>  <homo_energy> 
-6.223 
 
>  <homo_lumo_gap> 
5.992 
 
>  <logP> 
2.402 
 
>  <lumo_energy> 
-0.231 
 
>  <melting_point> 
74.7 
 
>  <molecular_refractivity> 
45.64 
 
>  <oscillator_strength_1> 
0.0003 
 
>  <oscillator_strength_2> 
0.0123 
 
>  <oscillator_strength_3> 
0.0044 
 
>  <oscillator_strength_4> 
0.0021 
 
>  <open_babel_can_smiles> 
O=C1C[C@@]2(C([C@H]1CC2)(C)C)C 
 
>  <mulliken_charges> 
27 
1   -0.46872 
2   -0.471024 
3   -0.476661 
4   -0.297503 
5   -0.28664 
6   -0.37194 
7   -0.165888 
8   0.452791 
9   0.084087 
10   0.08781 
11   -0.462175 
12   0.146097 
13   0.147136 
14   0.14688 
15   0.149023 
16   0.146198 
17   0.154404 
18   0.146492 
19   0.144696 
20   0.145055 
21   0.155583 
22   0.152336 
23   0.14064 
24   0.137793 
25   0.162808 
26   0.169083 
27   0.131638 
 
>  <lowdin_charges> 
27 
1   -0.447051 
2   -0.44769 
3   -0.443187 
4   -0.281096 
5   -0.287185 
6   -0.319596 
7   -0.162825 
8   0.156812 
9   0.004648 
10   0.003347 
11   -0.233039 
12   0.153257 
13   0.151694 
14   0.15251 
15   0.15493 
16   0.151606 
17   0.152898 
18   0.154465 
19   0.149793 
20   0.149019 
21   0.155097 
22   0.15285 
23   0.145046 
24   0.147216 
25   0.165595 
26   0.167602 
27   0.153284 
 
$$$$ 
 
