PCCDB-ID:  47488 
public computational chemistry database (PCCDB) project, http://pccdb.org 
 
 37 39  0  0  0  0  0  0  0  0999 V2000 
    2.2351   -0.9597   -0.7592 C   0  0  0  0  0  0  0  0  0  0  0  0 
    0.1644    6.8064   -0.7615 C   0  0  0  0  0  0  0  0  0  0  0  0 
    6.6461    4.9775   -2.5776 C   0  0  0  0  0  0  0  0  0  0  0  0 
    0.2619    6.0292   -1.9171 C   0  0  0  0  0  0  0  0  0  0  0  0 
    0.9509    6.4880    0.3462 C   0  0  0  0  0  0  0  0  0  0  0  0 
    5.6948    4.3948   -3.4145 C   0  0  0  0  0  0  0  0  0  0  0  0 
    6.3928    5.0530   -1.2073 C   0  0  0  0  0  0  0  0  0  0  0  0 
    1.1384    4.9449   -1.9616 C   0  0  0  0  0  0  0  0  0  0  0  0 
    1.8263    5.4019    0.2972 C   0  0  0  0  0  0  0  0  0  0  0  0 
    4.5075    3.8864   -2.8847 C   0  0  0  0  0  0  0  0  0  0  0  0 
    5.2052    4.5429   -0.6833 C   0  0  0  0  0  0  0  0  0  0  0  0 
    3.0921    2.6062    0.3884 C   0  0  0  0  0  0  0  0  0  0  0  0 
    2.3761    2.1310   -1.5917 C   0  0  0  0  0  0  0  0  0  0  0  0 
    1.9331    4.6135   -0.8558 C   0  0  0  0  0  0  0  0  0  0  0  0 
    4.2434    3.9420   -1.5092 C   0  0  0  0  0  0  0  0  0  0  0  0 
    3.0364    1.3157   -0.4550 C   0  0  0  0  0  0  0  0  0  0  0  0 
    2.9125    3.4456   -0.9248 C   0  0  0  0  0  0  0  0  0  0  0  0 
    2.2583    0.2207    0.1002 N   0  0  0  0  0  0  0  0  0  0  0  0 
    1.6985   -1.7693   -0.2538 H   0  0  0  0  0  0  0  0  0  0  0  0 
    3.2360   -1.3328   -1.0480 H   0  0  0  0  0  0  0  0  0  0  0  0 
    1.6910   -0.7272   -1.6819 H   0  0  0  0  0  0  0  0  0  0  0  0 
   -0.5202    7.6495   -0.7241 H   0  0  0  0  0  0  0  0  0  0  0  0 
    7.5722    5.3711   -2.9879 H   0  0  0  0  0  0  0  0  0  0  0  0 
   -0.3474    6.2653   -2.7859 H   0  0  0  0  0  0  0  0  0  0  0  0 
    0.8825    7.0837    1.2530 H   0  0  0  0  0  0  0  0  0  0  0  0 
    5.8738    4.3337   -4.4851 H   0  0  0  0  0  0  0  0  0  0  0  0 
    7.1207    5.5107   -0.5421 H   0  0  0  0  0  0  0  0  0  0  0  0 
    1.2041    4.3469   -2.8673 H   0  0  0  0  0  0  0  0  0  0  0  0 
    2.4295    5.1635    1.1697 H   0  0  0  0  0  0  0  0  0  0  0  0 
    3.7788    3.4460   -3.5587 H   0  0  0  0  0  0  0  0  0  0  0  0 
    5.0233    4.6227    0.3848 H   0  0  0  0  0  0  0  0  0  0  0  0 
    3.9860    2.7774    0.9951 H   0  0  0  0  0  0  0  0  0  0  0  0 
    2.2015    2.6790    1.0199 H   0  0  0  0  0  0  0  0  0  0  0  0 
    1.2868    2.0742   -1.5059 H   0  0  0  0  0  0  0  0  0  0  0  0 
    2.6717    1.9077   -2.6200 H   0  0  0  0  0  0  0  0  0  0  0  0 
    4.0548    1.0091   -0.7581 H   0  0  0  0  0  0  0  0  0  0  0  0 
    2.6542   -0.0339    1.0047 H   0  0  0  0  0  0  0  0  0  0  0  0 
  1 19  1  0  0  0  0 
  1 18  1  0  0  0  0 
  2 22  1  0  0  0  0 
  2  5  2  0  0  0  0 
  3  7  2  0  0  0  0 
  4  2  1  0  0  0  0 
  5 25  1  0  0  0  0 
  6 10  2  0  0  0  0 
  6  3  1  0  0  0  0 
  7 11  1  0  0  0  0 
  7 27  1  0  0  0  0 
  8  4  2  0  0  0  0 
  8 14  1  0  0  0  0 
  9  5  1  0  0  0  0 
  9 29  1  0  0  0  0 
 10 15  1  0  0  0  0 
 11 31  1  0  0  0  0 
 12 32  1  0  0  0  0 
 12 33  1  0  0  0  0 
 13 34  1  0  0  0  0 
 13 17  1  0  0  0  0 
 13 16  1  0  0  0  0 
 14  9  2  0  0  0  0 
 15 17  1  0  0  0  0 
 15 11  2  0  0  0  0 
 16 18  1  0  0  0  0 
 16 12  1  0  0  0  0 
 17 14  1  0  0  0  0 
 17 12  1  0  0  0  0 
 18 37  1  0  0  0  0 
 20  1  1  0  0  0  0 
 21  1  1  0  0  0  0 
 23  3  1  0  0  0  0 
 24  4  1  0  0  0  0 
 26  6  1  0  0  0  0 
 28  8  1  0  0  0  0 
 30 10  1  0  0  0  0 
 35 13  1  0  0  0  0 
 36 16  1  0  0  0  0 
M  END 
>  <HBA> 
1 
 
>  <HBD> 
1 
 
>  <TPSA> 
12.03 
 
>  <cid> 
47488 
 
>  <dipole> 
1.05 
 
>  <excitation_energy_1> 
5.019 
 
>  <excitation_energy_2> 
5.07 
 
>  <excitation_energy_3> 
5.109 
 
>  <excitation_energy_4> 
5.29 
 
>  <homo_energy> 
-5.875 
 
>  <homo_lumo_gap> 
5.693 
 
>  <logP> 
3.745 
 
>  <lumo_energy> 
-0.182 
 
>  <melting_point> 
91.59 
 
>  <molecular_refractivity> 
75.69 
 
>  <oscillator_strength_1> 
0.0217 
 
>  <oscillator_strength_2> 
0.0002 
 
>  <oscillator_strength_3> 
0.0014 
 
>  <oscillator_strength_4> 
0.0032 
 
>  <open_babel_can_smiles> 
CNC1CC(C1)(c1ccccc1)c1ccccc1 
 
>  <mulliken_charges> 
37 
1   -0.306181 
2   -0.129317 
3   -0.129057 
4   -0.130346 
5   -0.130535 
6   -0.130888 
7   -0.130414 
8   -0.171998 
9   -0.177446 
10   -0.17837 
11   -0.174274 
12   -0.310947 
13   -0.292947 
14   0.160356 
15   0.163359 
16   0.047923 
17   -0.099969 
18   -0.549145 
19   0.148154 
20   0.120128 
21   0.155984 
22   0.125838 
23   0.126822 
24   0.126656 
25   0.126303 
26   0.127084 
27   0.127098 
28   0.123992 
29   0.124635 
30   0.123935 
31   0.123753 
32   0.138652 
33   0.151819 
34   0.153081 
35   0.13915 
36   0.113443 
37   0.293669 
 
>  <lowdin_charges> 
37 
1   -0.362257 
2   -0.161957 
3   -0.160981 
4   -0.154929 
5   -0.155186 
6   -0.152933 
7   -0.156381 
8   -0.165098 
9   -0.168236 
10   -0.169223 
11   -0.162905 
12   -0.2931 
13   -0.289536 
14   0.004551 
15   0.003308 
16   -0.064584 
17   0.012376 
18   -0.358621 
19   0.151997 
20   0.120692 
21   0.149752 
22   0.156359 
23   0.156774 
24   0.156672 
25   0.156201 
26   0.154497 
27   0.157718 
28   0.155418 
29   0.155326 
30   0.155999 
31   0.152807 
32   0.144532 
33   0.157811 
34   0.156833 
35   0.142498 
36   0.120521 
37   0.253284 
 
$$$$ 
 
