PCCDB-ID:  14543 
public computational chemistry database (PCCDB) project, http://pccdb.org 
 
 26 26  0  0  0  0  0  0  0  0999 V2000 
    0.6168   -0.4619   -1.3056 C   0  0  0  0  0  0  0  0  0  0  0  0 
    2.7121   -1.8920   -1.3740 C   0  0  0  0  0  0  0  0  0  0  0  0 
    2.8389    0.6301   -1.1752 C   0  0  0  0  0  0  0  0  0  0  0  0 
    4.3370    0.8006   -1.1258 C   0  0  0  0  0  0  0  0  0  0  0  0 
    4.5009    1.5903   -3.5410 C   0  0  0  0  0  0  0  0  0  0  0  0 
    5.7829    2.7562   -1.8843 C   0  0  0  0  0  0  0  0  0  0  0  0 
    5.0151    2.4246   -4.5328 C   0  0  0  0  0  0  0  0  0  0  0  0 
    6.3063    3.5995   -2.8616 C   0  0  0  0  0  0  0  0  0  0  0  0 
    2.1272   -0.5032   -1.2822 C   0  0  0  0  0  0  0  0  0  0  0  0 
    4.8764    1.7354   -2.2002 C   0  0  0  0  0  0  0  0  0  0  0  0 
    5.9227    3.4336   -4.1952 C   0  0  0  0  0  0  0  0  0  0  0  0 
    6.4616    4.2868   -5.1218 O   0  0  0  0  0  0  0  0  0  0  0  0 
    0.2225   -0.9092   -2.2291 H   0  0  0  0  0  0  0  0  0  0  0  0 
    0.2347    0.5611   -1.2339 H   0  0  0  0  0  0  0  0  0  0  0  0 
    0.1918   -1.0432   -0.4749 H   0  0  0  0  0  0  0  0  0  0  0  0 
    2.3587   -2.4016   -2.2812 H   0  0  0  0  0  0  0  0  0  0  0  0 
    2.3812   -2.5076   -0.5258 H   0  0  0  0  0  0  0  0  0  0  0  0 
    3.8044   -1.9045   -1.3869 H   0  0  0  0  0  0  0  0  0  0  0  0 
    2.2841    1.5678   -1.1192 H   0  0  0  0  0  0  0  0  0  0  0  0 
    4.8411   -0.1710   -1.1983 H   0  0  0  0  0  0  0  0  0  0  0  0 
    4.6181    1.2087   -0.1439 H   0  0  0  0  0  0  0  0  0  0  0  0 
    3.7883    0.8161   -3.8139 H   0  0  0  0  0  0  0  0  0  0  0  0 
    6.0888    2.8956   -0.8495 H   0  0  0  0  0  0  0  0  0  0  0  0 
    4.7068    2.2948   -5.5694 H   0  0  0  0  0  0  0  0  0  0  0  0 
    7.0067    4.3895   -2.6090 H   0  0  0  0  0  0  0  0  0  0  0  0 
    6.1059    4.0634   -5.9957 H   0  0  0  0  0  0  0  0  0  0  0  0 
  1  9  1  0  0  0  0 
  1 14  1  0  0  0  0 
  1 15  1  0  0  0  0 
  2  9  1  0  0  0  0 
  2 17  1  0  0  0  0 
  3  4  1  0  0  0  0 
  3 19  1  0  0  0  0 
  4 21  1  0  0  0  0 
  5 10  2  0  0  0  0 
  6 23  1  0  0  0  0 
  7 11  2  0  0  0  0 
  7  5  1  0  0  0  0 
  8 25  1  0  0  0  0 
  8  6  2  0  0  0  0 
  9  3  2  0  0  0  0 
 10  6  1  0  0  0  0 
 10  4  1  0  0  0  0 
 11  8  1  0  0  0  0 
 12 11  1  0  0  0  0 
 13  1  1  0  0  0  0 
 16  2  1  0  0  0  0 
 18  2  1  0  0  0  0 
 20  4  1  0  0  0  0 
 22  5  1  0  0  0  0 
 24  7  1  0  0  0  0 
 26 12  1  0  0  0  0 
M  END 
>  <HBA> 
1 
 
>  <HBD> 
1 
 
>  <TPSA> 
20.23 
 
>  <cid> 
14543 
 
>  <dipole> 
1.64 
 
>  <excitation_energy_1> 
4.868 
 
>  <excitation_energy_2> 
5.057 
 
>  <excitation_energy_3> 
5.38 
 
>  <excitation_energy_4> 
5.479 
 
>  <homo_energy> 
-5.69 
 
>  <homo_lumo_gap> 
5.755 
 
>  <logP> 
2.901 
 
>  <lumo_energy> 
0.065 
 
>  <melting_point> 
58.68 
 
>  <molecular_refractivity> 
52.19 
 
>  <oscillator_strength_1> 
0.0448 
 
>  <oscillator_strength_2> 
0.0012 
 
>  <oscillator_strength_3> 
0.041 
 
>  <oscillator_strength_4> 
0.021 
 
>  <open_babel_can_smiles> 
CC(=CCc1ccc(cc1)O)C 
 
>  <mulliken_charges> 
26 
1   -0.505306 
2   -0.512844 
3   -0.150255 
4   -0.39065 
5   -0.178781 
6   -0.199849 
7   -0.194203 
8   -0.156308 
9   0.179094 
10   0.168714 
11   0.347674 
12   -0.645394 
13   0.14823 
14   0.152777 
15   0.149432 
16   0.150949 
17   0.153539 
18   0.154816 
19   0.117418 
20   0.153116 
21   0.147852 
22   0.130267 
23   0.122599 
24   0.115023 
25   0.136578 
26   0.405512 
 
>  <lowdin_charges> 
26 
1   -0.439857 
2   -0.44438 
3   -0.188671 
4   -0.270421 
5   -0.152232 
6   -0.155729 
7   -0.212823 
8   -0.186228 
9   -0.012198 
10   -0.023413 
11   0.098335 
12   -0.381665 
13   0.152343 
14   0.154364 
15   0.153516 
16   0.154953 
17   0.156815 
18   0.153319 
19   0.149126 
20   0.154416 
21   0.153733 
22   0.160518 
23   0.153545 
24   0.150003 
25   0.166419 
26   0.356213 
 
$$$$ 
 
