PCCDB-ID:  25788 
public computational chemistry database (PCCDB) project, http://pccdb.org 
 
 28 29  0  0  0  0  0  0  0  0999 V2000 
    0.7413   -0.5453   -0.0159 C   0  0  0  0  0  0  0  0  0  0  0  0 
    3.3132    3.4029    0.2021 C   0  0  0  0  0  0  0  0  0  0  0  0 
    7.8079   -3.4982   -0.1010 C   0  0  0  0  0  0  0  0  0  0  0  0 
    6.5890   -3.9054   -0.6451 C   0  0  0  0  0  0  0  0  0  0  0  0 
    7.9104   -2.2298    0.4764 C   0  0  0  0  0  0  0  0  0  0  0  0 
    5.4858   -3.0540   -0.6167 C   0  0  0  0  0  0  0  0  0  0  0  0 
    6.8063   -1.3833    0.5186 C   0  0  0  0  0  0  0  0  0  0  0  0 
    4.3412    0.5020    0.0879 C   0  0  0  0  0  0  0  0  0  0  0  0 
    2.2164   -0.3119    0.0036 C   0  0  0  0  0  0  0  0  0  0  0  0 
    2.3670    2.2126    0.1322 C   0  0  0  0  0  0  0  0  0  0  0  0 
    5.5720   -1.7779   -0.0302 C   0  0  0  0  0  0  0  0  0  0  0  0 
    2.9595    0.8715    0.0797 C   0  0  0  0  0  0  0  0  0  0  0  0 
    4.4227   -0.8743    0.0122 C   0  0  0  0  0  0  0  0  0  0  0  0 
    3.1120   -1.3378   -0.0473 N   0  0  0  0  0  0  0  0  0  0  0  0 
    1.1497    2.3782    0.1211 O   0  0  0  0  0  0  0  0  0  0  0  0 
    0.2717   -0.0144   -0.8497 H   0  0  0  0  0  0  0  0  0  0  0  0 
    0.2697   -0.1590    0.8934 H   0  0  0  0  0  0  0  0  0  0  0  0 
    0.5135   -1.6140   -0.1047 H   0  0  0  0  0  0  0  0  0  0  0  0 
    3.9712    3.4298   -0.6753 H   0  0  0  0  0  0  0  0  0  0  0  0 
    3.9567    3.3388    1.0882 H   0  0  0  0  0  0  0  0  0  0  0  0 
    2.7272    4.3228    0.2444 H   0  0  0  0  0  0  0  0  0  0  0  0 
    8.6687   -4.1603   -0.1267 H   0  0  0  0  0  0  0  0  0  0  0  0 
    6.4976   -4.8854   -1.1062 H   0  0  0  0  0  0  0  0  0  0  0  0 
    8.8528   -1.9028    0.9078 H   0  0  0  0  0  0  0  0  0  0  0  0 
    4.5584   -3.3747   -1.0858 H   0  0  0  0  0  0  0  0  0  0  0  0 
    6.8878   -0.4116    0.9971 H   0  0  0  0  0  0  0  0  0  0  0  0 
    5.1856    1.1770    0.1059 H   0  0  0  0  0  0  0  0  0  0  0  0 
    2.8527   -2.3139   -0.0278 H   0  0  0  0  0  0  0  0  0  0  0  0 
  1  9  1  0  0  0  0 
  1 17  1  0  0  0  0 
  2 21  1  0  0  0  0 
  2 20  1  0  0  0  0 
  3  5  2  0  0  0  0 
  4  6  2  0  0  0  0 
  4  3  1  0  0  0  0 
  5  7  1  0  0  0  0 
  5 24  1  0  0  0  0 
  6 11  1  0  0  0  0 
  7 26  1  0  0  0  0 
  8 27  1  0  0  0  0 
  9 12  2  0  0  0  0 
 10  2  1  0  0  0  0 
 11 13  1  0  0  0  0 
 11  7  2  0  0  0  0 
 12  8  1  0  0  0  0 
 12 10  1  0  0  0  0 
 13  8  2  0  0  0  0 
 14 28  1  0  0  0  0 
 14  9  1  0  0  0  0 
 14 13  1  0  0  0  0 
 15 10  2  0  0  0  0 
 16  1  1  0  0  0  0 
 18  1  1  0  0  0  0 
 19  2  1  0  0  0  0 
 22  3  1  0  0  0  0 
 23  4  1  0  0  0  0 
 25  6  1  0  0  0  0 
M  END 
>  <HBA> 
1 
 
>  <HBD> 
1 
 
>  <TPSA> 
32.86 
 
>  <cid> 
25788 
 
>  <dipole> 
3.55 
 
>  <excitation_energy_1> 
4.063 
 
>  <excitation_energy_2> 
4.142 
 
>  <excitation_energy_3> 
4.335 
 
>  <excitation_energy_4> 
4.467 
 
>  <homo_energy> 
-5.399 
 
>  <homo_lumo_gap> 
4.71 
 
>  <logP> 
3.193 
 
>  <lumo_energy> 
-0.688 
 
>  <melting_point> 
128.6 
 
>  <molecular_refractivity> 
61.39 
 
>  <oscillator_strength_1> 
0.012 
 
>  <oscillator_strength_2> 
0.3004 
 
>  <oscillator_strength_3> 
0.1709 
 
>  <oscillator_strength_4> 
0.1144 
 
>  <open_babel_can_smiles> 
CC(=O)c1cc([nH]c1C)c1ccccc1 
 
>  <mulliken_charges> 
28 
1   -0.502723 
2   -0.535612 
3   -0.128748 
4   -0.131211 
5   -0.135673 
6   -0.191523 
7   -0.173089 
8   -0.260552 
9   0.340847 
10   0.393253 
11   0.134931 
12   -0.005452 
13   0.2567 
14   -0.692972 
15   -0.491043 
16   0.191906 
17   0.188716 
18   0.131497 
19   0.165713 
20   0.164066 
21   0.173756 
22   0.131116 
23   0.131496 
24   0.132891 
25   0.116747 
26   0.13357 
27   0.13333 
28   0.328067 
 
>  <lowdin_charges> 
28 
1   -0.439188 
2   -0.47333 
3   -0.163072 
4   -0.150026 
5   -0.15076 
6   -0.175589 
7   -0.157417 
8   -0.208761 
9   0.054537 
10   0.155886 
11   -0.003497 
12   -0.106403 
13   0.003491 
14   -0.164117 
15   -0.273464 
16   0.181529 
17   0.179006 
18   0.14613 
19   0.167318 
20   0.166509 
21   0.170549 
22   0.159694 
23   0.158098 
24   0.159488 
25   0.150278 
26   0.159979 
27   0.165109 
28   0.288018 
 
$$$$ 
 
