PCCDB-ID:  18458 
public computational chemistry database (PCCDB) project, http://pccdb.org 
 
 18 17  0  0  0  0  0  0  0  0999 V2000 
    3.1490   -2.1598   -0.1948 C   0  0  0  0  0  0  0  0  0  0  0  0 
    5.8006    1.1663    0.6640 C   0  0  0  0  0  0  0  0  0  0  0  0 
    3.5958   -0.7410   -0.5918 C   0  0  0  0  0  0  0  0  0  0  0  0 
    3.4330    0.2401    0.5351 C   0  0  0  0  0  0  0  0  0  0  0  0 
    4.3634    1.0343    1.0973 C   0  0  0  0  0  0  0  0  0  0  0  0 
    3.9759    1.9904    2.1929 C   0  0  0  0  0  0  0  0  0  0  0  0 
    4.5424    3.0427    2.3758 O   0  0  0  0  0  0  0  0  0  0  0  0 
    2.9368    1.6315    2.9990 O   0  0  0  0  0  0  0  0  0  0  0  0 
    3.2202   -2.8417   -1.0488 H   0  0  0  0  0  0  0  0  0  0  0  0 
    2.1088   -2.1670    0.1523 H   0  0  0  0  0  0  0  0  0  0  0  0 
    3.7742   -2.5583    0.6117 H   0  0  0  0  0  0  0  0  0  0  0  0 
    6.0493    0.5089   -0.1710 H   0  0  0  0  0  0  0  0  0  0  0  0 
    6.4799    0.9425    1.4953 H   0  0  0  0  0  0  0  0  0  0  0  0 
    6.0011    2.2022    0.3717 H   0  0  0  0  0  0  0  0  0  0  0  0 
    2.9825   -0.4028   -1.4401 H   0  0  0  0  0  0  0  0  0  0  0  0 
    4.6298   -0.7666   -0.9476 H   0  0  0  0  0  0  0  0  0  0  0  0 
    2.4075    0.3098    0.9050 H   0  0  0  0  0  0  0  0  0  0  0  0 
    2.7109    0.7019    2.8324 H   0  0  0  0  0  0  0  0  0  0  0  0 
  1 10  1  0  0  0  0 
  1 11  1  0  0  0  0 
  2  5  1  0  0  0  0 
  2 13  1  0  0  0  0 
  3  1  1  0  0  0  0 
  3  4  1  0  0  0  0 
  4 17  1  0  0  0  0 
  4  5  2  0  0  0  0 
  5  6  1  0  0  0  0 
  6  7  2  0  0  0  0 
  6  8  1  0  0  0  0 
  9  1  1  0  0  0  0 
 12  2  1  0  0  0  0 
 14  2  1  0  0  0  0 
 15  3  1  0  0  0  0 
 16  3  1  0  0  0  0 
 18  8  1  0  0  0  0 
M  END 
>  <HBA> 
2 
 
>  <HBD> 
1 
 
>  <TPSA> 
37.3 
 
>  <cid> 
18458 
 
>  <dipole> 
4.84 
 
>  <excitation_energy_1> 
4.821 
 
>  <excitation_energy_2> 
5.846 
 
>  <excitation_energy_3> 
6.355 
 
>  <excitation_energy_4> 
6.602 
 
>  <homo_energy> 
-7.176 
 
>  <homo_lumo_gap> 
6.177 
 
>  <logP> 
1.427 
 
>  <lumo_energy> 
-0.999 
 
>  <melting_point> 
63.81 
 
>  <molecular_refractivity> 
32.25 
 
>  <oscillator_strength_1> 
0.0031 
 
>  <oscillator_strength_2> 
0.3382 
 
>  <oscillator_strength_3> 
0.0145 
 
>  <oscillator_strength_4> 
0.0084 
 
>  <open_babel_can_smiles> 
C/C(=C\CC)/C(=O)O 
 
>  <mulliken_charges> 
18 
1   -0.446876 
2   -0.510652 
3   -0.300992 
4   -0.161725 
5   0.073175 
6   0.550322 
7   -0.446629 
8   -0.570638 
9   0.155338 
10   0.147347 
11   0.154656 
12   0.151884 
13   0.16839 
14   0.192289 
15   0.159246 
16   0.153786 
17   0.126829 
18   0.404249 
 
>  <lowdin_charges> 
18 
1   -0.44178 
2   -0.439232 
3   -0.27209 
4   -0.157625 
5   -0.054343 
6   0.189894 
7   -0.241063 
8   -0.358568 
9   0.156924 
10   0.148119 
11   0.153763 
12   0.156483 
13   0.166944 
14   0.178817 
15   0.159178 
16   0.152375 
17   0.148985 
18   0.353217 
 
$$$$ 
 
