PCCDB-ID:  13398 
public computational chemistry database (PCCDB) project, http://pccdb.org 
 
 26 26  0  0  1  0  0  0  0  0999 V2000 
    0.9640   -0.1062   -0.3703 C   0  0  0  0  0  0  0  0  0  0  0  0 
    3.1993    2.5577    2.9466 C   0  0  0  0  0  0  0  0  0  0  0  0 
    0.9778    1.4707    2.6107 C   0  0  0  0  0  0  0  0  0  0  0  0 
    2.9766   -1.2145    0.7396 C   0  0  0  0  0  0  0  0  0  0  0  0 
    2.8043    1.3259    0.7950 C   0  0  0  0  0  0  0  0  0  0  0  0 
    3.0360    0.0418    2.9645 C   0  0  0  0  0  0  0  0  0  0  0  0 
    2.4494    0.0441    0.0012 C   0  0  2  0  0  0  0  0  0  0  0  0 
    2.5920   -1.2033    2.2118 C   0  0  0  0  0  0  0  0  0  0  0  0 
    2.4877    1.3452    2.3155 C   0  0  0  0  0  0  0  0  0  0  0  0 
    1.9689   -2.1062    2.7394 O   0  0  0  0  0  0  0  0  0  0  0  0 
    0.8403   -0.9099   -1.1056 H   0  0  0  0  0  0  0  0  0  0  0  0 
    0.5742    0.8167   -0.8155 H   0  0  0  0  0  0  0  0  0  0  0  0 
    0.3338   -0.3575    0.4877 H   0  0  0  0  0  0  0  0  0  0  0  0 
    2.8243    3.4969    2.5212 H   0  0  0  0  0  0  0  0  0  0  0  0 
    4.2819    2.5207    2.7754 H   0  0  0  0  0  0  0  0  0  0  0  0 
    3.0302    2.5916    4.0295 H   0  0  0  0  0  0  0  0  0  0  0  0 
    0.5406    2.3166    2.0670 H   0  0  0  0  0  0  0  0  0  0  0  0 
    0.8164    1.6428    3.6817 H   0  0  0  0  0  0  0  0  0  0  0  0 
    0.4176    0.5712    2.3436 H   0  0  0  0  0  0  0  0  0  0  0  0 
    4.0752   -1.2264    0.6833 H   0  0  0  0  0  0  0  0  0  0  0  0 
    2.6053   -2.1359    0.2808 H   0  0  0  0  0  0  0  0  0  0  0  0 
    2.3246    2.1915    0.3181 H   0  0  0  0  0  0  0  0  0  0  0  0 
    3.8874    1.4855    0.6879 H   0  0  0  0  0  0  0  0  0  0  0  0 
    4.1359    0.0742    2.9427 H   0  0  0  0  0  0  0  0  0  0  0  0 
    2.7219   -0.0431    4.0099 H   0  0  0  0  0  0  0  0  0  0  0  0 
    2.9979    0.1141   -0.9482 H   0  0  0  0  0  0  0  0  0  0  0  0 
  1  7  1  0  0  0  0 
  1 13  1  0  0  0  0 
  2 16  1  0  0  0  0 
  3 18  1  0  0  0  0 
  4  8  1  0  0  0  0 
  5  9  1  0  0  0  0 
  6 25  1  0  0  0  0 
  7 26  1  6  0  0  0 
  7  4  1  0  0  0  0 
  7  5  1  0  0  0  0 
  8 10  2  0  0  0  0 
  8  6  1  0  0  0  0 
  9  3  1  0  0  0  0 
  9  2  1  0  0  0  0 
  9  6  1  0  0  0  0 
 11  1  1  0  0  0  0 
 12  1  1  0  0  0  0 
 14  2  1  0  0  0  0 
 15  2  1  0  0  0  0 
 17  3  1  0  0  0  0 
 19  3  1  0  0  0  0 
 20  4  1  0  0  0  0 
 21  4  1  0  0  0  0 
 22  5  1  0  0  0  0 
 23  5  1  0  0  0  0 
 24  6  1  0  0  0  0 
M  END 
>  <HBA> 
1 
 
>  <HBD> 
0 
 
>  <TPSA> 
17.07 
 
>  <cid> 
13398 
 
>  <dipole> 
3.03 
 
>  <excitation_energy_1> 
4.169 
 
>  <excitation_energy_2> 
5.879 
 
>  <excitation_energy_3> 
6.388 
 
>  <excitation_energy_4> 
6.499 
 
>  <homo_energy> 
-6.324 
 
>  <homo_lumo_gap> 
6.008 
 
>  <logP> 
2.402 
 
>  <lumo_energy> 
-0.316 
 
>  <melting_point> 
34.1 
 
>  <molecular_refractivity> 
43.2 
 
>  <oscillator_strength_1> 
0.0 
 
>  <oscillator_strength_2> 
0.013 
 
>  <oscillator_strength_3> 
0.0119 
 
>  <oscillator_strength_4> 
0.0012 
 
>  <open_babel_can_smiles> 
C[C@@H]1CC(=O)CC(C1)(C)C 
 
>  <mulliken_charges> 
26 
1   -0.452205 
2   -0.445005 
3   -0.454397 
4   -0.343844 
5   -0.268958 
6   -0.340027 
7   -0.090838 
8   0.447931 
9   0.084047 
10   -0.451761 
11   0.146533 
12   0.142698 
13   0.15963 
14   0.142759 
15   0.138335 
16   0.143917 
17   0.140731 
18   0.144388 
19   0.159592 
20   0.147912 
21   0.158659 
22   0.1322 
23   0.126378 
24   0.143826 
25   0.155882 
26   0.131616 
 
>  <lowdin_charges> 
26 
1   -0.451414 
2   -0.437397 
3   -0.447043 
4   -0.30727 
5   -0.281062 
6   -0.303093 
7   -0.121246 
8   0.157109 
9   0.014399 
10   -0.237388 
11   0.152363 
12   0.150058 
13   0.154017 
14   0.149606 
15   0.144064 
16   0.14806 
17   0.14984 
18   0.149384 
19   0.155185 
20   0.156313 
21   0.161787 
22   0.146378 
23   0.139561 
24   0.154298 
25   0.159107 
26   0.144381 
 
$$$$ 
 
