PCCDB-ID:  30903 
public computational chemistry database (PCCDB) project, http://pccdb.org 
 
 23 23  0  0  0  0  0  0  0  0999 V2000 
    4.1118   -1.1253   -1.6391 C   0  0  0  0  0  0  0  0  0  0  0  0 
   -0.3173    3.9403   -2.3433 C   0  0  0  0  0  0  0  0  0  0  0  0 
   -0.3786    3.1176   -3.6601 C   0  0  0  0  0  0  0  0  0  0  0  0 
    0.0015    2.8784   -1.2563 C   0  0  0  0  0  0  0  0  0  0  0  0 
   -0.0652    1.6602   -3.2178 C   0  0  0  0  0  0  0  0  0  0  0  0 
    2.1083    1.9576   -2.1070 C   0  0  0  0  0  0  0  0  0  0  0  0 
    2.7761    0.6336   -2.4541 C   0  0  0  0  0  0  0  0  0  0  0  0 
    0.6630    1.7525   -1.9372 N   0  0  0  0  0  0  0  0  0  0  0  0 
    2.6888    0.0692   -3.5248 O   0  0  0  0  0  0  0  0  0  0  0  0 
    3.4784    0.1449   -1.4110 O   0  0  0  0  0  0  0  0  0  0  0  0 
    4.6314   -1.3647   -0.7110 H   0  0  0  0  0  0  0  0  0  0  0  0 
    4.8183   -1.0571   -2.4707 H   0  0  0  0  0  0  0  0  0  0  0  0 
    3.3648   -1.8888   -1.8714 H   0  0  0  0  0  0  0  0  0  0  0  0 
   -1.2529    4.4672   -2.1297 H   0  0  0  0  0  0  0  0  0  0  0  0 
    0.4726    4.6982   -2.3925 H   0  0  0  0  0  0  0  0  0  0  0  0 
    0.3632    3.4786   -4.3804 H   0  0  0  0  0  0  0  0  0  0  0  0 
   -1.3550    3.1834   -4.1504 H   0  0  0  0  0  0  0  0  0  0  0  0 
   -0.9316    2.5002   -0.8190 H   0  0  0  0  0  0  0  0  0  0  0  0 
    0.6204    3.2537   -0.4363 H   0  0  0  0  0  0  0  0  0  0  0  0 
    0.5139    1.0890   -3.9452 H   0  0  0  0  0  0  0  0  0  0  0  0 
   -0.9994    1.1163   -3.0304 H   0  0  0  0  0  0  0  0  0  0  0  0 
    2.3728    2.6780   -2.9016 H   0  0  0  0  0  0  0  0  0  0  0  0 
    2.5202    2.3209   -1.1633 H   0  0  0  0  0  0  0  0  0  0  0  0 
  1 10  1  0  0  0  0 
  1 11  1  0  0  0  0 
  2 14  1  0  0  0  0 
  2  4  1  0  0  0  0 
  3  5  1  0  0  0  0 
  3  2  1  0  0  0  0 
  4 18  1  0  0  0  0 
  4 19  1  0  0  0  0 
  5 21  1  0  0  0  0 
  5  8  1  0  0  0  0 
  6  8  1  0  0  0  0 
  6 23  1  0  0  0  0 
  7  6  1  0  0  0  0 
  7 10  1  0  0  0  0 
  8  4  1  0  0  0  0 
  9  7  2  0  0  0  0 
 12  1  1  0  0  0  0 
 13  1  1  0  0  0  0 
 15  2  1  0  0  0  0 
 16  3  1  0  0  0  0 
 17  3  1  0  0  0  0 
 20  5  1  0  0  0  0 
 22  6  1  0  0  0  0 
M  END 
>  <HBA> 
3 
 
>  <HBD> 
0 
 
>  <TPSA> 
29.54 
 
>  <cid> 
30903 
 
>  <dipole> 
1.46 
 
>  <excitation_energy_1> 
4.857 
 
>  <excitation_energy_2> 
5.397 
 
>  <excitation_energy_3> 
5.741 
 
>  <excitation_energy_4> 
5.876 
 
>  <homo_energy> 
-5.85 
 
>  <homo_lumo_gap> 
6.106 
 
>  <logP> 
0.193 
 
>  <lumo_energy> 
0.256 
 
>  <melting_point> 
10.43 
 
>  <molecular_refractivity> 
41.74 
 
>  <oscillator_strength_1> 
0.0036 
 
>  <oscillator_strength_2> 
0.0204 
 
>  <oscillator_strength_3> 
0.0015 
 
>  <oscillator_strength_4> 
0.0036 
 
>  <open_babel_can_smiles> 
COC(=O)CN1CCCC1 
 
>  <mulliken_charges> 
23 
1   -0.220293 
2   -0.286885 
3   -0.288017 
4   -0.141796 
5   -0.165448 
6   -0.205514 
7   0.625068 
8   -0.386641 
9   -0.474137 
10   -0.440328 
11   0.164346 
12   0.16989 
13   0.173546 
14   0.140138 
15   0.139758 
16   0.14373 
17   0.140383 
18   0.146442 
19   0.138698 
20   0.178971 
21   0.142387 
22   0.142328 
23   0.163374 
 
>  <lowdin_charges> 
23 
1   -0.280629 
2   -0.303487 
3   -0.303111 
4   -0.21078 
5   -0.220346 
6   -0.223195 
7   0.198226 
8   -0.183756 
9   -0.267308 
10   -0.184639 
11   0.160953 
12   0.159744 
13   0.162168 
14   0.148827 
15   0.144935 
16   0.147422 
17   0.149041 
18   0.14478 
19   0.147131 
20   0.16703 
21   0.143435 
22   0.140788 
23   0.16277 
 
$$$$ 
 
