PCCDB-ID:  69210 
public computational chemistry database (PCCDB) project, http://pccdb.org 
 
 22 21  0  0  0  0  0  0  0  0999 V2000 
    2.8087    1.5476    1.5290 C   0  0  0  0  0  0  0  0  0  0  0  0 
    6.8798   -5.3261    0.1237 C   0  0  0  0  0  0  0  0  0  0  0  0 
    2.6159    0.2751    0.7001 C   0  0  0  0  0  0  0  0  0  0  0  0 
    7.0738   -4.0573    0.9582 C   0  0  0  0  0  0  0  0  0  0  0  0 
    4.1384   -1.6471    1.0244 C   0  0  0  0  0  0  0  0  0  0  0  0 
    5.5510   -2.1355    0.6335 C   0  0  0  0  0  0  0  0  0  0  0  0 
    3.8597   -0.4464    0.4813 N   0  0  0  0  0  0  0  0  0  0  0  0 
    5.8310   -3.3348    1.1792 N   0  0  0  0  0  0  0  0  0  0  0  0 
    3.3987   -2.3176    1.7440 O   0  0  0  0  0  0  0  0  0  0  0  0 
    6.2901   -1.4658   -0.0875 O   0  0  0  0  0  0  0  0  0  0  0  0 
    1.8504    2.0626    1.6616 H   0  0  0  0  0  0  0  0  0  0  0  0 
    3.4990    2.2431    1.0374 H   0  0  0  0  0  0  0  0  0  0  0  0 
    3.2121    1.3085    2.5181 H   0  0  0  0  0  0  0  0  0  0  0  0 
    7.8377   -5.8410   -0.0117 H   0  0  0  0  0  0  0  0  0  0  0  0 
    6.4761   -5.0822   -0.8642 H   0  0  0  0  0  0  0  0  0  0  0  0 
    6.1893   -6.0234    0.6125 H   0  0  0  0  0  0  0  0  0  0  0  0 
    2.1714    0.5191   -0.2733 H   0  0  0  0  0  0  0  0  0  0  0  0 
    1.9437   -0.4207    1.2083 H   0  0  0  0  0  0  0  0  0  0  0  0 
    7.7477   -3.3606    0.4534 H   0  0  0  0  0  0  0  0  0  0  0  0 
    7.5167   -4.3062    1.9310 H   0  0  0  0  0  0  0  0  0  0  0  0 
    4.6085   -0.0464   -0.0750 H   0  0  0  0  0  0  0  0  0  0  0  0 
    5.0814   -3.7360    1.7336 H   0  0  0  0  0  0  0  0  0  0  0  0 
  1 11  1  0  0  0  0 
  1 13  1  0  0  0  0 
  2 16  1  0  0  0  0 
  2  4  1  0  0  0  0 
  3 18  1  0  0  0  0 
  3  1  1  0  0  0  0 
  4  8  1  0  0  0  0 
  4 20  1  0  0  0  0 
  5  9  2  0  0  0  0 
  6  5  1  0  0  0  0 
  6  8  1  0  0  0  0 
  7  3  1  0  0  0  0 
  7  5  1  0  0  0  0 
  8 22  1  0  0  0  0 
 10  6  2  0  0  0  0 
 12  1  1  0  0  0  0 
 14  2  1  0  0  0  0 
 15  2  1  0  0  0  0 
 17  3  1  0  0  0  0 
 19  4  1  0  0  0  0 
 21  7  1  0  0  0  0 
M  END 
>  <HBA> 
4 
 
>  <HBD> 
2 
 
>  <TPSA> 
58.2 
 
>  <cid> 
69210 
 
>  <dipole> 
0.0 
 
>  <excitation_energy_1> 
4.259 
 
>  <excitation_energy_2> 
5.55 
 
>  <excitation_energy_3> 
5.884 
 
>  <excitation_energy_4> 
5.891 
 
>  <homo_energy> 
-6.485 
 
>  <homo_lumo_gap> 
5.761 
 
>  <logP> 
0.04 
 
>  <lumo_energy> 
-0.724 
 
>  <melting_point> 
70.58 
 
>  <molecular_refractivity> 
36.96 
 
>  <oscillator_strength_1> 
0.0 
 
>  <oscillator_strength_2> 
0.0 
 
>  <oscillator_strength_3> 
0.0182 
 
>  <oscillator_strength_4> 
0.2861 
 
>  <open_babel_can_smiles> 
CCNC(=O)C(=O)NCC 
 
>  <mulliken_charges> 
22 
1   -0.441999 
2   -0.441971 
3   -0.134323 
4   -0.134383 
5   0.549267 
6   0.549204 
7   -0.584107 
8   -0.584015 
9   -0.54638 
10   -0.546413 
11   0.151837 
12   0.147763 
13   0.164059 
14   0.151836 
15   0.164102 
16   0.147759 
17   0.152703 
18   0.187381 
19   0.187335 
20   0.152689 
21   0.353832 
22   0.353825 
 
>  <lowdin_charges> 
22 
1   -0.449849 
2   -0.449903 
3   -0.194287 
4   -0.194301 
5   0.125146 
6   0.125161 
7   -0.245596 
8   -0.245595 
9   -0.323509 
10   -0.323531 
11   0.156594 
12   0.151566 
13   0.158632 
14   0.156598 
15   0.158671 
16   0.151556 
17   0.148804 
18   0.173061 
19   0.173039 
20   0.148873 
21   0.299436 
22   0.299434 
 
$$$$ 
 
