PCCDB-ID:  49091 
public computational chemistry database (PCCDB) project, http://pccdb.org 
 
 28 28  0  0  1  0  0  0  0  0999 V2000 
    0.8113    1.1333   -1.3149 C   0  0  0  0  0  0  0  0  0  0  0  0 
    2.3437   -1.6328   -1.3123 C   0  0  0  0  0  0  0  0  0  0  0  0 
    2.3309    0.9371   -1.3611 C   0  0  0  0  0  0  0  0  0  0  0  0 
    4.4204    1.1085    1.5307 C   0  0  0  0  0  0  0  0  0  0  0  0 
    5.1629    1.7914    2.4947 C   0  0  0  0  0  0  0  0  0  0  0  0 
    6.4743    0.4943    0.4220 C   0  0  0  0  0  0  0  0  0  0  0  0 
    2.8298   -0.3434   -0.6385 C   0  0  2  0  0  0  0  0  0  0  0  0 
    5.0681    0.4494    0.4791 C   0  0  0  0  0  0  0  0  0  0  0  0 
    6.5557    1.8284    2.4339 C   0  0  0  0  0  0  0  0  0  0  0  0 
    7.2204    1.1661    1.3766 C   0  0  0  0  0  0  0  0  0  0  0  0 
    4.3628   -0.3078   -0.6019 C   0  0  0  0  0  0  0  0  0  0  0  0 
    7.3318    2.4734    3.3459 O   0  0  0  0  0  0  0  0  0  0  0  0 
    8.5834    1.2354    1.3655 O   0  0  0  0  0  0  0  0  0  0  0  0 
    5.0095   -0.8692   -1.4784 O   0  0  0  0  0  0  0  0  0  0  0  0 
    0.5300    2.0759   -1.7981 H   0  0  0  0  0  0  0  0  0  0  0  0 
    0.4474    1.1687   -0.2803 H   0  0  0  0  0  0  0  0  0  0  0  0 
    0.2767    0.3278   -1.8288 H   0  0  0  0  0  0  0  0  0  0  0  0 
    1.2506   -1.6788   -1.3314 H   0  0  0  0  0  0  0  0  0  0  0  0 
    2.7080   -2.5151   -0.7752 H   0  0  0  0  0  0  0  0  0  0  0  0 
    2.7191   -1.6954   -2.3375 H   0  0  0  0  0  0  0  0  0  0  0  0 
    2.8156    1.8133   -0.9115 H   0  0  0  0  0  0  0  0  0  0  0  0 
    2.6724    0.8983   -2.4039 H   0  0  0  0  0  0  0  0  0  0  0  0 
    3.3395    1.1025    1.6140 H   0  0  0  0  0  0  0  0  0  0  0  0 
    4.6559    2.3033    3.3108 H   0  0  0  0  0  0  0  0  0  0  0  0 
    6.9646   -0.0209   -0.4004 H   0  0  0  0  0  0  0  0  0  0  0  0 
    2.4470   -0.3192    0.3900 H   0  0  0  0  0  0  0  0  0  0  0  0 
    6.7566    2.8802    4.0129 H   0  0  0  0  0  0  0  0  0  0  0  0 
    8.9070    0.7422    0.5953 H   0  0  0  0  0  0  0  0  0  0  0  0 
  1 16  1  0  0  0  0 
  2 19  1  0  0  0  0 
  2  7  1  0  0  0  0 
  3  1  1  0  0  0  0 
  3 21  1  0  0  0  0 
  3  7  1  0  0  0  0 
  4 23  1  0  0  0  0 
  4  5  2  0  0  0  0 
  5 24  1  0  0  0  0 
  6  8  2  0  0  0  0 
  6 10  1  0  0  0  0 
  7 11  1  0  0  0  0 
  7 26  1  1  0  0  0 
  8  4  1  0  0  0  0 
  9  5  1  0  0  0  0 
  9 12  1  0  0  0  0 
 10  9  2  0  0  0  0 
 11  8  1  0  0  0  0 
 12 27  1  0  0  0  0 
 13 10  1  0  0  0  0 
 14 11  2  0  0  0  0 
 15  1  1  0  0  0  0 
 17  1  1  0  0  0  0 
 18  2  1  0  0  0  0 
 20  2  1  0  0  0  0 
 22  3  1  0  0  0  0 
 25  6  1  0  0  0  0 
 28 13  1  0  0  0  0 
M  END 
>  <HBA> 
3 
 
>  <HBD> 
2 
 
>  <TPSA> 
57.53 
 
>  <cid> 
49091 
 
>  <dipole> 
3.05 
 
>  <excitation_energy_1> 
3.762 
 
>  <excitation_energy_2> 
4.221 
 
>  <excitation_energy_3> 
4.751 
 
>  <excitation_energy_4> 
5.075 
 
>  <homo_energy> 
-5.932 
 
>  <homo_lumo_gap> 
4.683 
 
>  <logP> 
2.327 
 
>  <lumo_energy> 
-1.249 
 
>  <melting_point> 
118.17 
 
>  <molecular_refractivity> 
55.1 
 
>  <oscillator_strength_1> 
0.0009 
 
>  <oscillator_strength_2> 
0.1306 
 
>  <oscillator_strength_3> 
0.1439 
 
>  <oscillator_strength_4> 
0.0002 
 
>  <open_babel_can_smiles> 
CC[C@H](C(=O)c1ccc(c(c1)O)O)C 
 
>  <mulliken_charges> 
28 
1   -0.445848 
2   -0.446029 
3   -0.259543 
4   -0.192974 
5   -0.205334 
6   -0.243196 
7   -0.158901 
8   0.075294 
9   0.333967 
10   0.332965 
11   0.394042 
12   -0.621018 
13   -0.633906 
14   -0.483985 
15   0.147557 
16   0.139359 
17   0.152669 
18   0.13907 
19   0.148196 
20   0.166685 
21   0.14032 
22   0.150905 
23   0.137681 
24   0.124443 
25   0.154704 
26   0.128388 
27   0.411735 
28   0.412753 
 
>  <lowdin_charges> 
28 
1   -0.445443 
2   -0.439428 
3   -0.270363 
4   -0.156953 
5   -0.210442 
6   -0.183149 
7   -0.152605 
8   -0.059997 
9   0.092228 
10   0.078371 
11   0.160624 
12   -0.354844 
13   -0.36849 
14   -0.257437 
15   0.153245 
16   0.144314 
17   0.152141 
18   0.1461 
19   0.154788 
20   0.160354 
21   0.14628 
22   0.14899 
23   0.161042 
24   0.157539 
25   0.17553 
26   0.141913 
27   0.36292 
28   0.362773 
 
$$$$ 
 
