PCCDB-ID:  65630 
public computational chemistry database (PCCDB) project, http://pccdb.org 
 
 34 36  0  0  1  0  0  0  0  0999 V2000 
   -1.1415    0.7692    1.0935 C   0  0  0  0  0  0  0  0  0  0  0  0 
   -0.1915    0.1286    1.8927 C   0  0  0  0  0  0  0  0  0  0  0  0 
   -0.7854    1.2468   -0.1706 C   0  0  0  0  0  0  0  0  0  0  0  0 
    1.1137   -0.0361    1.4320 C   0  0  0  0  0  0  0  0  0  0  0  0 
    0.5173    1.0838   -0.6346 C   0  0  0  0  0  0  0  0  0  0  0  0 
    7.1134   -1.8524    0.3519 C   0  0  0  0  0  0  0  0  0  0  0  0 
    5.8587   -0.9708    2.3420 C   0  0  0  0  0  0  0  0  0  0  0  0 
    7.9121   -0.5089    0.3277 C   0  0  0  0  0  0  0  0  0  0  0  0 
    6.7147    0.3300    2.2338 C   0  0  0  0  0  0  0  0  0  0  0  0 
    5.9016    0.7617    0.0163 C   0  0  0  0  0  0  0  0  0  0  0  0 
    5.7096   -1.5652    0.9263 C   0  0  1  0  0  0  0  0  0  0  0  0 
    1.4737    0.4423    0.1645 C   0  0  0  0  0  0  0  0  0  0  0  0 
    5.0463   -0.5412   -0.0028 C   0  0  1  0  0  0  0  0  0  0  0  0 
    2.8514    0.2930   -0.3864 C   0  0  0  0  0  0  0  0  0  0  0  0 
    7.1070    0.6108    0.8420 N   0  0  2  0  0  0  0  0  0  0  0  0 
    3.1885    0.6687   -1.4940 O   0  0  0  0  0  0  0  0  0  0  0  0 
    3.6957   -0.3141    0.4790 O   0  0  0  0  0  0  0  0  0  0  0  0 
   -2.1585    0.8958    1.4554 H   0  0  0  0  0  0  0  0  0  0  0  0 
   -0.4682   -0.2436    2.8753 H   0  0  0  0  0  0  0  0  0  0  0  0 
   -1.5238    1.7448   -0.7929 H   0  0  0  0  0  0  0  0  0  0  0  0 
    1.8553   -0.5341    2.0463 H   0  0  0  0  0  0  0  0  0  0  0  0 
    0.8166    1.4454   -1.6128 H   0  0  0  0  0  0  0  0  0  0  0  0 
    7.6148   -2.6022    0.9754 H   0  0  0  0  0  0  0  0  0  0  0  0 
    7.0308   -2.2798   -0.6553 H   0  0  0  0  0  0  0  0  0  0  0  0 
    4.8714   -0.7606    2.7655 H   0  0  0  0  0  0  0  0  0  0  0  0 
    6.3388   -1.7083    2.9967 H   0  0  0  0  0  0  0  0  0  0  0  0 
    8.2267   -0.2565   -0.6913 H   0  0  0  0  0  0  0  0  0  0  0  0 
    8.8203   -0.5782    0.9369 H   0  0  0  0  0  0  0  0  0  0  0  0 
    7.6311    0.2530    2.8300 H   0  0  0  0  0  0  0  0  0  0  0  0 
    6.1595    1.1984    2.6062 H   0  0  0  0  0  0  0  0  0  0  0  0 
    5.3040    1.5860    0.4200 H   0  0  0  0  0  0  0  0  0  0  0  0 
    6.2000    1.0383   -0.9997 H   0  0  0  0  0  0  0  0  0  0  0  0 
    5.1077   -2.4801    0.9536 H   0  0  0  0  0  0  0  0  0  0  0  0 
    4.9633   -0.9364   -1.0192 H   0  0  0  0  0  0  0  0  0  0  0  0 
  1 18  1  0  0  0  0 
  1  2  2  0  0  0  0 
  2 19  1  0  0  0  0 
  3  1  1  0  0  0  0 
  4  2  1  0  0  0  0 
  4 21  1  0  0  0  0 
  5  3  2  0  0  0  0 
  5 12  1  0  0  0  0 
  6 11  1  0  0  0  0 
  6 23  1  0  0  0  0 
  7 25  1  0  0  0  0 
  7 26  1  0  0  0  0 
  8  6  1  0  0  0  0 
  8 15  1  0  0  0  0 
  8 28  1  0  0  0  0 
  9  7  1  0  0  0  0 
  9 30  1  0  0  0  0 
  9 29  1  0  0  0  0 
 10 31  1  0  0  0  0 
 11 33  1  1  0  0  0 
 11  7  1  0  0  0  0 
 12  4  2  0  0  0  0 
 13 34  1  6  0  0  0 
 13 10  1  0  0  0  0 
 13 17  1  0  0  0  0 
 13 11  1  0  0  0  0 
 14 12  1  0  0  0  0 
 14 17  1  0  0  0  0 
 15 10  1  6  0  0  0 
 15  9  1  0  0  0  0 
 16 14  2  0  0  0  0 
 20  3  1  0  0  0  0 
 22  5  1  0  0  0  0 
 24  6  1  0  0  0  0 
 27  8  1  0  0  0  0 
 32 10  1  0  0  0  0 
M  END 
>  <HBA> 
3 
 
>  <HBD> 
0 
 
>  <TPSA> 
29.54 
 
>  <cid> 
65630 
 
>  <dipole> 
2.49 
 
>  <excitation_energy_1> 
3.794 
 
>  <excitation_energy_2> 
4.82 
 
>  <excitation_energy_3> 
4.835 
 
>  <excitation_energy_4> 
4.941 
 
>  <homo_energy> 
-5.649 
 
>  <homo_lumo_gap> 
4.46 
 
>  <logP> 
1.875 
 
>  <lumo_energy> 
-1.189 
 
>  <melting_point> 
73.07 
 
>  <molecular_refractivity> 
69.15 
 
>  <oscillator_strength_1> 
0.0224 
 
>  <oscillator_strength_2> 
0.0002 
 
>  <oscillator_strength_3> 
0.0014 
 
>  <oscillator_strength_4> 
0.0186 
 
>  <open_babel_can_smiles> 
O=C(c1ccccc1)O[C@H]1CN2CC[C@H]1CC2 
 
>  <mulliken_charges> 
34 
1   -0.117011 
2   -0.137274 
3   -0.138279 
4   -0.161333 
5   -0.151631 
6   -0.291293 
7   -0.289693 
8   -0.148558 
9   -0.147265 
10   -0.168658 
11   -0.125503 
12   0.045267 
13   0.137962 
14   0.59694 
15   -0.372558 
16   -0.496188 
17   -0.507296 
18   0.136759 
19   0.135912 
20   0.137881 
21   0.156177 
22   0.163567 
23   0.139366 
24   0.138548 
25   0.151275 
26   0.134384 
27   0.144957 
28   0.143002 
29   0.140915 
30   0.14506 
31   0.155513 
32   0.160095 
33   0.134677 
34   0.154283 
 
>  <lowdin_charges> 
34 
1   -0.139559 
2   -0.156615 
3   -0.157541 
4   -0.142273 
5   -0.129745 
6   -0.301908 
7   -0.304345 
8   -0.211625 
9   -0.212354 
10   -0.220745 
11   -0.136137 
12   -0.045129 
13   -0.013068 
14   0.19375 
15   -0.181427 
16   -0.273812 
17   -0.191147 
18   0.16017 
19   0.160103 
20   0.163093 
21   0.172063 
22   0.176625 
23   0.148981 
24   0.145014 
25   0.150061 
26   0.146054 
27   0.146203 
28   0.146407 
29   0.145375 
30   0.147958 
31   0.157415 
32   0.156536 
33   0.14959 
34   0.152032 
 
$$$$ 
 
