PCCDB-ID:  22510 
public computational chemistry database (PCCDB) project, http://pccdb.org 
 
 26 26  0  0  0  0  0  0  0  0999 V2000 
    1.1212   -0.5163   -0.4417 C   0  0  0  0  0  0  0  0  0  0  0  0 
    3.1686   -1.0730    0.8935 C   0  0  0  0  0  0  0  0  0  0  0  0 
    3.3837   -0.3177   -1.5047 C   0  0  0  0  0  0  0  0  0  0  0  0 
    4.0778    1.8413    0.6452 C   0  0  0  0  0  0  0  0  0  0  0  0 
    0.8168    2.4709    1.1440 C   0  0  0  0  0  0  0  0  0  0  0  0 
    1.3580    3.1921   -0.0893 C   0  0  0  0  0  0  0  0  0  0  0  0 
    2.5944   -0.1396   -0.1914 C   0  0  0  0  0  0  0  0  0  0  0  0 
    2.6730    1.3441    0.2871 C   0  0  0  0  0  0  0  0  0  0  0  0 
    1.8469    1.5374    1.4537 O   0  0  0  0  0  0  0  0  0  0  0  0 
    2.1126    2.1744   -0.7346 O   0  0  0  0  0  0  0  0  0  0  0  0 
    1.0530   -1.5582   -0.7756 H   0  0  0  0  0  0  0  0  0  0  0  0 
    0.6771    0.1171   -1.2153 H   0  0  0  0  0  0  0  0  0  0  0  0 
    0.5273   -0.4194    0.4729 H   0  0  0  0  0  0  0  0  0  0  0  0 
    3.0159   -2.1189    0.6022 H   0  0  0  0  0  0  0  0  0  0  0  0 
    2.6706   -0.9121    1.8551 H   0  0  0  0  0  0  0  0  0  0  0  0 
    4.2453   -0.9286    1.0350 H   0  0  0  0  0  0  0  0  0  0  0  0 
    3.2646   -1.3434   -1.8734 H   0  0  0  0  0  0  0  0  0  0  0  0 
    4.4565   -0.1436   -1.3686 H   0  0  0  0  0  0  0  0  0  0  0  0 
    3.0209    0.3662   -2.2784 H   0  0  0  0  0  0  0  0  0  0  0  0 
    4.4734    1.3108    1.5153 H   0  0  0  0  0  0  0  0  0  0  0  0 
    4.0291    2.9049    0.8976 H   0  0  0  0  0  0  0  0  0  0  0  0 
    4.7709    1.7192   -0.1914 H   0  0  0  0  0  0  0  0  0  0  0  0 
   -0.1244    1.9489    0.9209 H   0  0  0  0  0  0  0  0  0  0  0  0 
    0.6638    3.1288    2.0057 H   0  0  0  0  0  0  0  0  0  0  0  0 
    1.9947    4.0452    0.1898 H   0  0  0  0  0  0  0  0  0  0  0  0 
    0.5850    3.5387   -0.7808 H   0  0  0  0  0  0  0  0  0  0  0  0 
  1  7  1  0  0  0  0 
  1 13  1  0  0  0  0 
  2 16  1  0  0  0  0 
  2 15  1  0  0  0  0 
  3 18  1  0  0  0  0 
  3  7  1  0  0  0  0 
  4 21  1  0  0  0  0 
  4 20  1  0  0  0  0 
  5  9  1  0  0  0  0 
  5 24  1  0  0  0  0 
  6 25  1  0  0  0  0 
  6  5  1  0  0  0  0 
  7  8  1  0  0  0  0 
  7  2  1  0  0  0  0 
  8  4  1  0  0  0  0 
  8  9  1  0  0  0  0 
 10  6  1  0  0  0  0 
 10  8  1  0  0  0  0 
 11  1  1  0  0  0  0 
 12  1  1  0  0  0  0 
 14  2  1  0  0  0  0 
 17  3  1  0  0  0  0 
 19  3  1  0  0  0  0 
 22  4  1  0  0  0  0 
 23  5  1  0  0  0  0 
 26  6  1  0  0  0  0 
M  END 
>  <HBA> 
2 
 
>  <HBD> 
0 
 
>  <TPSA> 
18.46 
 
>  <cid> 
22510 
 
>  <dipole> 
1.11 
 
>  <excitation_energy_1> 
6.342 
 
>  <excitation_energy_2> 
6.65 
 
>  <excitation_energy_3> 
6.713 
 
>  <excitation_energy_4> 
6.795 
 
>  <homo_energy> 
-6.683 
 
>  <homo_lumo_gap> 
8.819 
 
>  <logP> 
1.796 
 
>  <lumo_energy> 
2.136 
 
>  <melting_point> 
6.5 
 
>  <molecular_refractivity> 
40.4 
 
>  <oscillator_strength_1> 
0.0064 
 
>  <oscillator_strength_2> 
0.0144 
 
>  <oscillator_strength_3> 
0.0209 
 
>  <oscillator_strength_4> 
0.0066 
 
>  <open_babel_can_smiles> 
CC(C1(C)OCCO1)(C)C 
 
>  <mulliken_charges> 
26 
1   -0.462801 
2   -0.461185 
3   -0.458857 
4   -0.464289 
5   -0.035459 
6   -0.056755 
7   0.084289 
8   0.554834 
9   -0.525443 
10   -0.513657 
11   0.134767 
12   0.150418 
13   0.151613 
14   0.138279 
15   0.161149 
16   0.139067 
17   0.137669 
18   0.137794 
19   0.162705 
20   0.157884 
21   0.144299 
22   0.152469 
23   0.13718 
24   0.144892 
25   0.136185 
26   0.152953 
 
>  <lowdin_charges> 
26 
1   -0.447658 
2   -0.443011 
3   -0.444504 
4   -0.460072 
5   -0.143397 
6   -0.14683 
7   0.002865 
8   0.21861 
9   -0.275824 
10   -0.261953 
11   0.145374 
12   0.153494 
13   0.152977 
14   0.147731 
15   0.157447 
16   0.144579 
17   0.147676 
18   0.14389 
19   0.159408 
20   0.161639 
21   0.154011 
22   0.157705 
23   0.135711 
24   0.149541 
25   0.13443 
26   0.156158 
 
$$$$ 
 
