PCCDB-ID:  56516 
public computational chemistry database (PCCDB) project, http://pccdb.org 
 
 38 38  0  0  1  0  0  0  0  0999 V2000 
    8.8417   -2.6402    1.1709 C   0  0  0  0  0  0  0  0  0  0  0  0 
    9.0646   -4.7360   -0.2477 C   0  0  0  0  0  0  0  0  0  0  0  0 
    1.7009   -5.3276    5.1002 C   0  0  0  0  0  0  0  0  0  0  0  0 
    0.6617   -5.2515    2.7838 C   0  0  0  0  0  0  0  0  0  0  0  0 
    7.0656   -3.2087   -0.5487 C   0  0  0  0  0  0  0  0  0  0  0  0 
    2.8437   -4.0501    3.2660 C   0  0  0  0  0  0  0  0  0  0  0  0 
    8.5517   -3.2894   -0.1903 C   0  0  0  0  0  0  0  0  0  0  0  0 
    1.9671   -5.2709    3.5889 C   0  0  0  0  0  0  0  0  0  0  0  0 
    4.9159   -3.8798    0.2123 C   0  0  2  0  0  0  0  0  0  0  0  0 
    4.2445   -4.6483    1.3944 C   0  0  2  0  0  0  0  0  0  0  0  0 
    3.9030   -5.6177   -0.6295 C   0  0  0  0  0  0  0  0  0  0  0  0 
    4.4918   -4.5462   -1.0176 N   0  0  0  0  0  0  0  0  0  0  0  0 
    3.8474   -5.8826    0.7230 N   0  0  0  0  0  0  0  0  0  0  0  0 
    3.3531   -6.5362   -1.4399 O   0  0  0  0  0  0  0  0  0  0  0  0 
    6.3117   -3.9365    0.4180 O   0  0  0  0  0  0  0  0  0  0  0  0 
    3.1582   -3.8918    1.8837 O   0  0  0  0  0  0  0  0  0  0  0  0 
    9.9142   -2.6627    1.3965 H   0  0  0  0  0  0  0  0  0  0  0  0 
    8.3137   -3.1684    1.9716 H   0  0  0  0  0  0  0  0  0  0  0  0 
    8.5167   -1.5926    1.1888 H   0  0  0  0  0  0  0  0  0  0  0  0 
   10.1382   -4.7806   -0.0303 H   0  0  0  0  0  0  0  0  0  0  0  0 
    8.9030   -5.1754   -1.2394 H   0  0  0  0  0  0  0  0  0  0  0  0 
    8.5411   -5.3604    0.4835 H   0  0  0  0  0  0  0  0  0  0  0  0 
    1.1083   -6.2114    5.3605 H   0  0  0  0  0  0  0  0  0  0  0  0 
    1.1414   -4.4439    5.4331 H   0  0  0  0  0  0  0  0  0  0  0  0 
    2.6344   -5.3693    5.6741 H   0  0  0  0  0  0  0  0  0  0  0  0 
    0.0680   -6.1536    2.9714 H   0  0  0  0  0  0  0  0  0  0  0  0 
    0.8586   -5.1820    1.7095 H   0  0  0  0  0  0  0  0  0  0  0  0 
    0.0486   -4.3846    3.0622 H   0  0  0  0  0  0  0  0  0  0  0  0 
    6.8849   -3.6240   -1.5490 H   0  0  0  0  0  0  0  0  0  0  0  0 
    6.7321   -2.1566   -0.5578 H   0  0  0  0  0  0  0  0  0  0  0  0 
    3.7731   -4.0874    3.8556 H   0  0  0  0  0  0  0  0  0  0  0  0 
    2.3091   -3.1342    3.5457 H   0  0  0  0  0  0  0  0  0  0  0  0 
    9.0745   -2.7087   -0.9657 H   0  0  0  0  0  0  0  0  0  0  0  0 
    2.5348   -6.1758    3.3191 H   0  0  0  0  0  0  0  0  0  0  0  0 
    4.5777   -2.8337    0.2108 H   0  0  0  0  0  0  0  0  0  0  0  0 
    4.9627   -4.8481    2.1974 H   0  0  0  0  0  0  0  0  0  0  0  0 
    3.0845   -6.4378    1.0873 H   0  0  0  0  0  0  0  0  0  0  0  0 
    3.5027   -6.2138   -2.3461 H   0  0  0  0  0  0  0  0  0  0  0  0 
  1 19  1  0  0  0  0 
  1 17  1  0  0  0  0 
  1 18  1  0  0  0  0 
  2  7  1  0  0  0  0 
  2 20  1  0  0  0  0 
  2 22  1  0  0  0  0 
  3 23  1  0  0  0  0 
  3 24  1  0  0  0  0 
  3 25  1  0  0  0  0 
  4 26  1  0  0  0  0 
  4 28  1  0  0  0  0 
  4  8  1  0  0  0  0 
  5  7  1  0  0  0  0 
  5 15  1  0  0  0  0 
  6 32  1  0  0  0  0 
  6  8  1  0  0  0  0 
  6 31  1  0  0  0  0 
  7  1  1  0  0  0  0 
  8  3  1  0  0  0  0 
  9 35  1  6  0  0  0 
  9 15  1  0  0  0  0 
  9 10  1  0  0  0  0 
 10 16  1  0  0  0  0 
 10 36  1  1  0  0  0 
 11 13  1  0  0  0  0 
 12 11  2  0  0  0  0 
 12  9  1  0  0  0  0 
 13 37  1  0  0  0  0 
 13 10  1  0  0  0  0 
 14 11  1  0  0  0  0 
 16  6  1  0  0  0  0 
 21  2  1  0  0  0  0 
 27  4  1  0  0  0  0 
 29  5  1  0  0  0  0 
 30  5  1  0  0  0  0 
 33  7  1  0  0  0  0 
 34  8  1  0  0  0  0 
 38 14  1  0  0  0  0 
M  END 
>  <HBA> 
5 
 
>  <HBD> 
2 
 
>  <TPSA> 
59.59 
 
>  <cid> 
56516 
 
>  <dipole> 
1.99 
 
>  <excitation_energy_1> 
5.689 
 
>  <excitation_energy_2> 
6.035 
 
>  <excitation_energy_3> 
6.279 
 
>  <excitation_energy_4> 
6.31 
 
>  <homo_energy> 
-6.245 
 
>  <homo_lumo_gap> 
7.554 
 
>  <logP> 
1.954 
 
>  <lumo_energy> 
1.309 
 
>  <melting_point> 
60.88 
 
>  <molecular_refractivity> 
69.07 
 
>  <oscillator_strength_1> 
0.0023 
 
>  <oscillator_strength_2> 
0.0019 
 
>  <oscillator_strength_3> 
0.0408 
 
>  <oscillator_strength_4> 
0.0232 
 
>  <open_babel_can_smiles> 
CC(CO[C@H]1N=C(N[C@@H]1OCC(C)C)O)C 
 
>  <mulliken_charges> 
38 
1   -0.440445 
2   -0.440267 
3   -0.449665 
4   -0.445409 
5   -0.007005 
6   -0.020864 
7   -0.09256 
8   -0.102528 
9   0.227634 
10   0.232633 
11   0.684093 
12   -0.503582 
13   -0.613107 
14   -0.609094 
15   -0.493486 
16   -0.483974 
17   0.135916 
18   0.155728 
19   0.134022 
20   0.134456 
21   0.137228 
22   0.159319 
23   0.150359 
24   0.145655 
25   0.145537 
26   0.14261 
27   0.156819 
28   0.143995 
29   0.143722 
30   0.111672 
31   0.129188 
32   0.143317 
33   0.121665 
34   0.11813 
35   0.136805 
36   0.150362 
37   0.336199 
38   0.424923 
 
>  <lowdin_charges> 
38 
1   -0.444593 
2   -0.445038 
3   -0.445759 
4   -0.448478 
5   -0.128986 
6   -0.134727 
7   -0.127966 
8   -0.140215 
9   0.047579 
10   0.03962 
11   0.160147 
12   -0.304923 
13   -0.306745 
14   -0.350651 
15   -0.269325 
16   -0.26037 
17   0.144378 
18   0.154564 
19   0.143934 
20   0.143614 
21   0.146648 
22   0.156797 
23   0.155107 
24   0.149741 
25   0.150291 
26   0.149968 
27   0.15313 
28   0.150246 
29   0.140316 
30   0.123646 
31   0.134195 
32   0.148239 
33   0.140754 
34   0.131841 
35   0.135736 
36   0.147328 
37   0.28656 
38   0.373398 
 
$$$$ 
 
