PCCDB-ID:  20444 
public computational chemistry database (PCCDB) project, http://pccdb.org 
 
 31 32  0  0  0  0  0  0  0  0999 V2000 
    2.0135    3.9451   -0.4828 C   0  0  0  0  0  0  0  0  0  0  0  0 
    4.0609   -2.9780   -2.5405 C   0  0  0  0  0  0  0  0  0  0  0  0 
    1.5750    3.1244   -1.5222 C   0  0  0  0  0  0  0  0  0  0  0  0 
    2.6029    3.3691    0.6450 C   0  0  0  0  0  0  0  0  0  0  0  0 
    3.8623   -1.5028   -2.9219 C   0  0  0  0  0  0  0  0  0  0  0  0 
    3.5248   -3.2680   -1.1299 C   0  0  0  0  0  0  0  0  0  0  0  0 
    1.7263    1.7389   -1.4329 C   0  0  0  0  0  0  0  0  0  0  0  0 
    2.7525    1.9851    0.7275 C   0  0  0  0  0  0  0  0  0  0  0  0 
    4.4788   -0.5591   -1.8749 C   0  0  0  0  0  0  0  0  0  0  0  0 
    4.1482   -2.3210   -0.0904 C   0  0  0  0  0  0  0  0  0  0  0  0 
    2.5063   -0.3546   -0.2154 C   0  0  0  0  0  0  0  0  0  0  0  0 
    2.3205    1.1460   -0.3108 C   0  0  0  0  0  0  0  0  0  0  0  0 
    3.9679   -0.8273   -0.4420 C   0  0  0  0  0  0  0  0  0  0  0  0 
    1.8928    5.0232   -0.5472 H   0  0  0  0  0  0  0  0  0  0  0  0 
    5.1349   -3.2159   -2.5725 H   0  0  0  0  0  0  0  0  0  0  0  0 
    3.5743   -3.6318   -3.2758 H   0  0  0  0  0  0  0  0  0  0  0  0 
    1.1100    3.5605   -2.4028 H   0  0  0  0  0  0  0  0  0  0  0  0 
    2.9407    3.9986    1.4644 H   0  0  0  0  0  0  0  0  0  0  0  0 
    2.7871   -1.2982   -3.0256 H   0  0  0  0  0  0  0  0  0  0  0  0 
    4.3063   -1.3022   -3.9055 H   0  0  0  0  0  0  0  0  0  0  0  0 
    3.7305   -4.3098   -0.8519 H   0  0  0  0  0  0  0  0  0  0  0  0 
    2.4307   -3.1606   -1.1268 H   0  0  0  0  0  0  0  0  0  0  0  0 
    1.3755    1.1069   -2.2459 H   0  0  0  0  0  0  0  0  0  0  0  0 
    3.2072    1.5464    1.6136 H   0  0  0  0  0  0  0  0  0  0  0  0 
    4.2952    0.4865   -2.1499 H   0  0  0  0  0  0  0  0  0  0  0  0 
    5.5701   -0.6941   -1.8826 H   0  0  0  0  0  0  0  0  0  0  0  0 
    5.2252   -2.5344   -0.0257 H   0  0  0  0  0  0  0  0  0  0  0  0 
    3.7326   -2.5241    0.9061 H   0  0  0  0  0  0  0  0  0  0  0  0 
    1.8346   -0.8478   -0.9275 H   0  0  0  0  0  0  0  0  0  0  0  0 
    2.1943   -0.6921    0.7827 H   0  0  0  0  0  0  0  0  0  0  0  0 
    4.5934   -0.2444    0.2491 H   0  0  0  0  0  0  0  0  0  0  0  0 
  1  4  2  0  0  0  0 
  2  6  1  0  0  0  0 
  3  7  2  0  0  0  0 
  3  1  1  0  0  0  0 
  4  8  1  0  0  0  0 
  4 18  1  0  0  0  0 
  5  2  1  0  0  0  0 
  5  9  1  0  0  0  0 
  6 22  1  0  0  0  0 
  6 21  1  0  0  0  0 
  6 10  1  0  0  0  0 
  7 12  1  0  0  0  0 
  8 24  1  0  0  0  0 
  9 13  1  0  0  0  0 
 10 27  1  0  0  0  0 
 10 28  1  0  0  0  0 
 11 30  1  0  0  0  0 
 12 11  1  0  0  0  0 
 12  8  2  0  0  0  0 
 13 11  1  0  0  0  0 
 13 10  1  0  0  0  0 
 13 31  1  0  0  0  0 
 14  1  1  0  0  0  0 
 15  2  1  0  0  0  0 
 16  2  1  0  0  0  0 
 17  3  1  0  0  0  0 
 19  5  1  0  0  0  0 
 20  5  1  0  0  0  0 
 23  7  1  0  0  0  0 
 25  9  1  0  0  0  0 
 26  9  1  0  0  0  0 
 29 11  1  0  0  0  0 
M  END 
>  <HBA> 
0 
 
>  <HBD> 
0 
 
>  <TPSA> 
0.0 
 
>  <cid> 
20444 
 
>  <dipole> 
0.27 
 
>  <excitation_energy_1> 
5.28 
 
>  <excitation_energy_2> 
5.835 
 
>  <excitation_energy_3> 
5.956 
 
>  <excitation_energy_4> 
6.166 
 
>  <homo_energy> 
-6.389 
 
>  <homo_lumo_gap> 
6.482 
 
>  <logP> 
3.809 
 
>  <lumo_energy> 
0.093 
 
>  <melting_point> 
25.74 
 
>  <molecular_refractivity> 
58.14 
 
>  <oscillator_strength_1> 
0.0013 
 
>  <oscillator_strength_2> 
0.0473 
 
>  <oscillator_strength_3> 
0.0038 
 
>  <oscillator_strength_4> 
0.0023 
 
>  <open_babel_can_smiles> 
C1CCC(CC1)Cc1ccccc1 
 
>  <mulliken_charges> 
31 
1   -0.132007 
2   -0.253976 
3   -0.128028 
4   -0.128389 
5   -0.261492 
6   -0.260983 
7   -0.187306 
8   -0.179705 
9   -0.267997 
10   -0.263599 
11   -0.357704 
12   0.175992 
13   -0.073882 
14   0.126323 
15   0.126128 
16   0.128007 
17   0.126849 
18   0.126722 
19   0.127487 
20   0.130162 
21   0.129735 
22   0.131361 
23   0.123201 
24   0.121604 
25   0.142508 
26   0.125658 
27   0.126975 
28   0.124879 
29   0.14095 
30   0.139292 
31   0.121234 
 
>  <lowdin_charges> 
31 
1   -0.160485 
2   -0.277568 
3   -0.156853 
4   -0.156821 
5   -0.277822 
6   -0.276665 
7   -0.171983 
8   -0.167788 
9   -0.279922 
10   -0.277408 
11   -0.279865 
12   0.000865 
13   -0.127698 
14   0.154281 
15   0.134783 
16   0.143271 
17   0.156836 
18   0.157125 
19   0.133458 
20   0.143338 
21   0.14213 
22   0.135465 
23   0.154578 
24   0.153856 
25   0.148471 
26   0.137195 
27   0.137829 
28   0.139273 
29   0.147895 
30   0.14925 
31   0.140979 
 
$$$$ 
 
