PCCDB-ID:  8104 
public computational chemistry database (PCCDB) project, http://pccdb.org 
 
 17 16  0  0  0  0  0  0  0  0999 V2000 
    0.7716    0.4568   -0.6421 C   0  0  0  0  0  0  0  0  0  0  0  0 
    2.2561    0.3668   -0.4557 C   0  0  0  0  0  0  0  0  0  0  0  0 
    3.1721    0.5792   -1.4156 C   0  0  0  0  0  0  0  0  0  0  0  0 
    4.6091    0.4889   -1.2096 C   0  0  0  0  0  0  0  0  0  0  0  0 
    5.5374    0.7001   -2.1590 C   0  0  0  0  0  0  0  0  0  0  0  0 
    7.0169    0.5941   -1.9346 C   0  0  0  0  0  0  0  0  0  0  0  0 
    7.6320   -0.3553   -2.8088 O   0  0  0  0  0  0  0  0  0  0  0  0 
    0.3320    1.2116    0.0246 H   0  0  0  0  0  0  0  0  0  0  0  0 
    0.2809   -0.4958   -0.3988 H   0  0  0  0  0  0  0  0  0  0  0  0 
    0.5095    0.7203   -1.6722 H   0  0  0  0  0  0  0  0  0  0  0  0 
    2.6022    0.1096    0.5471 H   0  0  0  0  0  0  0  0  0  0  0  0 
    2.8379    0.8402   -2.4210 H   0  0  0  0  0  0  0  0  0  0  0  0 
    4.9382    0.2345   -0.1999 H   0  0  0  0  0  0  0  0  0  0  0  0 
    5.2290    0.9473   -3.1755 H   0  0  0  0  0  0  0  0  0  0  0  0 
    7.2238    0.3614   -0.8772 H   0  0  0  0  0  0  0  0  0  0  0  0 
    7.5152    1.5442   -2.1624 H   0  0  0  0  0  0  0  0  0  0  0  0 
    7.1672   -1.1970   -2.6772 H   0  0  0  0  0  0  0  0  0  0  0  0 
  1  2  1  0  0  0  0 
  1  9  1  0  0  0  0 
  1  8  1  0  0  0  0 
  2 11  1  0  0  0  0 
  3  4  1  0  0  0  0 
  3  2  2  0  0  0  0 
  4 13  1  0  0  0  0 
  5  6  1  0  0  0  0 
  5  4  2  0  0  0  0 
  6 15  1  0  0  0  0 
  7 17  1  0  0  0  0 
  7  6  1  0  0  0  0 
 10  1  1  0  0  0  0 
 12  3  1  0  0  0  0 
 14  5  1  0  0  0  0 
 16  6  1  0  0  0  0 
M  END 
>  <HBA> 
1 
 
>  <HBD> 
1 
 
>  <TPSA> 
20.23 
 
>  <cid> 
8104 
 
>  <dipole> 
2.3 
 
>  <excitation_energy_1> 
5.307 
 
>  <excitation_energy_2> 
5.747 
 
>  <excitation_energy_3> 
5.824 
 
>  <excitation_energy_4> 
5.887 
 
>  <homo_energy> 
-5.976 
 
>  <homo_lumo_gap> 
5.331 
 
>  <logP> 
1.111 
 
>  <lumo_energy> 
-0.645 
 
>  <melting_point> 
11.64 
 
>  <molecular_refractivity> 
31.17 
 
>  <oscillator_strength_1> 
0.7993 
 
>  <oscillator_strength_2> 
0.0026 
 
>  <oscillator_strength_3> 
0.0422 
 
>  <oscillator_strength_4> 
0.0001 
 
>  <open_babel_can_smiles> 
C/C=C/C=C/CO 
 
>  <mulliken_charges> 
17 
1   -0.490628 
2   -0.104499 
3   -0.099303 
4   -0.106156 
5   -0.152854 
6   -0.070755 
7   -0.611235 
8   0.159646 
9   0.15906 
10   0.155799 
11   0.125201 
12   0.120073 
13   0.120384 
14   0.132814 
15   0.124659 
16   0.153356 
17   0.384439 
 
>  <lowdin_charges> 
17 
1   -0.438864 
2   -0.150008 
3   -0.166001 
4   -0.153985 
5   -0.190234 
6   -0.129347 
7   -0.468416 
8   0.16067 
9   0.159282 
10   0.155512 
11   0.148718 
12   0.150437 
13   0.149161 
14   0.153621 
15   0.127471 
16   0.152465 
17   0.339518 
 
$$$$ 
 
