PCCDB-ID:  67297 
public computational chemistry database (PCCDB) project, http://pccdb.org 
 
 21 21  0  0  0  0  0  0  0  0999 V2000 
    0.8736    0.8092    0.5708 C   0  0  0  0  0  0  0  0  0  0  0  0 
    2.0066   -3.0044   -0.6607 C   0  0  0  0  0  0  0  0  0  0  0  0 
    4.9423    0.0402   -0.6434 C   0  0  0  0  0  0  0  0  0  0  0  0 
    3.9971   -0.9898   -0.6575 C   0  0  0  0  0  0  0  0  0  0  0  0 
    3.2562    1.5567    0.1548 C   0  0  0  0  0  0  0  0  0  0  0  0 
    2.2971    0.5472    0.1481 C   0  0  0  0  0  0  0  0  0  0  0  0 
    4.5873    1.3289   -0.2362 C   0  0  0  0  0  0  0  0  0  0  0  0 
    2.6811   -0.7447   -0.2651 C   0  0  0  0  0  0  0  0  0  0  0  0 
    5.5431    2.3596   -0.1559 N   0  0  0  0  0  0  0  0  0  0  0  0 
    1.6829   -1.6913   -0.2466 O   0  0  0  0  0  0  0  0  0  0  0  0 
    0.7274    1.8643    0.8223 H   0  0  0  0  0  0  0  0  0  0  0  0 
    0.6008    0.2070    1.4460 H   0  0  0  0  0  0  0  0  0  0  0  0 
    0.1663    0.5415   -0.2229 H   0  0  0  0  0  0  0  0  0  0  0  0 
    1.0853   -3.5847   -0.5755 H   0  0  0  0  0  0  0  0  0  0  0  0 
    2.7772   -3.4550   -0.0196 H   0  0  0  0  0  0  0  0  0  0  0  0 
    2.3530   -3.0285   -1.7035 H   0  0  0  0  0  0  0  0  0  0  0  0 
    5.9652   -0.1696   -0.9483 H   0  0  0  0  0  0  0  0  0  0  0  0 
    4.3052   -1.9780   -0.9801 H   0  0  0  0  0  0  0  0  0  0  0  0 
    2.9628    2.5541    0.4782 H   0  0  0  0  0  0  0  0  0  0  0  0 
    6.3209    2.2432   -0.7955 H   0  0  0  0  0  0  0  0  0  0  0  0 
    5.1484    3.2881   -0.2542 H   0  0  0  0  0  0  0  0  0  0  0  0 
  1 11  1  0  0  0  0 
  1 12  1  0  0  0  0 
  2 14  1  0  0  0  0 
  2 10  1  0  0  0  0 
  2 15  1  0  0  0  0 
  3  7  1  0  0  0  0 
  4  3  2  0  0  0  0 
  4  8  1  0  0  0  0 
  5 19  1  0  0  0  0 
  6  5  1  0  0  0  0 
  6  1  1  0  0  0  0 
  7  9  1  0  0  0  0 
  7  5  2  0  0  0  0 
  8 10  1  0  0  0  0 
  8  6  2  0  0  0  0 
 13  1  1  0  0  0  0 
 16  2  1  0  0  0  0 
 17  3  1  0  0  0  0 
 18  4  1  0  0  0  0 
 20  9  1  0  0  0  0 
 21  9  1  0  0  0  0 
M  END 
>  <HBA> 
2 
 
>  <HBD> 
1 
 
>  <TPSA> 
35.25 
 
>  <cid> 
67297 
 
>  <dipole> 
1.6 
 
>  <excitation_energy_1> 
4.378 
 
>  <excitation_energy_2> 
4.389 
 
>  <excitation_energy_3> 
4.761 
 
>  <excitation_energy_4> 
4.965 
 
>  <homo_energy> 
-4.865 
 
>  <homo_lumo_gap> 
5.184 
 
>  <logP> 
2.167 
 
>  <lumo_energy> 
0.318 
 
>  <melting_point> 
63.42 
 
>  <molecular_refractivity> 
42.3 
 
>  <oscillator_strength_1> 
0.0189 
 
>  <oscillator_strength_2> 
0.0436 
 
>  <oscillator_strength_3> 
0.0019 
 
>  <oscillator_strength_4> 
0.0009 
 
>  <open_babel_can_smiles> 
COc1ccc(cc1C)N 
 
>  <mulliken_charges> 
21 
1   -0.513486 
2   -0.209262 
3   -0.189243 
4   -0.198598 
5   -0.241762 
6   0.128424 
7   0.311715 
8   0.313464 
9   -0.788886 
10   -0.514784 
11   0.143131 
12   0.164575 
13   0.163518 
14   0.163821 
15   0.147188 
16   0.145902 
17   0.112934 
18   0.12606 
19   0.10881 
20   0.313 
21   0.313481 
 
>  <lowdin_charges> 
21 
1   -0.43614 
2   -0.276777 
3   -0.197842 
4   -0.201396 
5   -0.199462 
6   -0.012527 
7   0.04223 
8   0.069375 
9   -0.497345 
10   -0.209096 
11   0.150195 
12   0.16313 
13   0.162904 
14   0.159771 
15   0.143127 
16   0.139881 
17   0.150105 
18   0.159419 
19   0.149108 
20   0.271078 
21   0.270261 
 
$$$$ 
 
