PCCDB-ID:  15358 
public computational chemistry database (PCCDB) project, http://pccdb.org 
 
 37 38  0  0  0  0  0  0  0  0999 V2000 
    2.6923   -2.7482   -0.6945 C   0  0  0  0  0  0  0  0  0  0  0  0 
   -3.4984   -3.0579    1.0588 C   0  0  0  0  0  0  0  0  0  0  0  0 
   -2.8000   -4.2631    1.1408 C   0  0  0  0  0  0  0  0  0  0  0  0 
   -3.2760   -2.2123   -0.0305 C   0  0  0  0  0  0  0  0  0  0  0  0 
   -1.8784   -4.6198    0.1547 C   0  0  0  0  0  0  0  0  0  0  0  0 
   -2.3752   -2.5771   -1.0294 C   0  0  0  0  0  0  0  0  0  0  0  0 
    0.4088   -5.7122   -3.5318 C   0  0  0  0  0  0  0  0  0  0  0  0 
   -2.0120   -5.9721   -2.9506 C   0  0  0  0  0  0  0  0  0  0  0  0 
    0.3905   -7.1643   -4.0254 C   0  0  0  0  0  0  0  0  0  0  0  0 
   -1.9477   -7.4111   -3.4692 C   0  0  0  0  0  0  0  0  0  0  0  0 
    0.4885   -3.2994   -1.9415 C   0  0  0  0  0  0  0  0  0  0  0  0 
    1.5353   -3.7144   -0.8964 C   0  0  0  0  0  0  0  0  0  0  0  0 
   -1.6572   -3.7813   -0.9485 C   0  0  0  0  0  0  0  0  0  0  0  0 
   -0.6401   -5.5043   -2.4253 C   0  0  0  0  0  0  0  0  0  0  0  0 
   -0.9391   -7.5089   -4.5251 N   0  0  0  0  0  0  0  0  0  0  0  0 
   -0.7297   -4.0907   -1.9966 N   0  0  0  0  0  0  0  0  0  0  0  0 
    1.4475   -4.7523   -0.2683 O   0  0  0  0  0  0  0  0  0  0  0  0 
    3.4833   -3.2330   -0.1186 H   0  0  0  0  0  0  0  0  0  0  0  0 
    2.3402   -1.8671   -0.1421 H   0  0  0  0  0  0  0  0  0  0  0  0 
    3.0907   -2.3896   -1.6511 H   0  0  0  0  0  0  0  0  0  0  0  0 
   -4.2108   -2.7822    1.8315 H   0  0  0  0  0  0  0  0  0  0  0  0 
   -2.9579   -4.9266    1.9875 H   0  0  0  0  0  0  0  0  0  0  0  0 
   -3.8217   -1.2758   -0.1150 H   0  0  0  0  0  0  0  0  0  0  0  0 
   -1.3141   -5.5407    0.2518 H   0  0  0  0  0  0  0  0  0  0  0  0 
   -2.2274   -1.9390   -1.8968 H   0  0  0  0  0  0  0  0  0  0  0  0 
    0.1933   -5.0449   -4.3763 H   0  0  0  0  0  0  0  0  0  0  0  0 
    1.4157   -5.4884   -3.1622 H   0  0  0  0  0  0  0  0  0  0  0  0 
   -2.7682   -5.9005   -2.1619 H   0  0  0  0  0  0  0  0  0  0  0  0 
   -2.3182   -5.3053   -3.7656 H   0  0  0  0  0  0  0  0  0  0  0  0 
    0.7205   -7.8238   -3.1973 H   0  0  0  0  0  0  0  0  0  0  0  0 
    1.1132   -7.2837   -4.8410 H   0  0  0  0  0  0  0  0  0  0  0  0 
   -2.9194   -7.7001   -3.8860 H   0  0  0  0  0  0  0  0  0  0  0  0 
   -1.7407   -8.0937   -2.6197 H   0  0  0  0  0  0  0  0  0  0  0  0 
    0.9871   -3.2909   -2.9202 H   0  0  0  0  0  0  0  0  0  0  0  0 
    0.2183   -2.2533   -1.7506 H   0  0  0  0  0  0  0  0  0  0  0  0 
   -0.3425   -6.1523   -1.5868 H   0  0  0  0  0  0  0  0  0  0  0  0 
   -0.9279   -8.4533   -4.9050 H   0  0  0  0  0  0  0  0  0  0  0  0 
  1 19  1  0  0  0  0 
  1 18  1  0  0  0  0 
  2  3  1  0  0  0  0 
  2 21  1  0  0  0  0 
  3 22  1  0  0  0  0 
  4  2  2  0  0  0  0 
  5 24  1  0  0  0  0 
  5  3  2  0  0  0  0 
  6 13  2  0  0  0  0 
  6  4  1  0  0  0  0 
  7 27  1  0  0  0  0 
  7 14  1  0  0  0  0 
  8 14  1  0  0  0  0 
  8 28  1  0  0  0  0 
  9  7  1  0  0  0  0 
  9 30  1  0  0  0  0 
 10  8  1  0  0  0  0 
 10 33  1  0  0  0  0 
 11 35  1  0  0  0  0 
 11 12  1  0  0  0  0 
 12  1  1  0  0  0  0 
 12 17  2  0  0  0  0 
 13  5  1  0  0  0  0 
 14 16  1  0  0  0  0 
 14 36  1  0  0  0  0 
 15  9  1  0  0  0  0 
 15 10  1  0  0  0  0 
 16 11  1  0  0  0  0 
 16 13  1  0  0  0  0 
 20  1  1  0  0  0  0 
 23  4  1  0  0  0  0 
 25  6  1  0  0  0  0 
 26  7  1  0  0  0  0 
 29  8  1  0  0  0  0 
 31  9  1  0  0  0  0 
 32 10  1  0  0  0  0 
 34 11  1  0  0  0  0 
 37 15  1  0  0  0  0 
M  END 
>  <HBA> 
3 
 
>  <HBD> 
1 
 
>  <TPSA> 
32.34 
 
>  <cid> 
15358 
 
>  <dipole> 
1.55 
 
>  <excitation_energy_1> 
3.668 
 
>  <excitation_energy_2> 
4.474 
 
>  <excitation_energy_3> 
4.566 
 
>  <excitation_energy_4> 
4.717 
 
>  <homo_energy> 
-5.263 
 
>  <homo_lumo_gap> 
4.871 
 
>  <logP> 
2.163 
 
>  <lumo_energy> 
-0.392 
 
>  <melting_point> 
79.82 
 
>  <molecular_refractivity> 
74.29 
 
>  <oscillator_strength_1> 
0.0008 
 
>  <oscillator_strength_2> 
0.0226 
 
>  <oscillator_strength_3> 
0.0774 
 
>  <oscillator_strength_4> 
0.0043 
 
>  <open_babel_can_smiles> 
CC(=O)CN(c1ccccc1)C1CCNCC1 
 
>  <mulliken_charges> 
37 
1   -0.535777 
2   -0.127665 
3   -0.145721 
4   -0.138692 
5   -0.151186 
6   -0.157972 
7   -0.283691 
8   -0.263333 
9   -0.137449 
10   -0.138729 
11   -0.24016 
12   0.462677 
13   0.266005 
14   0.063921 
15   -0.543838 
16   -0.493178 
17   -0.438349 
18   0.181867 
19   0.178795 
20   0.163298 
21   0.124023 
22   0.127991 
23   0.125581 
24   0.14669 
25   0.125344 
26   0.146186 
27   0.131641 
28   0.144501 
29   0.145634 
30   0.114456 
31   0.135787 
32   0.137296 
33   0.108609 
34   0.168738 
35   0.164741 
36   0.137708 
37   0.294251 
 
>  <lowdin_charges> 
37 
1   -0.479275 
2   -0.16944 
3   -0.155281 
4   -0.156364 
5   -0.176706 
6   -0.177803 
7   -0.286924 
8   -0.290013 
9   -0.204136 
10   -0.205322 
11   -0.235928 
12   0.152642 
13   0.048744 
14   -0.061276 
15   -0.365946 
16   -0.153775 
17   -0.233225 
18   0.175779 
19   0.176492 
20   0.165467 
21   0.156335 
22   0.157091 
23   0.155571 
24   0.16724 
25   0.157831 
26   0.148507 
27   0.145215 
28   0.15396 
29   0.150971 
30   0.117764 
31   0.146148 
32   0.145969 
33   0.114545 
34   0.164425 
35   0.164013 
36   0.134305 
37   0.252402 
 
$$$$ 
 
