PCCDB-ID:  19013 
public computational chemistry database (PCCDB) project, http://pccdb.org 
 
 28 27  0  0  0  0  0  0  0  0999 V2000 
    1.4904    2.9183   -0.9665 C   0  0  0  0  0  0  0  0  0  0  0  0 
    9.7512    2.7824    2.8778 C   0  0  0  0  0  0  0  0  0  0  0  0 
    2.2485    2.2214   -0.1185 C   0  0  0  0  0  0  0  0  0  0  0  0 
    2.9380    0.9198   -0.4277 C   0  0  0  0  0  0  0  0  0  0  0  0 
    4.4719    0.9814   -0.2709 C   0  0  0  0  0  0  0  0  0  0  0  0 
    5.1559    1.9133   -1.2895 C   0  0  0  0  0  0  0  0  0  0  0  0 
    6.6514    1.9262   -1.1456 C   0  0  0  0  0  0  0  0  0  0  0  0 
    7.3908    3.0019   -0.8608 C   0  0  0  0  0  0  0  0  0  0  0  0 
    8.8836    2.9729   -0.7284 C   0  0  0  0  0  0  0  0  0  0  0  0 
    9.3855    2.2782    1.5001 C   0  0  0  0  0  0  0  0  0  0  0  0 
    9.1942    1.1181    1.2084 O   0  0  0  0  0  0  0  0  0  0  0  0 
    9.3007    3.3093    0.6254 O   0  0  0  0  0  0  0  0  0  0  0  0 
    1.0163    3.8527   -0.6778 H   0  0  0  0  0  0  0  0  0  0  0  0 
    1.3082    2.5755   -1.9833 H   0  0  0  0  0  0  0  0  0  0  0  0 
    9.9210    1.9341    3.5418 H   0  0  0  0  0  0  0  0  0  0  0  0 
    8.9382    3.4013    3.2732 H   0  0  0  0  0  0  0  0  0  0  0  0 
   10.6462    3.4103    2.8307 H   0  0  0  0  0  0  0  0  0  0  0  0 
    2.4012    2.6063    0.8922 H   0  0  0  0  0  0  0  0  0  0  0  0 
    2.6826    0.5983   -1.4465 H   0  0  0  0  0  0  0  0  0  0  0  0 
    2.5567    0.1427    0.2514 H   0  0  0  0  0  0  0  0  0  0  0  0 
    4.8800   -0.0328   -0.3744 H   0  0  0  0  0  0  0  0  0  0  0  0 
    4.7255    1.3109    0.7457 H   0  0  0  0  0  0  0  0  0  0  0  0 
    4.7578    2.9301   -1.1897 H   0  0  0  0  0  0  0  0  0  0  0  0 
    4.8900    1.5730   -2.3029 H   0  0  0  0  0  0  0  0  0  0  0  0 
    7.1564    0.9666   -1.2721 H   0  0  0  0  0  0  0  0  0  0  0  0 
    6.9122    3.9698   -0.7083 H   0  0  0  0  0  0  0  0  0  0  0  0 
    9.3579    3.7428   -1.3443 H   0  0  0  0  0  0  0  0  0  0  0  0 
    9.2872    1.9929   -0.9913 H   0  0  0  0  0  0  0  0  0  0  0  0 
  1 13  1  0  0  0  0 
  1  3  2  0  0  0  0 
  2 16  1  0  0  0  0 
  2 15  1  0  0  0  0 
  3 18  1  0  0  0  0 
  4  5  1  0  0  0  0 
  4  3  1  0  0  0  0 
  4 20  1  0  0  0  0 
  5 22  1  0  0  0  0 
  6 23  1  0  0  0  0 
  6  7  1  0  0  0  0 
  6  5  1  0  0  0  0 
  7  8  2  0  0  0  0 
  8  9  1  0  0  0  0 
  8 26  1  0  0  0  0 
  9 12  1  0  0  0  0 
 10  2  1  0  0  0  0 
 11 10  2  0  0  0  0 
 12 10  1  0  0  0  0 
 14  1  1  0  0  0  0 
 17  2  1  0  0  0  0 
 19  4  1  0  0  0  0 
 21  5  1  0  0  0  0 
 24  6  1  0  0  0  0 
 25  7  1  0  0  0  0 
 27  9  1  0  0  0  0 
 28  9  1  0  0  0  0 
M  END 
>  <HBA> 
2 
 
>  <HBD> 
0 
 
>  <TPSA> 
26.3 
 
>  <cid> 
19013 
 
>  <dipole> 
1.29 
 
>  <excitation_energy_1> 
5.764 
 
>  <excitation_energy_2> 
6.313 
 
>  <excitation_energy_3> 
6.321 
 
>  <excitation_energy_4> 
6.397 
 
>  <homo_energy> 
-6.721 
 
>  <homo_lumo_gap> 
7.012 
 
>  <logP> 
2.462 
 
>  <lumo_energy> 
0.291 
 
>  <melting_point> 
-27.59 
 
>  <molecular_refractivity> 
50.52 
 
>  <oscillator_strength_1> 
0.0009 
 
>  <oscillator_strength_2> 
0.1398 
 
>  <oscillator_strength_3> 
0.0416 
 
>  <oscillator_strength_4> 
0.0099 
 
>  <open_babel_can_smiles> 
C=CCCC/C=C/COC(=O)C 
 
>  <mulliken_charges> 
28 
1   -0.341515 
2   -0.522203 
3   -0.039212 
4   -0.303496 
5   -0.26026 
6   -0.306072 
7   -0.070909 
8   -0.122542 
9   -0.097124 
10   0.601931 
11   -0.467908 
12   -0.452895 
13   0.138218 
14   0.134778 
15   0.18012 
16   0.180895 
17   0.178971 
18   0.124121 
19   0.136398 
20   0.145357 
21   0.138641 
22   0.142228 
23   0.150148 
24   0.140133 
25   0.138315 
26   0.127752 
27   0.153083 
28   0.173046 
 
>  <lowdin_charges> 
28 
1   -0.343764 
2   -0.466326 
3   -0.143576 
4   -0.273539 
5   -0.269777 
6   -0.272352 
7   -0.137269 
8   -0.191838 
9   -0.129331 
10   0.198757 
11   -0.266959 
12   -0.203218 
13   0.157637 
14   0.152615 
15   0.174892 
16   0.17834 
17   0.176001 
18   0.147674 
19   0.14447 
20   0.153903 
21   0.144855 
22   0.144412 
23   0.151235 
24   0.147701 
25   0.155698 
26   0.151151 
27   0.156796 
28   0.161813 
 
$$$$ 
 
