PCCDB-ID:  31554 
public computational chemistry database (PCCDB) project, http://pccdb.org 
 
 24 25  0  0  1  0  0  0  0  0999 V2000 
   -2.5872    0.2202    0.5813 C   0  0  0  0  0  0  0  0  0  0  0  0 
   -2.3745   -1.1529    0.4055 C   0  0  0  0  0  0  0  0  0  0  0  0 
   -1.5836    1.1058    0.2335 C   0  0  0  0  0  0  0  0  0  0  0  0 
   -1.1735   -1.6029   -0.1141 C   0  0  0  0  0  0  0  0  0  0  0  0 
    4.0736    0.7059   -0.6816 C   0  0  0  0  0  0  0  0  0  0  0  0 
    2.0560   -0.6243   -1.4705 C   0  0  0  0  0  0  0  0  0  0  0  0 
    2.5883    0.3974   -0.4788 C   0  0  2  0  0  0  0  0  0  0  0  0 
   -0.3328    0.6836   -0.2792 C   0  0  0  0  0  0  0  0  0  0  0  0 
   -0.1459   -0.7076   -0.4633 C   0  0  0  0  0  0  0  0  0  0  0  0 
    0.5881    1.8340   -0.5732 C   0  0  0  0  0  0  0  0  0  0  0  0 
    4.5198    1.7125    0.1990 O   0  0  0  0  0  0  0  0  0  0  0  0 
    0.1744    2.9649   -0.7028 O   0  0  0  0  0  0  0  0  0  0  0  0 
    0.9442   -1.3506   -0.9703 O   0  0  0  0  0  0  0  0  0  0  0  0 
    1.9383    1.6641   -0.6632 O   0  0  0  0  0  0  0  0  0  0  0  0 
   -3.5256    0.5895    0.9831 H   0  0  0  0  0  0  0  0  0  0  0  0 
   -3.1481   -1.8696    0.6676 H   0  0  0  0  0  0  0  0  0  0  0  0 
   -1.7260    2.1738    0.3489 H   0  0  0  0  0  0  0  0  0  0  0  0 
   -0.9862   -2.6593   -0.2769 H   0  0  0  0  0  0  0  0  0  0  0  0 
    4.2427    0.9791   -1.7367 H   0  0  0  0  0  0  0  0  0  0  0  0 
    4.6623   -0.1914   -0.4654 H   0  0  0  0  0  0  0  0  0  0  0  0 
    2.8073   -1.3907   -1.6825 H   0  0  0  0  0  0  0  0  0  0  0  0 
    1.7978   -0.1206   -2.4126 H   0  0  0  0  0  0  0  0  0  0  0  0 
    2.4261    0.0465    0.5480 H   0  0  0  0  0  0  0  0  0  0  0  0 
    3.9358    2.4768    0.0583 H   0  0  0  0  0  0  0  0  0  0  0  0 
  1 15  1  0  0  0  0 
  2  1  1  0  0  0  0 
  2 16  1  0  0  0  0 
  3 17  1  0  0  0  0 
  3  1  2  0  0  0  0 
  4  2  2  0  0  0  0 
  5  7  1  0  0  0  0 
  5 20  1  0  0  0  0 
  5 11  1  0  0  0  0 
  6 13  1  0  0  0  0 
  6  7  1  0  0  0  0 
  7 23  1  1  0  0  0 
  8  3  1  0  0  0  0 
  9  8  2  0  0  0  0 
  9  4  1  0  0  0  0 
 10  8  1  0  0  0  0 
 12 10  2  0  0  0  0 
 13  9  1  0  0  0  0 
 14 10  1  0  0  0  0 
 14  7  1  0  0  0  0 
 18  4  1  0  0  0  0 
 19  5  1  0  0  0  0 
 21  6  1  0  0  0  0 
 22  6  1  0  0  0  0 
 24 11  1  0  0  0  0 
M  END 
>  <HBA> 
4 
 
>  <HBD> 
1 
 
>  <TPSA> 
55.76 
 
>  <cid> 
31554 
 
>  <dipole> 
3.46 
 
>  <excitation_energy_1> 
4.404 
 
>  <excitation_energy_2> 
4.815 
 
>  <excitation_energy_3> 
5.357 
 
>  <excitation_energy_4> 
5.66 
 
>  <homo_energy> 
-6.46 
 
>  <homo_lumo_gap> 
5.138 
 
>  <logP> 
0.597 
 
>  <lumo_energy> 
-1.322 
 
>  <melting_point> 
75.9 
 
>  <molecular_refractivity> 
48.07 
 
>  <oscillator_strength_1> 
0.0545 
 
>  <oscillator_strength_2> 
0.0154 
 
>  <oscillator_strength_3> 
0.0523 
 
>  <oscillator_strength_4> 
0.0009 
 
>  <open_babel_can_smiles> 
OC[C@@H]1COc2c(C(=O)O1)cccc2 
 
>  <mulliken_charges> 
24 
1   -0.134657 
2   -0.121529 
3   -0.165137 
4   -0.180962 
5   -0.038777 
6   -0.068097 
7   0.077432 
8   0.012966 
9   0.310901 
10   0.564936 
11   -0.615076 
12   -0.45364 
13   -0.514488 
14   -0.490783 
15   0.139621 
16   0.142458 
17   0.176154 
18   0.148275 
19   0.135254 
20   0.154115 
21   0.168322 
22   0.168537 
23   0.172555 
24   0.411619 
 
>  <lowdin_charges> 
24 
1   -0.17413 
2   -0.129931 
3   -0.116462 
4   -0.179454 
5   -0.137353 
6   -0.144772 
7   -0.032642 
8   -0.107869 
9   0.109245 
10   0.198033 
11   -0.455157 
12   -0.246884 
13   -0.187454 
14   -0.198203 
15   0.164136 
16   0.165732 
17   0.181689 
18   0.169939 
19   0.133751 
20   0.155325 
21   0.166815 
22   0.155126 
23   0.158043 
24   0.352478 
 
$$$$ 
 
