PCCDB-ID:  19510 
public computational chemistry database (PCCDB) project, http://pccdb.org 
 
 29 28  0  0  0  0  0  0  0  0999 V2000 
    3.0052   -1.3841   -0.2000 C   0  0  0  0  0  0  0  0  0  0  0  0 
    0.9164   -0.2243    0.2813 C   0  0  0  0  0  0  0  0  0  0  0  0 
    3.6828    2.0847    2.7046 C   0  0  0  0  0  0  0  0  0  0  0  0 
    5.0844    0.3248    1.7675 C   0  0  0  0  0  0  0  0  0  0  0  0 
    5.4286    2.2184   -1.0937 C   0  0  0  0  0  0  0  0  0  0  0  0 
    3.8772    0.9827   -2.4798 C   0  0  0  0  0  0  0  0  0  0  0  0 
    2.3174   -0.0969   -0.1141 N   0  0  0  0  0  0  0  0  0  0  0  0 
    4.1177    1.3873    1.4965 N   0  0  0  0  0  0  0  0  0  0  0  0 
    4.3620    1.2076   -1.1105 N   0  0  0  0  0  0  0  0  0  0  0  0 
    3.1578    1.3678    0.0912 P   0  0  0  0  0  0  0  0  0  0  0  0 
    1.9675    2.9337   -0.0190 S   0  0  0  0  0  0  0  0  0  0  0  0 
    2.4599   -2.0377   -0.8940 H   0  0  0  0  0  0  0  0  0  0  0  0 
    3.0538   -1.8964    0.7737 H   0  0  0  0  0  0  0  0  0  0  0  0 
    4.0182   -1.2530   -0.5816 H   0  0  0  0  0  0  0  0  0  0  0  0 
    0.8114   -0.6652    1.2852 H   0  0  0  0  0  0  0  0  0  0  0  0 
    0.3984   -0.8783   -0.4325 H   0  0  0  0  0  0  0  0  0  0  0  0 
    0.4352    0.7539    0.2710 H   0  0  0  0  0  0  0  0  0  0  0  0 
    3.1720    1.4096    3.4095 H   0  0  0  0  0  0  0  0  0  0  0  0 
    3.0075    2.8993    2.4428 H   0  0  0  0  0  0  0  0  0  0  0  0 
    4.5611    2.5046    3.2123 H   0  0  0  0  0  0  0  0  0  0  0  0 
    5.9405    0.7469    2.3103 H   0  0  0  0  0  0  0  0  0  0  0  0 
    5.4534   -0.1037    0.8350 H   0  0  0  0  0  0  0  0  0  0  0  0 
    4.6585   -0.4796    2.3878 H   0  0  0  0  0  0  0  0  0  0  0  0 
    5.0808    3.1883   -1.4798 H   0  0  0  0  0  0  0  0  0  0  0  0 
    6.2528    1.8672   -1.7252 H   0  0  0  0  0  0  0  0  0  0  0  0 
    5.7985    2.3616   -0.0784 H   0  0  0  0  0  0  0  0  0  0  0  0 
    3.4929    1.9077   -2.9350 H   0  0  0  0  0  0  0  0  0  0  0  0 
    3.0795    0.2396   -2.4820 H   0  0  0  0  0  0  0  0  0  0  0  0 
    4.7088    0.6118   -3.0904 H   0  0  0  0  0  0  0  0  0  0  0  0 
  1  7  1  0  0  0  0 
  1 13  1  0  0  0  0 
  2 15  1  0  0  0  0 
  3 20  1  0  0  0  0 
  3 18  1  0  0  0  0 
  4 21  1  0  0  0  0 
  4 23  1  0  0  0  0 
  5 26  1  0  0  0  0 
  6  9  1  0  0  0  0 
  7 10  1  0  0  0  0 
  7  2  1  0  0  0  0 
  8  4  1  0  0  0  0 
  8  3  1  0  0  0  0 
  9  5  1  0  0  0  0 
  9 10  1  0  0  0  0 
 10  8  1  0  0  0  0 
 11 10  1  0  0  0  0 
 12  1  1  0  0  0  0 
 14  1  1  0  0  0  0 
 16  2  1  0  0  0  0 
 17  2  1  0  0  0  0 
 19  3  1  0  0  0  0 
 22  4  1  0  0  0  0 
 24  5  1  0  0  0  0 
 25  5  1  0  0  0  0 
 27  6  1  0  0  0  0 
 28  6  1  0  0  0  0 
 29  6  1  0  0  0  0 
M  RAD  1  11   2 
M  END 
>  <HBA> 
4 
 
>  <HBD> 
0 
 
>  <TPSA> 
51.62 
 
>  <cid> 
19510 
 
>  <dipole> 
4.63 
 
>  <excitation_energy_1> 
5.034 
 
>  <excitation_energy_2> 
5.109 
 
>  <excitation_energy_3> 
5.43 
 
>  <excitation_energy_4> 
5.479 
 
>  <homo_energy> 
-5.712 
 
>  <homo_lumo_gap> 
7.271 
 
>  <logP> 
1.546 
 
>  <lumo_energy> 
1.559 
 
>  <melting_point> 
-9.28 
 
>  <molecular_refractivity> 
55.21 
 
>  <oscillator_strength_1> 
0.0133 
 
>  <oscillator_strength_2> 
0.0086 
 
>  <oscillator_strength_3> 
0.0063 
 
>  <oscillator_strength_4> 
0.0281 
 
>  <open_babel_can_smiles> 
CN(P(N(C)C)(N(C)C)[S])C 
 
>  <mulliken_charges> 
29 
1   -0.311819 
2   -0.310964 
3   -0.310168 
4   -0.310556 
5   -0.313533 
6   -0.314723 
7   -0.513563 
8   -0.512672 
9   -0.531322 
10   0.956998 
11   -0.433788 
12   0.152446 
13   0.145129 
14   0.1773 
15   0.137821 
16   0.146172 
17   0.205426 
18   0.137809 
19   0.20626 
20   0.145222 
21   0.152895 
22   0.175205 
23   0.145316 
24   0.163432 
25   0.148782 
26   0.176684 
27   0.164014 
28   0.177198 
29   0.148999 
 
>  <lowdin_charges> 
29 
1   -0.353875 
2   -0.351933 
3   -0.35524 
4   -0.354887 
5   -0.353737 
6   -0.356063 
7   -0.339167 
8   -0.338227 
9   -0.338926 
10   0.817476 
11   -0.458554 
12   0.150723 
13   0.138951 
14   0.165308 
15   0.134845 
16   0.147612 
17   0.183888 
18   0.13699 
19   0.184903 
20   0.146577 
21   0.150748 
22   0.165935 
23   0.140074 
24   0.149661 
25   0.150138 
26   0.167041 
27   0.150925 
28   0.168657 
29   0.150156 
 
$$$$ 
 
