PCCDB-ID:  71700 
public computational chemistry database (PCCDB) project, http://pccdb.org 
 
 21 22  0  0  0  0  0  0  0  0999 V2000 
    0.8405    0.1213    0.0247 C   0  0  0  0  0  0  0  0  0  0  0  0 
    6.5813   -2.2775   -0.2157 C   0  0  0  0  0  0  0  0  0  0  0  0 
    5.2090   -2.3360   -0.1541 C   0  0  0  0  0  0  0  0  0  0  0  0 
    7.2055   -1.0067   -0.2523 C   0  0  0  0  0  0  0  0  0  0  0  0 
    3.0370   -1.1157   -0.0631 C   0  0  0  0  0  0  0  0  0  0  0  0 
    3.0779    1.2963   -0.0784 C   0  0  0  0  0  0  0  0  0  0  0  0 
    2.3482    0.0779   -0.0384 C   0  0  0  0  0  0  0  0  0  0  0  0 
    4.4552   -1.1347   -0.1273 C   0  0  0  0  0  0  0  0  0  0  0  0 
    4.4564    1.3185   -0.1407 C   0  0  0  0  0  0  0  0  0  0  0  0 
    5.1941    0.0891   -0.1682 C   0  0  0  0  0  0  0  0  0  0  0  0 
    6.5513    0.1377   -0.2300 N   0  0  0  0  0  0  0  0  0  0  0  0 
    5.1784    2.4695   -0.1775 O   0  0  0  0  0  0  0  0  0  0  0  0 
    0.4162   -0.8832    0.1141 H   0  0  0  0  0  0  0  0  0  0  0  0 
    0.4174    0.5855   -0.8755 H   0  0  0  0  0  0  0  0  0  0  0  0 
    0.4938    0.7115    0.8822 H   0  0  0  0  0  0  0  0  0  0  0  0 
    7.1856   -3.1798   -0.2366 H   0  0  0  0  0  0  0  0  0  0  0  0 
    4.6876   -3.2901   -0.1239 H   0  0  0  0  0  0  0  0  0  0  0  0 
    8.2921   -0.9403   -0.3023 H   0  0  0  0  0  0  0  0  0  0  0  0 
    2.4990   -2.0603   -0.0315 H   0  0  0  0  0  0  0  0  0  0  0  0 
    2.5315    2.2391   -0.0574 H   0  0  0  0  0  0  0  0  0  0  0  0 
    4.5613    3.2182   -0.1576 H   0  0  0  0  0  0  0  0  0  0  0  0 
  1 13  1  0  0  0  0 
  1 15  1  0  0  0  0 
  2  3  2  0  0  0  0 
  3  8  1  0  0  0  0 
  3 17  1  0  0  0  0 
  4 11  2  0  0  0  0 
  4  2  1  0  0  0  0 
  5  7  1  0  0  0  0 
  5 19  1  0  0  0  0 
  6 20  1  0  0  0  0 
  6  7  2  0  0  0  0 
  7  1  1  0  0  0  0 
  8  5  2  0  0  0  0 
  9  6  1  0  0  0  0 
 10  9  2  0  0  0  0 
 10  8  1  0  0  0  0 
 11 10  1  0  0  0  0 
 12 21  1  0  0  0  0 
 12  9  1  0  0  0  0 
 14  1  1  0  0  0  0 
 16  2  1  0  0  0  0 
 18  4  1  0  0  0  0 
M  END 
>  <HBA> 
2 
 
>  <HBD> 
1 
 
>  <TPSA> 
33.12 
 
>  <cid> 
71700 
 
>  <dipole> 
2.58 
 
>  <excitation_energy_1> 
3.938 
 
>  <excitation_energy_2> 
4.315 
 
>  <excitation_energy_3> 
4.331 
 
>  <excitation_energy_4> 
4.98 
 
>  <homo_energy> 
-5.652 
 
>  <homo_lumo_gap> 
4.531 
 
>  <logP> 
2.249 
 
>  <lumo_energy> 
-1.121 
 
>  <melting_point> 
108.97 
 
>  <molecular_refractivity> 
48.73 
 
>  <oscillator_strength_1> 
0.0441 
 
>  <oscillator_strength_2> 
0.0021 
 
>  <oscillator_strength_3> 
0.0057 
 
>  <oscillator_strength_4> 
0.0002 
 
>  <open_babel_can_smiles> 
Cc1cc2cccnc2c(c1)O 
 
>  <mulliken_charges> 
21 
1   -0.533222 
2   -0.151204 
3   -0.155828 
4   0.041012 
5   -0.272842 
6   -0.261651 
7   0.186119 
8   0.174058 
9   0.346784 
10   0.192409 
11   -0.48084 
12   -0.617853 
13   0.15875 
14   0.163763 
15   0.161681 
16   0.135589 
17   0.138672 
18   0.138249 
19   0.119119 
20   0.110686 
21   0.406549 
 
>  <lowdin_charges> 
21 
1   -0.441344 
2   -0.179574 
3   -0.131138 
4   -0.087572 
5   -0.197728 
6   -0.230143 
7   0.013903 
8   -0.005997 
9   0.10531 
10   0.014424 
11   -0.133243 
12   -0.350554 
13   0.158354 
14   0.16185 
15   0.161052 
16   0.163992 
17   0.161489 
18   0.152663 
19   0.154384 
20   0.151448 
21   0.358424 
 
$$$$ 
 
