PCCDB-ID:  31230 
public computational chemistry database (PCCDB) project, http://pccdb.org 
 
 21 21  0  0  0  0  0  0  0  0999 V2000 
    1.4945   -0.1155    2.4493 C   0  0  0  0  0  0  0  0  0  0  0  0 
    2.1278   -4.7035    0.4570 C   0  0  0  0  0  0  0  0  0  0  0  0 
   -0.0747   -3.7318    0.4532 C   0  0  0  0  0  0  0  0  0  0  0  0 
    2.6890   -3.4324    0.4169 C   0  0  0  0  0  0  0  0  0  0  0  0 
    0.4909   -2.4581    0.4313 C   0  0  0  0  0  0  0  0  0  0  0  0 
    2.2937   -0.0887    1.1636 C   0  0  0  0  0  0  0  0  0  0  0  0 
    0.7334   -4.8776    0.4771 C   0  0  0  0  0  0  0  0  0  0  0  0 
    1.8841   -2.2814    0.4273 C   0  0  0  0  0  0  0  0  0  0  0  0 
    0.1686   -6.1606    0.5705 N   0  0  0  0  0  0  0  0  0  0  0  0 
    2.4985   -1.0204    0.3278 N   0  0  0  0  0  0  0  0  0  0  0  0 
    2.8987    1.1073    0.8922 O   0  0  0  0  0  0  0  0  0  0  0  0 
    0.6266    0.5529    2.3861 H   0  0  0  0  0  0  0  0  0  0  0  0 
    2.1194    0.2283    3.2839 H   0  0  0  0  0  0  0  0  0  0  0  0 
    1.1392   -1.1224    2.6710 H   0  0  0  0  0  0  0  0  0  0  0  0 
    2.7762   -5.5773    0.4663 H   0  0  0  0  0  0  0  0  0  0  0  0 
   -1.1577   -3.8383    0.4510 H   0  0  0  0  0  0  0  0  0  0  0  0 
    3.7678   -3.3124    0.3809 H   0  0  0  0  0  0  0  0  0  0  0  0 
   -0.1565   -1.5864    0.3835 H   0  0  0  0  0  0  0  0  0  0  0  0 
    0.7535   -6.8962    0.1910 H   0  0  0  0  0  0  0  0  0  0  0  0 
   -0.7695   -6.2260    0.1927 H   0  0  0  0  0  0  0  0  0  0  0  0 
    2.7139    1.7269    1.6144 H   0  0  0  0  0  0  0  0  0  0  0  0 
  1 14  1  0  0  0  0 
  1 13  1  0  0  0  0 
  2 15  1  0  0  0  0 
  2  7  2  0  0  0  0 
  3  7  1  0  0  0  0 
  4  8  2  0  0  0  0 
  4  2  1  0  0  0  0 
  5  3  2  0  0  0  0 
  6  1  1  0  0  0  0 
  7  9  1  0  0  0  0 
  8  5  1  0  0  0  0 
 10  8  1  0  0  0  0 
 10  6  2  0  0  0  0 
 11  6  1  0  0  0  0 
 11 21  1  0  0  0  0 
 12  1  1  0  0  0  0 
 16  3  1  0  0  0  0 
 17  4  1  0  0  0  0 
 18  5  1  0  0  0  0 
 19  9  1  0  0  0  0 
 20  9  1  0  0  0  0 
M  END 
>  <HBA> 
3 
 
>  <HBD> 
2 
 
>  <TPSA> 
55.12 
 
>  <cid> 
31230 
 
>  <dipole> 
2.75 
 
>  <excitation_energy_1> 
4.281 
 
>  <excitation_energy_2> 
4.358 
 
>  <excitation_energy_3> 
4.426 
 
>  <excitation_energy_4> 
4.487 
 
>  <homo_energy> 
-4.917 
 
>  <homo_lumo_gap> 
5.067 
 
>  <logP> 
1.881 
 
>  <lumo_energy> 
0.15 
 
>  <melting_point> 
108.75 
 
>  <molecular_refractivity> 
45.16 
 
>  <oscillator_strength_1> 
0.0945 
 
>  <oscillator_strength_2> 
0.0048 
 
>  <oscillator_strength_3> 
0.0974 
 
>  <oscillator_strength_4> 
0.0466 
 
>  <open_babel_can_smiles> 
C/C(=N\c1ccc(cc1)N)/O 
 
>  <mulliken_charges> 
21 
1   -0.555921 
2   -0.180124 
3   -0.182999 
4   -0.15779 
5   -0.166019 
6   0.479096 
7   0.303724 
8   0.235814 
9   -0.7877 
10   -0.472133 
11   -0.573222 
12   0.17403 
13   0.165287 
14   0.199298 
15   0.115995 
16   0.114005 
17   0.131326 
18   0.121072 
19   0.315959 
20   0.315351 
21   0.404953 
 
>  <lowdin_charges> 
21 
1   -0.485543 
2   -0.194937 
3   -0.196027 
4   -0.158127 
5   -0.179775 
6   0.142917 
7   0.047825 
8   0.023457 
9   -0.495608 
10   -0.174523 
11   -0.366898 
12   0.169149 
13   0.165508 
14   0.183915 
15   0.15289 
16   0.149201 
17   0.160719 
18   0.155695 
19   0.273761 
20   0.271469 
21   0.354931 
 
$$$$ 
 
