PCCDB-ID:  11857 
public computational chemistry database (PCCDB) project, http://pccdb.org 
 
 26 25  0  0  0  0  0  0  0  0999 V2000 
    2.1120    0.5288    3.1774 C   0  0  0  0  0  0  0  0  0  0  0  0 
    2.7472    1.8142   -2.5723 C   0  0  0  0  0  0  0  0  0  0  0  0 
    6.3779   -1.3311    0.1195 C   0  0  0  0  0  0  0  0  0  0  0  0 
    3.1489   -0.5835    3.1523 C   0  0  0  0  0  0  0  0  0  0  0  0 
    4.0172    2.4214   -1.9966 C   0  0  0  0  0  0  0  0  0  0  0  0 
    5.5137   -0.0765    0.3186 C   0  0  0  0  0  0  0  0  0  0  0  0 
    4.2131   -0.4455    1.0263 C   0  0  0  0  0  0  0  0  0  0  0  0 
    5.1932    0.5951   -1.0155 C   0  0  0  0  0  0  0  0  0  0  0  0 
    3.2518   -0.9369    0.4754 O   0  0  0  0  0  0  0  0  0  0  0  0 
    5.5735    0.2085   -2.0973 O   0  0  0  0  0  0  0  0  0  0  0  0 
    4.2998   -0.2104    2.3518 O   0  0  0  0  0  0  0  0  0  0  0  0 
    4.4505    1.7034   -0.8138 O   0  0  0  0  0  0  0  0  0  0  0  0 
    1.2883    0.2531    3.8460 H   0  0  0  0  0  0  0  0  0  0  0  0 
    1.7021    0.6950    2.1774 H   0  0  0  0  0  0  0  0  0  0  0  0 
    2.5521    1.4634    3.5399 H   0  0  0  0  0  0  0  0  0  0  0  0 
    2.4022    2.4140   -3.4225 H   0  0  0  0  0  0  0  0  0  0  0  0 
    1.9527    1.7886   -1.8199 H   0  0  0  0  0  0  0  0  0  0  0  0 
    2.9315    0.7946   -2.9213 H   0  0  0  0  0  0  0  0  0  0  0  0 
    6.6264   -1.7777    1.0872 H   0  0  0  0  0  0  0  0  0  0  0  0 
    7.3047   -1.0727   -0.3990 H   0  0  0  0  0  0  0  0  0  0  0  0 
    5.8440   -2.0670   -0.4871 H   0  0  0  0  0  0  0  0  0  0  0  0 
    2.7293   -1.5097    2.7525 H   0  0  0  0  0  0  0  0  0  0  0  0 
    3.5634   -0.7696    4.1460 H   0  0  0  0  0  0  0  0  0  0  0  0 
    3.8524    3.4425   -1.6441 H   0  0  0  0  0  0  0  0  0  0  0  0 
    4.8300    2.4158   -2.7269 H   0  0  0  0  0  0  0  0  0  0  0  0 
    6.0418    0.6534    0.9417 H   0  0  0  0  0  0  0  0  0  0  0  0 
  1 15  1  0  0  0  0 
  1 13  1  0  0  0  0 
  2  5  1  0  0  0  0 
  2 17  1  0  0  0  0 
  3  6  1  0  0  0  0 
  3 19  1  0  0  0  0 
  4  1  1  0  0  0  0 
  4 23  1  0  0  0  0 
  5 24  1  0  0  0  0 
  5 12  1  0  0  0  0 
  6 26  1  0  0  0  0 
  6  7  1  0  0  0  0 
  7 11  1  0  0  0  0 
  8 12  1  0  0  0  0 
  8  6  1  0  0  0  0 
  9  7  2  0  0  0  0 
 10  8  2  0  0  0  0 
 11  4  1  0  0  0  0 
 14  1  1  0  0  0  0 
 16  2  1  0  0  0  0 
 18  2  1  0  0  0  0 
 20  3  1  0  0  0  0 
 21  3  1  0  0  0  0 
 22  4  1  0  0  0  0 
 25  5  1  0  0  0  0 
M  END 
>  <HBA> 
4 
 
>  <HBD> 
0 
 
>  <TPSA> 
52.6 
 
>  <cid> 
11857 
 
>  <dipole> 
2.73 
 
>  <excitation_energy_1> 
5.747 
 
>  <excitation_energy_2> 
5.774 
 
>  <excitation_energy_3> 
6.629 
 
>  <excitation_energy_4> 
6.717 
 
>  <homo_energy> 
-7.402 
 
>  <homo_lumo_gap> 
7.48 
 
>  <logP> 
0.749 
 
>  <lumo_energy> 
0.079 
 
>  <melting_point> 
-3.01 
 
>  <molecular_refractivity> 
43.14 
 
>  <oscillator_strength_1> 
0.0026 
 
>  <oscillator_strength_2> 
0.0019 
 
>  <oscillator_strength_3> 
0.0069 
 
>  <oscillator_strength_4> 
0.0197 
 
>  <open_babel_can_smiles> 
CCOC(=O)C(C(=O)OCC)C 
 
>  <mulliken_charges> 
26 
1   -0.461303 
2   -0.459495 
3   -0.445889 
4   -0.048243 
5   -0.048724 
6   -0.257913 
7   0.637764 
8   0.648347 
9   -0.481738 
10   -0.475293 
11   -0.460017 
12   -0.463521 
13   0.151319 
14   0.178578 
15   0.159116 
16   0.147907 
17   0.162501 
18   0.182586 
19   0.152921 
20   0.170205 
21   0.180063 
22   0.172416 
23   0.154726 
24   0.152455 
25   0.1706 
26   0.180632 
 
>  <lowdin_charges> 
26 
1   -0.454469 
2   -0.453945 
3   -0.433104 
4   -0.127812 
5   -0.127063 
6   -0.170517 
7   0.20381 
8   0.203369 
9   -0.267196 
10   -0.255196 
11   -0.19152 
12   -0.192024 
13   0.160215 
14   0.166196 
15   0.157398 
16   0.158507 
17   0.159734 
18   0.168163 
19   0.156384 
20   0.166405 
21   0.170141 
22   0.159983 
23   0.152906 
24   0.151304 
25   0.159293 
26   0.179036 
 
$$$$ 
 
