PCCDB-ID:  31643 
public computational chemistry database (PCCDB) project, http://pccdb.org 
 
 25 24  0  0  0  0  0  0  0  0999 V2000 
    0.9937   -0.0573   -0.0536 C   0  0  0  0  0  0  0  0  0  0  0  0 
    4.0210    2.0233   -4.4311 C   0  0  0  0  0  0  0  0  0  0  0  0 
    3.2927    4.5879   -1.5402 C   0  0  0  0  0  0  0  0  0  0  0  0 
    5.4663    3.4148   -2.0355 C   0  0  0  0  0  0  0  0  0  0  0  0 
    2.5320    0.0010   -0.0964 C   0  0  0  0  0  0  0  0  0  0  0  0 
    3.4965    3.2347   -3.6566 C   0  0  0  0  0  0  0  0  0  0  0  0 
    3.0435    1.1647   -0.8260 C   0  0  0  0  0  0  0  0  0  0  0  0 
    3.4436    2.1347   -1.4306 C   0  0  0  0  0  0  0  0  0  0  0  0 
    3.9269    3.3210   -2.1619 C   0  0  0  0  0  0  0  0  0  0  0  0 
    0.6587   -0.9406    0.5014 H   0  0  0  0  0  0  0  0  0  0  0  0 
    0.5773   -0.1071   -1.0648 H   0  0  0  0  0  0  0  0  0  0  0  0 
    0.5837    0.8322    0.4353 H   0  0  0  0  0  0  0  0  0  0  0  0 
    3.5959    1.9997   -5.4410 H   0  0  0  0  0  0  0  0  0  0  0  0 
    3.7491    1.0888   -3.9286 H   0  0  0  0  0  0  0  0  0  0  0  0 
    5.1115    2.0438   -4.5363 H   0  0  0  0  0  0  0  0  0  0  0  0 
    3.6519    5.4859   -2.0580 H   0  0  0  0  0  0  0  0  0  0  0  0 
    3.5526    4.6756   -0.4802 H   0  0  0  0  0  0  0  0  0  0  0  0 
    2.2007    4.5596   -1.6201 H   0  0  0  0  0  0  0  0  0  0  0  0 
    5.8437    4.2565   -2.6293 H   0  0  0  0  0  0  0  0  0  0  0  0 
    5.9568    2.5006   -2.3819 H   0  0  0  0  0  0  0  0  0  0  0  0 
    5.7569    3.5748   -0.9920 H   0  0  0  0  0  0  0  0  0  0  0  0 
    2.9187   -0.9190   -0.5567 H   0  0  0  0  0  0  0  0  0  0  0  0 
    2.9249    0.0116    0.9299 H   0  0  0  0  0  0  0  0  0  0  0  0 
    2.3995    3.2365   -3.6903 H   0  0  0  0  0  0  0  0  0  0  0  0 
    3.8256    4.1601   -4.1500 H   0  0  0  0  0  0  0  0  0  0  0  0 
  1 12  1  0  0  0  0 
  1 10  1  0  0  0  0 
  2 14  1  0  0  0  0 
  2  6  1  0  0  0  0 
  3 17  1  0  0  0  0 
  4 21  1  0  0  0  0 
  5  1  1  0  0  0  0 
  5 23  1  0  0  0  0 
  6  9  1  0  0  0  0 
  7  5  1  0  0  0  0 
  8  7  3  0  0  0  0 
  9  4  1  0  0  0  0 
  9  3  1  0  0  0  0 
  9  8  1  0  0  0  0 
 11  1  1  0  0  0  0 
 13  2  1  0  0  0  0 
 15  2  1  0  0  0  0 
 16  3  1  0  0  0  0 
 18  3  1  0  0  0  0 
 19  4  1  0  0  0  0 
 20  4  1  0  0  0  0 
 22  5  1  0  0  0  0 
 24  6  1  0  0  0  0 
 25  6  1  0  0  0  0 
M  END 
>  <HBA> 
0 
 
>  <HBD> 
0 
 
>  <TPSA> 
0.0 
 
>  <cid> 
31643 
 
>  <dipole> 
0.18 
 
>  <excitation_energy_1> 
6.052 
 
>  <excitation_energy_2> 
6.119 
 
>  <excitation_energy_3> 
6.327 
 
>  <excitation_energy_4> 
6.433 
 
>  <homo_energy> 
-6.498 
 
>  <homo_lumo_gap> 
8.202 
 
>  <logP> 
2.836 
 
>  <lumo_energy> 
1.703 
 
>  <melting_point> 
7.48 
 
>  <molecular_refractivity> 
43.28 
 
>  <oscillator_strength_1> 
0.0087 
 
>  <oscillator_strength_2> 
0.0549 
 
>  <oscillator_strength_3> 
0.0147 
 
>  <oscillator_strength_4> 
0.0173 
 
>  <open_babel_can_smiles> 
CCC#CC(CC)(C)C 
 
>  <mulliken_charges> 
25 
1   -0.433758 
2   -0.452588 
3   -0.436611 
4   -0.44019 
5   -0.388464 
6   -0.239051 
7   -0.013366 
8   0.085796 
9   -0.045347 
10   0.144053 
11   0.155431 
12   0.155698 
13   0.140378 
14   0.157177 
15   0.142899 
16   0.138437 
17   0.14823 
18   0.148114 
19   0.138146 
20   0.154328 
21   0.148339 
22   0.164121 
23   0.164362 
24   0.135878 
25   0.127989 
 
>  <lowdin_charges> 
25 
1   -0.43652 
2   -0.446916 
3   -0.430182 
4   -0.436083 
5   -0.256431 
6   -0.263303 
7   -0.096856 
8   -0.08091 
9   0.024837 
10   0.150363 
11   0.153893 
12   0.155282 
13   0.149404 
14   0.15625 
15   0.144947 
16   0.147128 
17   0.151761 
18   0.150732 
19   0.147638 
20   0.155774 
21   0.152617 
22   0.162142 
23   0.161121 
24   0.143103 
25   0.140211 
 
$$$$ 
 
