PCCDB-ID:  41976 
public computational chemistry database (PCCDB) project, http://pccdb.org 
 
 27 26  0  0  1  0  0  0  0  0999 V2000 
    2.5399   -1.3847    1.8142 C   0  0  0  0  0  0  0  0  0  0  0  0 
    6.4800   -1.2606   -2.9341 C   0  0  0  0  0  0  0  0  0  0  0  0 
    5.7765   -3.4814   -1.9584 C   0  0  0  0  0  0  0  0  0  0  0  0 
    2.3738   -2.2407   -1.5860 C   0  0  0  0  0  0  0  0  0  0  0  0 
    5.7480   -1.0599    0.0684 C   0  0  0  0  0  0  0  0  0  0  0  0 
    2.7913   -1.0477    0.5487 C   0  0  0  0  0  0  0  0  0  0  0  0 
    5.3301   -2.0452   -2.2787 C   0  0  0  0  0  0  0  0  0  0  0  0 
    3.4246   -1.9362   -0.4973 C   0  0  2  0  0  0  0  0  0  0  0  0 
    4.7267   -1.2850   -1.0608 C   0  0  1  0  0  0  0  0  0  0  0  0 
    2.0557   -0.6990    2.5048 H   0  0  0  0  0  0  0  0  0  0  0  0 
    2.8076   -2.3626    2.2104 H   0  0  0  0  0  0  0  0  0  0  0  0 
    6.7718   -1.7284   -3.8819 H   0  0  0  0  0  0  0  0  0  0  0  0 
    7.3726   -1.2293   -2.2989 H   0  0  0  0  0  0  0  0  0  0  0  0 
    6.1862   -0.2260   -3.1504 H   0  0  0  0  0  0  0  0  0  0  0  0 
    6.1457   -3.9782   -2.8635 H   0  0  0  0  0  0  0  0  0  0  0  0 
    4.9572   -4.0909   -1.5606 H   0  0  0  0  0  0  0  0  0  0  0  0 
    6.5897   -3.4965   -1.2233 H   0  0  0  0  0  0  0  0  0  0  0  0 
    1.4489   -2.6064   -1.1277 H   0  0  0  0  0  0  0  0  0  0  0  0 
    2.7193   -3.0026   -2.2916 H   0  0  0  0  0  0  0  0  0  0  0  0 
    2.1269   -1.3384   -2.1606 H   0  0  0  0  0  0  0  0  0  0  0  0 
    6.6441   -0.5451   -0.2923 H   0  0  0  0  0  0  0  0  0  0  0  0 
    6.0653   -2.0082    0.5190 H   0  0  0  0  0  0  0  0  0  0  0  0 
    5.3159   -0.4523    0.8687 H   0  0  0  0  0  0  0  0  0  0  0  0 
    2.5016   -0.0533    0.1992 H   0  0  0  0  0  0  0  0  0  0  0  0 
    4.5380   -2.1104   -3.0360 H   0  0  0  0  0  0  0  0  0  0  0  0 
    3.6950   -2.8841   -0.0104 H   0  0  0  0  0  0  0  0  0  0  0  0 
    4.4351   -0.2922   -1.4423 H   0  0  0  0  0  0  0  0  0  0  0  0 
  1 11  1  0  0  0  0 
  1 10  1  0  0  0  0 
  2 13  1  0  0  0  0 
  2  7  1  0  0  0  0 
  3 16  1  0  0  0  0 
  3 17  1  0  0  0  0 
  4 18  1  0  0  0  0 
  4  8  1  0  0  0  0 
  5 22  1  0  0  0  0 
  5 23  1  0  0  0  0 
  6  1  2  0  0  0  0 
  7  3  1  0  0  0  0 
  7  9  1  0  0  0  0 
  8 26  1  1  0  0  0 
  8  6  1  0  0  0  0 
  9 27  1  6  0  0  0 
  9  8  1  0  0  0  0 
  9  5  1  0  0  0  0 
 12  2  1  0  0  0  0 
 14  2  1  0  0  0  0 
 15  3  1  0  0  0  0 
 19  4  1  0  0  0  0 
 20  4  1  0  0  0  0 
 21  5  1  0  0  0  0 
 24  6  1  0  0  0  0 
 25  7  1  0  0  0  0 
M  END 
>  <HBA> 
0 
 
>  <HBD> 
0 
 
>  <TPSA> 
0.0 
 
>  <cid> 
41976 
 
>  <dipole> 
0.33 
 
>  <excitation_energy_1> 
6.409 
 
>  <excitation_energy_2> 
6.716 
 
>  <excitation_energy_3> 
6.757 
 
>  <excitation_energy_4> 
6.89 
 
>  <homo_energy> 
-6.762 
 
>  <homo_lumo_gap> 
7.459 
 
>  <logP> 
3.101 
 
>  <lumo_energy> 
0.697 
 
>  <melting_point> 
-49.15 
 
>  <molecular_refractivity> 
44.9 
 
>  <oscillator_strength_1> 
0.0323 
 
>  <oscillator_strength_2> 
0.0074 
 
>  <oscillator_strength_3> 
0.0096 
 
>  <oscillator_strength_4> 
0.2745 
 
>  <open_babel_can_smiles> 
C=C[C@H]([C@H](C(C)C)C)C 
 
>  <mulliken_charges> 
27 
1   -0.347876 
2   -0.449963 
3   -0.454596 
4   -0.459873 
5   -0.461482 
6   -0.040101 
7   -0.071981 
8   -0.115213 
9   -0.070878 
10   0.1364 
11   0.133904 
12   0.138726 
13   0.143665 
14   0.138095 
15   0.1396 
16   0.144138 
17   0.144327 
18   0.149942 
19   0.149838 
20   0.139835 
21   0.142171 
22   0.139823 
23   0.15319 
24   0.119324 
25   0.12557 
26   0.123635 
27   0.10978 
 
>  <lowdin_charges> 
27 
1   -0.34942 
2   -0.44497 
3   -0.451784 
4   -0.44803 
5   -0.453937 
6   -0.138692 
7   -0.125967 
8   -0.124693 
9   -0.124514 
10   0.158258 
11   0.152763 
12   0.147873 
13   0.146468 
14   0.145462 
15   0.149523 
16   0.148609 
17   0.148163 
18   0.15447 
19   0.151943 
20   0.146934 
21   0.149238 
22   0.145973 
23   0.157849 
24   0.146195 
25   0.140178 
26   0.139883 
27   0.132225 
 
$$$$ 
 
