PCCDB-ID:  19413 
public computational chemistry database (PCCDB) project, http://pccdb.org 
 
 21 21  0  0  0  0  0  0  0  0999 V2000 
   -1.8212    0.3647    0.0036 C   0  0  0  0  0  0  0  0  0  0  0  0 
   -1.0405    1.4687   -0.3414 C   0  0  0  0  0  0  0  0  0  0  0  0 
   -1.2044   -0.8435    0.3355 C   0  0  0  0  0  0  0  0  0  0  0  0 
    0.3515    1.3646   -0.3532 C   0  0  0  0  0  0  0  0  0  0  0  0 
    0.1865   -0.9454    0.3252 C   0  0  0  0  0  0  0  0  0  0  0  0 
    2.4969    0.0413   -0.0118 C   0  0  0  0  0  0  0  0  0  0  0  0 
    3.0285    0.1540    1.3855 C   0  0  0  0  0  0  0  0  0  0  0  0 
    4.1244   -2.0312    1.4235 C   0  0  0  0  0  0  0  0  0  0  0  0 
    4.1981   -0.5727    3.3880 C   0  0  0  0  0  0  0  0  0  0  0  0 
    0.9774    0.1574   -0.0232 C   0  0  0  0  0  0  0  0  0  0  0  0 
    3.7563   -0.7847    2.0375 C   0  0  0  0  0  0  0  0  0  0  0  0 
    4.4139   -3.0395    0.9219 N   0  0  0  0  0  0  0  0  0  0  0  0 
    4.5538   -0.3941    4.4804 N   0  0  0  0  0  0  0  0  0  0  0  0 
   -2.9047    0.4441    0.0118 H   0  0  0  0  0  0  0  0  0  0  0  0 
   -1.5131    2.4107   -0.6056 H   0  0  0  0  0  0  0  0  0  0  0  0 
   -1.8060   -1.7086    0.6004 H   0  0  0  0  0  0  0  0  0  0  0  0 
    0.9550    2.2266   -0.6295 H   0  0  0  0  0  0  0  0  0  0  0  0 
    0.6618   -1.8890    0.5830 H   0  0  0  0  0  0  0  0  0  0  0  0 
    2.8200   -0.9008   -0.4661 H   0  0  0  0  0  0  0  0  0  0  0  0 
    2.9283    0.8563   -0.6091 H   0  0  0  0  0  0  0  0  0  0  0  0 
    2.7861    1.0636    1.9305 H   0  0  0  0  0  0  0  0  0  0  0  0 
  1 14  1  0  0  0  0 
  1  3  2  0  0  0  0 
  2  1  1  0  0  0  0 
  3 16  1  0  0  0  0 
  4  2  2  0  0  0  0 
  4 10  1  0  0  0  0 
  5  3  1  0  0  0  0 
  5 18  1  0  0  0  0 
  6  7  1  0  0  0  0 
  7 21  1  0  0  0  0 
  7 11  2  0  0  0  0 
  8 11  1  0  0  0  0 
  9 13  3  0  0  0  0 
 10  6  1  0  0  0  0 
 10  5  2  0  0  0  0 
 11  9  1  0  0  0  0 
 12  8  3  0  0  0  0 
 15  2  1  0  0  0  0 
 17  4  1  0  0  0  0 
 19  6  1  0  0  0  0 
 20  6  1  0  0  0  0 
M  END 
>  <HBA> 
2 
 
>  <HBD> 
0 
 
>  <TPSA> 
47.58 
 
>  <cid> 
19413 
 
>  <dipole> 
5.6 
 
>  <excitation_energy_1> 
3.999 
 
>  <excitation_energy_2> 
4.157 
 
>  <excitation_energy_3> 
5.367 
 
>  <excitation_energy_4> 
5.384 
 
>  <homo_energy> 
-7.148 
 
>  <homo_lumo_gap> 
4.716 
 
>  <logP> 
2.203 
 
>  <lumo_energy> 
-2.433 
 
>  <melting_point> 
85.51 
 
>  <molecular_refractivity> 
49.66 
 
>  <oscillator_strength_1> 
0.0891 
 
>  <oscillator_strength_2> 
0.0031 
 
>  <oscillator_strength_3> 
0.4266 
 
>  <oscillator_strength_4> 
0.0081 
 
>  <open_babel_can_smiles> 
N#CC(=CCc1ccccc1)C#N 
 
>  <mulliken_charges> 
21 
1   -0.126305 
2   -0.125387 
3   -0.127061 
4   -0.181645 
5   -0.171304 
6   -0.424821 
7   -0.049994 
8   0.301345 
9   0.296907 
10   0.156558 
11   0.118095 
12   -0.469154 
13   -0.455972 
14   0.13917 
15   0.13892 
16   0.141652 
17   0.129938 
18   0.143902 
19   0.193682 
20   0.182675 
21   0.188798 
 
>  <lowdin_charges> 
21 
1   -0.148284 
2   -0.149695 
3   -0.148873 
4   -0.167974 
5   -0.15906 
6   -0.273928 
7   -0.055794 
8   -0.006586 
9   -0.005594 
10   -0.006752 
11   -0.044773 
12   -0.091413 
13   -0.089968 
14   0.160535 
15   0.162464 
16   0.16441 
17   0.15787 
18   0.163664 
19   0.177464 
20   0.176453 
21   0.185833 
 
$$$$ 
 
