PCCDB-ID:  66925 
public computational chemistry database (PCCDB) project, http://pccdb.org 
 
 31 30  0  0  0  0  0  0  0  0999 V2000 
    0.7776   -0.0598    0.4436 C   0  0  0  0  0  0  0  0  0  0  0  0 
    3.0933   -5.3641   -2.8156 C   0  0  0  0  0  0  0  0  0  0  0  0 
    2.3177    6.0082   -0.2183 C   0  0  0  0  0  0  0  0  0  0  0  0 
    2.3465   -2.2385   -0.9922 C   0  0  0  0  0  0  0  0  0  0  0  0 
    2.6609    2.4009    0.5367 C   0  0  0  0  0  0  0  0  0  0  0  0 
    2.1595   -0.7797   -1.4176 C   0  0  0  0  0  0  0  0  0  0  0  0 
    2.2398    1.5204   -0.6580 C   0  0  0  0  0  0  0  0  0  0  0  0 
    2.6926   -3.1340   -2.1647 C   0  0  0  0  0  0  0  0  0  0  0  0 
    3.0496    3.7850    0.0602 C   0  0  0  0  0  0  0  0  0  0  0  0 
    2.0379    0.1236   -0.2701 N   0  0  0  0  0  0  0  0  0  0  0  0 
    2.8958   -2.7660   -3.3020 O   0  0  0  0  0  0  0  0  0  0  0  0 
    4.1042    4.0684   -0.4662 O   0  0  0  0  0  0  0  0  0  0  0  0 
    2.7571   -4.4282   -1.7776 O   0  0  0  0  0  0  0  0  0  0  0  0 
    2.0496    4.6771    0.2527 O   0  0  0  0  0  0  0  0  0  0  0  0 
    0.6959   -1.0837    0.8187 H   0  0  0  0  0  0  0  0  0  0  0  0 
   -0.1074    0.1468   -0.1905 H   0  0  0  0  0  0  0  0  0  0  0  0 
    0.7352    0.6048    1.3106 H   0  0  0  0  0  0  0  0  0  0  0  0 
    3.0964   -6.3434   -2.3359 H   0  0  0  0  0  0  0  0  0  0  0  0 
    4.0780   -5.1374   -3.2331 H   0  0  0  0  0  0  0  0  0  0  0  0 
    2.3518   -5.3310   -3.6182 H   0  0  0  0  0  0  0  0  0  0  0  0 
    1.4203    6.5850    0.0075 H   0  0  0  0  0  0  0  0  0  0  0  0 
    2.5112    6.0035   -1.2944 H   0  0  0  0  0  0  0  0  0  0  0  0 
    3.1853    6.4301    0.2960 H   0  0  0  0  0  0  0  0  0  0  0  0 
    1.4552   -2.6530   -0.5078 H   0  0  0  0  0  0  0  0  0  0  0  0 
    3.1525   -2.3079   -0.2505 H   0  0  0  0  0  0  0  0  0  0  0  0 
    3.5354    1.9451    1.0093 H   0  0  0  0  0  0  0  0  0  0  0  0 
    1.8601    2.4853    1.2759 H   0  0  0  0  0  0  0  0  0  0  0  0 
    1.2967   -0.7029   -2.1063 H   0  0  0  0  0  0  0  0  0  0  0  0 
    3.0413   -0.4829   -1.9924 H   0  0  0  0  0  0  0  0  0  0  0  0 
    3.0468    1.5570   -1.3967 H   0  0  0  0  0  0  0  0  0  0  0  0 
    1.3406    1.9535   -1.1374 H   0  0  0  0  0  0  0  0  0  0  0  0 
  1 15  1  0  0  0  0 
  1 17  1  0  0  0  0 
  2 18  1  0  0  0  0 
  2 13  1  0  0  0  0 
  3 21  1  0  0  0  0 
  3 14  1  0  0  0  0 
  3 23  1  0  0  0  0 
  4 24  1  0  0  0  0 
  4 25  1  0  0  0  0 
  5 26  1  0  0  0  0 
  5 27  1  0  0  0  0 
  6  4  1  0  0  0  0 
  6 10  1  0  0  0  0 
  7 10  1  0  0  0  0 
  7  5  1  0  0  0  0 
  8 13  1  0  0  0  0 
  8  4  1  0  0  0  0 
  9 14  1  0  0  0  0 
  9  5  1  0  0  0  0 
 10  1  1  0  0  0  0 
 11  8  2  0  0  0  0 
 12  9  2  0  0  0  0 
 16  1  1  0  0  0  0 
 19  2  1  0  0  0  0 
 20  2  1  0  0  0  0 
 22  3  1  0  0  0  0 
 28  6  1  0  0  0  0 
 29  6  1  0  0  0  0 
 30  7  1  0  0  0  0 
 31  7  1  0  0  0  0 
M  END 
>  <HBA> 
5 
 
>  <HBD> 
0 
 
>  <TPSA> 
55.84 
 
>  <cid> 
66925 
 
>  <dipole> 
2.64 
 
>  <excitation_energy_1> 
5.298 
 
>  <excitation_energy_2> 
5.41 
 
>  <excitation_energy_3> 
5.603 
 
>  <excitation_energy_4> 
5.728 
 
>  <homo_energy> 
-5.962 
 
>  <homo_lumo_gap> 
6.264 
 
>  <logP> 
0.044 
 
>  <lumo_energy> 
0.302 
 
>  <melting_point> 
-1.04 
 
>  <molecular_refractivity> 
50.84 
 
>  <oscillator_strength_1> 
0.0033 
 
>  <oscillator_strength_2> 
0.0102 
 
>  <oscillator_strength_3> 
0.003 
 
>  <oscillator_strength_4> 
0.0015 
 
>  <open_babel_can_smiles> 
COC(=O)CCN(CCC(=O)OC)C 
 
>  <mulliken_charges> 
31 
1   -0.312943 
2   -0.218499 
3   -0.219427 
4   -0.374134 
5   -0.335691 
6   -0.110711 
7   -0.127073 
8   0.624279 
9   0.594795 
10   -0.390094 
11   -0.479572 
12   -0.475183 
13   -0.453761 
14   -0.443331 
15   0.154203 
16   0.12298 
17   0.154801 
18   0.164485 
19   0.170756 
20   0.170266 
21   0.163279 
22   0.170336 
23   0.171056 
24   0.172754 
25   0.186556 
26   0.178018 
27   0.162008 
28   0.126415 
29   0.163693 
30   0.163905 
31   0.125831 
 
>  <lowdin_charges> 
31 
1   -0.360671 
2   -0.278662 
3   -0.278271 
4   -0.307619 
5   -0.301345 
6   -0.197112 
7   -0.194833 
8   0.197635 
9   0.193401 
10   -0.186617 
11   -0.264588 
12   -0.266273 
13   -0.196027 
14   -0.194673 
15   0.150443 
16   0.123782 
17   0.15276 
18   0.160068 
19   0.158981 
20   0.159876 
21   0.160453 
22   0.157397 
23   0.160629 
24   0.168402 
25   0.17711 
26   0.174142 
27   0.161108 
28   0.127211 
29   0.159506 
30   0.158156 
31   0.125631 
 
$$$$ 
 
