PCCDB-ID:  29574 
public computational chemistry database (PCCDB) project, http://pccdb.org 
 
 21 21  0  0  0  0  0  0  0  0999 V2000 
    0.8094    0.0564    0.1006 C   0  0  0  0  0  0  0  0  0  0  0  0 
    4.4760   -1.1555   -0.1563 C   0  0  0  0  0  0  0  0  0  0  0  0 
    4.4824    1.2363   -0.2101 C   0  0  0  0  0  0  0  0  0  0  0  0 
    2.3204    0.0515    0.0493 C   0  0  0  0  0  0  0  0  0  0  0  0 
    5.2034    0.0368   -0.2596 C   0  0  0  0  0  0  0  0  0  0  0  0 
    3.0941   -1.1248    0.0008 C   0  0  0  0  0  0  0  0  0  0  0  0 
    3.1003    1.2201   -0.0519 C   0  0  0  0  0  0  0  0  0  0  0  0 
    6.5864    0.0311   -0.3461 N   0  0  0  0  0  0  0  0  0  0  0  0 
    2.4599   -2.4548    0.1316 N   0  0  0  0  0  0  0  0  0  0  0  0 
    2.4736    2.5582    0.0187 N   0  0  0  0  0  0  0  0  0  0  0  0 
    2.9964   -3.3965   -0.4518 O   0  0  0  0  0  0  0  0  0  0  0  0 
    1.4580   -2.5492    0.8374 O   0  0  0  0  0  0  0  0  0  0  0  0 
    3.0157    3.4698   -0.6059 O   0  0  0  0  0  0  0  0  0  0  0  0 
    1.4719    2.6898    0.7189 O   0  0  0  0  0  0  0  0  0  0  0  0 
    0.4016   -0.8403   -0.3659 H   0  0  0  0  0  0  0  0  0  0  0  0 
    0.4062    0.9353   -0.4025 H   0  0  0  0  0  0  0  0  0  0  0  0 
    0.4514    0.0787    1.1342 H   0  0  0  0  0  0  0  0  0  0  0  0 
    4.9720   -2.1183   -0.1946 H   0  0  0  0  0  0  0  0  0  0  0  0 
    4.9835    2.1938   -0.2914 H   0  0  0  0  0  0  0  0  0  0  0  0 
    7.0101   -0.8203   -0.6907 H   0  0  0  0  0  0  0  0  0  0  0  0 
    7.0147    0.8638   -0.7284 H   0  0  0  0  0  0  0  0  0  0  0  0 
  1 17  1  0  0  0  0 
  2  6  2  0  0  0  0 
  3  7  1  0  0  0  0 
  4  1  1  0  0  0  0 
  5  3  2  0  0  0  0 
  5  2  1  0  0  0  0 
  6  4  1  0  0  0  0 
  6  9  1  0  0  0  0 
  7 10  1  0  0  0  0 
  7  4  2  0  0  0  0 
  8  5  1  0  0  0  0 
  9 12  2  0  0  0  0 
 10 14  2  0  0  0  0 
 11  9  2  0  0  0  0 
 13 10  2  0  0  0  0 
 15  1  1  0  0  0  0 
 16  1  1  0  0  0  0 
 18  2  1  0  0  0  0 
 19  3  1  0  0  0  0 
 20  8  1  0  0  0  0 
 21  8  1  0  0  0  0 
M  END 
>  <HBA> 
1 
 
>  <HBD> 
1 
 
>  <TPSA> 
117.66 
 
>  <cid> 
29574 
 
>  <dipole> 
4.97 
 
>  <excitation_energy_1> 
3.129 
 
>  <excitation_energy_2> 
3.32 
 
>  <excitation_energy_3> 
3.712 
 
>  <excitation_energy_4> 
3.721 
 
>  <homo_energy> 
-6.572 
 
>  <homo_lumo_gap> 
3.875 
 
>  <logP> 
3.021 
 
>  <lumo_energy> 
-2.697 
 
>  <melting_point> 
136.91 
 
>  <molecular_refractivity> 
53.46 
 
>  <oscillator_strength_1> 
0.0461 
 
>  <oscillator_strength_2> 
0.0062 
 
>  <oscillator_strength_3> 
0.0082 
 
>  <oscillator_strength_4> 
0.0168 
 
>  <open_babel_can_smiles> 
Nc1cc(N(=O)=O)c(c(c1)N(=O)=O)C 
 
>  <mulliken_charges> 
21 
1   -0.489463 
2   -0.173556 
3   -0.173782 
4   0.158782 
5   0.326516 
6   0.185357 
7   0.185507 
8   -0.798226 
9   0.354876 
10   0.354789 
11   -0.379508 
12   -0.371688 
13   -0.379497 
14   -0.371658 
15   0.170577 
16   0.170683 
17   0.196886 
18   0.179288 
19   0.179295 
20   0.337409 
21   0.337412 
 
>  <lowdin_charges> 
21 
1   -0.439564 
2   -0.166783 
3   -0.166892 
4   0.009887 
5   0.0687 
6   0.013841 
7   0.01378 
8   -0.473908 
9   0.306671 
10   0.306928 
11   -0.243269 
12   -0.227703 
13   -0.243399 
14   -0.227794 
15   0.168849 
16   0.16902 
17   0.182882 
18   0.186412 
19   0.186486 
20   0.287842 
21   0.288015 
 
$$$$ 
 
