PCCDB-ID:  16506 
public computational chemistry database (PCCDB) project, http://pccdb.org 
 
 23 23  0  0  0  0  0  0  0  0999 V2000 
    1.0206   -0.1405    0.1179 C   0  0  0  0  0  0  0  0  0  0  0  0 
    5.6701   -2.2177   -0.5246 C   0  0  0  0  0  0  0  0  0  0  0  0 
    1.7862   -3.1574    0.5648 C   0  0  0  0  0  0  0  0  0  0  0  0 
    4.5289    1.2941    0.3922 C   0  0  0  0  0  0  0  0  0  0  0  0 
    3.1431    1.1667    0.3885 C   0  0  0  0  0  0  0  0  0  0  0  0 
    5.3268    0.1881    0.1079 C   0  0  0  0  0  0  0  0  0  0  0  0 
    2.5346   -0.0670    0.1311 C   0  0  0  0  0  0  0  0  0  0  0  0 
    4.7603   -1.0566   -0.1852 C   0  0  0  0  0  0  0  0  0  0  0  0 
    2.7410   -2.5305   -0.4478 C   0  0  0  0  0  0  0  0  0  0  0  0 
    3.3519   -1.1842   -0.1476 C   0  0  0  0  0  0  0  0  0  0  0  0 
    3.0434   -3.1509   -1.4535 O   0  0  0  0  0  0  0  0  0  0  0  0 
    0.5950    0.8539   -0.0495 H   0  0  0  0  0  0  0  0  0  0  0  0 
    0.6157   -0.5067    1.0698 H   0  0  0  0  0  0  0  0  0  0  0  0 
    0.6416   -0.7965   -0.6723 H   0  0  0  0  0  0  0  0  0  0  0  0 
    6.7125   -1.9576   -0.3165 H   0  0  0  0  0  0  0  0  0  0  0  0 
    5.5837   -2.4903   -1.5806 H   0  0  0  0  0  0  0  0  0  0  0  0 
    5.4260   -3.1186    0.0491 H   0  0  0  0  0  0  0  0  0  0  0  0 
    1.6233   -2.5432    1.4524 H   0  0  0  0  0  0  0  0  0  0  0  0 
    2.2145   -4.1182    0.8724 H   0  0  0  0  0  0  0  0  0  0  0  0 
    0.8246   -3.3747    0.0872 H   0  0  0  0  0  0  0  0  0  0  0  0 
    4.9874    2.2566    0.6036 H   0  0  0  0  0  0  0  0  0  0  0  0 
    2.5177    2.0348    0.5830 H   0  0  0  0  0  0  0  0  0  0  0  0 
    6.4092    0.2897    0.1019 H   0  0  0  0  0  0  0  0  0  0  0  0 
  1  7  1  0  0  0  0 
  1 13  1  0  0  0  0 
  2 15  1  0  0  0  0 
  2  8  1  0  0  0  0 
  2 17  1  0  0  0  0 
  3 19  1  0  0  0  0 
  3 18  1  0  0  0  0 
  4 21  1  0  0  0  0 
  5  4  1  0  0  0  0 
  5 22  1  0  0  0  0 
  6  4  2  0  0  0  0 
  7  5  2  0  0  0  0 
  8 10  2  0  0  0  0 
  8  6  1  0  0  0  0 
  9 10  1  0  0  0  0 
  9  3  1  0  0  0  0 
 10  7  1  0  0  0  0 
 11  9  2  0  0  0  0 
 12  1  1  0  0  0  0 
 14  1  1  0  0  0  0 
 16  2  1  0  0  0  0 
 20  3  1  0  0  0  0 
 23  6  1  0  0  0  0 
M  END 
>  <HBA> 
1 
 
>  <HBD> 
0 
 
>  <TPSA> 
17.07 
 
>  <cid> 
16506 
 
>  <dipole> 
2.49 
 
>  <excitation_energy_1> 
3.901 
 
>  <excitation_energy_2> 
4.513 
 
>  <excitation_energy_3> 
4.844 
 
>  <excitation_energy_4> 
5.626 
 
>  <homo_energy> 
-6.509 
 
>  <homo_lumo_gap> 
5.385 
 
>  <logP> 
2.506 
 
>  <lumo_energy> 
-1.124 
 
>  <melting_point> 
47.89 
 
>  <molecular_refractivity> 
46.57 
 
>  <oscillator_strength_1> 
0.003 
 
>  <oscillator_strength_2> 
0.0275 
 
>  <oscillator_strength_3> 
0.1017 
 
>  <oscillator_strength_4> 
0.0249 
 
>  <open_babel_can_smiles> 
CC(=O)c1c(C)cccc1C 
 
>  <mulliken_charges> 
23 
1   -0.539108 
2   -0.519506 
3   -0.523011 
4   -0.110524 
5   -0.192249 
6   -0.193643 
7   0.147951 
8   0.149366 
9   0.351598 
10   -0.022781 
11   -0.436765 
12   0.162361 
13   0.165214 
14   0.165961 
15   0.146172 
16   0.19041 
17   0.15567 
18   0.159501 
19   0.182183 
20   0.180125 
21   0.131517 
22   0.123846 
23   0.125711 
 
>  <lowdin_charges> 
23 
1   -0.445998 
2   -0.441085 
3   -0.476568 
4   -0.145941 
5   -0.172848 
6   -0.168766 
7   0.005478 
8   0.018635 
9   0.167004 
10   -0.062029 
11   -0.233812 
12   0.161343 
13   0.160878 
14   0.162801 
15   0.151596 
16   0.174789 
17   0.159253 
18   0.160689 
19   0.178742 
20   0.176075 
21   0.159176 
22   0.156188 
23   0.1544 
 
$$$$ 
 
