PCCDB-ID:  55718 
public computational chemistry database (PCCDB) project, http://pccdb.org 
 
 32 34  0  0  1  0  0  0  0  0999 V2000 
   -2.9538    0.6166   -0.1117 C   0  0  0  0  0  0  0  0  0  0  0  0 
   -2.8330   -0.7731   -0.1367 C   0  0  0  0  0  0  0  0  0  0  0  0 
   -1.8069    1.4153   -0.1574 C   0  0  0  0  0  0  0  0  0  0  0  0 
   -1.5679   -1.3572   -0.1979 C   0  0  0  0  0  0  0  0  0  0  0  0 
    1.9302    1.0199    0.3340 C   0  0  0  0  0  0  0  0  0  0  0  0 
    0.7229    1.6726   -0.3548 C   0  0  0  0  0  0  0  0  0  0  0  0 
    5.3996   -0.6976    3.0979 C   0  0  0  0  0  0  0  0  0  0  0  0 
    4.0740   -1.2701    3.6717 C   0  0  0  0  0  0  0  0  0  0  0  0 
    0.9271   -1.1616   -0.2663 C   0  0  0  0  0  0  0  0  0  0  0  0 
    3.4182   -1.0835    0.0184 C   0  0  0  0  0  0  0  0  0  0  0  0 
    2.0434   -0.4533   -0.0106 C   0  0  0  0  0  0  0  0  0  0  0  0 
   -0.5374    0.8431   -0.2210 C   0  0  0  0  0  0  0  0  0  0  0  0 
   -0.4122   -0.5644   -0.2324 C   0  0  0  0  0  0  0  0  0  0  0  0 
    4.0436   -1.0453    1.3918 C   0  0  3  0  0  0  0  0  0  0  0  0 
    5.1447   -0.4463    1.6663 N   0  0  0  0  0  0  0  0  0  0  0  0 
    3.4278   -1.7375    2.4369 N   0  0  0  0  0  0  0  0  0  0  0  0 
   -3.9355    1.0799   -0.0597 H   0  0  0  0  0  0  0  0  0  0  0  0 
   -3.7197   -1.4005   -0.1063 H   0  0  0  0  0  0  0  0  0  0  0  0 
   -1.9025    2.4991   -0.1480 H   0  0  0  0  0  0  0  0  0  0  0  0 
   -1.4692   -2.4407   -0.2123 H   0  0  0  0  0  0  0  0  0  0  0  0 
    1.8413    1.1268    1.4273 H   0  0  0  0  0  0  0  0  0  0  0  0 
    2.8515    1.5461    0.0587 H   0  0  0  0  0  0  0  0  0  0  0  0 
    0.9525    1.7850   -1.4263 H   0  0  0  0  0  0  0  0  0  0  0  0 
    0.5619    2.6843    0.0348 H   0  0  0  0  0  0  0  0  0  0  0  0 
    6.2173   -1.4258    3.1906 H   0  0  0  0  0  0  0  0  0  0  0  0 
    5.7206    0.2197    3.6022 H   0  0  0  0  0  0  0  0  0  0  0  0 
    3.4774   -0.4898    4.1685 H   0  0  0  0  0  0  0  0  0  0  0  0 
    4.2271   -2.0891    4.3811 H   0  0  0  0  0  0  0  0  0  0  0  0 
    0.9939   -2.2287   -0.4761 H   0  0  0  0  0  0  0  0  0  0  0  0 
    4.1023   -0.5554   -0.6550 H   0  0  0  0  0  0  0  0  0  0  0  0 
    3.3539   -2.1278   -0.3127 H   0  0  0  0  0  0  0  0  0  0  0  0 
    2.4153   -1.7893    2.4154 H   0  0  0  0  0  0  0  0  0  0  0  0 
  1 17  1  0  0  0  0 
  2  1  1  0  0  0  0 
  2 18  1  0  0  0  0 
  3 19  1  0  0  0  0 
  3  1  2  0  0  0  0 
  4  2  2  0  0  0  0 
  5 21  1  0  0  0  0 
  6 12  1  0  0  0  0 
  6 24  1  0  0  0  0 
  6  5  1  0  0  0  0 
  7 25  1  0  0  0  0 
  7 26  1  0  0  0  0 
  7  8  1  0  0  0  0 
  8 27  1  0  0  0  0 
  8 28  1  0  0  0  0 
  9 13  1  0  0  0  0 
  9 11  2  0  0  0  0 
 10 14  1  0  0  0  0 
 11 10  1  0  0  0  0 
 11  5  1  0  0  0  0 
 12  3  1  0  0  0  0 
 13 12  2  0  0  0  0 
 13  4  1  0  0  0  0 
 14 15  1  0  0  0  0 
 14 16  1  0  0  0  0 
 15  7  1  0  0  0  0 
 16  8  1  0  0  0  0 
 20  4  1  0  0  0  0 
 22  5  1  0  0  0  0 
 23  6  1  0  0  0  0 
 29  9  1  0  0  0  0 
 30 10  1  0  0  0  0 
 31 10  1  0  0  0  0 
 32 16  1  0  0  0  0 
M  RAD  2  14   2  15   2 
M  END 
>  <HBA> 
2 
 
>  <HBD> 
1 
 
>  <TPSA> 
24.39 
 
>  <cid> 
55718 
 
>  <dipole> 
2.23 
 
>  <excitation_energy_1> 
4.432 
 
>  <excitation_energy_2> 
4.525 
 
>  <excitation_energy_3> 
4.662 
 
>  <excitation_energy_4> 
5.138 
 
>  <homo_energy> 
-5.758 
 
>  <homo_lumo_gap> 
4.955 
 
>  <logP> 
2.172 
 
>  <lumo_energy> 
-0.803 
 
>  <melting_point> 
121.98 
 
>  <molecular_refractivity> 
75.03 
 
>  <oscillator_strength_1> 
0.0294 
 
>  <oscillator_strength_2> 
0.2957 
 
>  <oscillator_strength_3> 
0.0005 
 
>  <oscillator_strength_4> 
0.0033 
 
>  <open_babel_can_smiles> 
C1CN[C]([N]1)CC1=Cc2c(CC1)cccc2 
 
>  <mulliken_charges> 
32 
1   -0.127028 
2   -0.134339 
3   -0.197034 
4   -0.197265 
5   -0.330064 
6   -0.348396 
7   -0.161266 
8   -0.147604 
9   -0.238964 
10   -0.406716 
11   0.14469 
12   0.116593 
13   0.132269 
14   0.484334 
15   -0.468837 
16   -0.600909 
17   0.127609 
18   0.127743 
19   0.122319 
20   0.1247 
21   0.150954 
22   0.158047 
23   0.158756 
24   0.144214 
25   0.150701 
26   0.14706 
27   0.138368 
28   0.149926 
29   0.123119 
30   0.175638 
31   0.163487 
32   0.317893 
 
>  <lowdin_charges> 
32 
1   -0.157582 
2   -0.161292 
3   -0.163376 
4   -0.159637 
5   -0.274049 
6   -0.267398 
7   -0.211342 
8   -0.213216 
9   -0.18762 
10   -0.276677 
11   -0.010397 
12   -0.006184 
13   -0.013134 
14   0.081226 
15   -0.244881 
16   -0.317442 
17   0.157012 
18   0.157802 
19   0.152454 
20   0.152776 
21   0.15029 
22   0.159898 
23   0.153955 
24   0.151953 
25   0.147382 
26   0.149636 
27   0.135601 
28   0.150467 
29   0.151921 
30   0.175409 
31   0.163458 
32   0.272985 
 
$$$$ 
 
