PCCDB-ID:  12186 
public computational chemistry database (PCCDB) project, http://pccdb.org 
 
 24 23  0  0  1  0  0  0  0  0999 V2000 
    5.3701   -1.7766   -0.8009 C   0  0  0  0  0  0  0  0  0  0  0  0 
    0.3639    0.2924    0.4059 C   0  0  0  0  0  0  0  0  0  0  0  0 
   -1.0152   -1.1120   -1.1784 C   0  0  0  0  0  0  0  0  0  0  0  0 
    4.0077   -1.6957   -1.4947 C   0  0  0  0  0  0  0  0  0  0  0  0 
    1.5046   -1.2766   -1.2577 C   0  0  0  0  0  0  0  0  0  0  0  0 
    0.2788   -1.0396   -0.3542 C   0  0  0  0  0  0  0  0  0  0  0  0 
    2.8447   -1.4384   -0.5243 C   0  0  1  0  0  0  0  0  0  0  0  0 
    2.7721   -2.4594    0.4796 O   0  0  0  0  0  0  0  0  0  0  0  0 
    6.1665   -2.0142   -1.5149 H   0  0  0  0  0  0  0  0  0  0  0  0 
    5.3615   -2.5463   -0.0232 H   0  0  0  0  0  0  0  0  0  0  0  0 
    5.6245   -0.8236   -0.3211 H   0  0  0  0  0  0  0  0  0  0  0  0 
   -0.5282    0.4452    1.0248 H   0  0  0  0  0  0  0  0  0  0  0  0 
    0.4336    1.1396   -0.2899 H   0  0  0  0  0  0  0  0  0  0  0  0 
    1.2335    0.3291    1.0704 H   0  0  0  0  0  0  0  0  0  0  0  0 
   -1.8979   -0.9773   -0.5418 H   0  0  0  0  0  0  0  0  0  0  0  0 
   -1.1141   -2.0785   -1.6876 H   0  0  0  0  0  0  0  0  0  0  0  0 
   -1.0387   -0.3279   -1.9470 H   0  0  0  0  0  0  0  0  0  0  0  0 
    3.8081   -2.6335   -2.0372 H   0  0  0  0  0  0  0  0  0  0  0  0 
    4.0173   -0.9023   -2.2547 H   0  0  0  0  0  0  0  0  0  0  0  0 
    1.5938   -0.4494   -1.9778 H   0  0  0  0  0  0  0  0  0  0  0  0 
    1.3336   -2.1836   -1.8607 H   0  0  0  0  0  0  0  0  0  0  0  0 
    0.2605   -1.8485    0.3882 H   0  0  0  0  0  0  0  0  0  0  0  0 
    3.0640   -0.5273    0.0455 H   0  0  0  0  0  0  0  0  0  0  0  0 
    2.5637   -3.2922    0.0241 H   0  0  0  0  0  0  0  0  0  0  0  0 
  1 11  1  0  0  0  0 
  1 10  1  0  0  0  0 
  2 12  1  0  0  0  0 
  2 14  1  0  0  0  0 
  3 15  1  0  0  0  0 
  3  6  1  0  0  0  0 
  4  1  1  0  0  0  0 
  4  7  1  0  0  0  0 
  5  7  1  0  0  0  0 
  5  6  1  0  0  0  0 
  6 22  1  0  0  0  0 
  6  2  1  0  0  0  0 
  7 23  1  1  0  0  0 
  7  8  1  0  0  0  0 
  9  1  1  0  0  0  0 
 13  2  1  0  0  0  0 
 16  3  1  0  0  0  0 
 17  3  1  0  0  0  0 
 18  4  1  0  0  0  0 
 19  4  1  0  0  0  0 
 20  5  1  0  0  0  0 
 21  5  1  0  0  0  0 
 24  8  1  0  0  0  0 
M  END 
>  <HBA> 
1 
 
>  <HBD> 
1 
 
>  <TPSA> 
20.23 
 
>  <cid> 
12186 
 
>  <dipole> 
1.44 
 
>  <excitation_energy_1> 
6.496 
 
>  <excitation_energy_2> 
7.077 
 
>  <excitation_energy_3> 
7.263 
 
>  <excitation_energy_4> 
7.338 
 
>  <homo_energy> 
-7.083 
 
>  <homo_lumo_gap> 
8.958 
 
>  <logP> 
1.803 
 
>  <lumo_energy> 
1.875 
 
>  <melting_point> 
-8.61 
 
>  <molecular_refractivity> 
36.92 
 
>  <oscillator_strength_1> 
0.0111 
 
>  <oscillator_strength_2> 
0.0029 
 
>  <oscillator_strength_3> 
0.0074 
 
>  <oscillator_strength_4> 
0.0041 
 
>  <open_babel_can_smiles> 
CC[C@@H](CC(C)C)O 
 
>  <mulliken_charges> 
24 
1   -0.441146 
2   -0.450348 
3   -0.443085 
4   -0.263965 
5   -0.272393 
6   -0.058701 
7   0.13425 
8   -0.620544 
9   0.139018 
10   0.158661 
11   0.141433 
12   0.14039 
13   0.133498 
14   0.152826 
15   0.140405 
16   0.135558 
17   0.136665 
18   0.117482 
19   0.131912 
20   0.125964 
21   0.112635 
22   0.134138 
23   0.134883 
24   0.380464 
 
>  <lowdin_charges> 
24 
1   -0.447655 
2   -0.447884 
3   -0.444831 
4   -0.288754 
5   -0.293158 
6   -0.123146 
7   -0.00517 
8   -0.463296 
9   0.149097 
10   0.156172 
11   0.147283 
12   0.149357 
13   0.142959 
14   0.152606 
15   0.148316 
16   0.144788 
17   0.144479 
18   0.133978 
19   0.14526 
20   0.143465 
21   0.134157 
22   0.143173 
23   0.141735 
24   0.337069 
 
$$$$ 
 
