PCCDB-ID:  69794 
public computational chemistry database (PCCDB) project, http://pccdb.org 
 
 12 11  0  0  0  0  0  0  0  0999 V2000 
    1.0306   -0.1100   -0.1195 C   0  0  0  0  0  0  0  0  0  0  0  0 
    3.1415   -0.5783    1.0691 C   0  0  0  0  0  0  0  0  0  0  0  0 
    3.1620    0.5515   -1.1176 C   0  0  0  0  0  0  0  0  0  0  0  0 
    2.4832   -0.0087   -0.0985 N   0  0  0  0  0  0  0  0  0  0  0  0 
    4.8005    0.7353   -1.2978 S   0  0  0  0  0  0  0  0  0  0  0  0 
    0.5974    0.4065    0.7462 H   0  0  0  0  0  0  0  0  0  0  0  0 
    0.7176   -1.1614   -0.0851 H   0  0  0  0  0  0  0  0  0  0  0  0 
    0.6397    0.3439   -1.0327 H   0  0  0  0  0  0  0  0  0  0  0  0 
    2.7356   -0.1252    1.9816 H   0  0  0  0  0  0  0  0  0  0  0  0 
    4.2114   -0.3815    1.0014 H   0  0  0  0  0  0  0  0  0  0  0  0 
    2.9685   -1.6612    1.1101 H   0  0  0  0  0  0  0  0  0  0  0  0 
    2.4874    0.9150   -1.8973 H   0  0  0  0  0  0  0  0  0  0  0  0 
  1  4  1  0  0  0  0 
  1  7  1  0  0  0  0 
  1  6  1  0  0  0  0 
  2 11  1  0  0  0  0 
  2  9  1  0  0  0  0 
  3  4  1  0  0  0  0 
  4  2  1  0  0  0  0 
  5  3  2  0  0  0  0 
  8  1  1  0  0  0  0 
 10  2  1  0  0  0  0 
 12  3  1  0  0  0  0 
M  END 
>  <HBA> 
2 
 
>  <HBD> 
0 
 
>  <TPSA> 
35.33 
 
>  <cid> 
69794 
 
>  <dipole> 
5.18 
 
>  <excitation_energy_1> 
3.423 
 
>  <excitation_energy_2> 
4.825 
 
>  <excitation_energy_3> 
5.15 
 
>  <excitation_energy_4> 
5.252 
 
>  <homo_energy> 
-5.57 
 
>  <homo_lumo_gap> 
4.868 
 
>  <logP> 
0.505 
 
>  <lumo_energy> 
-0.702 
 
>  <melting_point> 
8.43 
 
>  <molecular_refractivity> 
27.22 
 
>  <oscillator_strength_1> 
0.0001 
 
>  <oscillator_strength_2> 
0.0105 
 
>  <oscillator_strength_3> 
0.3082 
 
>  <oscillator_strength_4> 
0.0372 
 
>  <open_babel_can_smiles> 
S=CN(C)C 
 
>  <mulliken_charges> 
12 
1   -0.315422 
2   -0.323176 
3   -0.055539 
4   -0.29191 
5   -0.239403 
6   0.170776 
7   0.170926 
8   0.173383 
9   0.161835 
10   0.217279 
11   0.16483 
12   0.16642 
 
>  <lowdin_charges> 
12 
1   -0.347097 
2   -0.354997 
3   -0.185795 
4   -0.050204 
5   -0.210604 
6   0.159371 
7   0.157194 
8   0.166949 
9   0.157274 
10   0.190835 
11   0.155651 
12   0.161423 
 
$$$$ 
 
