PCCDB-ID:  9157 
public computational chemistry database (PCCDB) project, http://pccdb.org 
 
 25 28  0  0  0  0  0  0  0  0999 V2000 
    3.6914   -0.6835    0.0007 C   0  0  0  0  0  0  0  0  0  0  0  0 
    3.6815    0.7138    0.0006 C   0  0  0  0  0  0  0  0  0  0  0  0 
   -2.1982   -2.4151   -0.0012 C   0  0  0  0  0  0  0  0  0  0  0  0 
   -2.9631   -1.2606   -0.0017 C   0  0  0  0  0  0  0  0  0  0  0  0 
    2.4935   -1.4127    0.0003 C   0  0  0  0  0  0  0  0  0  0  0  0 
    2.4712    1.4210   -0.0002 C   0  0  0  0  0  0  0  0  0  0  0  0 
   -0.7708   -2.4057   -0.0010 C   0  0  0  0  0  0  0  0  0  0  0  0 
   -2.8663    1.3213   -0.0017 C   0  0  0  0  0  0  0  0  0  0  0  0 
   -2.0132    2.4142   -0.0014 C   0  0  0  0  0  0  0  0  0  0  0  0 
   -2.3142    0.0085   -0.0015 C   0  0  0  0  0  0  0  0  0  0  0  0 
    1.2878   -0.7216   -0.0005 C   0  0  0  0  0  0  0  0  0  0  0  0 
   -0.1192   -1.1898   -0.0010 C   0  0  0  0  0  0  0  0  0  0  0  0 
    1.2827    0.7044   -0.0002 C   0  0  0  0  0  0  0  0  0  0  0  0 
   -0.9174   -0.0236   -0.0007 C   0  0  0  0  0  0  0  0  0  0  0  0 
   -0.1287    1.1513   -0.0009 C   0  0  0  0  0  0  0  0  0  0  0  0 
   -0.6445    2.3655   -0.0008 N   0  0  0  0  0  0  0  0  0  0  0  0 
    4.6397   -1.2140    0.0009 H   0  0  0  0  0  0  0  0  0  0  0  0 
    4.6218    1.2582    0.0012 H   0  0  0  0  0  0  0  0  0  0  0  0 
   -2.7014   -3.3785   -0.0014 H   0  0  0  0  0  0  0  0  0  0  0  0 
   -4.0482   -1.3221   -0.0024 H   0  0  0  0  0  0  0  0  0  0  0  0 
    2.5155   -2.4996    0.0007 H   0  0  0  0  0  0  0  0  0  0  0  0 
    2.4567    2.5070   -0.0002 H   0  0  0  0  0  0  0  0  0  0  0  0 
   -0.2346   -3.3510   -0.0010 H   0  0  0  0  0  0  0  0  0  0  0  0 
   -3.9419    1.4758   -0.0019 H   0  0  0  0  0  0  0  0  0  0  0  0 
   -2.4295    3.4190   -0.0020 H   0  0  0  0  0  0  0  0  0  0  0  0 
  1 17  1  0  0  0  0 
  2  1  1  0  0  0  0 
  2 18  1  0  0  0  0 
  3  7  1  0  0  0  0 
  4 10  1  0  0  0  0 
  4  3  2  0  0  0  0 
  5 21  1  0  0  0  0 
  5  1  2  0  0  0  0 
  6 13  1  0  0  0  0 
  6  2  2  0  0  0  0 
  8 10  2  0  0  0  0 
  8  9  1  0  0  0  0 
  9 16  2  0  0  0  0 
 10 14  1  0  0  0  0 
 11 13  2  0  0  0  0 
 11  5  1  0  0  0  0 
 12  7  2  0  0  0  0 
 12 14  1  0  0  0  0 
 12 11  1  0  0  0  0 
 15 16  1  0  0  0  0 
 15 14  2  0  0  0  0 
 15 13  1  0  0  0  0 
 19  3  1  0  0  0  0 
 20  4  1  0  0  0  0 
 22  6  1  0  0  0  0 
 23  7  1  0  0  0  0 
 24  8  1  0  0  0  0 
 25  9  1  0  0  0  0 
M  END 
>  <HBA> 
1 
 
>  <HBD> 
0 
 
>  <TPSA> 
12.89 
 
>  <cid> 
9157 
 
>  <dipole> 
2.28 
 
>  <excitation_energy_1> 
3.219 
 
>  <excitation_energy_2> 
3.531 
 
>  <excitation_energy_3> 
3.808 
 
>  <excitation_energy_4> 
4.309 
 
>  <homo_energy> 
-6.071 
 
>  <homo_lumo_gap> 
3.995 
 
>  <logP> 
3.882 
 
>  <lumo_energy> 
-2.076 
 
>  <melting_point> 
137.39 
 
>  <molecular_refractivity> 
66.17 
 
>  <oscillator_strength_1> 
0.0036 
 
>  <oscillator_strength_2> 
0.1713 
 
>  <oscillator_strength_3> 
0.0009 
 
>  <oscillator_strength_4> 
0.0044 
 
>  <open_babel_can_smiles> 
c1cc2ccnc3c2c(c1)c1ccccc31 
 
>  <mulliken_charges> 
25 
1   -0.134592 
2   -0.135488 
3   -0.122712 
4   -0.205726 
5   -0.194416 
6   -0.192061 
7   -0.226983 
8   -0.226333 
9   0.028787 
10   0.237088 
11   0.04638 
12   0.119927 
13   0.117471 
14   -0.04842 
15   0.215745 
16   -0.517339 
17   0.131701 
18   0.133038 
19   0.136943 
20   0.137673 
21   0.131996 
22   0.151864 
23   0.139226 
24   0.136754 
25   0.139477 
 
>  <lowdin_charges> 
25 
1   -0.152701 
2   -0.154623 
3   -0.14341 
4   -0.15226 
5   -0.153423 
6   -0.139291 
7   -0.151232 
8   -0.172332 
9   -0.092677 
10   0.011336 
11   -0.007801 
12   0.005852 
13   -0.014547 
14   -0.035567 
15   0.048663 
16   -0.146428 
17   0.15954 
18   0.160206 
19   0.162188 
20   0.160239 
21   0.157036 
22   0.168644 
23   0.162227 
24   0.162392 
25   0.157967 
 
$$$$ 
 
