PCCDB-ID:  27926 
public computational chemistry database (PCCDB) project, http://pccdb.org 
 
 42 42  0  0  1  0  0  0  0  0999 V2000 
    4.6726   -0.3349    0.0440 C   0  0  0  0  0  0  0  0  0  0  0  0 
    3.4614    2.5301   -3.2914 C   0  0  0  0  0  0  0  0  0  0  0  0 
    8.1159    4.3109    0.5747 C   0  0  0  0  0  0  0  0  0  0  0  0 
    4.1047    0.8989   -0.6688 C   0  0  0  0  0  0  0  0  0  0  0  0 
    4.4846    2.9093   -2.2140 C   0  0  0  0  0  0  0  0  0  0  0  0 
    3.3957    2.1949    4.6857 C   0  0  0  0  0  0  0  0  0  0  0  0 
    3.0447    3.1420    3.7224 C   0  0  0  0  0  0  0  0  0  0  0  0 
    4.7446    1.9400    4.9454 C   0  0  0  0  0  0  0  0  0  0  0  0 
    4.0388    3.8309    3.0235 C   0  0  0  0  0  0  0  0  0  0  0  0 
    5.7361    2.6257    4.2438 C   0  0  0  0  0  0  0  0  0  0  0  0 
    6.3454    2.1825   -0.6464 C   0  0  0  0  0  0  0  0  0  0  0  0 
    7.0623    3.4865    1.3223 C   0  0  1  0  0  0  0  0  0  0  0  0 
    5.1352    1.7153   -1.4814 C   0  0  0  0  0  0  0  0  0  0  0  0 
    5.3944    3.5772    3.2722 C   0  0  0  0  0  0  0  0  0  0  0  0 
    6.4824    4.3086    2.5008 C   0  0  1  0  0  0  0  0  0  0  0  0 
    5.9636    3.0972    0.4320 N   0  0  0  0  0  0  0  0  0  0  0  0 
    7.5935    4.6202    3.3453 O   0  0  0  0  0  0  0  0  0  0  0  0 
    3.8716   -0.9171    0.5135 H   0  0  0  0  0  0  0  0  0  0  0  0 
    5.3847   -0.0659    0.8325 H   0  0  0  0  0  0  0  0  0  0  0  0 
    5.1935   -0.9947   -0.6610 H   0  0  0  0  0  0  0  0  0  0  0  0 
    3.0979    3.4237   -3.8122 H   0  0  0  0  0  0  0  0  0  0  0  0 
    2.5862    2.0194   -2.8751 H   0  0  0  0  0  0  0  0  0  0  0  0 
    3.9062    1.8664   -4.0440 H   0  0  0  0  0  0  0  0  0  0  0  0 
    8.8448    4.7130    1.2816 H   0  0  0  0  0  0  0  0  0  0  0  0 
    7.6344    5.1414    0.0450 H   0  0  0  0  0  0  0  0  0  0  0  0 
    8.6548    3.7043   -0.1598 H   0  0  0  0  0  0  0  0  0  0  0  0 
    3.6091    1.5511    0.0656 H   0  0  0  0  0  0  0  0  0  0  0  0 
    3.3095    0.5714   -1.3491 H   0  0  0  0  0  0  0  0  0  0  0  0 
    4.0236    3.5748   -1.4738 H   0  0  0  0  0  0  0  0  0  0  0  0 
    5.2843    3.4981   -2.6837 H   0  0  0  0  0  0  0  0  0  0  0  0 
    2.6237    1.6624    5.2348 H   0  0  0  0  0  0  0  0  0  0  0  0 
    1.9977    3.3516    3.5190 H   0  0  0  0  0  0  0  0  0  0  0  0 
    5.0249    1.2073    5.6979 H   0  0  0  0  0  0  0  0  0  0  0  0 
    3.7634    4.5724    2.2772 H   0  0  0  0  0  0  0  0  0  0  0  0 
    6.7862    2.4405    4.4512 H   0  0  0  0  0  0  0  0  0  0  0  0 
    7.0316    2.7070   -1.3208 H   0  0  0  0  0  0  0  0  0  0  0  0 
    6.8981    1.3009   -0.2685 H   0  0  0  0  0  0  0  0  0  0  0  0 
    7.5638    2.6052    1.7689 H   0  0  0  0  0  0  0  0  0  0  0  0 
    5.5500    1.0383   -2.2464 H   0  0  0  0  0  0  0  0  0  0  0  0 
    6.0547    5.2295    2.0740 H   0  0  0  0  0  0  0  0  0  0  0  0 
    5.2512    2.6392    0.9973 H   0  0  0  0  0  0  0  0  0  0  0  0 
    7.2476    5.1066    4.1098 H   0  0  0  0  0  0  0  0  0  0  0  0 
  1 18  1  0  0  0  0 
  1 19  1  0  0  0  0 
  2 22  1  0  0  0  0 
  2  5  1  0  0  0  0 
  3 24  1  0  0  0  0 
  3 12  1  0  0  0  0 
  4  1  1  0  0  0  0 
  4 27  1  0  0  0  0 
  5 13  1  0  0  0  0 
  5 29  1  0  0  0  0 
  6  8  1  0  0  0  0 
  6 31  1  0  0  0  0 
  7  6  2  0  0  0  0 
  8 33  1  0  0  0  0 
  9 14  2  0  0  0  0 
  9  7  1  0  0  0  0 
 10 35  1  0  0  0  0 
 10  8  2  0  0  0  0 
 11 37  1  0  0  0  0 
 11 16  1  0  0  0  0 
 12 38  1  1  0  0  0 
 12 15  1  0  0  0  0 
 13  4  1  0  0  0  0 
 13 11  1  0  0  0  0 
 14 10  1  0  0  0  0 
 15 40  1  6  0  0  0 
 15 14  1  0  0  0  0 
 15 17  1  0  0  0  0 
 16 41  1  0  0  0  0 
 16 12  1  0  0  0  0 
 17 42  1  0  0  0  0 
 20  1  1  0  0  0  0 
 21  2  1  0  0  0  0 
 23  2  1  0  0  0  0 
 25  3  1  0  0  0  0 
 26  3  1  0  0  0  0 
 28  4  1  0  0  0  0 
 30  5  1  0  0  0  0 
 32  7  1  0  0  0  0 
 34  9  1  0  0  0  0 
 36 11  1  0  0  0  0 
 39 13  1  0  0  0  0 
M  END 
>  <HBA> 
2 
 
>  <HBD> 
2 
 
>  <TPSA> 
32.26 
 
>  <cid> 
27926 
 
>  <dipole> 
1.64 
 
>  <excitation_energy_1> 
4.765 
 
>  <excitation_energy_2> 
4.877 
 
>  <excitation_energy_3> 
5.277 
 
>  <excitation_energy_4> 
5.439 
 
>  <homo_energy> 
-5.812 
 
>  <homo_lumo_gap> 
5.6 
 
>  <logP> 
3.525 
 
>  <lumo_energy> 
-0.212 
 
>  <melting_point> 
47.63 
 
>  <molecular_refractivity> 
73.83 
 
>  <oscillator_strength_1> 
0.0071 
 
>  <oscillator_strength_2> 
0.0012 
 
>  <oscillator_strength_3> 
0.0003 
 
>  <oscillator_strength_4> 
0.0013 
 
>  <open_babel_can_smiles> 
CCC(CN[C@H]([C@@H](c1ccccc1)O)C)CC 
 
>  <mulliken_charges> 
42 
1   -0.45049 
2   -0.450297 
3   -0.458458 
4   -0.269704 
5   -0.239811 
6   -0.128076 
7   -0.130618 
8   -0.130037 
9   -0.185972 
10   -0.177708 
11   -0.1272 
12   0.063562 
13   -0.082798 
14   0.079462 
15   0.082132 
16   -0.594698 
17   -0.634117 
18   0.14211 
19   0.148765 
20   0.141673 
21   0.140763 
22   0.143283 
23   0.137714 
24   0.171449 
25   0.144953 
26   0.142835 
27   0.132802 
28   0.137442 
29   0.142214 
30   0.126167 
31   0.131236 
32   0.132437 
33   0.132112 
34   0.138751 
35   0.145401 
36   0.13869 
37   0.110962 
38   0.109958 
39   0.112965 
40   0.122759 
41   0.314717 
42   0.392672 
 
>  <lowdin_charges> 
42 
1   -0.450846 
2   -0.450453 
3   -0.456919 
4   -0.28445 
5   -0.275757 
6   -0.159164 
7   -0.155475 
8   -0.15441 
9   -0.169813 
10   -0.163274 
11   -0.206443 
12   -0.062648 
13   -0.133041 
14   -0.036186 
15   -0.006266 
16   -0.371787 
17   -0.457725 
18   0.151383 
19   0.148458 
20   0.147926 
21   0.149986 
22   0.146031 
23   0.145126 
24   0.166889 
25   0.151456 
26   0.150936 
27   0.14001 
28   0.14641 
29   0.147373 
30   0.142182 
31   0.159752 
32   0.157477 
33   0.159029 
34   0.161496 
35   0.163989 
36   0.143709 
37   0.117737 
38   0.12104 
39   0.136642 
40   0.13585 
41   0.257001 
42   0.346768 
 
$$$$ 
 
