PCCDB-ID:  25106 
public computational chemistry database (PCCDB) project, http://pccdb.org 
 
 19 18  0  0  0  0  0  0  0  0999 V2000 
    0.4910   -1.3507    1.5428 C   0  0  0  0  0  0  0  0  0  0  0  0 
    4.4373   -5.1233   -0.5030 C   0  0  0  0  0  0  0  0  0  0  0  0 
    5.4365   -5.4581    0.5119 C   0  0  0  0  0  0  0  0  0  0  0  0 
    2.5022   -1.1960    0.3369 C   0  0  0  0  0  0  0  0  0  0  0  0 
    3.9786   -1.5379    0.4072 C   0  0  0  0  0  0  0  0  0  0  0  0 
    4.2100   -3.6211   -0.7077 C   0  0  0  0  0  0  0  0  0  0  0  0 
    6.2379   -5.7412    1.3013 N   0  0  0  0  0  0  0  0  0  0  0  0 
    4.0168   -3.1286   -1.7954 O   0  0  0  0  0  0  0  0  0  0  0  0 
    1.8774   -1.6215    1.5275 O   0  0  0  0  0  0  0  0  0  0  0  0 
    4.2080   -2.9671    0.4601 O   0  0  0  0  0  0  0  0  0  0  0  0 
    0.1046   -1.7109    2.4994 H   0  0  0  0  0  0  0  0  0  0  0  0 
   -0.0347   -1.8690    0.7249 H   0  0  0  0  0  0  0  0  0  0  0  0 
    0.2853   -0.2715    1.4567 H   0  0  0  0  0  0  0  0  0  0  0  0 
    3.4759   -5.5704   -0.2170 H   0  0  0  0  0  0  0  0  0  0  0  0 
    4.7221   -5.5484   -1.4692 H   0  0  0  0  0  0  0  0  0  0  0  0 
    2.0449   -1.6691   -0.5461 H   0  0  0  0  0  0  0  0  0  0  0  0 
    2.4109   -0.1022    0.2089 H   0  0  0  0  0  0  0  0  0  0  0  0 
    4.4128   -1.1609    1.3344 H   0  0  0  0  0  0  0  0  0  0  0  0 
    4.5032   -1.1221   -0.4564 H   0  0  0  0  0  0  0  0  0  0  0  0 
  1 11  1  0  0  0  0 
  2 14  1  0  0  0  0 
  2  3  1  0  0  0  0 
  3  7  3  0  0  0  0 
  4  5  1  0  0  0  0 
  4  9  1  0  0  0  0 
  5 10  1  0  0  0  0 
  5 18  1  0  0  0  0 
  6  2  1  0  0  0  0 
  6 10  1  0  0  0  0 
  8  6  2  0  0  0  0 
  9  1  1  0  0  0  0 
 12  1  1  0  0  0  0 
 13  1  1  0  0  0  0 
 15  2  1  0  0  0  0 
 16  4  1  0  0  0  0 
 17  4  1  0  0  0  0 
 19  5  1  0  0  0  0 
M  END 
>  <HBA> 
4 
 
>  <HBD> 
0 
 
>  <TPSA> 
59.32 
 
>  <cid> 
25106 
 
>  <dipole> 
4.16 
 
>  <excitation_energy_1> 
5.761 
 
>  <excitation_energy_2> 
6.108 
 
>  <excitation_energy_3> 
6.645 
 
>  <excitation_energy_4> 
6.977 
 
>  <homo_energy> 
-7.295 
 
>  <homo_lumo_gap> 
6.931 
 
>  <logP> 
0.09 
 
>  <lumo_energy> 
-0.365 
 
>  <melting_point> 
10.83 
 
>  <molecular_refractivity> 
33.08 
 
>  <oscillator_strength_1> 
0.002 
 
>  <oscillator_strength_2> 
0.0007 
 
>  <oscillator_strength_3> 
0.0212 
 
>  <oscillator_strength_4> 
0.0122 
 
>  <open_babel_can_smiles> 
COCCOC(=O)CC#N 
 
>  <mulliken_charges> 
19 
1   -0.195146 
2   -0.431641 
3   0.369883 
4   -0.033083 
5   -0.067012 
6   0.635229 
7   -0.457611 
8   -0.463045 
9   -0.454373 
10   -0.428482 
11   0.165537 
12   0.133772 
13   0.133556 
14   0.22984 
15   0.228108 
16   0.149671 
17   0.129555 
18   0.180613 
19   0.174629 
 
>  <lowdin_charges> 
19 
1   -0.277223 
2   -0.293009 
3   -0.012697 
4   -0.139847 
5   -0.132723 
6   0.201213 
7   -0.110617 
8   -0.253502 
9   -0.268933 
10   -0.16507 
11   0.159351 
12   0.135006 
13   0.131685 
14   0.20708 
15   0.203874 
16   0.143191 
17   0.13445 
18   0.170939 
19   0.166832 
 
$$$$ 
 
