PCCDB-ID:  22787 
public computational chemistry database (PCCDB) project, http://pccdb.org 
 
 22 22  0  0  0  0  0  0  0  0999 V2000 
   -2.3687    0.7247   -0.5004 C   0  0  0  0  0  0  0  0  0  0  0  0 
   -1.3863    1.6686   -0.8068 C   0  0  0  0  0  0  0  0  0  0  0  0 
   -2.0288   -0.4308    0.2061 C   0  0  0  0  0  0  0  0  0  0  0  0 
   -0.0670    1.4649   -0.4030 C   0  0  0  0  0  0  0  0  0  0  0  0 
   -0.7092   -0.6435    0.6028 C   0  0  0  0  0  0  0  0  0  0  0  0 
    2.0668    2.0381    1.9762 C   0  0  0  0  0  0  0  0  0  0  0  0 
    0.2819    0.3072    0.3084 C   0  0  0  0  0  0  0  0  0  0  0  0 
    2.9195    3.2443    1.5357 C   0  0  0  0  0  0  0  0  0  0  0  0 
    1.6964    0.0506    0.7262 C   0  0  0  0  0  0  0  0  0  0  0  0 
    2.4830    0.7817    1.4062 N   0  0  0  0  0  0  0  0  0  0  0  0 
    2.5074    4.3731    1.6582 O   0  0  0  0  0  0  0  0  0  0  0  0 
    2.1906   -1.1604    0.3361 O   0  0  0  0  0  0  0  0  0  0  0  0 
    4.5698    2.9155    0.8897 S   0  0  0  0  0  0  0  0  0  0  0  0 
   -3.3964    0.8891   -0.8120 H   0  0  0  0  0  0  0  0  0  0  0  0 
   -1.6451    2.5648   -1.3632 H   0  0  0  0  0  0  0  0  0  0  0  0 
   -2.7904   -1.1663    0.4492 H   0  0  0  0  0  0  0  0  0  0  0  0 
    0.6965    2.1951   -0.6548 H   0  0  0  0  0  0  0  0  0  0  0  0 
   -0.4461   -1.5391    1.1602 H   0  0  0  0  0  0  0  0  0  0  0  0 
    1.0247    2.3266    1.7925 H   0  0  0  0  0  0  0  0  0  0  0  0 
    2.1990    1.9811    3.0673 H   0  0  0  0  0  0  0  0  0  0  0  0 
    1.5754   -1.5519   -0.3046 H   0  0  0  0  0  0  0  0  0  0  0  0 
    4.4402    1.5690    0.9570 H   0  0  0  0  0  0  0  0  0  0  0  0 
  1  3  1  0  0  0  0 
  2  1  2  0  0  0  0 
  2  4  1  0  0  0  0 
  3 16  1  0  0  0  0 
  3  5  2  0  0  0  0 
  4  7  2  0  0  0  0 
  5 18  1  0  0  0  0 
  6 20  1  0  0  0  0 
  7  5  1  0  0  0  0 
  7  9  1  0  0  0  0 
  8 11  2  0  0  0  0 
  8  6  1  0  0  0  0 
  9 10  2  0  0  0  0 
 10  6  1  0  0  0  0 
 12  9  1  0  0  0  0 
 13 22  1  0  0  0  0 
 13  8  1  0  0  0  0 
 14  1  1  0  0  0  0 
 15  2  1  0  0  0  0 
 17  4  1  0  0  0  0 
 19  6  1  0  0  0  0 
 21 12  1  0  0  0  0 
M  END 
>  <HBA> 
4 
 
>  <HBD> 
2 
 
>  <TPSA> 
84.97 
 
>  <cid> 
22787 
 
>  <dipole> 
6.41 
 
>  <excitation_energy_1> 
4.651 
 
>  <excitation_energy_2> 
4.781 
 
>  <excitation_energy_3> 
4.977 
 
>  <excitation_energy_4> 
5.027 
 
>  <homo_energy> 
-6.71 
 
>  <homo_lumo_gap> 
5.421 
 
>  <logP> 
1.264 
 
>  <lumo_energy> 
-1.29 
 
>  <melting_point> 
106.38 
 
>  <molecular_refractivity> 
52.37 
 
>  <oscillator_strength_1> 
0.0023 
 
>  <oscillator_strength_2> 
0.0434 
 
>  <oscillator_strength_3> 
0.0456 
 
>  <oscillator_strength_4> 
0.0058 
 
>  <open_babel_can_smiles> 
O/C(=N/CC(=O)S)/c1ccccc1 
 
>  <mulliken_charges> 
22 
1   -0.120149 
2   -0.132488 
3   -0.128508 
4   -0.160249 
5   -0.176246 
6   -0.213618 
7   0.034634 
8   0.266012 
9   0.433401 
10   -0.43847 
11   -0.416805 
12   -0.570356 
13   -0.056085 
14   0.146038 
15   0.150751 
16   0.145895 
17   0.165169 
18   0.152579 
19   0.174342 
20   0.194502 
21   0.411044 
22   0.138606 
 
>  <lowdin_charges> 
22 
1   -0.141 
2   -0.145615 
3   -0.150184 
4   -0.150632 
5   -0.161429 
6   -0.227153 
7   -0.051533 
8   0.039324 
9   0.141804 
10   -0.211844 
11   -0.230424 
12   -0.356949 
13   -0.040365 
14   0.164831 
15   0.168399 
16   0.16668 
17   0.17428 
18   0.167113 
19   0.160894 
20   0.176822 
21   0.360408 
22   0.14657 
 
$$$$ 
 
