PCCDB-ID:  49134 
public computational chemistry database (PCCDB) project, http://pccdb.org 
 
 35 35  0  0  1  0  0  0  0  0999 V2000 
    4.1297    2.4061   -3.0423 C   0  0  0  0  0  0  0  0  0  0  0  0 
    4.8751    2.2656    5.6464 C   0  0  0  0  0  0  0  0  0  0  0  0 
    5.5710    0.1700    3.4737 C   0  0  0  0  0  0  0  0  0  0  0  0 
    3.9846    1.8790   -1.6454 C   0  0  0  0  0  0  0  0  0  0  0  0 
    5.4153    2.5862    4.2468 C   0  0  0  0  0  0  0  0  0  0  0  0 
    4.9959    1.6118   -0.8150 C   0  0  0  0  0  0  0  0  0  0  0  0 
    4.8325    1.0970    0.5908 C   0  0  0  0  0  0  0  0  0  0  0  0 
    5.0024    1.5661    3.1608 C   0  0  1  0  0  0  0  0  0  0  0  0 
    4.5961    3.4330    1.5033 C   0  0  0  0  0  0  0  0  0  0  0  0 
    6.8119    2.3832    1.5122 C   0  0  0  0  0  0  0  0  0  0  0  0 
    6.5424    4.6896    1.4219 C   0  0  0  0  0  0  0  0  0  0  0  0 
    5.3221    2.0985    1.6983 C   0  0  2  0  0  0  0  0  0  0  0  0 
    5.1294    4.5805    1.3746 N   0  0  0  0  0  0  0  0  0  0  0  0 
    7.3557    3.5272    1.3929 N   0  0  0  0  0  0  0  0  0  0  0  0 
    3.2438    3.3920    1.5053 O   0  0  0  0  0  0  0  0  0  0  0  0 
    7.6453    1.3163    1.4563 O   0  0  0  0  0  0  0  0  0  0  0  0 
    7.0598    5.7825    1.4714 O   0  0  0  0  0  0  0  0  0  0  0  0 
    3.6190    3.3719   -3.1492 H   0  0  0  0  0  0  0  0  0  0  0  0 
    3.6727    1.7244   -3.7719 H   0  0  0  0  0  0  0  0  0  0  0  0 
    5.1807    2.5454   -3.3143 H   0  0  0  0  0  0  0  0  0  0  0  0 
    5.1371    3.0685    6.3431 H   0  0  0  0  0  0  0  0  0  0  0  0 
    5.2870    1.3357    6.0520 H   0  0  0  0  0  0  0  0  0  0  0  0 
    3.7814    2.1773    5.6415 H   0  0  0  0  0  0  0  0  0  0  0  0 
    5.1495   -0.1945    4.4144 H   0  0  0  0  0  0  0  0  0  0  0  0 
    6.6595    0.1929    3.6033 H   0  0  0  0  0  0  0  0  0  0  0  0 
    5.3180   -0.5779    2.7140 H   0  0  0  0  0  0  0  0  0  0  0  0 
    2.9615    1.7128   -1.3014 H   0  0  0  0  0  0  0  0  0  0  0  0 
    6.5111    2.6498    4.2823 H   0  0  0  0  0  0  0  0  0  0  0  0 
    5.0612    3.5826    3.9625 H   0  0  0  0  0  0  0  0  0  0  0  0 
    6.0203    1.7817   -1.1475 H   0  0  0  0  0  0  0  0  0  0  0  0 
    5.3734    0.1482    0.6964 H   0  0  0  0  0  0  0  0  0  0  0  0 
    3.7816    0.8353    0.7764 H   0  0  0  0  0  0  0  0  0  0  0  0 
    3.9060    1.4740    3.1961 H   0  0  0  0  0  0  0  0  0  0  0  0 
    2.9369    2.4745    1.5629 H   0  0  0  0  0  0  0  0  0  0  0  0 
    7.1501    0.4920    1.5741 H   0  0  0  0  0  0  0  0  0  0  0  0 
  1  4  1  0  0  0  0 
  2 22  1  0  0  0  0 
  2 21  1  0  0  0  0 
  3 25  1  0  0  0  0 
  3 24  1  0  0  0  0 
  4 27  1  0  0  0  0 
  4  6  2  0  0  0  0 
  5 28  1  0  0  0  0 
  5  2  1  0  0  0  0 
  6  7  1  0  0  0  0 
  7 31  1  0  0  0  0 
  7 32  1  0  0  0  0 
  8 33  1  1  0  0  0 
  8  3  1  0  0  0  0 
  8  5  1  0  0  0  0 
  9 15  1  0  0  0  0 
  9 12  1  0  0  0  0 
 10 12  1  0  0  0  0 
 11 17  2  0  0  0  0 
 12  7  1  6  0  0  0 
 12  8  1  0  0  0  0 
 13 11  2  0  0  0  0 
 13  9  2  0  0  0  0 
 14 11  1  0  0  0  0 
 14 10  2  0  0  0  0 
 15 34  1  0  0  0  0 
 16 10  1  0  0  0  0 
 16 35  1  0  0  0  0 
 18  1  1  0  0  0  0 
 19  1  1  0  0  0  0 
 20  1  1  0  0  0  0 
 23  2  1  0  0  0  0 
 26  3  1  0  0  0  0 
 29  5  1  0  0  0  0 
 30  6  1  0  0  0  0 
M  END 
>  <HBA> 
5 
 
>  <HBD> 
2 
 
>  <TPSA> 
75.27 
 
>  <cid> 
49134 
 
>  <dipole> 
9.77 
 
>  <excitation_energy_1> 
3.995 
 
>  <excitation_energy_2> 
4.18 
 
>  <excitation_energy_3> 
4.914 
 
>  <excitation_energy_4> 
5.242 
 
>  <homo_energy> 
-6.792 
 
>  <homo_lumo_gap> 
5.38 
 
>  <logP> 
2.009 
 
>  <lumo_energy> 
-1.412 
 
>  <melting_point> 
149.37 
 
>  <molecular_refractivity> 
71.37 
 
>  <oscillator_strength_1> 
0.0002 
 
>  <oscillator_strength_2> 
0.0001 
 
>  <oscillator_strength_3> 
0.0019 
 
>  <oscillator_strength_4> 
0.0002 
 
>  <open_babel_can_smiles> 
C/C=C/C[C@@]1([C@H](CC)C)C(=N[C](=[N]=C1O)=O)O 
 
>  <mulliken_charges> 
35 
1   -0.491459 
2   -0.454717 
3   -0.508746 
4   -0.078079 
5   -0.285092 
6   -0.093461 
7   -0.358295 
8   -0.064855 
9   0.555829 
10   0.53393 
11   0.618112 
12   -0.139213 
13   -0.47239 
14   -0.466752 
15   -0.57885 
16   -0.581974 
17   -0.433887 
18   0.173513 
19   0.159995 
20   0.164291 
21   0.16364 
22   0.149087 
23   0.146016 
24   0.176339 
25   0.167429 
26   0.149268 
27   0.120883 
28   0.16245 
29   0.174933 
30   0.151785 
31   0.149217 
32   0.136634 
33   0.118243 
34   0.414772 
35   0.421402 
 
>  <lowdin_charges> 
35 
1   -0.438117 
2   -0.443771 
3   -0.464778 
4   -0.138968 
5   -0.282721 
6   -0.188755 
7   -0.271931 
8   -0.11636 
9   0.153271 
10   0.146544 
11   0.17328 
12   -0.064224 
13   -0.185237 
14   -0.184974 
15   -0.330661 
16   -0.334129 
17   -0.213138 
18   0.167514 
19   0.161867 
20   0.160217 
21   0.163091 
22   0.149014 
23   0.14667 
24   0.169282 
25   0.156028 
26   0.150467 
27   0.145279 
28   0.15326 
29   0.162123 
30   0.16172 
31   0.150293 
32   0.144151 
33   0.133586 
34   0.353059 
35   0.357048 
 
$$$$ 
 
