PCCDB-ID:  11439 
public computational chemistry database (PCCDB) project, http://pccdb.org 
 
 12 12  0  0  0  0  0  0  0  0999 V2000 
   -0.3700    1.2513   -0.0147 C   0  0  0  0  0  0  0  0  0  0  0  0 
   -1.2822    0.0204   -0.0411 C   0  0  0  0  0  0  0  0  0  0  0  0 
    0.9997    0.5925    0.0222 C   0  0  0  0  0  0  0  0  0  0  0  0 
   -0.2872   -1.1653   -0.0098 C   0  0  0  0  0  0  0  0  0  0  0  0 
    1.0525   -0.6898    0.0254 N   0  0  0  0  0  0  0  0  0  0  0  0 
    2.1207    1.3220    0.0512 O   0  0  0  0  0  0  0  0  0  0  0  0 
   -0.6008   -2.3305   -0.0148 O   0  0  0  0  0  0  0  0  0  0  0  0 
   -0.5155    1.8887    0.8666 H   0  0  0  0  0  0  0  0  0  0  0  0 
   -0.4673    1.8917   -0.9005 H   0  0  0  0  0  0  0  0  0  0  0  0 
   -1.8991   -0.0456   -0.9419 H   0  0  0  0  0  0  0  0  0  0  0  0 
   -1.9541   -0.0440    0.8196 H   0  0  0  0  0  0  0  0  0  0  0  0 
    1.8952    2.2668    0.0432 H   0  0  0  0  0  0  0  0  0  0  0  0 
  1  3  1  0  0  0  0 
  1  8  1  0  0  0  0 
  2  1  1  0  0  0  0 
  2  4  1  0  0  0  0 
  2 11  1  0  0  0  0 
  3  5  2  0  0  0  0 
  3  6  1  0  0  0  0 
  4  5  1  0  0  0  0 
  7  4  2  0  0  0  0 
  9  1  1  0  0  0  0 
 10  2  1  0  0  0  0 
 12  6  1  0  0  0  0 
M  END 
>  <HBA> 
3 
 
>  <HBD> 
1 
 
>  <TPSA> 
46.17 
 
>  <cid> 
11439 
 
>  <dipole> 
6.71 
 
>  <excitation_energy_1> 
4.356 
 
>  <excitation_energy_2> 
5.477 
 
>  <excitation_energy_3> 
5.706 
 
>  <excitation_energy_4> 
6.407 
 
>  <homo_energy> 
-6.803 
 
>  <homo_lumo_gap> 
5.859 
 
>  <logP> 
-0.248 
 
>  <lumo_energy> 
-0.944 
 
>  <melting_point> 
67.3 
 
>  <molecular_refractivity> 
26.34 
 
>  <oscillator_strength_1> 
0.0005 
 
>  <oscillator_strength_2> 
0.0002 
 
>  <oscillator_strength_3> 
0.0078 
 
>  <oscillator_strength_4> 
0.0979 
 
>  <open_babel_can_smiles> 
OC1=NC(=O)CC1 
 
>  <mulliken_charges> 
12 
1   -0.390118 
2   -0.374976 
3   0.519811 
4   0.543455 
5   -0.444177 
6   -0.557552 
7   -0.450403 
8   0.179591 
9   0.179268 
10   0.187496 
11   0.187389 
12   0.420215 
 
>  <lowdin_charges> 
12 
1   -0.321007 
2   -0.316243 
3   0.144925 
4   0.159473 
5   -0.191502 
6   -0.311267 
7   -0.223866 
8   0.169344 
9   0.169133 
10   0.177504 
11   0.177628 
12   0.365879 
 
$$$$ 
 
