PCCDB-ID:  52841 
public computational chemistry database (PCCDB) project, http://pccdb.org 
 
 30 31  0  0  0  0  0  0  0  0999 V2000 
    0.9204    0.8098    0.5314 C   0  0  0  0  0  0  0  0  0  0  0  0 
    3.8593    0.8863   -5.9498 C   0  0  0  0  0  0  0  0  0  0  0  0 
    2.5569    1.3202   -5.6992 C   0  0  0  0  0  0  0  0  0  0  0  0 
    4.6529    0.4150   -4.8974 C   0  0  0  0  0  0  0  0  0  0  0  0 
    2.0497    1.2808   -4.4004 C   0  0  0  0  0  0  0  0  0  0  0  0 
    4.1481    0.3763   -3.6022 C   0  0  0  0  0  0  0  0  0  0  0  0 
    2.2731    0.7795   -1.9786 C   0  0  0  0  0  0  0  0  0  0  0  0 
    2.5320   -1.1131    0.8773 C   0  0  0  0  0  0  0  0  0  0  0  0 
    3.3147    1.2022    1.2586 C   0  0  0  0  0  0  0  0  0  0  0  0 
    3.1992   -0.3651    2.9811 C   0  0  0  0  0  0  0  0  0  0  0  0 
    2.8376    0.8100   -3.3403 C   0  0  0  0  0  0  0  0  0  0  0  0 
    2.3725    0.3457    0.3699 C   0  0  0  0  0  0  0  0  0  0  0  0 
    2.9430    0.3731   -0.9720 N   0  0  0  0  0  0  0  0  0  0  0  0 
    2.3070   -1.1975    2.2807 O   0  0  0  0  0  0  0  0  0  0  0  0 
    3.0515    0.9922    2.6425 O   0  0  0  0  0  0  0  0  0  0  0  0 
    0.6318    0.7254    1.5813 H   0  0  0  0  0  0  0  0  0  0  0  0 
    0.2329    0.1940   -0.0603 H   0  0  0  0  0  0  0  0  0  0  0  0 
    0.7949    1.8559    0.2282 H   0  0  0  0  0  0  0  0  0  0  0  0 
    4.2575    0.9156   -6.9605 H   0  0  0  0  0  0  0  0  0  0  0  0 
    1.9371    1.6871   -6.5127 H   0  0  0  0  0  0  0  0  0  0  0  0 
    5.6673    0.0774   -5.0926 H   0  0  0  0  0  0  0  0  0  0  0  0 
    1.0339    1.6172   -4.2028 H   0  0  0  0  0  0  0  0  0  0  0  0 
    4.7483    0.0139   -2.7739 H   0  0  0  0  0  0  0  0  0  0  0  0 
    1.2355    1.1326   -1.9033 H   0  0  0  0  0  0  0  0  0  0  0  0 
    3.5447   -1.4654    0.6274 H   0  0  0  0  0  0  0  0  0  0  0  0 
    1.8032   -1.7751    0.4008 H   0  0  0  0  0  0  0  0  0  0  0  0 
    3.1669    2.2693    1.0688 H   0  0  0  0  0  0  0  0  0  0  0  0 
    4.3581    0.9436    1.0205 H   0  0  0  0  0  0  0  0  0  0  0  0 
    4.2400   -0.6868    2.7845 H   0  0  0  0  0  0  0  0  0  0  0  0 
    2.9610   -0.4592    4.0416 H   0  0  0  0  0  0  0  0  0  0  0  0 
  1 16  1  0  0  0  0 
  2  3  2  0  0  0  0 
  2  4  1  0  0  0  0 
  3  5  1  0  0  0  0 
  4  6  2  0  0  0  0 
  5 22  1  0  0  0  0 
  5 11  2  0  0  0  0 
  6 11  1  0  0  0  0 
  6 23  1  0  0  0  0 
  7 24  1  0  0  0  0 
  7 13  2  0  0  0  0 
  8 14  1  0  0  0  0 
  9 15  1  0  0  0  0 
 10 30  1  0  0  0  0 
 11  7  1  0  0  0  0 
 12  1  1  0  0  0  0 
 12  8  1  0  0  0  0 
 12  9  1  0  0  0  0 
 13 12  1  0  0  0  0 
 14 10  1  0  0  0  0 
 15 10  1  0  0  0  0 
 17  1  1  0  0  0  0 
 18  1  1  0  0  0  0 
 19  2  1  0  0  0  0 
 20  3  1  0  0  0  0 
 21  4  1  0  0  0  0 
 25  8  1  0  0  0  0 
 26  8  1  0  0  0  0 
 27  9  1  0  0  0  0 
 28  9  1  0  0  0  0 
 29 10  1  0  0  0  0 
M  END 
>  <HBA> 
3 
 
>  <HBD> 
0 
 
>  <TPSA> 
30.82 
 
>  <cid> 
52841 
 
>  <dipole> 
2.24 
 
>  <excitation_energy_1> 
4.296 
 
>  <excitation_energy_2> 
4.689 
 
>  <excitation_energy_3> 
4.77 
 
>  <excitation_energy_4> 
5.325 
 
>  <homo_energy> 
-6.427 
 
>  <homo_lumo_gap> 
5.135 
 
>  <logP> 
1.869 
 
>  <lumo_energy> 
-1.293 
 
>  <melting_point> 
37.4 
 
>  <molecular_refractivity> 
59.22 
 
>  <oscillator_strength_1> 
0.0012 
 
>  <oscillator_strength_2> 
0.476 
 
>  <oscillator_strength_3> 
0.0117 
 
>  <oscillator_strength_4> 
0.0004 
 
>  <open_babel_can_smiles> 
CC1(COCOC1)/N=C/c1ccccc1 
 
>  <mulliken_charges> 
30 
1   -0.474144 
2   -0.122528 
3   -0.134235 
4   -0.132146 
5   -0.18635 
6   -0.161252 
7   0.038495 
8   -0.044589 
9   -0.044497 
10   0.177247 
11   0.141266 
12   0.154454 
13   -0.417547 
14   -0.461239 
15   -0.461313 
16   0.180758 
17   0.14413 
18   0.143988 
19   0.134413 
20   0.134204 
21   0.134988 
22   0.130524 
23   0.15331 
24   0.123433 
25   0.138058 
26   0.151271 
27   0.15119 
28   0.138342 
29   0.113353 
30   0.156417 
 
>  <lowdin_charges> 
30 
1   -0.459561 
2   -0.146406 
3   -0.158052 
4   -0.152465 
5   -0.152331 
6   -0.138276 
7   -0.070594 
8   -0.139058 
9   -0.135541 
10   -0.021234 
11   -0.02327 
12   0.028555 
13   -0.171474 
14   -0.261672 
15   -0.262564 
16   0.171768 
17   0.151612 
18   0.148957 
19   0.159279 
20   0.161047 
21   0.159008 
22   0.156376 
23   0.172961 
24   0.132478 
25   0.137789 
26   0.155289 
27   0.152012 
28   0.137378 
29   0.113753 
30   0.154238 
 
$$$$ 
 
