PCCDB-ID:  39071 
public computational chemistry database (PCCDB) project, http://pccdb.org 
 
 20 20  0  0  0  0  0  0  0  0999 V2000 
    1.5247    0.4590    0.2202 C   0  0  0  0  0  0  0  0  0  0  0  0 
    7.6546    0.7878   -2.8557 C   0  0  0  0  0  0  0  0  0  0  0  0 
    3.0418    0.4645    0.0140 C   0  0  0  0  0  0  0  0  0  0  0  0 
    3.5659   -0.8571   -0.5783 C   0  0  0  0  0  0  0  0  0  0  0  0 
    5.9887   -1.6142   -0.2383 C   0  0  0  0  0  0  0  0  0  0  0  0 
    6.8350   -0.0398   -1.9120 C   0  0  0  0  0  0  0  0  0  0  0  0 
    5.0455   -0.8374   -0.8488 C   0  0  0  0  0  0  0  0  0  0  0  0 
    5.5436    0.0479   -1.7914 N   0  0  0  0  0  0  0  0  0  0  0  0 
    7.5713   -1.2449   -0.8524 S   0  0  0  0  0  0  0  0  0  0  0  0 
    1.1778    1.4109    0.6381 H   0  0  0  0  0  0  0  0  0  0  0  0 
    1.2176   -0.3380    0.9090 H   0  0  0  0  0  0  0  0  0  0  0  0 
    0.9959    0.2992   -0.7275 H   0  0  0  0  0  0  0  0  0  0  0  0 
    6.9872    1.4690   -3.3886 H   0  0  0  0  0  0  0  0  0  0  0  0 
    8.1786    0.1633   -3.5888 H   0  0  0  0  0  0  0  0  0  0  0  0 
    8.4096    1.3780   -2.3235 H   0  0  0  0  0  0  0  0  0  0  0  0 
    3.5481    0.6544    0.9699 H   0  0  0  0  0  0  0  0  0  0  0  0 
    3.3280    1.2836   -0.6565 H   0  0  0  0  0  0  0  0  0  0  0  0 
    3.0373   -1.0575   -1.5209 H   0  0  0  0  0  0  0  0  0  0  0  0 
    3.3310   -1.6881    0.0987 H   0  0  0  0  0  0  0  0  0  0  0  0 
    5.8447   -2.3711    0.5205 H   0  0  0  0  0  0  0  0  0  0  0  0 
  1 10  1  0  0  0  0 
  1 11  1  0  0  0  0 
  2 15  1  0  0  0  0 
  2  6  1  0  0  0  0 
  3  1  1  0  0  0  0 
  3 16  1  0  0  0  0 
  4  3  1  0  0  0  0 
  4 19  1  0  0  0  0 
  5 20  1  0  0  0  0 
  6  8  2  0  0  0  0 
  6  9  1  0  0  0  0 
  7  4  1  0  0  0  0 
  7  5  2  0  0  0  0 
  8  7  1  0  0  0  0 
  9  5  1  0  0  0  0 
 12  1  1  0  0  0  0 
 13  2  1  0  0  0  0 
 14  2  1  0  0  0  0 
 17  3  1  0  0  0  0 
 18  4  1  0  0  0  0 
M  END 
>  <HBA> 
2 
 
>  <HBD> 
0 
 
>  <TPSA> 
41.13 
 
>  <cid> 
39071 
 
>  <dipole> 
0.55 
 
>  <excitation_energy_1> 
5.233 
 
>  <excitation_energy_2> 
5.356 
 
>  <excitation_energy_3> 
5.386 
 
>  <excitation_energy_4> 
5.777 
 
>  <homo_energy> 
-6.226 
 
>  <homo_lumo_gap> 
5.78 
 
>  <logP> 
2.404 
 
>  <lumo_energy> 
-0.446 
 
>  <melting_point> 
25.4 
 
>  <molecular_refractivity> 
41.66 
 
>  <oscillator_strength_1> 
0.087 
 
>  <oscillator_strength_2> 
0.0008 
 
>  <oscillator_strength_3> 
0.0005 
 
>  <oscillator_strength_4> 
0.0012 
 
>  <open_babel_can_smiles> 
CCCc1csc(n1)C 
 
>  <mulliken_charges> 
20 
1   -0.443118 
2   -0.508108 
3   -0.249627 
4   -0.317272 
5   -0.395398 
6   0.107684 
7   0.317696 
8   -0.43509 
9   0.210161 
10   0.144529 
11   0.139743 
12   0.1435 
13   0.188785 
14   0.174529 
15   0.173836 
16   0.134077 
17   0.157318 
18   0.151814 
19   0.134426 
20   0.170515 
 
>  <lowdin_charges> 
20 
1   -0.445999 
2   -0.445886 
3   -0.271297 
4   -0.270499 
5   -0.351061 
6   -0.078937 
7   0.017725 
8   -0.172322 
9   0.269899 
10   0.151171 
11   0.146062 
12   0.147355 
13   0.180421 
14   0.170684 
15   0.170366 
16   0.141697 
17   0.153209 
18   0.155663 
19   0.147677 
20   0.184074 
 
$$$$ 
 
