PCCDB-ID:  72900 
public computational chemistry database (PCCDB) project, http://pccdb.org 
 
 13 13  0  0  0  0  0  0  0  0999 V2000 
    1.1645    0.0704    0.0152 C   0  0  0  0  0  0  0  0  0  0  0  0 
    4.8690    0.8874    0.1702 C   0  0  0  0  0  0  0  0  0  0  0  0 
    3.3759    1.1850    0.1585 C   0  0  0  0  0  0  0  0  0  0  0  0 
    3.3048   -1.1888   -0.0455 C   0  0  0  0  0  0  0  0  0  0  0  0 
    2.6249    0.0098    0.0398 N   0  0  0  0  0  0  0  0  0  0  0  0 
    2.8975    2.2951    0.2414 O   0  0  0  0  0  0  0  0  0  0  0  0 
    2.6225   -2.6794   -0.1879 S   0  0  0  0  0  0  0  0  0  0  0  0 
    5.0570   -0.9243    0.0179 S   0  0  0  0  0  0  0  0  0  0  0  0 
    0.8871    1.1195    0.1162 H   0  0  0  0  0  0  0  0  0  0  0  0 
    0.7564   -0.5195    0.8391 H   0  0  0  0  0  0  0  0  0  0  0  0 
    0.7923   -0.3381   -0.9273 H   0  0  0  0  0  0  0  0  0  0  0  0 
    5.3030    1.2552    1.1041 H   0  0  0  0  0  0  0  0  0  0  0  0 
    5.3478    1.4086   -0.6632 H   0  0  0  0  0  0  0  0  0  0  0  0 
  1  5  1  0  0  0  0 
  1  9  1  0  0  0  0 
  1 10  1  0  0  0  0 
  2 12  1  0  0  0  0 
  3  2  1  0  0  0  0 
  3  6  2  0  0  0  0 
  4  8  1  0  0  0  0 
  4  5  1  0  0  0  0 
  5  3  1  0  0  0  0 
  7  4  2  0  0  0  0 
  8  2  1  0  0  0  0 
 11  1  1  0  0  0  0 
 13  2  1  0  0  0  0 
M  END 
>  <HBA> 
4 
 
>  <HBD> 
0 
 
>  <TPSA> 
77.7 
 
>  <cid> 
72900 
 
>  <dipole> 
2.06 
 
>  <excitation_energy_1> 
3.161 
 
>  <excitation_energy_2> 
4.45 
 
>  <excitation_energy_3> 
4.879 
 
>  <excitation_energy_4> 
5.019 
 
>  <homo_energy> 
-6.392 
 
>  <homo_lumo_gap> 
4.438 
 
>  <logP> 
0.414 
 
>  <lumo_energy> 
-1.954 
 
>  <melting_point> 
60.7 
 
>  <molecular_refractivity> 
41.62 
 
>  <oscillator_strength_1> 
0.0002 
 
>  <oscillator_strength_2> 
0.1397 
 
>  <oscillator_strength_3> 
0.0007 
 
>  <oscillator_strength_4> 
0.1976 
 
>  <open_babel_can_smiles> 
O=C1CSC(=S)N1C 
 
>  <mulliken_charges> 
13 
1   -0.328807 
2   -0.547701 
3   0.599409 
4   -0.025842 
5   -0.392025 
6   -0.453979 
7   -0.157454 
8   0.252333 
9   0.202859 
10   0.19727 
11   0.196637 
12   0.228668 
13   0.228632 
 
>  <lowdin_charges> 
13 
1   -0.347917 
2   -0.410196 
3   0.166877 
4   -0.169437 
5   -0.056508 
6   -0.242469 
7   -0.11985 
8   0.243179 
9   0.182986 
10   0.178823 
11   0.177478 
12   0.198163 
13   0.198871 
 
$$$$ 
 
