PCCDB-ID:  20329 
public computational chemistry database (PCCDB) project, http://pccdb.org 
 
 17 18  0  0  0  0  0  0  0  0999 V2000 
    2.0938   -0.6747    0.0170 C   0  0  0  0  0  0  0  0  0  0  0  0 
    2.1006    0.7355    0.0530 C   0  0  0  0  0  0  0  0  0  0  0  0 
    0.9136   -1.4037   -0.0445 C   0  0  0  0  0  0  0  0  0  0  0  0 
   -2.3358   -0.0565   -0.0067 C   0  0  0  0  0  0  0  0  0  0  0  0 
    0.9182    1.4770    0.0457 C   0  0  0  0  0  0  0  0  0  0  0  0 
   -0.2899   -0.6816   -0.0422 C   0  0  0  0  0  0  0  0  0  0  0  0 
   -0.2675    0.7281    0.0173 C   0  0  0  0  0  0  0  0  0  0  0  0 
    0.8708    2.8875    0.1268 N   0  0  0  0  0  0  0  0  0  0  0  0 
   -1.6042   -1.1388   -0.0613 N   0  0  0  0  0  0  0  0  0  0  0  0 
   -1.6016    1.1082    0.0223 N   0  0  0  0  0  0  0  0  0  0  0  0 
    3.0471   -1.1961    0.0216 H   0  0  0  0  0  0  0  0  0  0  0  0 
    3.0513    1.2640    0.0774 H   0  0  0  0  0  0  0  0  0  0  0  0 
    0.9075   -2.4878   -0.0830 H   0  0  0  0  0  0  0  0  0  0  0  0 
   -3.4186   -0.0361    0.0048 H   0  0  0  0  0  0  0  0  0  0  0  0 
    1.7960    3.3033    0.0813 H   0  0  0  0  0  0  0  0  0  0  0  0 
    0.2942    3.3033   -0.6008 H   0  0  0  0  0  0  0  0  0  0  0  0 
   -1.9568    2.0328    0.2163 H   0  0  0  0  0  0  0  0  0  0  0  0 
  1 11  1  0  0  0  0 
  1  2  2  0  0  0  0 
  2 12  1  0  0  0  0 
  3  6  2  0  0  0  0 
  3  1  1  0  0  0  0 
  4 14  1  0  0  0  0 
  4 10  1  0  0  0  0 
  5  2  1  0  0  0  0 
  5  8  1  0  0  0  0 
  6  7  1  0  0  0  0 
  7 10  1  0  0  0  0 
  7  5  2  0  0  0  0 
  9  6  1  0  0  0  0 
  9  4  2  0  0  0  0 
 10 17  1  0  0  0  0 
 13  3  1  0  0  0  0 
 15  8  1  0  0  0  0 
 16  8  1  0  0  0  0 
M  END 
>  <HBA> 
2 
 
>  <HBD> 
2 
 
>  <TPSA> 
54.7 
 
>  <cid> 
20329 
 
>  <dipole> 
4.28 
 
>  <excitation_energy_1> 
4.482 
 
>  <excitation_energy_2> 
4.723 
 
>  <excitation_energy_3> 
5.056 
 
>  <excitation_energy_4> 
5.183 
 
>  <homo_energy> 
-5.391 
 
>  <homo_lumo_gap> 
5.328 
 
>  <logP> 
1.726 
 
>  <lumo_energy> 
-0.063 
 
>  <melting_point> 
160.59 
 
>  <molecular_refractivity> 
40.5 
 
>  <oscillator_strength_1> 
0.0074 
 
>  <oscillator_strength_2> 
0.0743 
 
>  <oscillator_strength_3> 
0.0534 
 
>  <oscillator_strength_4> 
0.0015 
 
>  <open_babel_can_smiles> 
Nc1cccc2c1[nH]cn2 
 
>  <mulliken_charges> 
17 
1   -0.14754 
2   -0.20102 
3   -0.180406 
4   0.224637 
5   0.263691 
6   0.226943 
7   0.302391 
8   -0.799986 
9   -0.493275 
10   -0.686069 
11   0.122855 
12   0.111041 
13   0.133549 
14   0.157932 
15   0.319869 
16   0.311757 
17   0.333633 
 
>  <lowdin_charges> 
17 
1   -0.162058 
2   -0.208425 
3   -0.174905 
4   -0.060135 
5   0.030645 
6   0.014077 
7   -0.008904 
8   -0.506334 
9   -0.190027 
10   -0.208069 
11   0.156449 
12   0.151505 
13   0.163176 
14   0.165052 
15   0.272577 
16   0.270174 
17   0.295202 
 
$$$$ 
 
