PCCDB-ID:  56854 
public computational chemistry database (PCCDB) project, http://pccdb.org 
 
 38 37  0  0  0  0  0  0  0  0999 V2000 
    1.3602   -2.2457    3.4703 C   0  0  0  0  0  0  0  0  0  0  0  0 
    2.4727   -1.5276    1.3063 C   0  0  0  0  0  0  0  0  0  0  0  0 
    6.4470   -3.9369    1.3718 C   0  0  0  0  0  0  0  0  0  0  0  0 
    6.2845   -4.1475    3.8920 C   0  0  0  0  0  0  0  0  0  0  0  0 
    6.6785   -0.8187    4.0812 C   0  0  0  0  0  0  0  0  0  0  0  0 
    6.0937   -1.1768    2.6980 C   0  0  0  0  0  0  0  0  0  0  0  0 
    3.8728   -2.0302    3.3675 C   0  0  0  0  0  0  0  0  0  0  0  0 
    2.5970   -2.3843    2.5716 C   0  0  0  0  0  0  0  0  0  0  0  0 
    5.5841   -3.6499    2.6085 C   0  0  0  0  0  0  0  0  0  0  0  0 
    8.3542    0.7397    4.9886 C   0  0  0  0  0  0  0  0  0  0  0  0 
    8.5223   -0.0352    5.9997 N   0  0  0  0  0  0  0  0  0  0  0  0 
    9.0542    1.9315    4.7435 N   0  0  0  0  0  0  0  0  0  0  0  0 
    7.4944    0.3847    3.9584 N   0  0  0  0  0  0  0  0  0  0  0  0 
    5.1152   -2.2539    2.6297 N   0  0  0  0  0  0  0  0  0  0  0  0 
    0.4465   -2.5248    2.9329 H   0  0  0  0  0  0  0  0  0  0  0  0 
    1.2374   -1.2096    3.8134 H   0  0  0  0  0  0  0  0  0  0  0  0 
    1.4343   -2.8832    4.3598 H   0  0  0  0  0  0  0  0  0  0  0  0 
    2.3218   -0.4702    1.5646 H   0  0  0  0  0  0  0  0  0  0  0  0 
    1.6202   -1.8426    0.6929 H   0  0  0  0  0  0  0  0  0  0  0  0 
    3.3818   -1.6025    0.7016 H   0  0  0  0  0  0  0  0  0  0  0  0 
    7.4217   -3.4381    1.4265 H   0  0  0  0  0  0  0  0  0  0  0  0 
    5.9398   -3.6014    0.4614 H   0  0  0  0  0  0  0  0  0  0  0  0 
    6.6403   -5.0124    1.2875 H   0  0  0  0  0  0  0  0  0  0  0  0 
    6.3893   -5.2392    3.8672 H   0  0  0  0  0  0  0  0  0  0  0  0 
    5.7138   -3.8892    4.7910 H   0  0  0  0  0  0  0  0  0  0  0  0 
    7.2895   -3.7248    3.9954 H   0  0  0  0  0  0  0  0  0  0  0  0 
    7.3288   -1.6045    4.4649 H   0  0  0  0  0  0  0  0  0  0  0  0 
    5.8751   -0.6889    4.8227 H   0  0  0  0  0  0  0  0  0  0  0  0 
    6.9220   -1.4011    2.0182 H   0  0  0  0  0  0  0  0  0  0  0  0 
    5.6103   -0.2742    2.2897 H   0  0  0  0  0  0  0  0  0  0  0  0 
    3.8577   -2.5771    4.3271 H   0  0  0  0  0  0  0  0  0  0  0  0 
    3.8183   -0.9656    3.6306 H   0  0  0  0  0  0  0  0  0  0  0  0 
    2.6692   -3.4374    2.2622 H   0  0  0  0  0  0  0  0  0  0  0  0 
    4.6698   -4.2464    2.4957 H   0  0  0  0  0  0  0  0  0  0  0  0 
    9.2877    0.3047    6.5852 H   0  0  0  0  0  0  0  0  0  0  0  0 
    9.2825    2.4585    5.5761 H   0  0  0  0  0  0  0  0  0  0  0  0 
    8.7058    2.5220    3.9979 H   0  0  0  0  0  0  0  0  0  0  0  0 
    7.0196    1.1621    3.5135 H   0  0  0  0  0  0  0  0  0  0  0  0 
  1 16  1  0  0  0  0 
  1 17  1  0  0  0  0 
  2 18  1  0  0  0  0 
  2  8  1  0  0  0  0 
  3 21  1  0  0  0  0 
  3  9  1  0  0  0  0 
  4 26  1  0  0  0  0 
  4 25  1  0  0  0  0 
  5 27  1  0  0  0  0 
  5 28  1  0  0  0  0 
  6  5  1  0  0  0  0 
  7 32  1  0  0  0  0 
  7 31  1  0  0  0  0 
  8  7  1  0  0  0  0 
  8  1  1  0  0  0  0 
  9 14  1  0  0  0  0 
  9  4  1  0  0  0  0 
 10 11  1  0  0  0  0 
 11 35  1  0  0  0  0 
 12 10  2  0  0  0  0 
 12 36  1  0  0  0  0 
 13  5  1  0  0  0  0 
 13 10  1  0  0  0  0 
 14  6  1  0  0  0  0 
 14  7  1  0  0  0  0 
 15  1  1  0  0  0  0 
 19  2  1  0  0  0  0 
 20  2  1  0  0  0  0 
 22  3  1  0  0  0  0 
 23  3  1  0  0  0  0 
 24  4  1  0  0  0  0 
 29  6  1  0  0  0  0 
 30  6  1  0  0  0  0 
 33  8  1  0  0  0  0 
 34  9  1  0  0  0  0 
 37 12  1  0  0  0  0 
 38 13  1  0  0  0  0 
M  RAD  1  11   2 
M  END 
>  <HBA> 
4 
 
>  <HBD> 
2 
 
>  <TPSA> 
67.64 
 
>  <cid> 
56854 
 
>  <dipole> 
2.89 
 
>  <excitation_energy_1> 
4.466 
 
>  <excitation_energy_2> 
4.854 
 
>  <excitation_energy_3> 
5.028 
 
>  <excitation_energy_4> 
5.129 
 
>  <homo_energy> 
-5.214 
 
>  <homo_lumo_gap> 
6.618 
 
>  <logP> 
2.027 
 
>  <lumo_energy> 
1.404 
 
>  <melting_point> 
99.78 
 
>  <molecular_refractivity> 
62.18 
 
>  <oscillator_strength_1> 
0.0066 
 
>  <oscillator_strength_2> 
0.0023 
 
>  <oscillator_strength_3> 
0.0044 
 
>  <oscillator_strength_4> 
0.0045 
 
>  <open_babel_can_smiles> 
CC(N(CC(C)C)CCNC(=[NH2])[NH])C 
 
>  <mulliken_charges> 
38 
1   -0.446446 
2   -0.441262 
3   -0.449554 
4   -0.455343 
5   -0.115411 
6   -0.158511 
7   -0.124341 
8   -0.068161 
9   0.047935 
10   0.603441 
11   -0.654009 
12   -0.754293 
13   -0.608987 
14   -0.385545 
15   0.141985 
16   0.136129 
17   0.139756 
18   0.12701 
19   0.135387 
20   0.157375 
21   0.145199 
22   0.150053 
23   0.140439 
24   0.13744 
25   0.149273 
26   0.152526 
27   0.187439 
28   0.13971 
29   0.152317 
30   0.120254 
31   0.120684 
32   0.125944 
33   0.125129 
34   0.129625 
35   0.265113 
36   0.322342 
37   0.310998 
38   0.298362 
 
>  <lowdin_charges> 
38 
1   -0.445139 
2   -0.447704 
3   -0.448055 
4   -0.461401 
5   -0.214142 
6   -0.211227 
7   -0.198726 
8   -0.127618 
9   -0.053517 
10   0.12957 
11   -0.488479 
12   -0.514053 
13   -0.308954 
14   -0.185925 
15   0.149915 
16   0.142863 
17   0.147136 
18   0.138219 
19   0.146608 
20   0.155676 
21   0.146871 
22   0.15362 
23   0.149447 
24   0.147239 
25   0.151704 
26   0.15023 
27   0.171374 
28   0.136329 
29   0.15206 
30   0.13214 
31   0.125912 
32   0.13893 
33   0.134366 
34   0.141077 
35   0.247576 
36   0.279134 
37   0.273019 
38   0.263925 
 
$$$$ 
 
