PCCDB-ID:  26185 
public computational chemistry database (PCCDB) project, http://pccdb.org 
 
 31 31  0  0  0  0  0  0  0  0999 V2000 
    4.9476   -5.2374   -5.2193 C   0  0  0  0  0  0  0  0  0  0  0  0 
   10.7754    0.2293   -3.5795 C   0  0  0  0  0  0  0  0  0  0  0  0 
    4.5762   -3.8601   -4.6611 C   0  0  0  0  0  0  0  0  0  0  0  0 
    8.3565   -4.1396    0.2077 C   0  0  0  0  0  0  0  0  0  0  0  0 
    9.1154   -3.2228   -0.5145 C   0  0  0  0  0  0  0  0  0  0  0  0 
    6.9744   -4.2413    0.0163 C   0  0  0  0  0  0  0  0  0  0  0  0 
    7.0966   -2.3965   -1.5582 C   0  0  0  0  0  0  0  0  0  0  0  0 
    8.4945   -2.3592   -1.4342 C   0  0  0  0  0  0  0  0  0  0  0  0 
    6.3694   -3.3689   -0.8804 C   0  0  0  0  0  0  0  0  0  0  0  0 
    4.4783   -3.6190   -2.2946 C   0  0  0  0  0  0  0  0  0  0  0  0 
    9.0970   -1.4132   -3.4669 C   0  0  0  0  0  0  0  0  0  0  0  0 
    5.1759   -3.6438   -3.3545 N   0  0  0  0  0  0  0  0  0  0  0  0 
    9.2782   -1.4831   -2.1999 N   0  0  0  0  0  0  0  0  0  0  0  0 
    3.1389   -3.7289   -2.1350 O   0  0  0  0  0  0  0  0  0  0  0  0 
    8.2588   -2.1110   -4.2564 O   0  0  0  0  0  0  0  0  0  0  0  0 
    9.8034   -0.5868   -4.2435 O   0  0  0  0  0  0  0  0  0  0  0  0 
    4.9889   -3.4694   -1.0482 O   0  0  0  0  0  0  0  0  0  0  0  0 
    4.5650   -5.3579   -6.2391 H   0  0  0  0  0  0  0  0  0  0  0  0 
    4.5333   -6.0379   -4.5964 H   0  0  0  0  0  0  0  0  0  0  0  0 
    6.0354   -5.3555   -5.2393 H   0  0  0  0  0  0  0  0  0  0  0  0 
   11.2385    0.8206   -4.3706 H   0  0  0  0  0  0  0  0  0  0  0  0 
   11.5196   -0.3917   -3.0737 H   0  0  0  0  0  0  0  0  0  0  0  0 
   10.2966    0.8783   -2.8414 H   0  0  0  0  0  0  0  0  0  0  0  0 
    3.4736   -3.7505   -4.6801 H   0  0  0  0  0  0  0  0  0  0  0  0 
    4.9559   -3.0810   -5.3333 H   0  0  0  0  0  0  0  0  0  0  0  0 
    8.8470   -4.8053    0.9127 H   0  0  0  0  0  0  0  0  0  0  0  0 
   10.1933   -3.1720   -0.3992 H   0  0  0  0  0  0  0  0  0  0  0  0 
    6.3747   -4.9770    0.5412 H   0  0  0  0  0  0  0  0  0  0  0  0 
    6.5820   -1.6929   -2.2013 H   0  0  0  0  0  0  0  0  0  0  0  0 
    2.7305   -3.8082   -3.0122 H   0  0  0  0  0  0  0  0  0  0  0  0 
    7.6981   -2.6965   -3.7086 H   0  0  0  0  0  0  0  0  0  0  0  0 
  1  3  1  0  0  0  0 
  1 19  1  0  0  0  0 
  2 22  1  0  0  0  0 
  2 23  1  0  0  0  0 
  3 12  1  0  0  0  0 
  4 26  1  0  0  0  0 
  5 27  1  0  0  0  0 
  5  4  2  0  0  0  0 
  6  4  1  0  0  0  0 
  6 28  1  0  0  0  0 
  7  8  2  0  0  0  0 
  7  9  1  0  0  0  0 
  8  5  1  0  0  0  0 
  9  6  2  0  0  0  0 
 10 14  1  0  0  0  0 
 10 17  1  0  0  0  0 
 11 13  2  0  0  0  0 
 12 10  2  0  0  0  0 
 13  8  1  0  0  0  0 
 15 31  1  0  0  0  0 
 15 11  1  0  0  0  0 
 16  2  1  0  0  0  0 
 16 11  1  0  0  0  0 
 17  9  1  0  0  0  0 
 18  1  1  0  0  0  0 
 20  1  1  0  0  0  0 
 21  2  1  0  0  0  0 
 24  3  1  0  0  0  0 
 25  3  1  0  0  0  0 
 29  7  1  0  0  0  0 
 30 14  1  0  0  0  0 
M  END 
>  <HBA> 
6 
 
>  <HBD> 
2 
 
>  <TPSA> 
76.66 
 
>  <cid> 
26185 
 
>  <dipole> 
1.78 
 
>  <excitation_energy_1> 
4.788 
 
>  <excitation_energy_2> 
5.187 
 
>  <excitation_energy_3> 
5.303 
 
>  <excitation_energy_4> 
5.655 
 
>  <homo_energy> 
-5.908 
 
>  <homo_lumo_gap> 
5.712 
 
>  <logP> 
2.437 
 
>  <lumo_energy> 
-0.196 
 
>  <melting_point> 
123.66 
 
>  <molecular_refractivity> 
61.73 
 
>  <oscillator_strength_1> 
0.0293 
 
>  <oscillator_strength_2> 
0.1861 
 
>  <oscillator_strength_3> 
0.0147 
 
>  <oscillator_strength_4> 
0.0256 
 
>  <open_babel_can_smiles> 
CC/N=C(/Oc1cccc(c1)/N=C(/OC)\O)\O 
 
>  <mulliken_charges> 
31 
1   -0.428781 
2   -0.203464 
3   -0.16424 
4   -0.149334 
5   -0.140904 
6   -0.165227 
7   -0.234389 
8   0.244104 
9   0.3626 
10   0.668699 
11   0.68154 
12   -0.449692 
13   -0.545905 
14   -0.579679 
15   -0.596497 
16   -0.442941 
17   -0.515897 
18   0.146305 
19   0.148783 
20   0.166373 
21   0.164413 
22   0.169006 
23   0.169642 
24   0.091164 
25   0.166246 
26   0.135594 
27   0.133547 
28   0.140671 
29   0.157607 
30   0.424083 
31   0.446575 
 
>  <lowdin_charges> 
31 
1   -0.444215 
2   -0.2755 
3   -0.190179 
4   -0.144338 
5   -0.175233 
6   -0.18908 
7   -0.219057 
8   0.050233 
9   0.112542 
10   0.200674 
11   0.200688 
12   -0.272381 
13   -0.250059 
14   -0.353296 
15   -0.353574 
16   -0.167496 
17   -0.143476 
18   0.152426 
19   0.152052 
20   0.158935 
21   0.161266 
22   0.160213 
23   0.160169 
24   0.105866 
25   0.156404 
26   0.162604 
27   0.16317 
28   0.170257 
29   0.174436 
30   0.362545 
31   0.373407 
 
$$$$ 
 
