PCCDB-ID:  39496 
public computational chemistry database (PCCDB) project, http://pccdb.org 
 
 36 37  0  0  1  0  0  0  0  0999 V2000 
    3.1029    1.3946   -0.2614 C   0  0  0  0  0  0  0  0  0  0  0  0 
    4.2898    2.9788   -3.1890 C   0  0  0  0  0  0  0  0  0  0  0  0 
    3.4809   -4.0090   -4.8358 C   0  0  0  0  0  0  0  0  0  0  0  0 
    4.3196   -3.5849   -3.6012 C   0  0  0  0  0  0  0  0  0  0  0  0 
    4.1293   -3.7795   -6.2189 C   0  0  0  0  0  0  0  0  0  0  0  0 
    3.6310   -1.5888   -2.2022 C   0  0  0  0  0  0  0  0  0  0  0  0 
    5.4455   -1.6896   -5.5528 C   0  0  0  0  0  0  0  0  0  0  0  0 
    4.2419   -2.0931   -3.3477 C   0  0  0  0  0  0  0  0  0  0  0  0 
    4.5376   -2.3398   -6.6110 C   0  0  2  0  0  0  0  0  0  0  0  0 
    4.6727   -1.2025   -4.3462 C   0  0  0  0  0  0  0  0  0  0  0  0 
    3.4063   -0.2143   -2.0401 C   0  0  0  0  0  0  0  0  0  0  0  0 
    4.2973    0.1464   -4.2609 C   0  0  0  0  0  0  0  0  0  0  0  0 
    3.7032    0.6688   -3.0951 C   0  0  0  0  0  0  0  0  0  0  0  0 
    3.4342   -1.3888   -6.8812 N   0  0  0  0  0  0  0  0  0  0  0  0 
    4.4524    0.9787   -5.3425 O   0  0  0  0  0  0  0  0  0  0  0  0 
    2.7855    0.1477   -0.8761 O   0  0  0  0  0  0  0  0  0  0  0  0 
    3.2824    1.9770   -3.0249 O   0  0  0  0  0  0  0  0  0  0  0  0 
    4.1808    1.5966   -0.3062 H   0  0  0  0  0  0  0  0  0  0  0  0 
    2.8023    1.2911    0.7850 H   0  0  0  0  0  0  0  0  0  0  0  0 
    2.5616    2.2234   -0.7231 H   0  0  0  0  0  0  0  0  0  0  0  0 
    5.0737    2.8744   -2.4259 H   0  0  0  0  0  0  0  0  0  0  0  0 
    3.7828    3.9378   -3.0552 H   0  0  0  0  0  0  0  0  0  0  0  0 
    4.7379    2.9332   -4.1845 H   0  0  0  0  0  0  0  0  0  0  0  0 
    2.5053   -3.5062   -4.7822 H   0  0  0  0  0  0  0  0  0  0  0  0 
    3.2679   -5.0836   -4.7597 H   0  0  0  0  0  0  0  0  0  0  0  0 
    5.3589   -3.9194   -3.7374 H   0  0  0  0  0  0  0  0  0  0  0  0 
    3.9418   -4.1158   -2.7200 H   0  0  0  0  0  0  0  0  0  0  0  0 
    3.4521   -4.1751   -6.9900 H   0  0  0  0  0  0  0  0  0  0  0  0 
    5.0382   -4.3971   -6.2732 H   0  0  0  0  0  0  0  0  0  0  0  0 
    3.3069   -2.2491   -1.4031 H   0  0  0  0  0  0  0  0  0  0  0  0 
    5.9717   -0.8448   -6.0080 H   0  0  0  0  0  0  0  0  0  0  0  0 
    6.2129   -2.4080   -5.2384 H   0  0  0  0  0  0  0  0  0  0  0  0 
    5.1030   -2.4137   -7.5492 H   0  0  0  0  0  0  0  0  0  0  0  0 
    2.7423   -1.4476   -6.1339 H   0  0  0  0  0  0  0  0  0  0  0  0 
    2.9502   -1.6410   -7.7418 H   0  0  0  0  0  0  0  0  0  0  0  0 
    4.2127    0.4404   -6.1324 H   0  0  0  0  0  0  0  0  0  0  0  0 
  1 19  1  0  0  0  0 
  2 22  1  0  0  0  0 
  2 17  1  0  0  0  0 
  2 21  1  0  0  0  0 
  3 24  1  0  0  0  0 
  3 25  1  0  0  0  0 
  3  4  1  0  0  0  0 
  4  8  1  0  0  0  0 
  4 27  1  0  0  0  0 
  5  3  1  0  0  0  0 
  6 11  1  0  0  0  0 
  6 30  1  0  0  0  0 
  7 32  1  0  0  0  0 
  7 10  1  0  0  0  0 
  8  6  2  0  0  0  0 
  9 33  1  6  0  0  0 
  9  5  1  0  0  0  0 
  9  7  1  0  0  0  0 
 10 12  2  0  0  0  0 
 10  8  1  0  0  0  0 
 11 16  1  0  0  0  0 
 12 13  1  0  0  0  0 
 13 17  1  0  0  0  0 
 13 11  2  0  0  0  0 
 14  9  1  0  0  0  0 
 14 34  1  0  0  0  0 
 15 12  1  0  0  0  0 
 16  1  1  0  0  0  0 
 18  1  1  0  0  0  0 
 20  1  1  0  0  0  0 
 23  2  1  0  0  0  0 
 26  4  1  0  0  0  0 
 28  5  1  0  0  0  0 
 29  5  1  0  0  0  0 
 31  7  1  0  0  0  0 
 35 14  1  0  0  0  0 
 36 15  1  0  0  0  0 
M  END 
>  <HBA> 
4 
 
>  <HBD> 
2 
 
>  <TPSA> 
64.71 
 
>  <cid> 
39496 
 
>  <dipole> 
2.32 
 
>  <excitation_energy_1> 
4.724 
 
>  <excitation_energy_2> 
4.81 
 
>  <excitation_energy_3> 
5.018 
 
>  <excitation_energy_4> 
5.161 
 
>  <homo_energy> 
-5.407 
 
>  <homo_lumo_gap> 
5.774 
 
>  <logP> 
2.316 
 
>  <lumo_energy> 
0.367 
 
>  <melting_point> 
140.02 
 
>  <molecular_refractivity> 
66.4 
 
>  <oscillator_strength_1> 
0.0007 
 
>  <oscillator_strength_2> 
0.0311 
 
>  <oscillator_strength_3> 
0.0019 
 
>  <oscillator_strength_4> 
0.0463 
 
>  <open_babel_can_smiles> 
COc1c(OC)cc2c(c1O)C[C@H](N)CCC2 
 
>  <mulliken_charges> 
36 
1   -0.202108 
2   -0.21771 
3   -0.259837 
4   -0.35121 
5   -0.269092 
6   -0.265424 
7   -0.36081 
8   0.126153 
9   0.036246 
10   0.044596 
11   0.329056 
12   0.237063 
13   0.278618 
14   -0.751318 
15   -0.68366 
16   -0.523649 
17   -0.52228 
18   0.138205 
19   0.151849 
20   0.168289 
21   0.131407 
22   0.152509 
23   0.18433 
24   0.13392 
25   0.136744 
26   0.141005 
27   0.144546 
28   0.124833 
29   0.132399 
30   0.124824 
31   0.153471 
32   0.142847 
33   0.131201 
34   0.321379 
35   0.308125 
36   0.433486 
 
>  <lowdin_charges> 
36 
1   -0.27207 
2   -0.280309 
3   -0.275384 
4   -0.274844 
5   -0.296263 
6   -0.210551 
7   -0.287037 
8   -0.012003 
9   -0.06807 
10   -0.075174 
11   0.082413 
12   0.071051 
13   0.027461 
14   -0.549719 
15   -0.407169 
16   -0.210366 
17   -0.220219 
18   0.138408 
19   0.149728 
20   0.154703 
21   0.13425 
22   0.152395 
23   0.160485 
24   0.139988 
25   0.145925 
26   0.145565 
27   0.152848 
28   0.141541 
29   0.143854 
30   0.162731 
31   0.158693 
32   0.152529 
33   0.141776 
34   0.265368 
35   0.26185 
36   0.355616 
 
$$$$ 
 
