PCCDB-ID:  33046 
public computational chemistry database (PCCDB) project, http://pccdb.org 
 
 27 27  0  0  0  0  0  0  0  0999 V2000 
    3.3353   -0.6632    1.1743 C   0  0  0  0  0  0  0  0  0  0  0  0 
    0.0327    2.5881    1.1647 C   0  0  0  0  0  0  0  0  0  0  0  0 
    2.6154    5.0941    0.8037 C   0  0  0  0  0  0  0  0  0  0  0  0 
    2.4158    0.0128    0.1400 C   0  0  0  0  0  0  0  0  0  0  0  0 
    1.5018    2.4680    1.6148 C   0  0  0  0  0  0  0  0  0  0  0  0 
    4.2608    2.7692   -1.7156 C   0  0  0  0  0  0  0  0  0  0  0  0 
    3.8758    3.9081   -1.0125 C   0  0  0  0  0  0  0  0  0  0  0  0 
    3.7619    1.5292   -1.3308 C   0  0  0  0  0  0  0  0  0  0  0  0 
    2.9949    3.8237    0.0713 C   0  0  0  0  0  0  0  0  0  0  0  0 
    2.8807    1.4069   -0.2479 C   0  0  0  0  0  0  0  0  0  0  0  0 
    2.4894    2.5625    0.4628 C   0  0  0  0  0  0  0  0  0  0  0  0 
    2.9843   -1.6751    1.4086 H   0  0  0  0  0  0  0  0  0  0  0  0 
    3.3741   -0.0930    2.1094 H   0  0  0  0  0  0  0  0  0  0  0  0 
    4.3596   -0.7377    0.7925 H   0  0  0  0  0  0  0  0  0  0  0  0 
   -0.6462    2.5261    2.0234 H   0  0  0  0  0  0  0  0  0  0  0  0 
   -0.2331    1.7891    0.4637 H   0  0  0  0  0  0  0  0  0  0  0  0 
   -0.1508    3.5413    0.6567 H   0  0  0  0  0  0  0  0  0  0  0  0 
    3.0722    5.9659    0.3253 H   0  0  0  0  0  0  0  0  0  0  0  0 
    2.9508    5.0812    1.8489 H   0  0  0  0  0  0  0  0  0  0  0  0 
    1.5313    5.2582    0.8204 H   0  0  0  0  0  0  0  0  0  0  0  0 
    1.3903    0.0324    0.5242 H   0  0  0  0  0  0  0  0  0  0  0  0 
    2.3865   -0.6105   -0.7623 H   0  0  0  0  0  0  0  0  0  0  0  0 
    1.6332    1.5223    2.1504 H   0  0  0  0  0  0  0  0  0  0  0  0 
    1.7110    3.2535    2.3490 H   0  0  0  0  0  0  0  0  0  0  0  0 
    4.9418    2.8497   -2.5590 H   0  0  0  0  0  0  0  0  0  0  0  0 
    4.2607    4.8819   -1.3068 H   0  0  0  0  0  0  0  0  0  0  0  0 
    4.0550    0.6347   -1.8768 H   0  0  0  0  0  0  0  0  0  0  0  0 
  1 12  1  0  0  0  0 
  1 13  1  0  0  0  0 
  2  5  1  0  0  0  0 
  2 15  1  0  0  0  0 
  3 20  1  0  0  0  0 
  3 19  1  0  0  0  0 
  4 21  1  0  0  0  0 
  4  1  1  0  0  0  0 
  5 23  1  0  0  0  0 
  5 24  1  0  0  0  0 
  6  8  2  0  0  0  0 
  6  7  1  0  0  0  0 
  7  9  2  0  0  0  0 
  8 10  1  0  0  0  0 
  9 11  1  0  0  0  0 
  9  3  1  0  0  0  0 
 10  4  1  0  0  0  0 
 10 11  2  0  0  0  0 
 11  5  1  0  0  0  0 
 14  1  1  0  0  0  0 
 16  2  1  0  0  0  0 
 17  2  1  0  0  0  0 
 18  3  1  0  0  0  0 
 22  4  1  0  0  0  0 
 25  6  1  0  0  0  0 
 26  7  1  0  0  0  0 
 27  8  1  0  0  0  0 
M  END 
>  <HBA> 
0 
 
>  <HBD> 
0 
 
>  <TPSA> 
0.0 
 
>  <cid> 
33046 
 
>  <dipole> 
0.53 
 
>  <excitation_energy_1> 
5.114 
 
>  <excitation_energy_2> 
5.576 
 
>  <excitation_energy_3> 
5.8 
 
>  <excitation_energy_4> 
5.873 
 
>  <homo_energy> 
-6.177 
 
>  <homo_lumo_gap> 
6.359 
 
>  <logP> 
3.12 
 
>  <lumo_energy> 
0.182 
 
>  <melting_point> 
15.5 
 
>  <molecular_refractivity> 
50.95 
 
>  <oscillator_strength_1> 
0.0006 
 
>  <oscillator_strength_2> 
0.0282 
 
>  <oscillator_strength_3> 
0.0503 
 
>  <oscillator_strength_4> 
0.0242 
 
>  <open_babel_can_smiles> 
CCc1c(CC)cccc1C 
 
>  <mulliken_charges> 
27 
1   -0.43666 
2   -0.441015 
3   -0.540717 
4   -0.346765 
5   -0.346064 
6   -0.123083 
7   -0.187161 
8   -0.186479 
9   0.133202 
10   0.123236 
11   0.061762 
12   0.141698 
13   0.150171 
14   0.150003 
15   0.142215 
16   0.151867 
17   0.150602 
18   0.153256 
19   0.160998 
20   0.160216 
21   0.144482 
22   0.141928 
23   0.145514 
24   0.141568 
25   0.122595 
26   0.116301 
27   0.116328 
 
>  <lowdin_charges> 
27 
1   -0.439918 
2   -0.442967 
3   -0.442005 
4   -0.274559 
5   -0.278962 
6   -0.159583 
7   -0.173155 
8   -0.173212 
9   -0.008137 
10   -0.009584 
11   -0.019319 
12   0.147568 
13   0.148858 
14   0.150261 
15   0.149042 
16   0.150643 
17   0.149625 
18   0.156701 
19   0.156435 
20   0.155359 
21   0.14762 
22   0.1494 
23   0.150478 
24   0.151229 
25   0.154996 
26   0.151281 
27   0.151906 
 
$$$$ 
 
