PCCDB-ID:  10253 
public computational chemistry database (PCCDB) project, http://pccdb.org 
 
 23 23  0  0  0  0  0  0  0  0999 V2000 
   -1.7376   -0.1946   -0.1154 C   0  0  0  0  0  0  0  0  0  0  0  0 
   -1.1548   -1.4448    0.0892 C   0  0  0  0  0  0  0  0  0  0  0  0 
   -0.9430    0.9493   -0.0773 C   0  0  0  0  0  0  0  0  0  0  0  0 
    0.2105   -1.5434    0.3520 C   0  0  0  0  0  0  0  0  0  0  0  0 
    0.2865    3.2751   -1.6809 C   0  0  0  0  0  0  0  0  0  0  0  0 
    0.4372    0.8819    0.1660 C   0  0  0  0  0  0  0  0  0  0  0  0 
    0.9947   -0.3913    0.4036 C   0  0  0  0  0  0  0  0  0  0  0  0 
    0.9286    4.2099   -2.7248 C   0  0  0  0  0  0  0  0  0  0  0  0 
    1.2674    2.1297    0.2081 C   0  0  0  0  0  0  0  0  0  0  0  0 
    1.1618    3.1579   -0.5367 N   0  0  0  0  0  0  0  0  0  0  0  0 
    2.3377   -0.4484    0.6975 O   0  0  0  0  0  0  0  0  0  0  0  0 
    0.4495    4.3753   -3.8214 O   0  0  0  0  0  0  0  0  0  0  0  0 
    2.0381    4.8287   -2.2989 O   0  0  0  0  0  0  0  0  0  0  0  0 
    2.2146    2.1985    1.1762 O   0  0  0  0  0  0  0  0  0  0  0  0 
   -2.8031   -0.1081   -0.3021 H   0  0  0  0  0  0  0  0  0  0  0  0 
   -1.7592   -2.3464    0.0535 H   0  0  0  0  0  0  0  0  0  0  0  0 
   -1.4036    1.9206   -0.2161 H   0  0  0  0  0  0  0  0  0  0  0  0 
    0.6703   -2.5146    0.5242 H   0  0  0  0  0  0  0  0  0  0  0  0 
    0.0472    2.3280   -2.1811 H   0  0  0  0  0  0  0  0  0  0  0  0 
   -0.6688    3.7445   -1.4058 H   0  0  0  0  0  0  0  0  0  0  0  0 
    2.5943   -1.3653    0.8837 H   0  0  0  0  0  0  0  0  0  0  0  0 
    2.1911    4.4916   -1.3813 H   0  0  0  0  0  0  0  0  0  0  0  0 
    2.4038    1.3015    1.5034 H   0  0  0  0  0  0  0  0  0  0  0  0 
  1  3  2  0  0  0  0 
  1  2  1  0  0  0  0 
  2  4  2  0  0  0  0 
  3  6  1  0  0  0  0 
  4  7  1  0  0  0  0 
  4 18  1  0  0  0  0 
  5 20  1  0  0  0  0 
  5 10  1  0  0  0  0 
  6  9  1  0  0  0  0 
  6  7  2  0  0  0  0 
  7 11  1  0  0  0  0 
  8 13  1  0  0  0  0 
  8  5  1  0  0  0  0 
  9 14  1  0  0  0  0 
 10  9  2  0  0  0  0 
 11 21  1  0  0  0  0 
 12  8  2  0  0  0  0 
 13 22  1  0  0  0  0 
 14 23  1  0  0  0  0 
 15  1  1  0  0  0  0 
 16  2  1  0  0  0  0 
 17  3  1  0  0  0  0 
 19  5  1  0  0  0  0 
M  END 
>  <HBA> 
5 
 
>  <HBD> 
3 
 
>  <TPSA> 
86.63 
 
>  <cid> 
10253 
 
>  <dipole> 
9.78 
 
>  <excitation_energy_1> 
4.524 
 
>  <excitation_energy_2> 
4.737 
 
>  <excitation_energy_3> 
5.106 
 
>  <excitation_energy_4> 
5.379 
 
>  <homo_energy> 
-6.588 
 
>  <homo_lumo_gap> 
5.089 
 
>  <logP> 
0.598 
 
>  <lumo_energy> 
-1.499 
 
>  <melting_point> 
182.86 
 
>  <molecular_refractivity> 
48.04 
 
>  <oscillator_strength_1> 
0.0198 
 
>  <oscillator_strength_2> 
0.0873 
 
>  <oscillator_strength_3> 
0.0521 
 
>  <oscillator_strength_4> 
0.0116 
 
>  <open_babel_can_smiles> 
OC(=O)C/N=C(\c1ccccc1O)/O 
 
>  <mulliken_charges> 
23 
1   -0.13274 
2   -0.127963 
3   -0.174532 
4   -0.181374 
5   -0.248655 
6   0.043305 
7   0.302681 
8   0.588897 
9   0.46114 
10   -0.480257 
11   -0.666374 
12   -0.467231 
13   -0.572628 
14   -0.592556 
15   0.147783 
16   0.149987 
17   0.16036 
18   0.134969 
19   0.179138 
20   0.183611 
21   0.425277 
22   0.431898 
23   0.435263 
 
>  <lowdin_charges> 
23 
1   -0.165123 
2   -0.1291 
3   -0.130692 
4   -0.203378 
5   -0.245996 
6   -0.07393 
7   0.104979 
8   0.17768 
9   0.15166 
10   -0.226411 
11   -0.382018 
12   -0.262338 
13   -0.351286 
14   -0.357327 
15   0.166611 
16   0.168947 
17   0.17387 
18   0.161671 
19   0.165493 
20   0.169513 
21   0.368102 
22   0.359125 
23   0.359945 
 
$$$$ 
 
