PCCDB-ID:  17379 
public computational chemistry database (PCCDB) project, http://pccdb.org 
 
 31 30  0  0  0  0  0  0  0  0999 V2000 
    5.0234   -3.6218    8.1454 C   0  0  0  0  0  0  0  0  0  0  0  0 
   11.5559   -2.2705    7.1189 C   0  0  0  0  0  0  0  0  0  0  0  0 
    4.6273   -3.9774    6.7076 C   0  0  0  0  0  0  0  0  0  0  0  0 
   10.4019   -1.7375    7.9781 C   0  0  0  0  0  0  0  0  0  0  0  0 
    3.9972   -2.8173    5.9192 C   0  0  0  0  0  0  0  0  0  0  0  0 
    9.4118   -0.8319    7.2277 C   0  0  0  0  0  0  0  0  0  0  0  0 
    4.9361   -1.6478    5.6434 C   0  0  0  0  0  0  0  0  0  0  0  0 
    8.6149   -1.5486    6.1441 C   0  0  0  0  0  0  0  0  0  0  0  0 
    6.9509   -1.1177    4.5050 C   0  0  0  0  0  0  0  0  0  0  0  0 
    6.0285   -2.1174    4.8510 O   0  0  0  0  0  0  0  0  0  0  0  0 
    7.6916   -0.6139    5.5849 O   0  0  0  0  0  0  0  0  0  0  0  0 
    5.4261   -4.4962    8.6694 H   0  0  0  0  0  0  0  0  0  0  0  0 
    4.1598   -3.2603    8.7183 H   0  0  0  0  0  0  0  0  0  0  0  0 
    5.7911   -2.8400    8.1761 H   0  0  0  0  0  0  0  0  0  0  0  0 
   12.2611   -2.8504    7.7249 H   0  0  0  0  0  0  0  0  0  0  0  0 
   12.1140   -1.4474    6.6553 H   0  0  0  0  0  0  0  0  0  0  0  0 
   11.2017   -2.9246    6.3141 H   0  0  0  0  0  0  0  0  0  0  0  0 
    3.9105   -4.8089    6.7297 H   0  0  0  0  0  0  0  0  0  0  0  0 
    5.5056   -4.3393    6.1603 H   0  0  0  0  0  0  0  0  0  0  0  0 
   10.8183   -1.1683    8.8192 H   0  0  0  0  0  0  0  0  0  0  0  0 
    9.8572   -2.5817    8.4243 H   0  0  0  0  0  0  0  0  0  0  0  0 
    3.1246   -2.4282    6.4632 H   0  0  0  0  0  0  0  0  0  0  0  0 
    3.6280   -3.1926    4.9561 H   0  0  0  0  0  0  0  0  0  0  0  0 
    9.9451    0.0133    6.7724 H   0  0  0  0  0  0  0  0  0  0  0  0 
    8.6971   -0.4017    7.9407 H   0  0  0  0  0  0  0  0  0  0  0  0 
    5.3124   -1.2044    6.5744 H   0  0  0  0  0  0  0  0  0  0  0  0 
    4.4014   -0.8544    5.0952 H   0  0  0  0  0  0  0  0  0  0  0  0 
    8.0769   -2.4102    6.5648 H   0  0  0  0  0  0  0  0  0  0  0  0 
    9.2730   -1.9298    5.3469 H   0  0  0  0  0  0  0  0  0  0  0  0 
    6.4402   -0.2444    4.0748 H   0  0  0  0  0  0  0  0  0  0  0  0 
    7.6101   -1.5809    3.7570 H   0  0  0  0  0  0  0  0  0  0  0  0 
  1 14  1  0  0  0  0 
  1 12  1  0  0  0  0 
  1 13  1  0  0  0  0 
  2 15  1  0  0  0  0 
  2  4  1  0  0  0  0 
  3 18  1  0  0  0  0 
  3  1  1  0  0  0  0 
  4 21  1  0  0  0  0 
  4 20  1  0  0  0  0 
  5 22  1  0  0  0  0 
  5  3  1  0  0  0  0 
  6 25  1  0  0  0  0 
  6  4  1  0  0  0  0 
  7  5  1  0  0  0  0 
  7 26  1  0  0  0  0 
  8 28  1  0  0  0  0 
  8  6  1  0  0  0  0 
  9 10  1  0  0  0  0 
  9 11  1  0  0  0  0 
 10  7  1  0  0  0  0 
 11  8  1  0  0  0  0 
 16  2  1  0  0  0  0 
 17  2  1  0  0  0  0 
 19  3  1  0  0  0  0 
 23  5  1  0  0  0  0 
 24  6  1  0  0  0  0 
 27  7  1  0  0  0  0 
 29  8  1  0  0  0  0 
 30  9  1  0  0  0  0 
 31  9  1  0  0  0  0 
M  END 
>  <HBA> 
2 
 
>  <HBD> 
0 
 
>  <TPSA> 
18.46 
 
>  <cid> 
17379 
 
>  <dipole> 
0.35 
 
>  <excitation_energy_1> 
6.846 
 
>  <excitation_energy_2> 
6.925 
 
>  <excitation_energy_3> 
7.131 
 
>  <excitation_energy_4> 
7.171 
 
>  <homo_energy> 
-7.143 
 
>  <homo_lumo_gap> 
9.157 
 
>  <logP> 
2.577 
 
>  <lumo_energy> 
2.014 
 
>  <melting_point> 
-46.45 
 
>  <molecular_refractivity> 
47.55 
 
>  <oscillator_strength_1> 
0.0044 
 
>  <oscillator_strength_2> 
0.0102 
 
>  <oscillator_strength_3> 
0.0089 
 
>  <oscillator_strength_4> 
0.0167 
 
>  <open_babel_can_smiles> 
CCCCOCOCCCC 
 
>  <mulliken_charges> 
31 
1   -0.450937 
2   -0.444761 
3   -0.248394 
4   -0.258912 
5   -0.270866 
6   -0.267979 
7   -0.027568 
8   -0.022777 
9   0.188532 
10   -0.471812 
11   -0.475548 
12   0.142347 
13   0.138742 
14   0.149549 
15   0.144446 
16   0.143877 
17   0.146157 
18   0.129757 
19   0.153166 
20   0.137466 
21   0.132997 
22   0.129091 
23   0.141608 
24   0.140725 
25   0.143427 
26   0.142638 
27   0.119493 
28   0.139415 
29   0.121379 
30   0.127453 
31   0.127287 
 
>  <lowdin_charges> 
31 
1   -0.450779 
2   -0.451175 
3   -0.276586 
4   -0.275342 
5   -0.282553 
6   -0.283823 
7   -0.135573 
8   -0.136646 
9   -0.029487 
10   -0.271682 
11   -0.268858 
12   0.150844 
13   0.145392 
14   0.147927 
15   0.152335 
16   0.148573 
17   0.147606 
18   0.142157 
19   0.150689 
20   0.146397 
21   0.14109 
22   0.144645 
23   0.148675 
24   0.146806 
25   0.150903 
26   0.13687 
27   0.130597 
28   0.135474 
29   0.129486 
30   0.132947 
31   0.133093 
 
$$$$ 
 
