PCCDB-ID:  12299 
public computational chemistry database (PCCDB) project, http://pccdb.org 
 
 15 14  0  0  0  0  0  0  0  0999 V2000 
    1.9410   -1.2536   -0.3287 C   0  0  0  0  0  0  0  0  0  0  0  0 
    2.8128   -0.0732    0.1355 C   0  0  0  0  0  0  0  0  0  0  0  0 
    3.1465    0.8711   -0.9832 C   0  0  0  0  0  0  0  0  0  0  0  0 
    4.3846    1.1968   -1.3781 C   0  0  0  0  0  0  0  0  0  0  0  0 
    4.7245    2.1789   -2.4449 C   0  0  0  0  0  0  0  0  0  0  0  0 
    5.7867    2.7535   -2.4852 O   0  0  0  0  0  0  0  0  0  0  0  0 
    3.7751    2.4304   -3.3916 O   0  0  0  0  0  0  0  0  0  0  0  0 
    1.6898   -1.9032    0.5163 H   0  0  0  0  0  0  0  0  0  0  0  0 
    2.4631   -1.8574   -1.0788 H   0  0  0  0  0  0  0  0  0  0  0  0 
    1.0010   -0.9043   -0.7724 H   0  0  0  0  0  0  0  0  0  0  0  0 
    3.7370   -0.4443    0.5937 H   0  0  0  0  0  0  0  0  0  0  0  0 
    2.2726    0.4809    0.9170 H   0  0  0  0  0  0  0  0  0  0  0  0 
    2.2832    1.3220   -1.4800 H   0  0  0  0  0  0  0  0  0  0  0  0 
    5.2538    0.8047   -0.8561 H   0  0  0  0  0  0  0  0  0  0  0  0 
    3.0568    1.7820   -3.3141 H   0  0  0  0  0  0  0  0  0  0  0  0 
  1  2  1  0  0  0  0 
  1  8  1  0  0  0  0 
  2 11  1  0  0  0  0 
  2 12  1  0  0  0  0 
  3  2  1  0  0  0  0 
  4  3  2  0  0  0  0 
  4 14  1  0  0  0  0 
  5  4  1  0  0  0  0 
  6  5  2  0  0  0  0 
  7 15  1  0  0  0  0 
  7  5  1  0  0  0  0 
  9  1  1  0  0  0  0 
 10  1  1  0  0  0  0 
 13  3  1  0  0  0  0 
M  END 
>  <HBA> 
2 
 
>  <HBD> 
1 
 
>  <TPSA> 
37.3 
 
>  <cid> 
12299 
 
>  <dipole> 
5.29 
 
>  <excitation_energy_1> 
4.652 
 
>  <excitation_energy_2> 
6.124 
 
>  <excitation_energy_3> 
6.539 
 
>  <excitation_energy_4> 
6.702 
 
>  <homo_energy> 
-7.263 
 
>  <homo_lumo_gap> 
6.003 
 
>  <logP> 
1.037 
 
>  <lumo_energy> 
-1.26 
 
>  <melting_point> 
61.05 
 
>  <molecular_refractivity> 
27.45 
 
>  <oscillator_strength_1> 
0.0042 
 
>  <oscillator_strength_2> 
0.4128 
 
>  <oscillator_strength_3> 
0.0144 
 
>  <oscillator_strength_4> 
0.0632 
 
>  <open_babel_can_smiles> 
CC/C=C/C(=O)O 
 
>  <mulliken_charges> 
15 
1   -0.448127 
2   -0.304589 
3   -0.089234 
4   -0.18807 
5   0.571602 
6   -0.447185 
7   -0.572777 
8   0.158186 
9   0.157886 
10   0.148646 
11   0.156522 
12   0.161449 
13   0.129564 
14   0.161111 
15   0.405017 
 
>  <lowdin_charges> 
15 
1   -0.443998 
2   -0.270187 
3   -0.130018 
4   -0.209952 
5   0.189585 
6   -0.236525 
7   -0.363193 
8   0.158934 
9   0.155812 
10   0.150377 
11   0.15551 
12   0.160855 
13   0.149712 
14   0.177253 
15   0.355836 
 
$$$$ 
 
