PCCDB-ID:  61346 
public computational chemistry database (PCCDB) project, http://pccdb.org 
 
 23 22  0  0  0  0  0  0  0  0999 V2000 
    0.5937    0.0341   -0.1409 C   0  0  0  0  0  0  0  0  0  0  0  0 
    6.6878    4.5748   -2.6000 C   0  0  0  0  0  0  0  0  0  0  0  0 
    2.1248   -0.0135   -0.1269 C   0  0  0  0  0  0  0  0  0  0  0  0 
    7.2252    3.5057   -2.0025 C   0  0  0  0  0  0  0  0  0  0  0  0 
    2.7740    1.2207   -0.7665 C   0  0  0  0  0  0  0  0  0  0  0  0 
    4.3067    1.1750   -0.7517 C   0  0  0  0  0  0  0  0  0  0  0  0 
    4.9438    2.4072   -1.3978 C   0  0  0  0  0  0  0  0  0  0  0  0 
    6.4689    2.3811   -1.3811 C   0  0  0  0  0  0  0  0  0  0  0  0 
    7.0884    1.4604   -0.8681 O   0  0  0  0  0  0  0  0  0  0  0  0 
    0.1609   -0.8613    0.3196 H   0  0  0  0  0  0  0  0  0  0  0  0 
    0.2082    0.1007   -1.1659 H   0  0  0  0  0  0  0  0  0  0  0  0 
    0.2186    0.9058    0.4097 H   0  0  0  0  0  0  0  0  0  0  0  0 
    7.3107    5.3545   -3.0297 H   0  0  0  0  0  0  0  0  0  0  0  0 
    5.6139    4.7172   -2.6847 H   0  0  0  0  0  0  0  0  0  0  0  0 
    2.4686   -0.9154   -0.6527 H   0  0  0  0  0  0  0  0  0  0  0  0 
    2.4797   -0.1124    0.9086 H   0  0  0  0  0  0  0  0  0  0  0  0 
    8.3049    3.3903   -1.9312 H   0  0  0  0  0  0  0  0  0  0  0  0 
    2.4277    2.1239   -0.2413 H   0  0  0  0  0  0  0  0  0  0  0  0 
    2.4183    1.3192   -1.8034 H   0  0  0  0  0  0  0  0  0  0  0  0 
    4.6590    0.2751   -1.2711 H   0  0  0  0  0  0  0  0  0  0  0  0 
    4.6690    1.0824    0.2795 H   0  0  0  0  0  0  0  0  0  0  0  0 
    4.6092    3.3243   -0.8903 H   0  0  0  0  0  0  0  0  0  0  0  0 
    4.6081    2.5129   -2.4398 H   0  0  0  0  0  0  0  0  0  0  0  0 
  1  3  1  0  0  0  0 
  1 10  1  0  0  0  0 
  1 12  1  0  0  0  0 
  2  4  2  0  0  0  0 
  3 16  1  0  0  0  0 
  4 17  1  0  0  0  0 
  4  8  1  0  0  0  0 
  5  6  1  0  0  0  0 
  5 18  1  0  0  0  0 
  5  3  1  0  0  0  0 
  6 21  1  0  0  0  0 
  7  8  1  0  0  0  0 
  7 22  1  0  0  0  0 
  7  6  1  0  0  0  0 
  8  9  2  0  0  0  0 
 11  1  1  0  0  0  0 
 13  2  1  0  0  0  0 
 14  2  1  0  0  0  0 
 15  3  1  0  0  0  0 
 19  5  1  0  0  0  0 
 20  6  1  0  0  0  0 
 23  7  1  0  0  0  0 
M  END 
>  <HBA> 
1 
 
>  <HBD> 
0 
 
>  <TPSA> 
17.07 
 
>  <cid> 
61346 
 
>  <dipole> 
2.87 
 
>  <excitation_energy_1> 
3.608 
 
>  <excitation_energy_2> 
5.996 
 
>  <excitation_energy_3> 
6.221 
 
>  <excitation_energy_4> 
6.392 
 
>  <homo_energy> 
-6.7 
 
>  <homo_lumo_gap> 
5.189 
 
>  <logP> 
2.322 
 
>  <lumo_energy> 
-1.51 
 
>  <melting_point> 
-27.1 
 
>  <molecular_refractivity> 
40.3 
 
>  <oscillator_strength_1> 
0.0001 
 
>  <oscillator_strength_2> 
0.2613 
 
>  <oscillator_strength_3> 
0.0 
 
>  <oscillator_strength_4> 
0.0114 
 
>  <open_babel_can_smiles> 
CCCCCC(=O)C=C 
 
>  <mulliken_charges> 
23 
1   -0.441762 
2   -0.329163 
3   -0.247022 
4   -0.114161 
5   -0.249805 
6   -0.246201 
7   -0.374365 
8   0.443323 
9   -0.461317 
10   0.142982 
11   0.140474 
12   0.140545 
13   0.161288 
14   0.157637 
15   0.133137 
16   0.133363 
17   0.151651 
18   0.124168 
19   0.123973 
20   0.147105 
21   0.148725 
22   0.158349 
23   0.157076 
 
>  <lowdin_charges> 
23 
1   -0.445034 
2   -0.290562 
3   -0.270926 
4   -0.1752 
5   -0.274745 
6   -0.269465 
7   -0.309238 
8   0.156992 
9   -0.23606 
10   0.150498 
11   0.144922 
12   0.146457 
13   0.171359 
14   0.163447 
15   0.140915 
16   0.139546 
17   0.167948 
18   0.13617 
19   0.134556 
20   0.15041 
21   0.149742 
22   0.160236 
23   0.158034 
 
$$$$ 
 
