PCCDB-ID:  53940 
public computational chemistry database (PCCDB) project, http://pccdb.org 
 
 39 39  0  0  0  0  0  0  0  0999 V2000 
    0.0002   -2.1900    2.1227 C   0  0  0  0  0  0  0  0  0  0  0  0 
    0.6895   -0.7395   -1.8701 C   0  0  0  0  0  0  0  0  0  0  0  0 
    0.2634   -5.2021   -0.5359 C   0  0  0  0  0  0  0  0  0  0  0  0 
    3.7252   -5.8089   -1.0024 C   0  0  0  0  0  0  0  0  0  0  0  0 
    0.7963   -1.2270    1.2418 C   0  0  0  0  0  0  0  0  0  0  0  0 
    1.8724   -0.9486   -0.9242 C   0  0  0  0  0  0  0  0  0  0  0  0 
    0.8050   -6.5472    3.0034 C   0  0  0  0  0  0  0  0  0  0  0  0 
    2.1673   -6.3191    3.1969 C   0  0  0  0  0  0  0  0  0  0  0  0 
    0.2046   -6.1934    1.7945 C   0  0  0  0  0  0  0  0  0  0  0  0 
    2.9159   -5.7413    2.1720 C   0  0  0  0  0  0  0  0  0  0  0  0 
    2.7913   -2.4966    0.7211 C   0  0  0  0  0  0  0  0  0  0  0  0 
    0.9353   -5.6054    0.7537 C   0  0  0  0  0  0  0  0  0  0  0  0 
    2.3095   -5.3785    0.9645 C   0  0  0  0  0  0  0  0  0  0  0  0 
    3.4207   -3.4990   -0.2537 C   0  0  0  0  0  0  0  0  0  0  0  0 
    3.1247   -4.8359   -0.0880 N   0  0  0  0  0  0  0  0  0  0  0  0 
    1.5674   -1.8874    0.1744 N   0  0  0  0  0  0  0  0  0  0  0  0 
    4.1587   -3.1089   -1.1560 O   0  0  0  0  0  0  0  0  0  0  0  0 
   -0.5569   -1.6267    2.8806 H   0  0  0  0  0  0  0  0  0  0  0  0 
    0.6381   -2.9067    2.6499 H   0  0  0  0  0  0  0  0  0  0  0  0 
   -0.7149   -2.7592    1.5205 H   0  0  0  0  0  0  0  0  0  0  0  0 
    0.9662   -0.0394   -2.6670 H   0  0  0  0  0  0  0  0  0  0  0  0 
   -0.1902   -0.3280   -1.3623 H   0  0  0  0  0  0  0  0  0  0  0  0 
    0.3972   -1.6882   -2.3326 H   0  0  0  0  0  0  0  0  0  0  0  0 
   -0.8037   -5.4433   -0.5081 H   0  0  0  0  0  0  0  0  0  0  0  0 
    0.6996   -5.7139   -1.4023 H   0  0  0  0  0  0  0  0  0  0  0  0 
    0.3742   -4.1245   -0.7027 H   0  0  0  0  0  0  0  0  0  0  0  0 
    2.9484   -6.4073   -1.4917 H   0  0  0  0  0  0  0  0  0  0  0  0 
    4.3914   -6.4873   -0.4561 H   0  0  0  0  0  0  0  0  0  0  0  0 
    4.2939   -5.2591   -1.7516 H   0  0  0  0  0  0  0  0  0  0  0  0 
    1.4576   -0.5971    1.8689 H   0  0  0  0  0  0  0  0  0  0  0  0 
    0.0921   -0.5421    0.7596 H   0  0  0  0  0  0  0  0  0  0  0  0 
    2.2127    0.0234   -0.5175 H   0  0  0  0  0  0  0  0  0  0  0  0 
    2.7114   -1.3599   -1.4886 H   0  0  0  0  0  0  0  0  0  0  0  0 
    0.2088   -7.0015    3.7902 H   0  0  0  0  0  0  0  0  0  0  0  0 
    2.6459   -6.5915    4.1334 H   0  0  0  0  0  0  0  0  0  0  0  0 
   -0.8583   -6.3722    1.6511 H   0  0  0  0  0  0  0  0  0  0  0  0 
    3.9807   -5.5624    2.2966 H   0  0  0  0  0  0  0  0  0  0  0  0 
    3.5682   -1.7392    0.9274 H   0  0  0  0  0  0  0  0  0  0  0  0 
    2.5415   -2.9836    1.6639 H   0  0  0  0  0  0  0  0  0  0  0  0 
  1 19  1  0  0  0  0 
  1 18  1  0  0  0  0 
  2 22  1  0  0  0  0 
  2  6  1  0  0  0  0 
  3 24  1  0  0  0  0 
  3 12  1  0  0  0  0 
  4 28  1  0  0  0  0 
  4 15  1  0  0  0  0 
  5 30  1  0  0  0  0 
  5  1  1  0  0  0  0 
  6 32  1  0  0  0  0 
  6 16  1  0  0  0  0 
  7  8  1  0  0  0  0 
  7 34  1  0  0  0  0 
  8 35  1  0  0  0  0 
  9  7  2  0  0  0  0 
 10 37  1  0  0  0  0 
 10  8  2  0  0  0  0 
 11 38  1  0  0  0  0 
 11 39  1  0  0  0  0 
 12 13  2  0  0  0  0 
 12  9  1  0  0  0  0 
 13 10  1  0  0  0  0 
 14 15  1  0  0  0  0 
 14 11  1  0  0  0  0 
 15 13  1  0  0  0  0 
 16 11  1  0  0  0  0 
 16  5  1  0  0  0  0 
 17 14  2  0  0  0  0 
 20  1  1  0  0  0  0 
 21  2  1  0  0  0  0 
 23  2  1  0  0  0  0 
 25  3  1  0  0  0  0 
 26  3  1  0  0  0  0 
 27  4  1  0  0  0  0 
 29  4  1  0  0  0  0 
 31  5  1  0  0  0  0 
 33  6  1  0  0  0  0 
 36  9  1  0  0  0  0 
M  END 
>  <HBA> 
3 
 
>  <HBD> 
0 
 
>  <TPSA> 
23.55 
 
>  <cid> 
53940 
 
>  <dipole> 
3.14 
 
>  <excitation_energy_1> 
4.626 
 
>  <excitation_energy_2> 
4.797 
 
>  <excitation_energy_3> 
5.126 
 
>  <excitation_energy_4> 
5.144 
 
>  <homo_energy> 
-5.782 
 
>  <homo_lumo_gap> 
5.434 
 
>  <logP> 
2.3 
 
>  <lumo_energy> 
-0.348 
 
>  <melting_point> 
38.21 
 
>  <molecular_refractivity> 
72.75 
 
>  <oscillator_strength_1> 
0.0033 
 
>  <oscillator_strength_2> 
0.0007 
 
>  <oscillator_strength_3> 
0.0024 
 
>  <oscillator_strength_4> 
0.001 
 
>  <open_babel_can_smiles> 
CCN(CC(=O)N(c1ccccc1C)C)CC 
 
>  <mulliken_charges> 
39 
1   -0.44987 
2   -0.444592 
3   -0.548114 
4   -0.323403 
5   -0.118688 
6   -0.141939 
7   -0.113303 
8   -0.14855 
9   -0.206323 
10   -0.132361 
11   -0.205781 
12   0.193747 
13   0.155692 
14   0.580628 
15   -0.49441 
16   -0.3858 
17   -0.514062 
18   0.139191 
19   0.157511 
20   0.154497 
21   0.142476 
22   0.140879 
23   0.152804 
24   0.148291 
25   0.158992 
26   0.200999 
27   0.156276 
28   0.155831 
29   0.204351 
30   0.114071 
31   0.142191 
32   0.110251 
33   0.187501 
34   0.132954 
35   0.134881 
36   0.129007 
37   0.137715 
38   0.139622 
39   0.156841 
 
>  <lowdin_charges> 
39 
1   -0.45467 
2   -0.450311 
3   -0.450218 
4   -0.357356 
5   -0.202183 
6   -0.210281 
7   -0.153516 
8   -0.161444 
9   -0.162956 
10   -0.162393 
11   -0.226571 
12   0.004844 
13   0.02524 
14   0.161042 
15   -0.089109 
16   -0.18551 
17   -0.315652 
18   0.151896 
19   0.154028 
20   0.155419 
21   0.152745 
22   0.14465 
23   0.15227 
24   0.15342 
25   0.160448 
26   0.174877 
27   0.152293 
28   0.152415 
29   0.185195 
30   0.121224 
31   0.149098 
32   0.119476 
33   0.17016 
34   0.161371 
35   0.160696 
36   0.156092 
37   0.161844 
38   0.14158 
39   0.159846 
 
$$$$ 
 
