PCCDB-ID:  69222 
public computational chemistry database (PCCDB) project, http://pccdb.org 
 
 18 17  0  0  0  0  0  0  0  0999 V2000 
    3.1952   -0.6796   -1.2193 C   0  0  0  0  0  0  0  0  0  0  0  0 
    3.0510    2.7524    2.3962 C   0  0  0  0  0  0  0  0  0  0  0  0 
    2.8928   -0.3578    0.2452 C   0  0  0  0  0  0  0  0  0  0  0  0 
    2.8143    1.2987    1.9837 C   0  0  0  0  0  0  0  0  0  0  0  0 
    4.7731    1.0138    0.6836 N   0  0  0  0  0  0  0  0  0  0  0  0 
    3.2944    1.0021    0.6273 N   0  0  0  0  0  0  0  0  0  0  0  0 
    2.7511   -1.6436   -1.4912 H   0  0  0  0  0  0  0  0  0  0  0  0 
    4.2708   -0.7586   -1.4156 H   0  0  0  0  0  0  0  0  0  0  0  0 
    2.7779    0.0912   -1.8764 H   0  0  0  0  0  0  0  0  0  0  0  0 
    2.5464    2.9598    3.3465 H   0  0  0  0  0  0  0  0  0  0  0  0 
    2.6552    3.4371    1.6382 H   0  0  0  0  0  0  0  0  0  0  0  0 
    4.1137    2.9746    2.5460 H   0  0  0  0  0  0  0  0  0  0  0  0 
    3.3682   -1.1078    0.9031 H   0  0  0  0  0  0  0  0  0  0  0  0 
    1.8095   -0.4161    0.4016 H   0  0  0  0  0  0  0  0  0  0  0  0 
    1.7353    1.1056    1.9786 H   0  0  0  0  0  0  0  0  0  0  0  0 
    3.2745    0.6174    2.7224 H   0  0  0  0  0  0  0  0  0  0  0  0 
    5.0065    1.9941    0.8557 H   0  0  0  0  0  0  0  0  0  0  0  0 
    5.0596    0.8870   -0.2895 H   0  0  0  0  0  0  0  0  0  0  0  0 
  1  3  1  0  0  0  0 
  2 12  1  0  0  0  0 
  2 10  1  0  0  0  0 
  3 14  1  0  0  0  0 
  3  6  1  0  0  0  0 
  3 13  1  0  0  0  0 
  4  2  1  0  0  0  0 
  4 16  1  0  0  0  0 
  5 17  1  0  0  0  0 
  6  5  1  0  0  0  0 
  6  4  1  0  0  0  0 
  7  1  1  0  0  0  0 
  8  1  1  0  0  0  0 
  9  1  1  0  0  0  0 
 11  2  1  0  0  0  0 
 15  4  1  0  0  0  0 
 18  5  1  0  0  0  0 
M  END 
>  <HBA> 
2 
 
>  <HBD> 
1 
 
>  <TPSA> 
29.26 
 
>  <cid> 
69222 
 
>  <dipole> 
0.65 
 
>  <excitation_energy_1> 
4.873 
 
>  <excitation_energy_2> 
5.34 
 
>  <excitation_energy_3> 
5.441 
 
>  <excitation_energy_4> 
5.769 
 
>  <homo_energy> 
-5.121 
 
>  <homo_lumo_gap> 
7.159 
 
>  <logP> 
0.902 
 
>  <lumo_energy> 
2.038 
 
>  <melting_point> 
31.65 
 
>  <molecular_refractivity> 
26.95 
 
>  <oscillator_strength_1> 
0.0022 
 
>  <oscillator_strength_2> 
0.0144 
 
>  <oscillator_strength_3> 
0.0333 
 
>  <oscillator_strength_4> 
0.1034 
 
>  <open_babel_can_smiles> 
CCN(CC)N 
 
>  <mulliken_charges> 
18 
1   -0.463406 
2   -0.464598 
3   -0.087925 
4   -0.086855 
5   -0.599342 
6   -0.324948 
7   0.147008 
8   0.144583 
9   0.154846 
10   0.147108 
11   0.154586 
12   0.145483 
13   0.12454 
14   0.135914 
15   0.135864 
16   0.1242 
17   0.306572 
18   0.306368 
 
>  <lowdin_charges> 
18 
1   -0.453301 
2   -0.45384 
3   -0.202922 
4   -0.202877 
5   -0.486676 
6   -0.154118 
7   0.155205 
8   0.144946 
9   0.154985 
10   0.15539 
11   0.154822 
12   0.145651 
13   0.127282 
14   0.142668 
15   0.142543 
16   0.127155 
17   0.251512 
18   0.251573 
 
$$$$ 
 
