PCCDB-ID:  48781 
public computational chemistry database (PCCDB) project, http://pccdb.org 
 
 29 29  0  0  1  0  0  0  0  0999 V2000 
    2.1289    0.8844   -1.7595 C   0  0  0  0  0  0  0  0  0  0  0  0 
    4.7411    1.4453    5.2916 C   0  0  0  0  0  0  0  0  0  0  0  0 
    2.3512    0.3579   -0.3387 C   0  0  0  0  0  0  0  0  0  0  0  0 
    3.2861    0.6750    2.0177 C   0  0  0  0  0  0  0  0  0  0  0  0 
    4.0342    1.5218    3.0462 C   0  0  0  0  0  0  0  0  0  0  0  0 
    2.3916    2.6536    0.7164 C   0  0  0  0  0  0  0  0  0  0  0  0 
    4.5088    1.6248    0.0136 C   0  0  0  0  0  0  0  0  0  0  0  0 
    4.0922    3.8937   -0.2693 C   0  0  0  0  0  0  0  0  0  0  0  0 
    3.1356    1.3242    0.6104 C   0  0  2  0  0  0  0  0  0  0  0  0 
    2.8077    3.7911    0.3280 N   0  0  0  0  0  0  0  0  0  0  0  0 
    4.9350    2.7561   -0.3820 N   0  0  0  0  0  0  0  0  0  0  0  0 
    1.1569    2.6128    1.2678 O   0  0  0  0  0  0  0  0  0  0  0  0 
    5.3524    0.5758   -0.1220 O   0  0  0  0  0  0  0  0  0  0  0  0 
    4.4753    4.9641   -0.6822 O   0  0  0  0  0  0  0  0  0  0  0  0 
    4.0674    0.7733    4.2429 O   0  0  0  0  0  0  0  0  0  0  0  0 
    1.5713    0.1485   -2.3474 H   0  0  0  0  0  0  0  0  0  0  0  0 
    3.0779    1.0734   -2.2717 H   0  0  0  0  0  0  0  0  0  0  0  0 
    1.5551    1.8168   -1.7580 H   0  0  0  0  0  0  0  0  0  0  0  0 
    4.7093    0.7878    6.1635 H   0  0  0  0  0  0  0  0  0  0  0  0 
    4.2516    2.3992    5.5413 H   0  0  0  0  0  0  0  0  0  0  0  0 
    5.7914    1.6498    5.0324 H   0  0  0  0  0  0  0  0  0  0  0  0 
    2.8873   -0.5996   -0.3772 H   0  0  0  0  0  0  0  0  0  0  0  0 
    1.3844    0.1248    0.1270 H   0  0  0  0  0  0  0  0  0  0  0  0 
    2.2968    0.4320    2.4260 H   0  0  0  0  0  0  0  0  0  0  0  0 
    3.7967   -0.2925    1.9318 H   0  0  0  0  0  0  0  0  0  0  0  0 
    3.5229    2.4862    3.2025 H   0  0  0  0  0  0  0  0  0  0  0  0 
    5.0556    1.7457    2.6962 H   0  0  0  0  0  0  0  0  0  0  0  0 
    0.9355    1.7078    1.5374 H   0  0  0  0  0  0  0  0  0  0  0  0 
    4.9405   -0.2372    0.2097 H   0  0  0  0  0  0  0  0  0  0  0  0 
  1 18  1  0  0  0  0 
  1  3  1  0  0  0  0 
  2 20  1  0  0  0  0 
  2 19  1  0  0  0  0 
  3 23  1  0  0  0  0 
  4 24  1  0  0  0  0 
  4  5  1  0  0  0  0 
  5 26  1  0  0  0  0 
  5 15  1  0  0  0  0 
  6 12  1  0  0  0  0 
  7  9  1  0  0  0  0 
  8 10  2  0  0  0  0 
  9  3  1  6  0  0  0 
  9  6  1  0  0  0  0 
  9  4  1  0  0  0  0 
 10  6  2  0  0  0  0 
 11  8  1  0  0  0  0 
 11  7  2  0  0  0  0 
 12 28  1  0  0  0  0 
 13  7  1  0  0  0  0 
 13 29  1  0  0  0  0 
 14  8  2  0  0  0  0 
 15  2  1  0  0  0  0 
 16  1  1  0  0  0  0 
 17  1  1  0  0  0  0 
 21  2  1  0  0  0  0 
 22  3  1  0  0  0  0 
 25  4  1  0  0  0  0 
 27  5  1  0  0  0  0 
M  END 
>  <HBA> 
6 
 
>  <HBD> 
2 
 
>  <TPSA> 
84.5 
 
>  <cid> 
48781 
 
>  <dipole> 
8.73 
 
>  <excitation_energy_1> 
3.987 
 
>  <excitation_energy_2> 
4.158 
 
>  <excitation_energy_3> 
5.217 
 
>  <excitation_energy_4> 
5.233 
 
>  <homo_energy> 
-6.961 
 
>  <homo_lumo_gap> 
5.377 
 
>  <logP> 
0.443 
 
>  <lumo_energy> 
-1.584 
 
>  <melting_point> 
132.62 
 
>  <molecular_refractivity> 
58.51 
 
>  <oscillator_strength_1> 
0.0 
 
>  <oscillator_strength_2> 
0.0 
 
>  <oscillator_strength_3> 
0.0009 
 
>  <oscillator_strength_4> 
0.0 
 
>  <open_babel_can_smiles> 
COCC[C@]1(CC)C(=N[C](=[N]=C1O)=O)O 
 
>  <mulliken_charges> 
29 
1   -0.470164 
2   -0.201152 
3   -0.266198 
4   -0.306871 
5   -0.02008 
6   0.549692 
7   0.54963 
8   0.618874 
9   -0.154162 
10   -0.469891 
11   -0.469728 
12   -0.578969 
13   -0.578904 
14   -0.429539 
15   -0.469703 
16   0.163278 
17   0.181643 
18   0.181775 
19   0.165087 
20   0.142065 
21   0.142105 
22   0.141066 
23   0.141062 
24   0.151134 
25   0.151245 
26   0.150364 
27   0.150154 
28   0.418096 
29   0.418093 
 
>  <lowdin_charges> 
29 
1   -0.45438 
2   -0.277991 
3   -0.267329 
4   -0.279168 
5   -0.136445 
6   0.144984 
7   0.144688 
8   0.1722 
9   -0.064243 
10   -0.184435 
11   -0.184611 
12   -0.330068 
13   -0.330708 
14   -0.207009 
15   -0.272466 
16   0.164887 
17   0.167152 
18   0.167155 
19   0.159744 
20   0.138359 
21   0.136939 
22   0.145358 
23   0.145504 
24   0.151534 
25   0.151786 
26   0.141291 
27   0.140972 
28   0.357122 
29   0.359176 
 
$$$$ 
 
