PCCDB-ID:  34730 
public computational chemistry database (PCCDB) project, http://pccdb.org 
 
 26 26  0  0  1  0  0  0  0  0999 V2000 
    0.9880   -0.3593   -0.3827 C   0  0  0  0  0  0  0  0  0  0  0  0 
    3.2107    0.3866   -1.3073 C   0  0  0  0  0  0  0  0  0  0  0  0 
    2.0616    1.3805    3.2281 C   0  0  0  0  0  0  0  0  0  0  0  0 
    4.4021    1.2691    2.3049 C   0  0  0  0  0  0  0  0  0  0  0  0 
    3.1353   -1.1792    0.7254 C   0  0  0  0  0  0  0  0  0  0  0  0 
    2.9005   -0.8074    2.1952 C   0  0  2  0  0  0  0  0  0  0  0  0 
    2.4504   -0.0339   -0.0467 C   0  0  0  0  0  0  0  0  0  0  0  0 
    2.9630    0.7455    2.1702 C   0  0  0  0  0  0  0  0  0  0  0  0 
    3.7572   -1.4368    3.1325 O   0  0  0  0  0  0  0  0  0  0  0  0 
    2.4491    1.0941    0.8714 O   0  0  0  0  0  0  0  0  0  0  0  0 
    0.9217   -1.1440   -1.1459 H   0  0  0  0  0  0  0  0  0  0  0  0 
    0.4861    0.5363   -0.7630 H   0  0  0  0  0  0  0  0  0  0  0  0 
    0.4434   -0.6986    0.5052 H   0  0  0  0  0  0  0  0  0  0  0  0 
    3.2396   -0.4288   -2.0401 H   0  0  0  0  0  0  0  0  0  0  0  0 
    4.2403    0.6682   -1.0626 H   0  0  0  0  0  0  0  0  0  0  0  0 
    2.7242    1.2501   -1.7735 H   0  0  0  0  0  0  0  0  0  0  0  0 
    2.3733    1.0665    4.2306 H   0  0  0  0  0  0  0  0  0  0  0  0 
    1.0217    1.0742    3.0735 H   0  0  0  0  0  0  0  0  0  0  0  0 
    2.1066    2.4737    3.1758 H   0  0  0  0  0  0  0  0  0  0  0  0 
    4.8035    1.0825    3.3075 H   0  0  0  0  0  0  0  0  0  0  0  0 
    4.4119    2.3490    2.1276 H   0  0  0  0  0  0  0  0  0  0  0  0 
    5.0743    0.8121    1.5682 H   0  0  0  0  0  0  0  0  0  0  0  0 
    2.7364   -2.1653    0.4697 H   0  0  0  0  0  0  0  0  0  0  0  0 
    4.2143   -1.1967    0.5189 H   0  0  0  0  0  0  0  0  0  0  0  0 
    1.8932   -1.1109    2.4994 H   0  0  0  0  0  0  0  0  0  0  0  0 
    4.6718   -1.2658    2.8566 H   0  0  0  0  0  0  0  0  0  0  0  0 
  1  7  1  0  0  0  0 
  1 13  1  0  0  0  0 
  2 15  1  0  0  0  0 
  2  7  1  0  0  0  0 
  3 17  1  0  0  0  0 
  4 20  1  0  0  0  0 
  5  6  1  0  0  0  0 
  6 25  1  1  0  0  0 
  6  9  1  0  0  0  0 
  7  5  1  0  0  0  0 
  7 10  1  0  0  0  0 
  8  6  1  0  0  0  0 
  8  4  1  0  0  0  0 
  8  3  1  0  0  0  0 
 10  8  1  0  0  0  0 
 11  1  1  0  0  0  0 
 12  1  1  0  0  0  0 
 14  2  1  0  0  0  0 
 16  2  1  0  0  0  0 
 18  3  1  0  0  0  0 
 19  3  1  0  0  0  0 
 21  4  1  0  0  0  0 
 22  4  1  0  0  0  0 
 23  5  1  0  0  0  0 
 24  5  1  0  0  0  0 
 26  9  1  0  0  0  0 
M  END 
>  <HBA> 
2 
 
>  <HBD> 
1 
 
>  <TPSA> 
29.46 
 
>  <cid> 
34730 
 
>  <dipole> 
1.33 
 
>  <excitation_energy_1> 
6.04 
 
>  <excitation_energy_2> 
6.389 
 
>  <excitation_energy_3> 
6.469 
 
>  <excitation_energy_4> 
6.616 
 
>  <homo_energy> 
-6.534 
 
>  <homo_lumo_gap> 
8.329 
 
>  <logP> 
1.325 
 
>  <lumo_energy> 
1.796 
 
>  <melting_point> 
26.4 
 
>  <molecular_refractivity> 
40.78 
 
>  <oscillator_strength_1> 
0.0274 
 
>  <oscillator_strength_2> 
0.0107 
 
>  <oscillator_strength_3> 
0.0061 
 
>  <oscillator_strength_4> 
0.0041 
 
>  <open_babel_can_smiles> 
O[C@@H]1CC(OC1(C)C)(C)C 
 
>  <mulliken_charges> 
26 
1   -0.451816 
2   -0.451855 
3   -0.458663 
4   -0.483268 
5   -0.33991 
6   0.102531 
7   0.34815 
8   0.341652 
9   -0.62656 
10   -0.548033 
11   0.136552 
12   0.154804 
13   0.143803 
14   0.137577 
15   0.143231 
16   0.153045 
17   0.15089 
18   0.145956 
19   0.148978 
20   0.14699 
21   0.161318 
22   0.133169 
23   0.152915 
24   0.126499 
25   0.141281 
26   0.390764 
 
>  <lowdin_charges> 
26 
1   -0.452792 
2   -0.448248 
3   -0.443176 
4   -0.463936 
5   -0.305045 
6   -0.01686 
7   0.132975 
8   0.111538 
9   -0.446875 
10   -0.283027 
11   0.148751 
12   0.158225 
13   0.150313 
14   0.149916 
15   0.149535 
16   0.157308 
17   0.155835 
18   0.151673 
19   0.15247 
20   0.151939 
21   0.160985 
22   0.144239 
23   0.157576 
24   0.140013 
25   0.146582 
26   0.340086 
 
$$$$ 
 
