PCCDB-ID:  61236 
public computational chemistry database (PCCDB) project, http://pccdb.org 
 
 19 18  0  0  0  0  0  0  0  0999 V2000 
    1.0926   -0.2809   -0.2411 C   0  0  0  0  0  0  0  0  0  0  0  0 
    5.2748    1.3164   -0.6133 C   0  0  0  0  0  0  0  0  0  0  0  0 
    5.2976    1.3011    1.7823 C   0  0  0  0  0  0  0  0  0  0  0  0 
    2.6100   -0.1856   -0.4325 C   0  0  0  0  0  0  0  0  0  0  0  0 
    3.2701    0.7071    0.6243 C   0  0  0  0  0  0  0  0  0  0  0  0 
    4.7331    0.6912    0.5860 N   0  0  0  0  0  0  0  0  0  0  0  0 
    0.6366   -0.9212   -1.0043 H   0  0  0  0  0  0  0  0  0  0  0  0 
    0.6180    0.7059   -0.3095 H   0  0  0  0  0  0  0  0  0  0  0  0 
    0.8404   -0.7018    0.7401 H   0  0  0  0  0  0  0  0  0  0  0  0 
    6.3686    1.2602   -0.5904 H   0  0  0  0  0  0  0  0  0  0  0  0 
    4.9899    2.3838   -0.7139 H   0  0  0  0  0  0  0  0  0  0  0  0 
    4.9348    0.7894   -1.5091 H   0  0  0  0  0  0  0  0  0  0  0  0 
    6.3895    1.2118    1.7612 H   0  0  0  0  0  0  0  0  0  0  0  0 
    4.9317    0.7793    2.6733 H   0  0  0  0  0  0  0  0  0  0  0  0 
    5.0474    2.3762    1.8890 H   0  0  0  0  0  0  0  0  0  0  0  0 
    2.8193    0.1958   -1.4397 H   0  0  0  0  0  0  0  0  0  0  0  0 
    3.0635   -1.1830   -0.3739 H   0  0  0  0  0  0  0  0  0  0  0  0 
    2.9690    0.3444    1.6159 H   0  0  0  0  0  0  0  0  0  0  0  0 
    2.8716    1.7408    0.5360 H   0  0  0  0  0  0  0  0  0  0  0  0 
  1  9  1  0  0  0  0 
  2 10  1  0  0  0  0 
  2  6  1  0  0  0  0 
  3 15  1  0  0  0  0 
  3 14  1  0  0  0  0 
  4 17  1  0  0  0  0 
  4  1  1  0  0  0  0 
  4  5  1  0  0  0  0 
  5 18  1  0  0  0  0 
  6  5  1  0  0  0  0 
  6  3  1  0  0  0  0 
  7  1  1  0  0  0  0 
  8  1  1  0  0  0  0 
 11  2  1  0  0  0  0 
 12  2  1  0  0  0  0 
 13  3  1  0  0  0  0 
 16  4  1  0  0  0  0 
 19  5  1  0  0  0  0 
M  END 
>  <HBA> 
1 
 
>  <HBD> 
0 
 
>  <TPSA> 
3.24 
 
>  <cid> 
61236 
 
>  <dipole> 
0.5 
 
>  <excitation_energy_1> 
5.351 
 
>  <excitation_energy_2> 
5.715 
 
>  <excitation_energy_3> 
5.829 
 
>  <excitation_energy_4> 
5.995 
 
>  <homo_energy> 
-5.619 
 
>  <homo_lumo_gap> 
7.997 
 
>  <logP> 
0.958 
 
>  <lumo_energy> 
2.378 
 
>  <melting_point> 
-23.26 
 
>  <molecular_refractivity> 
29.05 
 
>  <oscillator_strength_1> 
0.0223 
 
>  <oscillator_strength_2> 
0.0104 
 
>  <oscillator_strength_3> 
0.0053 
 
>  <oscillator_strength_4> 
0.0948 
 
>  <open_babel_can_smiles> 
CCCN(C)C 
 
>  <mulliken_charges> 
19 
1   -0.446827 
2   -0.299669 
3   -0.29248 
4   -0.259165 
5   -0.099402 
6   -0.36732 
7   0.145 
8   0.143014 
9   0.142601 
10   0.146436 
11   0.113796 
12   0.153191 
13   0.145832 
14   0.146969 
15   0.114741 
16   0.135033 
17   0.145381 
18   0.130503 
19   0.102366 
 
>  <lowdin_charges> 
19 
1   -0.444458 
2   -0.35513 
3   -0.352213 
4   -0.277469 
5   -0.197525 
6   -0.184317 
7   0.152567 
8   0.146516 
9   0.146231 
10   0.147433 
11   0.11645 
12   0.15127 
13   0.146105 
14   0.148984 
15   0.116542 
16   0.140051 
17   0.146954 
18   0.140816 
19   0.111193 
 
$$$$ 
 
