PCCDB-ID:  43068 
public computational chemistry database (PCCDB) project, http://pccdb.org 
 
 35 35  0  0  0  0  0  0  0  0999 V2000 
    3.6455    1.3141   -2.5474 C   0  0  0  0  0  0  0  0  0  0  0  0 
    4.1480    3.0778    2.9551 C   0  0  0  0  0  0  0  0  0  0  0  0 
    3.7743    0.7620   -1.1240 C   0  0  0  0  0  0  0  0  0  0  0  0 
    4.3530    1.7839   -0.1373 C   0  0  0  0  0  0  0  0  0  0  0  0 
   10.6851    1.4137    1.0114 C   0  0  0  0  0  0  0  0  0  0  0  0 
   10.3910    2.8444    2.9331 C   0  0  0  0  0  0  0  0  0  0  0  0 
    9.3076    1.2658    0.9148 C   0  0  0  0  0  0  0  0  0  0  0  0 
    9.0120    2.7065    2.8375 C   0  0  0  0  0  0  0  0  0  0  0  0 
    4.4762    1.2114    1.2837 C   0  0  0  0  0  0  0  0  0  0  0  0 
   11.2487    2.1958    2.0285 C   0  0  0  0  0  0  0  0  0  0  0  0 
    8.4513    1.9107    1.8215 C   0  0  0  0  0  0  0  0  0  0  0  0 
   12.7418    2.3010    2.0789 C   0  0  0  0  0  0  0  0  0  0  0  0 
   13.2829    2.7882    3.2512 N   0  0  0  0  0  0  0  0  0  0  0  0 
    7.0698    1.6901    1.6225 N   0  0  0  0  0  0  0  0  0  0  0  0 
    6.3267    2.3968    2.3748 N   0  0  0  0  0  0  0  0  0  0  0  0 
    5.0242    2.1595    2.2540 N   0  0  0  0  0  0  0  0  0  0  0  0 
   13.4522    1.9975    1.1273 O   0  0  0  0  0  0  0  0  0  0  0  0 
    3.2344    0.5621   -3.2302 H   0  0  0  0  0  0  0  0  0  0  0  0 
    4.6211    1.6245   -2.9403 H   0  0  0  0  0  0  0  0  0  0  0  0 
    2.9835    2.1882   -2.5763 H   0  0  0  0  0  0  0  0  0  0  0  0 
    3.3868    2.5234    3.5168 H   0  0  0  0  0  0  0  0  0  0  0  0 
    3.6388    3.7626    2.2627 H   0  0  0  0  0  0  0  0  0  0  0  0 
    4.7565    3.6615    3.6472 H   0  0  0  0  0  0  0  0  0  0  0  0 
    4.4143   -0.1312   -1.1351 H   0  0  0  0  0  0  0  0  0  0  0  0 
    2.7883    0.4276   -0.7702 H   0  0  0  0  0  0  0  0  0  0  0  0 
    3.7160    2.6795   -0.1191 H   0  0  0  0  0  0  0  0  0  0  0  0 
    5.3466    2.1041   -0.4703 H   0  0  0  0  0  0  0  0  0  0  0  0 
   11.3517    0.9276    0.3068 H   0  0  0  0  0  0  0  0  0  0  0  0 
   10.7992    3.4927    3.7044 H   0  0  0  0  0  0  0  0  0  0  0  0 
    8.8630    0.6547    0.1351 H   0  0  0  0  0  0  0  0  0  0  0  0 
    8.3564    3.2148    3.5354 H   0  0  0  0  0  0  0  0  0  0  0  0 
    5.1346    0.3383    1.2772 H   0  0  0  0  0  0  0  0  0  0  0  0 
    3.4944    0.9034    1.6621 H   0  0  0  0  0  0  0  0  0  0  0  0 
   12.7763    2.6850    4.1188 H   0  0  0  0  0  0  0  0  0  0  0  0 
   14.2900    2.7148    3.3138 H   0  0  0  0  0  0  0  0  0  0  0  0 
  1  3  1  0  0  0  0 
  2 21  1  0  0  0  0 
  2 23  1  0  0  0  0 
  3 25  1  0  0  0  0 
  3  4  1  0  0  0  0 
  4 26  1  0  0  0  0 
  4  9  1  0  0  0  0 
  5 10  1  0  0  0  0 
  6 29  1  0  0  0  0 
  7  5  2  0  0  0  0 
  7 11  1  0  0  0  0 
  8  6  1  0  0  0  0 
  8 31  1  0  0  0  0 
  9 33  1  0  0  0  0 
  9 16  1  0  0  0  0 
 10 12  1  0  0  0  0 
 10  6  2  0  0  0  0 
 11  8  2  0  0  0  0 
 12 13  1  0  0  0  0 
 13 35  1  0  0  0  0 
 13 34  1  0  0  0  0 
 14 11  1  0  0  0  0 
 14 15  1  0  0  0  0 
 16 15  1  0  0  0  0 
 16  2  1  0  0  0  0 
 17 12  2  0  0  0  0 
 18  1  1  0  0  0  0 
 19  1  1  0  0  0  0 
 20  1  1  0  0  0  0 
 22  2  1  0  0  0  0 
 24  3  1  0  0  0  0 
 27  4  1  0  0  0  0 
 28  5  1  0  0  0  0 
 30  7  1  0  0  0  0 
 32  9  1  0  0  0  0 
M  RAD  2  14   2  15   2 
M  END 
>  <HBA> 
5 
 
>  <HBD> 
1 
 
>  <TPSA> 
71.05 
 
>  <cid> 
43068 
 
>  <dipole> 
5.88 
 
>  <excitation_energy_1> 
3.805 
 
>  <excitation_energy_2> 
3.962 
 
>  <excitation_energy_3> 
4.318 
 
>  <excitation_energy_4> 
4.462 
 
>  <homo_energy> 
-5.644 
 
>  <homo_lumo_gap> 
4.278 
 
>  <logP> 
3.216 
 
>  <lumo_energy> 
-1.366 
 
>  <melting_point> 
117.01 
 
>  <molecular_refractivity> 
67.04 
 
>  <oscillator_strength_1> 
0.0502 
 
>  <oscillator_strength_2> 
0.725 
 
>  <oscillator_strength_3> 
0.0074 
 
>  <oscillator_strength_4> 
0.0061 
 
>  <open_babel_can_smiles> 
CCCCN([N][N]c1ccc(cc1)C(=O)N)C 
 
>  <mulliken_charges> 
35 
1   -0.442352 
2   -0.30347 
3   -0.253224 
4   -0.256254 
5   -0.171022 
6   -0.203582 
7   -0.159671 
8   -0.144187 
9   -0.137341 
10   0.08483 
11   0.297798 
12   0.52443 
13   -0.753614 
14   -0.399671 
15   -0.04077 
16   -0.204615 
17   -0.506845 
18   0.145556 
19   0.149029 
20   0.14236 
21   0.161682 
22   0.162777 
23   0.18625 
24   0.140966 
25   0.129842 
26   0.1298 
27   0.166021 
28   0.161569 
29   0.127945 
30   0.134335 
31   0.141883 
32   0.182038 
33   0.142178 
34   0.328754 
35   0.336574 
 
>  <lowdin_charges> 
35 
1   -0.444377 
2   -0.356092 
3   -0.2713 
4   -0.282956 
5   -0.13223 
6   -0.156961 
7   -0.164607 
8   -0.175868 
9   -0.213549 
10   -0.054618 
11   0.035823 
12   0.167881 
13   -0.474897 
14   -0.180254 
15   -0.029947 
16   -0.028191 
17   -0.306439 
18   0.152663 
19   0.150207 
20   0.147202 
21   0.156107 
22   0.152723 
23   0.175737 
24   0.144254 
25   0.137806 
26   0.139181 
27   0.157169 
28   0.178007 
29   0.156741 
30   0.165151 
31   0.167634 
32   0.169708 
33   0.149338 
34   0.282593 
35   0.286362 
 
$$$$ 
 
