PCCDB-ID:  38676 
public computational chemistry database (PCCDB) project, http://pccdb.org 
 
 20 20  0  0  0  0  0  0  0  0999 V2000 
    1.8408    0.4034   -1.7515 C   0  0  0  0  0  0  0  0  0  0  0  0 
    2.0665    0.4924   -0.2400 C   0  0  0  0  0  0  0  0  0  0  0  0 
    6.8271    0.9347   -0.5926 C   0  0  0  0  0  0  0  0  0  0  0  0 
    3.3810   -0.1459    0.2221 C   0  0  0  0  0  0  0  0  0  0  0  0 
    6.0336    2.2143   -0.3352 C   0  0  0  0  0  0  0  0  0  0  0  0 
    5.7164   -0.1131   -0.7008 C   0  0  0  0  0  0  0  0  0  0  0  0 
    4.5534    0.5174   -0.3146 N   0  0  0  0  0  0  0  0  0  0  0  0 
    5.7988   -1.2706   -1.0731 O   0  0  0  0  0  0  0  0  0  0  0  0 
    4.8355    1.7669    0.3267 O   0  0  0  0  0  0  0  0  0  0  0  0 
    0.8991    0.8849   -2.0367 H   0  0  0  0  0  0  0  0  0  0  0  0 
    1.7992   -0.6404   -2.0856 H   0  0  0  0  0  0  0  0  0  0  0  0 
    2.6514    0.8953   -2.2995 H   0  0  0  0  0  0  0  0  0  0  0  0 
    1.2495   -0.0117    0.2930 H   0  0  0  0  0  0  0  0  0  0  0  0 
    2.0512    1.5401    0.0839 H   0  0  0  0  0  0  0  0  0  0  0  0 
    7.4707    0.6611    0.2521 H   0  0  0  0  0  0  0  0  0  0  0  0 
    7.4377    0.9557   -1.4979 H   0  0  0  0  0  0  0  0  0  0  0  0 
    3.4648   -1.1819   -0.1228 H   0  0  0  0  0  0  0  0  0  0  0  0 
    3.4475   -0.1416    1.3194 H   0  0  0  0  0  0  0  0  0  0  0  0 
    5.7696    2.7147   -1.2771 H   0  0  0  0  0  0  0  0  0  0  0  0 
    6.5077    2.9282    0.3410 H   0  0  0  0  0  0  0  0  0  0  0  0 
  1  2  1  0  0  0  0 
  2 14  1  0  0  0  0 
  2  4  1  0  0  0  0 
  2 13  1  0  0  0  0 
  3  5  1  0  0  0  0 
  3 15  1  0  0  0  0 
  4 18  1  0  0  0  0 
  5  9  1  0  0  0  0 
  5 20  1  0  0  0  0 
  6  3  1  0  0  0  0 
  6  7  1  0  0  0  0 
  7  4  1  0  0  0  0 
  7  9  1  0  0  0  0 
  8  6  2  0  0  0  0 
 10  1  1  0  0  0  0 
 11  1  1  0  0  0  0 
 12  1  1  0  0  0  0 
 16  3  1  0  0  0  0 
 17  4  1  0  0  0  0 
 19  5  1  0  0  0  0 
M  END 
>  <HBA> 
3 
 
>  <HBD> 
0 
 
>  <TPSA> 
29.54 
 
>  <cid> 
38676 
 
>  <dipole> 
2.48 
 
>  <excitation_energy_1> 
5.307 
 
>  <excitation_energy_2> 
5.681 
 
>  <excitation_energy_3> 
5.89 
 
>  <excitation_energy_4> 
6.101 
 
>  <homo_energy> 
-6.044 
 
>  <homo_lumo_gap> 
6.455 
 
>  <logP> 
0.498 
 
>  <lumo_energy> 
0.411 
 
>  <melting_point> 
13.44 
 
>  <molecular_refractivity> 
36.94 
 
>  <oscillator_strength_1> 
0.0327 
 
>  <oscillator_strength_2> 
0.0092 
 
>  <oscillator_strength_3> 
0.0512 
 
>  <oscillator_strength_4> 
0.0157 
 
>  <open_babel_can_smiles> 
CCCN1OCCC1=O 
 
>  <mulliken_charges> 
20 
1   -0.4434 
2   -0.259229 
3   -0.39946 
4   -0.142075 
5   -0.027032 
6   0.587711 
7   -0.181632 
8   -0.502051 
9   -0.39695 
10   0.144547 
11   0.147228 
12   0.156364 
13   0.138618 
14   0.154664 
15   0.18354 
16   0.183691 
17   0.184241 
18   0.155018 
19   0.151858 
20   0.16435 
 
>  <lowdin_charges> 
20 
1   -0.446754 
2   -0.278434 
3   -0.318612 
4   -0.194753 
5   -0.131106 
6   0.1431 
7   0.002286 
8   -0.286359 
9   -0.221572 
10   0.151546 
11   0.148627 
12   0.154383 
13   0.148562 
14   0.150418 
15   0.174964 
16   0.177414 
17   0.172757 
18   0.148567 
19   0.14283 
20   0.162136 
 
$$$$ 
 
