PCCDB-ID:  10334 
public computational chemistry database (PCCDB) project, http://pccdb.org 
 
 17 17  0  0  0  0  0  0  0  0999 V2000 
    0.9987   -0.0841    0.0248 C   0  0  0  0  0  0  0  0  0  0  0  0 
    3.2429    1.0893   -0.1628 C   0  0  0  0  0  0  0  0  0  0  0  0 
    4.6300    1.0612   -0.2837 C   0  0  0  0  0  0  0  0  0  0  0  0 
    3.1994   -1.3068   -0.1920 C   0  0  0  0  0  0  0  0  0  0  0  0 
    2.5035   -0.0963   -0.1143 C   0  0  0  0  0  0  0  0  0  0  0  0 
    5.3243   -0.1507   -0.3582 C   0  0  0  0  0  0  0  0  0  0  0  0 
    4.5923   -1.3544   -0.3124 C   0  0  0  0  0  0  0  0  0  0  0  0 
    7.1063   -0.2145   -0.5093 S   0  0  0  0  0  0  0  0  0  0  0  0 
    5.4729   -2.9090   -0.4168 S   0  0  0  0  0  0  0  0  0  0  0  0 
    0.6072    0.9375   -0.0007 H   0  0  0  0  0  0  0  0  0  0  0  0 
    0.6790   -0.5385    0.9710 H   0  0  0  0  0  0  0  0  0  0  0  0 
    0.5151   -0.6465   -0.7832 H   0  0  0  0  0  0  0  0  0  0  0  0 
    2.7329    2.0475   -0.1068 H   0  0  0  0  0  0  0  0  0  0  0  0 
    5.1807    1.9975   -0.3179 H   0  0  0  0  0  0  0  0  0  0  0  0 
    2.6392   -2.2388   -0.1595 H   0  0  0  0  0  0  0  0  0  0  0  0 
    7.2906    1.1208   -0.5378 H   0  0  0  0  0  0  0  0  0  0  0  0 
    4.3867   -3.6950   -0.2777 H   0  0  0  0  0  0  0  0  0  0  0  0 
  1 11  1  0  0  0  0 
  2  5  1  0  0  0  0 
  2 13  1  0  0  0  0 
  3  2  2  0  0  0  0 
  4 15  1  0  0  0  0 
  4  5  2  0  0  0  0 
  5  1  1  0  0  0  0 
  6  7  2  0  0  0  0 
  6  3  1  0  0  0  0 
  7  4  1  0  0  0  0 
  8  6  1  0  0  0  0 
  9  7  1  0  0  0  0 
  9 17  1  0  0  0  0 
 10  1  1  0  0  0  0 
 12  1  1  0  0  0  0 
 14  3  1  0  0  0  0 
 16  8  1  0  0  0  0 
M  END 
>  <HBA> 
2 
 
>  <HBD> 
2 
 
>  <TPSA> 
77.6 
 
>  <cid> 
10334 
 
>  <dipole> 
2.54 
 
>  <excitation_energy_1> 
4.202 
 
>  <excitation_energy_2> 
4.448 
 
>  <excitation_energy_3> 
4.746 
 
>  <excitation_energy_4> 
5.024 
 
>  <homo_energy> 
-5.728 
 
>  <homo_lumo_gap> 
5.434 
 
>  <logP> 
2.572 
 
>  <lumo_energy> 
-0.294 
 
>  <melting_point> 
58.69 
 
>  <molecular_refractivity> 
45.91 
 
>  <oscillator_strength_1> 
0.001 
 
>  <oscillator_strength_2> 
0.0462 
 
>  <oscillator_strength_3> 
0.0003 
 
>  <oscillator_strength_4> 
0.0798 
 
>  <open_babel_can_smiles> 
Cc1ccc(c(c1)S)S 
 
>  <mulliken_charges> 
17 
1   -0.531715 
2   -0.177632 
3   -0.140303 
4   -0.193524 
5   0.185899 
6   -0.096577 
7   -0.089385 
8   -0.00514 
9   -0.004707 
10   0.157758 
11   0.165631 
12   0.163767 
13   0.12751 
14   0.129372 
15   0.122478 
16   0.093151 
17   0.093418 
 
>  <lowdin_charges> 
17 
1   -0.441798 
2   -0.17024 
3   -0.16582 
4   -0.176495 
5   0.001164 
6   -0.128497 
7   -0.122238 
8   0.004322 
9   0.001777 
10   0.157805 
11   0.162179 
12   0.162421 
13   0.158374 
14   0.159236 
15   0.156083 
16   0.119376 
17   0.122351 
 
$$$$ 
 
