PCCDB-ID:  16616 
public computational chemistry database (PCCDB) project, http://pccdb.org 
 
 25 25  0  0  0  0  0  0  0  0999 V2000 
    1.1606    0.0433    0.6297 C   0  0  0  0  0  0  0  0  0  0  0  0 
    5.4665   -2.2864   -0.6709 C   0  0  0  0  0  0  0  0  0  0  0  0 
    2.7169   -3.2464    1.9521 C   0  0  0  0  0  0  0  0  0  0  0  0 
    4.7802    1.2598    0.5701 C   0  0  0  0  0  0  0  0  0  0  0  0 
    3.3969    1.2271    0.7375 C   0  0  0  0  0  0  0  0  0  0  0  0 
    5.4438    0.1198    0.1196 C   0  0  0  0  0  0  0  0  0  0  0  0 
    2.6618    0.0678    0.4700 C   0  0  0  0  0  0  0  0  0  0  0  0 
    4.7480   -1.0605   -0.1604 C   0  0  0  0  0  0  0  0  0  0  0  0 
    2.3486   -3.1584    0.4871 C   0  0  0  0  0  0  0  0  0  0  0  0 
    3.3500   -1.0842    0.0326 C   0  0  0  0  0  0  0  0  0  0  0  0 
    2.6193   -2.2335   -0.3347 N   0  0  0  0  0  0  0  0  0  0  0  0 
    1.6346   -4.2165    0.0037 O   0  0  0  0  0  0  0  0  0  0  0  0 
    0.7692    1.0516    0.7980 H   0  0  0  0  0  0  0  0  0  0  0  0 
    0.8442   -0.5773    1.4793 H   0  0  0  0  0  0  0  0  0  0  0  0 
    0.6761   -0.3745   -0.2603 H   0  0  0  0  0  0  0  0  0  0  0  0 
    6.5014   -2.0500   -0.9375 H   0  0  0  0  0  0  0  0  0  0  0  0 
    4.9640   -2.6983   -1.5536 H   0  0  0  0  0  0  0  0  0  0  0  0 
    5.4954   -3.0909    0.0768 H   0  0  0  0  0  0  0  0  0  0  0  0 
    3.2795   -2.3653    2.2643 H   0  0  0  0  0  0  0  0  0  0  0  0 
    3.3278   -4.1385    2.1404 H   0  0  0  0  0  0  0  0  0  0  0  0 
    1.8135   -3.3236    2.5704 H   0  0  0  0  0  0  0  0  0  0  0  0 
    5.3354    2.1709    0.7758 H   0  0  0  0  0  0  0  0  0  0  0  0 
    2.8699    2.1160    1.0773 H   0  0  0  0  0  0  0  0  0  0  0  0 
    6.5217    0.1410   -0.0254 H   0  0  0  0  0  0  0  0  0  0  0  0 
    1.4884   -4.8554    0.7180 H   0  0  0  0  0  0  0  0  0  0  0  0 
  1 13  1  0  0  0  0 
  1 14  1  0  0  0  0 
  2  8  1  0  0  0  0 
  2 18  1  0  0  0  0 
  3 20  1  0  0  0  0 
  3 19  1  0  0  0  0 
  3 21  1  0  0  0  0 
  4  5  1  0  0  0  0 
  4 22  1  0  0  0  0 
  5 23  1  0  0  0  0 
  6  4  2  0  0  0  0 
  7  1  1  0  0  0  0 
  7  5  2  0  0  0  0 
  8 10  2  0  0  0  0 
  8  6  1  0  0  0  0 
  9  3  1  0  0  0  0 
 10  7  1  0  0  0  0 
 11 10  1  0  0  0  0 
 11  9  2  0  0  0  0 
 12  9  1  0  0  0  0 
 12 25  1  0  0  0  0 
 15  1  1  0  0  0  0 
 16  2  1  0  0  0  0 
 17  2  1  0  0  0  0 
 24  6  1  0  0  0  0 
M  END 
>  <HBA> 
2 
 
>  <HBD> 
1 
 
>  <TPSA> 
29.1 
 
>  <cid> 
16616 
 
>  <dipole> 
3.79 
 
>  <excitation_energy_1> 
4.724 
 
>  <excitation_energy_2> 
4.758 
 
>  <excitation_energy_3> 
4.994 
 
>  <excitation_energy_4> 
5.416 
 
>  <homo_energy> 
-5.581 
 
>  <homo_lumo_gap> 
5.897 
 
>  <logP> 
2.335 
 
>  <lumo_energy> 
0.316 
 
>  <melting_point> 
68.27 
 
>  <molecular_refractivity> 
50.69 
 
>  <oscillator_strength_1> 
0.0028 
 
>  <oscillator_strength_2> 
0.015 
 
>  <oscillator_strength_3> 
0.0139 
 
>  <oscillator_strength_4> 
0.008 
 
>  <open_babel_can_smiles> 
C/C(=N\c1c(C)cccc1C)/O 
 
>  <mulliken_charges> 
25 
1   -0.530043 
2   -0.529255 
3   -0.554456 
4   -0.118886 
5   -0.207947 
6   -0.208043 
7   0.178841 
8   0.178315 
9   0.485813 
10   0.087167 
11   -0.45555 
12   -0.573233 
13   0.148871 
14   0.144683 
15   0.176341 
16   0.148568 
17   0.176557 
18   0.144885 
19   0.200957 
20   0.17347 
21   0.172984 
22   0.119307 
23   0.116216 
24   0.116249 
25   0.408188 
 
>  <lowdin_charges> 
25 
1   -0.442614 
2   -0.441668 
3   -0.48461 
4   -0.173375 
5   -0.171258 
6   -0.16808 
7   -0.022361 
8   -0.02199 
9   0.147404 
10   0.025593 
11   -0.168402 
12   -0.362709 
13   0.1536 
14   0.151319 
15   0.167921 
16   0.152965 
17   0.168067 
18   0.1514 
19   0.185879 
20   0.16944 
21   0.169092 
22   0.154544 
23   0.152542 
24   0.149945 
25   0.357356 
 
$$$$ 
 
