PCCDB-ID:  28774 
public computational chemistry database (PCCDB) project, http://pccdb.org 
 
 18 17  0  0  0  0  0  0  0  0999 V2000 
    0.7508    0.1471   -0.2384 C   0  0  0  0  0  0  0  0  0  0  0  0 
    4.9933   -2.5093   -0.6266 C   0  0  0  0  0  0  0  0  0  0  0  0 
    2.2653    0.2405   -0.0347 C   0  0  0  0  0  0  0  0  0  0  0  0 
    3.0616   -0.3548   -1.2157 C   0  0  0  0  0  0  0  0  0  0  0  0 
    4.5647   -0.2286   -1.0345 C   0  0  0  0  0  0  0  0  0  0  0  0 
    5.4180   -1.1266   -0.7759 N   0  0  0  0  0  0  0  0  0  0  0  0 
    5.0440    1.0540   -1.1338 O   0  0  0  0  0  0  0  0  0  0  0  0 
    0.2111    0.5727    0.6147 H   0  0  0  0  0  0  0  0  0  0  0  0 
    0.4294   -0.8953   -0.3501 H   0  0  0  0  0  0  0  0  0  0  0  0 
    0.4354    0.6897   -1.1380 H   0  0  0  0  0  0  0  0  0  0  0  0 
    5.8655   -3.1182   -0.3699 H   0  0  0  0  0  0  0  0  0  0  0  0 
    4.5677   -2.9237   -1.5530 H   0  0  0  0  0  0  0  0  0  0  0  0 
    4.2506   -2.6483    0.1732 H   0  0  0  0  0  0  0  0  0  0  0  0 
    2.5524   -0.2824    0.8862 H   0  0  0  0  0  0  0  0  0  0  0  0 
    2.5544    1.2897    0.1136 H   0  0  0  0  0  0  0  0  0  0  0  0 
    2.7705    0.1554   -2.1467 H   0  0  0  0  0  0  0  0  0  0  0  0 
    2.7926   -1.4074   -1.3445 H   0  0  0  0  0  0  0  0  0  0  0  0 
    4.3187    1.6442   -1.3883 H   0  0  0  0  0  0  0  0  0  0  0  0 
  1  3  1  0  0  0  0 
  1  8  1  0  0  0  0 
  2 11  1  0  0  0  0 
  2 13  1  0  0  0  0 
  3 15  1  0  0  0  0 
  3 14  1  0  0  0  0 
  4  5  1  0  0  0  0 
  4  3  1  0  0  0  0 
  5  6  2  0  0  0  0 
  6  2  1  0  0  0  0 
  7  5  1  0  0  0  0 
  9  1  1  0  0  0  0 
 10  1  1  0  0  0  0 
 12  2  1  0  0  0  0 
 16  4  1  0  0  0  0 
 17  4  1  0  0  0  0 
 18  7  1  0  0  0  0 
M  END 
>  <HBA> 
2 
 
>  <HBD> 
1 
 
>  <TPSA> 
29.1 
 
>  <cid> 
28774 
 
>  <dipole> 
3.9 
 
>  <excitation_energy_1> 
5.422 
 
>  <excitation_energy_2> 
5.875 
 
>  <excitation_energy_3> 
5.903 
 
>  <excitation_energy_4> 
6.235 
 
>  <homo_energy> 
-6.419 
 
>  <homo_lumo_gap> 
7.012 
 
>  <logP> 
0.923 
 
>  <lumo_energy> 
0.593 
 
>  <melting_point> 
22.67 
 
>  <molecular_refractivity> 
29.15 
 
>  <oscillator_strength_1> 
0.0002 
 
>  <oscillator_strength_2> 
0.0046 
 
>  <oscillator_strength_3> 
0.0128 
 
>  <oscillator_strength_4> 
0.0162 
 
>  <open_babel_can_smiles> 
CCC/C(=N\C)/O 
 
>  <mulliken_charges> 
18 
1   -0.442267 
2   -0.325912 
3   -0.253473 
4   -0.367495 
5   0.496052 
6   -0.407775 
7   -0.585631 
8   0.152782 
9   0.149478 
10   0.144419 
11   0.161712 
12   0.141827 
13   0.137955 
14   0.156425 
15   0.134099 
16   0.145014 
17   0.160685 
18   0.402105 
 
>  <lowdin_charges> 
18 
1   -0.44461 
2   -0.361047 
3   -0.268543 
4   -0.311706 
5   0.126909 
6   -0.211322 
7   -0.374443 
8   0.156305 
9   0.149565 
10   0.14848 
11   0.156201 
12   0.141198 
13   0.138719 
14   0.152108 
15   0.138421 
16   0.15104 
17   0.160674 
18   0.352051 
 
$$$$ 
 
