PCCDB-ID:  8945 
public computational chemistry database (PCCDB) project, http://pccdb.org 
 
 22 22  0  0  0  0  0  0  0  0999 V2000 
    1.5338    1.0021   -0.2948 C   0  0  0  0  0  0  0  0  0  0  0  0 
    3.5020    0.4591    1.2225 C   0  0  0  0  0  0  0  0  0  0  0  0 
    3.2008   -1.6907   -1.4540 C   0  0  0  0  0  0  0  0  0  0  0  0 
    0.8139    0.7665   -1.6146 C   0  0  0  0  0  0  0  0  0  0  0  0 
    3.5488    1.9129    1.7168 C   0  0  0  0  0  0  0  0  0  0  0  0 
    3.8449    0.4659   -1.2827 C   0  0  0  0  0  0  0  0  0  0  0  0 
    2.8397    0.2000   -0.1561 C   0  0  0  0  0  0  0  0  0  0  0  0 
    1.3325    0.2654   -2.5835 O   0  0  0  0  0  0  0  0  0  0  0  0 
   -0.4667    1.1931   -1.6712 O   0  0  0  0  0  0  0  0  0  0  0  0 
    3.1898    2.2081    2.8318 O   0  0  0  0  0  0  0  0  0  0  0  0 
    4.0147    2.8450    0.8662 O   0  0  0  0  0  0  0  0  0  0  0  0 
    4.4204    1.5103   -1.5079 O   0  0  0  0  0  0  0  0  0  0  0  0 
    4.0990   -0.6772   -1.9229 O   0  0  0  0  0  0  0  0  0  0  0  0 
    2.5962   -1.2017   -0.2700 O   0  0  0  0  0  0  0  0  0  0  0  0 
    0.8836    0.7433    0.5502 H   0  0  0  0  0  0  0  0  0  0  0  0 
    1.7534    2.0744   -0.2135 H   0  0  0  0  0  0  0  0  0  0  0  0 
    2.9401   -0.1053    1.9696 H   0  0  0  0  0  0  0  0  0  0  0  0 
    4.5214    0.0526    1.2089 H   0  0  0  0  0  0  0  0  0  0  0  0 
    3.7868   -2.5845   -1.2253 H   0  0  0  0  0  0  0  0  0  0  0  0 
    2.4589   -1.8740   -2.2341 H   0  0  0  0  0  0  0  0  0  0  0  0 
   -0.7427    1.5737   -0.8204 H   0  0  0  0  0  0  0  0  0  0  0  0 
    4.2712    2.4635   -0.0084 H   0  0  0  0  0  0  0  0  0  0  0  0 
  1 16  1  0  0  0  0 
  1  7  1  0  0  0  0 
  1 15  1  0  0  0  0 
  2  5  1  0  0  0  0 
  2 17  1  0  0  0  0 
  3 19  1  0  0  0  0 
  3 14  1  0  0  0  0 
  4  1  1  0  0  0  0 
  5 10  2  0  0  0  0 
  6  7  1  0  0  0  0 
  7  2  1  0  0  0  0 
  8  4  2  0  0  0  0 
  9  4  1  0  0  0  0 
  9 21  1  0  0  0  0 
 11  5  1  0  0  0  0 
 12  6  2  0  0  0  0 
 13  3  1  0  0  0  0 
 13  6  1  0  0  0  0 
 14  7  1  0  0  0  0 
 18  2  1  0  0  0  0 
 20  3  1  0  0  0  0 
 22 11  1  0  0  0  0 
M  END 
>  <HBA> 
7 
 
>  <HBD> 
2 
 
>  <TPSA> 
110.13 
 
>  <cid> 
8945 
 
>  <dipole> 
3.8 
 
>  <excitation_energy_1> 
5.475 
 
>  <excitation_energy_2> 
5.698 
 
>  <excitation_energy_3> 
5.795 
 
>  <excitation_energy_4> 
5.92 
 
>  <homo_energy> 
-7.404 
 
>  <homo_lumo_gap> 
6.49 
 
>  <logP> 
-0.794 
 
>  <lumo_energy> 
-0.914 
 
>  <melting_point> 
164.18 
 
>  <molecular_refractivity> 
39.6 
 
>  <oscillator_strength_1> 
0.0046 
 
>  <oscillator_strength_2> 
0.0089 
 
>  <oscillator_strength_3> 
0.0005 
 
>  <oscillator_strength_4> 
0.0062 
 
>  <open_babel_can_smiles> 
OC(=O)CC1(OCOC1=O)CC(=O)O 
 
>  <mulliken_charges> 
22 
1   -0.430556 
2   -0.398864 
3   0.192376 
4   0.638723 
5   0.581171 
6   0.65585 
7   0.211775 
8   -0.445249 
9   -0.558428 
10   -0.442658 
11   -0.592122 
12   -0.487967 
13   -0.433795 
14   -0.52088 
15   0.189493 
16   0.214841 
17   0.202183 
18   0.187903 
19   0.173549 
20   0.193539 
21   0.42215 
22   0.446966 
 
>  <lowdin_charges> 
22 
1   -0.333286 
2   -0.318769 
3   0.002958 
4   0.207435 
5   0.17924 
6   0.198324 
7   0.09096 
8   -0.237708 
9   -0.335497 
10   -0.244112 
11   -0.363348 
12   -0.247166 
13   -0.136032 
14   -0.252641 
15   0.179067 
16   0.191647 
17   0.189065 
18   0.177568 
19   0.159053 
20   0.165317 
21   0.366788 
22   0.361136 
 
$$$$ 
 
