PCCDB-ID:  8184 
public computational chemistry database (PCCDB) project, http://pccdb.org 
 
 36 35  0  0  0  0  0  0  0  0999 V2000 
    0.9039    0.0479   -0.0947 C   0  0  0  0  0  0  0  0  0  0  0  0 
    2.4354    0.0486   -0.0499 C   0  0  0  0  0  0  0  0  0  0  0  0 
    3.0000    0.1329    1.3742 C   0  0  0  0  0  0  0  0  0  0  0  0 
    4.5329    0.1325    1.4284 C   0  0  0  0  0  0  0  0  0  0  0  0 
    5.0968    0.2120    2.8532 C   0  0  0  0  0  0  0  0  0  0  0  0 
    6.6298    0.2096    2.9074 C   0  0  0  0  0  0  0  0  0  0  0  0 
    7.1931    0.2846    4.3327 C   0  0  0  0  0  0  0  0  0  0  0  0 
    8.7260    0.2814    4.3866 C   0  0  0  0  0  0  0  0  0  0  0  0 
    9.2880    0.3546    5.8126 C   0  0  0  0  0  0  0  0  0  0  0  0 
   10.8211    0.3554    5.8652 C   0  0  0  0  0  0  0  0  0  0  0  0 
   11.3756    0.4176    7.2893 C   0  0  0  0  0  0  0  0  0  0  0  0 
   12.7979    0.4754    7.3320 O   0  0  0  0  0  0  0  0  0  0  0  0 
    0.5330   -0.0149   -1.1241 H   0  0  0  0  0  0  0  0  0  0  0  0 
    0.4937    0.9620    0.3519 H   0  0  0  0  0  0  0  0  0  0  0  0 
    0.4918   -0.8041    0.4603 H   0  0  0  0  0  0  0  0  0  0  0  0 
    2.8187    0.8919   -0.6419 H   0  0  0  0  0  0  0  0  0  0  0  0 
    2.8159   -0.8609   -0.5363 H   0  0  0  0  0  0  0  0  0  0  0  0 
    2.6151   -0.7110    1.9664 H   0  0  0  0  0  0  0  0  0  0  0  0 
    2.6189    1.0427    1.8619 H   0  0  0  0  0  0  0  0  0  0  0  0 
    4.9173    0.9775    0.8379 H   0  0  0  0  0  0  0  0  0  0  0  0 
    4.9125   -0.7764    0.9382 H   0  0  0  0  0  0  0  0  0  0  0  0 
    4.7117   -0.6329    3.4434 H   0  0  0  0  0  0  0  0  0  0  0  0 
    4.7179    1.1210    3.3438 H   0  0  0  0  0  0  0  0  0  0  0  0 
    7.0153    1.0560    2.3196 H   0  0  0  0  0  0  0  0  0  0  0  0 
    7.0087   -0.6982    2.4146 H   0  0  0  0  0  0  0  0  0  0  0  0 
    6.8075   -0.5619    4.9204 H   0  0  0  0  0  0  0  0  0  0  0  0 
    6.8147    1.1924    4.8257 H   0  0  0  0  0  0  0  0  0  0  0  0 
    9.1124    1.1285    3.8009 H   0  0  0  0  0  0  0  0  0  0  0  0 
    9.1050   -0.6260    3.8933 H   0  0  0  0  0  0  0  0  0  0  0  0 
    8.9018   -0.4932    6.3980 H   0  0  0  0  0  0  0  0  0  0  0  0 
    8.9080    1.2614    6.3058 H   0  0  0  0  0  0  0  0  0  0  0  0 
   11.2198    1.2078    5.2993 H   0  0  0  0  0  0  0  0  0  0  0  0 
   11.2034   -0.5522    5.3716 H   0  0  0  0  0  0  0  0  0  0  0  0 
   10.9965   -0.4342    7.8795 H   0  0  0  0  0  0  0  0  0  0  0  0 
   11.0339    1.3313    7.7881 H   0  0  0  0  0  0  0  0  0  0  0  0 
   13.1323   -0.3346    6.9162 H   0  0  0  0  0  0  0  0  0  0  0  0 
  1  2  1  0  0  0  0 
  1 14  1  0  0  0  0 
  1 15  1  0  0  0  0 
  2  3  1  0  0  0  0 
  3  4  1  0  0  0  0 
  3 19  1  0  0  0  0 
  3 18  1  0  0  0  0 
  4  5  1  0  0  0  0 
  5  6  1  0  0  0  0 
  5 23  1  0  0  0  0 
  5 22  1  0  0  0  0 
  6  7  1  0  0  0  0 
  7  8  1  0  0  0  0 
  7 27  1  0  0  0  0 
  7 26  1  0  0  0  0 
  8  9  1  0  0  0  0 
  9 10  1  0  0  0  0 
  9 31  1  0  0  0  0 
  9 30  1  0  0  0  0 
 10 11  1  0  0  0  0 
 11 12  1  0  0  0  0 
 11 35  1  0  0  0  0 
 11 34  1  0  0  0  0 
 13  1  1  0  0  0  0 
 16  2  1  0  0  0  0 
 17  2  1  0  0  0  0 
 20  4  1  0  0  0  0 
 21  4  1  0  0  0  0 
 24  6  1  0  0  0  0 
 25  6  1  0  0  0  0 
 28  8  1  0  0  0  0 
 29  8  1  0  0  0  0 
 32 10  1  0  0  0  0 
 33 10  1  0  0  0  0 
 36 12  1  0  0  0  0 
M  END 
>  <HBA> 
1 
 
>  <HBD> 
1 
 
>  <TPSA> 
20.23 
 
>  <cid> 
8184 
 
>  <dipole> 
1.77 
 
>  <excitation_energy_1> 
6.42 
 
>  <excitation_energy_2> 
7.18 
 
>  <excitation_energy_3> 
7.411 
 
>  <excitation_energy_4> 
7.475 
 
>  <homo_energy> 
-7.034 
 
>  <homo_lumo_gap> 
9.143 
 
>  <logP> 
3.51 
 
>  <lumo_energy> 
2.109 
 
>  <melting_point> 
-11.27 
 
>  <molecular_refractivity> 
56.15 
 
>  <oscillator_strength_1> 
0.0101 
 
>  <oscillator_strength_2> 
0.0176 
 
>  <oscillator_strength_3> 
0.0016 
 
>  <oscillator_strength_4> 
0.0099 
 
>  <open_babel_can_smiles> 
CCCCCCCCCCCO 
 
>  <mulliken_charges> 
36 
1   -0.441261 
2   -0.246483 
3   -0.245371 
4   -0.252246 
5   -0.252615 
6   -0.252618 
7   -0.253015 
8   -0.251152 
9   -0.260229 
10   -0.27716 
11   -0.025357 
12   -0.616093 
13   0.14114 
14   0.140996 
15   0.14083 
16   0.12971 
17   0.129495 
18   0.125821 
19   0.126094 
20   0.126565 
21   0.126165 
22   0.126379 
23   0.126853 
24   0.127226 
25   0.12637 
26   0.126674 
27   0.127703 
28   0.129809 
29   0.126984 
30   0.128676 
31   0.131905 
32   0.144852 
33   0.118265 
34   0.116063 
35   0.144483 
36   0.384543 
 
>  <lowdin_charges> 
36 
1   -0.444982 
2   -0.273322 
3   -0.275844 
4   -0.275631 
5   -0.27535 
6   -0.275434 
7   -0.275617 
8   -0.274359 
9   -0.275985 
10   -0.294571 
11   -0.135796 
12   -0.470318 
13   0.148024 
14   0.146455 
15   0.146775 
16   0.139398 
17   0.138879 
18   0.137774 
19   0.137512 
20   0.138201 
21   0.137602 
22   0.138076 
23   0.137932 
24   0.138508 
25   0.13769 
26   0.138201 
27   0.138366 
28   0.139851 
29   0.137983 
30   0.138926 
31   0.140457 
32   0.147987 
33   0.133671 
34   0.123769 
35   0.145857 
36   0.339314 
 
$$$$ 
 
