PCCDB-ID:  36504 
public computational chemistry database (PCCDB) project, http://pccdb.org 
 
 22 21  0  0  0  0  0  0  0  0999 V2000 
    0.4783   -0.4443   -1.5240 C   0  0  0  0  0  0  0  0  0  0  0  0 
    1.9135   -0.1782   -1.0587 C   0  0  0  0  0  0  0  0  0  0  0  0 
    2.9656   -0.5302   -2.1178 C   0  0  0  0  0  0  0  0  0  0  0  0 
    4.4096   -0.2631   -1.6506 C   0  0  0  0  0  0  0  0  0  0  0  0 
    5.4354   -0.5737   -2.7054 C   0  0  0  0  0  0  0  0  0  0  0  0 
    6.3997   -1.4943   -2.6074 C   0  0  0  0  0  0  0  0  0  0  0  0 
    7.4083   -1.7863   -3.6820 C   0  0  0  0  0  0  0  0  0  0  0  0 
    8.7517   -1.6073   -3.2282 O   0  0  0  0  0  0  0  0  0  0  0  0 
   -0.2488   -0.1836   -0.7466 H   0  0  0  0  0  0  0  0  0  0  0  0 
    0.3328   -1.5021   -1.7751 H   0  0  0  0  0  0  0  0  0  0  0  0 
    0.2354    0.1434   -2.4178 H   0  0  0  0  0  0  0  0  0  0  0  0 
    2.1143   -0.7535   -0.1438 H   0  0  0  0  0  0  0  0  0  0  0  0 
    2.0192    0.8805   -0.7815 H   0  0  0  0  0  0  0  0  0  0  0  0 
    2.7674    0.0462   -3.0335 H   0  0  0  0  0  0  0  0  0  0  0  0 
    2.8693   -1.5887   -2.3964 H   0  0  0  0  0  0  0  0  0  0  0  0 
    4.6191   -0.8494   -0.7461 H   0  0  0  0  0  0  0  0  0  0  0  0 
    4.4923    0.7966   -1.3624 H   0  0  0  0  0  0  0  0  0  0  0  0 
    5.3514   -0.0023   -3.6337 H   0  0  0  0  0  0  0  0  0  0  0  0 
    6.5070   -2.0760   -1.6904 H   0  0  0  0  0  0  0  0  0  0  0  0 
    7.1992   -1.1734   -4.5741 H   0  0  0  0  0  0  0  0  0  0  0  0 
    7.3562   -2.8376   -3.9894 H   0  0  0  0  0  0  0  0  0  0  0  0 
    8.8104   -0.7023   -2.8830 H   0  0  0  0  0  0  0  0  0  0  0  0 
  1  2  1  0  0  0  0 
  1  9  1  0  0  0  0 
  2 13  1  0  0  0  0 
  2 12  1  0  0  0  0 
  3  4  1  0  0  0  0 
  3  2  1  0  0  0  0 
  4 17  1  0  0  0  0 
  4 16  1  0  0  0  0 
  5  6  2  0  0  0  0 
  5  4  1  0  0  0  0 
  6 19  1  0  0  0  0 
  7  8  1  0  0  0  0 
  7  6  1  0  0  0  0 
  8 22  1  0  0  0  0 
 10  1  1  0  0  0  0 
 11  1  1  0  0  0  0 
 14  3  1  0  0  0  0 
 15  3  1  0  0  0  0 
 18  5  1  0  0  0  0 
 20  7  1  0  0  0  0 
 21  7  1  0  0  0  0 
M  END 
>  <HBA> 
1 
 
>  <HBD> 
1 
 
>  <TPSA> 
20.23 
 
>  <cid> 
36504 
 
>  <dipole> 
2.1 
 
>  <excitation_energy_1> 
6.238 
 
>  <excitation_energy_2> 
6.425 
 
>  <excitation_energy_3> 
6.7 
 
>  <excitation_energy_4> 
6.798 
 
>  <homo_energy> 
-6.708 
 
>  <homo_lumo_gap> 
7.086 
 
>  <logP> 
1.725 
 
>  <lumo_energy> 
0.378 
 
>  <melting_point> 
1.18 
 
>  <molecular_refractivity> 
36.45 
 
>  <oscillator_strength_1> 
0.1416 
 
>  <oscillator_strength_2> 
0.0148 
 
>  <oscillator_strength_3> 
0.0552 
 
>  <oscillator_strength_4> 
0.1185 
 
>  <open_babel_can_smiles> 
CCCC/C=C/CO 
 
>  <mulliken_charges> 
22 
1   -0.441881 
2   -0.24745 
3   -0.247326 
4   -0.302502 
5   -0.091122 
6   -0.134119 
7   -0.068373 
8   -0.612454 
9   0.143371 
10   0.143306 
11   0.142068 
12   0.132517 
13   0.131031 
14   0.129375 
15   0.137497 
16   0.139275 
17   0.139801 
18   0.119803 
19   0.128865 
20   0.123164 
21   0.151144 
22   0.384013 
 
>  <lowdin_charges> 
22 
1   -0.444082 
2   -0.271056 
3   -0.271691 
4   -0.270296 
5   -0.157626 
6   -0.196302 
7   -0.129449 
8   -0.468875 
9   0.151015 
10   0.145982 
11   0.147041 
12   0.140073 
13   0.137641 
14   0.138858 
15   0.141315 
16   0.146572 
17   0.145966 
18   0.145962 
19   0.152321 
20   0.128835 
21   0.149859 
22   0.337936 
 
$$$$ 
 
