PCCDB-ID:  27849 
public computational chemistry database (PCCDB) project, http://pccdb.org 
 
 15 14  0  0  0  0  0  0  0  0999 V2000 
    0.9876    0.7222   -0.1590 C   0  0  0  0  0  0  0  0  0  0  0  0 
    4.7634   -2.1563   -1.1630 C   0  0  0  0  0  0  0  0  0  0  0  0 
    2.3666    0.1216    0.0432 C   0  0  0  0  0  0  0  0  0  0  0  0 
    5.4492    0.4844   -0.5500 O   0  0  0  0  0  0  0  0  0  0  0  0 
    2.9540   -0.0997   -1.2608 O   0  0  0  0  0  0  0  0  0  0  0  0 
    4.5564   -0.3599   -1.3918 P   0  0  2  0  0  0  0  0  0  0  0  0 
    0.5104    0.8981    0.8116 H   0  0  0  0  0  0  0  0  0  0  0  0 
    0.3508    0.0490   -0.7418 H   0  0  0  0  0  0  0  0  0  0  0  0 
    1.0592    1.6767   -0.6895 H   0  0  0  0  0  0  0  0  0  0  0  0 
    5.7977   -2.4365   -1.3857 H   0  0  0  0  0  0  0  0  0  0  0  0 
    4.0868   -2.7106   -1.8210 H   0  0  0  0  0  0  0  0  0  0  0  0 
    4.5541   -2.4239   -0.1225 H   0  0  0  0  0  0  0  0  0  0  0  0 
    2.3017   -0.8379    0.5736 H   0  0  0  0  0  0  0  0  0  0  0  0 
    3.0142    0.7904    0.6190 H   0  0  0  0  0  0  0  0  0  0  0  0 
    4.6510   -0.1732   -2.7882 H   0  0  0  0  0  0  0  0  0  0  0  0 
  1  3  1  0  0  0  0 
  1  7  1  0  0  0  0 
  2 12  1  0  0  0  0 
  3 13  1  0  0  0  0 
  3 14  1  0  0  0  0 
  5  3  1  0  0  0  0 
  6 15  1  6  0  0  0 
  6  5  1  0  0  0  0 
  6  2  1  0  0  0  0 
  6  4  2  0  0  0  0 
  8  1  1  0  0  0  0 
  9  1  1  0  0  0  0 
 10  2  1  0  0  0  0 
 11  2  1  0  0  0  0 
M  END 
>  <HBA> 
2 
 
>  <HBD> 
1 
 
>  <TPSA> 
49.77 
 
>  <cid> 
27849 
 
>  <dipole> 
3.3 
 
>  <excitation_energy_1> 
6.808 
 
>  <excitation_energy_2> 
7.159 
 
>  <excitation_energy_3> 
7.224 
 
>  <excitation_energy_4> 
7.32 
 
>  <homo_energy> 
-7.358 
 
>  <homo_lumo_gap> 
9.225 
 
>  <logP> 
1.127 
 
>  <lumo_energy> 
1.867 
 
>  <melting_point> 
-20.84 
 
>  <molecular_refractivity> 
26.62 
 
>  <oscillator_strength_1> 
0.0408 
 
>  <oscillator_strength_2> 
0.0067 
 
>  <oscillator_strength_3> 
0.0291 
 
>  <oscillator_strength_4> 
0.0184 
 
>  <open_babel_can_smiles> 
CCO[P@@H](=O)C 
 
>  <mulliken_charges> 
15 
1   -0.451295 
2   -0.657406 
3   -0.041191 
4   -0.560944 
5   -0.535224 
6   0.926482 
7   0.150323 
8   0.160232 
9   0.167912 
10   0.193886 
11   0.183914 
12   0.1921 
13   0.140011 
14   0.176438 
15   -0.045237 
 
>  <lowdin_charges> 
15 
1   -0.44748 
2   -0.646656 
3   -0.122669 
4   -0.609973 
5   -0.42239 
6   0.920368 
7   0.158158 
8   0.15944 
9   0.161966 
10   0.187249 
11   0.183886 
12   0.184713 
13   0.139215 
14   0.16259 
15   -0.008417 
 
$$$$ 
 
