PCCDB-ID:  15297 
public computational chemistry database (PCCDB) project, http://pccdb.org 
 
 30 29  0  0  1  0  0  0  0  0999 V2000 
    2.6377   -1.0280    1.1374 C   0  0  0  0  0  0  0  0  0  0  0  0 
   -0.5736    3.4013    3.4673 C   0  0  0  0  0  0  0  0  0  0  0  0 
    1.5933    2.4776    4.3733 C   0  0  0  0  0  0  0  0  0  0  0  0 
    2.0278    2.1199   -1.1286 C   0  0  0  0  0  0  0  0  0  0  0  0 
    2.0612   -0.1107    0.0544 C   0  0  0  0  0  0  0  0  0  0  0  0 
    1.0249    2.2413    1.8855 C   0  0  0  0  0  0  0  0  0  0  0  0 
    2.4639    2.0664    1.3813 C   0  0  0  0  0  0  0  0  0  0  0  0 
    0.9019    3.1101    3.1556 C   0  0  0  0  0  0  0  0  0  0  0  0 
    2.6340    1.3262    0.0393 C   0  0  2  0  0  0  0  0  0  0  0  0 
    4.0650    1.2716   -0.1317 O   0  0  0  0  0  0  0  0  0  0  0  0 
    2.3023   -2.0607    0.9897 H   0  0  0  0  0  0  0  0  0  0  0  0 
    2.3240   -0.7217    2.1415 H   0  0  0  0  0  0  0  0  0  0  0  0 
    3.7317   -1.0140    1.1097 H   0  0  0  0  0  0  0  0  0  0  0  0 
   -0.6739    4.0501    4.3455 H   0  0  0  0  0  0  0  0  0  0  0  0 
   -1.1212    2.4729    3.6772 H   0  0  0  0  0  0  0  0  0  0  0  0 
   -1.0709    3.8975    2.6251 H   0  0  0  0  0  0  0  0  0  0  0  0 
    1.4853    3.1149    5.2590 H   0  0  0  0  0  0  0  0  0  0  0  0 
    2.6645    2.3240    4.2064 H   0  0  0  0  0  0  0  0  0  0  0  0 
    1.1475    1.5023    4.6108 H   0  0  0  0  0  0  0  0  0  0  0  0 
    0.9385    2.2037   -1.0504 H   0  0  0  0  0  0  0  0  0  0  0  0 
    2.2479    1.6244   -2.0838 H   0  0  0  0  0  0  0  0  0  0  0  0 
    2.4534    3.1284   -1.1642 H   0  0  0  0  0  0  0  0  0  0  0  0 
    0.9679   -0.0643    0.1415 H   0  0  0  0  0  0  0  0  0  0  0  0 
    2.2602   -0.5526   -0.9342 H   0  0  0  0  0  0  0  0  0  0  0  0 
    0.5714    1.2594    2.0872 H   0  0  0  0  0  0  0  0  0  0  0  0 
    0.4130    2.7033    1.0987 H   0  0  0  0  0  0  0  0  0  0  0  0 
    3.0648    1.5333    2.1258 H   0  0  0  0  0  0  0  0  0  0  0  0 
    2.9336    3.0526    1.2657 H   0  0  0  0  0  0  0  0  0  0  0  0 
    1.3973    4.0713    2.9475 H   0  0  0  0  0  0  0  0  0  0  0  0 
    4.2361    0.8540   -0.9916 H   0  0  0  0  0  0  0  0  0  0  0  0 
  1 12  1  0  0  0  0 
  2 15  1  0  0  0  0 
  2 14  1  0  0  0  0 
  3 19  1  0  0  0  0 
  3 17  1  0  0  0  0 
  4 20  1  0  0  0  0 
  4  9  1  0  0  0  0 
  5 23  1  0  0  0  0 
  5  1  1  0  0  0  0 
  6 25  1  0  0  0  0 
  6  8  1  0  0  0  0 
  7  6  1  0  0  0  0 
  7 27  1  0  0  0  0 
  8  2  1  0  0  0  0 
  8  3  1  0  0  0  0 
  9 10  1  6  0  0  0 
  9  5  1  0  0  0  0 
  9  7  1  0  0  0  0 
 11  1  1  0  0  0  0 
 13  1  1  0  0  0  0 
 16  2  1  0  0  0  0 
 18  3  1  0  0  0  0 
 21  4  1  0  0  0  0 
 22  4  1  0  0  0  0 
 24  5  1  0  0  0  0 
 26  6  1  0  0  0  0 
 28  7  1  0  0  0  0 
 29  8  1  0  0  0  0 
 30 10  1  0  0  0  0 
M  END 
>  <HBA> 
1 
 
>  <HBD> 
1 
 
>  <TPSA> 
20.23 
 
>  <cid> 
15297 
 
>  <dipole> 
1.38 
 
>  <excitation_energy_1> 
6.364 
 
>  <excitation_energy_2> 
7.058 
 
>  <excitation_energy_3> 
7.224 
 
>  <excitation_energy_4> 
7.324 
 
>  <homo_energy> 
-7.042 
 
>  <homo_lumo_gap> 
8.885 
 
>  <logP> 
2.584 
 
>  <lumo_energy> 
1.842 
 
>  <melting_point> 
1.09 
 
>  <molecular_refractivity> 
46.58 
 
>  <oscillator_strength_1> 
0.012 
 
>  <oscillator_strength_2> 
0.0009 
 
>  <oscillator_strength_3> 
0.0064 
 
>  <oscillator_strength_4> 
0.0112 
 
>  <open_babel_can_smiles> 
CC[C@@](CCC(C)C)(O)C 
 
>  <mulliken_charges> 
30 
1   -0.45084 
2   -0.442916 
3   -0.446952 
4   -0.463114 
5   -0.265145 
6   -0.26208 
7   -0.274186 
8   -0.065017 
9   0.310096 
10   -0.643837 
11   0.138232 
12   0.146321 
13   0.158841 
14   0.139614 
15   0.137524 
16   0.138183 
17   0.139817 
18   0.149497 
19   0.13646 
20   0.145366 
21   0.127081 
22   0.152712 
23   0.134037 
24   0.114279 
25   0.128597 
26   0.127813 
27   0.151028 
28   0.136672 
29   0.121404 
30   0.380513 
 
>  <lowdin_charges> 
30 
1   -0.446329 
2   -0.446141 
3   -0.445675 
4   -0.455071 
5   -0.286519 
6   -0.2804 
7   -0.282892 
8   -0.118299 
9   0.121423 
10   -0.465308 
11   0.14792 
12   0.147273 
13   0.153783 
14   0.148021 
15   0.144982 
16   0.147223 
17   0.148633 
18   0.149167 
19   0.143936 
20   0.149869 
21   0.142736 
22   0.154717 
23   0.142461 
24   0.134329 
25   0.137737 
26   0.140979 
27   0.153712 
28   0.147087 
29   0.134817 
30   0.335828 
 
$$$$ 
 
