PCCDB-ID:  14289 
public computational chemistry database (PCCDB) project, http://pccdb.org 
 
 20 20  0  0  0  0  0  0  0  0999 V2000 
    0.7196    1.1695   -1.2092 C   0  0  0  0  0  0  0  0  0  0  0  0 
    1.5367    0.1875   -0.3549 C   0  0  0  0  0  0  0  0  0  0  0  0 
   -0.6666    1.4282   -0.5970 C   0  0  0  0  0  0  0  0  0  0  0  0 
    0.7735   -1.1252   -0.1236 C   0  0  0  0  0  0  0  0  0  0  0  0 
   -1.4310    0.1160   -0.3676 C   0  0  0  0  0  0  0  0  0  0  0  0 
   -0.5735   -0.3136    3.0143 C   0  0  0  0  0  0  0  0  0  0  0  0 
   -0.6224   -0.8818    0.4876 C   0  0  0  0  0  0  0  0  0  0  0  0 
   -0.4903   -0.3879    1.8327 N   0  0  0  0  0  0  0  0  0  0  0  0 
   -0.6438   -0.1372    4.6023 S   0  0  0  0  0  0  0  0  0  0  0  0 
    0.5953    0.7524   -2.2200 H   0  0  0  0  0  0  0  0  0  0  0  0 
    1.2640    2.1144   -1.3264 H   0  0  0  0  0  0  0  0  0  0  0  0 
    1.7628    0.6469    0.6166 H   0  0  0  0  0  0  0  0  0  0  0  0 
    2.5004   -0.0260   -0.8330 H   0  0  0  0  0  0  0  0  0  0  0  0 
   -1.2549    2.0870   -1.2472 H   0  0  0  0  0  0  0  0  0  0  0  0 
   -0.5550    1.9508    0.3624 H   0  0  0  0  0  0  0  0  0  0  0  0 
    1.3425   -1.8015    0.5243 H   0  0  0  0  0  0  0  0  0  0  0  0 
    0.6251   -1.6434   -1.0809 H   0  0  0  0  0  0  0  0  0  0  0  0 
   -1.6291   -0.3717   -1.3320 H   0  0  0  0  0  0  0  0  0  0  0  0 
   -2.4016    0.3013    0.1062 H   0  0  0  0  0  0  0  0  0  0  0  0 
   -1.1650   -1.8349    0.5444 H   0  0  0  0  0  0  0  0  0  0  0  0 
  1  3  1  0  0  0  0 
  1  2  1  0  0  0  0 
  2  4  1  0  0  0  0 
  2 12  1  0  0  0  0 
  3  5  1  0  0  0  0 
  3 15  1  0  0  0  0 
  4  7  1  0  0  0  0 
  4 16  1  0  0  0  0 
  5 19  1  0  0  0  0 
  5  7  1  0  0  0  0 
  6  9  2  0  0  0  0 
  7 20  1  0  0  0  0 
  7  8  1  0  0  0  0 
  8  6  2  0  0  0  0 
 10  1  1  0  0  0  0 
 11  1  1  0  0  0  0 
 13  2  1  0  0  0  0 
 14  3  1  0  0  0  0 
 17  4  1  0  0  0  0 
 18  5  1  0  0  0  0 
M  END 
>  <HBA> 
2 
 
>  <HBD> 
0 
 
>  <TPSA> 
44.45 
 
>  <cid> 
14289 
 
>  <dipole> 
4.32 
 
>  <excitation_energy_1> 
4.887 
 
>  <excitation_energy_2> 
5.242 
 
>  <excitation_energy_3> 
5.477 
 
>  <excitation_energy_4> 
5.807 
 
>  <homo_energy> 
-6.468 
 
>  <homo_lumo_gap> 
6.49 
 
>  <logP> 
2.422 
 
>  <lumo_energy> 
0.022 
 
>  <melting_point> 
44.76 
 
>  <molecular_refractivity> 
42.81 
 
>  <oscillator_strength_1> 
0.0 
 
>  <oscillator_strength_2> 
0.0142 
 
>  <oscillator_strength_3> 
0.0002 
 
>  <oscillator_strength_4> 
0.011 
 
>  <open_babel_can_smiles> 
S=C=NC1CCCCC1 
 
>  <mulliken_charges> 
20 
1   -0.261502 
2   -0.265232 
3   -0.265723 
4   -0.263353 
5   -0.262819 
6   0.178609 
7   -0.010879 
8   -0.300039 
9   -0.153703 
10   0.128986 
11   0.139859 
12   0.152118 
13   0.140054 
14   0.140095 
15   0.152255 
16   0.152924 
17   0.141073 
18   0.140995 
19   0.152833 
20   0.163447 
 
>  <lowdin_charges> 
20 
1   -0.277439 
2   -0.279866 
3   -0.281857 
4   -0.280458 
5   -0.278661 
6   -0.052803 
7   -0.036577 
8   -0.089743 
9   -0.074545 
10   0.137051 
11   0.148667 
12   0.149106 
13   0.149183 
14   0.150901 
15   0.149193 
16   0.156597 
17   0.148238 
18   0.148257 
19   0.15477 
20   0.159988 
 
$$$$ 
 
