PCCDB-ID:  25071 
public computational chemistry database (PCCDB) project, http://pccdb.org 
 
 28 28  0  0  0  0  0  0  0  0999 V2000 
    0.8530   -0.3757    0.1293 C   0  0  0  0  0  0  0  0  0  0  0  0 
    2.6984   -4.1960    0.8088 C   0  0  0  0  0  0  0  0  0  0  0  0 
    6.8601    3.9799    0.9919 C   0  0  0  0  0  0  0  0  0  0  0  0 
    5.0798   -0.6280    1.0006 C   0  0  0  0  0  0  0  0  0  0  0  0 
    4.2995   -1.7836    0.9958 C   0  0  0  0  0  0  0  0  0  0  0  0 
    3.1306    0.6698    0.4166 C   0  0  0  0  0  0  0  0  0  0  0  0 
    2.3309   -0.4714    0.4185 C   0  0  0  0  0  0  0  0  0  0  0  0 
    4.4913    0.5919    0.7011 C   0  0  0  0  0  0  0  0  0  0  0  0 
    2.9247   -1.7273    0.7095 C   0  0  0  0  0  0  0  0  0  0  0  0 
    6.0342    2.1694   -0.2462 C   0  0  0  0  0  0  0  0  0  0  0  0 
    2.1203   -2.8665    0.7496 N   0  0  0  0  0  0  0  0  0  0  0  0 
    6.8016    3.1743   -0.2183 N   0  0  0  0  0  0  0  0  0  0  0  0 
    5.9350    1.3775   -1.3386 O   0  0  0  0  0  0  0  0  0  0  0  0 
    5.2351    1.7795    0.7785 O   0  0  0  0  0  0  0  0  0  0  0  0 
    0.5460    0.6656   -0.0028 H   0  0  0  0  0  0  0  0  0  0  0  0 
    0.2554   -0.8023    0.9459 H   0  0  0  0  0  0  0  0  0  0  0  0 
    0.5732   -0.9131   -0.7898 H   0  0  0  0  0  0  0  0  0  0  0  0 
    1.8903   -4.9302    0.7542 H   0  0  0  0  0  0  0  0  0  0  0  0 
    3.2165   -4.3453    1.7630 H   0  0  0  0  0  0  0  0  0  0  0  0 
    3.4148   -4.4023   -0.0035 H   0  0  0  0  0  0  0  0  0  0  0  0 
    7.7787    4.5743    0.9755 H   0  0  0  0  0  0  0  0  0  0  0  0 
    6.8486    3.3790    1.9113 H   0  0  0  0  0  0  0  0  0  0  0  0 
    6.0128    4.6779    1.0452 H   0  0  0  0  0  0  0  0  0  0  0  0 
    6.1397   -0.6772    1.2298 H   0  0  0  0  0  0  0  0  0  0  0  0 
    4.7693   -2.7346    1.2206 H   0  0  0  0  0  0  0  0  0  0  0  0 
    2.6928    1.6398    0.1986 H   0  0  0  0  0  0  0  0  0  0  0  0 
    1.2937   -2.8061    0.1717 H   0  0  0  0  0  0  0  0  0  0  0  0 
    6.5524    1.7716   -1.9799 H   0  0  0  0  0  0  0  0  0  0  0  0 
  1  7  1  0  0  0  0 
  1 16  1  0  0  0  0 
  2 19  1  0  0  0  0 
  3 23  1  0  0  0  0 
  3 22  1  0  0  0  0 
  4 24  1  0  0  0  0 
  5  4  1  0  0  0  0 
  5 25  1  0  0  0  0 
  6  7  2  0  0  0  0 
  6  8  1  0  0  0  0 
  7  9  1  0  0  0  0 
  8 14  1  0  0  0  0 
  8  4  2  0  0  0  0 
  9 11  1  0  0  0  0 
  9  5  2  0  0  0  0 
 10 12  2  0  0  0  0 
 10 14  1  0  0  0  0 
 11  2  1  0  0  0  0 
 12  3  1  0  0  0  0 
 13 10  1  0  0  0  0 
 15  1  1  0  0  0  0 
 17  1  1  0  0  0  0 
 18  2  1  0  0  0  0 
 20  2  1  0  0  0  0 
 21  3  1  0  0  0  0 
 26  6  1  0  0  0  0 
 27 11  1  0  0  0  0 
 28 13  1  0  0  0  0 
M  END 
>  <HBA> 
4 
 
>  <HBD> 
2 
 
>  <TPSA> 
50.36 
 
>  <cid> 
25071 
 
>  <dipole> 
3.58 
 
>  <excitation_energy_1> 
4.553 
 
>  <excitation_energy_2> 
4.587 
 
>  <excitation_energy_3> 
5.039 
 
>  <excitation_energy_4> 
5.129 
 
>  <homo_energy> 
-5.255 
 
>  <homo_lumo_gap> 
5.344 
 
>  <logP> 
2.219 
 
>  <lumo_energy> 
0.09 
 
>  <melting_point> 
107.06 
 
>  <molecular_refractivity> 
55.4 
 
>  <oscillator_strength_1> 
0.0488 
 
>  <oscillator_strength_2> 
0.0042 
 
>  <oscillator_strength_3> 
0.0116 
 
>  <oscillator_strength_4> 
0.0585 
 
>  <open_babel_can_smiles> 
C/N=C(\Oc1ccc(c(c1)C)NC)/O 
 
>  <mulliken_charges> 
28 
1   -0.555924 
2   -0.304789 
3   -0.315233 
4   -0.160216 
5   -0.196873 
6   -0.229687 
7   0.142073 
8   0.360048 
9   0.295879 
10   0.706354 
11   -0.645932 
12   -0.49021 
13   -0.593055 
14   -0.545006 
15   0.164346 
16   0.167854 
17   0.151389 
18   0.155482 
19   0.16632 
20   0.148439 
21   0.149066 
22   0.147849 
23   0.147747 
24   0.134877 
25   0.128669 
26   0.130027 
27   0.319558 
28   0.420948 
 
>  <lowdin_charges> 
28 
1   -0.445978 
2   -0.355147 
3   -0.35343 
4   -0.160084 
5   -0.200956 
6   -0.170852 
7   -0.028893 
8   0.077446 
9   0.046321 
10   0.189218 
11   -0.300447 
12   -0.274725 
13   -0.36276 
14   -0.163011 
15   0.162077 
16   0.16127 
17   0.151287 
18   0.158776 
19   0.154741 
20   0.139086 
21   0.149516 
22   0.143168 
23   0.146746 
24   0.164066 
25   0.160921 
26   0.163574 
27   0.275739 
28   0.372333 
 
$$$$ 
 
