PCCDB-ID:  7705 
public computational chemistry database (PCCDB) project, http://pccdb.org 
 
 24 24  0  0  0  0  0  0  0  0999 V2000 
    0.2762   -2.1403   -0.6410 C   0  0  0  0  0  0  0  0  0  0  0  0 
    1.7114   -2.6274   -0.8658 C   0  0  0  0  0  0  0  0  0  0  0  0 
    2.6496   -2.2757    0.2949 C   0  0  0  0  0  0  0  0  0  0  0  0 
    4.5488   -7.0648    0.0488 C   0  0  0  0  0  0  0  0  0  0  0  0 
    4.6472   -6.3362   -1.1367 C   0  0  0  0  0  0  0  0  0  0  0  0 
    4.3139   -6.3928    1.2506 C   0  0  0  0  0  0  0  0  0  0  0  0 
    4.1065   -2.7517    0.1031 C   0  0  0  0  0  0  0  0  0  0  0  0 
    4.5095   -4.9464   -1.1188 C   0  0  0  0  0  0  0  0  0  0  0  0 
    4.1782   -5.0049    1.2621 C   0  0  0  0  0  0  0  0  0  0  0  0 
    4.2713   -4.2583    0.0780 C   0  0  0  0  0  0  0  0  0  0  0  0 
   -0.3686   -2.3915   -1.4909 H   0  0  0  0  0  0  0  0  0  0  0  0 
    0.2410   -1.0519   -0.5067 H   0  0  0  0  0  0  0  0  0  0  0  0 
   -0.1614   -2.5977    0.2550 H   0  0  0  0  0  0  0  0  0  0  0  0 
    2.1062   -2.1882   -1.7936 H   0  0  0  0  0  0  0  0  0  0  0  0 
    1.7105   -3.7141   -1.0189 H   0  0  0  0  0  0  0  0  0  0  0  0 
    2.2505   -2.7013    1.2267 H   0  0  0  0  0  0  0  0  0  0  0  0 
    2.6567   -1.1852    0.4349 H   0  0  0  0  0  0  0  0  0  0  0  0 
    4.6580   -8.1460    0.0385 H   0  0  0  0  0  0  0  0  0  0  0  0 
    4.8343   -6.8473   -2.0777 H   0  0  0  0  0  0  0  0  0  0  0  0 
    4.2414   -6.9501    2.1812 H   0  0  0  0  0  0  0  0  0  0  0  0 
    4.7166   -2.3357    0.9160 H   0  0  0  0  0  0  0  0  0  0  0  0 
    4.5013   -2.3257   -0.8287 H   0  0  0  0  0  0  0  0  0  0  0  0 
    4.5928   -4.3857   -2.0473 H   0  0  0  0  0  0  0  0  0  0  0  0 
    4.0029   -4.4902    2.2049 H   0  0  0  0  0  0  0  0  0  0  0  0 
  1 12  1  0  0  0  0 
  1 13  1  0  0  0  0 
  2  1  1  0  0  0  0 
  2  3  1  0  0  0  0 
  3 17  1  0  0  0  0 
  3 16  1  0  0  0  0 
  4  6  2  0  0  0  0 
  5  8  2  0  0  0  0 
  5  4  1  0  0  0  0 
  6  9  1  0  0  0  0 
  6 20  1  0  0  0  0 
  7  3  1  0  0  0  0 
  7 21  1  0  0  0  0 
  8 10  1  0  0  0  0 
  9 24  1  0  0  0  0 
 10  7  1  0  0  0  0 
 10  9  2  0  0  0  0 
 11  1  1  0  0  0  0 
 14  2  1  0  0  0  0 
 15  2  1  0  0  0  0 
 18  4  1  0  0  0  0 
 19  5  1  0  0  0  0 
 22  7  1  0  0  0  0 
 23  8  1  0  0  0  0 
M  END 
>  <HBA> 
0 
 
>  <HBD> 
0 
 
>  <TPSA> 
0.0 
 
>  <cid> 
7705 
 
>  <dipole> 
0.22 
 
>  <excitation_energy_1> 
5.282 
 
>  <excitation_energy_2> 
5.819 
 
>  <excitation_energy_3> 
6.023 
 
>  <excitation_energy_4> 
6.2 
 
>  <homo_energy> 
-6.403 
 
>  <homo_lumo_gap> 
6.495 
 
>  <logP> 
3.029 
 
>  <lumo_energy> 
0.093 
 
>  <melting_point> 
5.16 
 
>  <molecular_refractivity> 
45.83 
 
>  <oscillator_strength_1> 
0.0011 
 
>  <oscillator_strength_2> 
0.0483 
 
>  <oscillator_strength_3> 
0.0022 
 
>  <oscillator_strength_4> 
0.0086 
 
>  <open_babel_can_smiles> 
CCCCc1ccccc1 
 
>  <mulliken_charges> 
24 
1   -0.441755 
2   -0.248655 
3   -0.243877 
4   -0.132644 
5   -0.12678 
6   -0.127495 
7   -0.351108 
8   -0.186204 
9   -0.181094 
10   0.17877 
11   0.141952 
12   0.139666 
13   0.142244 
14   0.12587 
15   0.146197 
16   0.132805 
17   0.128625 
18   0.126413 
19   0.126791 
20   0.126744 
21   0.142582 
22   0.137408 
23   0.121801 
24   0.121744 
 
>  <lowdin_charges> 
24 
1   -0.44324 
2   -0.274369 
3   -0.269747 
4   -0.159995 
5   -0.15664 
6   -0.156051 
7   -0.276249 
8   -0.170394 
9   -0.167796 
10   0.000283 
11   0.15007 
12   0.143107 
13   0.147198 
14   0.137014 
15   0.145354 
16   0.140222 
17   0.137957 
18   0.154191 
19   0.156436 
20   0.156352 
21   0.152429 
22   0.146476 
23   0.153901 
24   0.15349 
 
$$$$ 
 
