PCCDB-ID:  50654 
public computational chemistry database (PCCDB) project, http://pccdb.org 
 
 27 28  0  0  0  0  0  0  0  0999 V2000 
   -1.1892    1.5546   -1.9282 C   0  0  0  0  0  0  0  0  0  0  0  0 
    0.7455    0.9249   -0.6288 C   0  0  0  0  0  0  0  0  0  0  0  0 
   -1.8547    0.4042   -1.5272 C   0  0  0  0  0  0  0  0  0  0  0  0 
    0.0949   -0.2218   -0.2170 C   0  0  0  0  0  0  0  0  0  0  0  0 
   -3.4056   -3.4468   -0.7124 C   0  0  0  0  0  0  0  0  0  0  0  0 
   -4.2434   -1.2487   -0.1816 C   0  0  0  0  0  0  0  0  0  0  0  0 
   -4.7117   -3.9209   -0.8219 C   0  0  0  0  0  0  0  0  0  0  0  0 
   -5.5476   -1.7110   -0.3178 C   0  0  0  0  0  0  0  0  0  0  0  0 
    0.7979    3.0626   -1.9247 C   0  0  0  0  0  0  0  0  0  0  0  0 
    0.1118    1.8399   -1.4896 C   0  0  0  0  0  0  0  0  0  0  0  0 
   -1.2218   -0.5055   -0.6544 C   0  0  0  0  0  0  0  0  0  0  0  0 
   -3.1519   -2.1075   -0.3918 C   0  0  0  0  0  0  0  0  0  0  0  0 
   -5.7905   -3.0517   -0.6365 C   0  0  0  0  0  0  0  0  0  0  0  0 
   -1.8161   -1.6782   -0.2233 N   0  0  0  0  0  0  0  0  0  0  0  0 
    1.9277    3.3885   -1.5990 O   0  0  0  0  0  0  0  0  0  0  0  0 
   -7.0953   -3.4481   -0.7462 O   0  0  0  0  0  0  0  0  0  0  0  0 
   -1.6855    2.2462   -2.6066 H   0  0  0  0  0  0  0  0  0  0  0  0 
    1.7544    1.1445   -0.2925 H   0  0  0  0  0  0  0  0  0  0  0  0 
   -2.8493    0.1929   -1.9020 H   0  0  0  0  0  0  0  0  0  0  0  0 
    0.5900   -0.9184    0.4568 H   0  0  0  0  0  0  0  0  0  0  0  0 
   -2.5726   -4.1241   -0.8839 H   0  0  0  0  0  0  0  0  0  0  0  0 
   -4.0677   -0.2176    0.1064 H   0  0  0  0  0  0  0  0  0  0  0  0 
   -4.8881   -4.9668   -1.0664 H   0  0  0  0  0  0  0  0  0  0  0  0 
   -6.3921   -1.0480   -0.1589 H   0  0  0  0  0  0  0  0  0  0  0  0 
    0.1983    3.7098   -2.6054 H   0  0  0  0  0  0  0  0  0  0  0  0 
   -1.1906   -2.3510    0.1976 H   0  0  0  0  0  0  0  0  0  0  0  0 
   -7.1223   -4.3912   -0.9700 H   0  0  0  0  0  0  0  0  0  0  0  0 
  1  3  2  0  0  0  0 
  1 10  1  0  0  0  0 
  2 18  1  0  0  0  0 
  2  4  1  0  0  0  0 
  3 11  1  0  0  0  0 
  4 20  1  0  0  0  0 
  5 12  1  0  0  0  0 
  6 22  1  0  0  0  0 
  7  5  2  0  0  0  0 
  7 13  1  0  0  0  0 
  8  6  1  0  0  0  0 
  8 24  1  0  0  0  0 
  9 15  2  0  0  0  0 
  9 10  1  0  0  0  0 
 10  2  2  0  0  0  0 
 11 14  1  0  0  0  0 
 11  4  2  0  0  0  0 
 12 14  1  0  0  0  0 
 12  6  2  0  0  0  0 
 13  8  2  0  0  0  0 
 14 26  1  0  0  0  0 
 16 13  1  0  0  0  0 
 17  1  1  0  0  0  0 
 19  3  1  0  0  0  0 
 21  5  1  0  0  0  0 
 23  7  1  0  0  0  0 
 25  9  1  0  0  0  0 
 27 16  1  0  0  0  0 
M  END 
>  <HBA> 
2 
 
>  <HBD> 
2 
 
>  <TPSA> 
49.33 
 
>  <cid> 
50654 
 
>  <dipole> 
6.37 
 
>  <excitation_energy_1> 
3.738 
 
>  <excitation_energy_2> 
3.796 
 
>  <excitation_energy_3> 
4.104 
 
>  <excitation_energy_4> 
4.325 
 
>  <homo_energy> 
-5.361 
 
>  <homo_lumo_gap> 
4.12 
 
>  <logP> 
3.021 
 
>  <lumo_energy> 
-1.241 
 
>  <melting_point> 
153.19 
 
>  <molecular_refractivity> 
63.4 
 
>  <oscillator_strength_1> 
0.5495 
 
>  <oscillator_strength_2> 
0.0559 
 
>  <oscillator_strength_3> 
0.0361 
 
>  <oscillator_strength_4> 
0.0127 
 
>  <open_babel_can_smiles> 
O=Cc1ccc(cc1)Nc1ccc(cc1)O 
 
>  <mulliken_charges> 
27 
1   -0.19341 
2   -0.164157 
3   -0.186101 
4   -0.196074 
5   -0.18083 
6   -0.1658 
7   -0.199374 
8   -0.170787 
9   0.182555 
10   0.098807 
11   0.384473 
12   0.334411 
13   0.354158 
14   -0.787916 
15   -0.426875 
16   -0.64222 
17   0.137692 
18   0.160717 
19   0.147791 
20   0.125899 
21   0.132691 
22   0.152899 
23   0.125352 
24   0.148034 
25   0.090856 
26   0.328505 
27   0.408706 
 
>  <lowdin_charges> 
27 
1   -0.130521 
2   -0.114015 
3   -0.206715 
4   -0.198454 
5   -0.171431 
6   -0.163071 
7   -0.203227 
8   -0.177769 
9   0.035068 
10   -0.082751 
11   0.079949 
12   0.030374 
13   0.096957 
14   -0.24661 
15   -0.249403 
16   -0.376081 
17   0.162292 
18   0.174514 
19   0.167776 
20   0.156482 
21   0.160931 
22   0.169281 
23   0.155534 
24   0.172328 
25   0.113007 
26   0.288551 
27   0.357006 
 
$$$$ 
 
