PCCDB-ID:  65413 
public computational chemistry database (PCCDB) project, http://pccdb.org 
 
 25 24  0  0  1  0  0  0  0  0999 V2000 
    0.9324   -0.4546    2.3511 C   0  0  0  0  0  0  0  0  0  0  0  0 
    4.5241    3.0543    3.5848 C   0  0  0  0  0  0  0  0  0  0  0  0 
    2.4541   -0.2755    2.3783 C   0  0  0  0  0  0  0  0  0  0  0  0 
    2.9239    0.9116    1.5295 C   0  0  0  0  0  0  0  0  0  0  0  0 
    4.8397    2.1524    0.3988 C   0  0  0  0  0  0  0  0  0  0  0  0 
    6.3406    2.2814    0.1250 C   0  0  0  0  0  0  0  0  0  0  0  0 
    4.4496    1.1106    1.4614 C   0  0  1  0  0  0  0  0  0  0  0  0 
    6.6193    3.2426   -0.8883 O   0  0  0  0  0  0  0  0  0  0  0  0 
    5.2270    1.4318    3.1195 S   0  0  0  0  0  0  0  0  0  0  0  0 
    0.6229   -1.3112    2.9604 H   0  0  0  0  0  0  0  0  0  0  0  0 
    0.5663   -0.6226    1.3305 H   0  0  0  0  0  0  0  0  0  0  0  0 
    0.4206    0.4332    2.7431 H   0  0  0  0  0  0  0  0  0  0  0  0 
    4.9555    3.2986    4.5593 H   0  0  0  0  0  0  0  0  0  0  0  0 
    3.4360    3.0167    3.6876 H   0  0  0  0  0  0  0  0  0  0  0  0 
    4.8016    3.8408    2.8777 H   0  0  0  0  0  0  0  0  0  0  0  0 
    2.9380   -1.1927    2.0125 H   0  0  0  0  0  0  0  0  0  0  0  0 
    2.7950   -0.1433    3.4115 H   0  0  0  0  0  0  0  0  0  0  0  0 
    2.4485    1.8354    1.8883 H   0  0  0  0  0  0  0  0  0  0  0  0 
    2.5632    0.7753    0.4986 H   0  0  0  0  0  0  0  0  0  0  0  0 
    4.3394    1.8687   -0.5411 H   0  0  0  0  0  0  0  0  0  0  0  0 
    4.4436    3.1411    0.6629 H   0  0  0  0  0  0  0  0  0  0  0  0 
    6.7625    1.2950   -0.1322 H   0  0  0  0  0  0  0  0  0  0  0  0 
    6.8652    2.6312    1.0171 H   0  0  0  0  0  0  0  0  0  0  0  0 
    4.9098    0.1496    1.1909 H   0  0  0  0  0  0  0  0  0  0  0  0 
    6.2117    2.9280   -1.7102 H   0  0  0  0  0  0  0  0  0  0  0  0 
  1  3  1  0  0  0  0 
  1 12  1  0  0  0  0 
  1 10  1  0  0  0  0 
  2 14  1  0  0  0  0 
  2 13  1  0  0  0  0 
  3 17  1  0  0  0  0 
  4 18  1  0  0  0  0 
  4  3  1  0  0  0  0 
  5 21  1  0  0  0  0 
  5  7  1  0  0  0  0 
  6  5  1  0  0  0  0 
  6 23  1  0  0  0  0 
  7 24  1  6  0  0  0 
  7  4  1  0  0  0  0 
  7  9  1  0  0  0  0 
  8  6  1  0  0  0  0 
  9  2  1  0  0  0  0 
 11  1  1  0  0  0  0 
 15  2  1  0  0  0  0 
 16  3  1  0  0  0  0 
 19  4  1  0  0  0  0 
 20  5  1  0  0  0  0 
 22  6  1  0  0  0  0 
 25  8  1  0  0  0  0 
M  END 
>  <HBA> 
2 
 
>  <HBD> 
1 
 
>  <TPSA> 
45.53 
 
>  <cid> 
65413 
 
>  <dipole> 
2.32 
 
>  <excitation_energy_1> 
5.023 
 
>  <excitation_energy_2> 
5.467 
 
>  <excitation_energy_3> 
5.74 
 
>  <excitation_energy_4> 
5.904 
 
>  <homo_energy> 
-5.927 
 
>  <homo_lumo_gap> 
7.056 
 
>  <logP> 
1.901 
 
>  <lumo_energy> 
1.129 
 
>  <melting_point> 
0.36 
 
>  <molecular_refractivity> 
44.52 
 
>  <oscillator_strength_1> 
0.0009 
 
>  <oscillator_strength_2> 
0.0071 
 
>  <oscillator_strength_3> 
0.0163 
 
>  <oscillator_strength_4> 
0.0113 
 
>  <open_babel_can_smiles> 
CCC[C@@H](CCO)SC 
 
>  <mulliken_charges> 
25 
1   -0.443321 
2   -0.591195 
3   -0.253039 
4   -0.247311 
5   -0.280176 
6   -0.031589 
7   -0.252801 
8   -0.615839 
9   0.075422 
10   0.145433 
11   0.139554 
12   0.140769 
13   0.185544 
14   0.177886 
15   0.182719 
16   0.128961 
17   0.161473 
18   0.135571 
19   0.133226 
20   0.124648 
21   0.151107 
22   0.116938 
23   0.172111 
24   0.159562 
25   0.384348 
 
>  <lowdin_charges> 
25 
1   -0.444836 
2   -0.548793 
3   -0.275159 
4   -0.277419 
5   -0.298137 
6   -0.138143 
7   -0.221201 
8   -0.467804 
9   0.083833 
10   0.152006 
11   0.14416 
12   0.146555 
13   0.177919 
14   0.158668 
15   0.16365 
16   0.139403 
17   0.153241 
18   0.141636 
19   0.141628 
20   0.139103 
21   0.149043 
22   0.123903 
23   0.159219 
24   0.158281 
25   0.339242 
 
$$$$ 
 
