PCCDB-ID:  32485 
public computational chemistry database (PCCDB) project, http://pccdb.org 
 
 23 23  0  0  0  0  0  0  0  0999 V2000 
    3.3750   -0.5685    1.3361 C   0  0  0  0  0  0  0  0  0  0  0  0 
    2.6996    5.0163    0.8933 C   0  0  0  0  0  0  0  0  0  0  0  0 
    2.4571   -0.0219    0.2260 C   0  0  0  0  0  0  0  0  0  0  0  0 
    3.9176    2.7642   -1.9378 C   0  0  0  0  0  0  0  0  0  0  0  0 
    3.6468    3.8905   -1.1628 C   0  0  0  0  0  0  0  0  0  0  0  0 
    3.5146    1.5132   -1.4756 C   0  0  0  0  0  0  0  0  0  0  0  0 
    2.9773    3.7892    0.0586 C   0  0  0  0  0  0  0  0  0  0  0  0 
    2.8442    1.3613   -0.2580 C   0  0  0  0  0  0  0  0  0  0  0  0 
    2.5690    2.5144    0.5123 C   0  0  0  0  0  0  0  0  0  0  0  0 
    1.9428    2.4024    1.7657 N   0  0  0  0  0  0  0  0  0  0  0  0 
    3.0583   -1.5707    1.6487 H   0  0  0  0  0  0  0  0  0  0  0  0 
    3.3692    0.0834    2.2158 H   0  0  0  0  0  0  0  0  0  0  0  0 
    4.4087   -0.6338    0.9798 H   0  0  0  0  0  0  0  0  0  0  0  0 
    3.1260    5.9099    0.4281 H   0  0  0  0  0  0  0  0  0  0  0  0 
    3.1264    4.9270    1.9013 H   0  0  0  0  0  0  0  0  0  0  0  0 
    1.6214    5.2024    1.0170 H   0  0  0  0  0  0  0  0  0  0  0  0 
    1.4142   -0.0308    0.5811 H   0  0  0  0  0  0  0  0  0  0  0  0 
    2.4766   -0.7112   -0.6265 H   0  0  0  0  0  0  0  0  0  0  0  0 
    4.4373    2.8601   -2.8869 H   0  0  0  0  0  0  0  0  0  0  0  0 
    3.9575    4.8745   -1.5075 H   0  0  0  0  0  0  0  0  0  0  0  0 
    3.7194    0.6253   -2.0704 H   0  0  0  0  0  0  0  0  0  0  0  0 
    1.4216    3.2237    2.0470 H   0  0  0  0  0  0  0  0  0  0  0  0 
    1.3812    1.5681    1.8819 H   0  0  0  0  0  0  0  0  0  0  0  0 
  1 11  1  0  0  0  0 
  1 12  1  0  0  0  0 
  2 16  1  0  0  0  0 
  2 15  1  0  0  0  0 
  3 17  1  0  0  0  0 
  3  1  1  0  0  0  0 
  4  6  2  0  0  0  0 
  4  5  1  0  0  0  0 
  5  7  2  0  0  0  0 
  6  8  1  0  0  0  0 
  7  9  1  0  0  0  0 
  7  2  1  0  0  0  0 
  8  3  1  0  0  0  0 
  8  9  2  0  0  0  0 
  9 10  1  0  0  0  0 
 10 23  1  0  0  0  0 
 10 22  1  0  0  0  0 
 13  1  1  0  0  0  0 
 14  2  1  0  0  0  0 
 18  3  1  0  0  0  0 
 19  4  1  0  0  0  0 
 20  5  1  0  0  0  0 
 21  6  1  0  0  0  0 
M  END 
>  <HBA> 
1 
 
>  <HBD> 
1 
 
>  <TPSA> 
26.02 
 
>  <cid> 
32485 
 
>  <dipole> 
1.67 
 
>  <excitation_energy_1> 
4.604 
 
>  <excitation_energy_2> 
4.795 
 
>  <excitation_energy_3> 
5.24 
 
>  <excitation_energy_4> 
5.289 
 
>  <homo_energy> 
-5.265 
 
>  <homo_lumo_gap> 
5.676 
 
>  <logP> 
2.721 
 
>  <lumo_energy> 
0.411 
 
>  <melting_point> 
61.48 
 
>  <molecular_refractivity> 
45.59 
 
>  <oscillator_strength_1> 
0.0199 
 
>  <oscillator_strength_2> 
0.0486 
 
>  <oscillator_strength_3> 
0.0035 
 
>  <oscillator_strength_4> 
0.0034 
 
>  <open_babel_can_smiles> 
CCc1cccc(c1N)C 
 
>  <mulliken_charges> 
23 
1   -0.439187 
2   -0.554862 
3   -0.361073 
4   -0.126071 
5   -0.204142 
6   -0.208662 
7   0.175267 
8   0.169146 
9   0.163811 
10   -0.796546 
11   0.138308 
12   0.162101 
13   0.15216 
14   0.158998 
15   0.166712 
16   0.14599 
17   0.126164 
18   0.145447 
19   0.116951 
20   0.114012 
21   0.114565 
22   0.320715 
23   0.320195 
 
>  <lowdin_charges> 
23 
1   -0.445098 
2   -0.443576 
3   -0.271707 
4   -0.184314 
5   -0.163744 
6   -0.165339 
7   -0.038938 
8   -0.04222 
9   0.042769 
10   -0.496553 
11   0.145989 
12   0.155752 
13   0.151823 
14   0.160827 
15   0.158445 
16   0.14636 
17   0.134346 
18   0.151506 
19   0.15302 
20   0.150715 
21   0.151502 
22   0.275093 
23   0.273341 
 
$$$$ 
 
