PCCDB-ID:  21009 
public computational chemistry database (PCCDB) project, http://pccdb.org 
 
 19 19  0  0  0  0  0  0  0  0999 V2000 
    2.2484    2.2985    0.5971 C   0  0  0  0  0  0  0  0  0  0  0  0 
    1.4166    3.3372   -4.7324 C   0  0  0  0  0  0  0  0  0  0  0  0 
    1.3014    2.3237   -5.6892 C   0  0  0  0  0  0  0  0  0  0  0  0 
    1.6270    2.9935   -3.4062 C   0  0  0  0  0  0  0  0  0  0  0  0 
    1.3971    0.9927   -5.3089 C   0  0  0  0  0  0  0  0  0  0  0  0 
    1.7284    1.6481   -2.9925 C   0  0  0  0  0  0  0  0  0  0  0  0 
    1.6100    0.6238   -3.9682 C   0  0  0  0  0  0  0  0  0  0  0  0 
    1.9577    1.3673   -1.5500 C   0  0  0  0  0  0  0  0  0  0  0  0 
    2.0792    0.2646   -1.0326 O   0  0  0  0  0  0  0  0  0  0  0  0 
    2.0264    2.4943   -0.8080 O   0  0  0  0  0  0  0  0  0  0  0  0 
    1.6984   -1.1297   -3.6889 S   0  0  0  0  0  0  0  0  0  0  0  0 
    3.2054    1.7989    0.7690 H   0  0  0  0  0  0  0  0  0  0  0  0 
    1.4487    1.6939    1.0324 H   0  0  0  0  0  0  0  0  0  0  0  0 
    2.2542    3.2991    1.0302 H   0  0  0  0  0  0  0  0  0  0  0  0 
    1.3428    4.3815   -5.0200 H   0  0  0  0  0  0  0  0  0  0  0  0 
    1.1370    2.5713   -6.7345 H   0  0  0  0  0  0  0  0  0  0  0  0 
    1.7185    3.7684   -2.6554 H   0  0  0  0  0  0  0  0  0  0  0  0 
    1.3070    0.2098   -6.0568 H   0  0  0  0  0  0  0  0  0  0  0  0 
    1.9091   -1.0435   -2.3557 H   0  0  0  0  0  0  0  0  0  0  0  0 
  1 12  1  0  0  0  0 
  1 14  1  0  0  0  0 
  1 13  1  0  0  0  0 
  2  4  2  0  0  0  0 
  3  5  2  0  0  0  0 
  3  2  1  0  0  0  0 
  4  6  1  0  0  0  0 
  4 17  1  0  0  0  0 
  5  7  1  0  0  0  0 
  6  8  1  0  0  0  0 
  7 11  1  0  0  0  0 
  7  6  2  0  0  0  0 
  8  9  2  0  0  0  0 
  8 10  1  0  0  0  0 
 10  1  1  0  0  0  0 
 11 19  1  0  0  0  0 
 15  2  1  0  0  0  0 
 16  3  1  0  0  0  0 
 18  5  1  0  0  0  0 
M  END 
>  <HBA> 
3 
 
>  <HBD> 
1 
 
>  <TPSA> 
65.1 
 
>  <cid> 
21009 
 
>  <dipole> 
2.8 
 
>  <excitation_energy_1> 
3.838 
 
>  <excitation_energy_2> 
4.832 
 
>  <excitation_energy_3> 
4.904 
 
>  <excitation_energy_4> 
5.295 
 
>  <homo_energy> 
-5.965 
 
>  <homo_lumo_gap> 
4.539 
 
>  <logP> 
1.762 
 
>  <lumo_energy> 
-1.426 
 
>  <melting_point> 
55.03 
 
>  <molecular_refractivity> 
44.97 
 
>  <oscillator_strength_1> 
0.084 
 
>  <oscillator_strength_2> 
0.0 
 
>  <oscillator_strength_3> 
0.0707 
 
>  <oscillator_strength_4> 
0.0014 
 
>  <open_babel_can_smiles> 
COC(=O)c1ccccc1S 
 
>  <mulliken_charges> 
19 
1   -0.215854 
2   -0.143733 
3   -0.103714 
4   -0.140368 
5   -0.165237 
6   0.029251 
7   -0.099547 
8   0.608228 
9   -0.516493 
10   -0.463549 
11   -0.055915 
12   0.173807 
13   0.174699 
14   0.167159 
15   0.137261 
16   0.141079 
17   0.163179 
18   0.149431 
19   0.160317 
 
>  <lowdin_charges> 
19 
1   -0.275123 
2   -0.169005 
3   -0.12883 
4   -0.132442 
5   -0.168951 
6   -0.069631 
7   -0.089854 
8   0.206141 
9   -0.284706 
10   -0.185753 
11   -0.025475 
12   0.161233 
13   0.163178 
14   0.161519 
15   0.160956 
16   0.162702 
17   0.176861 
18   0.170153 
19   0.167028 
 
$$$$ 
 
