PCCDB-ID:  22946 
public computational chemistry database (PCCDB) project, http://pccdb.org 
 
 19 20  0  0  0  0  0  0  0  0999 V2000 
    2.1770    0.7173    0.3452 C   0  0  0  0  0  0  0  0  0  0  0  0 
    2.2326   -0.6522   -0.3486 C   0  0  0  0  0  0  0  0  0  0  0  0 
    0.9169    1.5033   -0.0583 C   0  0  0  0  0  0  0  0  0  0  0  0 
    1.0403   -1.5381    0.0612 C   0  0  0  0  0  0  0  0  0  0  0  0 
   -1.6712    1.1002   -0.0534 C   0  0  0  0  0  0  0  0  0  0  0  0 
   -2.5911    0.0932   -0.0237 C   0  0  0  0  0  0  0  0  0  0  0  0 
   -0.3159    0.6297   -0.0279 C   0  0  0  0  0  0  0  0  0  0  0  0 
   -0.2346   -0.7391    0.0155 C   0  0  0  0  0  0  0  0  0  0  0  0 
   -1.8236   -1.4667    0.0333 S   0  0  0  0  0  0  0  0  0  0  0  0 
    3.0729    1.3023    0.1051 H   0  0  0  0  0  0  0  0  0  0  0  0 
    2.1789    0.5682    1.4340 H   0  0  0  0  0  0  0  0  0  0  0  0 
    3.1709   -1.1663   -0.1081 H   0  0  0  0  0  0  0  0  0  0  0  0 
    2.2188   -0.5074   -1.4375 H   0  0  0  0  0  0  0  0  0  0  0  0 
    1.0494    1.9187   -1.0691 H   0  0  0  0  0  0  0  0  0  0  0  0 
    0.7841    2.3671    0.6064 H   0  0  0  0  0  0  0  0  0  0  0  0 
    1.2036   -1.9295    1.0766 H   0  0  0  0  0  0  0  0  0  0  0  0 
    0.9776   -2.4141   -0.5969 H   0  0  0  0  0  0  0  0  0  0  0  0 
   -1.9395    2.1517   -0.0913 H   0  0  0  0  0  0  0  0  0  0  0  0 
   -3.6702    0.1680   -0.0317 H   0  0  0  0  0  0  0  0  0  0  0  0 
  1 11  1  0  0  0  0 
  2 12  1  0  0  0  0 
  2  4  1  0  0  0  0 
  2  1  1  0  0  0  0 
  3  7  1  0  0  0  0 
  3  1  1  0  0  0  0 
  3 15  1  0  0  0  0 
  4 16  1  0  0  0  0 
  5  7  1  0  0  0  0 
  5  6  2  0  0  0  0 
  6  9  1  0  0  0  0 
  7  8  2  0  0  0  0 
  8  9  1  0  0  0  0 
  8  4  1  0  0  0  0 
 10  1  1  0  0  0  0 
 13  2  1  0  0  0  0 
 14  3  1  0  0  0  0 
 17  4  1  0  0  0  0 
 18  5  1  0  0  0  0 
 19  6  1  0  0  0  0 
M  END 
>  <HBA> 
1 
 
>  <HBD> 
0 
 
>  <TPSA> 
28.24 
 
>  <cid> 
22946 
 
>  <dipole> 
1.12 
 
>  <excitation_energy_1> 
5.198 
 
>  <excitation_energy_2> 
5.306 
 
>  <excitation_energy_3> 
5.523 
 
>  <excitation_energy_4> 
5.63 
 
>  <homo_energy> 
-5.848 
 
>  <homo_lumo_gap> 
5.845 
 
>  <logP> 
2.627 
 
>  <lumo_energy> 
-0.003 
 
>  <melting_point> 
32.47 
 
>  <molecular_refractivity> 
41.75 
 
>  <oscillator_strength_1> 
0.0154 
 
>  <oscillator_strength_2> 
0.0935 
 
>  <oscillator_strength_3> 
0.017 
 
>  <oscillator_strength_4> 
0.0645 
 
>  <open_babel_can_smiles> 
C1CCc2c(C1)scc2 
 
>  <mulliken_charges> 
19 
1   -0.267718 
2   -0.26677 
3   -0.329546 
4   -0.306826 
5   -0.131033 
6   -0.350177 
7   0.16022 
8   -0.177612 
9   0.220721 
10   0.133939 
11   0.139514 
12   0.135836 
13   0.141368 
14   0.148173 
15   0.144278 
16   0.154918 
17   0.152183 
18   0.131702 
19   0.16683 
 
>  <lowdin_charges> 
19 
1   -0.273234 
2   -0.271007 
3   -0.271521 
4   -0.269851 
5   -0.187886 
6   -0.318726 
7   -0.045143 
8   -0.176925 
9   0.292089 
10   0.146275 
11   0.141142 
12   0.146828 
13   0.142222 
14   0.148842 
15   0.152014 
16   0.151599 
17   0.156045 
18   0.159709 
19   0.177529 
 
$$$$ 
 
