PCCDB-ID:  68825 
public computational chemistry database (PCCDB) project, http://pccdb.org 
 
 31 31  0  0  1  0  0  0  0  0999 V2000 
    5.3410   -6.9762   -1.1305 C   0  0  0  0  0  0  0  0  0  0  0  0 
    5.6546   -5.5032   -0.8901 C   0  0  0  0  0  0  0  0  0  0  0  0 
    8.6827   -6.4605    2.0142 C   0  0  0  0  0  0  0  0  0  0  0  0 
   10.0167   -6.2906    1.6536 C   0  0  0  0  0  0  0  0  0  0  0  0 
    7.6556   -6.0999    1.1360 C   0  0  0  0  0  0  0  0  0  0  0  0 
   10.3274   -5.7449    0.4052 C   0  0  0  0  0  0  0  0  0  0  0  0 
    8.6093   -7.4886   -3.1731 C   0  0  0  0  0  0  0  0  0  0  0  0 
   10.2180   -5.5092   -2.7346 C   0  0  0  0  0  0  0  0  0  0  0  0 
    9.1697   -6.1425   -3.6650 C   0  0  2  0  0  0  0  0  0  0  0  0 
    7.9609   -5.5683   -0.1198 C   0  0  0  0  0  0  0  0  0  0  0  0 
    9.3141   -5.3889   -0.4805 C   0  0  0  0  0  0  0  0  0  0  0  0 
    7.4749   -7.8445   -3.9469 O   0  0  0  0  0  0  0  0  0  0  0  0 
    8.0920   -5.2346   -3.8825 O   0  0  0  0  0  0  0  0  0  0  0  0 
    7.0454   -5.1849   -1.0638 O   0  0  0  0  0  0  0  0  0  0  0  0 
    9.5872   -4.7678   -1.6792 O   0  0  0  0  0  0  0  0  0  0  0  0 
    4.2555   -7.1268   -1.1043 H   0  0  0  0  0  0  0  0  0  0  0  0 
    5.7897   -7.6193   -0.3676 H   0  0  0  0  0  0  0  0  0  0  0  0 
    5.7146   -7.3000   -2.1074 H   0  0  0  0  0  0  0  0  0  0  0  0 
    5.3202   -5.1678    0.0996 H   0  0  0  0  0  0  0  0  0  0  0  0 
    5.1532   -4.8785   -1.6340 H   0  0  0  0  0  0  0  0  0  0  0  0 
    8.4263   -6.8750    2.9850 H   0  0  0  0  0  0  0  0  0  0  0  0 
   10.8130   -6.5670    2.3380 H   0  0  0  0  0  0  0  0  0  0  0  0 
    6.6240   -6.2457    1.4352 H   0  0  0  0  0  0  0  0  0  0  0  0 
   11.3593   -5.5750    0.1109 H   0  0  0  0  0  0  0  0  0  0  0  0 
    8.3511   -7.4295   -2.1057 H   0  0  0  0  0  0  0  0  0  0  0  0 
    9.3624   -8.2779   -3.2881 H   0  0  0  0  0  0  0  0  0  0  0  0 
   10.8005   -4.7682   -3.2882 H   0  0  0  0  0  0  0  0  0  0  0  0 
   10.9023   -6.2651   -2.3277 H   0  0  0  0  0  0  0  0  0  0  0  0 
    9.6259   -6.3010   -4.6500 H   0  0  0  0  0  0  0  0  0  0  0  0 
    7.0819   -6.9847   -4.1918 H   0  0  0  0  0  0  0  0  0  0  0  0 
    7.8452   -4.9027   -2.9955 H   0  0  0  0  0  0  0  0  0  0  0  0 
  1 16  1  0  0  0  0 
  1  2  1  0  0  0  0 
  1 17  1  0  0  0  0 
  2 19  1  0  0  0  0 
  3 21  1  0  0  0  0 
  4  3  1  0  0  0  0 
  4 22  1  0  0  0  0 
  5 23  1  0  0  0  0 
  5  3  2  0  0  0  0 
  6  4  2  0  0  0  0 
  7 25  1  0  0  0  0 
  8 28  1  0  0  0  0 
  8 15  1  0  0  0  0 
  9 29  1  6  0  0  0 
  9  7  1  0  0  0  0 
  9  8  1  0  0  0  0 
 10  5  1  0  0  0  0 
 11 10  2  0  0  0  0 
 11  6  1  0  0  0  0 
 12  7  1  0  0  0  0 
 13  9  1  0  0  0  0 
 13 31  1  0  0  0  0 
 14  2  1  0  0  0  0 
 14 10  1  0  0  0  0 
 15 11  1  0  0  0  0 
 18  1  1  0  0  0  0 
 20  2  1  0  0  0  0 
 24  6  1  0  0  0  0 
 26  7  1  0  0  0  0 
 27  8  1  0  0  0  0 
 30 12  1  0  0  0  0 
M  END 
>  <HBA> 
4 
 
>  <HBD> 
2 
 
>  <TPSA> 
58.92 
 
>  <cid> 
68825 
 
>  <dipole> 
2.5 
 
>  <excitation_energy_1> 
4.925 
 
>  <excitation_energy_2> 
5.496 
 
>  <excitation_energy_3> 
5.601 
 
>  <excitation_energy_4> 
5.801 
 
>  <homo_energy> 
-6.025 
 
>  <homo_lumo_gap> 
5.837 
 
>  <logP> 
0.817 
 
>  <lumo_energy> 
-0.188 
 
>  <melting_point> 
49.77 
 
>  <molecular_refractivity> 
56.17 
 
>  <oscillator_strength_1> 
0.0463 
 
>  <oscillator_strength_2> 
0.0373 
 
>  <oscillator_strength_3> 
0.0199 
 
>  <oscillator_strength_4> 
0.0091 
 
>  <open_babel_can_smiles> 
CCOc1ccccc1OC[C@@H](CO)O 
 
>  <mulliken_charges> 
31 
1   -0.482965 
2   -0.044016 
3   -0.134832 
4   -0.140923 
5   -0.202215 
6   -0.168464 
7   -0.034355 
8   -0.061058 
9   0.082927 
10   0.36935 
11   0.299221 
12   -0.633811 
13   -0.662126 
14   -0.548662 
15   -0.540911 
16   0.150853 
17   0.162316 
18   0.187348 
19   0.147873 
20   0.162612 
21   0.132749 
22   0.132212 
23   0.139862 
24   0.137397 
25   0.129512 
26   0.132607 
27   0.162033 
28   0.140154 
29   0.144758 
30   0.404591 
31   0.435962 
 
>  <lowdin_charges> 
31 
1   -0.466975 
2   -0.125037 
3   -0.15389 
4   -0.170158 
5   -0.203101 
6   -0.174287 
7   -0.158245 
8   -0.140449 
9   -0.035612 
10   0.079795 
11   0.066246 
12   -0.475006 
13   -0.466963 
14   -0.207397 
15   -0.222834 
16   0.158167 
17   0.159451 
18   0.170549 
19   0.141473 
20   0.159245 
21   0.159957 
22   0.161466 
23   0.163848 
24   0.164312 
25   0.130236 
26   0.14282 
27   0.160281 
28   0.145897 
29   0.148929 
30   0.341232 
31   0.34605 
 
$$$$ 
 
