PCCDB-ID:  70765 
public computational chemistry database (PCCDB) project, http://pccdb.org 
 
 17 18  0  0  0  0  0  0  0  0999 V2000 
    1.1205   -0.0158    0.0796 C   0  0  0  0  0  0  0  0  0  0  0  0 
    6.7145    1.5768    0.0491 C   0  0  0  0  0  0  0  0  0  0  0  0 
    3.3027   -1.1513    0.0903 C   0  0  0  0  0  0  0  0  0  0  0  0 
    4.6175    1.2258    0.0597 C   0  0  0  0  0  0  0  0  0  0  0  0 
    5.2102   -0.0350    0.0727 C   0  0  0  0  0  0  0  0  0  0  0  0 
    3.1782    1.3284    0.0591 C   0  0  0  0  0  0  0  0  0  0  0  0 
    5.5733    2.2209    0.0447 N   0  0  0  0  0  0  0  0  0  0  0  0 
    6.5610    0.2055    0.0660 N   0  0  0  0  0  0  0  0  0  0  0  0 
    4.6037   -1.2500    0.0880 N   0  0  0  0  0  0  0  0  0  0  0  0 
    2.5849    0.0120    0.0786 N   0  0  0  0  0  0  0  0  0  0  0  0 
    2.4601    2.3143    0.0456 O   0  0  0  0  0  0  0  0  0  0  0  0 
    0.7822   -1.0534    0.0892 H   0  0  0  0  0  0  0  0  0  0  0  0 
    0.7393    0.4929   -0.8089 H   0  0  0  0  0  0  0  0  0  0  0  0 
    0.7398    0.5091    0.9588 H   0  0  0  0  0  0  0  0  0  0  0  0 
    7.6936    2.0373    0.0408 H   0  0  0  0  0  0  0  0  0  0  0  0 
    2.7118   -2.0637    0.1034 H   0  0  0  0  0  0  0  0  0  0  0  0 
    7.2857   -0.4987    0.0720 H   0  0  0  0  0  0  0  0  0  0  0  0 
  1 12  1  0  0  0  0 
  1 14  1  0  0  0  0 
  2  8  1  0  0  0  0 
  3 16  1  0  0  0  0 
  4  5  2  0  0  0  0 
  5  9  1  0  0  0  0 
  6  4  1  0  0  0  0 
  6 10  1  0  0  0  0 
  7  2  2  0  0  0  0 
  7  4  1  0  0  0  0 
  8 17  1  0  0  0  0 
  8  5  1  0  0  0  0 
  9  3  2  0  0  0  0 
 10  1  1  0  0  0  0 
 10  3  1  0  0  0  0 
 11  6  2  0  0  0  0 
 13  1  1  0  0  0  0 
 15  2  1  0  0  0  0 
M  END 
>  <HBA> 
4 
 
>  <HBD> 
1 
 
>  <TPSA> 
63.57 
 
>  <cid> 
70765 
 
>  <dipole> 
4.75 
 
>  <excitation_energy_1> 
4.747 
 
>  <excitation_energy_2> 
5.3 
 
>  <excitation_energy_3> 
5.305 
 
>  <excitation_energy_4> 
5.41 
 
>  <homo_energy> 
-6.063 
 
>  <homo_lumo_gap> 
5.333 
 
>  <logP> 
-0.343 
 
>  <lumo_energy> 
-0.729 
 
>  <melting_point> 
164.55 
 
>  <molecular_refractivity> 
39.41 
 
>  <oscillator_strength_1> 
0.1554 
 
>  <oscillator_strength_2> 
0.0002 
 
>  <oscillator_strength_3> 
0.0002 
 
>  <oscillator_strength_4> 
0.107 
 
>  <open_babel_can_smiles> 
Cn1cnc2c(c1=O)nc[nH]2 
 
>  <mulliken_charges> 
17 
1   -0.312809 
2   0.225393 
3   0.227981 
4   0.14519 
5   0.491646 
6   0.586016 
7   -0.47223 
8   -0.640425 
9   -0.503828 
10   -0.460147 
11   -0.511591 
12   0.159829 
13   0.19457 
14   0.194262 
15   0.168047 
16   0.163909 
17   0.344187 
 
>  <lowdin_charges> 
17 
1   -0.342703 
2   -0.063725 
3   -0.027967 
4   -0.060153 
5   0.051386 
6   0.160123 
7   -0.154728 
8   -0.187555 
9   -0.191062 
10   -0.057168 
11   -0.282869 
12   0.158677 
13   0.175685 
14   0.175532 
15   0.172865 
16   0.168887 
17   0.304775 
 
$$$$ 
 
