PCCDB-ID:  24536 
public computational chemistry database (PCCDB) project, http://pccdb.org 
 
 12 11  0  0  0  0  0  0  0  0999 V2000 
    1.6151   -0.4131   -0.3146 O   0  0  0  0  0  0  0  0  0  0  0  0 
    2.9838    1.0526   -1.7420 O   0  0  0  0  0  0  0  0  0  0  0  0 
    2.6285    1.7140    0.8415 O   0  0  0  0  0  0  0  0  0  0  0  0 
    5.0012    0.1759    1.7223 O   0  0  0  0  0  0  0  0  0  0  0  0 
    4.6763   -1.8737    0.3989 O   0  0  0  0  0  0  0  0  0  0  0  0 
    5.6800    0.1837   -0.8851 O   0  0  0  0  0  0  0  0  0  0  0  0 
    2.8172    0.6573   -0.1936 P   0  0  0  0  0  0  0  0  0  0  0  0 
    4.7644   -0.2744    0.1985 P   0  0  0  0  0  0  0  0  0  0  0  0 
    1.0643   -0.3982    0.4871 H   0  0  0  0  0  0  0  0  0  0  0  0 
    3.9345    1.1628   -1.9528 H   0  0  0  0  0  0  0  0  0  0  0  0 
    4.4962    0.9962    1.9037 H   0  0  0  0  0  0  0  0  0  0  0  0 
    5.0122   -2.3300   -0.3921 H   0  0  0  0  0  0  0  0  0  0  0  0 
  1  7  1  0  0  0  0 
  1  9  1  0  0  0  0 
  2  7  1  0  0  0  0 
  4 11  1  0  0  0  0 
  6  8  2  0  0  0  0 
  7  8  1  0  0  0  0 
  7  3  2  0  0  0  0 
  8  5  1  0  0  0  0 
  8  4  1  0  0  0  0 
 10  2  1  0  0  0  0 
 12  5  1  0  0  0  0 
M  END 
>  <HBA> 
6 
 
>  <HBD> 
4 
 
>  <TPSA> 
134.68 
 
>  <cid> 
24536 
 
>  <dipole> 
2.46 
 
>  <excitation_energy_1> 
6.564 
 
>  <excitation_energy_2> 
6.789 
 
>  <excitation_energy_3> 
7.021 
 
>  <excitation_energy_4> 
7.29 
 
>  <homo_energy> 
-7.995 
 
>  <homo_lumo_gap> 
7.987 
 
>  <logP> 
-0.743 
 
>  <lumo_energy> 
-0.008 
 
>  <melting_point> 
150.09 
 
>  <molecular_refractivity> 
24.09 
 
>  <oscillator_strength_1> 
0.0147 
 
>  <oscillator_strength_2> 
0.0022 
 
>  <oscillator_strength_3> 
0.1343 
 
>  <oscillator_strength_4> 
0.0153 
 
>  <open_babel_can_smiles> 
OP(=O)(P(=O)(O)O)O 
 
>  <mulliken_charges> 
12 
1   -0.621026 
2   -0.636345 
3   -0.560859 
4   -0.63655 
5   -0.620402 
6   -0.56061 
7   0.90738 
8   0.908955 
9   0.45089 
10   0.458788 
11   0.458873 
12   0.450905 
 
>  <lowdin_charges> 
12 
1   -0.547215 
2   -0.547529 
3   -0.590896 
4   -0.548995 
5   -0.550546 
6   -0.591505 
7   0.901922 
8   0.909016 
9   0.391131 
10   0.390658 
11   0.392541 
12   0.391418 
 
$$$$ 
 
