PCCDB-ID:  49978 
public computational chemistry database (PCCDB) project, http://pccdb.org 
 
 28 28  0  0  1  0  0  0  0  0999 V2000 
   -1.5433   -1.1447    0.7753 C   0  0  0  0  0  0  0  0  0  0  0  0 
   -0.6716   -1.0087    1.8560 C   0  0  0  0  0  0  0  0  0  0  0  0 
   -1.0746   -0.9220   -0.5214 C   0  0  0  0  0  0  0  0  0  0  0  0 
    0.6628   -0.6572    1.6417 C   0  0  0  0  0  0  0  0  0  0  0  0 
    0.2582   -0.5691   -0.7311 C   0  0  0  0  0  0  0  0  0  0  0  0 
    2.5954   -0.0657    0.1070 C   0  0  0  0  0  0  0  0  0  0  0  0 
    1.1464   -0.4361    0.3461 C   0  0  0  0  0  0  0  0  0  0  0  0 
    3.4309   -1.2229   -0.4708 C   0  0  1  0  0  0  0  0  0  0  0  0 
    4.8675   -0.7652   -0.8309 C   0  0  0  0  0  0  0  0  0  0  0  0 
    3.4083   -3.7359   -0.0595 C   0  0  0  0  0  0  0  0  0  0  0  0 
    3.1889   -4.8267    0.5360 N   0  0  0  0  0  0  0  0  0  0  0  0 
    3.6669   -2.0949    1.7525 N   0  0  0  0  0  0  0  0  0  0  0  0 
    3.4751   -2.4088    0.4296 N   0  0  0  0  0  0  0  0  0  0  0  0 
    5.2778    0.3439   -0.6012 O   0  0  0  0  0  0  0  0  0  0  0  0 
    5.6343   -1.6902   -1.4407 O   0  0  0  0  0  0  0  0  0  0  0  0 
    3.6712   -3.7363   -1.4079 O   0  0  0  0  0  0  0  0  0  0  0  0 
    3.6954   -3.0251    2.5348 O   0  0  0  0  0  0  0  0  0  0  0  0 
   -2.5822   -1.4164    0.9414 H   0  0  0  0  0  0  0  0  0  0  0  0 
   -1.0292   -1.1726    2.8691 H   0  0  0  0  0  0  0  0  0  0  0  0 
   -1.7486   -1.0157   -1.3688 H   0  0  0  0  0  0  0  0  0  0  0  0 
    1.3355   -0.5484    2.4885 H   0  0  0  0  0  0  0  0  0  0  0  0 
    0.6101   -0.3819   -1.7442 H   0  0  0  0  0  0  0  0  0  0  0  0 
    3.0679    0.2997    1.0201 H   0  0  0  0  0  0  0  0  0  0  0  0 
    2.6689    0.7465   -0.6241 H   0  0  0  0  0  0  0  0  0  0  0  0 
    2.9523   -1.5766   -1.3869 H   0  0  0  0  0  0  0  0  0  0  0  0 
    3.0293   -4.6914    1.5309 H   0  0  0  0  0  0  0  0  0  0  0  0 
    5.1278   -2.5141   -1.5924 H   0  0  0  0  0  0  0  0  0  0  0  0 
    3.6153   -4.6738   -1.6751 H   0  0  0  0  0  0  0  0  0  0  0  0 
  1 18  1  0  0  0  0 
  1  2  2  0  0  0  0 
  2 19  1  0  0  0  0 
  3  1  1  0  0  0  0 
  4  2  1  0  0  0  0 
  4 21  1  0  0  0  0 
  5  3  2  0  0  0  0 
  5  7  1  0  0  0  0 
  6  7  1  0  0  0  0 
  6 23  1  0  0  0  0 
  7  4  2  0  0  0  0 
  8 25  1  6  0  0  0 
  8  6  1  0  0  0  0 
  8 13  1  0  0  0  0 
  9 14  2  0  0  0  0 
  9  8  1  0  0  0  0 
 10 13  1  0  0  0  0 
 10 11  2  0  0  0  0 
 11 26  1  0  0  0  0 
 12 17  2  0  0  0  0 
 13 12  1  0  0  0  0 
 15  9  1  0  0  0  0 
 16 10  1  0  0  0  0 
 20  3  1  0  0  0  0 
 22  5  1  0  0  0  0 
 24  6  1  0  0  0  0 
 27 15  1  0  0  0  0 
 28 16  1  0  0  0  0 
M  END 
>  <HBA> 
7 
 
>  <HBD> 
2 
 
>  <TPSA> 
113.06 
 
>  <cid> 
49978 
 
>  <dipole> 
4.58 
 
>  <excitation_energy_1> 
2.86 
 
>  <excitation_energy_2> 
3.63 
 
>  <excitation_energy_3> 
3.81 
 
>  <excitation_energy_4> 
4.439 
 
>  <homo_energy> 
-6.855 
 
>  <homo_lumo_gap> 
4.376 
 
>  <logP> 
1.445 
 
>  <lumo_energy> 
-2.479 
 
>  <melting_point> 
189.98 
 
>  <molecular_refractivity> 
58.53 
 
>  <oscillator_strength_1> 
0.0032 
 
>  <oscillator_strength_2> 
0.0035 
 
>  <oscillator_strength_3> 
0.0042 
 
>  <oscillator_strength_4> 
0.0233 
 
>  <open_babel_can_smiles> 
O=NN([C@H](C(=O)O)Cc1ccccc1)C(=N)O 
 
>  <mulliken_charges> 
28 
1   -0.128553 
2   -0.127651 
3   -0.127264 
4   -0.190705 
5   -0.184561 
6   -0.367866 
7   0.165027 
8   -0.109095 
9   0.630378 
10   0.682918 
11   -0.604497 
12   0.209455 
13   -0.343832 
14   -0.431897 
15   -0.586844 
16   -0.625569 
17   -0.330812 
18   0.133872 
19   0.136253 
20   0.13334 
21   0.144397 
22   0.123364 
23   0.195327 
24   0.179413 
25   0.203432 
26   0.343382 
27   0.438383 
28   0.440204 
 
>  <lowdin_charges> 
28 
1   -0.153877 
2   -0.151216 
3   -0.154019 
4   -0.167124 
5   -0.169048 
6   -0.275949 
7   -0.01105 
8   -0.09758 
9   0.182072 
10   0.159577 
11   -0.393537 
12   0.095485 
13   -0.050102 
14   -0.224218 
15   -0.352115 
16   -0.381617 
17   -0.205571 
18   0.158603 
19   0.160144 
20   0.1602 
21   0.163797 
22   0.152197 
23   0.177494 
24   0.175018 
25   0.181266 
26   0.284843 
27   0.358081 
28   0.378246 
 
$$$$ 
 
