PCCDB-ID:  44775 
public computational chemistry database (PCCDB) project, http://pccdb.org 
 
 28 27  0  0  1  0  0  0  0  0999 V2000 
    1.2790   -0.7272   -2.3861 C   0  0  0  0  0  0  0  0  0  0  0  0 
    5.3516   -1.5495    0.1272 C   0  0  0  0  0  0  0  0  0  0  0  0 
    4.9439    1.5833    0.2206 C   0  0  0  0  0  0  0  0  0  0  0  0 
    4.5133    2.7202   -2.5676 C   0  0  0  0  0  0  0  0  0  0  0  0 
    2.7957   -0.5151   -2.3226 C   0  0  0  0  0  0  0  0  0  0  0  0 
    5.6262   -0.5386   -0.9911 C   0  0  0  0  0  0  0  0  0  0  0  0 
    3.2171    0.3463   -1.1250 C   0  0  0  0  0  0  0  0  0  0  0  0 
    4.7188    0.7183   -1.0417 C   0  0  1  0  0  0  0  0  0  0  0  0 
    5.1190    1.4220   -2.2853 N   0  0  0  0  0  0  0  0  0  0  0  0 
    0.9979   -1.3437   -3.2480 H   0  0  0  0  0  0  0  0  0  0  0  0 
    0.7453    0.2276   -2.4745 H   0  0  0  0  0  0  0  0  0  0  0  0 
    0.9067   -1.2289   -1.4839 H   0  0  0  0  0  0  0  0  0  0  0  0 
    6.0768   -2.3702    0.0825 H   0  0  0  0  0  0  0  0  0  0  0  0 
    4.3536   -1.9932    0.0421 H   0  0  0  0  0  0  0  0  0  0  0  0 
    5.4325   -1.0991    1.1227 H   0  0  0  0  0  0  0  0  0  0  0  0 
    4.6797    1.0441    1.1368 H   0  0  0  0  0  0  0  0  0  0  0  0 
    4.3320    2.4913    0.1933 H   0  0  0  0  0  0  0  0  0  0  0  0 
    5.9958    1.8868    0.3023 H   0  0  0  0  0  0  0  0  0  0  0  0 
    4.9659    3.1180   -3.4824 H   0  0  0  0  0  0  0  0  0  0  0  0 
    4.6278    3.4834   -1.7784 H   0  0  0  0  0  0  0  0  0  0  0  0 
    3.4422    2.6038   -2.7637 H   0  0  0  0  0  0  0  0  0  0  0  0 
    3.1503   -0.0443   -3.2466 H   0  0  0  0  0  0  0  0  0  0  0  0 
    3.2919   -1.4931   -2.2704 H   0  0  0  0  0  0  0  0  0  0  0  0 
    5.5600   -1.0399   -1.9636 H   0  0  0  0  0  0  0  0  0  0  0  0 
    6.6672   -0.1914   -0.9024 H   0  0  0  0  0  0  0  0  0  0  0  0 
    2.9360   -0.1606   -0.1926 H   0  0  0  0  0  0  0  0  0  0  0  0 
    2.6291    1.2754   -1.1338 H   0  0  0  0  0  0  0  0  0  0  0  0 
    6.1318    1.5306   -2.2736 H   0  0  0  0  0  0  0  0  0  0  0  0 
  1  5  1  0  0  0  0 
  1 12  1  0  0  0  0 
  2 15  1  0  0  0  0 
  3 18  1  0  0  0  0 
  3 16  1  0  0  0  0 
  4  9  1  0  0  0  0 
  4 20  1  0  0  0  0 
  5 23  1  0  0  0  0 
  5  7  1  0  0  0  0 
  6 25  1  0  0  0  0 
  6  2  1  0  0  0  0 
  7  8  1  0  0  0  0 
  7 26  1  0  0  0  0 
  8  9  1  6  0  0  0 
  8  6  1  0  0  0  0 
  8  3  1  0  0  0  0 
  9 28  1  0  0  0  0 
 10  1  1  0  0  0  0 
 11  1  1  0  0  0  0 
 13  2  1  0  0  0  0 
 14  2  1  0  0  0  0 
 17  3  1  0  0  0  0 
 19  4  1  0  0  0  0 
 21  4  1  0  0  0  0 
 22  5  1  0  0  0  0 
 24  6  1  0  0  0  0 
 27  7  1  0  0  0  0 
M  END 
>  <HBA> 
1 
 
>  <HBD> 
1 
 
>  <TPSA> 
12.03 
 
>  <cid> 
44775 
 
>  <dipole> 
0.87 
 
>  <excitation_energy_1> 
5.175 
 
>  <excitation_energy_2> 
5.647 
 
>  <excitation_energy_3> 
5.789 
 
>  <excitation_energy_4> 
5.849 
 
>  <homo_energy> 
-5.714 
 
>  <homo_lumo_gap> 
7.706 
 
>  <logP> 
2.566 
 
>  <lumo_energy> 
1.992 
 
>  <melting_point> 
10.31 
 
>  <molecular_refractivity> 
43.41 
 
>  <oscillator_strength_1> 
0.0052 
 
>  <oscillator_strength_2> 
0.0074 
 
>  <oscillator_strength_3> 
0.0094 
 
>  <oscillator_strength_4> 
0.0069 
 
>  <open_babel_can_smiles> 
CCC[C@](NC)(CC)C 
 
>  <mulliken_charges> 
28 
1   -0.44397 
2   -0.456406 
3   -0.459061 
4   -0.306235 
5   -0.252646 
6   -0.266476 
7   -0.264403 
8   0.220504 
9   -0.555045 
10   0.140175 
11   0.137804 
12   0.137229 
13   0.143644 
14   0.149537 
15   0.144877 
16   0.142099 
17   0.143078 
18   0.129192 
19   0.145821 
20   0.123079 
21   0.152225 
22   0.155469 
23   0.130628 
24   0.150964 
25   0.117315 
26   0.128713 
27   0.124539 
28   0.287353 
 
>  <lowdin_charges> 
28 
1   -0.445352 
2   -0.44787 
3   -0.458981 
4   -0.364151 
5   -0.27621 
6   -0.277933 
7   -0.281856 
8   0.062895 
9   -0.361097 
10   0.148831 
11   0.143852 
12   0.144096 
13   0.152513 
14   0.148536 
15   0.146722 
16   0.150041 
17   0.14939 
18   0.14193 
19   0.151027 
20   0.123095 
21   0.145628 
22   0.15208 
23   0.139112 
24   0.15058 
25   0.134183 
26   0.142125 
27   0.139207 
28   0.247608 
 
$$$$ 
 
