PCCDB-ID:  15406 
public computational chemistry database (PCCDB) project, http://pccdb.org 
 
 29 30  0  0  1  0  0  0  0  0999 V2000 
    0.8683    0.0214    0.0311 C   0  0  0  0  0  0  0  0  0  0  0  0 
    2.8506    0.4765   -1.3944 C   0  0  0  0  0  0  0  0  0  0  0  0 
    4.1429   -2.6159    2.2927 C   0  0  0  0  0  0  0  0  0  0  0  0 
    4.5224    0.9792    1.0381 C   0  0  0  0  0  0  0  0  0  0  0  0 
    5.0689   -0.4702    1.1992 C   0  0  0  0  0  0  0  0  0  0  0  0 
    2.9705   -0.2580    2.3340 C   0  0  0  0  0  0  0  0  0  0  0  0 
    2.9989    0.7829    1.1929 C   0  0  2  0  0  0  0  0  0  0  0  0 
    2.9743   -1.4836    0.2736 C   0  0  1  0  0  0  0  0  0  0  0  0 
    2.4088   -0.0283   -0.0104 C   0  0  0  0  0  0  0  0  0  0  0  0 
    3.8159   -1.3128    1.5768 C   0  0  2  0  0  0  0  0  0  0  0  0 
    1.9860   -2.5057    0.3602 O   0  0  0  0  0  0  0  0  0  0  0  0 
    0.5254    1.0312   -0.2226 H   0  0  0  0  0  0  0  0  0  0  0  0 
    0.4556   -0.2131    1.0199 H   0  0  0  0  0  0  0  0  0  0  0  0 
    0.4313   -0.6779   -0.6880 H   0  0  0  0  0  0  0  0  0  0  0  0 
    2.6039    1.5370   -1.5321 H   0  0  0  0  0  0  0  0  0  0  0  0 
    2.3391   -0.0881   -2.1835 H   0  0  0  0  0  0  0  0  0  0  0  0 
    3.9266    0.3592   -1.5595 H   0  0  0  0  0  0  0  0  0  0  0  0 
    4.6831   -2.4197    3.2270 H   0  0  0  0  0  0  0  0  0  0  0  0 
    4.7760   -3.2595    1.6691 H   0  0  0  0  0  0  0  0  0  0  0  0 
    3.2404   -3.1872    2.5314 H   0  0  0  0  0  0  0  0  0  0  0  0 
    4.8089    1.4506    0.0941 H   0  0  0  0  0  0  0  0  0  0  0  0 
    4.8931    1.6273    1.8408 H   0  0  0  0  0  0  0  0  0  0  0  0 
    5.8178   -0.5287    1.9979 H   0  0  0  0  0  0  0  0  0  0  0  0 
    5.5477   -0.8482    0.2874 H   0  0  0  0  0  0  0  0  0  0  0  0 
    1.9660   -0.6110    2.5989 H   0  0  0  0  0  0  0  0  0  0  0  0 
    3.4498    0.0984    3.2540 H   0  0  0  0  0  0  0  0  0  0  0  0 
    2.4545    1.7156    1.3765 H   0  0  0  0  0  0  0  0  0  0  0  0 
    3.6133   -1.8180   -0.5511 H   0  0  0  0  0  0  0  0  0  0  0  0 
    1.3683   -2.2705    1.0699 H   0  0  0  0  0  0  0  0  0  0  0  0 
  1 13  1  0  0  0  0 
  2  9  1  0  0  0  0 
  3 20  1  0  0  0  0 
  3 18  1  0  0  0  0 
  4  7  1  0  0  0  0 
  4  5  1  0  0  0  0 
  4 22  1  0  0  0  0 
  5 10  1  0  0  0  0 
  5 23  1  0  0  0  0 
  6 25  1  0  0  0  0 
  6 26  1  0  0  0  0 
  7 27  1  1  0  0  0 
  7  6  1  0  0  0  0 
  8 28  1  6  0  0  0 
  8 11  1  0  0  0  0 
  8 10  1  0  0  0  0 
  9  1  1  0  0  0  0 
  9  8  1  0  0  0  0 
  9  7  1  0  0  0  0 
 10  3  1  1  0  0  0 
 10  6  1  0  0  0  0 
 11 29  1  0  0  0  0 
 12  1  1  0  0  0  0 
 14  1  1  0  0  0  0 
 15  2  1  0  0  0  0 
 16  2  1  0  0  0  0 
 17  2  1  0  0  0  0 
 19  3  1  0  0  0  0 
 21  4  1  0  0  0  0 
 24  5  1  0  0  0  0 
M  END 
>  <HBA> 
1 
 
>  <HBD> 
1 
 
>  <TPSA> 
20.23 
 
>  <cid> 
15406 
 
>  <dipole> 
1.56 
 
>  <excitation_energy_1> 
6.125 
 
>  <excitation_energy_2> 
6.624 
 
>  <excitation_energy_3> 
6.808 
 
>  <excitation_energy_4> 
6.857 
 
>  <homo_energy> 
-6.757 
 
>  <homo_lumo_gap> 
8.436 
 
>  <logP> 
2.193 
 
>  <lumo_energy> 
1.679 
 
>  <melting_point> 
71.93 
 
>  <molecular_refractivity> 
46.6 
 
>  <oscillator_strength_1> 
0.0 
 
>  <oscillator_strength_2> 
0.0195 
 
>  <oscillator_strength_3> 
0.0108 
 
>  <oscillator_strength_4> 
0.005 
 
>  <open_babel_can_smiles> 
O[C@@H]1[C@@]2(C)CC[C@@H](C1(C)C)C2 
 
>  <mulliken_charges> 
29 
1   -0.475519 
2   -0.470877 
3   -0.456454 
4   -0.279617 
5   -0.285411 
6   -0.298477 
7   -0.099255 
8   0.119079 
9   0.105286 
10   0.075941 
11   -0.628799 
12   0.142981 
13   0.127357 
14   0.161604 
15   0.138638 
16   0.148299 
17   0.144173 
18   0.134057 
19   0.144072 
20   0.140167 
21   0.138125 
22   0.13379 
23   0.135435 
24   0.132529 
25   0.115882 
26   0.133215 
27   0.109589 
28   0.12689 
29   0.3873 
 
>  <lowdin_charges> 
29 
1   -0.448735 
2   -0.442416 
3   -0.443475 
4   -0.288033 
5   -0.28568 
6   -0.290068 
7   -0.134804 
8   -0.012966 
9   -0.009052 
10   -0.012834 
11   -0.451325 
12   0.150241 
13   0.138594 
14   0.158736 
15   0.14523 
16   0.153696 
17   0.146094 
18   0.14626 
19   0.153408 
20   0.150213 
21   0.146033 
22   0.145398 
23   0.146214 
24   0.142467 
25   0.132563 
26   0.145243 
27   0.138669 
28   0.141901 
29   0.33843 
 
$$$$ 
 
