PCCDB-ID:  68250 
public computational chemistry database (PCCDB) project, http://pccdb.org 
 
 18 18  0  0  0  0  0  0  0  0999 V2000 
   -0.6372    1.2998   -0.1423 C   0  0  0  0  0  0  0  0  0  0  0  0 
   -1.2755    0.0662   -0.0752 C   0  0  0  0  0  0  0  0  0  0  0  0 
    0.8908   -1.0430   -0.1708 C   0  0  0  0  0  0  0  0  0  0  0  0 
    1.3338    2.7957   -0.2125 C   0  0  0  0  0  0  0  0  0  0  0  0 
    0.7585    1.4013   -0.2340 C   0  0  0  0  0  0  0  0  0  0  0  0 
   -0.4949   -1.0872   -0.0848 C   0  0  0  0  0  0  0  0  0  0  0  0 
    1.4977    0.2046   -0.2595 C   0  0  0  0  0  0  0  0  0  0  0  0 
   -1.1567   -2.4064   -0.0040 N   0  0  0  0  0  0  0  0  0  0  0  0 
    2.9659    0.2065   -0.4273 N   0  0  0  0  0  0  0  0  0  0  0  0 
    0.6290    3.7649   -0.4013 O   0  0  0  0  0  0  0  0  0  0  0  0 
   -2.3821   -2.4146    0.0796 O   0  0  0  0  0  0  0  0  0  0  0  0 
   -0.4374   -3.4012   -0.0252 O   0  0  0  0  0  0  0  0  0  0  0  0 
    3.5824   -0.7695   -0.0125 O   0  0  0  0  0  0  0  0  0  0  0  0 
    3.4694    1.1781   -0.9910 O   0  0  0  0  0  0  0  0  0  0  0  0 
   -1.2060    2.2231   -0.1170 H   0  0  0  0  0  0  0  0  0  0  0  0 
   -2.3534   -0.0161   -0.0103 H   0  0  0  0  0  0  0  0  0  0  0  0 
    1.4786   -1.9510   -0.1791 H   0  0  0  0  0  0  0  0  0  0  0  0 
    2.4037    2.8953    0.0165 H   0  0  0  0  0  0  0  0  0  0  0  0 
  1 15  1  0  0  0  0 
  1  2  2  0  0  0  0 
  2 16  1  0  0  0  0 
  3  6  2  0  0  0  0 
  4 18  1  0  0  0  0 
  5  4  1  0  0  0  0 
  5  1  1  0  0  0  0 
  6  2  1  0  0  0  0 
  6  8  1  0  0  0  0 
  7  5  2  0  0  0  0 
  7  3  1  0  0  0  0 
  8 11  2  0  0  0  0 
  9  7  1  0  0  0  0 
  9 13  2  0  0  0  0 
 10  4  2  0  0  0  0 
 12  8  2  0  0  0  0 
 14  9  2  0  0  0  0 
 17  3  1  0  0  0  0 
M  END 
>  <HBA> 
1 
 
>  <HBD> 
0 
 
>  <TPSA> 
108.71 
 
>  <cid> 
68250 
 
>  <dipole> 
1.89 
 
>  <excitation_energy_1> 
3.059 
 
>  <excitation_energy_2> 
3.626 
 
>  <excitation_energy_3> 
3.646 
 
>  <excitation_energy_4> 
3.955 
 
>  <homo_energy> 
-7.891 
 
>  <homo_lumo_gap> 
4.191 
 
>  <logP> 
2.362 
 
>  <lumo_energy> 
-3.701 
 
>  <melting_point> 
116.68 
 
>  <molecular_refractivity> 
49.47 
 
>  <oscillator_strength_1> 
0.0002 
 
>  <oscillator_strength_2> 
0.0003 
 
>  <oscillator_strength_3> 
0.008 
 
>  <oscillator_strength_4> 
0.0033 
 
>  <open_babel_can_smiles> 
O=Cc1ccc(cc1N(=O)=O)N(=O)=O 
 
>  <mulliken_charges> 
18 
1   -0.185987 
2   -0.123234 
3   -0.169155 
4   0.227588 
5   0.086426 
6   0.273434 
7   0.211049 
8   0.390348 
9   0.366562 
10   -0.380191 
11   -0.378247 
12   -0.375555 
13   -0.359818 
14   -0.379746 
15   0.197368 
16   0.204801 
17   0.231731 
18   0.162628 
 
>  <lowdin_charges> 
18 
1   -0.114308 
2   -0.114088 
3   -0.121039 
4   0.057601 
5   -0.021953 
6   0.020225 
7   0.020101 
8   0.305971 
9   0.308292 
10   -0.197333 
11   -0.226064 
12   -0.225977 
13   -0.220523 
14   -0.230078 
15   0.193894 
16   0.197371 
17   0.215119 
18   0.152788 
 
$$$$ 
 
