PCCDB-ID:  8832 
public computational chemistry database (PCCDB) project, http://pccdb.org 
 
 22 21  0  0  0  0  0  0  0  0999 V2000 
    2.2442   -1.2119    2.2760 C   0  0  0  0  0  0  0  0  0  0  0  0 
    4.9341   -5.9344    3.2121 C   0  0  0  0  0  0  0  0  0  0  0  0 
    3.2520   -0.9257    0.1302 C   0  0  0  0  0  0  0  0  0  0  0  0 
    4.6825   -4.7925    1.1698 C   0  0  0  0  0  0  0  0  0  0  0  0 
    5.0123   -2.4136    0.6245 C   0  0  0  0  0  0  0  0  0  0  0  0 
    4.6297   -1.2017    0.4520 N   0  0  0  0  0  0  0  0  0  0  0  0 
    4.2481   -3.5595    0.5826 N   0  0  0  0  0  0  0  0  0  0  0  0 
    6.3276   -2.6630    0.8357 O   0  0  0  0  0  0  0  0  0  0  0  0 
    2.2604   -1.6096    0.9107 O   0  0  0  0  0  0  0  0  0  0  0  0 
    4.5166   -4.7415    2.5797 O   0  0  0  0  0  0  0  0  0  0  0  0 
    1.4020   -1.7276    2.7442 H   0  0  0  0  0  0  0  0  0  0  0  0 
    2.0964   -0.1253    2.3651 H   0  0  0  0  0  0  0  0  0  0  0  0 
    3.1709   -1.4872    2.7947 H   0  0  0  0  0  0  0  0  0  0  0  0 
    4.7610   -5.8071    4.2835 H   0  0  0  0  0  0  0  0  0  0  0  0 
    6.0048   -6.1333    3.0445 H   0  0  0  0  0  0  0  0  0  0  0  0 
    4.3610   -6.8082    2.8604 H   0  0  0  0  0  0  0  0  0  0  0  0 
    3.0210   -1.2159   -0.9043 H   0  0  0  0  0  0  0  0  0  0  0  0 
    3.0929    0.1565    0.2324 H   0  0  0  0  0  0  0  0  0  0  0  0 
    5.7324   -4.9685    0.9088 H   0  0  0  0  0  0  0  0  0  0  0  0 
    4.0727   -5.6080    0.7506 H   0  0  0  0  0  0  0  0  0  0  0  0 
    3.2581   -3.3482    0.6822 H   0  0  0  0  0  0  0  0  0  0  0  0 
    6.7497   -1.7869    0.7847 H   0  0  0  0  0  0  0  0  0  0  0  0 
  1 12  1  0  0  0  0 
  1 11  1  0  0  0  0 
  1 13  1  0  0  0  0 
  2 14  1  0  0  0  0 
  3 18  1  0  0  0  0 
  3  6  1  0  0  0  0 
  3  9  1  0  0  0  0 
  4 10  1  0  0  0  0 
  5  8  1  0  0  0  0 
  6  5  2  0  0  0  0 
  7  5  1  0  0  0  0 
  7 21  1  0  0  0  0 
  7  4  1  0  0  0  0 
  9  1  1  0  0  0  0 
 10  2  1  0  0  0  0 
 15  2  1  0  0  0  0 
 16  2  1  0  0  0  0 
 17  3  1  0  0  0  0 
 19  4  1  0  0  0  0 
 20  4  1  0  0  0  0 
 22  8  1  0  0  0  0 
M  END 
>  <HBA> 
5 
 
>  <HBD> 
2 
 
>  <TPSA> 
59.59 
 
>  <cid> 
8832 
 
>  <dipole> 
1.56 
 
>  <excitation_energy_1> 
5.9 
 
>  <excitation_energy_2> 
6.219 
 
>  <excitation_energy_3> 
6.376 
 
>  <excitation_energy_4> 
6.388 
 
>  <homo_energy> 
-6.291 
 
>  <homo_lumo_gap> 
7.442 
 
>  <logP> 
0.275 
 
>  <lumo_energy> 
1.151 
 
>  <melting_point> 
42.29 
 
>  <molecular_refractivity> 
34.51 
 
>  <oscillator_strength_1> 
0.0121 
 
>  <oscillator_strength_2> 
0.006 
 
>  <oscillator_strength_3> 
0.0942 
 
>  <oscillator_strength_4> 
0.0037 
 
>  <open_babel_can_smiles> 
COCN/C(=N\COC)/O 
 
>  <mulliken_charges> 
22 
1   -0.206873 
2   -0.198093 
3   0.054959 
4   0.100957 
5   0.706196 
6   -0.525689 
7   -0.62398 
8   -0.608007 
9   -0.47851 
10   -0.457305 
11   0.156299 
12   0.136252 
13   0.158144 
14   0.162514 
15   0.136225 
16   0.129951 
17   0.147923 
18   0.138288 
19   0.159757 
20   0.130396 
21   0.363173 
22   0.417423 
 
>  <lowdin_charges> 
22 
1   -0.283863 
2   -0.27854 
3   -0.076735 
4   -0.070199 
5   0.177016 
6   -0.314335 
7   -0.286334 
8   -0.367283 
9   -0.29045 
10   -0.28465 
11   0.155517 
12   0.135286 
13   0.146573 
14   0.15627 
15   0.132941 
16   0.131824 
17   0.140672 
18   0.135336 
19   0.146644 
20   0.134355 
21   0.29389 
22   0.366066 
 
$$$$ 
 
