PCCDB-ID:  33830 
public computational chemistry database (PCCDB) project, http://pccdb.org 
 
 34 34  0  0  0  0  0  0  0  0999 V2000 
    1.4370    1.0269    1.3493 C   0  0  0  0  0  0  0  0  0  0  0  0 
    4.2853   -0.3865   -2.3565 C   0  0  0  0  0  0  0  0  0  0  0  0 
    8.5712    1.0761   -1.8751 C   0  0  0  0  0  0  0  0  0  0  0  0 
    7.8621    0.7525    3.3644 C   0  0  0  0  0  0  0  0  0  0  0  0 
    2.3346    2.2706    1.4516 C   0  0  0  0  0  0  0  0  0  0  0  0 
    5.2597    0.7763   -2.1283 C   0  0  0  0  0  0  0  0  0  0  0  0 
    7.5627   -0.0155   -1.5131 C   0  0  0  0  0  0  0  0  0  0  0  0 
    6.7334    0.9676    2.3931 C   0  0  0  0  0  0  0  0  0  0  0  0 
    4.5528    1.6085    1.9807 C   0  0  0  0  0  0  0  0  0  0  0  0 
    6.0574    0.8086    0.2244 C   0  0  0  0  0  0  0  0  0  0  0  0 
    3.4310    2.0793    2.3800 N   0  0  0  0  0  0  0  0  0  0  0  0 
    5.6010    1.4183    2.8616 N   0  0  0  0  0  0  0  0  0  0  0  0 
    7.0439    0.6681    1.0870 N   0  0  0  0  0  0  0  0  0  0  0  0 
    4.8205    1.2362    0.6253 N   0  0  0  0  0  0  0  0  0  0  0  0 
    6.2588    0.5186   -1.0911 N   0  0  0  0  0  0  0  0  0  0  0  0 
    0.5613    1.2233    0.7191 H   0  0  0  0  0  0  0  0  0  0  0  0 
    1.0915    0.7359    2.3460 H   0  0  0  0  0  0  0  0  0  0  0  0 
    1.9777    0.1704    0.9268 H   0  0  0  0  0  0  0  0  0  0  0  0 
    3.5901   -0.1464   -3.1688 H   0  0  0  0  0  0  0  0  0  0  0  0 
    3.6977   -0.6061   -1.4584 H   0  0  0  0  0  0  0  0  0  0  0  0 
    4.8266   -1.2984   -2.6295 H   0  0  0  0  0  0  0  0  0  0  0  0 
    9.5097    0.6243   -2.2165 H   0  0  0  0  0  0  0  0  0  0  0  0 
    8.7840    1.6938   -0.9982 H   0  0  0  0  0  0  0  0  0  0  0  0 
    8.1981    1.7236   -2.6775 H   0  0  0  0  0  0  0  0  0  0  0  0 
    7.5432    1.0004    4.3776 H   0  0  0  0  0  0  0  0  0  0  0  0 
    8.7213    1.3732    3.0840 H   0  0  0  0  0  0  0  0  0  0  0  0 
    8.1986   -0.2902    3.3242 H   0  0  0  0  0  0  0  0  0  0  0  0 
    1.7295    3.1053    1.8263 H   0  0  0  0  0  0  0  0  0  0  0  0 
    2.6554    2.5807    0.4359 H   0  0  0  0  0  0  0  0  0  0  0  0 
    4.7176    1.7005   -1.8934 H   0  0  0  0  0  0  0  0  0  0  0  0 
    5.8060    0.9874   -3.0532 H   0  0  0  0  0  0  0  0  0  0  0  0 
    7.9500   -0.6259   -0.6964 H   0  0  0  0  0  0  0  0  0  0  0  0 
    7.3776   -0.6738   -2.3697 H   0  0  0  0  0  0  0  0  0  0  0  0 
    4.0555    1.2725   -0.0302 H   0  0  0  0  0  0  0  0  0  0  0  0 
  1  5  1  0  0  0  0 
  1 17  1  0  0  0  0 
  2  6  1  0  0  0  0 
  2 20  1  0  0  0  0 
  3  7  1  0  0  0  0 
  3 23  1  0  0  0  0 
  4 25  1  0  0  0  0 
  5 28  1  0  0  0  0 
  5 11  1  0  0  0  0 
  6 30  1  0  0  0  0 
  6 15  1  0  0  0  0 
  7 15  1  0  0  0  0 
  7 32  1  0  0  0  0 
  8 12  2  0  0  0  0 
  8  4  1  0  0  0  0 
  9 11  1  0  0  0  0 
  9 12  2  0  0  0  0 
 10 14  1  0  0  0  0 
 10 13  2  0  0  0  0 
 13  8  1  0  0  0  0 
 14  9  1  0  0  0  0 
 15 10  1  0  0  0  0 
 16  1  1  0  0  0  0 
 18  1  1  0  0  0  0 
 19  2  1  0  0  0  0 
 21  2  1  0  0  0  0 
 22  3  1  0  0  0  0 
 24  3  1  0  0  0  0 
 26  4  1  0  0  0  0 
 27  4  1  0  0  0  0 
 29  5  1  0  0  0  0 
 31  6  1  0  0  0  0 
 33  7  1  0  0  0  0 
 34 14  1  0  0  0  0 
M  RAD  1  11   2 
M  END 
>  <HBA> 
5 
 
>  <HBD> 
1 
 
>  <TPSA> 
53.94 
 
>  <cid> 
33830 
 
>  <dipole> 
6.96 
 
>  <excitation_energy_1> 
4.316 
 
>  <excitation_energy_2> 
4.719 
 
>  <excitation_energy_3> 
4.755 
 
>  <excitation_energy_4> 
4.963 
 
>  <homo_energy> 
-5.519 
 
>  <homo_lumo_gap> 
5.151 
 
>  <logP> 
1.531 
 
>  <lumo_energy> 
-0.367 
 
>  <melting_point> 
97.58 
 
>  <molecular_refractivity> 
62.73 
 
>  <oscillator_strength_1> 
0.0888 
 
>  <oscillator_strength_2> 
0.001 
 
>  <oscillator_strength_3> 
0.0128 
 
>  <oscillator_strength_4> 
0.0011 
 
>  <open_babel_can_smiles> 
CC[N]C1=[N]=C(C)N=C(N1)N(CC)CC 
 
>  <mulliken_charges> 
34 
1   -0.441387 
2   -0.447425 
3   -0.446755 
4   -0.500273 
5   -0.160314 
6   -0.181042 
7   -0.141894 
8   0.426168 
9   0.639611 
10   0.794089 
11   -0.453207 
12   -0.480451 
13   -0.564942 
14   -0.730293 
15   -0.458972 
16   0.13671 
17   0.170449 
18   0.130381 
19   0.158337 
20   0.160653 
21   0.165096 
22   0.150268 
23   0.180126 
24   0.142151 
25   0.17596 
26   0.163704 
27   0.162171 
28   0.151802 
29   0.088409 
30   0.158453 
31   0.169321 
32   0.192516 
33   0.14304 
34   0.347537 
 
>  <lowdin_charges> 
34 
1   -0.452949 
2   -0.457113 
3   -0.453683 
4   -0.442709 
5   -0.203994 
6   -0.201818 
7   -0.192674 
8   0.112935 
9   0.122359 
10   0.165994 
11   -0.237291 
12   -0.203895 
13   -0.278862 
14   -0.261328 
15   -0.094144 
16   0.147846 
17   0.161987 
18   0.139086 
19   0.160654 
20   0.154809 
21   0.160331 
22   0.156642 
23   0.167611 
24   0.147487 
25   0.169371 
26   0.167065 
27   0.164487 
28   0.151117 
29   0.103722 
30   0.150631 
31   0.161505 
32   0.17627 
33   0.145898 
34   0.292651 
 
$$$$ 
 
