PCCDB-ID:  47625 
public computational chemistry database (PCCDB) project, http://pccdb.org 
 
 19 19  0  0  1  0  0  0  0  0999 V2000 
    3.8634    0.3952    1.4080 C   0  0  0  0  0  0  0  0  0  0  0  0 
    3.6153    2.4826   -2.6339 C   0  0  0  0  0  0  0  0  0  0  0  0 
    2.8349    1.5644   -2.0044 C   0  0  0  0  0  0  0  0  0  0  0  0 
    4.0843    2.0686   -3.9326 C   0  0  0  0  0  0  0  0  0  0  0  0 
    4.4299    0.0014   -1.3609 C   0  0  0  0  0  0  0  0  0  0  0  0 
    3.4949    0.8680   -0.8810 C   0  0  0  0  0  0  0  0  0  0  0  0 
    4.4801    0.7556   -3.9848 C   0  0  2  0  0  0  0  0  0  0  0  0 
    4.7223   -0.2331   -2.8062 C   0  0  0  0  0  0  0  0  0  0  0  0 
    4.9467    0.1936   -5.1255 O   0  0  0  0  0  0  0  0  0  0  0  0 
    5.2718   -1.2835   -3.1129 O   0  0  0  0  0  0  0  0  0  0  0  0 
    3.1378    1.0923    0.3912 O   0  0  0  0  0  0  0  0  0  0  0  0 
    3.4725    0.7603    2.3583 H   0  0  0  0  0  0  0  0  0  0  0  0 
    4.9357    0.6093    1.3339 H   0  0  0  0  0  0  0  0  0  0  0  0 
    3.7007   -0.6857    1.3287 H   0  0  0  0  0  0  0  0  0  0  0  0 
    4.1842    3.2239   -2.0680 H   0  0  0  0  0  0  0  0  0  0  0  0 
    2.2267    0.9171   -2.6349 H   0  0  0  0  0  0  0  0  0  0  0  0 
    4.3158    2.7443   -4.7585 H   0  0  0  0  0  0  0  0  0  0  0  0 
    4.9366   -0.7232   -0.7299 H   0  0  0  0  0  0  0  0  0  0  0  0 
    4.8022    0.8183   -5.8550 H   0  0  0  0  0  0  0  0  0  0  0  0 
  1 12  1  0  0  0  0 
  2 15  1  0  0  0  0 
  2  3  1  0  0  0  0 
  3  6  1  0  0  0  0 
  4  2  1  0  0  0  0 
  5  6  2  0  0  0  0 
  5 18  1  0  0  0  0 
  6 11  1  0  0  0  0 
  7  9  1  1  0  0  0 
  7  4  1  0  0  0  0 
  7  8  1  0  0  0  0 
  8  5  1  0  0  0  0 
 10  8  2  0  0  0  0 
 11  1  1  0  0  0  0 
 13  1  1  0  0  0  0 
 14  1  1  0  0  0  0 
 16  3  1  0  0  0  0 
 17  4  1  0  0  0  0 
 19  9  1  0  0  0  0 
M  END 
>  <HBA> 
3 
 
>  <HBD> 
1 
 
>  <TPSA> 
46.53 
 
>  <cid> 
47625 
 
>  <dipole> 
2.93 
 
>  <excitation_energy_1> 
3.43 
 
>  <excitation_energy_2> 
3.673 
 
>  <excitation_energy_3> 
3.884 
 
>  <excitation_energy_4> 
4.483 
 
>  <homo_energy> 
-6.169 
 
>  <homo_lumo_gap> 
4.384 
 
>  <logP> 
0.761 
 
>  <lumo_energy> 
-1.785 
 
>  <melting_point> 
84.84 
 
>  <molecular_refractivity> 
41.23 
 
>  <oscillator_strength_1> 
0.0014 
 
>  <oscillator_strength_2> 
0.0039 
 
>  <oscillator_strength_3> 
0.0648 
 
>  <oscillator_strength_4> 
0.0333 
 
>  <open_babel_can_smiles> 
COC1=CC(=O)[C@@H](CCC1)O 
 
>  <mulliken_charges> 
19 
1   -0.227411 
2   -0.109413 
3   -0.240537 
4   -0.221191 
5   -0.273768 
6   0.366502 
7   0.277953 
8   0.424148 
9   -0.577998 
10   -0.466371 
11   -0.463258 
12   0.177488 
13   0.166835 
14   0.168384 
15   0.14968 
16   0.163945 
17   0.127934 
18   0.146576 
19   0.410505 
 
>  <lowdin_charges> 
19 
1   -0.273562 
2   -0.129458 
3   -0.190453 
4   -0.227965 
5   -0.283774 
6   0.122427 
7   0.083081 
8   0.140176 
9   -0.334631 
10   -0.235561 
11   -0.16233 
12   0.167176 
13   0.153957 
14   0.153815 
15   0.161568 
16   0.168989 
17   0.153211 
18   0.172937 
19   0.360398 
 
$$$$ 
 
