PCCDB-ID:  21037 
public computational chemistry database (PCCDB) project, http://pccdb.org 
 
 19 19  0  0  1  0  0  0  0  0999 V2000 
    0.9789    0.3025   -0.0100 C   0  0  0  0  0  0  0  0  0  0  0  0 
    3.5763    1.1358   -0.1301 C   0  0  0  0  0  0  0  0  0  0  0  0 
    2.4570    0.1135   -0.0093 C   0  0  0  0  0  0  0  0  0  0  0  0 
    4.5660   -0.0648    0.0146 C   0  0  2  0  0  0  0  0  0  0  0  0 
    3.3135   -0.9299    0.1097 C   0  0  0  0  0  0  0  0  0  0  0  0 
    5.5189    0.0012    1.2122 C   0  0  0  0  0  0  0  0  0  0  0  0 
    3.2209   -2.3830    0.2976 C   0  0  0  0  0  0  0  0  0  0  0  0 
    5.9000    1.0514    1.6760 O   0  0  0  0  0  0  0  0  0  0  0  0 
    5.9472   -1.1783    1.6843 O   0  0  0  0  0  0  0  0  0  0  0  0 
    4.1781   -3.0522    0.6534 O   0  0  0  0  0  0  0  0  0  0  0  0 
    2.0370   -2.9905    0.0632 O   0  0  0  0  0  0  0  0  0  0  0  0 
    0.6973    1.0806    0.7103 H   0  0  0  0  0  0  0  0  0  0  0  0 
    0.4265   -0.6058    0.2568 H   0  0  0  0  0  0  0  0  0  0  0  0 
    0.6298    0.6452   -0.9934 H   0  0  0  0  0  0  0  0  0  0  0  0 
    3.6486    1.8615    0.6853 H   0  0  0  0  0  0  0  0  0  0  0  0 
    3.6211    1.6680   -1.0874 H   0  0  0  0  0  0  0  0  0  0  0  0 
    5.1680   -0.2583   -0.8837 H   0  0  0  0  0  0  0  0  0  0  0  0 
    5.4578   -1.9302    1.2696 H   0  0  0  0  0  0  0  0  0  0  0  0 
    1.4088   -2.3552   -0.3176 H   0  0  0  0  0  0  0  0  0  0  0  0 
  1  3  1  0  0  0  0 
  1 13  1  0  0  0  0 
  1 12  1  0  0  0  0 
  2  3  1  0  0  0  0 
  2  4  1  0  0  0  0 
  2 15  1  0  0  0  0 
  3  5  2  0  0  0  0 
  4 17  1  6  0  0  0 
  4  5  1  0  0  0  0 
  4  6  1  0  0  0  0 
  5  7  1  0  0  0  0 
  6  8  2  0  0  0  0 
  6  9  1  0  0  0  0 
  7 10  2  0  0  0  0 
 11  7  1  0  0  0  0 
 14  1  1  0  0  0  0 
 16  2  1  0  0  0  0 
 18  9  1  0  0  0  0 
 19 11  1  0  0  0  0 
M  END 
>  <HBA> 
4 
 
>  <HBD> 
2 
 
>  <TPSA> 
74.6 
 
>  <cid> 
21037 
 
>  <dipole> 
7.31 
 
>  <excitation_energy_1> 
4.368 
 
>  <excitation_energy_2> 
4.862 
 
>  <excitation_energy_3> 
5.479 
 
>  <excitation_energy_4> 
5.507 
 
>  <homo_energy> 
-6.914 
 
>  <homo_lumo_gap> 
4.931 
 
>  <logP> 
0.492 
 
>  <lumo_energy> 
-1.984 
 
>  <melting_point> 
166.3 
 
>  <molecular_refractivity> 
36.72 
 
>  <oscillator_strength_1> 
0.0295 
 
>  <oscillator_strength_2> 
0.0097 
 
>  <oscillator_strength_3> 
0.0018 
 
>  <oscillator_strength_4> 
0.0237 
 
>  <open_babel_can_smiles> 
OC(=O)[C@@H]1CC(=C1C(=O)O)C 
 
>  <mulliken_charges> 
19 
1   -0.552225 
2   -0.329314 
3   0.121672 
4   -0.289967 
5   -0.003238 
6   0.593023 
7   0.59498 
8   -0.450971 
9   -0.590452 
10   -0.477674 
11   -0.567823 
12   0.195286 
13   0.156969 
14   0.186922 
15   0.196429 
16   0.163513 
17   0.184963 
18   0.447209 
19   0.420699 
 
>  <lowdin_charges> 
19 
1   -0.45263 
2   -0.266772 
3   0.03278 
4   -0.157199 
5   -0.103072 
6   0.188479 
7   0.203258 
8   -0.255799 
9   -0.35841 
10   -0.256332 
11   -0.335107 
12   0.183469 
13   0.158143 
14   0.177585 
15   0.179617 
16   0.161954 
17   0.172941 
18   0.362904 
19   0.364192 
 
$$$$ 
 
