PCCDB-ID:  66289 
public computational chemistry database (PCCDB) project, http://pccdb.org 
 
 14 13  0  0  0  0  0  0  0  0999 V2000 
    2.0102   -0.5370   -2.0996 C   0  0  0  0  0  0  0  0  0  0  0  0 
    5.4322    3.4685   -0.1927 C   0  0  0  0  0  0  0  0  0  0  0  0 
    1.6521    2.4204   -1.4307 C   0  0  0  0  0  0  0  0  0  0  0  0 
    3.6835    1.4285   -0.8909 C   0  0  0  0  0  0  0  0  0  0  0  0 
    0.5011    2.5245   -1.6166 N   0  0  0  0  0  0  0  0  0  0  0  0 
    2.9624    2.4471   -1.2197 N   0  0  0  0  0  0  0  0  0  0  0  0 
    3.2539   -0.2953   -0.7717 S   0  0  0  0  0  0  0  0  0  0  0  0 
    5.3691    1.6584   -0.4340 S   0  0  0  0  0  0  0  0  0  0  0  0 
    1.8904   -1.6214   -2.1678 H   0  0  0  0  0  0  0  0  0  0  0  0 
    2.3902   -0.1583   -3.0504 H   0  0  0  0  0  0  0  0  0  0  0  0 
    1.0565   -0.0701   -1.8575 H   0  0  0  0  0  0  0  0  0  0  0  0 
    6.4490    3.6888    0.1415 H   0  0  0  0  0  0  0  0  0  0  0  0 
    4.7124    3.7771    0.5676 H   0  0  0  0  0  0  0  0  0  0  0  0 
    5.2239    3.9833   -1.1313 H   0  0  0  0  0  0  0  0  0  0  0  0 
  1 11  1  0  0  0  0 
  1  7  1  0  0  0  0 
  2 12  1  0  0  0  0 
  2 13  1  0  0  0  0 
  3  6  1  0  0  0  0 
  4  7  1  0  0  0  0 
  4  8  1  0  0  0  0 
  5  3  3  0  0  0  0 
  6  4  2  0  0  0  0 
  8  2  1  0  0  0  0 
  9  1  1  0  0  0  0 
 10  1  1  0  0  0  0 
 14  2  1  0  0  0  0 
M  END 
>  <HBA> 
4 
 
>  <HBD> 
0 
 
>  <TPSA> 
86.75 
 
>  <cid> 
66289 
 
>  <dipole> 
3.48 
 
>  <excitation_energy_1> 
4.215 
 
>  <excitation_energy_2> 
4.615 
 
>  <excitation_energy_3> 
4.816 
 
>  <excitation_energy_4> 
5.574 
 
>  <homo_energy> 
-7.086 
 
>  <homo_lumo_gap> 
5.195 
 
>  <logP> 
1.549 
 
>  <lumo_energy> 
-1.891 
 
>  <melting_point> 
44.47 
 
>  <molecular_refractivity> 
39.96 
 
>  <oscillator_strength_1> 
0.0104 
 
>  <oscillator_strength_2> 
0.0724 
 
>  <oscillator_strength_3> 
0.2811 
 
>  <oscillator_strength_4> 
0.0019 
 
>  <open_babel_can_smiles> 
CSC(=NC#N)SC 
 
>  <mulliken_charges> 
14 
1   -0.618188 
2   -0.594892 
3   0.506448 
4   -0.064416 
5   -0.477801 
6   -0.43818 
7   0.204382 
8   0.223352 
9   0.200562 
10   0.204425 
11   0.236999 
12   0.193312 
13   0.208329 
14   0.215669 
 
>  <lowdin_charges> 
14 
1   -0.543263 
2   -0.540408 
3   0.00597 
4   -0.147222 
5   -0.173249 
6   -0.164268 
7   0.208088 
8   0.241158 
9   0.185142 
10   0.181384 
11   0.194762 
12   0.182072 
13   0.184322 
14   0.185511 
 
$$$$ 
 
