PCCDB-ID:  7904 
public computational chemistry database (PCCDB) project, http://pccdb.org 
 
 12 11  0  0  0  0  0  0  0  0999 V2000 
    0.9133    0.8538   -0.2031 C   0  0  0  0  0  0  0  0  0  0  0  0 
    5.4849   -0.2660   -0.1789 C   0  0  0  0  0  0  0  0  0  0  0  0 
    2.0990    1.0105    0.3745 C   0  0  0  0  0  0  0  0  0  0  0  0 
    4.4115    0.5440    0.5017 C   0  0  0  0  0  0  0  0  0  0  0  0 
    4.5625    1.2703    1.4543 O   0  0  0  0  0  0  0  0  0  0  0  0 
    3.2064    0.3413   -0.1204 O   0  0  0  0  0  0  0  0  0  0  0  0 
    0.0499    1.3786    0.1889 H   0  0  0  0  0  0  0  0  0  0  0  0 
    0.7769    0.2094   -1.0655 H   0  0  0  0  0  0  0  0  0  0  0  0 
    6.4390   -0.0948    0.3201 H   0  0  0  0  0  0  0  0  0  0  0  0 
    5.5581    0.0175   -1.2340 H   0  0  0  0  0  0  0  0  0  0  0  0 
    5.2310   -1.3307   -0.1442 H   0  0  0  0  0  0  0  0  0  0  0  0 
    2.3027    1.6365    1.2353 H   0  0  0  0  0  0  0  0  0  0  0  0 
  1  7  1  0  0  0  0 
  1  3  2  0  0  0  0 
  2 11  1  0  0  0  0 
  2  9  1  0  0  0  0 
  2  4  1  0  0  0  0 
  3 12  1  0  0  0  0 
  4  5  2  0  0  0  0 
  6  3  1  0  0  0  0 
  6  4  1  0  0  0  0 
  8  1  1  0  0  0  0 
 10  2  1  0  0  0  0 
M  END 
>  <HBA> 
2 
 
>  <HBD> 
0 
 
>  <TPSA> 
26.3 
 
>  <cid> 
7904 
 
>  <dipole> 
1.68 
 
>  <excitation_energy_1> 
5.665 
 
>  <excitation_energy_2> 
5.932 
 
>  <excitation_energy_3> 
6.494 
 
>  <excitation_energy_4> 
6.937 
 
>  <homo_energy> 
-6.789 
 
>  <homo_lumo_gap> 
6.506 
 
>  <logP> 
0.693 
 
>  <lumo_energy> 
-0.283 
 
>  <melting_point> 
-33.39 
 
>  <molecular_refractivity> 
22.15 
 
>  <oscillator_strength_1> 
0.0011 
 
>  <oscillator_strength_2> 
0.2915 
 
>  <oscillator_strength_3> 
0.0386 
 
>  <oscillator_strength_4> 
0.0279 
 
>  <open_babel_can_smiles> 
CC(=O)OC=C 
 
>  <mulliken_charges> 
12 
1   -0.387655 
2   -0.529377 
3   0.154304 
4   0.606905 
5   -0.45121 
6   -0.448086 
7   0.15504 
8   0.15504 
9   0.186587 
10   0.187533 
11   0.187634 
12   0.183285 
 
>  <lowdin_charges> 
12 
1   -0.363338 
2   -0.460227 
3   -0.036211 
4   0.208518 
5   -0.245915 
6   -0.158357 
7   0.173612 
8   0.169677 
9   0.178106 
10   0.179901 
11   0.179868 
12   0.174366 
 
$$$$ 
 
