PCCDB-ID:  7755 
public computational chemistry database (PCCDB) project, http://pccdb.org 
 
 20 19  0  0  1  0  0  0  0  0999 V2000 
    0.6392   -0.3143   -0.0519 C   0  0  0  0  0  0  0  0  0  0  0  0 
    2.2372    1.0021    2.3337 C   0  0  0  0  0  0  0  0  0  0  0  0 
    1.9530   -0.8178    0.5562 C   0  0  0  0  0  0  0  0  0  0  0  0 
    4.2417   -0.2748    1.5030 C   0  0  0  0  0  0  0  0  0  0  0  0 
    2.8624    0.2910    1.1244 C   0  0  2  0  0  0  0  0  0  0  0  0 
    5.1026   -0.6700    0.3067 C   0  0  0  0  0  0  0  0  0  0  0  0 
    4.8658   -0.3918   -0.8419 O   0  0  0  0  0  0  0  0  0  0  0  0 
    6.2366   -1.3627    0.6129 O   0  0  0  0  0  0  0  0  0  0  0  0 
    0.0711   -1.1446   -0.4863 H   0  0  0  0  0  0  0  0  0  0  0  0 
    0.8301    0.4101   -0.8528 H   0  0  0  0  0  0  0  0  0  0  0  0 
   -0.0051    0.1686    0.6911 H   0  0  0  0  0  0  0  0  0  0  0  0 
    1.2793    1.4647    2.0765 H   0  0  0  0  0  0  0  0  0  0  0  0 
    2.8933    1.7953    2.7122 H   0  0  0  0  0  0  0  0  0  0  0  0 
    2.0555    0.2984    3.1571 H   0  0  0  0  0  0  0  0  0  0  0  0 
    2.5086   -1.3588   -0.2180 H   0  0  0  0  0  0  0  0  0  0  0  0 
    1.7346   -1.5430    1.3553 H   0  0  0  0  0  0  0  0  0  0  0  0 
    4.1277   -1.1431    2.1699 H   0  0  0  0  0  0  0  0  0  0  0  0 
    4.8145    0.4718    2.0739 H   0  0  0  0  0  0  0  0  0  0  0  0 
    3.0290    1.0288    0.3284 H   0  0  0  0  0  0  0  0  0  0  0  0 
    6.2843   -1.5124    1.5718 H   0  0  0  0  0  0  0  0  0  0  0  0 
  1  3  1  0  0  0  0 
  1 11  1  0  0  0  0 
  2 13  1  0  0  0  0 
  2 14  1  0  0  0  0 
  3  5  1  0  0  0  0 
  3 16  1  0  0  0  0 
  4 18  1  0  0  0  0 
  4 17  1  0  0  0  0 
  5 19  1  6  0  0  0 
  5  4  1  0  0  0  0 
  5  2  1  0  0  0  0 
  6  8  1  0  0  0  0 
  6  4  1  0  0  0  0 
  7  6  2  0  0  0  0 
  8 20  1  0  0  0  0 
  9  1  1  0  0  0  0 
 10  1  1  0  0  0  0 
 12  2  1  0  0  0  0 
 15  3  1  0  0  0  0 
M  END 
>  <HBA> 
2 
 
>  <HBD> 
1 
 
>  <TPSA> 
37.3 
 
>  <cid> 
7755 
 
>  <dipole> 
3.95 
 
>  <excitation_energy_1> 
5.724 
 
>  <excitation_energy_2> 
6.438 
 
>  <excitation_energy_3> 
7.35 
 
>  <excitation_energy_4> 
7.448 
 
>  <homo_energy> 
-7.372 
 
>  <homo_lumo_gap> 
7.66 
 
>  <logP> 
1.507 
 
>  <lumo_energy> 
0.288 
 
>  <melting_point> 
50.6 
 
>  <molecular_refractivity> 
32.73 
 
>  <oscillator_strength_1> 
0.0004 
 
>  <oscillator_strength_2> 
0.0165 
 
>  <oscillator_strength_3> 
0.0097 
 
>  <oscillator_strength_4> 
0.0041 
 
>  <open_babel_can_smiles> 
C[C@H](CC)CC(=O)O 
 
>  <mulliken_charges> 
20 
1   -0.450699 
2   -0.457186 
3   -0.25648 
4   -0.405331 
5   -0.057132 
6   0.607221 
7   -0.439371 
8   -0.568021 
9   0.145301 
10   0.151079 
11   0.142675 
12   0.154437 
13   0.140262 
14   0.13759 
15   0.15666 
16   0.119573 
17   0.150454 
18   0.169609 
19   0.151518 
20   0.407841 
 
>  <lowdin_charges> 
20 
1   -0.448254 
2   -0.44795 
3   -0.279294 
4   -0.324938 
5   -0.120438 
6   0.194939 
7   -0.237868 
8   -0.357718 
9   0.153287 
10   0.152024 
11   0.146747 
12   0.154785 
13   0.148814 
14   0.145327 
15   0.155474 
16   0.13429 
17   0.154501 
18   0.167968 
19   0.153592 
20   0.354712 
 
$$$$ 
 
