PCCDB-ID:  8530 
public computational chemistry database (PCCDB) project, http://pccdb.org 
 
 18 19  0  0  0  0  0  0  0  0999 V2000 
    2.4531    0.7353    0.0001 C   0  0  0  0  0  0  0  0  0  0  0  0 
    2.4688   -0.6640   -0.0005 C   0  0  0  0  0  0  0  0  0  0  0  0 
    1.2405    1.4221   -0.0002 C   0  0  0  0  0  0  0  0  0  0  0  0 
    1.2720   -1.3780   -0.0011 C   0  0  0  0  0  0  0  0  0  0  0  0 
   -2.5053    0.6515   -0.0001 C   0  0  0  0  0  0  0  0  0  0  0  0 
   -2.4902   -0.6921    0.0005 C   0  0  0  0  0  0  0  0  0  0  0  0 
    0.0356    0.7128   -0.0011 C   0  0  0  0  0  0  0  0  0  0  0  0 
    0.0515   -0.6960   -0.0012 C   0  0  0  0  0  0  0  0  0  0  0  0 
   -1.2575    1.4567   -0.0019 C   0  0  0  0  0  0  0  0  0  0  0  0 
   -1.2245   -1.4689   -0.0011 C   0  0  0  0  0  0  0  0  0  0  0  0 
   -1.3081    2.6813   -0.0039 O   0  0  0  0  0  0  0  0  0  0  0  0 
   -1.2474   -2.6944   -0.0020 O   0  0  0  0  0  0  0  0  0  0  0  0 
    3.3881    1.2885    0.0006 H   0  0  0  0  0  0  0  0  0  0  0  0 
    3.4161   -1.1960   -0.0005 H   0  0  0  0  0  0  0  0  0  0  0  0 
    1.2031    2.5067   -0.0000 H   0  0  0  0  0  0  0  0  0  0  0  0 
    1.2590   -2.4632   -0.0014 H   0  0  0  0  0  0  0  0  0  0  0  0 
   -3.4294    1.2231    0.0010 H   0  0  0  0  0  0  0  0  0  0  0  0 
   -3.4011   -1.2844    0.0016 H   0  0  0  0  0  0  0  0  0  0  0  0 
  1 13  1  0  0  0  0 
  2 14  1  0  0  0  0 
  2  1  2  0  0  0  0 
  3 15  1  0  0  0  0 
  3  1  1  0  0  0  0 
  4  2  1  0  0  0  0 
  5  6  2  0  0  0  0 
  5 17  1  0  0  0  0 
  6 18  1  0  0  0  0 
  7  3  2  0  0  0  0 
  8  4  2  0  0  0  0 
  8  7  1  0  0  0  0 
  8 10  1  0  0  0  0 
  9  7  1  0  0  0  0 
  9  5  1  0  0  0  0 
 10  6  1  0  0  0  0 
 11  9  2  0  0  0  0 
 12 10  2  0  0  0  0 
 16  4  1  0  0  0  0 
M  END 
>  <HBA> 
2 
 
>  <HBD> 
0 
 
>  <TPSA> 
34.14 
 
>  <cid> 
8530 
 
>  <dipole> 
1.37 
 
>  <excitation_energy_1> 
2.721 
 
>  <excitation_energy_2> 
2.945 
 
>  <excitation_energy_3> 
3.536 
 
>  <excitation_energy_4> 
3.571 
 
>  <homo_energy> 
-7.173 
 
>  <homo_lumo_gap> 
4.003 
 
>  <logP> 
1.622 
 
>  <lumo_energy> 
-3.17 
 
>  <melting_point> 
106.48 
 
>  <molecular_refractivity> 
44.24 
 
>  <oscillator_strength_1> 
0.0 
 
>  <oscillator_strength_2> 
0.0 
 
>  <oscillator_strength_3> 
0.0116 
 
>  <oscillator_strength_4> 
0.0546 
 
>  <open_babel_can_smiles> 
O=C1C=CC(=O)c2c1cccc2 
 
>  <mulliken_charges> 
18 
1   -0.12351 
2   -0.123608 
3   -0.171572 
4   -0.171492 
5   -0.159239 
6   -0.159344 
7   0.040242 
8   0.040197 
9   0.395176 
10   0.395243 
11   -0.466515 
12   -0.466514 
13   0.147843 
14   0.147822 
15   0.169967 
16   0.169978 
17   0.167653 
18   0.167674 
 
>  <lowdin_charges> 
18 
1   -0.138359 
2   -0.138197 
3   -0.123884 
4   -0.123873 
5   -0.147852 
6   -0.147972 
7   -0.038247 
8   -0.038282 
9   0.146521 
10   0.146517 
11   -0.223577 
12   -0.223565 
13   0.166866 
14   0.166737 
15   0.177794 
16   0.177788 
17   0.18074 
18   0.180844 
 
$$$$ 
 
