PCCDB-ID:  10821 
public computational chemistry database (PCCDB) project, http://pccdb.org 
 
 14 14  0  0  0  0  0  0  0  0999 V2000 
    0.9068    0.0149    0.0191 C   0  0  0  0  0  0  0  0  0  0  0  0 
    2.1146    0.0233   -0.0557 C   0  0  0  0  0  0  0  0  0  0  0  0 
    6.3449    0.0550   -0.3002 C   0  0  0  0  0  0  0  0  0  0  0  0 
    5.6545   -1.1588   -0.2636 C   0  0  0  0  0  0  0  0  0  0  0  0 
    5.6364    1.2581   -0.2600 C   0  0  0  0  0  0  0  0  0  0  0  0 
    4.2642   -1.1739   -0.1846 C   0  0  0  0  0  0  0  0  0  0  0  0 
    4.2460    1.2521   -0.1805 C   0  0  0  0  0  0  0  0  0  0  0  0 
    3.5418    0.0337   -0.1410 C   0  0  0  0  0  0  0  0  0  0  0  0 
   -0.1574    0.0075    0.0849 H   0  0  0  0  0  0  0  0  0  0  0  0 
    7.4297    0.0631   -0.3618 H   0  0  0  0  0  0  0  0  0  0  0  0 
    6.2009   -2.0976   -0.2950 H   0  0  0  0  0  0  0  0  0  0  0  0 
    6.1684    2.2052   -0.2883 H   0  0  0  0  0  0  0  0  0  0  0  0 
    3.7231   -2.1146   -0.1535 H   0  0  0  0  0  0  0  0  0  0  0  0 
    3.6907    2.1843   -0.1465 H   0  0  0  0  0  0  0  0  0  0  0  0 
  1  9  1  0  0  0  0 
  2  1  3  0  0  0  0 
  3  4  2  0  0  0  0 
  3  5  1  0  0  0  0 
  4  6  1  0  0  0  0 
  5  7  2  0  0  0  0 
  6 13  1  0  0  0  0 
  6  8  2  0  0  0  0 
  7 14  1  0  0  0  0 
  7  8  1  0  0  0  0 
  8  2  1  0  0  0  0 
 10  3  1  0  0  0  0 
 11  4  1  0  0  0  0 
 12  5  1  0  0  0  0 
M  END 
>  <HBA> 
0 
 
>  <HBD> 
0 
 
>  <TPSA> 
0.0 
 
>  <cid> 
10821 
 
>  <dipole> 
0.62 
 
>  <excitation_energy_1> 
4.957 
 
>  <excitation_energy_2> 
5.091 
 
>  <excitation_energy_3> 
5.318 
 
>  <excitation_energy_4> 
5.937 
 
>  <homo_energy> 
-6.286 
 
>  <homo_lumo_gap> 
5.508 
 
>  <logP> 
1.668 
 
>  <lumo_energy> 
-0.778 
 
>  <melting_point> 
23.84 
 
>  <molecular_refractivity> 
34.38 
 
>  <oscillator_strength_1> 
0.0003 
 
>  <oscillator_strength_2> 
0.3259 
 
>  <oscillator_strength_3> 
0.0 
 
>  <oscillator_strength_4> 
0.0081 
 
>  <open_babel_can_smiles> 
C#Cc1ccccc1 
 
>  <mulliken_charges> 
14 
1   -0.600498 
2   0.36165 
3   -0.121855 
4   -0.134405 
5   -0.134344 
6   -0.136513 
7   -0.136461 
8   0.01195 
9   0.198556 
10   0.134255 
11   0.135474 
12   0.135453 
13   0.143361 
14   0.143374 
 
>  <lowdin_charges> 
14 
1   -0.242478 
2   -0.033713 
3   -0.148337 
4   -0.154404 
5   -0.154294 
6   -0.144335 
7   -0.144424 
8   0.002559 
9   0.205339 
10   0.158162 
11   0.161124 
12   0.161042 
13   0.166837 
14   0.166923 
 
$$$$ 
 
