PCCDB-ID:  65351 
public computational chemistry database (PCCDB) project, http://pccdb.org 
 
 17 17  0  0  0  0  0  0  0  0999 V2000 
   -0.6202   -1.1396   -0.4185 C   0  0  0  0  0  0  0  0  0  0  0  0 
    0.6770   -1.0293    0.3961 C   0  0  0  0  0  0  0  0  0  0  0  0 
   -1.2082    0.2765   -0.3370 C   0  0  0  0  0  0  0  0  0  0  0  0 
    1.2067    0.3606    0.0274 C   0  0  0  0  0  0  0  0  0  0  0  0 
    0.0282    2.4800   -0.3924 C   0  0  0  0  0  0  0  0  0  0  0  0 
   -0.0214    1.1456   -0.2247 N   0  0  0  0  0  0  0  0  0  0  0  0 
    1.4354    3.3786   -0.4380 S   0  0  0  0  0  0  0  0  0  0  0  0 
   -1.4918    3.4035   -0.6012 S   0  0  0  0  0  0  0  0  0  0  0  0 
   -1.3138   -1.8950   -0.0384 H   0  0  0  0  0  0  0  0  0  0  0  0 
   -0.3922   -1.3860   -1.4620 H   0  0  0  0  0  0  0  0  0  0  0  0 
    1.3973   -1.8194    0.1660 H   0  0  0  0  0  0  0  0  0  0  0  0 
    0.4569   -1.0773    1.4693 H   0  0  0  0  0  0  0  0  0  0  0  0 
   -1.8497    0.3899    0.5487 H   0  0  0  0  0  0  0  0  0  0  0  0 
   -1.7950    0.5389   -1.2225 H   0  0  0  0  0  0  0  0  0  0  0  0 
    1.8236    0.3481   -0.8796 H   0  0  0  0  0  0  0  0  0  0  0  0 
    1.7941    0.8398    0.8139 H   0  0  0  0  0  0  0  0  0  0  0  0 
   -2.4178    2.4615   -0.3010 H   0  0  0  0  0  0  0  0  0  0  0  0 
  1  3  1  0  0  0  0 
  1  9  1  0  0  0  0 
  1  2  1  0  0  0  0 
  2 12  1  0  0  0  0 
  3  6  1  0  0  0  0 
  3 13  1  0  0  0  0 
  4  2  1  0  0  0  0 
  4 16  1  0  0  0  0 
  5  6  1  0  0  0  0 
  6  4  1  0  0  0  0 
  7  5  2  0  0  0  0 
  8  5  1  0  0  0  0 
  8 17  1  0  0  0  0 
 10  1  1  0  0  0  0 
 11  2  1  0  0  0  0 
 14  3  1  0  0  0  0 
 15  4  1  0  0  0  0 
M  END 
>  <HBA> 
3 
 
>  <HBD> 
1 
 
>  <TPSA> 
74.13 
 
>  <cid> 
65351 
 
>  <dipole> 
6.34 
 
>  <excitation_energy_1> 
3.549 
 
>  <excitation_energy_2> 
4.646 
 
>  <excitation_energy_3> 
4.915 
 
>  <excitation_energy_4> 
5.028 
 
>  <homo_energy> 
-5.646 
 
>  <homo_lumo_gap> 
4.893 
 
>  <logP> 
1.235 
 
>  <lumo_energy> 
-0.754 
 
>  <melting_point> 
49.94 
 
>  <molecular_refractivity> 
46.57 
 
>  <oscillator_strength_1> 
0.0004 
 
>  <oscillator_strength_2> 
0.0436 
 
>  <oscillator_strength_3> 
0.0903 
 
>  <oscillator_strength_4> 
0.0073 
 
>  <open_babel_can_smiles> 
SC(=S)N1CCCC1 
 
>  <mulliken_charges> 
17 
1   -0.299984 
2   -0.30337 
3   -0.145198 
4   -0.11331 
5   -0.029078 
6   -0.350021 
7   -0.229453 
8   0.049247 
9   0.158366 
10   0.162233 
11   0.160189 
12   0.157092 
13   0.165429 
14   0.174373 
15   0.178576 
16   0.192522 
17   0.072388 
 
>  <lowdin_charges> 
17 
1   -0.280815 
2   -0.283256 
3   -0.204377 
4   -0.19156 
5   -0.158168 
6   -0.077307 
7   -0.209844 
8   0.026952 
9   0.159934 
10   0.154091 
11   0.161042 
12   0.150801 
13   0.150359 
14   0.162148 
15   0.161751 
16   0.17528 
17   0.102968 
 
$$$$ 
 
