PCCDB-ID:  11138 
public computational chemistry database (PCCDB) project, http://pccdb.org 
 
 21 21  0  0  0  0  0  0  0  0999 V2000 
   -0.6798    1.2335    0.1090 C   0  0  0  0  0  0  0  0  0  0  0  0 
   -0.8191   -1.1755    0.1102 C   0  0  0  0  0  0  0  0  0  0  0  0 
    1.3355   -0.0910    0.0412 C   0  0  0  0  0  0  0  0  0  0  0  0 
   -1.4545    0.0645    0.1413 C   0  0  0  0  0  0  0  0  0  0  0  0 
    0.7120    1.1649    0.0810 C   0  0  0  0  0  0  0  0  0  0  0  0 
    0.5793   -1.2616    0.0454 C   0  0  0  0  0  0  0  0  0  0  0  0 
   -2.9495    0.2450    0.1763 C   0  0  0  0  0  0  0  0  0  0  0  0 
    1.6162    2.3692    0.0522 C   0  0  0  0  0  0  0  0  0  0  0  0 
    1.1733   -2.6450    0.0181 C   0  0  0  0  0  0  0  0  0  0  0  0 
   -3.4728    1.3081   -0.0606 O   0  0  0  0  0  0  0  0  0  0  0  0 
   -3.7042   -0.8328    0.4889 O   0  0  0  0  0  0  0  0  0  0  0  0 
    2.7890    2.2829   -0.2262 O   0  0  0  0  0  0  0  0  0  0  0  0 
    1.0721    3.5705    0.3507 O   0  0  0  0  0  0  0  0  0  0  0  0 
    0.5328   -3.6240    0.3206 O   0  0  0  0  0  0  0  0  0  0  0  0 
    2.4668   -2.7630   -0.3587 O   0  0  0  0  0  0  0  0  0  0  0  0 
   -1.2238    2.1738    0.0826 H   0  0  0  0  0  0  0  0  0  0  0  0 
   -1.3638   -2.1154    0.1079 H   0  0  0  0  0  0  0  0  0  0  0  0 
    2.4217   -0.0953    0.0264 H   0  0  0  0  0  0  0  0  0  0  0  0 
   -3.1545   -1.5819    0.7707 H   0  0  0  0  0  0  0  0  0  0  0  0 
    0.1561    3.4784    0.6588 H   0  0  0  0  0  0  0  0  0  0  0  0 
    2.8158   -1.9210   -0.6938 H   0  0  0  0  0  0  0  0  0  0  0  0 
  1  4  1  0  0  0  0 
  2  4  2  0  0  0  0 
  3  6  2  0  0  0  0 
  3  5  1  0  0  0  0 
  4  7  1  0  0  0  0 
  5  1  2  0  0  0  0 
  6  2  1  0  0  0  0 
  7 11  1  0  0  0  0 
  8  5  1  0  0  0  0 
  8 13  1  0  0  0  0 
  9  6  1  0  0  0  0 
  9 14  2  0  0  0  0 
 10  7  2  0  0  0  0 
 11 19  1  0  0  0  0 
 12  8  2  0  0  0  0 
 13 20  1  0  0  0  0 
 15  9  1  0  0  0  0 
 16  1  1  0  0  0  0 
 17  2  1  0  0  0  0 
 18  3  1  0  0  0  0 
 21 15  1  0  0  0  0 
M  END 
>  <HBA> 
6 
 
>  <HBD> 
3 
 
>  <TPSA> 
111.9 
 
>  <cid> 
11138 
 
>  <dipole> 
0.71 
 
>  <excitation_energy_1> 
4.445 
 
>  <excitation_energy_2> 
4.503 
 
>  <excitation_energy_3> 
4.517 
 
>  <excitation_energy_4> 
4.646 
 
>  <homo_energy> 
-8.101 
 
>  <homo_lumo_gap> 
5.532 
 
>  <logP> 
0.781 
 
>  <lumo_energy> 
-2.569 
 
>  <melting_point> 
279.31 
 
>  <molecular_refractivity> 
47.32 
 
>  <oscillator_strength_1> 
0.0032 
 
>  <oscillator_strength_2> 
0.001 
 
>  <oscillator_strength_3> 
0.0028 
 
>  <oscillator_strength_4> 
0.0003 
 
>  <open_babel_can_smiles> 
OC(=O)c1cc(cc(c1)C(=O)O)C(=O)O 
 
>  <mulliken_charges> 
21 
1   -0.224916 
2   -0.222394 
3   -0.222741 
4   0.053009 
5   0.054235 
6   0.053526 
7   0.578721 
8   0.579087 
9   0.577312 
10   -0.442665 
11   -0.568368 
12   -0.443493 
13   -0.567929 
14   -0.442766 
15   -0.567356 
16   0.178464 
17   0.176003 
18   0.177957 
19   0.425316 
20   0.424167 
21   0.42483 
 
>  <lowdin_charges> 
21 
1   -0.122414 
2   -0.122301 
3   -0.118995 
4   -0.048659 
5   -0.04812 
6   -0.049539 
7   0.196822 
8   0.193008 
9   0.199906 
10   -0.234132 
11   -0.338502 
12   -0.233229 
13   -0.334928 
14   -0.235205 
15   -0.339418 
16   0.181777 
17   0.181205 
18   0.179869 
19   0.365524 
20   0.36264 
21   0.364689 
 
$$$$ 
 
