PCCDB-ID:  24520 
public computational chemistry database (PCCDB) project, http://pccdb.org 
 
 39 38  0  0  1  0  0  0  0  0999 V2000 
    5.0993    1.0425   -4.9222 C   0  0  0  0  0  0  0  0  0  0  0  0 
    6.0412    2.0776   -4.2928 C   0  0  0  0  0  0  0  0  0  0  0  0 
    7.5020    1.6297   -4.0816 C   0  0  0  0  0  0  0  0  0  0  0  0 
    7.8059    0.7786   -2.8337 C   0  0  0  0  0  0  0  0  0  0  0  0 
    7.3131   -0.6761   -2.8532 C   0  0  0  0  0  0  0  0  0  0  0  0 
    7.8164   -1.4944   -1.6559 C   0  0  0  0  0  0  0  0  0  0  0  0 
    7.4617   -6.1143   -1.5883 C   0  0  0  0  0  0  0  0  0  0  0  0 
    7.3340   -2.9520   -1.6697 C   0  0  0  0  0  0  0  0  0  0  0  0 
    7.1962   -5.1852   -0.3912 C   0  0  0  0  0  0  0  0  0  0  0  0 
    8.9192   -6.5622   -1.7335 C   0  0  0  0  0  0  0  0  0  0  0  0 
    7.7808   -3.7662   -0.4462 C   0  0  1  0  0  0  0  0  0  0  0  0 
    9.1310   -7.5071   -2.9063 C   0  0  0  0  0  0  0  0  0  0  0  0 
    9.2108   -3.8830   -0.3777 O   0  0  0  0  0  0  0  0  0  0  0  0 
    8.2756   -7.8631   -3.6778 O   0  0  0  0  0  0  0  0  0  0  0  0 
   10.4113   -7.9564   -3.0611 O   0  0  0  0  0  0  0  0  0  0  0  0 
    4.1180    1.4864   -5.1275 H   0  0  0  0  0  0  0  0  0  0  0  0 
    4.9357    0.1744   -4.2766 H   0  0  0  0  0  0  0  0  0  0  0  0 
    5.5010    0.6747   -5.8745 H   0  0  0  0  0  0  0  0  0  0  0  0 
    5.6268    2.4209   -3.3336 H   0  0  0  0  0  0  0  0  0  0  0  0 
    6.0518    2.9615   -4.9448 H   0  0  0  0  0  0  0  0  0  0  0  0 
    8.1203    2.5348   -4.0104 H   0  0  0  0  0  0  0  0  0  0  0  0 
    7.8527    1.0993   -4.9799 H   0  0  0  0  0  0  0  0  0  0  0  0 
    7.3995    1.2867   -1.9461 H   0  0  0  0  0  0  0  0  0  0  0  0 
    8.8973    0.7653   -2.6962 H   0  0  0  0  0  0  0  0  0  0  0  0 
    7.6409   -1.1604   -3.7846 H   0  0  0  0  0  0  0  0  0  0  0  0 
    6.2168   -0.7076   -2.8621 H   0  0  0  0  0  0  0  0  0  0  0  0 
    7.4925   -1.0089   -0.7224 H   0  0  0  0  0  0  0  0  0  0  0  0 
    8.9172   -1.4686   -1.6538 H   0  0  0  0  0  0  0  0  0  0  0  0 
    7.1374   -5.6452   -2.5235 H   0  0  0  0  0  0  0  0  0  0  0  0 
    6.8344   -7.0069   -1.4810 H   0  0  0  0  0  0  0  0  0  0  0  0 
    7.6932   -3.4427   -2.5831 H   0  0  0  0  0  0  0  0  0  0  0  0 
    6.2356   -2.9676   -1.7135 H   0  0  0  0  0  0  0  0  0  0  0  0 
    7.5650   -5.6574    0.5292 H   0  0  0  0  0  0  0  0  0  0  0  0 
    6.1097   -5.0811   -0.2706 H   0  0  0  0  0  0  0  0  0  0  0  0 
    9.2571   -7.0649   -0.8146 H   0  0  0  0  0  0  0  0  0  0  0  0 
    9.5772   -5.6926   -1.8494 H   0  0  0  0  0  0  0  0  0  0  0  0 
    7.4258   -3.2401    0.4574 H   0  0  0  0  0  0  0  0  0  0  0  0 
    9.5757   -2.9885   -0.2984 H   0  0  0  0  0  0  0  0  0  0  0  0 
   10.9765   -7.5739   -2.3694 H   0  0  0  0  0  0  0  0  0  0  0  0 
  1  2  1  0  0  0  0 
  1 17  1  0  0  0  0 
  2  3  1  0  0  0  0 
  2 19  1  0  0  0  0 
  3 21  1  0  0  0  0 
  3  4  1  0  0  0  0 
  4 24  1  0  0  0  0 
  4 23  1  0  0  0  0 
  5  4  1  0  0  0  0 
  5  6  1  0  0  0  0 
  6 28  1  0  0  0  0 
  6 27  1  0  0  0  0 
  7 30  1  0  0  0  0 
  7  9  1  0  0  0  0 
  8  6  1  0  0  0  0 
  8 11  1  0  0  0  0 
  9 34  1  0  0  0  0 
  9 33  1  0  0  0  0 
 10  7  1  0  0  0  0 
 10 35  1  0  0  0  0 
 11  9  1  0  0  0  0 
 11 13  1  0  0  0  0 
 11 37  1  1  0  0  0 
 12 10  1  0  0  0  0 
 13 38  1  0  0  0  0 
 14 12  2  0  0  0  0 
 15 12  1  0  0  0  0 
 15 39  1  0  0  0  0 
 16  1  1  0  0  0  0 
 18  1  1  0  0  0  0 
 20  2  1  0  0  0  0 
 22  3  1  0  0  0  0 
 25  5  1  0  0  0  0 
 26  5  1  0  0  0  0 
 29  7  1  0  0  0  0 
 31  8  1  0  0  0  0 
 32  8  1  0  0  0  0 
 36 10  1  0  0  0  0 
M  END 
>  <HBA> 
3 
 
>  <HBD> 
2 
 
>  <TPSA> 
57.53 
 
>  <cid> 
24520 
 
>  <dipole> 
5.19 
 
>  <excitation_energy_1> 
5.758 
 
>  <excitation_energy_2> 
6.439 
 
>  <excitation_energy_3> 
6.521 
 
>  <excitation_energy_4> 
6.907 
 
>  <homo_energy> 
-7.102 
 
>  <homo_lumo_gap> 
7.687 
 
>  <logP> 
2.963 
 
>  <lumo_energy> 
0.585 
 
>  <melting_point> 
65.23 
 
>  <molecular_refractivity> 
62.73 
 
>  <oscillator_strength_1> 
0.0004 
 
>  <oscillator_strength_2> 
0.0104 
 
>  <oscillator_strength_3> 
0.0156 
 
>  <oscillator_strength_4> 
0.0004 
 
>  <open_babel_can_smiles> 
CCCCCCC[C@@H](CCCC(=O)O)O 
 
>  <mulliken_charges> 
39 
1   -0.445215 
2   -0.247885 
3   -0.25447 
4   -0.254027 
5   -0.254471 
6   -0.275807 
7   -0.259638 
8   -0.267709 
9   -0.278198 
10   -0.401932 
11   0.135578 
12   0.601996 
13   -0.635548 
14   -0.444403 
15   -0.573324 
16   0.141818 
17   0.148162 
18   0.142646 
19   0.128835 
20   0.133149 
21   0.129553 
22   0.12804 
23   0.126824 
24   0.125864 
25   0.132936 
26   0.139968 
27   0.130239 
28   0.116644 
29   0.15745 
30   0.153327 
31   0.145127 
32   0.131774 
33   0.140218 
34   0.136473 
35   0.158333 
36   0.193845 
37   0.110201 
38   0.396021 
39   0.407607 
 
>  <lowdin_charges> 
39 
1   -0.448171 
2   -0.274657 
3   -0.278065 
4   -0.273923 
5   -0.274112 
6   -0.278117 
7   -0.270529 
8   -0.292612 
9   -0.280446 
10   -0.331763 
11   -0.000164 
12   0.197894 
13   -0.473955 
14   -0.244119 
15   -0.368575 
16   0.148876 
17   0.147182 
18   0.146789 
19   0.138481 
20   0.143184 
21   0.144152 
22   0.13922 
23   0.13795 
24   0.136963 
25   0.141162 
26   0.140023 
27   0.13786 
28   0.12856 
29   0.154272 
30   0.156201 
31   0.148414 
32   0.144134 
33   0.14896 
34   0.14825 
35   0.160185 
36   0.175899 
37   0.125351 
38   0.341048 
39   0.358197 
 
$$$$ 
 
