PCCDB-ID:  66310 
public computational chemistry database (PCCDB) project, http://pccdb.org 
 
 28 27  0  0  0  0  0  0  0  0999 V2000 
    1.0609    0.4148   -0.7373 C   0  0  0  0  0  0  0  0  0  0  0  0 
    2.5252    0.0503   -0.4719 C   0  0  0  0  0  0  0  0  0  0  0  0 
    3.0702    0.6474    0.8318 C   0  0  0  0  0  0  0  0  0  0  0  0 
    4.5363    0.2868    1.1021 C   0  0  0  0  0  0  0  0  0  0  0  0 
    5.0800    0.8901    2.4117 C   0  0  0  0  0  0  0  0  0  0  0  0 
    6.5076    0.5010    2.6861 C   0  0  0  0  0  0  0  0  0  0  0  0 
    7.5430    1.3466    2.7592 C   0  0  0  0  0  0  0  0  0  0  0  0 
    8.9652    0.9501    3.0543 C   0  0  0  0  0  0  0  0  0  0  0  0 
    9.3674    1.3170    4.4949 C   0  0  0  0  0  0  0  0  0  0  0  0 
    8.5935    0.6242    5.4599 O   0  0  0  0  0  0  0  0  0  0  0  0 
    0.7025   -0.0248   -1.6751 H   0  0  0  0  0  0  0  0  0  0  0  0 
    0.9294    1.5017   -0.8073 H   0  0  0  0  0  0  0  0  0  0  0  0 
    0.4101    0.0551    0.0693 H   0  0  0  0  0  0  0  0  0  0  0  0 
    3.1456    0.3912   -1.3129 H   0  0  0  0  0  0  0  0  0  0  0  0 
    2.6304   -1.0435   -0.4411 H   0  0  0  0  0  0  0  0  0  0  0  0 
    2.4496    0.3069    1.6743 H   0  0  0  0  0  0  0  0  0  0  0  0 
    2.9647    1.7422    0.8008 H   0  0  0  0  0  0  0  0  0  0  0  0 
    5.1612    0.6287    0.2655 H   0  0  0  0  0  0  0  0  0  0  0  0 
    4.6429   -0.8074    1.1352 H   0  0  0  0  0  0  0  0  0  0  0  0 
    4.4403    0.5536    3.2424 H   0  0  0  0  0  0  0  0  0  0  0  0 
    4.9944    1.9845    2.3771 H   0  0  0  0  0  0  0  0  0  0  0  0 
    6.6990   -0.5695    2.7935 H   0  0  0  0  0  0  0  0  0  0  0  0 
    7.3552    2.4171    2.6451 H   0  0  0  0  0  0  0  0  0  0  0  0 
    9.6523    1.4506    2.3572 H   0  0  0  0  0  0  0  0  0  0  0  0 
    9.0913   -0.1316    2.9245 H   0  0  0  0  0  0  0  0  0  0  0  0 
    9.2953    2.4098    4.6334 H   0  0  0  0  0  0  0  0  0  0  0  0 
   10.4087    1.0317    4.6774 H   0  0  0  0  0  0  0  0  0  0  0  0 
    7.6640    0.7330    5.1959 H   0  0  0  0  0  0  0  0  0  0  0  0 
  1  2  1  0  0  0  0 
  1 13  1  0  0  0  0 
  2 15  1  0  0  0  0 
  2  3  1  0  0  0  0 
  3  4  1  0  0  0  0 
  3 16  1  0  0  0  0 
  4 19  1  0  0  0  0 
  4  5  1  0  0  0  0 
  5  6  1  0  0  0  0 
  5 20  1  0  0  0  0 
  6  7  2  0  0  0  0 
  6 22  1  0  0  0  0 
  7  8  1  0  0  0  0 
  8  9  1  0  0  0  0 
  9 26  1  0  0  0  0 
  9 27  1  0  0  0  0 
  9 10  1  0  0  0  0 
 11  1  1  0  0  0  0 
 12  1  1  0  0  0  0 
 14  2  1  0  0  0  0 
 17  3  1  0  0  0  0 
 18  4  1  0  0  0  0 
 21  5  1  0  0  0  0 
 23  7  1  0  0  0  0 
 24  8  1  0  0  0  0 
 25  8  1  0  0  0  0 
 28 10  1  0  0  0  0 
M  END 
>  <HBA> 
1 
 
>  <HBD> 
1 
 
>  <TPSA> 
20.23 
 
>  <cid> 
66310 
 
>  <dipole> 
2.11 
 
>  <excitation_energy_1> 
6.202 
 
>  <excitation_energy_2> 
6.368 
 
>  <excitation_energy_3> 
6.55 
 
>  <excitation_energy_4> 
6.65 
 
>  <homo_energy> 
-6.661 
 
>  <homo_lumo_gap> 
7.108 
 
>  <logP> 
2.505 
 
>  <lumo_energy> 
0.446 
 
>  <melting_point> 
-0.15 
 
>  <molecular_refractivity> 
46.06 
 
>  <oscillator_strength_1> 
0.1 
 
>  <oscillator_strength_2> 
0.0622 
 
>  <oscillator_strength_3> 
0.0025 
 
>  <oscillator_strength_4> 
0.02 
 
>  <open_babel_can_smiles> 
CCCCC/C=C/CCO 
 
>  <mulliken_charges> 
28 
1   -0.441779 
2   -0.247238 
3   -0.246319 
4   -0.253378 
5   -0.304297 
6   -0.093723 
7   -0.127443 
8   -0.319537 
9   -0.019801 
10   -0.619704 
11   0.142788 
12   0.141659 
13   0.141796 
14   0.131504 
15   0.131094 
16   0.127709 
17   0.127983 
18   0.137012 
19   0.130868 
20   0.140092 
21   0.137102 
22   0.1268 
23   0.121909 
24   0.138169 
25   0.150761 
26   0.115771 
27   0.144279 
28   0.385924 
 
>  <lowdin_charges> 
28 
1   -0.443705 
2   -0.270436 
3   -0.27352 
4   -0.271651 
5   -0.270774 
6   -0.165928 
7   -0.177558 
8   -0.292486 
9   -0.127906 
10   -0.470172 
11   0.150019 
12   0.144557 
13   0.147381 
14   0.140265 
15   0.137107 
16   0.138519 
17   0.135805 
18   0.143416 
19   0.137423 
20   0.148109 
21   0.142924 
22   0.147626 
23   0.145324 
24   0.153423 
25   0.150949 
26   0.119569 
27   0.145044 
28   0.336678 
 
$$$$ 
 
