PCCDB-ID:  15350 
public computational chemistry database (PCCDB) project, http://pccdb.org 
 
 23 22  0  0  1  0  0  0  0  0999 V2000 
    1.0768   -0.2865    1.2327 C   0  0  0  0  0  0  0  0  0  0  0  0 
   -1.2007    1.9071   -3.0858 C   0  0  0  0  0  0  0  0  0  0  0  0 
    2.2123    3.4462    2.6933 C   0  0  0  0  0  0  0  0  0  0  0  0 
    1.6346    0.5809   -1.1240 C   0  0  0  0  0  0  0  0  0  0  0  0 
    2.0235    0.5527    0.3626 C   0  0  1  0  0  0  0  0  0  0  0  0 
    0.3254    1.2986   -1.3952 C   0  0  0  0  0  0  0  0  0  0  0  0 
    2.2421    1.9847    0.8510 C   0  0  0  0  0  0  0  0  0  0  0  0 
   -0.3597    1.8681   -0.5718 O   0  0  0  0  0  0  0  0  0  0  0  0 
    2.6507    2.8860    0.1487 O   0  0  0  0  0  0  0  0  0  0  0  0 
    0.0100    1.2316   -2.7063 O   0  0  0  0  0  0  0  0  0  0  0  0 
    1.9977    2.1257    2.1689 O   0  0  0  0  0  0  0  0  0  0  0  0 
    1.0022   -1.3025    0.8277 H   0  0  0  0  0  0  0  0  0  0  0  0 
    0.0771    0.1528    1.2578 H   0  0  0  0  0  0  0  0  0  0  0  0 
    1.4473   -0.3553    2.2582 H   0  0  0  0  0  0  0  0  0  0  0  0 
   -1.2863    1.7695   -4.1640 H   0  0  0  0  0  0  0  0  0  0  0  0 
   -1.1411    2.9697   -2.8365 H   0  0  0  0  0  0  0  0  0  0  0  0 
   -2.0618    1.4697   -2.5733 H   0  0  0  0  0  0  0  0  0  0  0  0 
    1.5666    4.1666    2.1849 H   0  0  0  0  0  0  0  0  0  0  0  0 
    3.2550    3.7477    2.5615 H   0  0  0  0  0  0  0  0  0  0  0  0 
    1.9607    3.3842    3.7526 H   0  0  0  0  0  0  0  0  0  0  0  0 
    1.5600   -0.4391   -1.5190 H   0  0  0  0  0  0  0  0  0  0  0  0 
    2.4097    1.0888   -1.7069 H   0  0  0  0  0  0  0  0  0  0  0  0 
    3.0227    0.0927    0.4085 H   0  0  0  0  0  0  0  0  0  0  0  0 
  1 13  1  0  0  0  0 
  1 14  1  0  0  0  0 
  2 16  1  0  0  0  0 
  2 10  1  0  0  0  0 
  2 17  1  0  0  0  0 
  3 20  1  0  0  0  0 
  4  5  1  0  0  0  0 
  5 23  1  1  0  0  0 
  5  7  1  0  0  0  0 
  5  1  1  0  0  0  0 
  6  4  1  0  0  0  0 
  6  8  2  0  0  0  0 
  7 11  1  0  0  0  0 
  9  7  2  0  0  0  0 
 10  6  1  0  0  0  0 
 11  3  1  0  0  0  0 
 12  1  1  0  0  0  0 
 15  2  1  0  0  0  0 
 18  3  1  0  0  0  0 
 19  3  1  0  0  0  0 
 21  4  1  0  0  0  0 
 22  4  1  0  0  0  0 
M  END 
>  <HBA> 
4 
 
>  <HBD> 
0 
 
>  <TPSA> 
52.6 
 
>  <cid> 
15350 
 
>  <dipole> 
1.17 
 
>  <excitation_energy_1> 
5.809 
 
>  <excitation_energy_2> 
5.854 
 
>  <excitation_energy_3> 
6.634 
 
>  <excitation_energy_4> 
6.772 
 
>  <homo_energy> 
-7.168 
 
>  <homo_lumo_gap> 
7.519 
 
>  <logP> 
0.359 
 
>  <lumo_energy> 
0.351 
 
>  <melting_point> 
-2.34 
 
>  <molecular_refractivity> 
38.33 
 
>  <oscillator_strength_1> 
0.0007 
 
>  <oscillator_strength_2> 
0.0006 
 
>  <oscillator_strength_3> 
0.0007 
 
>  <oscillator_strength_4> 
0.034 
 
>  <open_babel_can_smiles> 
COC(=O)C[C@@H](C(=O)OC)C 
 
>  <mulliken_charges> 
23 
1   -0.451752 
2   -0.218506 
3   -0.218193 
4   -0.364792 
5   -0.186836 
6   0.641191 
7   0.661318 
8   -0.482628 
9   -0.497817 
10   -0.454735 
11   -0.454135 
12   0.135465 
13   0.181932 
14   0.160294 
15   0.164788 
16   0.174429 
17   0.168575 
18   0.176939 
19   0.167243 
20   0.162291 
21   0.171002 
22   0.198903 
23   0.165024 
 
>  <lowdin_charges> 
23 
1   -0.446351 
2   -0.27528 
3   -0.27566 
4   -0.301774 
5   -0.141978 
6   0.206603 
7   0.202254 
8   -0.266425 
9   -0.276676 
10   -0.191942 
11   -0.184894 
12   0.146269 
13   0.167097 
14   0.159308 
15   0.158793 
16   0.159711 
17   0.159104 
18   0.164551 
19   0.156612 
20   0.157746 
21   0.169378 
22   0.186696 
23   0.166858 
 
$$$$ 
 
