PCCDB-ID:  10868 
public computational chemistry database (PCCDB) project, http://pccdb.org 
 
 37 38  0  0  0  0  0  0  0  0999 V2000 
   -1.8973   -2.0019   -1.7203 C   0  0  0  0  0  0  0  0  0  0  0  0 
    0.2641   -5.2651    5.3029 C   0  0  0  0  0  0  0  0  0  0  0  0 
   -1.5379   -0.5786   -1.2657 C   0  0  0  0  0  0  0  0  0  0  0  0 
   -1.6011   -3.0305   -0.6170 C   0  0  0  0  0  0  0  0  0  0  0  0 
    0.4527   -3.9076    5.9987 C   0  0  0  0  0  0  0  0  0  0  0  0 
   -0.2525   -5.0885    3.8661 C   0  0  0  0  0  0  0  0  0  0  0  0 
   -0.0786   -0.4909   -0.7956 C   0  0  0  0  0  0  0  0  0  0  0  0 
   -0.1453   -2.9333   -0.1361 C   0  0  0  0  0  0  0  0  0  0  0  0 
   -0.8378   -3.0758    5.9659 C   0  0  0  0  0  0  0  0  0  0  0  0 
   -1.5353   -4.2437    3.8310 C   0  0  0  0  0  0  0  0  0  0  0  0 
   -0.4789   -1.6371    2.6386 C   0  0  0  0  0  0  0  0  0  0  0  0 
    0.2307   -1.5073    0.3164 C   0  0  0  0  0  0  0  0  0  0  0  0 
   -1.3622   -2.8814    4.5333 C   0  0  0  0  0  0  0  0  0  0  0  0 
   -0.4850   -1.1014    1.5361 N   0  0  0  0  0  0  0  0  0  0  0  0 
   -0.4410   -1.9905    3.8115 N   0  0  0  0  0  0  0  0  0  0  0  0 
   -1.3138   -2.2561   -2.6183 H   0  0  0  0  0  0  0  0  0  0  0  0 
   -2.9543   -2.0536   -2.0109 H   0  0  0  0  0  0  0  0  0  0  0  0 
   -0.4565   -5.8696    5.8744 H   0  0  0  0  0  0  0  0  0  0  0  0 
    1.2074   -5.8258    5.2991 H   0  0  0  0  0  0  0  0  0  0  0  0 
   -2.1942   -0.2838   -0.4363 H   0  0  0  0  0  0  0  0  0  0  0  0 
   -1.7118    0.1379   -2.0783 H   0  0  0  0  0  0  0  0  0  0  0  0 
   -1.8062   -4.0472   -0.9754 H   0  0  0  0  0  0  0  0  0  0  0  0 
   -2.2755   -2.8536    0.2318 H   0  0  0  0  0  0  0  0  0  0  0  0 
    1.2486   -3.3450    5.4932 H   0  0  0  0  0  0  0  0  0  0  0  0 
    0.7768   -4.0523    7.0370 H   0  0  0  0  0  0  0  0  0  0  0  0 
   -0.4395   -6.0657    3.4032 H   0  0  0  0  0  0  0  0  0  0  0  0 
    0.5222   -4.5974    3.2619 H   0  0  0  0  0  0  0  0  0  0  0  0 
    0.1516    0.5185   -0.4361 H   0  0  0  0  0  0  0  0  0  0  0  0 
    0.5951   -0.6955   -1.6398 H   0  0  0  0  0  0  0  0  0  0  0  0 
    0.5300   -3.2112   -0.9582 H   0  0  0  0  0  0  0  0  0  0  0  0 
    0.0446   -3.6424    0.6799 H   0  0  0  0  0  0  0  0  0  0  0  0 
   -0.6773   -2.0948    6.4272 H   0  0  0  0  0  0  0  0  0  0  0  0 
   -1.6198   -3.5837    6.5482 H   0  0  0  0  0  0  0  0  0  0  0  0 
   -2.3426   -4.7847    4.3451 H   0  0  0  0  0  0  0  0  0  0  0  0 
   -1.8708   -4.0866    2.7978 H   0  0  0  0  0  0  0  0  0  0  0  0 
    1.3073   -1.4778    0.5343 H   0  0  0  0  0  0  0  0  0  0  0  0 
   -2.3393   -2.3806    4.5791 H   0  0  0  0  0  0  0  0  0  0  0  0 
  1  3  1  0  0  0  0 
  1  4  1  0  0  0  0 
  2 18  1  0  0  0  0 
  2  5  1  0  0  0  0 
  3  7  1  0  0  0  0 
  3 20  1  0  0  0  0 
  4  8  1  0  0  0  0 
  4 23  1  0  0  0  0 
  5 25  1  0  0  0  0 
  6  2  1  0  0  0  0 
  7 28  1  0  0  0  0 
  7 12  1  0  0  0  0 
  8 12  1  0  0  0  0 
  8 31  1  0  0  0  0 
  9  5  1  0  0  0  0 
  9 32  1  0  0  0  0 
  9 33  1  0  0  0  0 
 10  6  1  0  0  0  0 
 10 34  1  0  0  0  0 
 10 13  1  0  0  0  0 
 11 15  1  0  0  0  0 
 12 36  1  0  0  0  0 
 12 14  1  0  0  0  0 
 13 37  1  0  0  0  0 
 13  9  1  0  0  0  0 
 14 11  1  0  0  0  0 
 15 13  1  0  0  0  0 
 16  1  1  0  0  0  0 
 17  1  1  0  0  0  0 
 19  2  1  0  0  0  0 
 21  3  1  0  0  0  0 
 22  4  1  0  0  0  0 
 24  5  1  0  0  0  0 
 26  6  1  0  0  0  0 
 27  6  1  0  0  0  0 
 29  7  1  0  0  0  0 
 30  8  1  0  0  0  0 
 35 10  1  0  0  0  0 
M  RAD  3  11   3  14   2  15   2 
M  END 
>  <HBA> 
2 
 
>  <HBD> 
0 
 
>  <TPSA> 
24.72 
 
>  <cid> 
10868 
 
>  <dipole> 
1.73 
 
>  <excitation_energy_1> 
5.578 
 
>  <excitation_energy_2> 
5.737 
 
>  <excitation_energy_3> 
5.803 
 
>  <excitation_energy_4> 
5.916 
 
>  <homo_energy> 
-6.422 
 
>  <homo_lumo_gap> 
7.331 
 
>  <logP> 
3.826 
 
>  <lumo_energy> 
0.909 
 
>  <melting_point> 
50.86 
 
>  <molecular_refractivity> 
65.43 
 
>  <oscillator_strength_1> 
0.0014 
 
>  <oscillator_strength_2> 
0.0034 
 
>  <oscillator_strength_3> 
0.0021 
 
>  <oscillator_strength_4> 
0.0085 
 
>  <open_babel_can_smiles> 
C1CCC(CC1)[N][C][N]C1CCCCC1 
 
>  <mulliken_charges> 
37 
1   -0.258613 
2   -0.258889 
3   -0.261553 
4   -0.259916 
5   -0.261374 
6   -0.260707 
7   -0.261619 
8   -0.275145 
9   -0.261977 
10   -0.275909 
11   0.611634 
12   0.020441 
13   0.021619 
14   -0.501339 
15   -0.50193 
16   0.124806 
17   0.131089 
18   0.125109 
19   0.131235 
20   0.15043 
21   0.12964 
22   0.130534 
23   0.141502 
24   0.149693 
25   0.129911 
26   0.130947 
27   0.141127 
28   0.143971 
29   0.126339 
30   0.132832 
31   0.140862 
32   0.144379 
33   0.126467 
34   0.132973 
35   0.140947 
36   0.139679 
37   0.140804 
 
>  <lowdin_charges> 
37 
1   -0.276701 
2   -0.279276 
3   -0.28165 
4   -0.280061 
5   -0.280099 
6   -0.281676 
7   -0.281173 
8   -0.286719 
9   -0.282052 
10   -0.285536 
11   0.102209 
12   -0.039347 
13   -0.042227 
14   -0.191576 
15   -0.188718 
16   0.135909 
17   0.142465 
18   0.137118 
19   0.14394 
20   0.149524 
21   0.144552 
22   0.143087 
23   0.143212 
24   0.149459 
25   0.142901 
26   0.14387 
27   0.143404 
28   0.150975 
29   0.140677 
30   0.145098 
31   0.146391 
32   0.151553 
33   0.141284 
34   0.14558 
35   0.144889 
36   0.14313 
37   0.145583 
 
$$$$ 
 
