PCCDB-ID:  8021 
public computational chemistry database (PCCDB) project, http://pccdb.org 
 
 16 15  0  0  0  0  0  0  0  0999 V2000 
    1.0459   -0.1222    0.0010 C   0  0  0  0  0  0  0  0  0  0  0  0 
    5.0600    2.4392   -1.2550 C   0  0  0  0  0  0  0  0  0  0  0  0 
    2.5730   -0.1263    0.0102 C   0  0  0  0  0  0  0  0  0  0  0  0 
    4.5651    1.1445   -0.6143 C   0  0  0  0  0  0  0  0  0  0  0  0 
    3.1058    1.0728   -0.6326 N   0  0  0  0  0  0  0  0  0  0  0  0 
    0.6493   -1.0417    0.4456 H   0  0  0  0  0  0  0  0  0  0  0  0 
    0.6687   -0.0366   -1.0231 H   0  0  0  0  0  0  0  0  0  0  0  0 
    0.6492    0.7224    0.5792 H   0  0  0  0  0  0  0  0  0  0  0  0 
    6.1549    2.4708   -1.2783 H   0  0  0  0  0  0  0  0  0  0  0  0 
    4.7159    3.3161   -0.6914 H   0  0  0  0  0  0  0  0  0  0  0  0 
    4.6846    2.5285   -2.2795 H   0  0  0  0  0  0  0  0  0  0  0  0 
    2.9416   -0.9955   -0.5513 H   0  0  0  0  0  0  0  0  0  0  0  0 
    2.9393   -0.2532    1.0489 H   0  0  0  0  0  0  0  0  0  0  0  0 
    4.9848    1.0499    0.4076 H   0  0  0  0  0  0  0  0  0  0  0  0 
    4.9467    0.2843   -1.1811 H   0  0  0  0  0  0  0  0  0  0  0  0 
    2.7326    1.8933   -0.1537 H   0  0  0  0  0  0  0  0  0  0  0  0 
  1  3  1  0  0  0  0 
  1  6  1  0  0  0  0 
  1  8  1  0  0  0  0 
  2 10  1  0  0  0  0 
  2  4  1  0  0  0  0 
  3 13  1  0  0  0  0 
  4 14  1  0  0  0  0 
  5  4  1  0  0  0  0 
  5 16  1  0  0  0  0 
  5  3  1  0  0  0  0 
  7  1  1  0  0  0  0 
  9  2  1  0  0  0  0 
 11  2  1  0  0  0  0 
 12  3  1  0  0  0  0 
 15  4  1  0  0  0  0 
M  END 
>  <HBA> 
1 
 
>  <HBD> 
1 
 
>  <TPSA> 
12.03 
 
>  <cid> 
8021 
 
>  <dipole> 
0.89 
 
>  <excitation_energy_1> 
5.529 
 
>  <excitation_energy_2> 
5.965 
 
>  <excitation_energy_3> 
6.083 
 
>  <excitation_energy_4> 
6.276 
 
>  <homo_energy> 
-5.848 
 
>  <homo_lumo_gap> 
8.259 
 
>  <logP> 
1.007 
 
>  <lumo_energy> 
2.411 
 
>  <melting_point> 
1.94 
 
>  <molecular_refractivity> 
24.14 
 
>  <oscillator_strength_1> 
0.003 
 
>  <oscillator_strength_2> 
0.0247 
 
>  <oscillator_strength_3> 
0.0324 
 
>  <oscillator_strength_4> 
0.0742 
 
>  <open_babel_can_smiles> 
CCNCC 
 
>  <mulliken_charges> 
16 
1   -0.45032 
2   -0.45044 
3   -0.105341 
4   -0.105403 
5   -0.541275 
6   0.142897 
7   0.158859 
8   0.136941 
9   0.142965 
10   0.136956 
11   0.158887 
12   0.138141 
13   0.107285 
14   0.107306 
15   0.138187 
16   0.284353 
 
>  <lowdin_charges> 
16 
1   -0.448676 
2   -0.445731 
3   -0.196937 
4   -0.197189 
5   -0.367656 
6   0.152317 
7   0.155228 
8   0.14497 
9   0.149971 
10   0.14471 
11   0.155083 
12   0.140812 
13   0.111981 
14   0.11249 
15   0.140853 
16   0.247774 
 
$$$$ 
 
