PCCDB-ID:  21923 
public computational chemistry database (PCCDB) project, http://pccdb.org 
 
 31 31  0  0  1  0  0  0  0  0999 V2000 
    0.9441   -0.5493    2.6301 C   0  0  0  0  0  0  0  0  0  0  0  0 
    9.4176   -1.8791   -0.4750 C   0  0  0  0  0  0  0  0  0  0  0  0 
    2.4746   -0.5377    2.6981 C   0  0  0  0  0  0  0  0  0  0  0  0 
    8.6676   -1.8194    0.8622 C   0  0  0  0  0  0  0  0  0  0  0  0 
    3.1235   -0.6383    1.3126 C   0  0  0  0  0  0  0  0  0  0  0  0 
    6.4882   -1.8384    2.1661 C   0  0  0  0  0  0  0  0  0  0  0  0 
    6.5303   -0.7138   -0.0563 C   0  0  0  0  0  0  0  0  0  0  0  0 
    4.6401   -0.6401    1.3517 C   0  0  1  0  0  0  0  0  0  0  0  0 
    7.1283   -1.8605    0.7694 C   0  0  1  0  0  0  0  0  0  0  0  0 
    6.7712   -3.2088    0.1047 N   0  0  0  0  0  0  0  0  0  0  0  0 
    6.8703   -4.2127    0.8041 O   0  0  0  0  0  0  0  0  0  0  0  0 
    6.4835   -3.2092   -1.0863 O   0  0  0  0  0  0  0  0  0  0  0  0 
    5.0762   -1.7687    2.0882 O   0  0  0  0  0  0  0  0  0  0  0  0 
    5.1156   -0.6919    0.0209 O   0  0  0  0  0  0  0  0  0  0  0  0 
    0.5031   -0.4813    3.6307 H   0  0  0  0  0  0  0  0  0  0  0  0 
    0.5763   -1.4727    2.1664 H   0  0  0  0  0  0  0  0  0  0  0  0 
    0.5637    0.2927    2.0389 H   0  0  0  0  0  0  0  0  0  0  0  0 
   10.4970   -1.8783   -0.2924 H   0  0  0  0  0  0  0  0  0  0  0  0 
    9.1900   -1.0185   -1.1128 H   0  0  0  0  0  0  0  0  0  0  0  0 
    9.1743   -2.7859   -1.0369 H   0  0  0  0  0  0  0  0  0  0  0  0 
    2.8256   -1.3698    3.3188 H   0  0  0  0  0  0  0  0  0  0  0  0 
    2.8107    0.3843    3.1945 H   0  0  0  0  0  0  0  0  0  0  0  0 
    8.9315   -0.8954    1.3920 H   0  0  0  0  0  0  0  0  0  0  0  0 
    8.9847   -2.6508    1.5024 H   0  0  0  0  0  0  0  0  0  0  0  0 
    2.8113    0.2022    0.6807 H   0  0  0  0  0  0  0  0  0  0  0  0 
    2.8099   -1.5581    0.8041 H   0  0  0  0  0  0  0  0  0  0  0  0 
    6.8880   -0.9636    2.7062 H   0  0  0  0  0  0  0  0  0  0  0  0 
    6.7392   -2.7438    2.7188 H   0  0  0  0  0  0  0  0  0  0  0  0 
    6.7824   -0.8089   -1.1113 H   0  0  0  0  0  0  0  0  0  0  0  0 
    6.9542    0.2284    0.3316 H   0  0  0  0  0  0  0  0  0  0  0  0 
    5.0400    0.2723    1.8378 H   0  0  0  0  0  0  0  0  0  0  0  0 
  1  3  1  0  0  0  0 
  1 15  1  0  0  0  0 
  2 18  1  0  0  0  0 
  2  4  1  0  0  0  0 
  3 22  1  0  0  0  0 
  3 21  1  0  0  0  0 
  4 23  1  0  0  0  0 
  4 24  1  0  0  0  0 
  5  8  1  0  0  0  0 
  5  3  1  0  0  0  0 
  6 27  1  0  0  0  0 
  6 28  1  0  0  0  0 
  7 14  1  0  0  0  0 
  7 30  1  0  0  0  0 
  7  9  1  0  0  0  0 
  8 31  1  1  0  0  0 
  8 13  1  0  0  0  0 
  9 10  1  6  0  0  0 
  9  4  1  0  0  0  0 
  9  6  1  0  0  0  0 
 10 11  2  0  0  0  0 
 12 10  2  0  0  0  0 
 13  6  1  0  0  0  0 
 14  8  1  0  0  0  0 
 16  1  1  0  0  0  0 
 17  1  1  0  0  0  0 
 19  2  1  0  0  0  0 
 20  2  1  0  0  0  0 
 25  5  1  0  0  0  0 
 26  5  1  0  0  0  0 
 29  7  1  0  0  0  0 
M  END 
>  <HBA> 
2 
 
>  <HBD> 
0 
 
>  <TPSA> 
64.28 
 
>  <cid> 
21923 
 
>  <dipole> 
4.53 
 
>  <excitation_energy_1> 
4.102 
 
>  <excitation_energy_2> 
4.411 
 
>  <excitation_energy_3> 
4.681 
 
>  <excitation_energy_4> 
5.019 
 
>  <homo_energy> 
-7.431 
 
>  <homo_lumo_gap> 
5.682 
 
>  <logP> 
2.108 
 
>  <lumo_energy> 
-1.75 
 
>  <melting_point> 
17.9 
 
>  <molecular_refractivity> 
53.58 
 
>  <oscillator_strength_1> 
0.0001 
 
>  <oscillator_strength_2> 
0.0001 
 
>  <oscillator_strength_3> 
0.0011 
 
>  <oscillator_strength_4> 
0.0016 
 
>  <open_babel_can_smiles> 
CCC[C@@H]1OC[C@](CO1)(CC)N(=O)=O 
 
>  <mulliken_charges> 
31 
1   -0.442608 
2   -0.461038 
3   -0.259244 
4   -0.277633 
5   -0.286811 
6   -0.039096 
7   -0.035347 
8   0.36267 
9   0.073455 
10   0.479173 
11   -0.373649 
12   -0.368662 
13   -0.472276 
14   -0.478977 
15   0.144401 
16   0.147682 
17   0.141627 
18   0.158567 
19   0.156573 
20   0.176351 
21   0.158655 
22   0.126979 
23   0.153229 
24   0.171469 
25   0.147475 
26   0.161068 
27   0.131664 
28   0.188881 
29   0.187657 
30   0.129453 
31   0.098311 
 
>  <lowdin_charges> 
31 
1   -0.443893 
2   -0.448865 
3   -0.274531 
4   -0.275319 
5   -0.283433 
6   -0.143852 
7   -0.14292 
8   0.097734 
9   0.008547 
10   0.296145 
11   -0.241391 
12   -0.227485 
13   -0.254788 
14   -0.25273 
15   0.150392 
16   0.149931 
17   0.147116 
18   0.15883 
19   0.154656 
20   0.163815 
21   0.153691 
22   0.138027 
23   0.155978 
24   0.163728 
25   0.155884 
26   0.160877 
27   0.138225 
28   0.174286 
29   0.172705 
30   0.137473 
31   0.111164 
 
$$$$ 
 
