PCCDB-ID:  45101 
public computational chemistry database (PCCDB) project, http://pccdb.org 
 
 32 33  0  0  0  0  0  0  0  0999 V2000 
    3.5831   -0.3269   -0.8890 C   0  0  0  0  0  0  0  0  0  0  0  0 
    1.5298   -0.9759    0.4591 C   0  0  0  0  0  0  0  0  0  0  0  0 
    5.2955    4.9313    6.6694 C   0  0  0  0  0  0  0  0  0  0  0  0 
    4.0090    5.1275    6.1641 C   0  0  0  0  0  0  0  0  0  0  0  0 
    6.1191    3.9637    6.0910 C   0  0  0  0  0  0  0  0  0  0  0  0 
    3.5515    4.3631    5.0918 C   0  0  0  0  0  0  0  0  0  0  0  0 
    5.6614    3.2014    5.0173 C   0  0  0  0  0  0  0  0  0  0  0  0 
    4.2200    1.2156    3.2300 C   0  0  0  0  0  0  0  0  0  0  0  0 
    3.7479    0.4690    2.1526 C   0  0  0  0  0  0  0  0  0  0  0  0 
    3.0653    3.1368    2.3660 C   0  0  0  0  0  0  0  0  0  0  0  0 
    2.4238    0.1867   -0.0136 C   0  0  0  0  0  0  0  0  0  0  0  0 
    4.3689    3.3865    4.4975 C   0  0  0  0  0  0  0  0  0  0  0  0 
    3.8827    2.5715    3.3554 C   0  0  0  0  0  0  0  0  0  0  0  0 
    2.9309    1.0174    1.1580 C   0  0  0  0  0  0  0  0  0  0  0  0 
    2.5987    2.3781    1.2904 C   0  0  0  0  0  0  0  0  0  0  0  0 
    1.8074    2.9405    0.3190 O   0  0  0  0  0  0  0  0  0  0  0  0 
    3.1961   -0.8745   -1.7569 H   0  0  0  0  0  0  0  0  0  0  0  0 
    4.2368   -1.0080   -0.3308 H   0  0  0  0  0  0  0  0  0  0  0  0 
    4.1989    0.5015   -1.2559 H   0  0  0  0  0  0  0  0  0  0  0  0 
    1.1316   -1.5283   -0.4006 H   0  0  0  0  0  0  0  0  0  0  0  0 
    0.6835   -0.6092    1.0501 H   0  0  0  0  0  0  0  0  0  0  0  0 
    2.0887   -1.6862    1.0803 H   0  0  0  0  0  0  0  0  0  0  0  0 
    5.6523    5.5258    7.5060 H   0  0  0  0  0  0  0  0  0  0  0  0 
    3.3552    5.8716    6.6118 H   0  0  0  0  0  0  0  0  0  0  0  0 
    7.1252    3.8067    6.4711 H   0  0  0  0  0  0  0  0  0  0  0  0 
    2.5379    4.5039    4.7266 H   0  0  0  0  0  0  0  0  0  0  0  0 
    6.3203    2.4701    4.5577 H   0  0  0  0  0  0  0  0  0  0  0  0 
    4.8264    0.7369    3.9929 H   0  0  0  0  0  0  0  0  0  0  0  0 
    4.0182   -0.5822    2.0869 H   0  0  0  0  0  0  0  0  0  0  0  0 
    2.8134    4.1948    2.4175 H   0  0  0  0  0  0  0  0  0  0  0  0 
    1.8080    0.8427   -0.6359 H   0  0  0  0  0  0  0  0  0  0  0  0 
    1.6684    3.8750    0.5365 H   0  0  0  0  0  0  0  0  0  0  0  0 
  1 18  1  0  0  0  0 
  1 11  1  0  0  0  0 
  2 21  1  0  0  0  0 
  2 22  1  0  0  0  0 
  3 23  1  0  0  0  0 
  4 24  1  0  0  0  0 
  4  3  1  0  0  0  0 
  5 25  1  0  0  0  0 
  5  3  2  0  0  0  0 
  6  4  2  0  0  0  0 
  7  5  1  0  0  0  0 
  8 13  1  0  0  0  0 
  8 28  1  0  0  0  0 
  9  8  2  0  0  0  0 
 10 30  1  0  0  0  0 
 10 13  2  0  0  0  0 
 11  2  1  0  0  0  0 
 11 14  1  0  0  0  0 
 12  7  2  0  0  0  0 
 12  6  1  0  0  0  0 
 13 12  1  0  0  0  0 
 14 15  2  0  0  0  0 
 14  9  1  0  0  0  0 
 15 10  1  0  0  0  0 
 16 32  1  0  0  0  0 
 16 15  1  0  0  0  0 
 17  1  1  0  0  0  0 
 19  1  1  0  0  0  0 
 20  2  1  0  0  0  0 
 26  6  1  0  0  0  0 
 27  7  1  0  0  0  0 
 29  9  1  0  0  0  0 
 31 11  1  0  0  0  0 
M  END 
>  <HBA> 
1 
 
>  <HBD> 
1 
 
>  <TPSA> 
20.23 
 
>  <cid> 
45101 
 
>  <dipole> 
1.09 
 
>  <excitation_energy_1> 
4.448 
 
>  <excitation_energy_2> 
4.801 
 
>  <excitation_energy_3> 
4.863 
 
>  <excitation_energy_4> 
5.016 
 
>  <homo_energy> 
-5.709 
 
>  <homo_lumo_gap> 
5.05 
 
>  <logP> 
4.183 
 
>  <lumo_energy> 
-0.659 
 
>  <melting_point> 
85.07 
 
>  <molecular_refractivity> 
68.48 
 
>  <oscillator_strength_1> 
0.271 
 
>  <oscillator_strength_2> 
0.048 
 
>  <oscillator_strength_3> 
0.1855 
 
>  <oscillator_strength_4> 
0.0 
 
>  <open_babel_can_smiles> 
CC(c1ccc(cc1O)c1ccccc1)C 
 
>  <mulliken_charges> 
32 
1   -0.437685 
2   -0.43818 
3   -0.127103 
4   -0.134183 
5   -0.133756 
6   -0.173174 
7   -0.173466 
8   -0.1799 
9   -0.206293 
10   -0.24901 
11   -0.156758 
12   0.085557 
13   0.092316 
14   0.151146 
15   0.28655 
16   -0.650169 
17   0.13969 
18   0.138959 
19   0.149768 
20   0.139809 
21   0.149598 
22   0.139314 
23   0.128946 
24   0.129087 
25   0.130009 
26   0.128052 
27   0.133221 
28   0.127213 
29   0.126529 
30   0.117067 
31   0.158992 
32   0.407853 
 
>  <lowdin_charges> 
32 
1   -0.442999 
2   -0.442957 
3   -0.159107 
4   -0.156398 
5   -0.153738 
6   -0.162805 
7   -0.162214 
8   -0.183589 
9   -0.150345 
10   -0.217913 
11   -0.123218 
12   0.000708 
13   0.004143 
14   -0.029183 
15   0.093994 
16   -0.382704 
17   0.14811 
18   0.146059 
19   0.153638 
20   0.148386 
21   0.15336 
22   0.146115 
23   0.158307 
24   0.158587 
25   0.157039 
26   0.156368 
27   0.161144 
28   0.159461 
29   0.154714 
30   0.151348 
31   0.159937 
32   0.355752 
 
$$$$ 
 
