PCCDB-ID:  46156 
public computational chemistry database (PCCDB) project, http://pccdb.org 
 
 20 20  0  0  0  0  0  0  0  0999 V2000 
    0.7554    0.1081    0.1428 C   0  0  0  0  0  0  0  0  0  0  0  0 
    4.4161   -1.1364   -0.0316 C   0  0  0  0  0  0  0  0  0  0  0  0 
    4.4364    1.2614   -0.1330 C   0  0  0  0  0  0  0  0  0  0  0  0 
    2.2670    0.0869    0.1140 C   0  0  0  0  0  0  0  0  0  0  0  0 
    5.1319    0.0522   -0.1449 C   0  0  0  0  0  0  0  0  0  0  0  0 
    3.0282   -1.0967    0.1009 C   0  0  0  0  0  0  0  0  0  0  0  0 
    3.0533    1.2529    0.0042 C   0  0  0  0  0  0  0  0  0  0  0  0 
    2.3864   -2.4213    0.2472 N   0  0  0  0  0  0  0  0  0  0  0  0 
    2.4294    2.5943    0.0479 N   0  0  0  0  0  0  0  0  0  0  0  0 
    6.4838    0.1053   -0.2634 O   0  0  0  0  0  0  0  0  0  0  0  0 
    2.9553   -3.3825   -0.2698 O   0  0  0  0  0  0  0  0  0  0  0  0 
    1.3474   -2.4916    0.8995 O   0  0  0  0  0  0  0  0  0  0  0  0 
    2.9612    3.4837   -0.6132 O   0  0  0  0  0  0  0  0  0  0  0  0 
    1.4427    2.7444    0.7654 O   0  0  0  0  0  0  0  0  0  0  0  0 
    0.3461   -0.7796   -0.3394 H   0  0  0  0  0  0  0  0  0  0  0  0 
    0.3695    0.9965   -0.3562 H   0  0  0  0  0  0  0  0  0  0  0  0 
    0.3841    0.1201    1.1718 H   0  0  0  0  0  0  0  0  0  0  0  0 
    4.9093   -2.1022   -0.0480 H   0  0  0  0  0  0  0  0  0  0  0  0 
    4.9669    2.2000   -0.2308 H   0  0  0  0  0  0  0  0  0  0  0  0 
    6.8488   -0.7937   -0.2707 H   0  0  0  0  0  0  0  0  0  0  0  0 
  1 17  1  0  0  0  0 
  2  6  2  0  0  0  0 
  3  7  1  0  0  0  0 
  4  1  1  0  0  0  0 
  5  3  2  0  0  0  0 
  5  2  1  0  0  0  0 
  6  4  1  0  0  0  0 
  6  8  1  0  0  0  0 
  7  9  1  0  0  0  0 
  7  4  2  0  0  0  0 
  8 12  2  0  0  0  0 
  9 14  2  0  0  0  0 
 10  5  1  0  0  0  0 
 11  8  2  0  0  0  0 
 13  9  2  0  0  0  0 
 15  1  1  0  0  0  0 
 16  1  1  0  0  0  0 
 18  2  1  0  0  0  0 
 19  3  1  0  0  0  0 
 20 10  1  0  0  0  0 
M  END 
>  <HBA> 
1 
 
>  <HBD> 
1 
 
>  <TPSA> 
111.87 
 
>  <cid> 
46156 
 
>  <dipole> 
3.51 
 
>  <excitation_energy_1> 
3.579 
 
>  <excitation_energy_2> 
3.67 
 
>  <excitation_energy_3> 
3.728 
 
>  <excitation_energy_4> 
3.846 
 
>  <homo_energy> 
-7.222 
 
>  <homo_lumo_gap> 
4.332 
 
>  <logP> 
2.563 
 
>  <lumo_energy> 
-2.89 
 
>  <melting_point> 
127.72 
 
>  <molecular_refractivity> 
51.08 
 
>  <oscillator_strength_1> 
0.0676 
 
>  <oscillator_strength_2> 
0.0015 
 
>  <oscillator_strength_3> 
0.0056 
 
>  <oscillator_strength_4> 
0.0112 
 
>  <open_babel_can_smiles> 
Oc1cc(N(=O)=O)c(c(c1)N(=O)=O)C 
 
>  <mulliken_charges> 
20 
1   -0.489885 
2   -0.197083 
3   -0.156093 
4   0.164749 
5   0.359129 
6   0.18713 
7   0.186524 
8   0.359055 
9   0.35448 
10   -0.632727 
11   -0.378727 
12   -0.370746 
13   -0.370449 
14   -0.369101 
15   0.173905 
16   0.173554 
17   0.199935 
18   0.183435 
19   0.201079 
20   0.421838 
 
>  <lowdin_charges> 
20 
1   -0.439641 
2   -0.180737 
3   -0.14722 
4   0.018855 
5   0.109067 
6   0.01354 
7   0.014879 
8   0.306419 
9   0.306586 
10   -0.356833 
11   -0.241977 
12   -0.224531 
13   -0.234576 
14   -0.226761 
15   0.170978 
16   0.170513 
17   0.185082 
18   0.188426 
19   0.200762 
20   0.36717 
 
$$$$ 
 
