PCCDB-ID:  7501 
public computational chemistry database (PCCDB) project, http://pccdb.org 
 
 16 16  0  0  0  0  0  0  0  0999 V2000 
    2.2840    1.1790   -0.5226 C   0  0  0  0  0  0  0  0  0  0  0  0 
    2.1152   -0.0978   -0.1564 C   0  0  0  0  0  0  0  0  0  0  0  0 
    4.2725   -3.5902   -1.4147 C   0  0  0  0  0  0  0  0  0  0  0  0 
    3.2192   -3.6867   -0.5054 C   0  0  0  0  0  0  0  0  0  0  0  0 
    4.6298   -2.3372   -1.9227 C   0  0  0  0  0  0  0  0  0  0  0  0 
    2.5318   -2.5399   -0.1097 C   0  0  0  0  0  0  0  0  0  0  0  0 
    3.9422   -1.1941   -1.5265 C   0  0  0  0  0  0  0  0  0  0  0  0 
    2.8772   -1.2729   -0.6101 C   0  0  0  0  0  0  0  0  0  0  0  0 
    1.6539    1.9633   -0.1145 H   0  0  0  0  0  0  0  0  0  0  0  0 
    3.0431    1.4952   -1.2329 H   0  0  0  0  0  0  0  0  0  0  0  0 
    1.3266   -0.3232    0.5619 H   0  0  0  0  0  0  0  0  0  0  0  0 
    4.8116   -4.4806   -1.7263 H   0  0  0  0  0  0  0  0  0  0  0  0 
    2.9317   -4.6544   -0.1027 H   0  0  0  0  0  0  0  0  0  0  0  0 
    5.4496   -2.2521   -2.6314 H   0  0  0  0  0  0  0  0  0  0  0  0 
    1.7115   -2.6216    0.6001 H   0  0  0  0  0  0  0  0  0  0  0  0 
    4.2358   -0.2303   -1.9322 H   0  0  0  0  0  0  0  0  0  0  0  0 
  1  2  2  0  0  0  0 
  1  9  1  0  0  0  0 
  2 11  1  0  0  0  0 
  3  4  2  0  0  0  0 
  4  6  1  0  0  0  0 
  4 13  1  0  0  0  0 
  5  7  2  0  0  0  0 
  5  3  1  0  0  0  0 
  6 15  1  0  0  0  0 
  7  8  1  0  0  0  0 
  8  2  1  0  0  0  0 
  8  6  2  0  0  0  0 
 10  1  1  0  0  0  0 
 12  3  1  0  0  0  0 
 14  5  1  0  0  0  0 
 16  7  1  0  0  0  0 
M  END 
>  <HBA> 
0 
 
>  <HBD> 
0 
 
>  <TPSA> 
0.0 
 
>  <cid> 
7501 
 
>  <dipole> 
0.19 
 
>  <excitation_energy_1> 
4.762 
 
>  <excitation_energy_2> 
4.894 
 
>  <excitation_energy_3> 
5.698 
 
>  <excitation_energy_4> 
5.774 
 
>  <homo_energy> 
-6.033 
 
>  <homo_lumo_gap> 
5.203 
 
>  <logP> 
2.33 
 
>  <lumo_energy> 
-0.83 
 
>  <melting_point> 
-3.55 
 
>  <molecular_refractivity> 
36.53 
 
>  <oscillator_strength_1> 
0.1489 
 
>  <oscillator_strength_2> 
0.2304 
 
>  <oscillator_strength_3> 
0.0088 
 
>  <oscillator_strength_4> 
0.2259 
 
>  <open_babel_can_smiles> 
C=Cc1ccccc1 
 
>  <mulliken_charges> 
16 
1   -0.349977 
2   -0.116999 
3   -0.12957 
4   -0.127689 
5   -0.129307 
6   -0.196531 
7   -0.181934 
8   0.172432 
9   0.144324 
10   0.14186 
11   0.127049 
12   0.129961 
13   0.130347 
14   0.130237 
15   0.128313 
16   0.127485 
 
>  <lowdin_charges> 
16 
1   -0.334167 
2   -0.146255 
3   -0.15791 
4   -0.155713 
5   -0.153183 
6   -0.159158 
7   -0.153926 
8   -0.003603 
9   0.164145 
10   0.15711 
11   0.154642 
12   0.158687 
13   0.157968 
14   0.157971 
15   0.156133 
16   0.15726 
 
$$$$ 
 
