PCCDB-ID:  26436 
public computational chemistry database (PCCDB) project, http://pccdb.org 
 
 34 35  0  0  0  0  0  0  0  0999 V2000 
    8.8425    0.8425    1.7792 C   0  0  0  0  0  0  0  0  0  0  0  0 
    8.6095    1.0373    0.2891 C   0  0  0  0  0  0  0  0  0  0  0  0 
    0.5347   -1.0135    6.8696 C   0  0  0  0  0  0  0  0  0  0  0  0 
    1.7736   -1.6324    6.6920 C   0  0  0  0  0  0  0  0  0  0  0  0 
    0.0272   -0.1917    5.8614 C   0  0  0  0  0  0  0  0  0  0  0  0 
    2.4972   -1.4306    5.5183 C   0  0  0  0  0  0  0  0  0  0  0  0 
    0.7513    0.0088    4.6869 C   0  0  0  0  0  0  0  0  0  0  0  0 
    3.5414    1.0436    1.4368 C   0  0  0  0  0  0  0  0  0  0  0  0 
    4.2333   -1.2586    1.4912 C   0  0  0  0  0  0  0  0  0  0  0  0 
    2.8105    0.8532    2.6087 C   0  0  0  0  0  0  0  0  0  0  0  0 
    3.5050   -1.4481    2.6617 C   0  0  0  0  0  0  0  0  0  0  0  0 
    5.0520    0.1954   -0.4226 C   0  0  0  0  0  0  0  0  0  0  0  0 
    4.2593   -0.0084    0.8590 C   0  0  0  0  0  0  0  0  0  0  0  0 
    2.0001   -0.6070    4.4941 C   0  0  0  0  0  0  0  0  0  0  0  0 
    2.7765   -0.3971    3.2456 C   0  0  0  0  0  0  0  0  0  0  0  0 
    6.5372   -0.0367   -0.1887 C   0  0  0  0  0  0  0  0  0  0  0  0 
    7.0611   -1.1303   -0.1399 O   0  0  0  0  0  0  0  0  0  0  0  0 
    7.1941    1.1292   -0.0114 O   0  0  0  0  0  0  0  0  0  0  0  0 
    9.9180    0.8506    1.9909 H   0  0  0  0  0  0  0  0  0  0  0  0 
    8.4347   -0.1167    2.1102 H   0  0  0  0  0  0  0  0  0  0  0  0 
    8.3718    1.6457    2.3553 H   0  0  0  0  0  0  0  0  0  0  0  0 
    9.0398    0.2175   -0.2912 H   0  0  0  0  0  0  0  0  0  0  0  0 
    9.0212    1.9868   -0.0618 H   0  0  0  0  0  0  0  0  0  0  0  0 
   -0.0296   -1.1708    7.7847 H   0  0  0  0  0  0  0  0  0  0  0  0 
    2.1828   -2.2678    7.4732 H   0  0  0  0  0  0  0  0  0  0  0  0 
   -0.9403    0.2879    5.9852 H   0  0  0  0  0  0  0  0  0  0  0  0 
    3.4722   -1.8959    5.4019 H   0  0  0  0  0  0  0  0  0  0  0  0 
    0.3342    0.6280    3.8976 H   0  0  0  0  0  0  0  0  0  0  0  0 
    3.5580    2.0257    0.9700 H   0  0  0  0  0  0  0  0  0  0  0  0 
    4.7917   -2.0849    1.0601 H   0  0  0  0  0  0  0  0  0  0  0  0 
    2.2810    1.6934    3.0492 H   0  0  0  0  0  0  0  0  0  0  0  0 
    3.4783   -2.4339    3.1176 H   0  0  0  0  0  0  0  0  0  0  0  0 
    4.8924    1.2041   -0.8112 H   0  0  0  0  0  0  0  0  0  0  0  0 
    4.7340   -0.5259   -1.1835 H   0  0  0  0  0  0  0  0  0  0  0  0 
  1 19  1  0  0  0  0 
  1 20  1  0  0  0  0 
  1 21  1  0  0  0  0 
  2  1  1  0  0  0  0 
  3 24  1  0  0  0  0 
  4  3  1  0  0  0  0 
  4 25  1  0  0  0  0 
  5 26  1  0  0  0  0 
  5  3  2  0  0  0  0 
  6  4  2  0  0  0  0 
  7  5  1  0  0  0  0 
  8 10  1  0  0  0  0 
  9 11  2  0  0  0  0 
 10 31  1  0  0  0  0 
 10 15  2  0  0  0  0 
 11 32  1  0  0  0  0 
 11 15  1  0  0  0  0 
 12 16  1  0  0  0  0 
 12 13  1  0  0  0  0 
 13  8  2  0  0  0  0 
 13  9  1  0  0  0  0 
 14  7  2  0  0  0  0 
 14  6  1  0  0  0  0 
 15 14  1  0  0  0  0 
 16 17  2  0  0  0  0 
 16 18  1  0  0  0  0 
 18  2  1  0  0  0  0 
 22  2  1  0  0  0  0 
 23  2  1  0  0  0  0 
 27  6  1  0  0  0  0 
 28  7  1  0  0  0  0 
 29  8  1  0  0  0  0 
 30  9  1  0  0  0  0 
 33 12  1  0  0  0  0 
 34 12  1  0  0  0  0 
M  END 
>  <HBA> 
2 
 
>  <HBD> 
0 
 
>  <TPSA> 
26.3 
 
>  <cid> 
26436 
 
>  <dipole> 
1.61 
 
>  <excitation_energy_1> 
4.705 
 
>  <excitation_energy_2> 
4.832 
 
>  <excitation_energy_3> 
4.924 
 
>  <excitation_energy_4> 
5.365 
 
>  <homo_energy> 
-6.0 
 
>  <homo_lumo_gap> 
5.225 
 
>  <logP> 
3.459 
 
>  <lumo_energy> 
-0.776 
 
>  <melting_point> 
55.87 
 
>  <molecular_refractivity> 
72.55 
 
>  <oscillator_strength_1> 
0.563 
 
>  <oscillator_strength_2> 
0.001 
 
>  <oscillator_strength_3> 
0.0002 
 
>  <oscillator_strength_4> 
0.011 
 
>  <open_babel_can_smiles> 
CCOC(=O)Cc1ccc(cc1)c1ccccc1 
 
>  <mulliken_charges> 
34 
1   -0.461183 
2   -0.048223 
3   -0.126717 
4   -0.133769 
5   -0.133772 
6   -0.173727 
7   -0.173531 
8   -0.187332 
9   -0.176761 
10   -0.175138 
11   -0.175502 
12   -0.421615 
13   0.151524 
14   0.088399 
15   0.090146 
16   0.623101 
17   -0.476446 
18   -0.454851 
19   0.149833 
20   0.177962 
21   0.159855 
22   0.171385 
23   0.152624 
24   0.129447 
25   0.130551 
26   0.130194 
27   0.133271 
28   0.131544 
29   0.128151 
30   0.152645 
31   0.132869 
32   0.135119 
33   0.1682 
34   0.181744 
 
>  <lowdin_charges> 
34 
1   -0.453711 
2   -0.128457 
3   -0.158423 
4   -0.155453 
5   -0.153707 
6   -0.160603 
7   -0.162901 
8   -0.163218 
9   -0.160108 
10   -0.16157 
11   -0.157817 
12   -0.293081 
13   -0.002642 
14   -0.00175 
15   -0.001509 
16   0.201313 
17   -0.274616 
18   -0.192136 
19   0.157065 
20   0.16641 
21   0.158597 
22   0.160297 
23   0.152585 
24   0.158153 
25   0.159176 
26   0.157441 
27   0.15907 
28   0.15999 
29   0.15673 
30   0.17007 
31   0.160923 
32   0.160319 
33   0.166841 
34   0.176718 
 
$$$$ 
 
