PCCDB-ID:  8776 
public computational chemistry database (PCCDB) project, http://pccdb.org 
 
 22 22  0  0  0  0  0  0  0  0999 V2000 
    0.6408    1.3295    1.4455 C   0  0  0  0  0  0  0  0  0  0  0  0 
    1.8930    0.7860    0.7612 C   0  0  0  0  0  0  0  0  0  0  0  0 
    7.0052   -1.5627   -1.8829 C   0  0  0  0  0  0  0  0  0  0  0  0 
    7.9662   -1.1683   -0.9920 C   0  0  0  0  0  0  0  0  0  0  0  0 
    4.2227    0.7049    1.1708 C   0  0  0  0  0  0  0  0  0  0  0  0 
    5.7255   -0.4975   -0.4440 C   0  0  0  0  0  0  0  0  0  0  0  0 
    3.0785    1.0982    1.5509 N   0  0  0  0  0  0  0  0  0  0  0  0 
    5.7370   -1.1827   -1.5720 N   0  0  0  0  0  0  0  0  0  0  0  0 
    4.5231   -0.0272    0.0280 N   0  0  0  0  0  0  0  0  0  0  0  0 
    9.3644   -1.4250   -1.0600 N   0  0  0  0  0  0  0  0  0  0  0  0 
    5.3372    0.9796    1.8885 O   0  0  0  0  0  0  0  0  0  0  0  0 
    9.7807   -2.0724   -2.0243 O   0  0  0  0  0  0  0  0  0  0  0  0 
   10.0628   -0.9771   -0.1416 O   0  0  0  0  0  0  0  0  0  0  0  0 
    7.2809   -0.2600    0.3374 S   0  0  0  0  0  0  0  0  0  0  0  0 
   -0.2535    1.1015    0.8554 H   0  0  0  0  0  0  0  0  0  0  0  0 
    0.7117    2.4152    1.5654 H   0  0  0  0  0  0  0  0  0  0  0  0 
    0.5248    0.8859    2.4394 H   0  0  0  0  0  0  0  0  0  0  0  0 
    1.9720    1.2232   -0.2488 H   0  0  0  0  0  0  0  0  0  0  0  0 
    1.7868   -0.3045    0.6275 H   0  0  0  0  0  0  0  0  0  0  0  0 
    7.2028   -2.1347   -2.7809 H   0  0  0  0  0  0  0  0  0  0  0  0 
    3.7452   -0.2715   -0.5731 H   0  0  0  0  0  0  0  0  0  0  0  0 
    5.0327    1.4844    2.6643 H   0  0  0  0  0  0  0  0  0  0  0  0 
  1 16  1  0  0  0  0 
  1 17  1  0  0  0  0 
  2  1  1  0  0  0  0 
  2  7  1  0  0  0  0 
  3  8  1  0  0  0  0 
  3  4  2  0  0  0  0 
  4 14  1  0  0  0  0 
  5  7  2  0  0  0  0 
  5 11  1  0  0  0  0 
  6  9  1  0  0  0  0 
  6 14  1  0  0  0  0 
  8  6  2  0  0  0  0 
  9  5  1  0  0  0  0 
 10  4  1  0  0  0  0 
 10 13  2  0  0  0  0 
 11 22  1  0  0  0  0 
 12 10  2  0  0  0  0 
 15  1  1  0  0  0  0 
 18  2  1  0  0  0  0 
 19  2  1  0  0  0  0 
 20  3  1  0  0  0  0 
 21  9  1  0  0  0  0 
M  END 
>  <HBA> 
5 
 
>  <HBD> 
2 
 
>  <TPSA> 
128.08 
 
>  <cid> 
8776 
 
>  <dipole> 
5.72 
 
>  <excitation_energy_1> 
3.605 
 
>  <excitation_energy_2> 
3.719 
 
>  <excitation_energy_3> 
4.135 
 
>  <excitation_energy_4> 
4.554 
 
>  <homo_energy> 
-6.604 
 
>  <homo_lumo_gap> 
4.033 
 
>  <logP> 
2.18 
 
>  <lumo_energy> 
-2.571 
 
>  <melting_point> 
149.98 
 
>  <molecular_refractivity> 
53.25 
 
>  <oscillator_strength_1> 
0.3723 
 
>  <oscillator_strength_2> 
0.0 
 
>  <oscillator_strength_3> 
0.0005 
 
>  <oscillator_strength_4> 
0.0 
 
>  <open_babel_can_smiles> 
CC/N=C(\Nc1ncc(s1)N(=O)=O)/O 
 
>  <mulliken_charges> 
22 
1   -0.435797 
2   -0.163721 
3   0.082382 
4   0.015978 
5   0.726941 
6   0.343928 
7   -0.475684 
8   -0.469048 
9   -0.697404 
10   0.380857 
11   -0.606304 
12   -0.408581 
13   -0.393946 
14   0.356887 
15   0.142892 
16   0.158928 
17   0.158501 
18   0.140445 
19   0.138298 
20   0.198865 
21   0.372458 
22   0.433125 
 
>  <lowdin_charges> 
22 
1   -0.44022 
2   -0.197212 
3   -0.07661 
4   -0.185114 
5   0.164027 
6   -0.014083 
7   -0.260013 
8   -0.19308 
9   -0.220642 
10   0.315251 
11   -0.351353 
12   -0.255388 
13   -0.257187 
14   0.35464 
15   0.151877 
16   0.155476 
17   0.156567 
18   0.135063 
19   0.132548 
20   0.192511 
21   0.313984 
22   0.378958 
 
$$$$ 
 
