PCCDB-ID:  8078 
public computational chemistry database (PCCDB) project, http://pccdb.org 
 
 18 18  0  0  0  0  0  0  0  0999 V2000 
    0.7305    1.2695   -0.2322 C   0  0  0  0  0  0  0  0  0  0  0  0 
    1.4664   -0.0009    0.2229 C   0  0  0  0  0  0  0  0  0  0  0  0 
   -0.7346    1.2702    0.2337 C   0  0  0  0  0  0  0  0  0  0  0  0 
    0.7295   -1.2711   -0.2313 C   0  0  0  0  0  0  0  0  0  0  0  0 
   -1.4714    0.0000   -0.2208 C   0  0  0  0  0  0  0  0  0  0  0  0 
   -0.7355   -1.2704    0.2346 C   0  0  0  0  0  0  0  0  0  0  0  0 
    0.7591    1.3276   -1.3307 H   0  0  0  0  0  0  0  0  0  0  0  0 
    1.2481    2.1630    0.1403 H   0  0  0  0  0  0  0  0  0  0  0  0 
    1.5419   -0.0006    1.3207 H   0  0  0  0  0  0  0  0  0  0  0  0 
    2.4953   -0.0015   -0.1596 H   0  0  0  0  0  0  0  0  0  0  0  0 
   -1.2515    2.1639   -0.1392 H   0  0  0  0  0  0  0  0  0  0  0  0 
   -0.7632    1.3288    1.3322 H   0  0  0  0  0  0  0  0  0  0  0  0 
    1.2464   -2.1648    0.1418 H   0  0  0  0  0  0  0  0  0  0  0  0 
    0.7580   -1.3300   -1.3298 H   0  0  0  0  0  0  0  0  0  0  0  0 
   -1.5465   -0.0004   -1.3186 H   0  0  0  0  0  0  0  0  0  0  0  0 
   -2.5005    0.0005    0.1612 H   0  0  0  0  0  0  0  0  0  0  0  0 
   -0.7641   -1.3282    1.3331 H   0  0  0  0  0  0  0  0  0  0  0  0 
   -1.2532   -2.1639   -0.1377 H   0  0  0  0  0  0  0  0  0  0  0  0 
  1  8  1  0  0  0  0 
  1  2  1  0  0  0  0 
  1  3  1  0  0  0  0 
  2  9  1  0  0  0  0 
  3 12  1  0  0  0  0 
  4 13  1  0  0  0  0 
  4  2  1  0  0  0  0 
  4  6  1  0  0  0  0 
  5 16  1  0  0  0  0 
  5  3  1  0  0  0  0 
  5  6  1  0  0  0  0 
  6 17  1  0  0  0  0 
  7  1  1  0  0  0  0 
 10  2  1  0  0  0  0 
 11  3  1  0  0  0  0 
 14  4  1  0  0  0  0 
 15  5  1  0  0  0  0 
 18  6  1  0  0  0  0 
M  END 
>  <HBA> 
0 
 
>  <HBD> 
0 
 
>  <TPSA> 
0.0 
 
>  <cid> 
8078 
 
>  <dipole> 
0.0 
 
>  <excitation_energy_1> 
7.458 
 
>  <excitation_energy_2> 
7.458 
 
>  <excitation_energy_3> 
7.909 
 
>  <excitation_energy_4> 
7.909 
 
>  <homo_energy> 
-7.943 
 
>  <homo_lumo_gap> 
10.33 
 
>  <logP> 
2.341 
 
>  <lumo_energy> 
2.386 
 
>  <melting_point> 
-3.98 
 
>  <molecular_refractivity> 
28.84 
 
>  <oscillator_strength_1> 
0.0 
 
>  <oscillator_strength_2> 
0.0 
 
>  <oscillator_strength_3> 
0.0002 
 
>  <oscillator_strength_4> 
0.0003 
 
>  <open_babel_can_smiles> 
C1CCCCC1 
 
>  <mulliken_charges> 
18 
1   -0.253995 
2   -0.254531 
3   -0.25409 
4   -0.254085 
5   -0.254523 
6   -0.254106 
7   0.126035 
8   0.128112 
9   0.126153 
10   0.128203 
11   0.128119 
12   0.126038 
13   0.128119 
14   0.126038 
15   0.126151 
16   0.128203 
17   0.126038 
18   0.128121 
 
>  <lowdin_charges> 
18 
1   -0.276911 
2   -0.275096 
3   -0.27692 
4   -0.276925 
5   -0.275091 
6   -0.276926 
7   0.134234 
8   0.142606 
9   0.134268 
10   0.140996 
11   0.142604 
12   0.134234 
13   0.142605 
14   0.134233 
15   0.134264 
16   0.140992 
17   0.13423 
18   0.142604 
 
$$$$ 
 
