PCCDB-ID:  10302 
public computational chemistry database (PCCDB) project, http://pccdb.org 
 
 32 33  0  0  1  0  0  0  0  0999 V2000 
    0.7948    0.6520    0.2802 C   0  0  0  0  0  0  0  0  0  0  0  0 
    4.9078   -4.0272   -3.6390 C   0  0  0  0  0  0  0  0  0  0  0  0 
    2.0471   -4.5372   -0.4304 C   0  0  0  0  0  0  0  0  0  0  0  0 
    3.6779    1.5194   -2.3271 C   0  0  0  0  0  0  0  0  0  0  0  0 
    2.8382    2.4023   -1.4051 C   0  0  0  0  0  0  0  0  0  0  0  0 
    3.7419   -0.9004   -3.0710 C   0  0  0  0  0  0  0  0  0  0  0  0 
    2.5407   -1.7642   -0.7356 C   0  0  0  0  0  0  0  0  0  0  0  0 
    2.3358    0.5823    0.1650 C   0  0  1  0  0  0  0  0  0  0  0  0 
    3.3799    0.0505   -2.1047 C   0  0  0  0  0  0  0  0  0  0  0  0 
    2.7725   -0.3909   -0.9240 C   0  0  0  0  0  0  0  0  0  0  0  0 
    3.5139   -2.2574   -2.8933 C   0  0  0  0  0  0  0  0  0  0  0  0 
    2.8963   -2.7023   -1.7024 C   0  0  0  0  0  0  0  0  0  0  0  0 
    2.9680    1.8939   -0.0384 N   0  0  0  0  0  0  0  0  0  0  0  0 
    3.8313   -3.1283   -3.9098 O   0  0  0  0  0  0  0  0  0  0  0  0 
    2.6882   -4.0509   -1.5971 O   0  0  0  0  0  0  0  0  0  0  0  0 
    0.3613   -0.3363    0.4690 H   0  0  0  0  0  0  0  0  0  0  0  0 
    0.3436    1.0400   -0.6394 H   0  0  0  0  0  0  0  0  0  0  0  0 
    0.5050    1.3081    1.1112 H   0  0  0  0  0  0  0  0  0  0  0  0 
    4.6745   -4.6940   -2.8031 H   0  0  0  0  0  0  0  0  0  0  0  0 
    5.8328   -3.4756   -3.4217 H   0  0  0  0  0  0  0  0  0  0  0  0 
    5.0457   -4.6166   -4.5488 H   0  0  0  0  0  0  0  0  0  0  0  0 
    1.9695   -5.6184   -0.5600 H   0  0  0  0  0  0  0  0  0  0  0  0 
    1.0407   -4.1127   -0.3171 H   0  0  0  0  0  0  0  0  0  0  0  0 
    2.6317   -4.3216    0.4742 H   0  0  0  0  0  0  0  0  0  0  0  0 
    4.7408    1.7117   -2.1250 H   0  0  0  0  0  0  0  0  0  0  0  0 
    3.4990    1.7889   -3.3760 H   0  0  0  0  0  0  0  0  0  0  0  0 
    1.7952    2.4284   -1.7725 H   0  0  0  0  0  0  0  0  0  0  0  0 
    3.2098    3.4327   -1.4234 H   0  0  0  0  0  0  0  0  0  0  0  0 
    4.2115   -0.5874   -4.0003 H   0  0  0  0  0  0  0  0  0  0  0  0 
    2.0734   -2.0922    0.1875 H   0  0  0  0  0  0  0  0  0  0  0  0 
    2.7170    0.2010    1.1234 H   0  0  0  0  0  0  0  0  0  0  0  0 
    2.5688    2.5583    0.6212 H   0  0  0  0  0  0  0  0  0  0  0  0 
  1 16  1  0  0  0  0 
  1 18  1  0  0  0  0 
  2 20  1  0  0  0  0 
  2 19  1  0  0  0  0 
  3 23  1  0  0  0  0 
  3 24  1  0  0  0  0 
  4 25  1  0  0  0  0 
  4  9  1  0  0  0  0 
  4  5  1  0  0  0  0 
  5 13  1  0  0  0  0 
  6 11  2  0  0  0  0 
  6  9  1  0  0  0  0 
  7 30  1  0  0  0  0 
  8  1  1  0  0  0  0 
  8 31  1  1  0  0  0 
  9 10  2  0  0  0  0 
 10  7  1  0  0  0  0 
 10  8  1  0  0  0  0 
 11 12  1  0  0  0  0 
 12 15  1  0  0  0  0 
 12  7  2  0  0  0  0 
 13  8  1  0  0  0  0 
 13 32  1  0  0  0  0 
 14  2  1  0  0  0  0 
 14 11  1  0  0  0  0 
 15  3  1  0  0  0  0 
 17  1  1  0  0  0  0 
 21  2  1  0  0  0  0 
 22  3  1  0  0  0  0 
 26  4  1  0  0  0  0 
 27  5  1  0  0  0  0 
 28  5  1  0  0  0  0 
 29  6  1  0  0  0  0 
M  END 
>  <HBA> 
3 
 
>  <HBD> 
1 
 
>  <TPSA> 
30.49 
 
>  <cid> 
10302 
 
>  <dipole> 
2.15 
 
>  <excitation_energy_1> 
4.783 
 
>  <excitation_energy_2> 
5.051 
 
>  <excitation_energy_3> 
5.09 
 
>  <excitation_energy_4> 
5.226 
 
>  <homo_energy> 
-5.508 
 
>  <homo_lumo_gap> 
5.709 
 
>  <logP> 
2.239 
 
>  <lumo_energy> 
0.201 
 
>  <melting_point> 
72.64 
 
>  <molecular_refractivity> 
63.57 
 
>  <oscillator_strength_1> 
0.0651 
 
>  <oscillator_strength_2> 
0.0115 
 
>  <oscillator_strength_3> 
0.0041 
 
>  <oscillator_strength_4> 
0.0036 
 
>  <open_babel_can_smiles> 
COc1cc2[C@H](C)NCCc2cc1OC 
 
>  <mulliken_charges> 
32 
1   -0.450285 
2   -0.208811 
3   -0.21246 
4   -0.319776 
5   -0.14953 
6   -0.247273 
7   -0.276214 
8   -0.034048 
9   0.108598 
10   0.12631 
11   0.320571 
12   0.35219 
13   -0.558942 
14   -0.524139 
15   -0.512314 
16   0.143734 
17   0.153945 
18   0.133075 
19   0.160181 
20   0.136634 
21   0.155539 
22   0.168698 
23   0.151872 
24   0.150206 
25   0.158174 
26   0.138379 
27   0.119655 
28   0.134989 
29   0.126314 
30   0.12458 
31   0.137384 
32   0.292767 
 
>  <lowdin_charges> 
32 
1   -0.46176 
2   -0.276217 
3   -0.274671 
4   -0.273483 
5   -0.201095 
6   -0.178136 
7   -0.217025 
8   -0.059932 
9   -0.023601 
10   -0.015252 
11   0.068365 
12   0.076263 
13   -0.364335 
14   -0.224847 
15   -0.197365 
16   0.150828 
17   0.153122 
18   0.143904 
19   0.14897 
20   0.137136 
21   0.154761 
22   0.16003 
23   0.144351 
24   0.144021 
25   0.154961 
26   0.148162 
27   0.117165 
28   0.144673 
29   0.162693 
30   0.158552 
31   0.145228 
32   0.254536 
 
$$$$ 
 
