PCCDB-ID:  37511 
public computational chemistry database (PCCDB) project, http://pccdb.org 
 
 20 19  0  0  1  0  0  0  0  0999 V2000 
    3.5499    1.1825   -0.1103 C   0  0  0  0  0  0  0  0  0  0  0  0 
    0.7160   -2.3116    0.4754 C   0  0  0  0  0  0  0  0  0  0  0  0 
    2.7122   -3.6344    0.2503 C   0  0  0  0  0  0  0  0  0  0  0  0 
    2.7989   -1.2429   -0.2030 C   0  0  0  0  0  0  0  0  0  0  0  0 
    2.7160    0.0938    0.5527 C   0  0  1  0  0  0  0  0  0  0  0  0 
    2.1733   -2.3183    0.5782 N   0  0  0  0  0  0  0  0  0  0  0  0 
    3.1918   -0.0943    1.8769 O   0  0  0  0  0  0  0  0  0  0  0  0 
    3.1849    1.3984   -1.1213 H   0  0  0  0  0  0  0  0  0  0  0  0 
    4.6002    0.8757   -0.1713 H   0  0  0  0  0  0  0  0  0  0  0  0 
    3.4998    2.1035    0.4789 H   0  0  0  0  0  0  0  0  0  0  0  0 
    0.2970   -3.0633    1.1526 H   0  0  0  0  0  0  0  0  0  0  0  0 
    0.3614   -2.5336   -0.5492 H   0  0  0  0  0  0  0  0  0  0  0  0 
    0.3181   -1.3363    0.7689 H   0  0  0  0  0  0  0  0  0  0  0  0 
    2.2757   -4.3852    0.9181 H   0  0  0  0  0  0  0  0  0  0  0  0 
    3.7970   -3.6374    0.3960 H   0  0  0  0  0  0  0  0  0  0  0  0 
    2.5011   -3.9423   -0.7913 H   0  0  0  0  0  0  0  0  0  0  0  0 
    3.8596   -1.4932   -0.3219 H   0  0  0  0  0  0  0  0  0  0  0  0 
    2.3620   -1.1508   -1.2150 H   0  0  0  0  0  0  0  0  0  0  0  0 
    1.6629    0.4288    0.5754 H   0  0  0  0  0  0  0  0  0  0  0  0 
    2.8925   -0.9950    2.1114 H   0  0  0  0  0  0  0  0  0  0  0  0 
  1 10  1  0  0  0  0 
  1  5  1  0  0  0  0 
  2  6  1  0  0  0  0 
  2 13  1  0  0  0  0 
  2 11  1  0  0  0  0 
  3 15  1  0  0  0  0 
  3  6  1  0  0  0  0 
  3 14  1  0  0  0  0 
  4  5  1  0  0  0  0 
  4  6  1  0  0  0  0 
  5 19  1  1  0  0  0 
  5  7  1  0  0  0  0 
  7 20  1  0  0  0  0 
  8  1  1  0  0  0  0 
  9  1  1  0  0  0  0 
 12  2  1  0  0  0  0 
 16  3  1  0  0  0  0 
 17  4  1  0  0  0  0 
 18  4  1  0  0  0  0 
M  END 
>  <HBA> 
2 
 
>  <HBD> 
1 
 
>  <TPSA> 
23.47 
 
>  <cid> 
37511 
 
>  <dipole> 
2.54 
 
>  <excitation_energy_1> 
5.687 
 
>  <excitation_energy_2> 
6.154 
 
>  <excitation_energy_3> 
6.292 
 
>  <excitation_energy_4> 
6.358 
 
>  <homo_energy> 
-6.153 
 
>  <homo_lumo_gap> 
8.261 
 
>  <logP> 
-0.071 
 
>  <lumo_energy> 
2.109 
 
>  <melting_point> 
-4.64 
 
>  <molecular_refractivity> 
30.21 
 
>  <oscillator_strength_1> 
0.0286 
 
>  <oscillator_strength_2> 
0.0112 
 
>  <oscillator_strength_3> 
0.0612 
 
>  <oscillator_strength_4> 
0.0498 
 
>  <open_babel_can_smiles> 
CN(C[C@@H](O)C)C 
 
>  <mulliken_charges> 
20 
1   -0.44726 
2   -0.304953 
3   -0.295419 
4   -0.139639 
5   0.154377 
6   -0.399789 
7   -0.64273 
8   0.134596 
9   0.147775 
10   0.159767 
11   0.153296 
12   0.12574 
13   0.161792 
14   0.151159 
15   0.156546 
16   0.125069 
17   0.141437 
18   0.115444 
19   0.106053 
20   0.396739 
 
>  <lowdin_charges> 
20 
1   -0.445701 
2   -0.360067 
3   -0.35409 
4   -0.219594 
5   -0.001446 
6   -0.186276 
7   -0.477763 
8   0.147953 
9   0.150876 
10   0.160829 
11   0.153684 
12   0.125226 
13   0.154916 
14   0.152198 
15   0.151511 
16   0.124343 
17   0.147354 
18   0.125387 
19   0.115712 
20   0.334946 
 
$$$$ 
 
