PCCDB-ID:  18152 
public computational chemistry database (PCCDB) project, http://pccdb.org 
 
 38 38  0  0  1  0  0  0  0  0999 V2000 
    2.2423   -4.4964    0.6340 C   0  0  0  0  0  0  0  0  0  0  0  0 
    1.8706   -0.7914    0.8932 C   0  0  0  0  0  0  0  0  0  0  0  0 
    6.9396    2.2894    0.7441 C   0  0  0  0  0  0  0  0  0  0  0  0 
    6.1531    1.9362   -1.6388 C   0  0  0  0  0  0  0  0  0  0  0  0 
    8.5809   -4.4789   -0.4781 C   0  0  0  0  0  0  0  0  0  0  0  0 
    2.3827   -3.7470   -0.6998 C   0  0  0  0  0  0  0  0  0  0  0  0 
    2.2130   -1.2263   -0.5345 C   0  0  0  0  0  0  0  0  0  0  0  0 
    6.2284    1.3362   -0.2251 C   0  0  0  0  0  0  0  0  0  0  0  0 
    6.3525   -1.0252   -0.3575 C   0  0  0  0  0  0  0  0  0  0  0  0 
    4.3966   -2.3002   -0.5366 C   0  0  2  0  0  0  0  0  0  0  0  0 
    6.5380   -3.3131   -0.5214 C   0  0  0  0  0  0  0  0  0  0  0  0 
    6.9790    0.0871   -0.2719 N   0  0  0  0  0  0  0  0  0  0  0  0 
    4.9485   -1.1353   -0.4066 N   0  0  0  0  0  0  0  0  0  0  0  0 
    7.1469   -2.2021   -0.3956 N   0  0  0  0  0  0  0  0  0  0  0  0 
    5.1643   -3.4601   -0.6251 N   0  0  0  0  0  0  0  0  0  0  0  0 
    3.0364   -2.4419   -0.6167 N   0  0  0  0  0  0  0  0  0  0  0  0 
    7.1467   -4.5106   -0.5723 O   0  0  0  0  0  0  0  0  0  0  0  0 
    1.7474   -5.4613    0.4739 H   0  0  0  0  0  0  0  0  0  0  0  0 
    1.6448   -3.9192    1.3457 H   0  0  0  0  0  0  0  0  0  0  0  0 
    3.2161   -4.6868    1.0984 H   0  0  0  0  0  0  0  0  0  0  0  0 
    1.2813    0.1327    0.8696 H   0  0  0  0  0  0  0  0  0  0  0  0 
    2.7865   -0.5970    1.4583 H   0  0  0  0  0  0  0  0  0  0  0  0 
    1.2840   -1.5502    1.4230 H   0  0  0  0  0  0  0  0  0  0  0  0 
    6.4110    3.2486    0.8118 H   0  0  0  0  0  0  0  0  0  0  0  0 
    7.9663    2.4782    0.4100 H   0  0  0  0  0  0  0  0  0  0  0  0 
    6.9905    1.8527    1.7477 H   0  0  0  0  0  0  0  0  0  0  0  0 
    5.6499    2.9113   -1.6255 H   0  0  0  0  0  0  0  0  0  0  0  0 
    5.5985    1.2719   -2.3109 H   0  0  0  0  0  0  0  0  0  0  0  0 
    7.1607    2.0713   -2.0488 H   0  0  0  0  0  0  0  0  0  0  0  0 
    8.8931   -5.5218   -0.5433 H   0  0  0  0  0  0  0  0  0  0  0  0 
    8.8918   -4.0365    0.4714 H   0  0  0  0  0  0  0  0  0  0  0  0 
    9.0043   -3.8919   -1.2967 H   0  0  0  0  0  0  0  0  0  0  0  0 
    1.3897   -3.5745   -1.1255 H   0  0  0  0  0  0  0  0  0  0  0  0 
    2.9059   -4.3726   -1.4360 H   0  0  0  0  0  0  0  0  0  0  0  0 
    2.7642   -0.4289   -1.0358 H   0  0  0  0  0  0  0  0  0  0  0  0 
    1.2993   -1.4202   -1.1074 H   0  0  0  0  0  0  0  0  0  0  0  0 
    5.1997    1.1753    0.1295 H   0  0  0  0  0  0  0  0  0  0  0  0 
    4.7805   -4.3910   -0.6665 H   0  0  0  0  0  0  0  0  0  0  0  0 
  1 20  1  0  0  0  0 
  1 19  1  0  0  0  0 
  2 23  1  0  0  0  0 
  2 22  1  0  0  0  0 
  3 24  1  0  0  0  0 
  3 26  1  0  0  0  0 
  4 27  1  0  0  0  0 
  4  8  1  0  0  0  0 
  5 31  1  0  0  0  0 
  6 16  1  0  0  0  0 
  6  1  1  0  0  0  0 
  7  2  1  0  0  0  0 
  8 37  1  0  0  0  0 
  8  3  1  0  0  0  0 
  9 12  1  0  0  0  0 
 10 16  1  6  0  0  0 
 10 13  1  0  0  0  0 
 11 14  2  0  0  0  0 
 12  8  1  0  0  0  0 
 13  9  2  0  0  0  0 
 14  9  2  0  0  0  0 
 15 10  1  0  0  0  0 
 15 11  1  0  0  0  0 
 16  7  1  0  0  0  0 
 17 11  1  0  0  0  0 
 17  5  1  0  0  0  0 
 18  1  1  0  0  0  0 
 21  2  1  0  0  0  0 
 25  3  1  0  0  0  0 
 28  4  1  0  0  0  0 
 29  4  1  0  0  0  0 
 30  5  1  0  0  0  0 
 32  5  1  0  0  0  0 
 33  6  1  0  0  0  0 
 34  6  1  0  0  0  0 
 35  7  1  0  0  0  0 
 36  7  1  0  0  0  0 
 38 15  1  0  0  0  0 
M  RAD  2  10   2  12   2 
M  END 
>  <HBA> 
6 
 
>  <HBD> 
1 
 
>  <TPSA> 
63.17 
 
>  <cid> 
18152 
 
>  <dipole> 
7.34 
 
>  <excitation_energy_1> 
4.491 
 
>  <excitation_energy_2> 
4.806 
 
>  <excitation_energy_3> 
4.97 
 
>  <excitation_energy_4> 
5.136 
 
>  <homo_energy> 
-5.284 
 
>  <homo_lumo_gap> 
5.622 
 
>  <logP> 
1.62 
 
>  <lumo_energy> 
0.337 
 
>  <melting_point> 
98.19 
 
>  <molecular_refractivity> 
69.06 
 
>  <oscillator_strength_1> 
0.024 
 
>  <oscillator_strength_2> 
0.0035 
 
>  <oscillator_strength_3> 
0.0022 
 
>  <oscillator_strength_4> 
0.0151 
 
>  <open_babel_can_smiles> 
CCN([C]1NC(=[N]=[C](=N1)[N]C(C)C)OC)CC 
 
>  <mulliken_charges> 
38 
1   -0.447763 
2   -0.448393 
3   -0.427047 
4   -0.434182 
5   -0.210659 
6   -0.168889 
7   -0.136281 
8   0.041426 
9   0.557066 
10   0.786098 
11   0.761786 
12   -0.475475 
13   -0.570946 
14   -0.510348 
15   -0.733416 
16   -0.469069 
17   -0.50581 
18   0.154127 
19   0.169236 
20   0.155356 
21   0.149533 
22   0.180857 
23   0.140023 
24   0.119384 
25   0.142539 
26   0.136375 
27   0.123823 
28   0.13769 
29   0.144625 
30   0.161217 
31   0.180413 
32   0.181706 
33   0.164651 
34   0.149625 
35   0.194881 
36   0.137475 
37   0.12105 
38   0.347316 
 
>  <lowdin_charges> 
38 
1   -0.459733 
2   -0.455045 
3   -0.443166 
4   -0.446621 
5   -0.268812 
6   -0.200412 
7   -0.191659 
8   -0.056258 
9   0.105408 
10   0.153597 
11   0.170859 
12   -0.219783 
13   -0.267966 
14   -0.216164 
15   -0.257872 
16   -0.102877 
17   -0.197427 
18   0.157701 
19   0.162209 
20   0.152697 
21   0.15639 
22   0.167445 
23   0.14558 
24   0.137635 
25   0.147734 
26   0.146286 
27   0.140343 
28   0.147958 
29   0.148359 
30   0.157573 
31   0.165018 
32   0.166812 
33   0.160146 
34   0.146162 
35   0.176284 
36   0.144184 
37   0.126834 
38   0.300581 
 
$$$$ 
 
