PCCDB-ID:  27662 
public computational chemistry database (PCCDB) project, http://pccdb.org 
 
 25 25  0  0  1  0  0  0  0  0999 V2000 
    1.9417   -0.1560    0.1316 C   0  0  0  0  0  0  0  0  0  0  0  0 
    1.2193    1.1431   -0.1092 C   0  0  0  0  0  0  0  0  0  0  0  0 
    1.0011   -1.3074    0.3679 C   0  0  0  0  0  0  0  0  0  0  0  0 
   -0.1112    1.2597   -0.1161 C   0  0  0  0  0  0  0  0  0  0  0  0 
   -0.3334   -1.1843    0.3634 C   0  0  0  0  0  0  0  0  0  0  0  0 
   -2.0944   -0.0023   -1.0674 C   0  0  0  0  0  0  0  0  0  0  0  0 
   -1.0658    0.1094    0.0972 C   0  0  2  0  0  0  0  0  0  0  0  0 
   -1.4915   -0.1712   -2.4930 C   0  0  1  0  0  0  0  0  0  0  0  0 
   -1.5828   -1.6336   -2.9726 C   0  0  0  0  0  0  0  0  0  0  0  0 
   -2.1493    0.7525   -3.4163 N   0  0  0  0  0  0  0  0  0  0  0  0 
   -2.3274   -1.9911   -3.8553 O   0  0  0  0  0  0  0  0  0  0  0  0 
   -0.7864   -2.5292   -2.3439 O   0  0  0  0  0  0  0  0  0  0  0  0 
    2.6194   -0.0562    0.9956 H   0  0  0  0  0  0  0  0  0  0  0  0 
    2.6120   -0.3817   -0.7139 H   0  0  0  0  0  0  0  0  0  0  0  0 
    1.8383    2.0231   -0.2752 H   0  0  0  0  0  0  0  0  0  0  0  0 
    1.4510   -2.2755    0.5848 H   0  0  0  0  0  0  0  0  0  0  0  0 
   -0.5662    2.2323   -0.2978 H   0  0  0  0  0  0  0  0  0  0  0  0 
   -0.9526   -2.0551    0.5791 H   0  0  0  0  0  0  0  0  0  0  0  0 
   -2.6716    0.9282   -1.0955 H   0  0  0  0  0  0  0  0  0  0  0  0 
   -2.8038   -0.8095   -0.8431 H   0  0  0  0  0  0  0  0  0  0  0  0 
   -1.6777    0.3300    0.9888 H   0  0  0  0  0  0  0  0  0  0  0  0 
   -0.4304    0.1098   -2.4519 H   0  0  0  0  0  0  0  0  0  0  0  0 
   -3.0886    0.3930   -3.5954 H   0  0  0  0  0  0  0  0  0  0  0  0 
   -1.6868    0.6876   -4.3236 H   0  0  0  0  0  0  0  0  0  0  0  0 
   -0.2576   -2.0870   -1.6487 H   0  0  0  0  0  0  0  0  0  0  0  0 
  1  3  1  0  0  0  0 
  1 13  1  0  0  0  0 
  2  1  1  0  0  0  0 
  3 16  1  0  0  0  0 
  4  2  2  0  0  0  0 
  4  7  1  0  0  0  0 
  5  3  2  0  0  0  0 
  5 18  1  0  0  0  0 
  6 20  1  0  0  0  0 
  6  7  1  0  0  0  0 
  7  5  1  0  0  0  0 
  7 21  1  1  0  0  0 
  8 22  1  1  0  0  0 
  8  6  1  0  0  0  0 
  9  8  1  0  0  0  0 
  9 12  1  0  0  0  0 
 10  8  1  0  0  0  0 
 11  9  2  0  0  0  0 
 12 25  1  0  0  0  0 
 14  1  1  0  0  0  0 
 15  2  1  0  0  0  0 
 17  4  1  0  0  0  0 
 19  6  1  0  0  0  0 
 23 10  1  0  0  0  0 
 24 10  1  0  0  0  0 
M  END 
>  <HBA> 
3 
 
>  <HBD> 
2 
 
>  <TPSA> 
63.32 
 
>  <cid> 
27662 
 
>  <dipole> 
4.34 
 
>  <excitation_energy_1> 
5.56 
 
>  <excitation_energy_2> 
5.622 
 
>  <excitation_energy_3> 
5.792 
 
>  <excitation_energy_4> 
5.952 
 
>  <homo_energy> 
-6.602 
 
>  <homo_lumo_gap> 
6.433 
 
>  <logP> 
1.621 
 
>  <lumo_energy> 
-0.169 
 
>  <melting_point> 
145.01 
 
>  <molecular_refractivity> 
46.79 
 
>  <oscillator_strength_1> 
0.0022 
 
>  <oscillator_strength_2> 
0.0038 
 
>  <oscillator_strength_3> 
0.0006 
 
>  <oscillator_strength_4> 
0.0252 
 
>  <open_babel_can_smiles> 
N[C@H](C(=O)O)C[C@@H]1C=CCC=C1 
 
>  <mulliken_charges> 
25 
1   -0.342429 
2   -0.114939 
3   -0.115069 
4   -0.098319 
5   -0.156989 
6   -0.291518 
7   -0.162099 
8   -0.094306 
9   0.563933 
10   -0.699471 
11   -0.454944 
12   -0.584937 
13   0.165254 
14   0.162663 
15   0.132832 
16   0.143452 
17   0.137848 
18   0.150011 
19   0.171843 
20   0.152087 
21   0.154478 
22   0.156106 
23   0.30826 
24   0.303928 
25   0.412324 
 
>  <lowdin_charges> 
25 
1   -0.274968 
2   -0.169693 
3   -0.164574 
4   -0.166622 
5   -0.184212 
6   -0.282788 
7   -0.125521 
8   -0.1149 
9   0.167923 
10   -0.53201 
11   -0.2569 
12   -0.364294 
13   0.162688 
14   0.161031 
15   0.158619 
16   0.161101 
17   0.160713 
18   0.163169 
19   0.165621 
20   0.152005 
21   0.159697 
22   0.15443 
23   0.260567 
24   0.259019 
25   0.3499 
 
$$$$ 
 
