PCCDB-ID:  32795 
public computational chemistry database (PCCDB) project, http://pccdb.org 
 
 22 22  0  0  1  0  0  0  0  0999 V2000 
    0.8464   -0.0935    0.0753 C   0  0  0  0  0  0  0  0  0  0  0  0 
    2.8486   -1.6357    0.0433 C   0  0  0  0  0  0  0  0  0  0  0  0 
    2.3754   -0.1813    0.1697 C   0  0  0  0  0  0  0  0  0  0  0  0 
    3.0555    0.7197   -0.8878 C   0  0  2  0  0  0  0  0  0  0  0  0 
    5.2172    1.6328   -0.9329 C   0  0  0  0  0  0  0  0  0  0  0  0 
    3.3577    3.0468   -0.9296 C   0  0  0  0  0  0  0  0  0  0  0  0 
    4.5177    0.5884   -0.7823 N   0  0  0  0  0  0  0  0  0  0  0  0 
    2.5385    2.0934   -0.7779 N   0  0  0  0  0  0  0  0  0  0  0  0 
    4.7196    2.9087   -1.1825 N   0  0  0  0  0  0  0  0  0  0  0  0 
    6.5675    1.6348   -0.8696 O   0  0  0  0  0  0  0  0  0  0  0  0 
    2.9988    4.3484   -0.8645 O   0  0  0  0  0  0  0  0  0  0  0  0 
    0.3783   -0.7079    0.8532 H   0  0  0  0  0  0  0  0  0  0  0  0 
    0.4935   -0.4653   -0.8962 H   0  0  0  0  0  0  0  0  0  0  0  0 
    0.4993    0.9365    0.1862 H   0  0  0  0  0  0  0  0  0  0  0  0 
    2.3937   -2.2570    0.8235 H   0  0  0  0  0  0  0  0  0  0  0  0 
    3.9356   -1.7097    0.1265 H   0  0  0  0  0  0  0  0  0  0  0  0 
    2.5548   -2.0572   -0.9277 H   0  0  0  0  0  0  0  0  0  0  0  0 
    2.6884    0.2046    1.1511 H   0  0  0  0  0  0  0  0  0  0  0  0 
    2.7622    0.3377   -1.8809 H   0  0  0  0  0  0  0  0  0  0  0  0 
    5.3253    3.7050   -1.0301 H   0  0  0  0  0  0  0  0  0  0  0  0 
    6.8196    0.7074   -0.7114 H   0  0  0  0  0  0  0  0  0  0  0  0 
    2.0382    4.3434   -0.7044 H   0  0  0  0  0  0  0  0  0  0  0  0 
  1  3  1  0  0  0  0 
  1 14  1  0  0  0  0 
  1 12  1  0  0  0  0 
  2 16  1  0  0  0  0 
  2  3  1  0  0  0  0 
  2 15  1  0  0  0  0 
  3 18  1  0  0  0  0 
  4 19  1  6  0  0  0 
  4  7  1  0  0  0  0 
  4  8  1  0  0  0  0 
  4  3  1  0  0  0  0 
  5 10  1  0  0  0  0 
  5  7  2  0  0  0  0 
  6 11  1  0  0  0  0 
  6  8  2  0  0  0  0 
  9 20  1  0  0  0  0 
  9  5  1  0  0  0  0 
  9  6  1  0  0  0  0 
 10 21  1  0  0  0  0 
 11 22  1  0  0  0  0 
 13  1  1  0  0  0  0 
 17  2  1  0  0  0  0 
M  END 
>  <HBA> 
5 
 
>  <HBD> 
3 
 
>  <TPSA> 
70.23 
 
>  <cid> 
32795 
 
>  <dipole> 
1.49 
 
>  <excitation_energy_1> 
5.429 
 
>  <excitation_energy_2> 
5.528 
 
>  <excitation_energy_3> 
5.822 
 
>  <excitation_energy_4> 
5.927 
 
>  <homo_energy> 
-6.177 
 
>  <homo_lumo_gap> 
6.651 
 
>  <logP> 
0.977 
 
>  <lumo_energy> 
0.473 
 
>  <melting_point> 
141.0 
 
>  <molecular_refractivity> 
50.17 
 
>  <oscillator_strength_1> 
0.0013 
 
>  <oscillator_strength_2> 
0.0058 
 
>  <oscillator_strength_3> 
0.0038 
 
>  <oscillator_strength_4> 
0.0008 
 
>  <open_babel_can_smiles> 
CC([C@@H]1N=C(O)NC(=N1)O)C 
 
>  <mulliken_charges> 
22 
1   -0.443958 
2   -0.444766 
3   -0.061231 
4   0.135881 
5   0.67495 
6   0.674831 
7   -0.485195 
8   -0.485357 
9   -0.652534 
10   -0.609419 
11   -0.609374 
12   0.134077 
13   0.13168 
14   0.159371 
15   0.134322 
16   0.159641 
17   0.131637 
18   0.1196 
19   0.135763 
20   0.354647 
21   0.422716 
22   0.422719 
 
>  <lowdin_charges> 
22 
1   -0.447429 
2   -0.446356 
3   -0.125238 
4   0.007017 
5   0.164022 
6   0.164692 
7   -0.266397 
8   -0.266728 
9   -0.267785 
10   -0.363981 
11   -0.36258 
12   0.147106 
13   0.142576 
14   0.156591 
15   0.147164 
16   0.155665 
17   0.142445 
18   0.137422 
19   0.134598 
20   0.30771 
21   0.369995 
22   0.369491 
 
$$$$ 
 
