PCCDB-ID:  7818 
public computational chemistry database (PCCDB) project, http://pccdb.org 
 
 22 22  0  0  0  0  0  0  0  0999 V2000 
    0.9732    0.0035   -0.0872 C   0  0  0  0  0  0  0  0  0  0  0  0 
    6.4359   -0.1922   -1.5167 C   0  0  0  0  0  0  0  0  0  0  0  0 
    2.9800    1.1288   -0.8267 C   0  0  0  0  0  0  0  0  0  0  0  0 
    2.9023   -1.2686   -0.7943 C   0  0  0  0  0  0  0  0  0  0  0  0 
    4.5067    1.0799   -0.8097 C   0  0  0  0  0  0  0  0  0  0  0  0 
    4.4291   -1.3175   -0.7771 C   0  0  0  0  0  0  0  0  0  0  0  0 
    2.4242   -0.0444   -0.1569 N   0  0  0  0  0  0  0  0  0  0  0  0 
    4.9849   -0.1443   -1.4470 N   0  0  0  0  0  0  0  0  0  0  0  0 
    0.6587    0.9081    0.4455 H   0  0  0  0  0  0  0  0  0  0  0  0 
    0.6014   -0.8649    0.4683 H   0  0  0  0  0  0  0  0  0  0  0  0 
    0.4856    0.0065   -1.0827 H   0  0  0  0  0  0  0  0  0  0  0  0 
    6.8076    0.6760   -2.0726 H   0  0  0  0  0  0  0  0  0  0  0  0 
    6.7504   -1.0970   -2.0489 H   0  0  0  0  0  0  0  0  0  0  0  0 
    6.9235   -0.1946   -0.5212 H   0  0  0  0  0  0  0  0  0  0  0  0 
    2.6337    1.2027   -1.8773 H   0  0  0  0  0  0  0  0  0  0  0  0 
    2.6377    2.0278   -0.2997 H   0  0  0  0  0  0  0  0  0  0  0  0 
    2.5034   -2.1292   -0.2435 H   0  0  0  0  0  0  0  0  0  0  0  0 
    2.5510   -1.3487   -1.8428 H   0  0  0  0  0  0  0  0  0  0  0  0 
    4.8581    1.1601    0.2388 H   0  0  0  0  0  0  0  0  0  0  0  0 
    4.9056    1.9405   -1.3606 H   0  0  0  0  0  0  0  0  0  0  0  0 
    4.7714   -2.2165   -1.3040 H   0  0  0  0  0  0  0  0  0  0  0  0 
    4.7752   -1.3913    0.2735 H   0  0  0  0  0  0  0  0  0  0  0  0 
  1  9  1  0  0  0  0 
  1 10  1  0  0  0  0 
  2  8  1  0  0  0  0 
  2 14  1  0  0  0  0 
  3  5  1  0  0  0  0 
  3 16  1  0  0  0  0 
  3  7  1  0  0  0  0 
  4  6  1  0  0  0  0 
  4 17  1  0  0  0  0 
  4  7  1  0  0  0  0 
  5 19  1  0  0  0  0 
  6 22  1  0  0  0  0 
  7  1  1  0  0  0  0 
  8  5  1  0  0  0  0 
  8  6  1  0  0  0  0 
 11  1  1  0  0  0  0 
 12  2  1  0  0  0  0 
 13  2  1  0  0  0  0 
 15  3  1  0  0  0  0 
 18  4  1  0  0  0  0 
 20  5  1  0  0  0  0 
 21  6  1  0  0  0  0 
M  END 
>  <HBA> 
2 
 
>  <HBD> 
0 
 
>  <TPSA> 
6.48 
 
>  <cid> 
7818 
 
>  <dipole> 
0.0 
 
>  <excitation_energy_1> 
5.434 
 
>  <excitation_energy_2> 
5.437 
 
>  <excitation_energy_3> 
5.679 
 
>  <excitation_energy_4> 
5.69 
 
>  <homo_energy> 
-5.685 
 
>  <homo_lumo_gap> 
8.109 
 
>  <logP> 
-0.261 
 
>  <lumo_energy> 
2.425 
 
>  <melting_point> 
1.29 
 
>  <molecular_refractivity> 
42.46 
 
>  <oscillator_strength_1> 
0.0342 
 
>  <oscillator_strength_2> 
0.0 
 
>  <oscillator_strength_3> 
0.0 
 
>  <oscillator_strength_4> 
0.0597 
 
>  <open_babel_can_smiles> 
CN1CCN(CC1)C 
 
>  <mulliken_charges> 
22 
1   -0.288758 
2   -0.288763 
3   -0.118807 
4   -0.119027 
5   -0.119045 
6   -0.118831 
7   -0.384418 
8   -0.384407 
9   0.146544 
10   0.146538 
11   0.11762 
12   0.146543 
13   0.146543 
14   0.117625 
15   0.116106 
16   0.134029 
17   0.13407 
18   0.116111 
19   0.116113 
20   0.134073 
21   0.13403 
22   0.116113 
 
>  <lowdin_charges> 
22 
1   -0.355741 
2   -0.35574 
3   -0.202441 
4   -0.202791 
5   -0.202792 
6   -0.202443 
7   -0.188523 
8   -0.188516 
9   0.149439 
10   0.149745 
11   0.120235 
12   0.149746 
13   0.14944 
14   0.120238 
15   0.118692 
16   0.14616 
17   0.146496 
18   0.11872 
19   0.118721 
20   0.146498 
21   0.146161 
22   0.118695 
 
$$$$ 
 
