PCCDB-ID:  11122 
public computational chemistry database (PCCDB) project, http://pccdb.org 
 
 15 15  0  0  0  0  0  0  0  0999 V2000 
    0.8535    0.0398    0.1311 C   0  0  0  0  0  0  0  0  0  0  0  0 
    5.2380   -0.0367   -0.1974 C   0  0  0  0  0  0  0  0  0  0  0  0 
    4.5940    1.1395   -0.1509 C   0  0  0  0  0  0  0  0  0  0  0  0 
    3.0138   -1.2446   -0.0304 C   0  0  0  0  0  0  0  0  0  0  0  0 
    2.3446   -0.0750    0.0173 C   0  0  0  0  0  0  0  0  0  0  0  0 
    4.4885   -1.3192   -0.1412 C   0  0  0  0  0  0  0  0  0  0  0  0 
    3.1145    1.2103   -0.0403 C   0  0  0  0  0  0  0  0  0  0  0  0 
    5.0736   -2.3958   -0.1855 O   0  0  0  0  0  0  0  0  0  0  0  0 
    2.5402    2.2922    0.0028 O   0  0  0  0  0  0  0  0  0  0  0  0 
    0.3808   -0.9457    0.1517 H   0  0  0  0  0  0  0  0  0  0  0  0 
    0.4458    0.6154   -0.7075 H   0  0  0  0  0  0  0  0  0  0  0  0 
    0.5776    0.5870    1.0398 H   0  0  0  0  0  0  0  0  0  0  0  0 
    6.3184   -0.1172   -0.2783 H   0  0  0  0  0  0  0  0  0  0  0  0 
    5.1070    2.0965   -0.1907 H   0  0  0  0  0  0  0  0  0  0  0  0 
    2.5008   -2.2024    0.0090 H   0  0  0  0  0  0  0  0  0  0  0  0 
  1 10  1  0  0  0  0 
  1 12  1  0  0  0  0 
  2  3  2  0  0  0  0 
  2  6  1  0  0  0  0 
  3  7  1  0  0  0  0 
  4 15  1  0  0  0  0 
  4  5  2  0  0  0  0 
  5  1  1  0  0  0  0 
  6  4  1  0  0  0  0 
  7  9  2  0  0  0  0 
  7  5  1  0  0  0  0 
  8  6  2  0  0  0  0 
 11  1  1  0  0  0  0 
 13  2  1  0  0  0  0 
 14  3  1  0  0  0  0 
M  END 
>  <HBA> 
2 
 
>  <HBD> 
0 
 
>  <TPSA> 
34.14 
 
>  <cid> 
11122 
 
>  <dipole> 
0.7 
 
>  <excitation_energy_1> 
2.527 
 
>  <excitation_energy_2> 
2.764 
 
>  <excitation_energy_3> 
3.567 
 
>  <excitation_energy_4> 
4.829 
 
>  <homo_energy> 
-7.225 
 
>  <homo_lumo_gap> 
3.834 
 
>  <logP> 
0.641 
 
>  <lumo_energy> 
-3.391 
 
>  <melting_point> 
61.13 
 
>  <molecular_refractivity> 
33.1 
 
>  <oscillator_strength_1> 
0.0 
 
>  <oscillator_strength_2> 
0.0 
 
>  <oscillator_strength_3> 
0.0073 
 
>  <oscillator_strength_4> 
0.3011 
 
>  <open_babel_can_smiles> 
O=C1C=CC(=O)C(=C1)C 
 
>  <mulliken_charges> 
15 
1   -0.511872 
2   -0.162913 
3   -0.157776 
4   -0.24355 
5   0.127195 
6   0.443993 
7   0.397716 
8   -0.463549 
9   -0.454275 
10   0.161172 
11   0.183872 
12   0.183653 
13   0.169018 
14   0.168623 
15   0.158693 
 
>  <lowdin_charges> 
15 
1   -0.436192 
2   -0.147173 
3   -0.153631 
4   -0.17603 
5   -0.001511 
6   0.146603 
7   0.146095 
8   -0.21457 
9   -0.213908 
10   0.161666 
11   0.177344 
12   0.176747 
13   0.17859 
14   0.180266 
15   0.175702 
 
$$$$ 
 
