PCCDB-ID:  9261 
public computational chemistry database (PCCDB) project, http://pccdb.org 
 
 10 10  0  0  0  0  0  0  0  0999 V2000 
   -0.6985    1.1362    0.0291 C   0  0  0  0  0  0  0  0  0  0  0  0 
   -1.3254   -0.1121    0.0317 C   0  0  0  0  0  0  0  0  0  0  0  0 
    1.3269    0.1191    0.0313 C   0  0  0  0  0  0  0  0  0  0  0  0 
    0.7000   -1.1292    0.0338 C   0  0  0  0  0  0  0  0  0  0  0  0 
    0.6333    1.2631    0.0290 N   0  0  0  0  0  0  0  0  0  0  0  0 
   -0.6318   -1.2561    0.0340 N   0  0  0  0  0  0  0  0  0  0  0  0 
   -1.2823    2.0547    0.0276 H   0  0  0  0  0  0  0  0  0  0  0  0 
   -2.4107   -0.1925    0.0315 H   0  0  0  0  0  0  0  0  0  0  0  0 
    2.4123    0.1995    0.0311 H   0  0  0  0  0  0  0  0  0  0  0  0 
    1.2838   -2.0477    0.0359 H   0  0  0  0  0  0  0  0  0  0  0  0 
  1  2  1  0  0  0  0 
  2  6  2  0  0  0  0 
  3  4  2  0  0  0  0 
  4  6  1  0  0  0  0 
  4 10  1  0  0  0  0 
  5  1  2  0  0  0  0 
  5  3  1  0  0  0  0 
  7  1  1  0  0  0  0 
  8  2  1  0  0  0  0 
  9  3  1  0  0  0  0 
M  END 
>  <HBA> 
2 
 
>  <HBD> 
0 
 
>  <TPSA> 
25.78 
 
>  <cid> 
9261 
 
>  <dipole> 
0.0 
 
>  <excitation_energy_1> 
3.993 
 
>  <excitation_energy_2> 
4.675 
 
>  <excitation_energy_3> 
5.404 
 
>  <excitation_energy_4> 
5.626 
 
>  <homo_energy> 
-6.833 
 
>  <homo_lumo_gap> 
5.412 
 
>  <logP> 
0.477 
 
>  <lumo_energy> 
-1.42 
 
>  <melting_point> 
33.32 
 
>  <molecular_refractivity> 
22.03 
 
>  <oscillator_strength_1> 
0.0056 
 
>  <oscillator_strength_2> 
0.0 
 
>  <oscillator_strength_3> 
0.0965 
 
>  <oscillator_strength_4> 
0.0 
 
>  <open_babel_can_smiles> 
n1ccncc1 
 
>  <mulliken_charges> 
10 
1   0.034766 
2   0.034718 
3   0.034812 
4   0.034647 
5   -0.375756 
6   -0.375715 
7   0.153136 
8   0.153124 
9   0.153122 
10   0.153147 
 
>  <lowdin_charges> 
10 
1   -0.105785 
2   -0.101597 
3   -0.101593 
4   -0.105795 
5   -0.119947 
6   -0.119945 
7   0.165171 
8   0.162158 
9   0.162159 
10   0.165173 
 
$$$$ 
 
