PCCDB-ID:  15825 
public computational chemistry database (PCCDB) project, http://pccdb.org 
 
 23 23  0  0  1  0  0  0  0  0999 V2000 
    3.6174    1.9126   -0.1517 C   0  0  0  0  0  0  0  0  0  0  0  0 
    7.5500   -0.7348    1.9846 C   0  0  0  0  0  0  0  0  0  0  0  0 
    7.3615   -0.9156    0.6143 C   0  0  0  0  0  0  0  0  0  0  0  0 
    6.4455   -0.5089    2.8100 C   0  0  0  0  0  0  0  0  0  0  0  0 
    6.0736   -0.8740    0.0768 C   0  0  0  0  0  0  0  0  0  0  0  0 
    5.1600   -0.4664    2.2717 C   0  0  0  0  0  0  0  0  0  0  0  0 
    2.8174    0.7283    0.3674 C   0  0  1  0  0  0  0  0  0  0  0  0 
    4.9585   -0.6468    0.8936 C   0  0  0  0  0  0  0  0  0  0  0  0 
    3.5696   -0.6219    0.2862 C   0  0  1  0  0  0  0  0  0  0  0  0 
    2.4327    1.0034    1.7080 O   0  0  0  0  0  0  0  0  0  0  0  0 
    2.6826   -1.5455    0.9425 O   0  0  0  0  0  0  0  0  0  0  0  0 
    3.9344    1.7465   -1.1876 H   0  0  0  0  0  0  0  0  0  0  0  0 
    4.5061    2.0774    0.4646 H   0  0  0  0  0  0  0  0  0  0  0  0 
    3.0016    2.8164   -0.1196 H   0  0  0  0  0  0  0  0  0  0  0  0 
    8.5502   -0.7710    2.4083 H   0  0  0  0  0  0  0  0  0  0  0  0 
    8.2133   -1.0959   -0.0363 H   0  0  0  0  0  0  0  0  0  0  0  0 
    6.5859   -0.3632    3.8780 H   0  0  0  0  0  0  0  0  0  0  0  0 
    5.9310   -1.0233   -0.9916 H   0  0  0  0  0  0  0  0  0  0  0  0 
    4.3075   -0.2690    2.9116 H   0  0  0  0  0  0  0  0  0  0  0  0 
    1.9143    0.6008   -0.2541 H   0  0  0  0  0  0  0  0  0  0  0  0 
    3.6546   -0.8858   -0.7799 H   0  0  0  0  0  0  0  0  0  0  0  0 
    2.0176    0.1804    2.0208 H   0  0  0  0  0  0  0  0  0  0  0  0 
    3.1858   -2.3501    1.1409 H   0  0  0  0  0  0  0  0  0  0  0  0 
  1 14  1  0  0  0  0 
  1  7  1  0  0  0  0 
  1 13  1  0  0  0  0 
  2 15  1  0  0  0  0 
  2  4  2  0  0  0  0 
  3  2  1  0  0  0  0 
  4 17  1  0  0  0  0 
  5  3  2  0  0  0  0 
  5  8  1  0  0  0  0 
  6  4  1  0  0  0  0 
  6 19  1  0  0  0  0 
  7 20  1  6  0  0  0 
  7 10  1  0  0  0  0 
  8  6  2  0  0  0  0 
  9 21  1  6  0  0  0 
  9  7  1  0  0  0  0 
  9  8  1  0  0  0  0 
  9 11  1  0  0  0  0 
 10 22  1  0  0  0  0 
 11 23  1  0  0  0  0 
 12  1  1  0  0  0  0 
 16  3  1  0  0  0  0 
 18  5  1  0  0  0  0 
M  END 
>  <HBA> 
2 
 
>  <HBD> 
2 
 
>  <TPSA> 
40.46 
 
>  <cid> 
15825 
 
>  <dipole> 
2.31 
 
>  <excitation_energy_1> 
5.274 
 
>  <excitation_energy_2> 
5.733 
 
>  <excitation_energy_3> 
6.025 
 
>  <excitation_energy_4> 
6.058 
 
>  <homo_energy> 
-6.626 
 
>  <homo_lumo_gap> 
6.376 
 
>  <logP> 
1.101 
 
>  <lumo_energy> 
-0.25 
 
>  <melting_point> 
43.06 
 
>  <molecular_refractivity> 
43.35 
 
>  <oscillator_strength_1> 
0.001 
 
>  <oscillator_strength_2> 
0.0952 
 
>  <oscillator_strength_3> 
0.0177 
 
>  <oscillator_strength_4> 
0.0092 
 
>  <open_babel_can_smiles> 
O[C@H](c1ccccc1)[C@@H](O)C 
 
>  <mulliken_charges> 
23 
1   -0.455311 
2   -0.127984 
3   -0.1277 
4   -0.130542 
5   -0.191487 
6   -0.16864 
7   0.143361 
8   0.11818 
9   0.051143 
10   -0.631578 
11   -0.64956 
12   0.136903 
13   0.166111 
14   0.159661 
15   0.131495 
16   0.130929 
17   0.132854 
18   0.12725 
19   0.142845 
20   0.120987 
21   0.116076 
22   0.40701 
23   0.397997 
 
>  <lowdin_charges> 
23 
1   -0.448895 
2   -0.154253 
3   -0.158528 
4   -0.153038 
5   -0.164681 
6   -0.159002 
7   -0.002565 
8   -0.032011 
9   -0.017718 
10   -0.465575 
11   -0.469483 
12   0.149739 
13   0.162469 
14   0.1615 
15   0.15795 
16   0.159194 
17   0.157212 
18   0.153167 
19   0.16762 
20   0.130679 
21   0.131801 
22   0.345171 
23   0.349249 
 
$$$$ 
 
