PCCDB-ID:  31344 
public computational chemistry database (PCCDB) project, http://pccdb.org 
 
 19 18  0  0  0  0  0  0  0  0999 V2000 
    0.9708    0.1129    0.0764 C   0  0  0  0  0  0  0  0  0  0  0  0 
    3.0423   -0.3757    1.4315 C   0  0  0  0  0  0  0  0  0  0  0  0 
    2.9850   -0.8807   -1.0454 C   0  0  0  0  0  0  0  0  0  0  0  0 
    3.0000    1.5187   -0.2473 C   0  0  0  0  0  0  0  0  0  0  0  0 
    2.5090    0.0882    0.0647 C   0  0  0  0  0  0  0  0  0  0  0  0 
    4.3905   -1.0498   -1.1053 O   0  0  0  0  0  0  0  0  0  0  0  0 
    4.4256    1.6391   -0.3701 O   0  0  0  0  0  0  0  0  0  0  0  0 
    0.5681   -0.8816    0.3009 H   0  0  0  0  0  0  0  0  0  0  0  0 
    0.5655    0.4264   -0.8938 H   0  0  0  0  0  0  0  0  0  0  0  0 
    0.5891    0.8042    0.8376 H   0  0  0  0  0  0  0  0  0  0  0  0 
    2.6164   -1.3486    1.7033 H   0  0  0  0  0  0  0  0  0  0  0  0 
    2.7793    0.3356    2.2253 H   0  0  0  0  0  0  0  0  0  0  0  0 
    4.1297   -0.5025    1.4116 H   0  0  0  0  0  0  0  0  0  0  0  0 
    2.5844   -0.5310   -2.0141 H   0  0  0  0  0  0  0  0  0  0  0  0 
    2.5633   -1.8769   -0.8636 H   0  0  0  0  0  0  0  0  0  0  0  0 
    2.6263    2.2200    0.5148 H   0  0  0  0  0  0  0  0  0  0  0  0 
    2.6062    1.8445   -1.2161 H   0  0  0  0  0  0  0  0  0  0  0  0 
    4.7612   -0.1487   -1.1485 H   0  0  0  0  0  0  0  0  0  0  0  0 
    4.8082    1.5037    0.5111 H   0  0  0  0  0  0  0  0  0  0  0  0 
  1  8  1  0  0  0  0 
  1 10  1  0  0  0  0 
  2 11  1  0  0  0  0 
  2 12  1  0  0  0  0 
  3 15  1  0  0  0  0 
  3  5  1  0  0  0  0 
  4  5  1  0  0  0  0 
  4 16  1  0  0  0  0 
  5  1  1  0  0  0  0 
  5  2  1  0  0  0  0 
  6  3  1  0  0  0  0 
  7  4  1  0  0  0  0 
  7 19  1  0  0  0  0 
  9  1  1  0  0  0  0 
 13  2  1  0  0  0  0 
 14  3  1  0  0  0  0 
 17  4  1  0  0  0  0 
 18  6  1  0  0  0  0 
M  END 
>  <HBA> 
2 
 
>  <HBD> 
2 
 
>  <TPSA> 
40.46 
 
>  <cid> 
31344 
 
>  <dipole> 
2.64 
 
>  <excitation_energy_1> 
6.145 
 
>  <excitation_energy_2> 
6.593 
 
>  <excitation_energy_3> 
6.645 
 
>  <excitation_energy_4> 
7.07 
 
>  <homo_energy> 
-6.77 
 
>  <homo_lumo_gap> 
8.28 
 
>  <logP> 
-0.003 
 
>  <lumo_energy> 
1.51 
 
>  <melting_point> 
30.02 
 
>  <molecular_refractivity> 
28.21 
 
>  <oscillator_strength_1> 
0.0006 
 
>  <oscillator_strength_2> 
0.0059 
 
>  <oscillator_strength_3> 
0.0153 
 
>  <oscillator_strength_4> 
0.0253 
 
>  <open_babel_can_smiles> 
OCC(CO)(C)C 
 
>  <mulliken_charges> 
19 
1   -0.456573 
2   -0.461819 
3   -0.009621 
4   -0.045893 
5   0.037433 
6   -0.643708 
7   -0.627206 
8   0.149964 
9   0.14448 
10   0.14407 
11   0.151303 
12   0.133598 
13   0.150597 
14   0.109862 
15   0.133675 
16   0.129123 
17   0.149913 
18   0.406875 
19   0.403925 
 
>  <lowdin_charges> 
19 
1   -0.443041 
2   -0.450825 
3   -0.133378 
4   -0.140579 
5   -0.027225 
6   -0.482014 
7   -0.461596 
8   0.153728 
9   0.149594 
10   0.151552 
11   0.155862 
12   0.144505 
13   0.150207 
14   0.121994 
15   0.141385 
16   0.134562 
17   0.1494 
18   0.338113 
19   0.347756 
 
$$$$ 
 
