PCCDB-ID:  70822 
public computational chemistry database (PCCDB) project, http://pccdb.org 
 
 26 27  0  0  0  0  0  0  0  0999 V2000 
   -1.1404   -0.9496    2.9464 C   0  0  0  0  0  0  0  0  0  0  0  0 
    1.1105   -4.5299   -2.3605 C   0  0  0  0  0  0  0  0  0  0  0  0 
   -0.7211    0.3368    2.6019 C   0  0  0  0  0  0  0  0  0  0  0  0 
   -0.4647   -2.0541    2.4209 C   0  0  0  0  0  0  0  0  0  0  0  0 
    2.4284   -4.5127   -1.8949 C   0  0  0  0  0  0  0  0  0  0  0  0 
    0.3154   -3.3877   -2.2486 C   0  0  0  0  0  0  0  0  0  0  0  0 
    0.3520    0.5131    1.7330 C   0  0  0  0  0  0  0  0  0  0  0  0 
    0.6085   -1.8833    1.5509 C   0  0  0  0  0  0  0  0  0  0  0  0 
    2.9528   -3.3583   -1.3171 C   0  0  0  0  0  0  0  0  0  0  0  0 
    0.8248   -2.2313   -1.6568 C   0  0  0  0  0  0  0  0  0  0  0  0 
    2.1712   -0.2949    0.3157 C   0  0  0  0  0  0  0  0  0  0  0  0 
    1.0295   -0.5910    1.1742 C   0  0  0  0  0  0  0  0  0  0  0  0 
    2.1359   -2.2361   -1.1837 C   0  0  0  0  0  0  0  0  0  0  0  0 
    2.7344   -1.0266   -0.6309 N   0  0  0  0  0  0  0  0  0  0  0  0 
    3.8461   -0.7001   -1.1772 O   0  0  0  0  0  0  0  0  0  0  0  0 
   -1.9758   -1.0909    3.6263 H   0  0  0  0  0  0  0  0  0  0  0  0 
    0.7083   -5.4287   -2.8194 H   0  0  0  0  0  0  0  0  0  0  0  0 
   -1.2295    1.2057    3.0109 H   0  0  0  0  0  0  0  0  0  0  0  0 
   -0.7675   -3.0597    2.7006 H   0  0  0  0  0  0  0  0  0  0  0  0 
    3.0532   -5.3958   -1.9928 H   0  0  0  0  0  0  0  0  0  0  0  0 
   -0.7028   -3.3914   -2.6270 H   0  0  0  0  0  0  0  0  0  0  0  0 
    0.6744    1.5178    1.4710 H   0  0  0  0  0  0  0  0  0  0  0  0 
    1.1337   -2.7550    1.1780 H   0  0  0  0  0  0  0  0  0  0  0  0 
    3.9822   -3.3039   -0.9812 H   0  0  0  0  0  0  0  0  0  0  0  0 
    0.2179   -1.3367   -1.5696 H   0  0  0  0  0  0  0  0  0  0  0  0 
    2.7000    0.6404    0.4668 H   0  0  0  0  0  0  0  0  0  0  0  0 
  1 16  1  0  0  0  0 
  2  6  2  0  0  0  0 
  2  5  1  0  0  0  0 
  3  1  1  0  0  0  0 
  3 18  1  0  0  0  0 
  4 19  1  0  0  0  0 
  4  1  2  0  0  0  0 
  5  9  2  0  0  0  0 
  6 10  1  0  0  0  0 
  7  3  2  0  0  0  0 
  8  4  1  0  0  0  0 
  9 13  1  0  0  0  0 
  9 24  1  0  0  0  0 
 10 25  1  0  0  0  0 
 10 13  2  0  0  0  0 
 11 26  1  0  0  0  0 
 11 12  1  0  0  0  0 
 12  8  2  0  0  0  0 
 12  7  1  0  0  0  0 
 13 14  1  0  0  0  0 
 14 11  1  0  0  0  0 
 15 14  1  0  0  0  0 
 17  2  1  0  0  0  0 
 20  5  1  0  0  0  0 
 21  6  1  0  0  0  0 
 22  7  1  0  0  0  0 
 23  8  1  0  0  0  0 
M  RAD  2  11   2  15   2 
M  END 
>  <HBA> 
1 
 
>  <HBD> 
0 
 
>  <TPSA> 
28.75 
 
>  <cid> 
70822 
 
>  <dipole> 
3.9 
 
>  <excitation_energy_1> 
3.533 
 
>  <excitation_energy_2> 
3.62 
 
>  <excitation_energy_3> 
4.128 
 
>  <excitation_energy_4> 
4.433 
 
>  <homo_energy> 
-5.434 
 
>  <homo_lumo_gap> 
3.823 
 
>  <logP> 
3.471 
 
>  <lumo_energy> 
-1.611 
 
>  <melting_point> 
70.65 
 
>  <molecular_refractivity> 
63.51 
 
>  <oscillator_strength_1> 
0.0772 
 
>  <oscillator_strength_2> 
0.2187 
 
>  <oscillator_strength_3> 
0.0077 
 
>  <oscillator_strength_4> 
0.0268 
 
>  <open_babel_can_smiles> 
[O]N(c1ccccc1)[CH]c1ccccc1 
 
>  <mulliken_charges> 
26 
1   -0.128234 
2   -0.116296 
3   -0.132053 
4   -0.132032 
5   -0.145646 
6   -0.143139 
7   -0.182432 
8   -0.173973 
9   -0.122314 
10   -0.12649 
11   -0.056261 
12   0.143053 
13   0.237752 
14   -0.033389 
15   -0.49508 
16   0.133535 
17   0.138747 
18   0.135051 
19   0.13488 
20   0.142777 
21   0.142018 
22   0.135535 
23   0.147926 
24   0.1669 
25   0.157893 
26   0.171271 
 
>  <lowdin_charges> 
26 
1   -0.15548 
2   -0.149229 
3   -0.154924 
4   -0.152527 
5   -0.15129 
6   -0.148893 
7   -0.157953 
8   -0.162252 
9   -0.141339 
10   -0.152949 
11   -0.156501 
12   -0.014338 
13   0.030574 
14   0.210742 
15   -0.376741 
16   0.160161 
17   0.163234 
18   0.161403 
19   0.159663 
20   0.164918 
21   0.163106 
22   0.159626 
23   0.167855 
24   0.179188 
25   0.174704 
26   0.179242 
 
$$$$ 
 
