PCCDB-ID:  12327 
public computational chemistry database (PCCDB) project, http://pccdb.org 
 
 41 40  0  0  0  0  0  0  0  0999 V2000 
    1.5156    2.1792   -7.5592 C   0  0  0  0  0  0  0  0  0  0  0  0 
   14.8172   -2.6207   -5.7020 C   0  0  0  0  0  0  0  0  0  0  0  0 
    2.7268    1.3141   -7.1964 C   0  0  0  0  0  0  0  0  0  0  0  0 
   14.6365   -1.6061   -4.5827 C   0  0  0  0  0  0  0  0  0  0  0  0 
    3.2094    1.5215   -5.7548 C   0  0  0  0  0  0  0  0  0  0  0  0 
    4.4228    0.6592   -5.3831 C   0  0  0  0  0  0  0  0  0  0  0  0 
    4.8908    0.8658   -3.9352 C   0  0  0  0  0  0  0  0  0  0  0  0 
    6.0561   -0.0366   -3.4968 C   0  0  0  0  0  0  0  0  0  0  0  0 
    7.3844    0.2258   -4.2208 C   0  0  0  0  0  0  0  0  0  0  0  0 
    8.5393   -0.6329   -3.6886 C   0  0  0  0  0  0  0  0  0  0  0  0 
    9.8683   -0.3760   -4.4093 C   0  0  0  0  0  0  0  0  0  0  0  0 
   11.0100   -1.2370   -3.8649 C   0  0  0  0  0  0  0  0  0  0  0  0 
   12.3256   -1.0146   -4.5861 C   0  0  0  0  0  0  0  0  0  0  0  0 
   12.4812   -0.3195   -5.5677 O   0  0  0  0  0  0  0  0  0  0  0  0 
   13.3223   -1.7078   -3.9850 O   0  0  0  0  0  0  0  0  0  0  0  0 
    1.1958    2.0079   -8.5935 H   0  0  0  0  0  0  0  0  0  0  0  0 
    1.7453    3.2468   -7.4541 H   0  0  0  0  0  0  0  0  0  0  0  0 
    0.6618    1.9599   -6.9062 H   0  0  0  0  0  0  0  0  0  0  0  0 
   15.8457   -2.5802   -6.0793 H   0  0  0  0  0  0  0  0  0  0  0  0 
   14.1391   -2.4033   -6.5321 H   0  0  0  0  0  0  0  0  0  0  0  0 
   14.6239   -3.6367   -5.3419 H   0  0  0  0  0  0  0  0  0  0  0  0 
    3.5524    1.5304   -7.8893 H   0  0  0  0  0  0  0  0  0  0  0  0 
    2.4770    0.2538   -7.3449 H   0  0  0  0  0  0  0  0  0  0  0  0 
   14.7798   -0.5862   -4.9478 H   0  0  0  0  0  0  0  0  0  0  0  0 
   15.3260   -1.7954   -3.7559 H   0  0  0  0  0  0  0  0  0  0  0  0 
    2.3825    1.3049   -5.0619 H   0  0  0  0  0  0  0  0  0  0  0  0 
    3.4590    2.5828   -5.6061 H   0  0  0  0  0  0  0  0  0  0  0  0 
    5.2445    0.8808   -6.0778 H   0  0  0  0  0  0  0  0  0  0  0  0 
    4.1739   -0.4023   -5.5339 H   0  0  0  0  0  0  0  0  0  0  0  0 
    4.0389    0.6899   -3.2628 H   0  0  0  0  0  0  0  0  0  0  0  0 
    5.1750    1.9192   -3.7923 H   0  0  0  0  0  0  0  0  0  0  0  0 
    5.7704   -1.0903   -3.6340 H   0  0  0  0  0  0  0  0  0  0  0  0 
    6.2131    0.0944   -2.4164 H   0  0  0  0  0  0  0  0  0  0  0  0 
    7.6482    1.2894   -4.1204 H   0  0  0  0  0  0  0  0  0  0  0  0 
    7.2686    0.0411   -5.2974 H   0  0  0  0  0  0  0  0  0  0  0  0 
    8.2732   -1.6966   -3.7828 H   0  0  0  0  0  0  0  0  0  0  0  0 
    8.6630   -0.4463   -2.6112 H   0  0  0  0  0  0  0  0  0  0  0  0 
   10.1424    0.6831   -4.3228 H   0  0  0  0  0  0  0  0  0  0  0  0 
    9.7556   -0.5683   -5.4833 H   0  0  0  0  0  0  0  0  0  0  0  0 
   10.7666   -2.3060   -3.9435 H   0  0  0  0  0  0  0  0  0  0  0  0 
   11.1735   -1.0552   -2.7946 H   0  0  0  0  0  0  0  0  0  0  0  0 
  1 17  1  0  0  0  0 
  1  3  1  0  0  0  0 
  1 18  1  0  0  0  0 
  2 21  1  0  0  0  0 
  2  4  1  0  0  0  0 
  3  5  1  0  0  0  0 
  4 15  1  0  0  0  0 
  4 25  1  0  0  0  0 
  5 27  1  0  0  0  0 
  5  6  1  0  0  0  0 
  5 26  1  0  0  0  0 
  6  7  1  0  0  0  0 
  7 31  1  0  0  0  0 
  7  8  1  0  0  0  0 
  7 30  1  0  0  0  0 
  8 33  1  0  0  0  0 
  9 34  1  0  0  0  0 
  9 10  1  0  0  0  0 
  9  8  1  0  0  0  0 
 10 37  1  0  0  0  0 
 11 38  1  0  0  0  0 
 11 12  1  0  0  0  0 
 11 10  1  0  0  0  0 
 12 41  1  0  0  0  0 
 13 15  1  0  0  0  0 
 13 12  1  0  0  0  0 
 14 13  2  0  0  0  0 
 16  1  1  0  0  0  0 
 19  2  1  0  0  0  0 
 20  2  1  0  0  0  0 
 22  3  1  0  0  0  0 
 23  3  1  0  0  0  0 
 24  4  1  0  0  0  0 
 28  6  1  0  0  0  0 
 29  6  1  0  0  0  0 
 32  8  1  0  0  0  0 
 35  9  1  0  0  0  0 
 36 10  1  0  0  0  0 
 39 11  1  0  0  0  0 
 40 12  1  0  0  0  0 
M  END 
>  <HBA> 
2 
 
>  <HBD> 
0 
 
>  <TPSA> 
26.3 
 
>  <cid> 
12327 
 
>  <dipole> 
1.54 
 
>  <excitation_energy_1> 
5.838 
 
>  <excitation_energy_2> 
7.008 
 
>  <excitation_energy_3> 
7.445 
 
>  <excitation_energy_4> 
7.558 
 
>  <homo_energy> 
-7.252 
 
>  <homo_lumo_gap> 
7.736 
 
>  <logP> 
4.08 
 
>  <lumo_energy> 
0.484 
 
>  <melting_point> 
-18.77 
 
>  <molecular_refractivity> 
65.89 
 
>  <oscillator_strength_1> 
0.0005 
 
>  <oscillator_strength_2> 
0.0171 
 
>  <oscillator_strength_3> 
0.0137 
 
>  <oscillator_strength_4> 
0.0493 
 
>  <open_babel_can_smiles> 
CCCCCCCCCCC(=O)OCC 
 
>  <mulliken_charges> 
41 
1   -0.441185 
2   -0.461501 
3   -0.247094 
4   -0.043363 
5   -0.245474 
6   -0.25421 
7   -0.254578 
8   -0.2546 
9   -0.254659 
10   -0.256872 
11   -0.248974 
12   -0.362665 
13   0.624544 
14   -0.481598 
15   -0.465292 
16   0.141049 
17   0.141044 
18   0.140649 
19   0.149421 
20   0.175156 
21   0.156055 
22   0.130162 
23   0.12932 
24   0.169564 
25   0.150778 
26   0.125518 
27   0.126525 
28   0.133191 
29   0.124986 
30   0.126363 
31   0.126375 
32   0.125635 
33   0.125944 
34   0.128368 
35   0.13546 
36   0.126698 
37   0.126578 
38   0.145489 
39   0.149801 
40   0.169324 
41   0.16807 
 
>  <lowdin_charges> 
41 
1   -0.442294 
2   -0.453943 
3   -0.271497 
4   -0.127771 
5   -0.273366 
6   -0.276142 
7   -0.27412 
8   -0.271684 
9   -0.2727 
10   -0.270798 
11   -0.267548 
12   -0.297316 
13   0.196676 
14   -0.269073 
15   -0.200443 
16   0.147847 
17   0.144457 
18   0.146359 
19   0.157321 
20   0.165325 
21   0.154611 
22   0.139357 
23   0.136788 
24   0.157182 
25   0.15218 
26   0.137232 
27   0.135757 
28   0.140097 
29   0.135008 
30   0.14044 
31   0.135955 
32   0.135502 
33   0.137623 
34   0.136815 
35   0.138889 
36   0.135594 
37   0.135008 
38   0.147279 
39   0.149169 
40   0.165641 
41   0.164583 
 
$$$$ 
 
