PCCDB-ID:  8028 
public computational chemistry database (PCCDB) project, http://pccdb.org 
 
 13 13  0  0  0  0  0  0  0  0999 V2000 
   -0.7716   -0.9944   -0.2203 C   0  0  0  0  0  0  0  0  0  0  0  0 
    0.7299   -1.0966    0.1113 C   0  0  0  0  0  0  0  0  0  0  0  0 
   -1.1175    0.3775    0.3627 C   0  0  0  0  0  0  0  0  0  0  0  0 
    1.1876    0.3843    0.1345 C   0  0  0  0  0  0  0  0  0  0  0  0 
    0.0088    1.1942    0.0619 O   0  0  0  0  0  0  0  0  0  0  0  0 
   -1.3639   -1.8095    0.2075 H   0  0  0  0  0  0  0  0  0  0  0  0 
   -0.9290   -0.9863   -1.3048 H   0  0  0  0  0  0  0  0  0  0  0  0 
    1.2847   -1.6942   -0.6181 H   0  0  0  0  0  0  0  0  0  0  0  0 
    0.8742   -1.5600    1.0935 H   0  0  0  0  0  0  0  0  0  0  0  0 
   -1.2776    0.3101    1.4532 H   0  0  0  0  0  0  0  0  0  0  0  0 
   -1.9987    0.8473   -0.0848 H   0  0  0  0  0  0  0  0  0  0  0  0 
    1.8192    0.6457   -0.7224 H   0  0  0  0  0  0  0  0  0  0  0  0 
    1.7492    0.6158    1.0511 H   0  0  0  0  0  0  0  0  0  0  0  0 
  1  2  1  0  0  0  0 
  1  6  1  0  0  0  0 
  1  3  1  0  0  0  0 
  2  4  1  0  0  0  0 
  2  9  1  0  0  0  0 
  3 10  1  0  0  0  0 
  4 13  1  0  0  0  0 
  5  4  1  0  0  0  0 
  5  3  1  0  0  0  0 
  7  1  1  0  0  0  0 
  8  2  1  0  0  0  0 
 11  3  1  0  0  0  0 
 12  4  1  0  0  0  0 
M  END 
>  <HBA> 
1 
 
>  <HBD> 
0 
 
>  <TPSA> 
9.23 
 
>  <cid> 
8028 
 
>  <dipole> 
1.7 
 
>  <excitation_energy_1> 
6.269 
 
>  <excitation_energy_2> 
6.778 
 
>  <excitation_energy_3> 
6.796 
 
>  <excitation_energy_4> 
6.971 
 
>  <homo_energy> 
-6.572 
 
>  <homo_lumo_gap> 
8.906 
 
>  <logP> 
0.797 
 
>  <lumo_energy> 
2.335 
 
>  <melting_point> 
-11.61 
 
>  <molecular_refractivity> 
20.31 
 
>  <oscillator_strength_1> 
0.0128 
 
>  <oscillator_strength_2> 
0.0236 
 
>  <oscillator_strength_3> 
0.0014 
 
>  <oscillator_strength_4> 
0.0035 
 
>  <open_babel_can_smiles> 
C1CCCO1 
 
>  <mulliken_charges> 
13 
1   -0.286221 
2   -0.317952 
3   -0.02031 
4   -0.006794 
5   -0.482018 
6   0.139906 
7   0.148817 
8   0.148067 
9   0.145385 
10   0.119236 
11   0.144245 
12   0.138647 
13   0.128993 
 
>  <lowdin_charges> 
13 
1   -0.293275 
2   -0.301178 
3   -0.130901 
4   -0.134988 
5   -0.285798 
6   0.151596 
7   0.147156 
8   0.154562 
9   0.146904 
10   0.121377 
11   0.148628 
12   0.14257 
13   0.133346 
 
$$$$ 
 
