PCCDB-ID:  42686 
public computational chemistry database (PCCDB) project, http://pccdb.org 
 
 29 28  0  0  0  0  0  0  0  0999 V2000 
    1.4791   -0.3588    0.9077 C   0  0  0  0  0  0  0  0  0  0  0  0 
    2.1512   -1.5385   -1.2153 C   0  0  0  0  0  0  0  0  0  0  0  0 
    3.3551   -5.5424    0.4671 C   0  0  0  0  0  0  0  0  0  0  0  0 
    4.5786    0.3791   -1.3895 C   0  0  0  0  0  0  0  0  0  0  0  0 
    3.3722    0.5745   -0.4446 C   0  0  0  0  0  0  0  0  0  0  0  0 
    5.2411    1.6509   -1.6918 C   0  0  0  0  0  0  0  0  0  0  0  0 
    3.6412   -1.5437    0.8311 C   0  0  0  0  0  0  0  0  0  0  0  0 
    5.3921   -4.4784    1.1157 C   0  0  0  0  0  0  0  0  0  0  0  0 
    2.6686   -0.7418   -0.0053 C   0  0  0  0  0  0  0  0  0  0  0  0 
    5.7494    2.6692   -1.9200 N   0  0  0  0  0  0  0  0  0  0  0  0 
    4.7899   -5.4944    0.6779 N   0  0  0  0  0  0  0  0  0  0  0  0 
    4.0218   -2.7086    0.4795 N   0  0  0  0  0  0  0  0  0  0  0  0 
    6.7077   -4.5015    1.4240 O   0  0  0  0  0  0  0  0  0  0  0  0 
    4.9426   -3.2161    1.4363 O   0  0  0  0  0  0  0  0  0  0  0  0 
    0.7589    0.2537    0.3536 H   0  0  0  0  0  0  0  0  0  0  0  0 
    1.8091    0.2158    1.7809 H   0  0  0  0  0  0  0  0  0  0  0  0 
    0.9593   -1.2538    1.2661 H   0  0  0  0  0  0  0  0  0  0  0  0 
    1.4910   -0.9084   -1.8224 H   0  0  0  0  0  0  0  0  0  0  0  0 
    1.5810   -2.4125   -0.8863 H   0  0  0  0  0  0  0  0  0  0  0  0 
    2.9626   -1.9061   -1.8490 H   0  0  0  0  0  0  0  0  0  0  0  0 
    3.1075   -5.2921   -0.5711 H   0  0  0  0  0  0  0  0  0  0  0  0 
    2.7860   -4.8683    1.1194 H   0  0  0  0  0  0  0  0  0  0  0  0 
    3.0184   -6.5686    0.6504 H   0  0  0  0  0  0  0  0  0  0  0  0 
    4.2640   -0.0754   -2.3355 H   0  0  0  0  0  0  0  0  0  0  0  0 
    5.3138   -0.3018   -0.9435 H   0  0  0  0  0  0  0  0  0  0  0  0 
    2.6316    1.2151   -0.9381 H   0  0  0  0  0  0  0  0  0  0  0  0 
    3.7091    1.1173    0.4472 H   0  0  0  0  0  0  0  0  0  0  0  0 
    4.0172   -1.0948    1.7559 H   0  0  0  0  0  0  0  0  0  0  0  0 
    6.9747   -5.4313    1.3157 H   0  0  0  0  0  0  0  0  0  0  0  0 
  1 17  1  0  0  0  0 
  1 16  1  0  0  0  0 
  2 19  1  0  0  0  0 
  2  9  1  0  0  0  0 
  3 23  1  0  0  0  0 
  3 11  1  0  0  0  0 
  3 22  1  0  0  0  0 
  4 25  1  0  0  0  0 
  4  5  1  0  0  0  0 
  5  9  1  0  0  0  0 
  5 27  1  0  0  0  0 
  6  4  1  0  0  0  0 
  7 28  1  0  0  0  0 
  8 13  1  0  0  0  0 
  8 14  1  0  0  0  0 
  9  7  1  0  0  0  0 
  9  1  1  0  0  0  0 
 10  6  3  0  0  0  0 
 11  8  2  0  0  0  0 
 12  7  1  0  0  0  0 
 12 14  1  0  0  0  0 
 15  1  1  0  0  0  0 
 18  2  1  0  0  0  0 
 20  2  1  0  0  0  0 
 21  3  1  0  0  0  0 
 24  4  1  0  0  0  0 
 26  5  1  0  0  0  0 
 29 13  1  0  0  0  0 
M  RAD  2   7   2  12   2 
M  END 
>  <HBA> 
5 
 
>  <HBD> 
1 
 
>  <TPSA> 
74.48 
 
>  <cid> 
42686 
 
>  <dipole> 
4.19 
 
>  <excitation_energy_1> 
5.292 
 
>  <excitation_energy_2> 
5.319 
 
>  <excitation_energy_3> 
6.131 
 
>  <excitation_energy_4> 
6.194 
 
>  <homo_energy> 
-6.841 
 
>  <homo_lumo_gap> 
6.12 
 
>  <logP> 
2.049 
 
>  <lumo_energy> 
-0.721 
 
>  <melting_point> 
94.2 
 
>  <molecular_refractivity> 
53.03 
 
>  <oscillator_strength_1> 
0.0391 
 
>  <oscillator_strength_2> 
0.0315 
 
>  <oscillator_strength_3> 
0.0055 
 
>  <oscillator_strength_4> 
0.0004 
 
>  <open_babel_can_smiles> 
C/N=C(/O[N][CH]C(CCC#N)(C)C)\O 
 
>  <mulliken_charges> 
29 
1   -0.455672 
2   -0.458944 
3   -0.306423 
4   -0.348606 
5   -0.274759 
6   0.347889 
7   0.094256 
8   0.678104 
9   0.03575 
10   -0.470541 
11   -0.437887 
12   -0.142747 
13   -0.571431 
14   -0.396031 
15   0.157474 
16   0.151871 
17   0.161172 
18   0.145923 
19   0.16222 
20   0.166265 
21   0.160548 
22   0.140808 
23   0.152556 
24   0.19931 
25   0.20619 
26   0.163478 
27   0.160324 
28   0.158906 
29   0.419997 
 
>  <lowdin_charges> 
29 
1   -0.440137 
2   -0.446853 
3   -0.349879 
4   -0.278471 
5   -0.266979 
6   -0.017727 
7   -0.094502 
8   0.18383 
9   0.006611 
10   -0.127146 
11   -0.248234 
12   -0.030622 
13   -0.352732 
14   -0.146928 
15   0.159208 
16   0.154344 
17   0.159521 
18   0.154102 
19   0.162347 
20   0.161164 
21   0.153906 
22   0.141121 
23   0.149701 
24   0.183589 
25   0.187324 
26   0.160777 
27   0.157428 
28   0.157588 
29   0.367649 
 
$$$$ 
 
