PCCDB-ID:  32867 
public computational chemistry database (PCCDB) project, http://pccdb.org 
 
 37 39  0  0  1  0  0  0  0  0999 V2000 
    0.9181   -0.1268    0.1631 C   0  0  0  0  0  0  0  0  0  0  0  0 
    2.5386    2.2055    1.1867 C   0  0  0  0  0  0  0  0  0  0  0  0 
    3.3866   -7.1984   -2.0866 C   0  0  0  0  0  0  0  0  0  0  0  0 
    2.3501   -6.4678   -1.5028 C   0  0  0  0  0  0  0  0  0  0  0  0 
    4.4320   -6.5214   -2.7175 C   0  0  0  0  0  0  0  0  0  0  0  0 
    2.3591   -5.0745   -1.5502 C   0  0  0  0  0  0  0  0  0  0  0  0 
    4.4410   -5.1280   -2.7623 C   0  0  0  0  0  0  0  0  0  0  0  0 
    3.8920   -0.8191   -3.3955 C   0  0  0  0  0  0  0  0  0  0  0  0 
    3.8772   -2.2080   -3.3672 C   0  0  0  0  0  0  0  0  0  0  0  0 
    3.5242    1.4522   -2.3405 C   0  0  0  0  0  0  0  0  0  0  0  0 
    2.6783    2.0993   -1.2428 C   0  0  0  0  0  0  0  0  0  0  0  0 
    2.9728   -2.1276   -1.1441 C   0  0  0  0  0  0  0  0  0  0  0  0 
    2.4560    0.0346    0.0475 C   0  0  1  0  0  0  0  0  0  0  0  0 
    3.4050   -4.3780   -2.1795 C   0  0  0  0  0  0  0  0  0  0  0  0 
    3.4516   -0.0588   -2.3035 C   0  0  0  0  0  0  0  0  0  0  0  0 
    3.4167   -2.8937   -2.2295 C   0  0  0  0  0  0  0  0  0  0  0  0 
    2.9799   -0.7280   -1.1642 C   0  0  0  0  0  0  0  0  0  0  0  0 
    2.9325    1.4256    0.0258 N   0  0  0  0  0  0  0  0  0  0  0  0 
    0.6477   -1.1872    0.1946 H   0  0  0  0  0  0  0  0  0  0  0  0 
    0.4022    0.3180   -0.6946 H   0  0  0  0  0  0  0  0  0  0  0  0 
    0.5370    0.3422    1.0764 H   0  0  0  0  0  0  0  0  0  0  0  0 
    3.1093    3.1413    1.2023 H   0  0  0  0  0  0  0  0  0  0  0  0 
    2.7802    1.6494    2.1001 H   0  0  0  0  0  0  0  0  0  0  0  0 
    1.4649    2.4681    1.2242 H   0  0  0  0  0  0  0  0  0  0  0  0 
    3.3794   -8.2844   -2.0510 H   0  0  0  0  0  0  0  0  0  0  0  0 
    1.5259   -6.9839   -1.0171 H   0  0  0  0  0  0  0  0  0  0  0  0 
    5.2488   -7.0790   -3.1685 H   0  0  0  0  0  0  0  0  0  0  0  0 
    1.5332   -4.5171   -1.1170 H   0  0  0  0  0  0  0  0  0  0  0  0 
    5.2728   -4.6109   -3.2325 H   0  0  0  0  0  0  0  0  0  0  0  0 
    4.2473   -0.3060   -4.2871 H   0  0  0  0  0  0  0  0  0  0  0  0 
    4.2005   -2.7687   -4.2398 H   0  0  0  0  0  0  0  0  0  0  0  0 
    4.5697    1.7614   -2.2028 H   0  0  0  0  0  0  0  0  0  0  0  0 
    3.2139    1.8243   -3.3257 H   0  0  0  0  0  0  0  0  0  0  0  0 
    1.6081    2.0897   -1.5271 H   0  0  0  0  0  0  0  0  0  0  0  0 
    2.9600    3.1527   -1.1331 H   0  0  0  0  0  0  0  0  0  0  0  0 
    2.6405   -2.6368   -0.2419 H   0  0  0  0  0  0  0  0  0  0  0  0 
    2.8975   -0.4219    0.9452 H   0  0  0  0  0  0  0  0  0  0  0  0 
  1 19  1  0  0  0  0 
  1 21  1  0  0  0  0 
  2 22  1  0  0  0  0 
  2 24  1  0  0  0  0 
  2 23  1  0  0  0  0 
  3 25  1  0  0  0  0 
  3  4  2  0  0  0  0 
  4 26  1  0  0  0  0 
  5  3  1  0  0  0  0 
  6  4  1  0  0  0  0 
  6 28  1  0  0  0  0 
  7  5  2  0  0  0  0 
  7 14  1  0  0  0  0 
  8  9  2  0  0  0  0 
  8 15  1  0  0  0  0 
  9 16  1  0  0  0  0 
 10 15  1  0  0  0  0 
 10 32  1  0  0  0  0 
 10 11  1  0  0  0  0 
 11 35  1  0  0  0  0 
 11 18  1  0  0  0  0 
 12 36  1  0  0  0  0 
 13  1  1  0  0  0  0 
 13 37  1  1  0  0  0 
 14  6  2  0  0  0  0 
 15 17  2  0  0  0  0 
 16 14  1  0  0  0  0 
 16 12  2  0  0  0  0 
 17 12  1  0  0  0  0 
 17 13  1  0  0  0  0 
 18 13  1  0  0  0  0 
 18  2  1  0  0  0  0 
 20  1  1  0  0  0  0 
 27  5  1  0  0  0  0 
 29  7  1  0  0  0  0 
 30  8  1  0  0  0  0 
 31  9  1  0  0  0  0 
 33 10  1  0  0  0  0 
 34 11  1  0  0  0  0 
M  END 
>  <HBA> 
1 
 
>  <HBD> 
0 
 
>  <TPSA> 
3.24 
 
>  <cid> 
32867 
 
>  <dipole> 
0.85 
 
>  <excitation_energy_1> 
4.289 
 
>  <excitation_energy_2> 
4.642 
 
>  <excitation_energy_3> 
4.71 
 
>  <excitation_energy_4> 
4.821 
 
>  <homo_energy> 
-5.543 
 
>  <homo_lumo_gap> 
4.966 
 
>  <logP> 
3.84 
 
>  <lumo_energy> 
-0.577 
 
>  <melting_point> 
73.49 
 
>  <molecular_refractivity> 
80.93 
 
>  <oscillator_strength_1> 
0.0209 
 
>  <oscillator_strength_2> 
0.0438 
 
>  <oscillator_strength_3> 
0.298 
 
>  <oscillator_strength_4> 
0.1483 
 
>  <open_babel_can_smiles> 
CN1CCc2c([C@@H]1C)cc(cc2)c1ccccc1 
 
>  <mulliken_charges> 
37 
1   -0.45514 
2   -0.29437 
3   -0.127345 
4   -0.134318 
5   -0.133869 
6   -0.17288 
7   -0.174557 
8   -0.195181 
9   -0.175775 
10   -0.331748 
11   -0.137117 
12   -0.243075 
13   -0.020341 
14   0.08842 
15   0.11997 
16   0.094506 
17   0.113185 
18   -0.394712 
19   0.147378 
20   0.151281 
21   0.145324 
22   0.148911 
23   0.14631 
24   0.122868 
25   0.127862 
26   0.128506 
27   0.128878 
28   0.129051 
29   0.131514 
30   0.120455 
31   0.12864 
32   0.160275 
33   0.139494 
34   0.119036 
35   0.13584 
36   0.124299 
37   0.138424 
 
>  <lowdin_charges> 
37 
1   -0.462193 
2   -0.354254 
3   -0.157292 
4   -0.15632 
5   -0.15622 
6   -0.163903 
7   -0.163124 
8   -0.16302 
9   -0.164727 
10   -0.276235 
11   -0.195843 
12   -0.168667 
13   -0.057642 
14   0.000384 
15   -0.010367 
16   -0.005366 
17   -0.011238 
18   -0.1864 
19   0.153159 
20   0.152764 
21   0.150192 
22   0.149538 
23   0.149511 
24   0.120811 
25   0.155074 
26   0.158097 
27   0.158354 
28   0.158816 
29   0.159911 
30   0.154625 
31   0.158932 
32   0.157057 
33   0.149912 
34   0.117248 
35   0.145435 
36   0.155657 
37   0.147334 
 
$$$$ 
 
