PCCDB-ID:  7956 
public computational chemistry database (PCCDB) project, http://pccdb.org 
 
 12 12  0  0  0  0  0  0  0  0999 V2000 
   -0.6289    1.1225    0.0024 C   0  0  0  0  0  0  0  0  0  0  0  0 
   -0.6330   -1.1175    0.0023 C   0  0  0  0  0  0  0  0  0  0  0  0 
    1.2890   -0.0131   -0.0031 C   0  0  0  0  0  0  0  0  0  0  0  0 
   -1.3663    0.0061    0.0051 N   0  0  0  0  0  0  0  0  0  0  0  0 
    0.6992    1.1905   -0.0009 N   0  0  0  0  0  0  0  0  0  0  0  0 
    0.6930   -1.2045   -0.0016 N   0  0  0  0  0  0  0  0  0  0  0  0 
   -1.2780    2.2898    0.0037 O   0  0  0  0  0  0  0  0  0  0  0  0 
   -1.2965   -2.2761    0.0040 O   0  0  0  0  0  0  0  0  0  0  0  0 
    2.6228   -0.0296   -0.0076 O   0  0  0  0  0  0  0  0  0  0  0  0 
   -2.2288    2.0787    0.0026 H   0  0  0  0  0  0  0  0  0  0  0  0 
   -2.2448   -2.0546    0.0050 H   0  0  0  0  0  0  0  0  0  0  0  0 
    2.9084    0.9021   -0.0069 H   0  0  0  0  0  0  0  0  0  0  0  0 
  1  7  1  0  0  0  0 
  1  4  2  0  0  0  0 
  2  8  1  0  0  0  0 
  2  4  2  0  0  0  0 
  3  6  1  0  0  0  0 
  3  5  2  0  0  0  0 
  5  1  1  0  0  0  0 
  6  2  1  0  0  0  0 
  8 11  1  0  0  0  0 
  9 12  1  0  0  0  0 
  9  3  1  0  0  0  0 
 10  7  1  0  0  0  0 
M  RAD  1   6   2 
M  END 
>  <HBA> 
3 
 
>  <HBD> 
3 
 
>  <TPSA> 
98.58 
 
>  <cid> 
7956 
 
>  <dipole> 
2.95 
 
>  <excitation_energy_1> 
5.679 
 
>  <excitation_energy_2> 
5.86 
 
>  <excitation_energy_3> 
5.98 
 
>  <excitation_energy_4> 
6.116 
 
>  <homo_energy> 
-7.791 
 
>  <homo_lumo_gap> 
7.2 
 
>  <logP> 
-2.248 
 
>  <lumo_energy> 
-0.59 
 
>  <melting_point> 
250.47 
 
>  <molecular_refractivity> 
28.3 
 
>  <oscillator_strength_1> 
0.0 
 
>  <oscillator_strength_2> 
0.0048 
 
>  <oscillator_strength_3> 
0.0014 
 
>  <oscillator_strength_4> 
0.003 
 
>  <open_babel_can_smiles> 
OC1=NC(=[N]=C([N]1)O)O 
 
>  <mulliken_charges> 
12 
1   0.657712 
2   0.653965 
3   0.651391 
4   -0.551639 
5   -0.506795 
6   -0.459505 
7   -0.574994 
8   -0.571231 
9   -0.571295 
10   0.423479 
11   0.422789 
12   0.426122 
 
>  <lowdin_charges> 
12 
1   0.179355 
2   0.18031 
3   0.182896 
4   -0.276233 
5   -0.236382 
6   -0.19574 
7   -0.315535 
8   -0.312204 
9   -0.313166 
10   0.368603 
11   0.36803 
12   0.370066 
 
$$$$ 
 
