PCCDB-ID:  18090 
public computational chemistry database (PCCDB) project, http://pccdb.org 
 
 26 26  0  0  0  0  0  0  0  0999 V2000 
    3.1144   -1.5412    0.6700 C   0  0  0  0  0  0  0  0  0  0  0  0 
    7.4595    0.9033    0.4408 C   0  0  0  0  0  0  0  0  0  0  0  0 
    3.2803    3.0880   -0.5912 C   0  0  0  0  0  0  0  0  0  0  0  0 
    2.5760    1.9282   -0.3431 C   0  0  0  0  0  0  0  0  0  0  0  0 
    5.4847    4.3304   -0.7161 C   0  0  0  0  0  0  0  0  0  0  0  0 
    4.6591    0.7812    0.1811 C   0  0  0  0  0  0  0  0  0  0  0  0 
    3.8048    6.0612   -1.3523 C   0  0  0  0  0  0  0  0  0  0  0  0 
    6.1675    6.5812   -1.2685 C   0  0  0  0  0  0  0  0  0  0  0  0 
    5.1351    5.6013   -1.0993 C   0  0  0  0  0  0  0  0  0  0  0  0 
    4.6892    3.1551   -0.4695 C   0  0  0  0  0  0  0  0  0  0  0  0 
    3.2649    0.7656    0.0456 C   0  0  0  0  0  0  0  0  0  0  0  0 
    5.3633    1.9614   -0.0727 C   0  0  0  0  0  0  0  0  0  0  0  0 
    2.7277    6.4518   -1.5618 N   0  0  0  0  0  0  0  0  0  0  0  0 
    7.0104    7.3727   -1.4049 N   0  0  0  0  0  0  0  0  0  0  0  0 
    2.4955   -0.3249    0.2671 O   0  0  0  0  0  0  0  0  0  0  0  0 
    6.7131    2.0451    0.0380 O   0  0  0  0  0  0  0  0  0  0  0  0 
    2.3027   -2.2598    0.7903 H   0  0  0  0  0  0  0  0  0  0  0  0 
    3.6412   -1.4233    1.6251 H   0  0  0  0  0  0  0  0  0  0  0  0 
    3.8132   -1.9055   -0.0932 H   0  0  0  0  0  0  0  0  0  0  0  0 
    8.5008    1.2267    0.4644 H   0  0  0  0  0  0  0  0  0  0  0  0 
    7.3491    0.0816   -0.2774 H   0  0  0  0  0  0  0  0  0  0  0  0 
    7.1599    0.5640    1.4398 H   0  0  0  0  0  0  0  0  0  0  0  0 
    2.7310    3.9717   -0.8896 H   0  0  0  0  0  0  0  0  0  0  0  0 
    1.4969    1.8892   -0.4407 H   0  0  0  0  0  0  0  0  0  0  0  0 
    6.5505    4.1862   -0.5740 H   0  0  0  0  0  0  0  0  0  0  0  0 
    5.1884   -0.1121    0.4794 H   0  0  0  0  0  0  0  0  0  0  0  0 
  1 17  1  0  0  0  0 
  1 18  1  0  0  0  0 
  2 20  1  0  0  0  0 
  2 22  1  0  0  0  0 
  3 10  2  0  0  0  0 
  3  4  1  0  0  0  0 
  4 11  2  0  0  0  0 
  5 25  1  0  0  0  0 
  5 10  1  0  0  0  0 
  6 26  1  0  0  0  0 
  7  9  1  0  0  0  0 
  8  9  1  0  0  0  0 
  9  5  2  0  0  0  0 
 10 12  1  0  0  0  0 
 11  6  1  0  0  0  0 
 11 15  1  0  0  0  0 
 12 16  1  0  0  0  0 
 12  6  2  0  0  0  0 
 13  7  3  0  0  0  0 
 14  8  3  0  0  0  0 
 15  1  1  0  0  0  0 
 16  2  1  0  0  0  0 
 19  1  1  0  0  0  0 
 21  2  1  0  0  0  0 
 23  3  1  0  0  0  0 
 24  4  1  0  0  0  0 
M  END 
>  <HBA> 
4 
 
>  <HBD> 
0 
 
>  <TPSA> 
66.04 
 
>  <cid> 
18090 
 
>  <dipole> 
10.85 
 
>  <excitation_energy_1> 
3.544 
 
>  <excitation_energy_2> 
4.099 
 
>  <excitation_energy_3> 
5.036 
 
>  <excitation_energy_4> 
5.198 
 
>  <homo_energy> 
-6.174 
 
>  <homo_lumo_gap> 
3.758 
 
>  <logP> 
2.134 
 
>  <lumo_energy> 
-2.416 
 
>  <melting_point> 
108.95 
 
>  <molecular_refractivity> 
58.63 
 
>  <oscillator_strength_1> 
0.59 
 
>  <oscillator_strength_2> 
0.2009 
 
>  <oscillator_strength_3> 
0.0189 
 
>  <oscillator_strength_4> 
0.0001 
 
>  <open_babel_can_smiles> 
N#CC(=Cc1ccc(cc1OC)OC)C#N 
 
>  <mulliken_charges> 
26 
1   -0.222621 
2   -0.221717 
3   -0.197046 
4   -0.178989 
5   -0.155432 
6   -0.281593 
7   0.307935 
8   0.277223 
9   0.116386 
10   0.093205 
11   0.399619 
12   0.348244 
13   -0.50424 
14   -0.474076 
15   -0.494394 
16   -0.507915 
17   0.184328 
18   0.160475 
19   0.160531 
20   0.186313 
21   0.162004 
22   0.162034 
23   0.183853 
24   0.156333 
25   0.195129 
26   0.144412 
 
>  <lowdin_charges> 
26 
1   -0.278736 
2   -0.275112 
3   -0.122359 
4   -0.190217 
5   -0.07045 
6   -0.269151 
7   -0.003799 
8   -0.006996 
9   -0.066473 
10   -0.06537 
11   0.131468 
12   0.131675 
13   -0.115145 
14   -0.115162 
15   -0.175061 
16   -0.185541 
17   0.171914 
18   0.150386 
19   0.151818 
20   0.17072 
21   0.152131 
22   0.151005 
23   0.189194 
24   0.17501 
25   0.191359 
26   0.172893 
 
$$$$ 
 
