PCCDB-ID:  61834 
public computational chemistry database (PCCDB) project, http://pccdb.org 
 
 34 34  0  0  1  0  0  0  0  0999 V2000 
    7.1106    4.1285    0.2878 C   0  0  0  0  0  0  0  0  0  0  0  0 
    6.5248    2.7134    0.2494 C   0  0  0  0  0  0  0  0  0  0  0  0 
    6.1966    2.2337   -1.1707 C   0  0  0  0  0  0  0  0  0  0  0  0 
    5.6052    0.8176   -1.2102 C   0  0  0  0  0  0  0  0  0  0  0  0 
    5.2146    0.3234   -2.6133 C   0  0  0  0  0  0  0  0  0  0  0  0 
    6.3994    0.1039   -3.5653 C   0  0  0  0  0  0  0  0  0  0  0  0 
    6.1555   -0.2121   -8.1415 C   0  0  0  0  0  0  0  0  0  0  0  0 
    5.9645   -0.4448   -4.9300 C   0  0  0  0  0  0  0  0  0  0  0  0 
    6.6981   -1.2886   -7.2442 C   0  0  0  0  0  0  0  0  0  0  0  0 
    6.5263    1.0628   -7.9759 C   0  0  0  0  0  0  0  0  0  0  0  0 
    7.1319   -0.7093   -5.8903 C   0  0  1  0  0  0  0  0  0  0  0  0 
    7.5275    1.4527   -6.9558 C   0  0  0  0  0  0  0  0  0  0  0  0 
    8.0385    2.5500   -6.9169 O   0  0  0  0  0  0  0  0  0  0  0  0 
    7.9230    0.4966   -6.0667 O   0  0  0  0  0  0  0  0  0  0  0  0 
    7.3374    4.4407    1.3137 H   0  0  0  0  0  0  0  0  0  0  0  0 
    6.4104    4.8590   -0.1358 H   0  0  0  0  0  0  0  0  0  0  0  0 
    8.0397    4.1887   -0.2923 H   0  0  0  0  0  0  0  0  0  0  0  0 
    5.6141    2.6768    0.8644 H   0  0  0  0  0  0  0  0  0  0  0  0 
    7.2325    2.0115    0.7134 H   0  0  0  0  0  0  0  0  0  0  0  0 
    7.1085    2.2778   -1.7818 H   0  0  0  0  0  0  0  0  0  0  0  0 
    5.4860    2.9349   -1.6341 H   0  0  0  0  0  0  0  0  0  0  0  0 
    4.7134    0.7899   -0.5683 H   0  0  0  0  0  0  0  0  0  0  0  0 
    6.3211    0.1112   -0.7635 H   0  0  0  0  0  0  0  0  0  0  0  0 
    4.5134    1.0401   -3.0662 H   0  0  0  0  0  0  0  0  0  0  0  0 
    4.6607   -0.6213   -2.5133 H   0  0  0  0  0  0  0  0  0  0  0  0 
    7.1095   -0.5985   -3.1029 H   0  0  0  0  0  0  0  0  0  0  0  0 
    6.9480    1.0397   -3.7155 H   0  0  0  0  0  0  0  0  0  0  0  0 
    5.4769   -0.4927   -8.9450 H   0  0  0  0  0  0  0  0  0  0  0  0 
    5.2534    0.2459   -5.4024 H   0  0  0  0  0  0  0  0  0  0  0  0 
    5.4287   -1.3950   -4.7899 H   0  0  0  0  0  0  0  0  0  0  0  0 
    7.5517   -1.7750   -7.7393 H   0  0  0  0  0  0  0  0  0  0  0  0 
    5.9506   -2.0742   -7.0818 H   0  0  0  0  0  0  0  0  0  0  0  0 
    6.1775    1.8689   -8.6125 H   0  0  0  0  0  0  0  0  0  0  0  0 
    7.8331   -1.3981   -5.4085 H   0  0  0  0  0  0  0  0  0  0  0  0 
  1 15  1  0  0  0  0 
  2  1  1  0  0  0  0 
  2 19  1  0  0  0  0 
  2 18  1  0  0  0  0 
  3  2  1  0  0  0  0 
  4  3  1  0  0  0  0 
  4 23  1  0  0  0  0 
  4 22  1  0  0  0  0 
  5 25  1  0  0  0  0 
  5  4  1  0  0  0  0 
  6 26  1  0  0  0  0 
  6  5  1  0  0  0  0 
  7 10  2  0  0  0  0 
  7  9  1  0  0  0  0 
  8 30  1  0  0  0  0 
  8  6  1  0  0  0  0 
  9 32  1  0  0  0  0 
  9 11  1  0  0  0  0 
 10 12  1  0  0  0  0 
 11 34  1  1  0  0  0 
 11  8  1  0  0  0  0 
 12 13  2  0  0  0  0 
 12 14  1  0  0  0  0 
 14 11  1  0  0  0  0 
 16  1  1  0  0  0  0 
 17  1  1  0  0  0  0 
 20  3  1  0  0  0  0 
 21  3  1  0  0  0  0 
 24  5  1  0  0  0  0 
 27  6  1  0  0  0  0 
 28  7  1  0  0  0  0 
 29  8  1  0  0  0  0 
 31  9  1  0  0  0  0 
 33 10  1  0  0  0  0 
M  END 
>  <HBA> 
2 
 
>  <HBD> 
0 
 
>  <TPSA> 
26.3 
 
>  <cid> 
61834 
 
>  <dipole> 
4.81 
 
>  <excitation_energy_1> 
4.46 
 
>  <excitation_energy_2> 
5.538 
 
>  <excitation_energy_3> 
6.083 
 
>  <excitation_energy_4> 
6.203 
 
>  <homo_energy> 
-7.102 
 
>  <homo_lumo_gap> 
5.864 
 
>  <logP> 
3.219 
 
>  <lumo_energy> 
-1.238 
 
>  <melting_point> 
14.26 
 
>  <molecular_refractivity> 
58.49 
 
>  <oscillator_strength_1> 
0.0003 
 
>  <oscillator_strength_2> 
0.0136 
 
>  <oscillator_strength_3> 
0.1723 
 
>  <oscillator_strength_4> 
0.059 
 
>  <open_babel_can_smiles> 
CCCCCCC[C@H]1CC=CC(=O)O1 
 
>  <mulliken_charges> 
34 
1   -0.441935 
2   -0.246851 
3   -0.249864 
4   -0.25455 
5   -0.256716 
6   -0.261457 
7   -0.103427 
8   -0.273623 
9   -0.326652 
10   -0.167769 
11   0.112094 
12   0.595503 
13   -0.463916 
14   -0.476873 
15   0.140179 
16   0.141578 
17   0.144772 
18   0.128088 
19   0.129478 
20   0.139156 
21   0.126792 
22   0.126996 
23   0.126044 
24   0.128861 
25   0.123393 
26   0.126548 
27   0.16854 
28   0.152275 
29   0.144086 
30   0.131871 
31   0.173796 
32   0.158485 
33   0.158023 
34   0.147073 
 
>  <lowdin_charges> 
34 
1   -0.444831 
2   -0.273175 
3   -0.278921 
4   -0.276549 
5   -0.275806 
6   -0.279935 
7   -0.121308 
8   -0.290675 
9   -0.290712 
10   -0.206217 
11   0.007609 
12   0.188833 
13   -0.241767 
14   -0.197748 
15   0.147678 
16   0.147547 
17   0.147922 
18   0.13761 
19   0.139639 
20   0.142452 
21   0.138819 
22   0.140602 
23   0.138473 
24   0.139772 
25   0.137666 
26   0.139412 
27   0.156207 
28   0.166061 
29   0.150066 
30   0.145047 
31   0.16887 
32   0.164054 
33   0.179111 
34   0.154192 
 
$$$$ 
 
