PCCDB-ID:  11467 
public computational chemistry database (PCCDB) project, http://pccdb.org 
 
 29 29  0  0  0  0  0  0  0  0999 V2000 
    0.9997    0.2098   -0.0999 C   0  0  0  0  0  0  0  0  0  0  0  0 
    3.1802    1.0823   -0.9509 C   0  0  0  0  0  0  0  0  0  0  0  0 
    5.0200   -2.9969    3.2712 C   0  0  0  0  0  0  0  0  0  0  0  0 
    4.6785   -0.8270    0.9255 C   0  0  0  0  0  0  0  0  0  0  0  0 
    2.4980   -1.7043    1.7753 C   0  0  0  0  0  0  0  0  0  0  0  0 
    5.1538   -0.6087    2.3781 C   0  0  0  0  0  0  0  0  0  0  0  0 
    2.9645   -1.4925    3.2307 C   0  0  0  0  0  0  0  0  0  0  0  0 
    2.5076    0.1134   -0.0012 C   0  0  0  0  0  0  0  0  0  0  0  0 
    3.1666   -0.7323    0.8186 C   0  0  0  0  0  0  0  0  0  0  0  0 
    4.4906   -1.5595    3.3949 C   0  0  0  0  0  0  0  0  0  0  0  0 
    4.7406   -1.0894    4.7307 O   0  0  0  0  0  0  0  0  0  0  0  0 
    0.6672    1.2346    0.1181 H   0  0  0  0  0  0  0  0  0  0  0  0 
    0.4590   -0.4617    0.5682 H   0  0  0  0  0  0  0  0  0  0  0  0 
    0.6690   -0.0067   -1.1259 H   0  0  0  0  0  0  0  0  0  0  0  0 
    2.8631    2.1125   -0.7351 H   0  0  0  0  0  0  0  0  0  0  0  0 
    2.8724    0.8786   -1.9865 H   0  0  0  0  0  0  0  0  0  0  0  0 
    4.2702    1.0592   -0.9218 H   0  0  0  0  0  0  0  0  0  0  0  0 
    4.8125   -3.4405    2.2917 H   0  0  0  0  0  0  0  0  0  0  0  0 
    4.5619   -3.6288    4.0392 H   0  0  0  0  0  0  0  0  0  0  0  0 
    6.1086   -3.0190    3.4153 H   0  0  0  0  0  0  0  0  0  0  0  0 
    4.9964   -1.8267    0.5902 H   0  0  0  0  0  0  0  0  0  0  0  0 
    5.1914   -0.1152    0.2756 H   0  0  0  0  0  0  0  0  0  0  0  0 
    1.4088   -1.6379    1.7441 H   0  0  0  0  0  0  0  0  0  0  0  0 
    2.7460   -2.7317    1.4657 H   0  0  0  0  0  0  0  0  0  0  0  0 
    4.9136    0.4170    2.6848 H   0  0  0  0  0  0  0  0  0  0  0  0 
    6.2477   -0.7140    2.4327 H   0  0  0  0  0  0  0  0  0  0  0  0 
    2.4948   -2.2296    3.8938 H   0  0  0  0  0  0  0  0  0  0  0  0 
    2.6410   -0.5023    3.5745 H   0  0  0  0  0  0  0  0  0  0  0  0 
    5.7012   -1.1176    4.8707 H   0  0  0  0  0  0  0  0  0  0  0  0 
  1  8  1  0  0  0  0 
  1 12  1  0  0  0  0 
  1 13  1  0  0  0  0 
  2 17  1  0  0  0  0 
  2 15  1  0  0  0  0 
  2  8  1  0  0  0  0 
  3 10  1  0  0  0  0 
  3 20  1  0  0  0  0 
  3 19  1  0  0  0  0 
  4  6  1  0  0  0  0 
  5  7  1  0  0  0  0 
  6 26  1  0  0  0  0 
  6 25  1  0  0  0  0 
  6 10  1  0  0  0  0 
  7 10  1  0  0  0  0 
  7 28  1  0  0  0  0 
  7 27  1  0  0  0  0 
  8  9  2  0  0  0  0 
  9  4  1  0  0  0  0 
  9  5  1  0  0  0  0 
 10 11  1  0  0  0  0 
 11 29  1  0  0  0  0 
 14  1  1  0  0  0  0 
 16  2  1  0  0  0  0 
 18  3  1  0  0  0  0 
 21  4  1  0  0  0  0 
 22  4  1  0  0  0  0 
 23  5  1  0  0  0  0 
 24  5  1  0  0  0  0 
M  END 
>  <HBA> 
1 
 
>  <HBD> 
1 
 
>  <TPSA> 
20.23 
 
>  <cid> 
11467 
 
>  <dipole> 
1.46 
 
>  <excitation_energy_1> 
5.434 
 
>  <excitation_energy_2> 
5.78 
 
>  <excitation_energy_3> 
5.999 
 
>  <excitation_energy_4> 
6.104 
 
>  <homo_energy> 
-5.992 
 
>  <homo_lumo_gap> 
6.759 
 
>  <logP> 
2.648 
 
>  <lumo_energy> 
0.767 
 
>  <melting_point> 
39.63 
 
>  <molecular_refractivity> 
48.8 
 
>  <oscillator_strength_1> 
0.0555 
 
>  <oscillator_strength_2> 
0.0877 
 
>  <oscillator_strength_3> 
0.0147 
 
>  <oscillator_strength_4> 
0.0094 
 
>  <open_babel_can_smiles> 
CC(=C1CCC(CC1)(C)O)C 
 
>  <mulliken_charges> 
29 
1   -0.508964 
2   -0.509004 
3   -0.467604 
4   -0.339831 
5   -0.343185 
6   -0.279147 
7   -0.263502 
8   0.094556 
9   0.131509 
10   0.319655 
11   -0.648015 
12   0.149938 
13   0.154309 
14   0.149353 
15   0.149847 
16   0.149514 
17   0.153003 
18   0.146231 
19   0.155106 
20   0.12794 
21   0.137924 
22   0.139673 
23   0.140816 
24   0.137211 
25   0.146041 
26   0.113826 
27   0.135421 
28   0.147339 
29   0.380042 
 
>  <lowdin_charges> 
29 
1   -0.444031 
2   -0.440078 
3   -0.460067 
4   -0.279279 
5   -0.275155 
6   -0.288118 
7   -0.278278 
8   -0.025109 
9   -0.036505 
10   0.116513 
11   -0.460465 
12   0.152521 
13   0.155914 
14   0.152147 
15   0.152184 
16   0.151936 
17   0.15183 
18   0.150642 
19   0.158043 
20   0.141235 
21   0.143308 
22   0.151849 
23   0.149039 
24   0.142557 
25   0.14923 
26   0.133243 
27   0.148675 
28   0.151884 
29   0.334337 
 
$$$$ 
 
