PCCDB-ID:  69977 
public computational chemistry database (PCCDB) project, http://pccdb.org 
 
 20 21  0  0  0  0  0  0  0  0999 V2000 
    1.7453    0.0803    0.0915 C   0  0  0  0  0  0  0  0  0  0  0  0 
    3.3714   -2.3021    1.2027 C   0  0  0  0  0  0  0  0  0  0  0  0 
    4.4155   -1.3686    1.7617 C   0  0  0  0  0  0  0  0  0  0  0  0 
    3.3557    2.3725   -1.2129 C   0  0  0  0  0  0  0  0  0  0  0  0 
    4.2558    1.3811   -1.9064 C   0  0  0  0  0  0  0  0  0  0  0  0 
    3.0799    0.0409    0.0079 C   0  0  0  0  0  0  0  0  0  0  0  0 
    3.8878   -1.1733    0.3490 C   0  0  0  0  0  0  0  0  0  0  0  0 
    3.9091    1.2063   -0.4361 C   0  0  0  0  0  0  0  0  0  0  0  0 
    1.1636   -0.7940    0.3673 H   0  0  0  0  0  0  0  0  0  0  0  0 
    1.1865    0.9884   -0.1136 H   0  0  0  0  0  0  0  0  0  0  0  0 
    2.3666   -2.2290    1.6076 H   0  0  0  0  0  0  0  0  0  0  0  0 
    3.6683   -3.3137    0.9395 H   0  0  0  0  0  0  0  0  0  0  0  0 
    5.4320   -1.7319    1.8879 H   0  0  0  0  0  0  0  0  0  0  0  0 
    4.0950   -0.6559    2.5171 H   0  0  0  0  0  0  0  0  0  0  0  0 
    2.3034    2.3661   -1.4806 H   0  0  0  0  0  0  0  0  0  0  0  0 
    3.7479    3.3611   -0.9906 H   0  0  0  0  0  0  0  0  0  0  0  0 
    5.2672    1.6818   -2.1669 H   0  0  0  0  0  0  0  0  0  0  0  0 
    3.7933    0.6962   -2.6122 H   0  0  0  0  0  0  0  0  0  0  0  0 
    4.5926   -1.4578   -0.4325 H   0  0  0  0  0  0  0  0  0  0  0  0 
    4.7273    1.4397    0.2453 H   0  0  0  0  0  0  0  0  0  0  0  0 
  1  9  1  0  0  0  0 
  2 11  1  0  0  0  0 
  2  3  1  0  0  0  0 
  3 13  1  0  0  0  0 
  3 14  1  0  0  0  0 
  4 16  1  0  0  0  0 
  4  8  1  0  0  0  0 
  5  4  1  0  0  0  0 
  5  8  1  0  0  0  0 
  6  1  2  0  0  0  0 
  6  7  1  0  0  0  0 
  7  2  1  0  0  0  0 
  7  3  1  0  0  0  0 
  8  6  1  0  0  0  0 
  8 20  1  0  0  0  0 
 10  1  1  0  0  0  0 
 12  2  1  0  0  0  0 
 15  4  1  0  0  0  0 
 17  5  1  0  0  0  0 
 18  5  1  0  0  0  0 
 19  7  1  0  0  0  0 
M  END 
>  <HBA> 
0 
 
>  <HBD> 
0 
 
>  <TPSA> 
0.0 
 
>  <cid> 
69977 
 
>  <dipole> 
0.55 
 
>  <excitation_energy_1> 
5.99 
 
>  <excitation_energy_2> 
6.052 
 
>  <excitation_energy_3> 
6.188 
 
>  <excitation_energy_4> 
6.412 
 
>  <homo_energy> 
-6.286 
 
>  <homo_lumo_gap> 
6.942 
 
>  <logP> 
2.363 
 
>  <lumo_energy> 
0.656 
 
>  <melting_point> 
0.09 
 
>  <molecular_refractivity> 
35.87 
 
>  <oscillator_strength_1> 
0.015 
 
>  <oscillator_strength_2> 
0.1589 
 
>  <oscillator_strength_3> 
0.0233 
 
>  <oscillator_strength_4> 
0.0005 
 
>  <open_babel_can_smiles> 
C=C(C1CC1)C1CC1 
 
>  <mulliken_charges> 
20 
1   -0.419027 
2   -0.316676 
3   -0.303814 
4   -0.316688 
5   -0.303677 
6   0.217204 
7   -0.167736 
8   -0.167528 
9   0.134373 
10   0.134252 
11   0.154054 
12   0.149419 
13   0.148608 
14   0.155709 
15   0.153984 
16   0.14946 
17   0.148611 
18   0.155736 
19   0.14694 
20   0.146795 
 
>  <lowdin_charges> 
20 
1   -0.367718 
2   -0.310395 
3   -0.311114 
4   -0.310174 
5   -0.311429 
6   0.013762 
7   -0.151372 
8   -0.15102 
9   0.156707 
10   0.156344 
11   0.159551 
12   0.158242 
13   0.155864 
14   0.160903 
15   0.158838 
16   0.158569 
17   0.155979 
18   0.161261 
19   0.158707 
20   0.158496 
 
$$$$ 
 
