PCCDB-ID:  13070 
public computational chemistry database (PCCDB) project, http://pccdb.org 
 
 29 30  0  0  0  0  0  0  0  0999 V2000 
    1.4976    0.8277   -1.2372 C   0  0  0  0  0  0  0  0  0  0  0  0 
   -0.6206    1.6706    3.6708 C   0  0  0  0  0  0  0  0  0  0  0  0 
    5.8124   -1.9267   -2.1566 C   0  0  0  0  0  0  0  0  0  0  0  0 
   -0.1524    2.4209    2.5910 C   0  0  0  0  0  0  0  0  0  0  0  0 
   -0.1303    0.3780    3.8717 C   0  0  0  0  0  0  0  0  0  0  0  0 
    4.5680   -1.9379   -2.7889 C   0  0  0  0  0  0  0  0  0  0  0  0 
    5.9546   -1.2569   -0.9402 C   0  0  0  0  0  0  0  0  0  0  0  0 
    0.7856    1.8822    1.7106 C   0  0  0  0  0  0  0  0  0  0  0  0 
    0.8091   -0.1574    2.9944 C   0  0  0  0  0  0  0  0  0  0  0  0 
    3.4783   -1.2869   -2.2124 C   0  0  0  0  0  0  0  0  0  0  0  0 
    4.8634   -0.6094   -0.3636 C   0  0  0  0  0  0  0  0  0  0  0  0 
    2.2800   -0.0467    1.0042 C   0  0  0  0  0  0  0  0  0  0  0  0 
    2.4397    0.0622   -0.3360 C   0  0  0  0  0  0  0  0  0  0  0  0 
    1.2734    0.5729    1.8830 C   0  0  0  0  0  0  0  0  0  0  0  0 
    3.5985   -0.6176   -0.9811 C   0  0  0  0  0  0  0  0  0  0  0  0 
    0.5495    1.0478   -0.7429 H   0  0  0  0  0  0  0  0  0  0  0  0 
    1.2743    0.2614   -2.1476 H   0  0  0  0  0  0  0  0  0  0  0  0 
    1.9425    1.7768   -1.5666 H   0  0  0  0  0  0  0  0  0  0  0  0 
   -1.3505    2.0928    4.3563 H   0  0  0  0  0  0  0  0  0  0  0  0 
    6.6625   -2.4292   -2.6099 H   0  0  0  0  0  0  0  0  0  0  0  0 
   -0.5087    3.4365    2.4388 H   0  0  0  0  0  0  0  0  0  0  0  0 
   -0.4780   -0.2121    4.7157 H   0  0  0  0  0  0  0  0  0  0  0  0 
    4.4425   -2.4584   -3.7349 H   0  0  0  0  0  0  0  0  0  0  0  0 
    6.9215   -1.2253   -0.4445 H   0  0  0  0  0  0  0  0  0  0  0  0 
    1.1688    2.4951    0.9014 H   0  0  0  0  0  0  0  0  0  0  0  0 
    1.1891   -1.1630    3.1593 H   0  0  0  0  0  0  0  0  0  0  0  0 
    2.5180   -1.3242   -2.7179 H   0  0  0  0  0  0  0  0  0  0  0  0 
    4.9908   -0.0642    0.5671 H   0  0  0  0  0  0  0  0  0  0  0  0 
    2.9592   -0.7230    1.5220 H   0  0  0  0  0  0  0  0  0  0  0  0 
  1 16  1  0  0  0  0 
  1 13  1  0  0  0  0 
  2  5  1  0  0  0  0 
  2 19  1  0  0  0  0 
  3  7  2  0  0  0  0 
  4  2  2  0  0  0  0 
  5 22  1  0  0  0  0 
  6 10  2  0  0  0  0 
  6  3  1  0  0  0  0 
  7 24  1  0  0  0  0 
  7 11  1  0  0  0  0 
  8 14  2  0  0  0  0 
  8  4  1  0  0  0  0 
  9 26  1  0  0  0  0 
  9  5  2  0  0  0  0 
 10 15  1  0  0  0  0 
 11 28  1  0  0  0  0 
 12 29  1  0  0  0  0 
 12 14  1  0  0  0  0 
 13 12  2  0  0  0  0 
 14  9  1  0  0  0  0 
 15 11  2  0  0  0  0 
 15 13  1  0  0  0  0 
 17  1  1  0  0  0  0 
 18  1  1  0  0  0  0 
 20  3  1  0  0  0  0 
 21  4  1  0  0  0  0 
 23  6  1  0  0  0  0 
 25  8  1  0  0  0  0 
 27 10  1  0  0  0  0 
M  END 
>  <HBA> 
0 
 
>  <HBD> 
0 
 
>  <TPSA> 
0.0 
 
>  <cid> 
13070 
 
>  <dipole> 
0.25 
 
>  <excitation_energy_1> 
4.235 
 
>  <excitation_energy_2> 
4.665 
 
>  <excitation_energy_3> 
4.736 
 
>  <excitation_energy_4> 
5.085 
 
>  <homo_energy> 
-5.638 
 
>  <homo_lumo_gap> 
4.675 
 
>  <logP> 
4.247 
 
>  <lumo_energy> 
-0.963 
 
>  <melting_point> 
59.64 
 
>  <molecular_refractivity> 
66.62 
 
>  <oscillator_strength_1> 
0.7528 
 
>  <oscillator_strength_2> 
0.0011 
 
>  <oscillator_strength_3> 
0.0025 
 
>  <oscillator_strength_4> 
0.0017 
 
>  <open_babel_can_smiles> 
C/C(=C\c1ccccc1)/c1ccccc1 
 
>  <mulliken_charges> 
29 
1   -0.528083 
2   -0.129494 
3   -0.128155 
4   -0.133203 
5   -0.1305 
6   -0.131424 
7   -0.132112 
8   -0.186073 
9   -0.18284 
10   -0.185008 
11   -0.175962 
12   -0.256536 
13   0.106186 
14   0.161046 
15   0.109547 
16   0.167508 
17   0.157129 
18   0.162739 
19   0.128754 
20   0.128638 
21   0.129172 
22   0.129486 
23   0.128967 
24   0.129463 
25   0.136524 
26   0.128398 
27   0.129096 
28   0.13319 
29   0.133548 
 
>  <lowdin_charges> 
29 
1   -0.446832 
2   -0.1598 
3   -0.159695 
4   -0.156012 
5   -0.156705 
6   -0.154843 
7   -0.155964 
8   -0.164374 
9   -0.158259 
10   -0.163111 
11   -0.161069 
12   -0.183201 
13   0.000233 
14   -0.002099 
15   -0.00269 
16   0.164703 
17   0.158047 
18   0.160667 
19   0.158542 
20   0.158331 
21   0.156344 
22   0.158406 
23   0.156831 
24   0.157412 
25   0.161979 
26   0.156153 
27   0.156399 
28   0.159991 
29   0.160615 
 
$$$$ 
 
