PCCDB-ID:  40677 
public computational chemistry database (PCCDB) project, http://pccdb.org 
 
 11 10  0  0  0  0  0  0  0  0999 V2000 
    1.0194   -0.0403   -0.2543 C   0  0  0  0  0  0  0  0  0  0  0  0 
    2.6598    1.8685   -0.6678 O   0  0  0  0  0  0  0  0  0  0  0  0 
    3.3392    0.4751    1.1656 O   0  0  0  0  0  0  0  0  0  0  0  0 
    2.8249   -1.6775    0.1816 O   0  0  0  0  0  0  0  0  0  0  0  0 
    2.8285    0.0056   -0.3487 S   0  0  0  0  0  0  0  0  0  0  0  0 
    0.6710    0.9630   -0.0172 H   0  0  0  0  0  0  0  0  0  0  0  0 
    0.7499   -0.7788    0.4999 H   0  0  0  0  0  0  0  0  0  0  0  0 
    0.6494   -0.3457   -1.2364 H   0  0  0  0  0  0  0  0  0  0  0  0 
    3.3827    2.0826   -1.2810 H   0  0  0  0  0  0  0  0  0  0  0  0 
    3.3132    1.4535    1.0622 H   0  0  0  0  0  0  0  0  0  0  0  0 
    3.7420   -1.9897    0.0926 H   0  0  0  0  0  0  0  0  0  0  0  0 
  1  6  1  0  0  0  0 
  1  7  1  0  0  0  0 
  2  5  1  0  0  0  0 
  5  1  1  0  0  0  0 
  5  4  1  0  0  0  0 
  5  3  1  0  0  0  0 
  8  1  1  0  0  0  0 
  9  2  1  0  0  0  0 
 10  3  1  0  0  0  0 
 11  4  1  0  0  0  0 
M  END 
>  <HBA> 
3 
 
>  <HBD> 
3 
 
>  <TPSA> 
85.99 
 
>  <cid> 
40677 
 
>  <dipole> 
1.58 
 
>  <excitation_energy_1> 
5.405 
 
>  <excitation_energy_2> 
6.047 
 
>  <excitation_energy_3> 
6.213 
 
>  <excitation_energy_4> 
6.487 
 
>  <homo_energy> 
-6.558 
 
>  <homo_lumo_gap> 
6.651 
 
>  <logP> 
0.84 
 
>  <lumo_energy> 
0.093 
 
>  <melting_point> 
117.19 
 
>  <molecular_refractivity> 
21.34 
 
>  <oscillator_strength_1> 
0.0165 
 
>  <oscillator_strength_2> 
0.0176 
 
>  <oscillator_strength_3> 
0.0096 
 
>  <oscillator_strength_4> 
0.094 
 
>  <open_babel_can_smiles> 
CS(O)(O)O 
 
>  <mulliken_charges> 
11 
1   -0.592489 
2   -0.819692 
3   -0.662363 
4   -0.742882 
5   0.997797 
6   0.218673 
7   0.219397 
8   0.194595 
9   0.377337 
10   0.416611 
11   0.393016 
 
>  <lowdin_charges> 
11 
1   -0.553787 
2   -0.746193 
3   -0.592319 
4   -0.67284 
5   0.968388 
6   0.191729 
7   0.192882 
8   0.187149 
9   0.329296 
10   0.354954 
11   0.340741 
 
$$$$ 
 
