PCCDB-ID:  59207 
public computational chemistry database (PCCDB) project, http://pccdb.org 
 
 31 32  0  0  1  0  0  0  0  0999 V2000 
    3.3417   -1.7879   -0.6212 C   0  0  0  0  0  0  0  0  0  0  0  0 
    7.1521    6.0132    3.0333 C   0  0  0  0  0  0  0  0  0  0  0  0 
    7.3091    4.7334    2.4972 C   0  0  0  0  0  0  0  0  0  0  0  0 
    6.0214    6.7630    2.7023 C   0  0  0  0  0  0  0  0  0  0  0  0 
    6.3498    4.1988    1.6366 C   0  0  0  0  0  0  0  0  0  0  0  0 
    5.0505    6.2382    1.8499 C   0  0  0  0  0  0  0  0  0  0  0  0 
    3.1810    1.1388    1.4198 C   0  0  0  0  0  0  0  0  0  0  0  0 
    3.0699    1.3730   -0.9646 C   0  0  0  0  0  0  0  0  0  0  0  0 
    3.6645    2.4427    1.5404 C   0  0  0  0  0  0  0  0  0  0  0  0 
    3.5590    2.6726   -0.8672 C   0  0  0  0  0  0  0  0  0  0  0  0 
    2.3415   -0.8505    0.0691 C   0  0  1  0  0  0  0  0  0  0  0  0 
    2.8749    0.5778    0.1746 C   0  0  0  0  0  0  0  0  0  0  0  0 
    5.2179    4.9566    1.3211 C   0  0  0  0  0  0  0  0  0  0  0  0 
    3.8583    3.2074    0.3886 C   0  0  0  0  0  0  0  0  0  0  0  0 
    1.0365   -0.9788   -0.6039 N   0  0  0  0  0  0  0  0  0  0  0  0 
    4.2600    4.5291    0.4213 O   0  0  0  0  0  0  0  0  0  0  0  0 
    4.2972   -1.8045   -0.0869 H   0  0  0  0  0  0  0  0  0  0  0  0 
    3.5421   -1.4610   -1.6495 H   0  0  0  0  0  0  0  0  0  0  0  0 
    2.9353   -2.8034   -0.6593 H   0  0  0  0  0  0  0  0  0  0  0  0 
    7.9049    6.4227    3.7007 H   0  0  0  0  0  0  0  0  0  0  0  0 
    8.1896    4.1449    2.7417 H   0  0  0  0  0  0  0  0  0  0  0  0 
    5.8888    7.7608    3.1119 H   0  0  0  0  0  0  0  0  0  0  0  0 
    6.4757    3.2085    1.2114 H   0  0  0  0  0  0  0  0  0  0  0  0 
    4.1640    6.8043    1.5816 H   0  0  0  0  0  0  0  0  0  0  0  0 
    3.0292    0.5487    2.3215 H   0  0  0  0  0  0  0  0  0  0  0  0 
    2.8385    0.9744   -1.9503 H   0  0  0  0  0  0  0  0  0  0  0  0 
    3.8830    2.8632    2.5166 H   0  0  0  0  0  0  0  0  0  0  0  0 
    3.7107    3.2875   -1.7489 H   0  0  0  0  0  0  0  0  0  0  0  0 
    2.1925   -1.2182    1.0930 H   0  0  0  0  0  0  0  0  0  0  0  0 
    1.1279   -0.6978   -1.5805 H   0  0  0  0  0  0  0  0  0  0  0  0 
    0.3757   -0.3225   -0.1884 H   0  0  0  0  0  0  0  0  0  0  0  0 
  1 17  1  0  0  0  0 
  1 11  1  0  0  0  0 
  2 20  1  0  0  0  0 
  3 21  1  0  0  0  0 
  3  2  2  0  0  0  0 
  4  2  1  0  0  0  0 
  4 22  1  0  0  0  0 
  5  3  1  0  0  0  0 
  6  4  2  0  0  0  0 
  7  9  1  0  0  0  0 
  7 25  1  0  0  0  0 
  8 10  2  0  0  0  0 
  8 12  1  0  0  0  0 
  9 27  1  0  0  0  0 
 10 14  1  0  0  0  0 
 11 12  1  0  0  0  0 
 11 29  1  1  0  0  0 
 12  7  2  0  0  0  0 
 13  5  2  0  0  0  0 
 13  6  1  0  0  0  0 
 14 16  1  0  0  0  0 
 14  9  2  0  0  0  0 
 15 31  1  0  0  0  0 
 15 11  1  0  0  0  0 
 16 13  1  0  0  0  0 
 18  1  1  0  0  0  0 
 19  1  1  0  0  0  0 
 23  5  1  0  0  0  0 
 24  6  1  0  0  0  0 
 26  8  1  0  0  0  0 
 28 10  1  0  0  0  0 
 30 15  1  0  0  0  0 
M  END 
>  <HBA> 
2 
 
>  <HBD> 
1 
 
>  <TPSA> 
35.25 
 
>  <cid> 
59207 
 
>  <dipole> 
0.99 
 
>  <excitation_energy_1> 
4.617 
 
>  <excitation_energy_2> 
4.936 
 
>  <excitation_energy_3> 
4.995 
 
>  <excitation_energy_4> 
5.285 
 
>  <homo_energy> 
-5.782 
 
>  <homo_lumo_gap> 
5.497 
 
>  <logP> 
4.199 
 
>  <lumo_energy> 
-0.286 
 
>  <melting_point> 
99.17 
 
>  <molecular_refractivity> 
65.44 
 
>  <oscillator_strength_1> 
0.0131 
 
>  <oscillator_strength_2> 
0.3228 
 
>  <oscillator_strength_3> 
0.0143 
 
>  <oscillator_strength_4> 
0.0032 
 
>  <open_babel_can_smiles> 
C[C@@H](c1ccc(cc1)Oc1ccccc1)N 
 
>  <mulliken_charges> 
31 
1   -0.435321 
2   -0.128637 
3   -0.138324 
4   -0.137283 
5   -0.167233 
6   -0.172316 
7   -0.20924 
8   -0.199495 
9   -0.163669 
10   -0.171922 
11   -0.069708 
12   0.18426 
13   0.344842 
14   0.343164 
15   -0.69885 
16   -0.576617 
17   0.148789 
18   0.137156 
19   0.161172 
20   0.129434 
21   0.13404 
22   0.133876 
23   0.147876 
24   0.141497 
25   0.129291 
26   0.119957 
27   0.148245 
28   0.141296 
29   0.136793 
30   0.290829 
31   0.296096 
 
>  <lowdin_charges> 
31 
1   -0.441926 
2   -0.171995 
3   -0.148479 
4   -0.146419 
5   -0.189081 
6   -0.180554 
7   -0.162714 
8   -0.158773 
9   -0.188307 
10   -0.178138 
11   -0.060623 
12   -0.03135 
13   0.10164 
14   0.099636 
15   -0.545818 
16   -0.164736 
17   0.154169 
18   0.144446 
19   0.158427 
20   0.159639 
21   0.160249 
22   0.159243 
23   0.168896 
24   0.16851 
25   0.157215 
26   0.15174 
27   0.169693 
28   0.168487 
29   0.142394 
30   0.248591 
31   0.255939 
 
$$$$ 
 
