PCCDB-ID:  25958 
public computational chemistry database (PCCDB) project, http://pccdb.org 
 
 26 27  0  0  0  0  0  0  0  0999 V2000 
   -2.5112    0.7280   -0.3590 C   0  0  0  0  0  0  0  0  0  0  0  0 
   -2.5497   -0.6665    0.2764 C   0  0  0  0  0  0  0  0  0  0  0  0 
   -1.2748    1.4977    0.1220 C   0  0  0  0  0  0  0  0  0  0  0  0 
   -1.3280   -1.4833   -0.1631 C   0  0  0  0  0  0  0  0  0  0  0  0 
    1.2453    1.3357    0.1573 C   0  0  0  0  0  0  0  0  0  0  0  0 
    2.4404    0.6302    0.1466 C   0  0  0  0  0  0  0  0  0  0  0  0 
    1.1934   -1.4210   -0.0602 C   0  0  0  0  0  0  0  0  0  0  0  0 
    0.0060    0.6831    0.0640 C   0  0  0  0  0  0  0  0  0  0  0  0 
   -0.0188   -0.7194   -0.0430 C   0  0  0  0  0  0  0  0  0  0  0  0 
    2.4256   -0.7659    0.0250 C   0  0  0  0  0  0  0  0  0  0  0  0 
    3.7458   -1.4783    0.0158 C   0  0  0  0  0  0  0  0  0  0  0  0 
    3.7379   -2.7764   -0.4495 N   0  0  0  0  0  0  0  0  0  0  0  0 
    4.7748   -0.9505    0.4203 O   0  0  0  0  0  0  0  0  0  0  0  0 
   -3.4185    1.2935   -0.1153 H   0  0  0  0  0  0  0  0  0  0  0  0 
   -2.4854    0.6270   -1.4533 H   0  0  0  0  0  0  0  0  0  0  0  0 
   -3.4694   -1.1961    0.0009 H   0  0  0  0  0  0  0  0  0  0  0  0 
   -2.5566   -0.5664    1.3709 H   0  0  0  0  0  0  0  0  0  0  0  0 
   -1.4372    1.8187    1.1625 H   0  0  0  0  0  0  0  0  0  0  0  0 
   -1.1478    2.4214   -0.4569 H   0  0  0  0  0  0  0  0  0  0  0  0 
   -1.4649   -1.7877   -1.2123 H   0  0  0  0  0  0  0  0  0  0  0  0 
   -1.2637   -2.4157    0.4124 H   0  0  0  0  0  0  0  0  0  0  0  0 
    1.2637    2.4203    0.2439 H   0  0  0  0  0  0  0  0  0  0  0  0 
    3.3971    1.1347    0.2308 H   0  0  0  0  0  0  0  0  0  0  0  0 
    1.1580   -2.5077   -0.1043 H   0  0  0  0  0  0  0  0  0  0  0  0 
    3.0225   -3.0725   -1.0980 H   0  0  0  0  0  0  0  0  0  0  0  0 
    4.6544   -3.1842   -0.5813 H   0  0  0  0  0  0  0  0  0  0  0  0 
  1 14  1  0  0  0  0 
  1  3  1  0  0  0  0 
  1  2  1  0  0  0  0 
  2 17  1  0  0  0  0 
  3 18  1  0  0  0  0 
  4  9  1  0  0  0  0 
  4  2  1  0  0  0  0 
  4 21  1  0  0  0  0 
  5 22  1  0  0  0  0 
  6  5  1  0  0  0  0 
  6 23  1  0  0  0  0 
  7  9  2  0  0  0  0 
  7 10  1  0  0  0  0 
  8  3  1  0  0  0  0 
  8  5  2  0  0  0  0 
  9  8  1  0  0  0  0 
 10  6  2  0  0  0  0 
 11 10  1  0  0  0  0 
 11 13  2  0  0  0  0 
 12 11  1  0  0  0  0 
 15  1  1  0  0  0  0 
 16  2  1  0  0  0  0 
 19  3  1  0  0  0  0 
 20  4  1  0  0  0  0 
 24  7  1  0  0  0  0 
 25 12  1  0  0  0  0 
 26 12  1  0  0  0  0 
M  END 
>  <HBA> 
2 
 
>  <HBD> 
1 
 
>  <TPSA> 
43.09 
 
>  <cid> 
25958 
 
>  <dipole> 
4.11 
 
>  <excitation_energy_1> 
4.551 
 
>  <excitation_energy_2> 
4.795 
 
>  <excitation_energy_3> 
5.192 
 
>  <excitation_energy_4> 
5.678 
 
>  <homo_energy> 
-6.419 
 
>  <homo_lumo_gap> 
5.584 
 
>  <logP> 
2.365 
 
>  <lumo_energy> 
-0.835 
 
>  <melting_point> 
124.05 
 
>  <molecular_refractivity> 
51.97 
 
>  <oscillator_strength_1> 
0.0101 
 
>  <oscillator_strength_2> 
0.0276 
 
>  <oscillator_strength_3> 
0.1903 
 
>  <oscillator_strength_4> 
0.0412 
 
>  <open_babel_can_smiles> 
NC(=O)c1ccc2c(c1)CCCC2 
 
>  <mulliken_charges> 
26 
1   -0.266689 
2   -0.266831 
3   -0.343363 
4   -0.341503 
5   -0.192978 
6   -0.162253 
7   -0.256257 
8   0.12556 
9   0.122613 
10   0.087131 
11   0.524836 
12   -0.752114 
13   -0.504058 
14   0.136282 
15   0.137714 
16   0.135394 
17   0.139867 
18   0.155772 
19   0.148773 
20   0.149963 
21   0.147387 
22   0.126012 
23   0.160051 
24   0.121377 
25   0.329595 
26   0.337723 
 
>  <lowdin_charges> 
26 
1   -0.274666 
2   -0.274376 
3   -0.276051 
4   -0.275427 
5   -0.159589 
6   -0.136129 
7   -0.163721 
8   -0.00439 
9   -0.015935 
10   -0.048253 
11   0.168478 
12   -0.476157 
13   -0.302952 
14   0.147505 
15   0.139755 
16   0.147009 
17   0.140883 
18   0.153388 
19   0.154177 
20   0.149479 
21   0.152774 
22   0.154322 
23   0.176008 
24   0.15114 
25   0.28406 
26   0.288667 
 
$$$$ 
 
