PCCDB-ID:  70218 
public computational chemistry database (PCCDB) project, http://pccdb.org 
 
 24 23  0  0  0  0  0  0  0  0999 V2000 
    3.7688   -0.8678   -1.0910 C   0  0  0  0  0  0  0  0  0  0  0  0 
   -1.5082   -3.1741    3.9709 C   0  0  0  0  0  0  0  0  0  0  0  0 
   -1.7758   -0.8630    3.3997 C   0  0  0  0  0  0  0  0  0  0  0  0 
    2.9836   -1.2828   -0.0899 C   0  0  0  0  0  0  0  0  0  0  0  0 
    1.0310   -1.0794    2.1314 C   0  0  0  0  0  0  0  0  0  0  0  0 
    0.4189   -1.9022    3.2749 C   0  0  0  0  0  0  0  0  0  0  0  0 
    3.2833   -1.0743    1.3490 C   0  0  0  0  0  0  0  0  0  0  0  0 
    2.4661   -1.0095    2.3192 N   0  0  0  0  0  0  0  0  0  0  0  0 
   -1.0254   -2.0842    3.1329 N   0  0  0  0  0  0  0  0  0  0  0  0 
    4.6077   -0.8990    1.6593 O   0  0  0  0  0  0  0  0  0  0  0  0 
    3.5018   -1.0436   -2.1288 H   0  0  0  0  0  0  0  0  0  0  0  0 
    4.6854   -0.3077   -0.9194 H   0  0  0  0  0  0  0  0  0  0  0  0 
   -2.5783   -3.3288    3.7924 H   0  0  0  0  0  0  0  0  0  0  0  0 
   -1.3680   -2.9907    5.0550 H   0  0  0  0  0  0  0  0  0  0  0  0 
   -0.9839   -4.1008    3.7141 H   0  0  0  0  0  0  0  0  0  0  0  0 
   -2.8430   -1.0468    3.2333 H   0  0  0  0  0  0  0  0  0  0  0  0 
   -1.4683   -0.0642    2.7186 H   0  0  0  0  0  0  0  0  0  0  0  0 
   -1.6496   -0.4949    4.4378 H   0  0  0  0  0  0  0  0  0  0  0  0 
    2.0516   -1.7899   -0.3208 H   0  0  0  0  0  0  0  0  0  0  0  0 
    0.6400   -0.0530    2.1572 H   0  0  0  0  0  0  0  0  0  0  0  0 
    0.7013   -1.5173    1.1769 H   0  0  0  0  0  0  0  0  0  0  0  0 
    0.6962   -1.4392    4.2412 H   0  0  0  0  0  0  0  0  0  0  0  0 
    0.8867   -2.8934    3.2561 H   0  0  0  0  0  0  0  0  0  0  0  0 
    5.1412   -1.2667    0.9375 H   0  0  0  0  0  0  0  0  0  0  0  0 
  1 12  1  0  0  0  0 
  1  4  2  0  0  0  0 
  2 14  1  0  0  0  0 
  3 18  1  0  0  0  0 
  4  7  1  0  0  0  0 
  5 20  1  0  0  0  0 
  5  8  1  0  0  0  0 
  5  6  1  0  0  0  0 
  6 22  1  0  0  0  0 
  7 10  1  0  0  0  0 
  7  8  2  0  0  0  0 
  9  6  1  0  0  0  0 
  9  3  1  0  0  0  0 
  9  2  1  0  0  0  0 
 11  1  1  0  0  0  0 
 13  2  1  0  0  0  0 
 15  2  1  0  0  0  0 
 16  3  1  0  0  0  0 
 17  3  1  0  0  0  0 
 19  4  1  0  0  0  0 
 21  5  1  0  0  0  0 
 23  6  1  0  0  0  0 
 24 10  1  0  0  0  0 
M  END 
>  <HBA> 
3 
 
>  <HBD> 
1 
 
>  <TPSA> 
32.34 
 
>  <cid> 
70218 
 
>  <dipole> 
2.87 
 
>  <excitation_energy_1> 
3.8 
 
>  <excitation_energy_2> 
4.324 
 
>  <excitation_energy_3> 
5.119 
 
>  <excitation_energy_4> 
5.283 
 
>  <homo_energy> 
-5.633 
 
>  <homo_lumo_gap> 
4.531 
 
>  <logP> 
0.241 
 
>  <lumo_energy> 
-1.102 
 
>  <melting_point> 
3.38 
 
>  <molecular_refractivity> 
41.19 
 
>  <oscillator_strength_1> 
0.0075 
 
>  <oscillator_strength_2> 
0.0021 
 
>  <oscillator_strength_3> 
0.2526 
 
>  <oscillator_strength_4> 
0.0035 
 
>  <open_babel_can_smiles> 
C=C/C(=N\CCN(C)C)/O 
 
>  <mulliken_charges> 
24 
1   -0.354046 
2   -0.292181 
3   -0.30104 
4   -0.117318 
5   -0.156633 
6   -0.107652 
7   0.456598 
8   -0.417593 
9   -0.373802 
10   -0.588206 
11   0.161804 
12   0.155986 
13   0.144935 
14   0.118635 
15   0.147739 
16   0.146908 
17   0.150796 
18   0.119347 
19   0.159963 
20   0.150918 
21   0.130599 
22   0.126759 
23   0.138016 
24   0.399466 
 
>  <lowdin_charges> 
24 
1   -0.313769 
2   -0.351052 
3   -0.356944 
4   -0.181644 
5   -0.203713 
6   -0.202514 
7   0.124139 
8   -0.189073 
9   -0.187071 
10   -0.376187 
11   0.169181 
12   0.162135 
13   0.146025 
14   0.118573 
15   0.148992 
16   0.147766 
17   0.150066 
18   0.120092 
19   0.171268 
20   0.14798 
21   0.129555 
22   0.126488 
23   0.145986 
24   0.35372 
 
$$$$ 
 
