PCCDB-ID:  43111 
public computational chemistry database (PCCDB) project, http://pccdb.org 
 
 24 26  0  0  1  0  0  0  0  0999 V2000 
    1.7879    1.0291    0.2914 C   0  0  0  0  0  0  0  0  0  0  0  0 
    0.4801    1.5506    0.2702 C   0  0  0  0  0  0  0  0  0  0  0  0 
    0.9667   -1.2357   -0.0484 C   0  0  0  0  0  0  0  0  0  0  0  0 
    5.2695   -1.6478   -1.5816 C   0  0  0  0  0  0  0  0  0  0  0  0 
   -2.5260   -0.3824   -0.1509 C   0  0  0  0  0  0  0  0  0  0  0  0 
    2.0393   -0.3327    0.1305 C   0  0  0  0  0  0  0  0  0  0  0  0 
   -0.5492    0.6519    0.0850 C   0  0  0  0  0  0  0  0  0  0  0  0 
   -0.3082   -0.7117   -0.0677 C   0  0  0  0  0  0  0  0  0  0  0  0 
    3.8612   -1.4461   -1.2249 C   0  0  1  0  0  0  0  0  0  0  0  0 
    3.4685   -0.8758    0.1436 C   0  0  1  0  0  0  0  0  0  0  0  0 
    4.4288    0.0874    0.5335 O   0  0  0  0  0  0  0  0  0  0  0  0 
    4.5377   -0.5044   -2.0754 O   0  0  0  0  0  0  0  0  0  0  0  0 
   -1.9021    0.8933    0.0302 O   0  0  0  0  0  0  0  0  0  0  0  0 
   -1.4995   -1.3801   -0.2224 O   0  0  0  0  0  0  0  0  0  0  0  0 
    2.6252    1.6963    0.4598 H   0  0  0  0  0  0  0  0  0  0  0  0 
    0.2885    2.6105    0.3987 H   0  0  0  0  0  0  0  0  0  0  0  0 
    1.1278   -2.3048   -0.1548 H   0  0  0  0  0  0  0  0  0  0  0  0 
    5.5367   -2.3809   -2.3415 H   0  0  0  0  0  0  0  0  0  0  0  0 
    6.0409   -1.4145   -0.8505 H   0  0  0  0  0  0  0  0  0  0  0  0 
   -3.0976   -0.3804   -1.0868 H   0  0  0  0  0  0  0  0  0  0  0  0 
   -3.1810   -0.5940    0.7033 H   0  0  0  0  0  0  0  0  0  0  0  0 
    3.1010   -2.0391   -1.7330 H   0  0  0  0  0  0  0  0  0  0  0  0 
    3.5269   -1.6889    0.8805 H   0  0  0  0  0  0  0  0  0  0  0  0 
    4.6687    0.5537   -0.2906 H   0  0  0  0  0  0  0  0  0  0  0  0 
  1 15  1  0  0  0  0 
  2  1  1  0  0  0  0 
  2 16  1  0  0  0  0 
  3  6  1  0  0  0  0 
  4  9  1  0  0  0  0 
  4 19  1  0  0  0  0 
  5 13  1  0  0  0  0 
  5 21  1  0  0  0  0 
  6 10  1  0  0  0  0 
  6  1  2  0  0  0  0 
  7  2  2  0  0  0  0 
  8  3  2  0  0  0  0 
  8  7  1  0  0  0  0 
  9 22  1  6  0  0  0 
  9 10  1  0  0  0  0 
 10 11  1  0  0  0  0 
 10 23  1  1  0  0  0 
 12  4  1  0  0  0  0 
 12  9  1  0  0  0  0 
 13  7  1  0  0  0  0 
 14  5  1  0  0  0  0 
 14  8  1  0  0  0  0 
 17  3  1  0  0  0  0 
 18  4  1  0  0  0  0 
 20  5  1  0  0  0  0 
 24 11  1  0  0  0  0 
M  END 
>  <HBA> 
4 
 
>  <HBD> 
1 
 
>  <TPSA> 
51.22 
 
>  <cid> 
43111 
 
>  <dipole> 
1.93 
 
>  <excitation_energy_1> 
4.703 
 
>  <excitation_energy_2> 
5.19 
 
>  <excitation_energy_3> 
5.302 
 
>  <excitation_energy_4> 
5.49 
 
>  <homo_energy> 
-5.562 
 
>  <homo_lumo_gap> 
5.513 
 
>  <logP> 
0.848 
 
>  <lumo_energy> 
-0.049 
 
>  <melting_point> 
73.53 
 
>  <molecular_refractivity> 
47.22 
 
>  <oscillator_strength_1> 
0.0991 
 
>  <oscillator_strength_2> 
0.0076 
 
>  <oscillator_strength_3> 
0.0355 
 
>  <oscillator_strength_4> 
0.0118 
 
>  <open_babel_can_smiles> 
O[C@@H](c1ccc2c(c1)OCO2)[C@@H]1CO1 
 
>  <mulliken_charges> 
24 
1   -0.194052 
2   -0.18392 
3   -0.237074 
4   -0.117632 
5   0.195393 
6   0.118724 
7   0.334205 
8   0.33282 
9   0.064574 
10   0.058882 
11   -0.637597 
12   -0.455364 
13   -0.53266 
14   -0.535742 
15   0.138522 
16   0.145031 
17   0.13445 
18   0.159196 
19   0.169693 
20   0.159926 
21   0.15912 
22   0.158176 
23   0.156126 
24   0.409203 
 
>  <lowdin_charges> 
24 
1   -0.170162 
2   -0.178356 
3   -0.196711 
4   -0.169107 
5   0.018186 
6   -0.028779 
7   0.071313 
8   0.07369 
9   -0.040657 
10   -0.006162 
11   -0.447862 
12   -0.291552 
13   -0.208472 
14   -0.207904 
15   0.167547 
16   0.168847 
17   0.162493 
18   0.160172 
19   0.16388 
20   0.148429 
21   0.14818 
22   0.159935 
23   0.155827 
24   0.347226 
 
$$$$ 
 
