PCCDB-ID:  7425 
public computational chemistry database (PCCDB) project, http://pccdb.org 
 
 16 16  0  0  0  0  0  0  0  0999 V2000 
   -0.6457    1.2503    0.0067 C   0  0  0  0  0  0  0  0  0  0  0  0 
   -0.6860   -1.1618    0.0283 C   0  0  0  0  0  0  0  0  0  0  0  0 
   -1.3673    0.0523    0.0125 C   0  0  0  0  0  0  0  0  0  0  0  0 
    0.7565    1.1584    0.0113 C   0  0  0  0  0  0  0  0  0  0  0  0 
    0.7164   -1.1169    0.0144 C   0  0  0  0  0  0  0  0  0  0  0  0 
   -2.8719    0.0139    0.0249 C   0  0  0  0  0  0  0  0  0  0  0  0 
    1.4206    0.0102    0.0034 N   0  0  0  0  0  0  0  0  0  0  0  0 
    1.5496    2.2572    0.0265 O   0  0  0  0  0  0  0  0  0  0  0  0 
    1.4701   -2.2410    0.0110 O   0  0  0  0  0  0  0  0  0  0  0  0 
   -3.5051   -0.9076    0.4773 O   0  0  0  0  0  0  0  0  0  0  0  0 
   -3.5052    1.0904   -0.5095 O   0  0  0  0  0  0  0  0  0  0  0  0 
   -1.1376    2.2179    0.0619 H   0  0  0  0  0  0  0  0  0  0  0  0 
   -1.2418   -2.0930    0.0541 H   0  0  0  0  0  0  0  0  0  0  0  0 
    0.9958    3.0532    0.0466 H   0  0  0  0  0  0  0  0  0  0  0  0 
    0.8852   -3.0150    0.0294 H   0  0  0  0  0  0  0  0  0  0  0  0 
   -2.8635    1.6573   -0.9685 H   0  0  0  0  0  0  0  0  0  0  0  0 
  1  4  1  0  0  0  0 
  1  3  1  0  0  0  0 
  1 12  1  0  0  0  0 
  2 13  1  0  0  0  0 
  3  6  1  0  0  0  0 
  3  2  2  0  0  0  0 
  4  8  1  0  0  0  0 
  5  2  1  0  0  0  0 
  6 10  2  0  0  0  0 
  7  4  2  0  0  0  0 
  7  5  2  0  0  0  0 
  8 14  1  0  0  0  0 
  9  5  1  0  0  0  0 
  9 15  1  0  0  0  0 
 11  6  1  0  0  0  0 
 16 11  1  0  0  0  0 
M  RAD  1   1   2 
M  END 
>  <HBA> 
4 
 
>  <HBD> 
3 
 
>  <TPSA> 
90.39 
 
>  <cid> 
7425 
 
>  <dipole> 
2.31 
 
>  <excitation_energy_1> 
4.231 
 
>  <excitation_energy_2> 
4.653 
 
>  <excitation_energy_3> 
4.924 
 
>  <excitation_energy_4> 
5.341 
 
>  <homo_energy> 
-6.689 
 
>  <homo_lumo_gap> 
4.857 
 
>  <logP> 
-0.221 
 
>  <lumo_energy> 
-1.831 
 
>  <melting_point> 
218.34 
 
>  <molecular_refractivity> 
36.05 
 
>  <oscillator_strength_1> 
0.0716 
 
>  <oscillator_strength_2> 
0.0058 
 
>  <oscillator_strength_3> 
0.002 
 
>  <oscillator_strength_4> 
0.0049 
 
>  <open_babel_can_smiles> 
OC1=[N]=C(O)C=C([CH]1)C(=O)O 
 
>  <mulliken_charges> 
16 
1   -0.294035 
2   -0.247144 
3   0.085683 
4   0.512484 
5   0.511802 
6   0.555058 
7   -0.479189 
8   -0.591356 
9   -0.591389 
10   -0.433476 
11   -0.567277 
12   0.131646 
13   0.163435 
14   0.412794 
15   0.417197 
16   0.413767 
 
>  <lowdin_charges> 
16 
1   -0.268481 
2   -0.228187 
3   -0.014432 
4   0.152011 
5   0.151493 
6   0.198521 
7   -0.155188 
8   -0.343388 
9   -0.341164 
10   -0.227118 
11   -0.350156 
12   0.158557 
13   0.179757 
14   0.361714 
15   0.364903 
16   0.361157 
 
$$$$ 
 
