PCCDB-ID:  29339 
public computational chemistry database (PCCDB) project, http://pccdb.org 
 
 15 14  0  0  1  0  0  0  0  0999 V2000 
    2.7876    0.3175    1.3700 C   0  0  0  0  0  0  0  0  0  0  0  0 
    2.4779   -1.8570   -1.9065 C   0  0  0  0  0  0  0  0  0  0  0  0 
    2.3996   -0.0842   -0.0551 C   0  0  0  0  0  0  0  0  0  0  0  0 
    4.4457   -1.4358   -0.4672 C   0  0  0  0  0  0  0  0  0  0  0  0 
    2.9737   -1.4496   -0.5045 C   0  0  2  0  0  0  0  0  0  0  0  0 
    5.6066   -1.4126   -0.4467 N   0  0  0  0  0  0  0  0  0  0  0  0 
    2.3443    1.2836    1.6333 H   0  0  0  0  0  0  0  0  0  0  0  0 
    3.8741    0.4056    1.4768 H   0  0  0  0  0  0  0  0  0  0  0  0 
    2.4364   -0.4212    2.1007 H   0  0  0  0  0  0  0  0  0  0  0  0 
    1.3853   -1.9284   -1.9039 H   0  0  0  0  0  0  0  0  0  0  0  0 
    2.8872   -2.8258   -2.2074 H   0  0  0  0  0  0  0  0  0  0  0  0 
    2.7731   -1.1136   -2.6541 H   0  0  0  0  0  0  0  0  0  0  0  0 
    2.7269    0.6847   -0.7664 H   0  0  0  0  0  0  0  0  0  0  0  0 
    1.3075   -0.1490   -0.1424 H   0  0  0  0  0  0  0  0  0  0  0  0 
    2.6480   -2.2122    0.2174 H   0  0  0  0  0  0  0  0  0  0  0  0 
  1  8  1  0  0  0  0 
  1  7  1  0  0  0  0 
  1  9  1  0  0  0  0 
  2 10  1  0  0  0  0 
  2  5  1  0  0  0  0 
  3  1  1  0  0  0  0 
  4  6  3  0  0  0  0 
  5  4  1  0  0  0  0 
  5  3  1  0  0  0  0 
  5 15  1  1  0  0  0 
 11  2  1  0  0  0  0 
 12  2  1  0  0  0  0 
 13  3  1  0  0  0  0 
 14  3  1  0  0  0  0 
M  END 
>  <HBA> 
1 
 
>  <HBD> 
0 
 
>  <TPSA> 
23.79 
 
>  <cid> 
29339 
 
>  <dipole> 
3.9 
 
>  <excitation_energy_1> 
7.486 
 
>  <excitation_energy_2> 
7.691 
 
>  <excitation_energy_3> 
7.733 
 
>  <excitation_energy_4> 
8.118 
 
>  <homo_energy> 
-8.588 
 
>  <homo_lumo_gap> 
9.543 
 
>  <logP> 
1.556 
 
>  <lumo_energy> 
0.955 
 
>  <melting_point> 
8.0 
 
>  <molecular_refractivity> 
25.9 
 
>  <oscillator_strength_1> 
0.0036 
 
>  <oscillator_strength_2> 
0.0049 
 
>  <oscillator_strength_3> 
0.0148 
 
>  <oscillator_strength_4> 
0.0348 
 
>  <open_babel_can_smiles> 
C[C@@H](C#N)CC 
 
>  <mulliken_charges> 
15 
1   -0.456676 
2   -0.445657 
3   -0.249756 
4   0.352267 
5   -0.162238 
6   -0.479603 
7   0.153014 
8   0.173339 
9   0.146397 
10   0.157059 
11   0.168603 
12   0.166277 
13   0.153185 
14   0.145463 
15   0.178326 
 
>  <lowdin_charges> 
15 
1   -0.447301 
2   -0.431793 
3   -0.263045 
4   -0.019352 
5   -0.124767 
6   -0.134915 
7   0.156699 
8   0.160704 
9   0.15072 
10   0.155535 
11   0.163781 
12   0.162008 
13   0.153097 
14   0.147037 
15   0.171592 
 
$$$$ 
 
