PCCDB-ID:  29381 
public computational chemistry database (PCCDB) project, http://pccdb.org 
 
 34 33  0  0  1  0  0  0  0  0999 V2000 
    7.6186   -3.7252   -7.7472 C   0  0  0  0  0  0  0  0  0  0  0  0 
    9.5410   -3.8558   -0.3390 C   0  0  0  0  0  0  0  0  0  0  0  0 
    6.9963   -2.8296   -6.6708 C   0  0  0  0  0  0  0  0  0  0  0  0 
    7.8954   -2.6604   -5.4374 C   0  0  0  0  0  0  0  0  0  0  0  0 
    7.3004   -1.7539   -4.3422 C   0  0  0  0  0  0  0  0  0  0  0  0 
    6.1086   -2.3351   -3.5458 C   0  0  0  0  0  0  0  0  0  0  0  0 
    6.4661   -3.0708   -2.2407 C   0  0  0  0  0  0  0  0  0  0  0  0 
    7.2948   -4.3529   -2.4123 C   0  0  0  0  0  0  0  0  0  0  0  0 
    7.4689   -5.2094   -1.1434 C   0  0  0  0  0  0  0  0  0  0  0  0 
    7.3593   -3.6887    0.9187 C   0  0  0  0  0  0  0  0  0  0  0  0 
    8.2322   -4.5701    0.0368 C   0  0  2  0  0  0  0  0  0  0  0  0 
    6.1486   -3.7073    0.9549 O   0  0  0  0  0  0  0  0  0  0  0  0 
    6.9621   -3.8185   -8.6200 H   0  0  0  0  0  0  0  0  0  0  0  0 
    7.8062   -4.7354   -7.3627 H   0  0  0  0  0  0  0  0  0  0  0  0 
    8.5781   -3.3214   -8.0936 H   0  0  0  0  0  0  0  0  0  0  0  0 
   10.2123   -4.5357   -0.8739 H   0  0  0  0  0  0  0  0  0  0  0  0 
   10.0678   -3.5042    0.5561 H   0  0  0  0  0  0  0  0  0  0  0  0 
    9.3633   -2.9871   -0.9818 H   0  0  0  0  0  0  0  0  0  0  0  0 
    6.0250   -3.2470   -6.3727 H   0  0  0  0  0  0  0  0  0  0  0  0 
    6.7823   -1.8386   -7.0965 H   0  0  0  0  0  0  0  0  0  0  0  0 
    8.8550   -2.2335   -5.7640 H   0  0  0  0  0  0  0  0  0  0  0  0 
    8.1308   -3.6506   -5.0256 H   0  0  0  0  0  0  0  0  0  0  0  0 
    6.9865   -0.8157   -4.8210 H   0  0  0  0  0  0  0  0  0  0  0  0 
    8.0945   -1.4722   -3.6354 H   0  0  0  0  0  0  0  0  0  0  0  0 
    5.5184   -3.0032   -4.1888 H   0  0  0  0  0  0  0  0  0  0  0  0 
    5.4323   -1.5128   -3.2782 H   0  0  0  0  0  0  0  0  0  0  0  0 
    5.5375   -3.3186   -1.7116 H   0  0  0  0  0  0  0  0  0  0  0  0 
    6.9994   -2.3687   -1.5831 H   0  0  0  0  0  0  0  0  0  0  0  0 
    8.2819   -4.1065   -2.8240 H   0  0  0  0  0  0  0  0  0  0  0  0 
    6.8086   -4.9875   -3.1671 H   0  0  0  0  0  0  0  0  0  0  0  0 
    8.0014   -6.1268   -1.4268 H   0  0  0  0  0  0  0  0  0  0  0  0 
    6.4835   -5.5183   -0.7755 H   0  0  0  0  0  0  0  0  0  0  0  0 
    7.9292   -3.0182    1.6053 H   0  0  0  0  0  0  0  0  0  0  0  0 
    8.5090   -5.3927    0.7217 H   0  0  0  0  0  0  0  0  0  0  0  0 
  1 14  1  0  0  0  0 
  1  3  1  0  0  0  0 
  2 11  1  0  0  0  0 
  2 17  1  0  0  0  0 
  3 19  1  0  0  0  0 
  3  4  1  0  0  0  0 
  4 22  1  0  0  0  0 
  4  5  1  0  0  0  0 
  5 24  1  0  0  0  0 
  5  6  1  0  0  0  0 
  6 26  1  0  0  0  0 
  6  7  1  0  0  0  0 
  7 27  1  0  0  0  0 
  7 28  1  0  0  0  0 
  8  7  1  0  0  0  0 
  8  9  1  0  0  0  0 
  9 32  1  0  0  0  0 
  9 11  1  0  0  0  0 
 10 12  2  0  0  0  0 
 10 33  1  0  0  0  0 
 11 34  1  1  0  0  0 
 11 10  1  0  0  0  0 
 13  1  1  0  0  0  0 
 15  1  1  0  0  0  0 
 16  2  1  0  0  0  0 
 18  2  1  0  0  0  0 
 20  3  1  0  0  0  0 
 21  4  1  0  0  0  0 
 23  5  1  0  0  0  0 
 25  6  1  0  0  0  0 
 29  8  1  0  0  0  0 
 30  8  1  0  0  0  0 
 31  9  1  0  0  0  0 
M  END 
>  <HBA> 
1 
 
>  <HBD> 
0 
 
>  <TPSA> 
17.07 
 
>  <cid> 
29381 
 
>  <dipole> 
2.37 
 
>  <excitation_energy_1> 
4.211 
 
>  <excitation_energy_2> 
6.308 
 
>  <excitation_energy_3> 
6.528 
 
>  <excitation_energy_4> 
6.603 
 
>  <homo_energy> 
-6.781 
 
>  <homo_lumo_gap> 
6.182 
 
>  <logP> 
3.572 
 
>  <lumo_energy> 
-0.599 
 
>  <melting_point> 
1.84 
 
>  <molecular_refractivity> 
55.19 
 
>  <oscillator_strength_1> 
0.0 
 
>  <oscillator_strength_2> 
0.0155 
 
>  <oscillator_strength_3> 
0.0048 
 
>  <oscillator_strength_4> 
0.0074 
 
>  <open_babel_can_smiles> 
CCCCCCCC[C@H](C=O)C 
 
>  <mulliken_charges> 
34 
1   -0.441241 
2   -0.467016 
3   -0.248197 
4   -0.253098 
5   -0.258212 
6   -0.263693 
7   -0.258839 
8   -0.261187 
9   -0.268875 
10   0.260913 
11   -0.158609 
12   -0.393585 
13   0.141326 
14   0.140338 
15   0.140359 
16   0.156458 
17   0.14793 
18   0.162131 
19   0.134754 
20   0.129159 
21   0.124402 
22   0.132775 
23   0.128463 
24   0.123962 
25   0.132188 
26   0.131658 
27   0.151056 
28   0.121857 
29   0.136657 
30   0.131113 
31   0.128391 
32   0.157791 
33   0.099762 
34   0.15911 
 
>  <lowdin_charges> 
34 
1   -0.443762 
2   -0.449797 
3   -0.273924 
4   -0.279187 
5   -0.27989 
6   -0.282164 
7   -0.280488 
8   -0.280616 
9   -0.278221 
10   0.049125 
11   -0.163498 
12   -0.218904 
13   0.149332 
14   0.144814 
15   0.145448 
16   0.158953 
17   0.153107 
18   0.155274 
19   0.138934 
20   0.13747 
21   0.138562 
22   0.139183 
23   0.14102 
24   0.139122 
25   0.140671 
26   0.145581 
27   0.151816 
28   0.135194 
29   0.139069 
30   0.144294 
31   0.144535 
32   0.156441 
33   0.115922 
34   0.166583 
 
$$$$ 
 
