PCCDB-ID:  69100 
public computational chemistry database (PCCDB) project, http://pccdb.org 
 
 20 20  0  0  0  0  0  0  0  0999 V2000 
    0.9849    0.1768   -0.2289 C   0  0  0  0  0  0  0  0  0  0  0  0 
    2.5138   -2.5335   -0.2886 C   0  0  0  0  0  0  0  0  0  0  0  0 
    4.5949    1.2170    0.2664 C   0  0  0  0  0  0  0  0  0  0  0  0 
    5.2804    0.0008    0.2427 C   0  0  0  0  0  0  0  0  0  0  0  0 
    2.4817    0.0373   -0.0718 C   0  0  0  0  0  0  0  0  0  0  0  0 
    3.1717   -1.1863   -0.0977 C   0  0  0  0  0  0  0  0  0  0  0  0 
    3.2140    1.2295    0.1117 C   0  0  0  0  0  0  0  0  0  0  0  0 
    4.5735   -1.1821    0.0635 C   0  0  0  0  0  0  0  0  0  0  0  0 
    2.4858    2.3993    0.1271 O   0  0  0  0  0  0  0  0  0  0  0  0 
    5.1972   -2.4104    0.0321 O   0  0  0  0  0  0  0  0  0  0  0  0 
    0.4781   -0.7812   -0.3469 H   0  0  0  0  0  0  0  0  0  0  0  0 
    0.7433    0.7989   -1.0991 H   0  0  0  0  0  0  0  0  0  0  0  0 
    0.5519    0.6858    0.6402 H   0  0  0  0  0  0  0  0  0  0  0  0 
    1.4349   -2.4644   -0.4288 H   0  0  0  0  0  0  0  0  0  0  0  0 
    2.7039   -3.1828    0.5744 H   0  0  0  0  0  0  0  0  0  0  0  0 
    2.9373   -3.0493   -1.1584 H   0  0  0  0  0  0  0  0  0  0  0  0 
    5.1409    2.1483    0.4048 H   0  0  0  0  0  0  0  0  0  0  0  0 
    6.3620   -0.0182    0.3637 H   0  0  0  0  0  0  0  0  0  0  0  0 
    3.0956    3.1389    0.2703 H   0  0  0  0  0  0  0  0  0  0  0  0 
    6.1491   -2.2746    0.1542 H   0  0  0  0  0  0  0  0  0  0  0  0 
  1  5  1  0  0  0  0 
  1 13  1  0  0  0  0 
  2  6  1  0  0  0  0 
  2 15  1  0  0  0  0 
  3 17  1  0  0  0  0 
  4  3  1  0  0  0  0 
  4 18  1  0  0  0  0 
  5  7  1  0  0  0  0 
  6  5  2  0  0  0  0 
  6  8  1  0  0  0  0 
  7  9  1  0  0  0  0 
  7  3  2  0  0  0  0 
  8  4  2  0  0  0  0 
  9 19  1  0  0  0  0 
 10  8  1  0  0  0  0 
 10 20  1  0  0  0  0 
 11  1  1  0  0  0  0 
 12  1  1  0  0  0  0 
 14  2  1  0  0  0  0 
 16  2  1  0  0  0  0 
M  END 
>  <HBA> 
2 
 
>  <HBD> 
2 
 
>  <TPSA> 
40.46 
 
>  <cid> 
69100 
 
>  <dipole> 
2.21 
 
>  <excitation_energy_1> 
4.589 
 
>  <excitation_energy_2> 
4.672 
 
>  <excitation_energy_3> 
4.721 
 
>  <excitation_energy_4> 
5.206 
 
>  <homo_energy> 
-5.225 
 
>  <homo_lumo_gap> 
5.44 
 
>  <logP> 
1.715 
 
>  <lumo_energy> 
0.215 
 
>  <melting_point> 
93.94 
 
>  <molecular_refractivity> 
40.42 
 
>  <oscillator_strength_1> 
0.0001 
 
>  <oscillator_strength_2> 
0.0698 
 
>  <oscillator_strength_3> 
0.0003 
 
>  <oscillator_strength_4> 
0.0 
 
>  <open_babel_can_smiles> 
Cc1c(O)ccc(c1C)O 
 
>  <mulliken_charges> 
20 
1   -0.518298 
2   -0.518393 
3   -0.200847 
4   -0.200923 
5   0.067505 
6   0.067604 
7   0.301564 
8   0.301501 
9   -0.652076 
10   -0.651986 
11   0.149761 
12   0.166905 
13   0.167415 
14   0.149761 
15   0.166831 
16   0.1675 
17   0.114094 
18   0.114097 
19   0.403989 
20   0.403996 
 
>  <lowdin_charges> 
20 
1   -0.441826 
2   -0.439919 
3   -0.210898 
4   -0.207789 
5   -0.027366 
6   -0.027475 
7   0.078975 
8   0.078069 
9   -0.391791 
10   -0.388793 
11   0.154453 
12   0.164748 
13   0.165324 
14   0.152713 
15   0.164728 
16   0.165309 
17   0.152027 
18   0.149832 
19   0.356174 
20   0.353506 
 
$$$$ 
 
