PCCDB-ID:  65428 
public computational chemistry database (PCCDB) project, http://pccdb.org 
 
 39 40  0  0  1  0  0  0  0  0999 V2000 
    0.9864    0.0401    0.2317 C   0  0  0  0  0  0  0  0  0  0  0  0 
    5.2598    0.4398    3.0815 C   0  0  0  0  0  0  0  0  0  0  0  0 
    5.8714    1.0266    0.7725 C   0  0  0  0  0  0  0  0  0  0  0  0 
    3.4107   -2.1878    3.2941 C   0  0  0  0  0  0  0  0  0  0  0  0 
    6.5842   -2.3692    2.5784 C   0  0  0  0  0  0  0  0  0  0  0  0 
    3.0197   -1.0281   -0.9381 C   0  0  0  0  0  0  0  0  0  0  0  0 
    6.8039   -1.0880    1.7647 C   0  0  0  0  0  0  0  0  0  0  0  0 
    5.3975   -3.1650    2.0238 C   0  0  0  0  0  0  0  0  0  0  0  0 
    4.4253   -1.3209   -0.3942 C   0  0  0  0  0  0  0  0  0  0  0  0 
    2.4919    0.0511    0.0112 C   0  0  2  0  0  0  0  0  0  0  0  0 
    5.5547   -0.1768    1.6917 C   0  0  0  0  0  0  0  0  0  0  0  0 
    4.0832   -2.3583    1.9233 C   0  0  2  0  0  0  0  0  0  0  0  0 
    4.3216   -1.0074    1.1354 C   0  0  2  0  0  0  0  0  0  0  0  0 
    3.1601   -3.1120    1.1046 O   0  0  0  0  0  0  0  0  0  0  0  0 
    3.1440   -0.1901    1.2683 O   0  0  0  0  0  0  0  0  0  0  0  0 
    0.4580    0.2502   -0.7058 H   0  0  0  0  0  0  0  0  0  0  0  0 
    0.6945    0.7973    0.9673 H   0  0  0  0  0  0  0  0  0  0  0  0 
    0.6729   -0.9424    0.6004 H   0  0  0  0  0  0  0  0  0  0  0  0 
    6.0497    1.1560    3.3367 H   0  0  0  0  0  0  0  0  0  0  0  0 
    5.2262   -0.2917    3.8891 H   0  0  0  0  0  0  0  0  0  0  0  0 
    4.3059    0.9729    3.0689 H   0  0  0  0  0  0  0  0  0  0  0  0 
    6.6270    1.6621    1.2486 H   0  0  0  0  0  0  0  0  0  0  0  0 
    4.9811    1.6418    0.6034 H   0  0  0  0  0  0  0  0  0  0  0  0 
    6.2775    0.7336   -0.1999 H   0  0  0  0  0  0  0  0  0  0  0  0 
    4.0852   -1.8265    4.0714 H   0  0  0  0  0  0  0  0  0  0  0  0 
    3.0420   -3.1672    3.6294 H   0  0  0  0  0  0  0  0  0  0  0  0 
    2.5619   -1.5056    3.2163 H   0  0  0  0  0  0  0  0  0  0  0  0 
    6.4222   -2.1280    3.6366 H   0  0  0  0  0  0  0  0  0  0  0  0 
    7.4890   -2.9894    2.5464 H   0  0  0  0  0  0  0  0  0  0  0  0 
    2.3990   -1.9242   -0.8669 H   0  0  0  0  0  0  0  0  0  0  0  0 
    3.0283   -0.6886   -1.9797 H   0  0  0  0  0  0  0  0  0  0  0  0 
    7.1035   -1.3671    0.7437 H   0  0  0  0  0  0  0  0  0  0  0  0 
    7.6424   -0.5116    2.1791 H   0  0  0  0  0  0  0  0  0  0  0  0 
    5.2157   -4.0620    2.6339 H   0  0  0  0  0  0  0  0  0  0  0  0 
    5.6467   -3.5236    1.0175 H   0  0  0  0  0  0  0  0  0  0  0  0 
    5.1623   -0.6813   -0.8803 H   0  0  0  0  0  0  0  0  0  0  0  0 
    4.7122   -2.3554   -0.5832 H   0  0  0  0  0  0  0  0  0  0  0  0 
    2.7997    1.0464   -0.3511 H   0  0  0  0  0  0  0  0  0  0  0  0 
    2.9307   -3.9106    1.6048 H   0  0  0  0  0  0  0  0  0  0  0  0 
  1 18  1  0  0  0  0 
  1 17  1  0  0  0  0 
  2 19  1  0  0  0  0 
  2 20  1  0  0  0  0 
  3 22  1  0  0  0  0 
  3 11  1  0  0  0  0 
  4 26  1  0  0  0  0 
  4 25  1  0  0  0  0 
  5 28  1  0  0  0  0 
  6 30  1  0  0  0  0 
  6  9  1  0  0  0  0 
  6 10  1  0  0  0  0 
  7 33  1  0  0  0  0 
  7  5  1  0  0  0  0 
  8  5  1  0  0  0  0 
  8 34  1  0  0  0  0 
  9 13  1  0  0  0  0 
 10 38  1  6  0  0  0 
 10  1  1  0  0  0  0 
 10 15  1  0  0  0  0 
 11  7  1  0  0  0  0 
 11  2  1  0  0  0  0 
 12 14  1  6  0  0  0 
 12  8  1  0  0  0  0 
 12  4  1  0  0  0  0 
 13 15  1  1  0  0  0 
 13 11  1  0  0  0  0 
 13 12  1  0  0  0  0 
 14 39  1  0  0  0  0 
 16  1  1  0  0  0  0 
 21  2  1  0  0  0  0 
 23  3  1  0  0  0  0 
 24  3  1  0  0  0  0 
 27  4  1  0  0  0  0 
 29  5  1  0  0  0  0 
 31  6  1  0  0  0  0 
 32  7  1  0  0  0  0 
 35  8  1  0  0  0  0 
 36  9  1  0  0  0  0 
 37  9  1  0  0  0  0 
M  END 
>  <HBA> 
2 
 
>  <HBD> 
1 
 
>  <TPSA> 
29.46 
 
>  <cid> 
65428 
 
>  <dipole> 
1.24 
 
>  <excitation_energy_1> 
5.87 
 
>  <excitation_energy_2> 
6.117 
 
>  <excitation_energy_3> 
6.296 
 
>  <excitation_energy_4> 
6.33 
 
>  <homo_energy> 
-6.324 
 
>  <homo_lumo_gap> 
8.215 
 
>  <logP> 
2.885 
 
>  <lumo_energy> 
1.891 
 
>  <melting_point> 
64.35 
 
>  <molecular_refractivity> 
62.44 
 
>  <oscillator_strength_1> 
0.0219 
 
>  <oscillator_strength_2> 
0.0024 
 
>  <oscillator_strength_3> 
0.0119 
 
>  <oscillator_strength_4> 
0.01 
 
>  <open_babel_can_smiles> 
C[C@@H]1CC[C@]2(O1)C(C)(C)CCC[C@]2(C)O 
 
>  <mulliken_charges> 
39 
1   -0.456722 
2   -0.462629 
3   -0.470926 
4   -0.471699 
5   -0.271727 
6   -0.294202 
7   -0.267082 
8   -0.284963 
9   -0.327989 
10   0.17881 
11   0.078613 
12   0.298549 
13   0.332748 
14   -0.65298 
15   -0.546517 
16   0.136227 
17   0.148725 
18   0.156062 
19   0.130549 
20   0.137655 
21   0.167951 
22   0.13758 
23   0.157004 
24   0.14023 
25   0.145227 
26   0.114988 
27   0.181296 
28   0.134691 
29   0.133207 
30   0.165305 
31   0.128411 
32   0.128731 
33   0.127822 
34   0.116707 
35   0.14183 
36   0.136015 
37   0.159479 
38   0.108116 
39   0.384905 
 
>  <lowdin_charges> 
39 
1   -0.451306 
2   -0.453093 
3   -0.447742 
4   -0.460842 
5   -0.279521 
6   -0.291458 
7   -0.278466 
8   -0.293663 
9   -0.296321 
10   0.010658 
11   0.002851 
12   0.111144 
13   0.116038 
14   -0.459788 
15   -0.273909 
16   0.15018 
17   0.154673 
18   0.155726 
19   0.145107 
20   0.145412 
21   0.162338 
22   0.149134 
23   0.155782 
24   0.144067 
25   0.15241 
26   0.137934 
27   0.170053 
28   0.138579 
29   0.147046 
30   0.159161 
31   0.143746 
32   0.138685 
33   0.144517 
34   0.138484 
35   0.146239 
36   0.148963 
37   0.15831 
38   0.120228 
39   0.338643 
 
$$$$ 
 
