PCCDB-ID:  40450 
public computational chemistry database (PCCDB) project, http://pccdb.org 
 
 35 34  0  0  0  0  0  0  0  0999 V2000 
    5.4349   -1.1726    1.7399 C   0  0  0  0  0  0  0  0  0  0  0  0 
    5.1994   -7.6651    1.3298 C   0  0  0  0  0  0  0  0  0  0  0  0 
    0.8271   -6.1180    0.2325 C   0  0  0  0  0  0  0  0  0  0  0  0 
    0.5980   -5.5913   -2.2123 C   0  0  0  0  0  0  0  0  0  0  0  0 
    3.2612   -4.1126    0.2665 C   0  0  0  0  0  0  0  0  0  0  0  0 
    3.0391   -7.7091   -0.7562 C   0  0  0  0  0  0  0  0  0  0  0  0 
    3.7984   -2.6897    0.4223 C   0  0  0  0  0  0  0  0  0  0  0  0 
    3.3635   -8.8053   -0.1039 C   0  0  0  0  0  0  0  0  0  0  0  0 
    2.1852   -4.2296   -0.8188 C   0  0  0  0  0  0  0  0  0  0  0  0 
    2.7052   -6.6196   -1.3961 C   0  0  0  0  0  0  0  0  0  0  0  0 
    4.8863   -2.5675    1.4863 C   0  0  0  0  0  0  0  0  0  0  0  0 
    4.3652   -8.8895    1.0022 C   0  0  0  0  0  0  0  0  0  0  0  0 
    1.5832   -5.6502   -1.0222 C   0  0  0  0  0  0  0  0  0  0  0  0 
    5.2925   -3.5351    2.1025 O   0  0  0  0  0  0  0  0  0  0  0  0 
    4.5008   -9.9431    1.6043 O   0  0  0  0  0  0  0  0  0  0  0  0 
    5.8128   -0.7290    0.8105 H   0  0  0  0  0  0  0  0  0  0  0  0 
    6.2347   -1.2163    2.4816 H   0  0  0  0  0  0  0  0  0  0  0  0 
    4.6358   -0.5137    2.1033 H   0  0  0  0  0  0  0  0  0  0  0  0 
    4.5751   -6.7920    1.5473 H   0  0  0  0  0  0  0  0  0  0  0  0 
    5.8298   -7.4002    0.4721 H   0  0  0  0  0  0  0  0  0  0  0  0 
    5.8347   -7.8855    2.1895 H   0  0  0  0  0  0  0  0  0  0  0  0 
    0.0261   -5.4111    0.4785 H   0  0  0  0  0  0  0  0  0  0  0  0 
    1.4850   -6.2031    1.1025 H   0  0  0  0  0  0  0  0  0  0  0  0 
    0.3720   -7.1006    0.0684 H   0  0  0  0  0  0  0  0  0  0  0  0 
   -0.2000   -4.8664   -2.0102 H   0  0  0  0  0  0  0  0  0  0  0  0 
    0.1351   -6.5686   -2.3876 H   0  0  0  0  0  0  0  0  0  0  0  0 
    1.1048   -5.2862   -3.1357 H   0  0  0  0  0  0  0  0  0  0  0  0 
    2.8668   -4.4403    1.2349 H   0  0  0  0  0  0  0  0  0  0  0  0 
    4.0962   -4.7832    0.0385 H   0  0  0  0  0  0  0  0  0  0  0  0 
    2.9910   -1.9856    0.6757 H   0  0  0  0  0  0  0  0  0  0  0  0 
    4.2118   -2.3157   -0.5277 H   0  0  0  0  0  0  0  0  0  0  0  0 
    2.8777   -9.7530   -0.3351 H   0  0  0  0  0  0  0  0  0  0  0  0 
    2.6030   -3.8905   -1.7790 H   0  0  0  0  0  0  0  0  0  0  0  0 
    1.3547   -3.5455   -0.5905 H   0  0  0  0  0  0  0  0  0  0  0  0 
    3.2634   -6.3617   -2.2998 H   0  0  0  0  0  0  0  0  0  0  0  0 
  1 18  1  0  0  0  0 
  1 17  1  0  0  0  0 
  2 19  1  0  0  0  0 
  2 21  1  0  0  0  0 
  3 22  1  0  0  0  0 
  3 23  1  0  0  0  0 
  4 25  1  0  0  0  0 
  4 13  1  0  0  0  0 
  5  7  1  0  0  0  0 
  5 28  1  0  0  0  0 
  6  8  2  0  0  0  0 
  7 30  1  0  0  0  0 
  7 11  1  0  0  0  0 
  8 12  1  0  0  0  0 
  9 34  1  0  0  0  0 
  9  5  1  0  0  0  0 
 10 13  1  0  0  0  0 
 10  6  2  0  0  0  0 
 11  1  1  0  0  0  0 
 11 14  2  0  0  0  0 
 12  2  1  0  0  0  0 
 12 15  2  0  0  0  0 
 13  9  1  0  0  0  0 
 13  3  1  0  0  0  0 
 16  1  1  0  0  0  0 
 20  2  1  0  0  0  0 
 24  3  1  0  0  0  0 
 26  4  1  0  0  0  0 
 27  4  1  0  0  0  0 
 29  5  1  0  0  0  0 
 31  7  1  0  0  0  0 
 32  8  1  0  0  0  0 
 33  9  1  0  0  0  0 
 35 10  1  0  0  0  0 
M  END 
>  <HBA> 
2 
 
>  <HBD> 
0 
 
>  <TPSA> 
34.14 
 
>  <cid> 
40450 
 
>  <dipole> 
6.55 
 
>  <excitation_energy_1> 
3.746 
 
>  <excitation_energy_2> 
4.43 
 
>  <excitation_energy_3> 
4.906 
 
>  <excitation_energy_4> 
5.19 
 
>  <homo_energy> 
-6.354 
 
>  <homo_lumo_gap> 
5.225 
 
>  <logP> 
3.072 
 
>  <lumo_energy> 
-1.129 
 
>  <melting_point> 
40.71 
 
>  <molecular_refractivity> 
62.98 
 
>  <oscillator_strength_1> 
0.0001 
 
>  <oscillator_strength_2> 
0.0001 
 
>  <oscillator_strength_3> 
0.0002 
 
>  <oscillator_strength_4> 
0.0005 
 
>  <open_babel_can_smiles> 
CC(=O)CCCC(C=C=CC(=O)C)(C)C 
 
>  <mulliken_charges> 
35 
1   -0.528161 
2   -0.539701 
3   -0.464597 
4   -0.445544 
5   -0.259533 
6   0.350985 
7   -0.359658 
8   -0.406855 
9   -0.262031 
10   -0.33822 
11   0.454281 
12   0.466395 
13   0.083804 
14   -0.43583 
15   -0.456553 
16   0.166523 
17   0.181899 
18   0.169308 
19   0.185938 
20   0.167826 
21   0.178148 
22   0.140843 
23   0.157145 
24   0.153092 
25   0.144699 
26   0.15297 
27   0.140856 
28   0.152432 
29   0.160262 
30   0.155226 
31   0.155868 
32   0.167289 
33   0.124657 
34   0.129409 
35   0.156828 
 
>  <lowdin_charges> 
35 
1   -0.477354 
2   -0.474638 
3   -0.444114 
4   -0.438925 
5   -0.276944 
6   0.003869 
7   -0.313181 
8   -0.223195 
9   -0.27417 
10   -0.180908 
11   0.168846 
12   0.166693 
13   0.02463 
14   -0.236228 
15   -0.242785 
16   0.168617 
17   0.174521 
18   0.171193 
19   0.177249 
20   0.171272 
21   0.174071 
22   0.151076 
23   0.15587 
24   0.155886 
25   0.151214 
26   0.154451 
27   0.148183 
28   0.151684 
29   0.15606 
30   0.15936 
31   0.159423 
32   0.18336 
33   0.138408 
34   0.142096 
35   0.174409 
 
$$$$ 
 
