PCCDB-ID:  41570 
public computational chemistry database (PCCDB) project, http://pccdb.org 
 
 30 30  0  0  0  0  0  0  0  0999 V2000 
    4.3503    1.8220   -0.0242 C   0  0  0  0  0  0  0  0  0  0  0  0 
    5.0421   -0.4817   -0.8214 C   0  0  0  0  0  0  0  0  0  0  0  0 
   -0.7416   -6.2735    2.9694 C   0  0  0  0  0  0  0  0  0  0  0  0 
    3.2056   -5.1765    0.3493 C   0  0  0  0  0  0  0  0  0  0  0  0 
    3.5540   -0.2203    1.2235 C   0  0  0  0  0  0  0  0  0  0  0  0 
    0.9471   -4.2782    3.1806 C   0  0  0  0  0  0  0  0  0  0  0  0 
    3.9365    0.3498   -0.1552 C   0  0  0  0  0  0  0  0  0  0  0  0 
    0.4359   -5.4211    2.6511 C   0  0  0  0  0  0  0  0  0  0  0  0 
    2.2472   -4.9383    1.4594 C   0  0  0  0  0  0  0  0  0  0  0  0 
    2.1232   -3.9620    2.4116 C   0  0  0  0  0  0  0  0  0  0  0  0 
    2.8813   -1.5839    1.1568 C   0  0  0  0  0  0  0  0  0  0  0  0 
    2.2095   -1.9748    0.2337 O   0  0  0  0  0  0  0  0  0  0  0  0 
    1.2204   -5.8275    1.5957 O   0  0  0  0  0  0  0  0  0  0  0  0 
    3.1933   -2.5820    2.6583 S   0  0  0  0  0  0  0  0  0  0  0  0 
    4.5926    2.2476   -1.0047 H   0  0  0  0  0  0  0  0  0  0  0  0 
    5.2389    1.9290    0.6117 H   0  0  0  0  0  0  0  0  0  0  0  0 
    3.5497    2.4284    0.4160 H   0  0  0  0  0  0  0  0  0  0  0  0 
    5.2937   -0.0744   -1.8074 H   0  0  0  0  0  0  0  0  0  0  0  0 
    4.7297   -1.5218   -0.9609 H   0  0  0  0  0  0  0  0  0  0  0  0 
    5.9581   -0.4772   -0.2161 H   0  0  0  0  0  0  0  0  0  0  0  0 
   -1.2819   -5.8558    3.8236 H   0  0  0  0  0  0  0  0  0  0  0  0 
   -0.4411   -7.2979    3.2228 H   0  0  0  0  0  0  0  0  0  0  0  0 
   -1.4359   -6.3345    2.1221 H   0  0  0  0  0  0  0  0  0  0  0  0 
    4.1053   -4.5743    0.5007 H   0  0  0  0  0  0  0  0  0  0  0  0 
    2.7722   -4.8958   -0.6184 H   0  0  0  0  0  0  0  0  0  0  0  0 
    3.4928   -6.2327    0.3009 H   0  0  0  0  0  0  0  0  0  0  0  0 
    2.8332    0.4474    1.7184 H   0  0  0  0  0  0  0  0  0  0  0  0 
    4.4283   -0.2702    1.8860 H   0  0  0  0  0  0  0  0  0  0  0  0 
    0.5522   -3.7169    4.0158 H   0  0  0  0  0  0  0  0  0  0  0  0 
    3.0407    0.2920   -0.7859 H   0  0  0  0  0  0  0  0  0  0  0  0 
  1 17  1  0  0  0  0 
  1 16  1  0  0  0  0 
  2 20  1  0  0  0  0 
  2  7  1  0  0  0  0 
  3 22  1  0  0  0  0 
  3 21  1  0  0  0  0 
  4 24  1  0  0  0  0 
  4  9  1  0  0  0  0 
  5 27  1  0  0  0  0 
  5 28  1  0  0  0  0 
  6 29  1  0  0  0  0 
  7  1  1  0  0  0  0 
  7  5  1  0  0  0  0 
  8  3  1  0  0  0  0 
  8  6  2  0  0  0  0 
  9 13  1  0  0  0  0 
  9 10  2  0  0  0  0 
 10 14  1  0  0  0  0 
 10  6  1  0  0  0  0 
 11  5  1  0  0  0  0 
 11 14  1  0  0  0  0 
 12 11  2  0  0  0  0 
 13  8  1  0  0  0  0 
 15  1  1  0  0  0  0 
 18  2  1  0  0  0  0 
 19  2  1  0  0  0  0 
 23  3  1  0  0  0  0 
 25  4  1  0  0  0  0 
 26  4  1  0  0  0  0 
 30  7  1  0  0  0  0 
M  END 
>  <HBA> 
3 
 
>  <HBD> 
0 
 
>  <TPSA> 
55.51 
 
>  <cid> 
41570 
 
>  <dipole> 
0.66 
 
>  <excitation_energy_1> 
4.339 
 
>  <excitation_energy_2> 
4.753 
 
>  <excitation_energy_3> 
5.189 
 
>  <excitation_energy_4> 
5.338 
 
>  <homo_energy> 
-5.701 
 
>  <homo_lumo_gap> 
5.304 
 
>  <logP> 
3.561 
 
>  <lumo_energy> 
-0.397 
 
>  <melting_point> 
43.77 
 
>  <molecular_refractivity> 
59.79 
 
>  <oscillator_strength_1> 
0.0102 
 
>  <oscillator_strength_2> 
0.001 
 
>  <oscillator_strength_3> 
0.0148 
 
>  <oscillator_strength_4> 
0.0392 
 
>  <open_babel_can_smiles> 
CC(CC(=O)Sc1cc(oc1C)C)C 
 
>  <mulliken_charges> 
30 
1   -0.44634 
2   -0.451627 
3   -0.529677 
4   -0.531036 
5   -0.343828 
6   -0.21505 
7   -0.067378 
8   0.355919 
9   0.365625 
10   -0.167565 
11   0.27404 
12   -0.415301 
13   -0.464814 
14   0.089304 
15   0.147336 
16   0.140881 
17   0.142208 
18   0.145643 
19   0.158505 
20   0.138149 
21   0.166599 
22   0.170243 
23   0.172459 
24   0.176493 
25   0.185477 
26   0.166007 
27   0.178697 
28   0.16233 
29   0.143584 
30   0.153119 
 
>  <lowdin_charges> 
30 
1   -0.445114 
2   -0.445804 
3   -0.440454 
4   -0.440366 
5   -0.304777 
6   -0.216777 
7   -0.117074 
8   0.07053 
9   0.087808 
10   -0.19563 
11   0.049034 
12   -0.224676 
13   -0.105998 
14   0.149471 
15   0.15203 
16   0.146656 
17   0.149621 
18   0.151454 
19   0.154797 
20   0.145057 
21   0.169572 
22   0.165277 
23   0.167646 
24   0.174287 
25   0.17416 
26   0.165126 
27   0.176223 
28   0.163288 
29   0.17227 
30   0.152362 
 
$$$$ 
 
