PCCDB-ID:  26454 
public computational chemistry database (PCCDB) project, http://pccdb.org 
 
 27 26  0  0  0  0  0  0  0  0999 V2000 
    4.7177   -1.3140    3.8827 C   0  0  0  0  0  0  0  0  0  0  0  0 
    1.6804   -4.6952   -3.2844 C   0  0  0  0  0  0  0  0  0  0  0  0 
    4.4767   -2.4964    2.9393 C   0  0  0  0  0  0  0  0  0  0  0  0 
    2.0859   -3.2493   -2.9838 C   0  0  0  0  0  0  0  0  0  0  0  0 
    3.3084   -2.2719    1.9476 C   0  0  0  0  0  0  0  0  0  0  0  0 
    3.0741   -3.1443   -1.8213 C   0  0  0  0  0  0  0  0  0  0  0  0 
    4.4382   -1.5254   -0.2922 C   0  0  0  0  0  0  0  0  0  0  0  0 
    3.6150   -1.1576    0.9572 C   0  0  0  0  0  0  0  0  0  0  0  0 
    3.5156   -1.7205   -1.5109 C   0  0  0  0  0  0  0  0  0  0  0  0 
    3.2550   -0.0133    1.1432 O   0  0  0  0  0  0  0  0  0  0  0  0 
    3.1649   -0.7693   -2.1767 O   0  0  0  0  0  0  0  0  0  0  0  0 
    5.5574   -1.5206    4.5554 H   0  0  0  0  0  0  0  0  0  0  0  0 
    3.8326   -1.1181    4.4991 H   0  0  0  0  0  0  0  0  0  0  0  0 
    4.9419   -0.3945    3.3324 H   0  0  0  0  0  0  0  0  0  0  0  0 
    0.9706   -4.7392   -4.1176 H   0  0  0  0  0  0  0  0  0  0  0  0 
    1.2027   -5.1673   -2.4167 H   0  0  0  0  0  0  0  0  0  0  0  0 
    2.5497   -5.3070   -3.5561 H   0  0  0  0  0  0  0  0  0  0  0  0 
    4.2497   -3.3957    3.5253 H   0  0  0  0  0  0  0  0  0  0  0  0 
    5.3948   -2.7223    2.3795 H   0  0  0  0  0  0  0  0  0  0  0  0 
    1.1987   -2.6480   -2.7530 H   0  0  0  0  0  0  0  0  0  0  0  0 
    2.5334   -2.7891   -3.8721 H   0  0  0  0  0  0  0  0  0  0  0  0 
    2.4054   -1.9907    2.4998 H   0  0  0  0  0  0  0  0  0  0  0  0 
    3.1108   -3.2082    1.4103 H   0  0  0  0  0  0  0  0  0  0  0  0 
    3.9803   -3.7374   -2.0227 H   0  0  0  0  0  0  0  0  0  0  0  0 
    2.6501   -3.5824   -0.9040 H   0  0  0  0  0  0  0  0  0  0  0  0 
    5.0298   -2.4292   -0.1110 H   0  0  0  0  0  0  0  0  0  0  0  0 
    5.0943   -0.6812   -0.5154 H   0  0  0  0  0  0  0  0  0  0  0  0 
  1 13  1  0  0  0  0 
  1 12  1  0  0  0  0 
  2  4  1  0  0  0  0 
  2 16  1  0  0  0  0 
  3 18  1  0  0  0  0 
  3  1  1  0  0  0  0 
  4 20  1  0  0  0  0 
  4  6  1  0  0  0  0 
  5 22  1  0  0  0  0 
  5  3  1  0  0  0  0 
  6  9  1  0  0  0  0 
  6 25  1  0  0  0  0 
  7 26  1  0  0  0  0 
  7  8  1  0  0  0  0 
  8 10  2  0  0  0  0 
  8  5  1  0  0  0  0 
  9  7  1  0  0  0  0 
 11  9  2  0  0  0  0 
 14  1  1  0  0  0  0 
 15  2  1  0  0  0  0 
 17  2  1  0  0  0  0 
 19  3  1  0  0  0  0 
 21  4  1  0  0  0  0 
 23  5  1  0  0  0  0 
 24  6  1  0  0  0  0 
 27  7  1  0  0  0  0 
M  END 
>  <HBA> 
2 
 
>  <HBD> 
0 
 
>  <TPSA> 
34.14 
 
>  <cid> 
26454 
 
>  <dipole> 
4.73 
 
>  <excitation_energy_1> 
3.995 
 
>  <excitation_energy_2> 
4.301 
 
>  <excitation_energy_3> 
5.281 
 
>  <excitation_energy_4> 
5.829 
 
>  <homo_energy> 
-6.596 
 
>  <homo_lumo_gap> 
5.527 
 
>  <logP> 
2.115 
 
>  <lumo_energy> 
-1.069 
 
>  <melting_point> 
14.23 
 
>  <molecular_refractivity> 
45.78 
 
>  <oscillator_strength_1> 
0.0095 
 
>  <oscillator_strength_2> 
0.0022 
 
>  <oscillator_strength_3> 
0.0009 
 
>  <oscillator_strength_4> 
0.0679 
 
>  <open_babel_can_smiles> 
CCCC(=O)CC(=O)CCC 
 
>  <mulliken_charges> 
27 
1   -0.443233 
2   -0.447612 
3   -0.26955 
4   -0.24269 
5   -0.337168 
6   -0.358921 
7   -0.423065 
8   0.442954 
9   0.443601 
10   -0.41917 
11   -0.416955 
12   0.146337 
13   0.151744 
14   0.166452 
15   0.150915 
16   0.140587 
17   0.141142 
18   0.149015 
19   0.140258 
20   0.15361 
21   0.155871 
22   0.167715 
23   0.141718 
24   0.160371 
25   0.15784 
26   0.152423 
27   0.195812 
 
>  <lowdin_charges> 
27 
1   -0.44863 
2   -0.446795 
3   -0.267308 
4   -0.270093 
5   -0.307798 
6   -0.311565 
7   -0.343181 
8   0.164113 
9   0.167908 
10   -0.218154 
11   -0.215798 
12   0.15301 
13   0.153213 
14   0.158925 
15   0.154696 
16   0.146487 
17   0.146721 
18   0.150634 
19   0.141911 
20   0.153447 
21   0.154802 
22   0.165503 
23   0.150908 
24   0.161677 
25   0.157403 
26   0.15871 
27   0.189256 
 
$$$$ 
 
