PCCDB-ID:  20472 
public computational chemistry database (PCCDB) project, http://pccdb.org 
 
 25 26  0  0  0  0  0  0  0  0999 V2000 
    2.7188   -0.0463    0.1189 C   0  0  0  0  0  0  0  0  0  0  0  0 
    1.9718    1.0710   -0.6233 C   0  0  0  0  0  0  0  0  0  0  0  0 
    1.8542   -1.3097    0.2340 C   0  0  0  0  0  0  0  0  0  0  0  0 
    0.6200    1.3762    0.0376 C   0  0  0  0  0  0  0  0  0  0  0  0 
    0.4941   -1.0080    0.8829 C   0  0  0  0  0  0  0  0  0  0  0  0 
   -0.9060   -0.3360   -1.1784 C   0  0  0  0  0  0  0  0  0  0  0  0 
   -2.2921   -0.8423   -0.7548 C   0  0  0  0  0  0  0  0  0  0  0  0 
   -1.5241    0.4551    0.9911 C   0  0  0  0  0  0  0  0  0  0  0  0 
   -0.2785    0.1282    0.1536 C   0  0  0  0  0  0  0  0  0  0  0  0 
   -1.5704    1.0872    2.0161 O   0  0  0  0  0  0  0  0  0  0  0  0 
   -2.6367   -0.0975    0.4303 O   0  0  0  0  0  0  0  0  0  0  0  0 
    2.9814    0.3041    1.1277 H   0  0  0  0  0  0  0  0  0  0  0  0 
    3.6633   -0.2779   -0.3892 H   0  0  0  0  0  0  0  0  0  0  0  0 
    1.8147    0.7724   -1.6704 H   0  0  0  0  0  0  0  0  0  0  0  0 
    2.5805    1.9833   -0.6506 H   0  0  0  0  0  0  0  0  0  0  0  0 
    2.3726   -2.0764    0.8231 H   0  0  0  0  0  0  0  0  0  0  0  0 
    1.7044   -1.7402   -0.7667 H   0  0  0  0  0  0  0  0  0  0  0  0 
    0.0895    2.1592   -0.5195 H   0  0  0  0  0  0  0  0  0  0  0  0 
    0.7798    1.7688    1.0498 H   0  0  0  0  0  0  0  0  0  0  0  0 
    0.6480   -0.6931    1.9231 H   0  0  0  0  0  0  0  0  0  0  0  0 
   -0.1190   -1.9184    0.9210 H   0  0  0  0  0  0  0  0  0  0  0  0 
   -1.0098    0.5154   -1.8612 H   0  0  0  0  0  0  0  0  0  0  0  0 
   -0.3305   -1.1085   -1.6960 H   0  0  0  0  0  0  0  0  0  0  0  0 
   -2.2901   -1.9093   -0.5025 H   0  0  0  0  0  0  0  0  0  0  0  0 
   -3.0735   -0.6614   -1.4967 H   0  0  0  0  0  0  0  0  0  0  0  0 
  1  3  1  0  0  0  0 
  1 12  1  0  0  0  0 
  2  4  1  0  0  0  0 
  2  1  1  0  0  0  0 
  3 16  1  0  0  0  0 
  3  5  1  0  0  0  0 
  4  9  1  0  0  0  0 
  4 19  1  0  0  0  0 
  5 21  1  0  0  0  0 
  5 20  1  0  0  0  0 
  6  7  1  0  0  0  0 
  6  9  1  0  0  0  0 
  7 24  1  0  0  0  0 
  7 11  1  0  0  0  0 
  8 10  2  0  0  0  0 
  9  5  1  0  0  0  0 
  9  8  1  0  0  0  0 
 11  8  1  0  0  0  0 
 13  1  1  0  0  0  0 
 14  2  1  0  0  0  0 
 15  2  1  0  0  0  0 
 17  3  1  0  0  0  0 
 18  4  1  0  0  0  0 
 22  6  1  0  0  0  0 
 23  6  1  0  0  0  0 
 25  7  1  0  0  0  0 
M  END 
>  <HBA> 
2 
 
>  <HBD> 
0 
 
>  <TPSA> 
26.3 
 
>  <cid> 
20472 
 
>  <dipole> 
4.37 
 
>  <excitation_energy_1> 
5.611 
 
>  <excitation_energy_2> 
6.567 
 
>  <excitation_energy_3> 
6.986 
 
>  <excitation_energy_4> 
7.044 
 
>  <homo_energy> 
-7.031 
 
>  <homo_lumo_gap> 
7.442 
 
>  <logP> 
1.884 
 
>  <lumo_energy> 
0.411 
 
>  <melting_point> 
47.73 
 
>  <molecular_refractivity> 
42.17 
 
>  <oscillator_strength_1> 
0.001 
 
>  <oscillator_strength_2> 
0.0023 
 
>  <oscillator_strength_3> 
0.0146 
 
>  <oscillator_strength_4> 
0.0013 
 
>  <open_babel_can_smiles> 
O=C1OCCC21CCCCC2 
 
>  <mulliken_charges> 
25 
1   -0.256958 
2   -0.267014 
3   -0.264832 
4   -0.2757 
5   -0.280793 
6   -0.328365 
7   -0.043784 
8   0.628295 
9   -0.015054 
10   -0.471941 
11   -0.453632 
12   0.136059 
13   0.133951 
14   0.129518 
15   0.139101 
16   0.14011 
17   0.129945 
18   0.134905 
19   0.161654 
20   0.16037 
21   0.136046 
22   0.155787 
23   0.155261 
24   0.154298 
25   0.162773 
 
>  <lowdin_charges> 
25 
1   -0.276926 
2   -0.277637 
3   -0.27874 
4   -0.274059 
5   -0.27374 
6   -0.298121 
7   -0.127675 
8   0.186936 
9   -0.02951 
10   -0.240905 
11   -0.186571 
12   0.141102 
13   0.145471 
14   0.136027 
15   0.148792 
16   0.15045 
17   0.136499 
18   0.147286 
19   0.156802 
20   0.155156 
21   0.145424 
22   0.154726 
23   0.157763 
24   0.143559 
25   0.157891 
 
$$$$ 
 
