PCCDB-ID:  16251 
public computational chemistry database (PCCDB) project, http://pccdb.org 
 
 21 21  0  0  0  0  0  0  0  0999 V2000 
    1.6792    0.6041   -0.6136 C   0  0  0  0  0  0  0  0  0  0  0  0 
    0.9964    4.8453    0.1378 C   0  0  0  0  0  0  0  0  0  0  0  0 
    5.3908    2.6066    1.2041 C   0  0  0  0  0  0  0  0  0  0  0  0 
    4.4222    1.6074    1.0637 C   0  0  0  0  0  0  0  0  0  0  0  0 
    3.6999    4.2727    0.6985 C   0  0  0  0  0  0  0  0  0  0  0  0 
    5.0231    3.9369    1.0138 C   0  0  0  0  0  0  0  0  0  0  0  0 
    3.1042    1.9152    0.7520 C   0  0  0  0  0  0  0  0  0  0  0  0 
    2.7378    3.2702    0.5730 C   0  0  0  0  0  0  0  0  0  0  0  0 
    5.9082    4.9784    1.1233 O   0  0  0  0  0  0  0  0  0  0  0  0 
    2.1681    0.9064    0.6933 O   0  0  0  0  0  0  0  0  0  0  0  0 
    1.4235    3.5003    0.2873 O   0  0  0  0  0  0  0  0  0  0  0  0 
    0.9829   -0.2295   -0.4925 H   0  0  0  0  0  0  0  0  0  0  0  0 
    2.4985    0.2983   -1.2789 H   0  0  0  0  0  0  0  0  0  0  0  0 
    1.1528    1.4580   -1.0529 H   0  0  0  0  0  0  0  0  0  0  0  0 
    1.5058    5.3409   -0.6993 H   0  0  0  0  0  0  0  0  0  0  0  0 
    1.1658    5.4239    1.0550 H   0  0  0  0  0  0  0  0  0  0  0  0 
   -0.0745    4.7968   -0.0675 H   0  0  0  0  0  0  0  0  0  0  0  0 
    6.4171    2.3464    1.4538 H   0  0  0  0  0  0  0  0  0  0  0  0 
    4.6792    0.5629    1.2115 H   0  0  0  0  0  0  0  0  0  0  0  0 
    3.4560    5.3196    0.5675 H   0  0  0  0  0  0  0  0  0  0  0  0 
    6.7806    4.6203    1.3485 H   0  0  0  0  0  0  0  0  0  0  0  0 
  1 12  1  0  0  0  0 
  1 10  1  0  0  0  0 
  2 11  1  0  0  0  0 
  2 16  1  0  0  0  0 
  3 18  1  0  0  0  0 
  4  3  1  0  0  0  0 
  4 19  1  0  0  0  0 
  5  6  1  0  0  0  0 
  6  9  1  0  0  0  0 
  6  3  2  0  0  0  0 
  7  4  2  0  0  0  0 
  8  5  2  0  0  0  0 
  8  7  1  0  0  0  0 
  9 21  1  0  0  0  0 
 10  7  1  0  0  0  0 
 11  8  1  0  0  0  0 
 13  1  1  0  0  0  0 
 14  1  1  0  0  0  0 
 15  2  1  0  0  0  0 
 17  2  1  0  0  0  0 
 20  5  1  0  0  0  0 
M  END 
>  <HBA> 
3 
 
>  <HBD> 
1 
 
>  <TPSA> 
38.69 
 
>  <cid> 
16251 
 
>  <dipole> 
1.52 
 
>  <excitation_energy_1> 
4.852 
 
>  <excitation_energy_2> 
4.854 
 
>  <excitation_energy_3> 
5.352 
 
>  <excitation_energy_4> 
5.503 
 
>  <homo_energy> 
-5.445 
 
>  <homo_lumo_gap> 
5.717 
 
>  <logP> 
1.409 
 
>  <lumo_energy> 
0.272 
 
>  <melting_point> 
55.51 
 
>  <molecular_refractivity> 
41.45 
 
>  <oscillator_strength_1> 
0.0267 
 
>  <oscillator_strength_2> 
0.0289 
 
>  <oscillator_strength_3> 
0.0186 
 
>  <oscillator_strength_4> 
0.0615 
 
>  <open_babel_can_smiles> 
COc1cc(O)ccc1OC 
 
>  <mulliken_charges> 
21 
1   -0.20635 
2   -0.215439 
3   -0.210825 
4   -0.178213 
5   -0.252697 
6   0.354854 
7   0.305836 
8   0.352747 
9   -0.649787 
10   -0.522306 
11   -0.507622 
12   0.155176 
13   0.134564 
14   0.157382 
15   0.153426 
16   0.15689 
17   0.17003 
18   0.115501 
19   0.137163 
20   0.142755 
21   0.406915 
 
>  <lowdin_charges> 
21 
1   -0.27762 
2   -0.276115 
3   -0.230972 
4   -0.159316 
5   -0.239219 
6   0.10299 
7   0.050889 
8   0.090391 
9   -0.382925 
10   -0.22769 
11   -0.192685 
12   0.154449 
13   0.136988 
14   0.147972 
15   0.146876 
16   0.148711 
17   0.16108 
18   0.152157 
19   0.165933 
20   0.170792 
21   0.357315 
 
$$$$ 
 
