PCCDB-ID:  21274 
public computational chemistry database (PCCDB) project, http://pccdb.org 
 
 14 14  0  0  0  0  0  0  0  0999 V2000 
    1.0729   -0.1149    0.0605 C   0  0  0  0  0  0  0  0  0  0  0  0 
    3.4108    1.0633   -0.2159 C   0  0  0  0  0  0  0  0  0  0  0  0 
    2.5590   -0.0190   -0.0363 C   0  0  0  0  0  0  0  0  0  0  0  0 
    4.6685   -0.6267   -0.0840 C   0  0  0  0  0  0  0  0  0  0  0  0 
    4.7199    0.6738   -0.2439 N   0  0  0  0  0  0  0  0  0  0  0  0 
    3.3965   -1.1026    0.0467 N   0  0  0  0  0  0  0  0  0  0  0  0 
    5.7765   -1.5401   -0.0353 N   0  0  0  0  0  0  0  0  0  0  0  0 
    5.4752   -2.7346    0.1261 O   0  0  0  0  0  0  0  0  0  0  0  0 
    6.9103   -1.0951   -0.1526 O   0  0  0  0  0  0  0  0  0  0  0  0 
    0.6318    0.8809   -0.0324 H   0  0  0  0  0  0  0  0  0  0  0  0 
    0.7535   -0.5351    1.0222 H   0  0  0  0  0  0  0  0  0  0  0  0 
    0.6525   -0.7432   -0.7345 H   0  0  0  0  0  0  0  0  0  0  0  0 
    3.1316    2.1026   -0.3261 H   0  0  0  0  0  0  0  0  0  0  0  0 
    3.1684   -2.0794    0.1772 H   0  0  0  0  0  0  0  0  0  0  0  0 
  1 11  1  0  0  0  0 
  2  3  2  0  0  0  0 
  3  6  1  0  0  0  0 
  3  1  1  0  0  0  0 
  4  7  1  0  0  0  0 
  4  6  1  0  0  0  0 
  5  2  1  0  0  0  0 
  5  4  2  0  0  0  0 
  6 14  1  0  0  0  0 
  7  8  2  0  0  0  0 
  9  7  2  0  0  0  0 
 10  1  1  0  0  0  0 
 12  1  1  0  0  0  0 
 13  2  1  0  0  0  0 
M  END 
>  <HBA> 
1 
 
>  <HBD> 
1 
 
>  <TPSA> 
74.5 
 
>  <cid> 
21274 
 
>  <dipole> 
6.31 
 
>  <excitation_energy_1> 
3.8 
 
>  <excitation_energy_2> 
4.074 
 
>  <excitation_energy_3> 
4.327 
 
>  <excitation_energy_4> 
4.632 
 
>  <homo_energy> 
-6.955 
 
>  <homo_lumo_gap> 
4.509 
 
>  <logP> 
1.149 
 
>  <lumo_energy> 
-2.446 
 
>  <melting_point> 
109.73 
 
>  <molecular_refractivity> 
32.38 
 
>  <oscillator_strength_1> 
0.0 
 
>  <oscillator_strength_2> 
0.2903 
 
>  <oscillator_strength_3> 
0.0001 
 
>  <oscillator_strength_4> 
0.0017 
 
>  <open_babel_can_smiles> 
Cc1cnc([nH]1)N(=O)=O 
 
>  <mulliken_charges> 
14 
1   -0.536484 
2   -0.065424 
3   0.351048 
4   0.681185 
5   -0.423872 
6   -0.629815 
7   0.363564 
8   -0.429485 
9   -0.371811 
10   0.185285 
11   0.179681 
12   0.179727 
13   0.153764 
14   0.362637 
 
>  <lowdin_charges> 
14 
1   -0.442666 
2   -0.15187 
3   0.024055 
4   0.043451 
5   -0.13079 
6   -0.154932 
7   0.301091 
8   -0.280159 
9   -0.210108 
10   0.177722 
11   0.170865 
12   0.17192 
13   0.16989 
14   0.31153 
 
$$$$ 
 
