PCCDB-ID:  14657 
public computational chemistry database (PCCDB) project, http://pccdb.org 
 
 29 30  0  0  0  0  0  0  0  0999 V2000 
   -1.4290   -0.1986   -0.1085 C   0  0  0  0  0  0  0  0  0  0  0  0 
    4.3523    4.0360   -0.5840 C   0  0  0  0  0  0  0  0  0  0  0  0 
   -0.8570    0.5697   -1.1254 C   0  0  0  0  0  0  0  0  0  0  0  0 
   -0.6011   -0.8717    0.7916 C   0  0  0  0  0  0  0  0  0  0  0  0 
    3.3841    3.6868    0.3572 C   0  0  0  0  0  0  0  0  0  0  0  0 
    4.8155    3.0705   -1.4816 C   0  0  0  0  0  0  0  0  0  0  0  0 
    0.5285    0.6551   -1.2492 C   0  0  0  0  0  0  0  0  0  0  0  0 
    0.7866   -0.7760    0.6863 C   0  0  0  0  0  0  0  0  0  0  0  0 
    2.8860    2.3845    0.4061 C   0  0  0  0  0  0  0  0  0  0  0  0 
    4.3120    1.7725   -1.4479 C   0  0  0  0  0  0  0  0  0  0  0  0 
    1.3631   -0.0176   -0.3437 C   0  0  0  0  0  0  0  0  0  0  0  0 
    3.3436    1.4203   -0.4991 C   0  0  0  0  0  0  0  0  0  0  0  0 
    3.6296   -1.0202   -0.4372 C   0  0  0  0  0  0  0  0  0  0  0  0 
    4.8696   -0.8765   -0.1421 N   0  0  0  0  0  0  0  0  0  0  0  0 
    2.9804   -2.2293   -0.7056 N   0  0  0  0  0  0  0  0  0  0  0  0 
    2.7815    0.1018   -0.4759 N   0  0  0  0  0  0  0  0  0  0  0  0 
   -2.5093   -0.2682   -0.0169 H   0  0  0  0  0  0  0  0  0  0  0  0 
    4.7441    5.0488   -0.6184 H   0  0  0  0  0  0  0  0  0  0  0  0 
   -1.4907    1.0986   -1.8323 H   0  0  0  0  0  0  0  0  0  0  0  0 
   -1.0346   -1.4647    1.5927 H   0  0  0  0  0  0  0  0  0  0  0  0 
    3.0175    4.4253    1.0654 H   0  0  0  0  0  0  0  0  0  0  0  0 
    5.5699    3.3302   -2.2197 H   0  0  0  0  0  0  0  0  0  0  0  0 
    0.9764    1.2481   -2.0408 H   0  0  0  0  0  0  0  0  0  0  0  0 
    1.4289   -1.2899    1.3930 H   0  0  0  0  0  0  0  0  0  0  0  0 
    2.1385    2.1118    1.1445 H   0  0  0  0  0  0  0  0  0  0  0  0 
    4.6774    1.0231   -2.1405 H   0  0  0  0  0  0  0  0  0  0  0  0 
    5.3653   -1.7648   -0.2347 H   0  0  0  0  0  0  0  0  0  0  0  0 
    3.6113   -2.9870   -0.9313 H   0  0  0  0  0  0  0  0  0  0  0  0 
    2.1837   -2.1829   -1.3298 H   0  0  0  0  0  0  0  0  0  0  0  0 
  1 17  1  0  0  0  0 
  1  4  2  0  0  0  0 
  2  5  2  0  0  0  0 
  3  1  1  0  0  0  0 
  4 20  1  0  0  0  0 
  5  9  1  0  0  0  0 
  5 21  1  0  0  0  0 
  6 10  2  0  0  0  0 
  6  2  1  0  0  0  0 
  7  3  2  0  0  0  0 
  7 11  1  0  0  0  0 
  8  4  1  0  0  0  0 
  8 24  1  0  0  0  0 
  9 25  1  0  0  0  0 
 10 12  1  0  0  0  0 
 11  8  2  0  0  0  0 
 12 16  1  0  0  0  0 
 12  9  2  0  0  0  0 
 13 14  1  0  0  0  0 
 15 13  2  0  0  0  0 
 16 13  1  0  0  0  0 
 16 11  1  0  0  0  0 
 18  2  1  0  0  0  0 
 19  3  1  0  0  0  0 
 22  6  1  0  0  0  0 
 23  7  1  0  0  0  0 
 26 10  1  0  0  0  0 
 27 14  1  0  0  0  0 
 28 15  1  0  0  0  0 
 29 15  1  0  0  0  0 
M  RAD  1  14   2 
M  END 
>  <HBA> 
2 
 
>  <HBD> 
2 
 
>  <TPSA> 
53.11 
 
>  <cid> 
14657 
 
>  <dipole> 
3.21 
 
>  <excitation_energy_1> 
4.256 
 
>  <excitation_energy_2> 
4.296 
 
>  <excitation_energy_3> 
4.684 
 
>  <excitation_energy_4> 
4.743 
 
>  <homo_energy> 
-5.325 
 
>  <homo_lumo_gap> 
5.023 
 
>  <logP> 
3.518 
 
>  <lumo_energy> 
-0.302 
 
>  <melting_point> 
132.8 
 
>  <molecular_refractivity> 
67.19 
 
>  <oscillator_strength_1> 
0.1275 
 
>  <oscillator_strength_2> 
0.0903 
 
>  <oscillator_strength_3> 
0.0589 
 
>  <oscillator_strength_4> 
0.0202 
 
>  <open_babel_can_smiles> 
[NH]C(=[NH2])N(c1ccccc1)c1ccccc1 
 
>  <mulliken_charges> 
29 
1   -0.125493 
2   -0.124491 
3   -0.141768 
4   -0.145363 
5   -0.14203 
6   -0.146656 
7   -0.147149 
8   -0.13426 
9   -0.155736 
10   -0.115522 
11   0.220878 
12   0.304737 
13   0.565853 
14   -0.628975 
15   -0.750049 
16   -0.603518 
17   0.130447 
18   0.124592 
19   0.133715 
20   0.134009 
21   0.127854 
22   0.127024 
23   0.144507 
24   0.153029 
25   0.139273 
26   0.133739 
27   0.265092 
28   0.322964 
29   0.333295 
 
>  <lowdin_charges> 
29 
1   -0.161568 
2   -0.163946 
3   -0.15587 
4   -0.155228 
5   -0.156439 
6   -0.155233 
7   -0.169566 
8   -0.170332 
9   -0.169455 
10   -0.154442 
11   0.036573 
12   0.062413 
13   0.126921 
14   -0.461181 
15   -0.501624 
16   -0.08595 
17   0.156867 
18   0.155204 
19   0.161238 
20   0.160828 
21   0.158224 
22   0.157461 
23   0.168719 
24   0.173115 
25   0.16575 
26   0.166021 
27   0.246663 
28   0.279813 
29   0.285026 
 
$$$$ 
 
