PCCDB-ID:  62323 
public computational chemistry database (PCCDB) project, http://pccdb.org 
 
 11 10  0  0  0  0  0  0  0  0999 V2000 
    1.0485    0.0149   -0.1257 C   0  0  0  0  0  0  0  0  0  0  0  0 
    4.3619    0.3119    1.0972 C   0  0  0  0  0  0  0  0  0  0  0  0 
    4.3791   -0.2824   -1.3420 C   0  0  0  0  0  0  0  0  0  0  0  0 
    2.2568    0.0297   -0.0530 C   0  0  0  0  0  0  0  0  0  0  0  0 
    3.6895    0.0366   -0.0329 C   0  0  0  0  0  0  0  0  0  0  0  0 
   -0.0168   -0.0018   -0.1660 H   0  0  0  0  0  0  0  0  0  0  0  0 
    5.4481    0.3164    1.1138 H   0  0  0  0  0  0  0  0  0  0  0  0 
    3.8470    0.5390    2.0250 H   0  0  0  0  0  0  0  0  0  0  0  0 
    5.4667   -0.2465   -1.2291 H   0  0  0  0  0  0  0  0  0  0  0  0 
    4.0849    0.4299   -2.1220 H   0  0  0  0  0  0  0  0  0  0  0  0 
    4.0980   -1.2810   -1.6974 H   0  0  0  0  0  0  0  0  0  0  0  0 
  1  4  3  0  0  0  0 
  2  7  1  0  0  0  0 
  2  8  1  0  0  0  0 
  3  9  1  0  0  0  0 
  3  5  1  0  0  0  0 
  4  5  1  0  0  0  0 
  5  2  2  0  0  0  0 
  6  1  1  0  0  0  0 
 10  3  1  0  0  0  0 
 11  3  1  0  0  0  0 
M  END 
>  <HBA> 
0 
 
>  <HBD> 
0 
 
>  <TPSA> 
0.0 
 
>  <cid> 
62323 
 
>  <dipole> 
0.43 
 
>  <excitation_energy_1> 
5.332 
 
>  <excitation_energy_2> 
5.463 
 
>  <excitation_energy_3> 
6.044 
 
>  <excitation_energy_4> 
6.19 
 
>  <homo_energy> 
-6.397 
 
>  <homo_lumo_gap> 
5.924 
 
>  <logP> 
1.196 
 
>  <lumo_energy> 
-0.473 
 
>  <melting_point> 
-25.73 
 
>  <molecular_refractivity> 
23.84 
 
>  <oscillator_strength_1> 
0.0 
 
>  <oscillator_strength_2> 
0.2666 
 
>  <oscillator_strength_3> 
0.0001 
 
>  <oscillator_strength_4> 
0.0003 
 
>  <open_babel_can_smiles> 
CC(=C)C#C 
 
>  <mulliken_charges> 
11 
1   -0.533339 
2   -0.3551 
3   -0.495645 
4   0.320507 
5   0.080074 
6   0.194777 
7   0.142719 
8   0.155367 
9   0.153863 
10   0.168376 
11   0.168401 
 
>  <lowdin_charges> 
11 
1   -0.243663 
2   -0.321829 
3   -0.429876 
4   -0.034384 
5   0.01279 
6   0.204875 
7   0.158578 
8   0.168036 
9   0.155821 
10   0.165489 
11   0.164164 
 
$$$$ 
 
