PCCDB-ID:  11769 
public computational chemistry database (PCCDB) project, http://pccdb.org 
 
 24 26  0  0  0  0  0  0  0  0999 V2000 
    2.5565   -0.8624   -0.1863 C   0  0  0  0  0  0  0  0  0  0  0  0 
    2.3719    0.5425   -0.1536 C   0  0  0  0  0  0  0  0  0  0  0  0 
    1.5073   -1.7653   -0.1312 C   0  0  0  0  0  0  0  0  0  0  0  0 
    0.5507    2.4476   -0.0040 C   0  0  0  0  0  0  0  0  0  0  0  0 
   -1.0016    2.2805    0.0895 C   0  0  0  0  0  0  0  0  0  0  0  0 
   -2.3919    0.0401    0.1557 C   0  0  0  0  0  0  0  0  0  0  0  0 
   -2.2912   -1.3657    0.1305 C   0  0  0  0  0  0  0  0  0  0  0  0 
    1.0885    1.0299   -0.0625 C   0  0  0  0  0  0  0  0  0  0  0  0 
   -1.2320    0.7830    0.0863 C   0  0  0  0  0  0  0  0  0  0  0  0 
    0.1676   -1.2963   -0.0365 C   0  0  0  0  0  0  0  0  0  0  0  0 
   -1.0704   -2.0198    0.0377 C   0  0  0  0  0  0  0  0  0  0  0  0 
    0.0097    0.1164   -0.0057 C   0  0  0  0  0  0  0  0  0  0  0  0 
   -1.1245   -3.4852    0.0182 N   0  0  0  0  0  0  0  0  0  0  0  0 
   -2.2280   -4.0300    0.1040 O   0  0  0  0  0  0  0  0  0  0  0  0 
   -0.0652   -4.1096   -0.0833 O   0  0  0  0  0  0  0  0  0  0  0  0 
    3.5684   -1.2528   -0.2582 H   0  0  0  0  0  0  0  0  0  0  0  0 
    3.2331    1.2041   -0.2000 H   0  0  0  0  0  0  0  0  0  0  0  0 
    1.7053   -2.8261   -0.1597 H   0  0  0  0  0  0  0  0  0  0  0  0 
    0.9488    2.9911    0.8611 H   0  0  0  0  0  0  0  0  0  0  0  0 
    0.8400    3.0230   -0.8914 H   0  0  0  0  0  0  0  0  0  0  0  0 
   -1.5126    2.7599   -0.7541 H   0  0  0  0  0  0  0  0  0  0  0  0 
   -1.4071    2.7414    0.9980 H   0  0  0  0  0  0  0  0  0  0  0  0 
   -3.3706    0.5056    0.2287 H   0  0  0  0  0  0  0  0  0  0  0  0 
   -3.1843   -1.9763    0.1830 H   0  0  0  0  0  0  0  0  0  0  0  0 
  1  2  2  0  0  0  0 
  1  3  1  0  0  0  0 
  2  8  1  0  0  0  0 
  3 10  2  0  0  0  0 
  4  5  1  0  0  0  0 
  4 19  1  0  0  0  0 
  5 22  1  0  0  0  0 
  6 23  1  0  0  0  0 
  7  6  1  0  0  0  0 
  7 24  1  0  0  0  0 
  8 12  2  0  0  0  0 
  8  4  1  0  0  0  0 
  9  5  1  0  0  0  0 
  9  6  2  0  0  0  0 
 10 12  1  0  0  0  0 
 10 11  1  0  0  0  0 
 11  7  2  0  0  0  0 
 12  9  1  0  0  0  0 
 13 11  1  0  0  0  0 
 13 14  2  0  0  0  0 
 15 13  2  0  0  0  0 
 16  1  1  0  0  0  0 
 17  2  1  0  0  0  0 
 18  3  1  0  0  0  0 
 20  4  1  0  0  0  0 
 21  5  1  0  0  0  0 
M  END 
>  <HBA> 
0 
 
>  <HBD> 
0 
 
>  <TPSA> 
45.82 
 
>  <cid> 
11769 
 
>  <dipole> 
6.04 
 
>  <excitation_energy_1> 
3.26 
 
>  <excitation_energy_2> 
3.617 
 
>  <excitation_energy_3> 
3.926 
 
>  <excitation_energy_4> 
4.187 
 
>  <homo_energy> 
-6.161 
 
>  <homo_lumo_gap> 
3.804 
 
>  <logP> 
3.37 
 
>  <lumo_energy> 
-2.357 
 
>  <melting_point> 
119.7 
 
>  <molecular_refractivity> 
60.59 
 
>  <oscillator_strength_1> 
0.1607 
 
>  <oscillator_strength_2> 
0.0 
 
>  <oscillator_strength_3> 
0.0214 
 
>  <oscillator_strength_4> 
0.0004 
 
>  <open_babel_can_smiles> 
O=N(=O)c1ccc2c3c1cccc3CC2 
 
>  <mulliken_charges> 
24 
1   -0.127712 
2   -0.210401 
3   -0.194872 
4   -0.360817 
5   -0.366684 
6   -0.227304 
7   -0.156825 
8   0.124449 
9   0.154845 
10   0.166888 
11   0.191947 
12   -0.011646 
13   0.37624 
14   -0.409745 
15   -0.407814 
16   0.13945 
17   0.132871 
18   0.182673 
19   0.167753 
20   0.167504 
21   0.171471 
22   0.171205 
23   0.141129 
24   0.185397 
 
>  <lowdin_charges> 
24 
1   -0.1372 
2   -0.171942 
3   -0.163666 
4   -0.276694 
5   -0.278046 
6   -0.177246 
7   -0.124888 
8   0.0053 
9   0.028644 
10   0.006359 
11   -0.011416 
12   -0.013574 
13   0.309092 
14   -0.260126 
15   -0.254907 
16   0.162665 
17   0.161169 
18   0.183291 
19   0.163297 
20   0.162964 
21   0.16625 
22   0.165671 
23   0.164856 
24   0.19015 
 
$$$$ 
 
