PCCDB-ID:  29593 
public computational chemistry database (PCCDB) project, http://pccdb.org 
 
 21 20  0  0  0  0  0  0  0  0999 V2000 
    2.8069    1.5260   -0.5388 C   0  0  0  0  0  0  0  0  0  0  0  0 
    0.9280    0.0695    0.3133 C   0  0  0  0  0  0  0  0  0  0  0  0 
    4.5037   -1.1131   -0.7807 C   0  0  0  0  0  0  0  0  0  0  0  0 
    4.9535   -2.3907   -1.5221 C   0  0  0  0  0  0  0  0  0  0  0  0 
    2.9757   -1.0250   -0.6800 C   0  0  0  0  0  0  0  0  0  0  0  0 
    6.4112   -2.4964   -1.6363 C   0  0  0  0  0  0  0  0  0  0  0  0 
    2.4473    0.1842    0.1177 C   0  0  0  0  0  0  0  0  0  0  0  0 
    7.5675   -2.5624   -1.7166 N   0  0  0  0  0  0  0  0  0  0  0  0 
    2.3990    2.3631    0.0394 H   0  0  0  0  0  0  0  0  0  0  0  0 
    2.3896    1.5893   -1.5525 H   0  0  0  0  0  0  0  0  0  0  0  0 
    3.8893    1.6765   -0.6124 H   0  0  0  0  0  0  0  0  0  0  0  0 
    0.5418    0.9044    0.9092 H   0  0  0  0  0  0  0  0  0  0  0  0 
    0.6584   -0.8617    0.8258 H   0  0  0  0  0  0  0  0  0  0  0  0 
    0.4061    0.0821   -0.6525 H   0  0  0  0  0  0  0  0  0  0  0  0 
    4.9097   -0.2415   -1.3054 H   0  0  0  0  0  0  0  0  0  0  0  0 
    4.9471   -1.1101    0.2231 H   0  0  0  0  0  0  0  0  0  0  0  0 
    4.5247   -2.4140   -2.5321 H   0  0  0  0  0  0  0  0  0  0  0  0 
    4.5813   -3.2827   -1.0021 H   0  0  0  0  0  0  0  0  0  0  0  0 
    2.6001   -1.9456   -0.2096 H   0  0  0  0  0  0  0  0  0  0  0  0 
    2.5436   -1.0020   -1.6924 H   0  0  0  0  0  0  0  0  0  0  0  0 
    2.9173    0.1568    1.1130 H   0  0  0  0  0  0  0  0  0  0  0  0 
  1  9  1  0  0  0  0 
  1  7  1  0  0  0  0 
  2 13  1  0  0  0  0 
  2 12  1  0  0  0  0 
  3  5  1  0  0  0  0 
  3 16  1  0  0  0  0 
  4 18  1  0  0  0  0 
  4  3  1  0  0  0  0 
  5 19  1  0  0  0  0 
  5  7  1  0  0  0  0 
  6  4  1  0  0  0  0 
  7  2  1  0  0  0  0 
  7 21  1  0  0  0  0 
  8  6  3  0  0  0  0 
 10  1  1  0  0  0  0 
 11  1  1  0  0  0  0 
 14  2  1  0  0  0  0 
 15  3  1  0  0  0  0 
 17  4  1  0  0  0  0 
 20  5  1  0  0  0  0 
M  END 
>  <HBA> 
1 
 
>  <HBD> 
0 
 
>  <TPSA> 
23.79 
 
>  <cid> 
29593 
 
>  <dipole> 
4.18 
 
>  <excitation_energy_1> 
7.595 
 
>  <excitation_energy_2> 
7.751 
 
>  <excitation_energy_3> 
7.88 
 
>  <excitation_energy_4> 
8.009 
 
>  <homo_energy> 
-8.515 
 
>  <homo_lumo_gap> 
9.513 
 
>  <logP> 
2.336 
 
>  <lumo_energy> 
0.999 
 
>  <melting_point> 
6.67 
 
>  <molecular_refractivity> 
35.51 
 
>  <oscillator_strength_1> 
0.0001 
 
>  <oscillator_strength_2> 
0.0105 
 
>  <oscillator_strength_3> 
0.0001 
 
>  <oscillator_strength_4> 
0.0166 
 
>  <open_babel_can_smiles> 
N#CCCCC(C)C 
 
>  <mulliken_charges> 
21 
1   -0.4478 
2   -0.443414 
3   -0.269139 
4   -0.341154 
5   -0.249371 
6   0.347922 
7   -0.069038 
8   -0.474757 
9   0.145957 
10   0.14027 
11   0.147669 
12   0.144617 
13   0.141395 
14   0.140752 
15   0.161995 
16   0.156531 
17   0.19088 
18   0.190413 
19   0.130797 
20   0.130077 
21   0.125399 
 
>  <lowdin_charges> 
21 
1   -0.445563 
2   -0.444941 
3   -0.268025 
4   -0.27174 
5   -0.275848 
6   -0.019317 
7   -0.118616 
8   -0.131305 
9   0.152629 
10   0.145593 
11   0.148108 
12   0.151446 
13   0.148302 
14   0.146434 
15   0.155874 
16   0.152695 
17   0.178182 
18   0.178948 
19   0.141859 
20   0.138937 
21   0.136347 
 
$$$$ 
 
