PCCDB-ID:  70733 
public computational chemistry database (PCCDB) project, http://pccdb.org 
 
 18 18  0  0  0  0  0  0  0  0999 V2000 
    0.9178    0.0013   -0.0029 C   0  0  0  0  0  0  0  0  0  0  0  0 
    5.3257   -2.5176   -0.4828 C   0  0  0  0  0  0  0  0  0  0  0  0 
    3.1852    1.1484   -0.1532 C   0  0  0  0  0  0  0  0  0  0  0  0 
    4.5621    1.0969   -0.2684 C   0  0  0  0  0  0  0  0  0  0  0  0 
    3.1279   -1.2258   -0.2466 C   0  0  0  0  0  0  0  0  0  0  0  0 
    2.4198   -0.0221   -0.1374 C   0  0  0  0  0  0  0  0  0  0  0  0 
    4.5098   -1.2725   -0.3623 C   0  0  0  0  0  0  0  0  0  0  0  0 
    5.2312   -0.0923   -0.3725 N   0  3  0  0  0  0  0  0  0  0  0  0 
    6.5079   -0.1174   -0.4799 O   0  5  0  0  0  0  0  0  0  0  0  0 
    0.5330    1.0254   -0.0291 H   0  0  0  0  0  0  0  0  0  0  0  0 
    0.5922   -0.4515    0.9425 H   0  0  0  0  0  0  0  0  0  0  0  0 
    0.4329   -0.5592   -0.8114 H   0  0  0  0  0  0  0  0  0  0  0  0 
    4.6823   -3.4012   -0.4676 H   0  0  0  0  0  0  0  0  0  0  0  0 
    6.0542   -2.5797    0.3335 H   0  0  0  0  0  0  0  0  0  0  0  0 
    5.9110   -2.5049   -1.4091 H   0  0  0  0  0  0  0  0  0  0  0  0 
    2.7122    2.1231   -0.0744 H   0  0  0  0  0  0  0  0  0  0  0  0 
    5.2127    1.9610   -0.2879 H   0  0  0  0  0  0  0  0  0  0  0  0 
    2.5937   -2.1725   -0.2431 H   0  0  0  0  0  0  0  0  0  0  0  0 
  1 11  1  0  0  0  0 
  2 13  1  0  0  0  0 
  2  7  1  0  0  0  0 
  2 14  1  0  0  0  0 
  3  6  1  0  0  0  0 
  3 16  1  0  0  0  0 
  4  3  2  0  0  0  0 
  5 18  1  0  0  0  0 
  5  6  2  0  0  0  0 
  6  1  1  0  0  0  0 
  7  5  1  0  0  0  0 
  8  7  2  0  0  0  0 
  8  4  1  0  0  0  0 
  9  8  1  0  0  0  0 
 10  1  1  0  0  0  0 
 12  1  1  0  0  0  0 
 15  2  1  0  0  0  0 
 17  4  1  0  0  0  0 
M  CHG  2   8   1   9  -1 
M  END 
>  <HBA> 
1 
 
>  <HBD> 
0 
 
>  <TPSA> 
25.46 
 
>  <cid> 
70733 
 
>  <dipole> 
4.02 
 
>  <excitation_energy_1> 
4.157 
 
>  <excitation_energy_2> 
4.192 
 
>  <excitation_energy_3> 
4.736 
 
>  <excitation_energy_4> 
4.936 
 
>  <homo_energy> 
-5.499 
 
>  <homo_lumo_gap> 
4.71 
 
>  <logP> 
1.732 
 
>  <lumo_energy> 
-0.789 
 
>  <melting_point> 
27.5 
 
>  <molecular_refractivity> 
37.54 
 
>  <oscillator_strength_1> 
0.0402 
 
>  <oscillator_strength_2> 
0.0 
 
>  <oscillator_strength_3> 
0.2126 
 
>  <oscillator_strength_4> 
0.0001 
 
>  <open_babel_can_smiles> 
Cc1cc[n+](c(c1)C)[O-] 
 
>  <mulliken_charges> 
18 
1   -0.529492 
2   -0.495424 
3   -0.226613 
4   0.072604 
5   -0.264617 
6   0.202848 
7   0.355491 
8   -0.056573 
9   -0.531556 
10   0.160166 
11   0.169338 
12   0.167051 
13   0.148027 
14   0.185654 
15   0.185728 
16   0.143448 
17   0.17606 
18   0.137859 
 
>  <lowdin_charges> 
18 
1   -0.440662 
2   -0.437584 
3   -0.168624 
4   -0.123546 
5   -0.172393 
6   -0.006818 
7   0.0291 
8   0.2049 
9   -0.400944 
10   0.15937 
11   0.16431 
12   0.164434 
13   0.157045 
14   0.177568 
15   0.17714 
16   0.167935 
17   0.18307 
18   0.165701 
 
$$$$ 
 
