PCCDB-ID:  34832 
public computational chemistry database (PCCDB) project, http://pccdb.org 
 
 33 33  0  0  0  0  0  0  0  0999 V2000 
    0.7327    0.2965    0.6902 C   0  0  0  0  0  0  0  0  0  0  0  0 
    2.8106    1.2711    1.7913 C   0  0  0  0  0  0  0  0  0  0  0  0 
    2.8012   -1.0436    0.9694 C   0  0  0  0  0  0  0  0  0  0  0  0 
    1.0802    3.6673   -0.1820 C   0  0  0  0  0  0  0  0  0  0  0  0 
    3.5858    4.1215   -0.1082 C   0  0  0  0  0  0  0  0  0  0  0  0 
    2.2636    4.4706   -2.1810 C   0  0  0  0  0  0  0  0  0  0  0  0 
    3.2322   -0.1813   -1.6698 C   0  0  0  0  0  0  0  0  0  0  0  0 
    3.5964    0.2622   -2.9029 C   0  0  0  0  0  0  0  0  0  0  0  0 
    2.7482    0.8340   -0.7654 C   0  0  0  0  0  0  0  0  0  0  0  0 
    2.7448    2.0917   -1.3772 C   0  0  0  0  0  0  0  0  0  0  0  0 
    2.2788    0.3811    0.6461 C   0  0  0  0  0  0  0  0  0  0  0  0 
    2.4175    3.5428   -0.9462 C   0  0  0  0  0  0  0  0  0  0  0  0 
    3.3568    1.9557   -3.0296 S   0  0  0  0  0  0  0  0  0  0  0  0 
    0.4006   -0.0759    1.6679 H   0  0  0  0  0  0  0  0  0  0  0  0 
    0.3677   -0.3976   -0.0754 H   0  0  0  0  0  0  0  0  0  0  0  0 
    0.2526    1.2605    0.5164 H   0  0  0  0  0  0  0  0  0  0  0  0 
    2.5080    0.8473    2.7564 H   0  0  0  0  0  0  0  0  0  0  0  0 
    2.4354    2.2930    1.7605 H   0  0  0  0  0  0  0  0  0  0  0  0 
    3.9057    1.3128    1.7739 H   0  0  0  0  0  0  0  0  0  0  0  0 
    2.5271   -1.3001    1.9987 H   0  0  0  0  0  0  0  0  0  0  0  0 
    3.8919   -1.1076    0.8879 H   0  0  0  0  0  0  0  0  0  0  0  0 
    2.3598   -1.8080    0.3224 H   0  0  0  0  0  0  0  0  0  0  0  0 
    0.8705    4.7263    0.0104 H   0  0  0  0  0  0  0  0  0  0  0  0 
    1.0791    3.1608    0.7821 H   0  0  0  0  0  0  0  0  0  0  0  0 
    0.2542    3.2650   -0.7785 H   0  0  0  0  0  0  0  0  0  0  0  0 
    3.3721    5.1612    0.1709 H   0  0  0  0  0  0  0  0  0  0  0  0 
    4.5124    4.1118   -0.6926 H   0  0  0  0  0  0  0  0  0  0  0  0 
    3.7659    3.5560    0.8071 H   0  0  0  0  0  0  0  0  0  0  0  0 
    2.0015    5.4777   -1.8384 H   0  0  0  0  0  0  0  0  0  0  0  0 
    1.4709    4.1272   -2.8540 H   0  0  0  0  0  0  0  0  0  0  0  0 
    3.1914    4.5602   -2.7556 H   0  0  0  0  0  0  0  0  0  0  0  0 
    3.3088   -1.2261   -1.4036 H   0  0  0  0  0  0  0  0  0  0  0  0 
    3.9821   -0.3116   -3.7349 H   0  0  0  0  0  0  0  0  0  0  0  0 
  1 14  1  0  0  0  0 
  2 17  1  0  0  0  0 
  3 20  1  0  0  0  0 
  4 23  1  0  0  0  0 
  4 24  1  0  0  0  0 
  5 26  1  0  0  0  0 
  5 28  1  0  0  0  0 
  6 29  1  0  0  0  0 
  6 12  1  0  0  0  0 
  7 32  1  0  0  0  0 
  7  9  1  0  0  0  0 
  8  7  2  0  0  0  0 
  9 11  1  0  0  0  0 
 10 12  1  0  0  0  0 
 10  9  2  0  0  0  0 
 11  1  1  0  0  0  0 
 11  3  1  0  0  0  0 
 11  2  1  0  0  0  0 
 12  4  1  0  0  0  0 
 12  5  1  0  0  0  0 
 13  8  1  0  0  0  0 
 13 10  1  0  0  0  0 
 15  1  1  0  0  0  0 
 16  1  1  0  0  0  0 
 18  2  1  0  0  0  0 
 19  2  1  0  0  0  0 
 21  3  1  0  0  0  0 
 22  3  1  0  0  0  0 
 25  4  1  0  0  0  0 
 27  5  1  0  0  0  0 
 30  6  1  0  0  0  0 
 31  6  1  0  0  0  0 
 33  8  1  0  0  0  0 
M  END 
>  <HBA> 
1 
 
>  <HBD> 
0 
 
>  <TPSA> 
28.24 
 
>  <cid> 
34832 
 
>  <dipole> 
0.86 
 
>  <excitation_energy_1> 
5.351 
 
>  <excitation_energy_2> 
5.434 
 
>  <excitation_energy_3> 
5.498 
 
>  <excitation_energy_4> 
5.579 
 
>  <homo_energy> 
-5.834 
 
>  <homo_lumo_gap> 
5.796 
 
>  <logP> 
4.343 
 
>  <lumo_energy> 
-0.038 
 
>  <melting_point> 
21.13 
 
>  <molecular_refractivity> 
62.86 
 
>  <oscillator_strength_1> 
0.0975 
 
>  <oscillator_strength_2> 
0.0351 
 
>  <oscillator_strength_3> 
0.0201 
 
>  <oscillator_strength_4> 
0.0779 
 
>  <open_babel_can_smiles> 
CC(c1sccc1C(C)(C)C)(C)C 
 
>  <mulliken_charges> 
33 
1   -0.441601 
2   -0.455776 
3   -0.456943 
4   -0.451505 
5   -0.437596 
6   -0.477814 
7   -0.133988 
8   -0.35437 
9   0.157228 
10   -0.227921 
11   0.027478 
12   0.065367 
13   0.2312 
14   0.134169 
15   0.144947 
16   0.151966 
17   0.136707 
18   0.153191 
19   0.148577 
20   0.13957 
21   0.148894 
22   0.14502 
23   0.138776 
24   0.157111 
25   0.151851 
26   0.135597 
27   0.14964 
28   0.154611 
29   0.142417 
30   0.159985 
31   0.164204 
32   0.133634 
33   0.165373 
 
>  <lowdin_charges> 
33 
1   -0.444907 
2   -0.443141 
3   -0.441638 
4   -0.444107 
5   -0.442638 
6   -0.44924 
7   -0.194491 
8   -0.338076 
9   -0.03944 
10   -0.166294 
11   0.023777 
12   0.021591 
13   0.299112 
14   0.144426 
15   0.152132 
16   0.154282 
17   0.146746 
18   0.149842 
19   0.149674 
20   0.147755 
21   0.149148 
22   0.148705 
23   0.147247 
24   0.152122 
25   0.154406 
26   0.144477 
27   0.153976 
28   0.155739 
29   0.149913 
30   0.157348 
31   0.157646 
32   0.163175 
33   0.180734 
 
$$$$ 
 
