PCCDB-ID:  35365 
public computational chemistry database (PCCDB) project, http://pccdb.org 
 
 27 27  0  0  0  0  0  0  0  0999 V2000 
    0.9500    0.0038    0.0914 C   0  0  0  0  0  0  0  0  0  0  0  0 
    4.7320   -0.1664   -3.0758 C   0  0  0  0  0  0  0  0  0  0  0  0 
    6.6278   -0.2042   -1.4502 C   0  0  0  0  0  0  0  0  0  0  0  0 
    3.0389    1.1853   -0.7561 C   0  0  0  0  0  0  0  0  0  0  0  0 
    2.9560   -1.3357   -0.7205 C   0  0  0  0  0  0  0  0  0  0  0  0 
    4.5685    1.1314   -0.8926 C   0  0  0  0  0  0  0  0  0  0  0  0 
    4.4860   -1.3853   -0.8553 C   0  0  0  0  0  0  0  0  0  0  0  0 
    2.4771   -0.0482   -0.0268 C   0  0  0  0  0  0  0  0  0  0  0  0 
    5.0942   -0.1559   -1.5764 C   0  0  0  0  0  0  0  0  0  0  0  0 
    0.6211    0.9088    0.6168 H   0  0  0  0  0  0  0  0  0  0  0  0 
    0.5628   -0.8624    0.6416 H   0  0  0  0  0  0  0  0  0  0  0  0 
    0.4780    0.0055   -0.8999 H   0  0  0  0  0  0  0  0  0  0  0  0 
    5.1783    0.6951   -3.5880 H   0  0  0  0  0  0  0  0  0  0  0  0 
    3.6523   -0.1291   -3.2514 H   0  0  0  0  0  0  0  0  0  0  0  0 
    5.1127   -1.0746   -3.5597 H   0  0  0  0  0  0  0  0  0  0  0  0 
    7.0930    0.6599   -1.9414 H   0  0  0  0  0  0  0  0  0  0  0  0 
    7.0350   -1.1108   -1.9154 H   0  0  0  0  0  0  0  0  0  0  0  0 
    6.9399   -0.1988   -0.3985 H   0  0  0  0  0  0  0  0  0  0  0  0 
    2.5712    1.2588   -1.7489 H   0  0  0  0  0  0  0  0  0  0  0  0 
    2.7507    2.0984   -0.2177 H   0  0  0  0  0  0  0  0  0  0  0  0 
    2.6088   -2.2126   -0.1572 H   0  0  0  0  0  0  0  0  0  0  0  0 
    2.4849   -1.4061   -1.7119 H   0  0  0  0  0  0  0  0  0  0  0  0 
    5.0113    1.1950    0.1128 H   0  0  0  0  0  0  0  0  0  0  0  0 
    4.9292    2.0119   -1.4425 H   0  0  0  0  0  0  0  0  0  0  0  0 
    4.7889   -2.3037   -1.3772 H   0  0  0  0  0  0  0  0  0  0  0  0 
    4.9235   -1.4470    0.1526 H   0  0  0  0  0  0  0  0  0  0  0  0 
    2.8971   -0.0477    0.9928 H   0  0  0  0  0  0  0  0  0  0  0  0 
  1 10  1  0  0  0  0 
  1 11  1  0  0  0  0 
  2  9  1  0  0  0  0 
  3 18  1  0  0  0  0 
  4 20  1  0  0  0  0 
  4  8  1  0  0  0  0 
  5 21  1  0  0  0  0 
  5  8  1  0  0  0  0 
  6  4  1  0  0  0  0 
  6 23  1  0  0  0  0 
  7  5  1  0  0  0  0 
  7 26  1  0  0  0  0 
  8  1  1  0  0  0  0 
  8 27  1  0  0  0  0 
  9  3  1  0  0  0  0 
  9  6  1  0  0  0  0 
  9  7  1  0  0  0  0 
 12  1  1  0  0  0  0 
 13  2  1  0  0  0  0 
 14  2  1  0  0  0  0 
 15  2  1  0  0  0  0 
 16  3  1  0  0  0  0 
 17  3  1  0  0  0  0 
 19  4  1  0  0  0  0 
 22  5  1  0  0  0  0 
 24  6  1  0  0  0  0 
 25  7  1  0  0  0  0 
M  END 
>  <HBA> 
0 
 
>  <HBD> 
0 
 
>  <TPSA> 
0.0 
 
>  <cid> 
35365 
 
>  <dipole> 
0.06 
 
>  <excitation_energy_1> 
7.206 
 
>  <excitation_energy_2> 
7.424 
 
>  <excitation_energy_3> 
7.539 
 
>  <excitation_energy_4> 
7.617 
 
>  <homo_energy> 
-7.687 
 
>  <homo_lumo_gap> 
9.813 
 
>  <logP> 
3.223 
 
>  <lumo_energy> 
2.125 
 
>  <melting_point> 
12.71 
 
>  <molecular_refractivity> 
43.0 
 
>  <oscillator_strength_1> 
0.0025 
 
>  <oscillator_strength_2> 
0.0011 
 
>  <oscillator_strength_3> 
0.0574 
 
>  <oscillator_strength_4> 
0.0088 
 
>  <open_babel_can_smiles> 
CC1CCC(CC1)(C)C 
 
>  <mulliken_charges> 
27 
1   -0.445166 
2   -0.452342 
3   -0.446035 
4   -0.262061 
5   -0.261883 
6   -0.260504 
7   -0.260739 
8   -0.066881 
9   0.104651 
10   0.138442 
11   0.138451 
12   0.137142 
13   0.136824 
14   0.144028 
15   0.136822 
16   0.135935 
17   0.135944 
18   0.135799 
19   0.126877 
20   0.126126 
21   0.126106 
22   0.126872 
23   0.122231 
24   0.123329 
25   0.123328 
26   0.122225 
27   0.114478 
 
>  <lowdin_charges> 
27 
1   -0.444519 
2   -0.446235 
3   -0.441537 
4   -0.279924 
5   -0.280237 
6   -0.277204 
7   -0.276833 
8   -0.123447 
9   0.009785 
10   0.1477 
11   0.147997 
12   0.144262 
13   0.147435 
14   0.145128 
15   0.147094 
16   0.146551 
17   0.146252 
18   0.143818 
19   0.136616 
20   0.142245 
21   0.142549 
22   0.136647 
23   0.136795 
24   0.140946 
25   0.140584 
26   0.136737 
27   0.130795 
 
$$$$ 
 
