PCCDB-ID:  6410 
public computational chemistry database (PCCDB) project, http://pccdb.org 
 
 16 15  0  0  0  0  0  0  0  0999 V2000 
    1.0406   -0.0614   -0.0106 C   0  0  0  0  0  0  0  0  0  0  0  0 
    3.0706   -1.5268   -0.3857 C   0  0  0  0  0  0  0  0  0  0  0  0 
    3.0761    0.8836   -1.1822 C   0  0  0  0  0  0  0  0  0  0  0  0 
    2.5693   -0.1019   -0.1243 C   0  0  0  0  0  0  0  0  0  0  0  0 
    4.4262    0.4005    1.2604 O   0  0  0  0  0  0  0  0  0  0  0  0 
    2.9712    0.3366    1.1979 O   0  0  0  0  0  0  0  0  0  0  0  0 
    0.5878   -0.3708   -0.9585 H   0  0  0  0  0  0  0  0  0  0  0  0 
    0.6984    0.9515    0.2236 H   0  0  0  0  0  0  0  0  0  0  0  0 
    0.6909   -0.7365    0.7773 H   0  0  0  0  0  0  0  0  0  0  0  0 
    2.7215   -1.8882   -1.3591 H   0  0  0  0  0  0  0  0  0  0  0  0 
    2.7007   -2.2119    0.3858 H   0  0  0  0  0  0  0  0  0  0  0  0 
    4.1642   -1.5556   -0.3873 H   0  0  0  0  0  0  0  0  0  0  0  0 
    2.7127    0.6008   -2.1767 H   0  0  0  0  0  0  0  0  0  0  0  0 
    4.1689    0.8964   -1.2036 H   0  0  0  0  0  0  0  0  0  0  0  0 
    2.7231    1.8953   -0.9576 H   0  0  0  0  0  0  0  0  0  0  0  0 
    4.5967   -0.3354    1.8746 H   0  0  0  0  0  0  0  0  0  0  0  0 
  1  8  1  0  0  0  0 
  1  9  1  0  0  0  0 
  2  4  1  0  0  0  0 
  2 11  1  0  0  0  0 
  3 15  1  0  0  0  0 
  3  4  1  0  0  0  0 
  4  1  1  0  0  0  0 
  4  6  1  0  0  0  0 
  5 16  1  0  0  0  0 
  6  5  1  0  0  0  0 
  7  1  1  0  0  0  0 
 10  2  1  0  0  0  0 
 12  2  1  0  0  0  0 
 13  3  1  0  0  0  0 
 14  3  1  0  0  0  0 
M  END 
>  <HBA> 
2 
 
>  <HBD> 
1 
 
>  <TPSA> 
29.46 
 
>  <cid> 
6410 
 
>  <dipole> 
1.78 
 
>  <excitation_energy_1> 
5.579 
 
>  <excitation_energy_2> 
6.578 
 
>  <excitation_energy_3> 
6.607 
 
>  <excitation_energy_4> 
7.263 
 
>  <homo_energy> 
-6.917 
 
>  <homo_lumo_gap> 
7.761 
 
>  <logP> 
1.274 
 
>  <lumo_energy> 
0.844 
 
>  <melting_point> 
15.3 
 
>  <molecular_refractivity> 
24.04 
 
>  <oscillator_strength_1> 
0.0009 
 
>  <oscillator_strength_2> 
0.0059 
 
>  <oscillator_strength_3> 
0.0047 
 
>  <oscillator_strength_4> 
0.0096 
 
>  <open_babel_can_smiles> 
OOC(C)(C)C 
 
>  <mulliken_charges> 
16 
1   -0.459876 
2   -0.465146 
3   -0.44897 
4   0.333758 
5   -0.411144 
6   -0.318375 
7   0.148899 
8   0.160412 
9   0.15361 
10   0.144799 
11   0.142948 
12   0.153739 
13   0.136098 
14   0.166727 
15   0.151935 
16   0.410587 
 
>  <lowdin_charges> 
16 
1   -0.446135 
2   -0.458617 
3   -0.45098 
4   0.124952 
5   -0.348233 
6   -0.171216 
7   0.157579 
8   0.159331 
9   0.157308 
10   0.154803 
11   0.151574 
12   0.153655 
13   0.149912 
14   0.160897 
15   0.155977 
16   0.349196 
 
$$$$ 
 
