PCCDB-ID:  23742 
public computational chemistry database (PCCDB) project, http://pccdb.org 
 
 13 12  0  0  0  0  0  0  0  0999 V2000 
    0.9469    0.0741   -0.0683 C   0  0  0  0  0  0  0  0  0  0  0  0 
    3.0370   -1.4008   -0.1529 C   0  0  0  0  0  0  0  0  0  0  0  0 
    3.0057    0.8359   -1.2085 C   0  0  0  0  0  0  0  0  0  0  0  0 
    2.9898    0.6760    1.1899 C   0  0  0  0  0  0  0  0  0  0  0  0 
    2.4993    0.0527   -0.0595 C   0  0  0  0  0  0  0  0  0  0  0  0 
    3.3825    1.4225   -2.1356 N   0  0  0  0  0  0  0  0  0  0  0  0 
    3.3539    1.1341    2.1916 N   0  0  0  0  0  0  0  0  0  0  0  0 
    0.5827   -0.3800   -0.9940 H   0  0  0  0  0  0  0  0  0  0  0  0 
    0.5689    1.0970   -0.0020 H   0  0  0  0  0  0  0  0  0  0  0  0 
    0.5709   -0.4993    0.7837 H   0  0  0  0  0  0  0  0  0  0  0  0 
    2.6818   -1.8608   -1.0793 H   0  0  0  0  0  0  0  0  0  0  0  0 
    2.6685   -1.9800    0.6985 H   0  0  0  0  0  0  0  0  0  0  0  0 
    4.1294   -1.4156   -0.1457 H   0  0  0  0  0  0  0  0  0  0  0  0 
  1  5  1  0  0  0  0 
  1  9  1  0  0  0  0 
  1 10  1  0  0  0  0 
  2 13  1  0  0  0  0 
  2  5  1  0  0  0  0 
  2 12  1  0  0  0  0 
  3  5  1  0  0  0  0 
  4  7  3  0  0  0  0 
  5  4  1  0  0  0  0 
  6  3  3  0  0  0  0 
  8  1  1  0  0  0  0 
 11  2  1  0  0  0  0 
M  END 
>  <HBA> 
2 
 
>  <HBD> 
0 
 
>  <TPSA> 
47.58 
 
>  <cid> 
23742 
 
>  <dipole> 
4.39 
 
>  <excitation_energy_1> 
7.246 
 
>  <excitation_energy_2> 
7.522 
 
>  <excitation_energy_3> 
7.653 
 
>  <excitation_energy_4> 
7.754 
 
>  <homo_energy> 
-9.208 
 
>  <homo_lumo_gap> 
8.86 
 
>  <logP> 
1.06 
 
>  <lumo_energy> 
-0.348 
 
>  <melting_point> 
60.59 
 
>  <molecular_refractivity> 
25.39 
 
>  <oscillator_strength_1> 
0.007 
 
>  <oscillator_strength_2> 
0.0 
 
>  <oscillator_strength_3> 
0.0088 
 
>  <oscillator_strength_4> 
0.0043 
 
>  <open_babel_can_smiles> 
N#CC(C#N)(C)C 
 
>  <mulliken_charges> 
13 
1   -0.436304 
2   -0.436402 
3   0.370623 
4   0.370731 
5   -0.07312 
6   -0.447829 
7   -0.447835 
8   0.179881 
9   0.190302 
10   0.179857 
11   0.179884 
12   0.179887 
13   0.190326 
 
>  <lowdin_charges> 
13 
1   -0.41971 
2   -0.418747 
3   -0.009676 
4   -0.010025 
5   0.019285 
6   -0.097681 
7   -0.097677 
8   0.170908 
9   0.175387 
10   0.17138 
11   0.170888 
12   0.171391 
13   0.174279 
 
$$$$ 
 
