PCCDB-ID:  17831 
public computational chemistry database (PCCDB) project, http://pccdb.org 
 
 27 27  0  0  1  0  0  0  0  0999 V2000 
    1.8467   -1.4908   -0.1931 C   0  0  0  0  0  0  0  0  0  0  0  0 
    1.6378   -0.0214    0.1820 C   0  0  0  0  0  0  0  0  0  0  0  0 
    1.5573   -1.6458    5.0699 C   0  0  0  0  0  0  0  0  0  0  0  0 
    2.8684   -1.6121    4.5940 C   0  0  0  0  0  0  0  0  0  0  0  0 
    0.5487   -1.0119    4.3423 C   0  0  0  0  0  0  0  0  0  0  0  0 
    3.1717   -0.9498    3.4029 C   0  0  0  0  0  0  0  0  0  0  0  0 
    0.8517   -0.3543    3.1496 C   0  0  0  0  0  0  0  0  0  0  0  0 
    2.3230    1.9697    1.6335 C   0  0  0  0  0  0  0  0  0  0  0  0 
    2.1672   -0.3140    2.6628 C   0  0  0  0  0  0  0  0  0  0  0  0 
    2.5058    0.4441    1.3808 C   0  0  1  0  0  0  0  0  0  0  0  0 
    2.9714    2.7270    0.5507 N   0  0  0  0  0  0  0  0  0  0  0  0 
    3.8798    0.2378    1.0696 O   0  0  0  0  0  0  0  0  0  0  0  0 
    1.2675   -1.7512   -1.0863 H   0  0  0  0  0  0  0  0  0  0  0  0 
    1.5335   -2.1565    0.6181 H   0  0  0  0  0  0  0  0  0  0  0  0 
    2.9042   -1.6820   -0.3970 H   0  0  0  0  0  0  0  0  0  0  0  0 
    0.5772    0.1672    0.3960 H   0  0  0  0  0  0  0  0  0  0  0  0 
    1.8986    0.6071   -0.6811 H   0  0  0  0  0  0  0  0  0  0  0  0 
    1.3217   -2.1626    5.9966 H   0  0  0  0  0  0  0  0  0  0  0  0 
    3.6624   -2.1032    5.1513 H   0  0  0  0  0  0  0  0  0  0  0  0 
   -0.4776   -1.0306    4.7006 H   0  0  0  0  0  0  0  0  0  0  0  0 
    4.1889   -0.9190    3.0308 H   0  0  0  0  0  0  0  0  0  0  0  0 
    0.0507    0.1305    2.5973 H   0  0  0  0  0  0  0  0  0  0  0  0 
    2.8402    2.2153    2.5661 H   0  0  0  0  0  0  0  0  0  0  0  0 
    1.2582    2.2098    1.7707 H   0  0  0  0  0  0  0  0  0  0  0  0 
    3.2426    3.6530    0.8700 H   0  0  0  0  0  0  0  0  0  0  0  0 
    2.3404    2.8585   -0.2362 H   0  0  0  0  0  0  0  0  0  0  0  0 
    4.1236    1.0482    0.5740 H   0  0  0  0  0  0  0  0  0  0  0  0 
  1  2  1  0  0  0  0 
  1 14  1  0  0  0  0 
  2 16  1  0  0  0  0 
  2 10  1  0  0  0  0 
  3 18  1  0  0  0  0 
  4  3  1  0  0  0  0 
  4 19  1  0  0  0  0 
  5 20  1  0  0  0  0 
  5  3  2  0  0  0  0 
  6  4  2  0  0  0  0 
  7  5  1  0  0  0  0 
  8 24  1  0  0  0  0 
  8 23  1  0  0  0  0 
  9  7  2  0  0  0  0 
  9  6  1  0  0  0  0 
 10 12  1  6  0  0  0 
 10  8  1  0  0  0  0 
 10  9  1  0  0  0  0 
 11 25  1  0  0  0  0 
 11  8  1  0  0  0  0 
 13  1  1  0  0  0  0 
 15  1  1  0  0  0  0 
 17  2  1  0  0  0  0 
 21  6  1  0  0  0  0 
 22  7  1  0  0  0  0 
 26 11  1  0  0  0  0 
 27 12  1  0  0  0  0 
M  END 
>  <HBA> 
2 
 
>  <HBD> 
2 
 
>  <TPSA> 
46.25 
 
>  <cid> 
17831 
 
>  <dipole> 
3.15 
 
>  <excitation_energy_1> 
5.297 
 
>  <excitation_energy_2> 
5.576 
 
>  <excitation_energy_3> 
5.862 
 
>  <excitation_energy_4> 
5.928 
 
>  <homo_energy> 
-6.267 
 
>  <homo_lumo_gap> 
6.46 
 
>  <logP> 
1.943 
 
>  <lumo_energy> 
0.193 
 
>  <melting_point> 
84.97 
 
>  <molecular_refractivity> 
49.58 
 
>  <oscillator_strength_1> 
0.0005 
 
>  <oscillator_strength_2> 
0.0414 
 
>  <oscillator_strength_3> 
0.0275 
 
>  <oscillator_strength_4> 
0.0122 
 
>  <open_babel_can_smiles> 
CC[C@](c1ccccc1)(CN)O 
 
>  <mulliken_charges> 
27 
1   -0.446575 
2   -0.263966 
3   -0.127568 
4   -0.131698 
5   -0.136586 
6   -0.172825 
7   -0.185366 
8   -0.172278 
9   0.115327 
10   0.27923 
11   -0.751978 
12   -0.676248 
13   0.132784 
14   0.153329 
15   0.164663 
16   0.121755 
17   0.119844 
18   0.124371 
19   0.126011 
20   0.124156 
21   0.156663 
22   0.119662 
23   0.157673 
24   0.129334 
25   0.315683 
26   0.312464 
27   0.412141 
 
>  <lowdin_charges> 
27 
1   -0.447554 
2   -0.285253 
3   -0.161533 
4   -0.157988 
5   -0.158012 
6   -0.159753 
7   -0.17471 
8   -0.222935 
9   -0.007805 
10   0.112028 
11   -0.553387 
12   -0.466009 
13   0.146343 
14   0.154087 
15   0.157826 
16   0.136059 
17   0.13788 
18   0.155087 
19   0.156891 
20   0.153811 
21   0.172227 
22   0.152723 
23   0.155786 
24   0.131767 
25   0.266296 
26   0.262116 
27   0.344011 
 
$$$$ 
 
