PCCDB-ID:  36162 
public computational chemistry database (PCCDB) project, http://pccdb.org 
 
 41 43  0  0  1  0  0  0  0  0999 V2000 
    1.7055    0.2188   -1.4541 C   0  0  0  0  0  0  0  0  0  0  0  0 
    0.7160   -0.8539   -0.9944 C   0  0  0  0  0  0  0  0  0  0  0  0 
    6.8235   -0.9057   -2.0886 C   0  0  0  0  0  0  0  0  0  0  0  0 
    4.9377   -1.7933   -0.7275 C   0  0  0  0  0  0  0  0  0  0  0  0 
    4.4733   -0.8259   -3.0366 C   0  0  0  0  0  0  0  0  0  0  0  0 
    6.0195    0.4695   -0.1201 C   0  0  0  0  0  0  0  0  0  0  0  0 
    5.7999    1.3221   -2.5111 C   0  0  0  0  0  0  0  0  0  0  0  0 
    6.2293   -0.9624   -0.6691 C   0  0  2  0  0  0  0  0  0  0  0  0 
    5.8568   -0.1316   -3.0043 C   0  0  1  0  0  0  0  0  0  0  0  0 
    3.8706   -1.1670   -1.6496 C   0  0  2  0  0  0  0  0  0  0  0  0 
    5.2721    1.4399   -1.0629 C   0  0  1  0  0  0  0  0  0  0  0  0 
    3.1448    0.0154   -0.9391 C   0  0  1  0  0  0  0  0  0  0  0  0 
   -1.6227   -1.5119   -1.3435 C   0  0  0  0  0  0  0  0  0  0  0  0 
   -1.3650   -2.6705   -0.8549 N   0  0  0  0  0  0  0  0  0  0  0  0 
   -2.8782   -1.0083   -1.7332 N   0  0  0  0  0  0  0  0  0  0  0  0 
   -0.6158   -0.5708   -1.5233 N   0  0  0  0  0  0  0  0  0  0  0  0 
    3.8080    1.3284   -0.9720 N   0  0  0  0  0  0  0  0  0  0  0  0 
    1.3614    1.1970   -1.0869 H   0  0  0  0  0  0  0  0  0  0  0  0 
    1.6991    0.2700   -2.5522 H   0  0  0  0  0  0  0  0  0  0  0  0 
    0.7066   -0.9176    0.1050 H   0  0  0  0  0  0  0  0  0  0  0  0 
    0.9969   -1.8465   -1.3546 H   0  0  0  0  0  0  0  0  0  0  0  0 
    6.9833   -1.9252   -2.4658 H   0  0  0  0  0  0  0  0  0  0  0  0 
    7.8045   -0.4103   -2.0800 H   0  0  0  0  0  0  0  0  0  0  0  0 
    4.5178   -1.9277    0.2787 H   0  0  0  0  0  0  0  0  0  0  0  0 
    5.1918   -2.7979   -1.0946 H   0  0  0  0  0  0  0  0  0  0  0  0 
    4.5859   -1.7679   -3.5914 H   0  0  0  0  0  0  0  0  0  0  0  0 
    3.7661   -0.2172   -3.6175 H   0  0  0  0  0  0  0  0  0  0  0  0 
    7.0112    0.9029    0.0676 H   0  0  0  0  0  0  0  0  0  0  0  0 
    5.5062    0.4419    0.8498 H   0  0  0  0  0  0  0  0  0  0  0  0 
    5.1695    1.9353   -3.1718 H   0  0  0  0  0  0  0  0  0  0  0  0 
    6.8113    1.7525   -2.5649 H   0  0  0  0  0  0  0  0  0  0  0  0 
    6.9365   -1.4724   -0.0006 H   0  0  0  0  0  0  0  0  0  0  0  0 
    6.2512   -0.1314   -4.0300 H   0  0  0  0  0  0  0  0  0  0  0  0 
    3.1050   -1.9376   -1.8121 H   0  0  0  0  0  0  0  0  0  0  0  0 
    5.5018    2.4574   -0.7146 H   0  0  0  0  0  0  0  0  0  0  0  0 
    3.0594   -0.2784    0.1192 H   0  0  0  0  0  0  0  0  0  0  0  0 
   -2.1889   -3.2733   -0.8958 H   0  0  0  0  0  0  0  0  0  0  0  0 
   -3.5956   -1.7211   -1.7915 H   0  0  0  0  0  0  0  0  0  0  0  0 
   -2.8472   -0.4534   -2.5828 H   0  0  0  0  0  0  0  0  0  0  0  0 
   -0.9300    0.3788   -1.3522 H   0  0  0  0  0  0  0  0  0  0  0  0 
    3.4060    1.8867   -1.7219 H   0  0  0  0  0  0  0  0  0  0  0  0 
  1 18  1  0  0  0  0 
  1  2  1  0  0  0  0 
  1 12  1  0  0  0  0 
  2 20  1  0  0  0  0 
  3 23  1  0  0  0  0 
  3  8  1  0  0  0  0 
  4  8  1  0  0  0  0 
  4 24  1  0  0  0  0 
  5  9  1  0  0  0  0 
  5 10  1  0  0  0  0 
  6 28  1  0  0  0  0 
  6 29  1  0  0  0  0 
  7 11  1  0  0  0  0 
  8  6  1  0  0  0  0 
  8 32  1  1  0  0  0 
  9 33  1  6  0  0  0 
  9  7  1  0  0  0  0 
  9  3  1  0  0  0  0 
 10 34  1  6  0  0  0 
 10 12  1  0  0  0  0 
 10  4  1  0  0  0  0 
 11 17  1  0  0  0  0 
 11 35  1  1  0  0  0 
 11  6  1  0  0  0  0 
 12 36  1  1  0  0  0 
 13 14  1  0  0  0  0 
 15 13  2  0  0  0  0 
 16 40  1  0  0  0  0 
 16 13  1  0  0  0  0 
 16  2  1  0  0  0  0 
 17 12  1  0  0  0  0 
 19  1  1  0  0  0  0 
 21  2  1  0  0  0  0 
 22  3  1  0  0  0  0 
 25  4  1  0  0  0  0 
 26  5  1  0  0  0  0 
 27  5  1  0  0  0  0 
 30  7  1  0  0  0  0 
 31  7  1  0  0  0  0 
 37 14  1  0  0  0  0 
 38 15  1  0  0  0  0 
 39 15  1  0  0  0  0 
 41 17  1  0  0  0  0 
M  RAD  1  14   2 
M  END 
>  <HBA> 
4 
 
>  <HBD> 
3 
 
>  <TPSA> 
76.43 
 
>  <cid> 
36162 
 
>  <dipole> 
2.84 
 
>  <excitation_energy_1> 
4.825 
 
>  <excitation_energy_2> 
5.039 
 
>  <excitation_energy_3> 
5.247 
 
>  <excitation_energy_4> 
5.304 
 
>  <homo_energy> 
-5.453 
 
>  <homo_lumo_gap> 
7.051 
 
>  <logP> 
2.546 
 
>  <lumo_energy> 
1.597 
 
>  <melting_point> 
190.06 
 
>  <molecular_refractivity> 
74.08 
 
>  <oscillator_strength_1> 
0.0062 
 
>  <oscillator_strength_2> 
0.0009 
 
>  <oscillator_strength_3> 
0.002 
 
>  <oscillator_strength_4> 
0.004 
 
>  <open_babel_can_smiles> 
[NH]C(=[NH2])NCC[C@@H]1N[C@@H]2C[C@@H]3C[C@H]1C[C@H](C2)C3 
 
>  <mulliken_charges> 
41 
1   -0.325524 
2   -0.105382 
3   -0.26592 
4   -0.276843 
5   -0.278601 
6   -0.28331 
7   -0.271343 
8   -0.082709 
9   -0.079321 
10   -0.09792 
11   0.042018 
12   0.07105 
13   0.586618 
14   -0.644991 
15   -0.756755 
16   -0.610354 
17   -0.587282 
18   0.134214 
19   0.141754 
20   0.144722 
21   0.179919 
22   0.123884 
23   0.122305 
24   0.129222 
25   0.124506 
26   0.129376 
27   0.123899 
28   0.130643 
29   0.142221 
30   0.114787 
31   0.120996 
32   0.115904 
33   0.114694 
34   0.1263 
35   0.12227 
36   0.123215 
37   0.262357 
38   0.317247 
39   0.320597 
40   0.31381 
41   0.287727 
 
>  <lowdin_charges> 
41 
1   -0.288391 
2   -0.18832 
3   -0.279878 
4   -0.28033 
5   -0.284162 
6   -0.284855 
7   -0.296016 
8   -0.134034 
9   -0.130437 
10   -0.150208 
11   -0.067485 
12   -0.063889 
13   0.121376 
14   -0.477931 
15   -0.515266 
16   -0.309738 
17   -0.37196 
18   0.14213 
19   0.141114 
20   0.136382 
21   0.162854 
22   0.138096 
23   0.137504 
24   0.139822 
25   0.13889 
26   0.143901 
27   0.139724 
28   0.146154 
29   0.149156 
30   0.135218 
31   0.138055 
32   0.140952 
33   0.137745 
34   0.147042 
35   0.138392 
36   0.13124 
37   0.245518 
38   0.274832 
39   0.276431 
40   0.270211 
41   0.25016 
 
$$$$ 
 
