PCCDB-ID:  7517 
public computational chemistry database (PCCDB) project, http://pccdb.org 
 
 19 19  0  0  0  0  0  0  0  0999 V2000 
    0.7234    1.2489   -0.2581 C   0  0  0  0  0  0  0  0  0  0  0  0 
    1.4741    0.0039    0.2369 C   0  0  0  0  0  0  0  0  0  0  0  0 
   -0.7291    1.2600    0.2419 C   0  0  0  0  0  0  0  0  0  0  0  0 
    0.7554   -1.3017   -0.1675 C   0  0  0  0  0  0  0  0  0  0  0  0 
   -1.4735   -0.0255   -0.1726 C   0  0  0  0  0  0  0  0  0  0  0  0 
   -0.6993   -1.2563    0.2362 C   0  0  0  0  0  0  0  0  0  0  0  0 
   -1.3379   -2.1392    0.9106 N   0  0  0  0  0  0  0  0  0  0  0  0 
   -0.5299   -3.2539    1.2444 O   0  0  0  0  0  0  0  0  0  0  0  0 
    0.7289    1.2639   -1.3584 H   0  0  0  0  0  0  0  0  0  0  0  0 
    1.2438    2.1578    0.0691 H   0  0  0  0  0  0  0  0  0  0  0  0 
    1.5545    0.0410    1.3321 H   0  0  0  0  0  0  0  0  0  0  0  0 
    2.4993   -0.0079   -0.1531 H   0  0  0  0  0  0  0  0  0  0  0  0 
   -1.2631    2.1371   -0.1441 H   0  0  0  0  0  0  0  0  0  0  0  0 
   -0.7365    1.3408    1.3378 H   0  0  0  0  0  0  0  0  0  0  0  0 
    1.2455   -2.1743    0.2675 H   0  0  0  0  0  0  0  0  0  0  0  0 
    0.8041   -1.4103   -1.2621 H   0  0  0  0  0  0  0  0  0  0  0  0 
   -1.5874   -0.0288   -1.2681 H   0  0  0  0  0  0  0  0  0  0  0  0 
   -2.4778   -0.0667    0.2600 H   0  0  0  0  0  0  0  0  0  0  0  0 
   -1.1512   -3.7965    1.7533 H   0  0  0  0  0  0  0  0  0  0  0  0 
  1 10  1  0  0  0  0 
  1  2  1  0  0  0  0 
  1  3  1  0  0  0  0 
  2 11  1  0  0  0  0 
  3 14  1  0  0  0  0 
  4  6  1  0  0  0  0 
  4  2  1  0  0  0  0 
  4 15  1  0  0  0  0 
  5  6  1  0  0  0  0 
  5  3  1  0  0  0  0 
  5 18  1  0  0  0  0 
  6  7  2  0  0  0  0 
  7  8  1  0  0  0  0 
  8 19  1  0  0  0  0 
  9  1  1  0  0  0  0 
 12  2  1  0  0  0  0 
 13  3  1  0  0  0  0 
 16  4  1  0  0  0  0 
 17  5  1  0  0  0  0 
M  END 
>  <HBA> 
2 
 
>  <HBD> 
1 
 
>  <TPSA> 
32.59 
 
>  <cid> 
7517 
 
>  <dipole> 
0.9 
 
>  <excitation_energy_1> 
5.924 
 
>  <excitation_energy_2> 
6.045 
 
>  <excitation_energy_3> 
6.304 
 
>  <excitation_energy_4> 
6.705 
 
>  <homo_energy> 
-6.449 
 
>  <homo_lumo_gap> 
6.833 
 
>  <logP> 
1.781 
 
>  <lumo_energy> 
0.384 
 
>  <melting_point> 
67.79 
 
>  <molecular_refractivity> 
33.26 
 
>  <oscillator_strength_1> 
0.0039 
 
>  <oscillator_strength_2> 
0.0758 
 
>  <oscillator_strength_3> 
0.0679 
 
>  <oscillator_strength_4> 
0.0384 
 
>  <open_babel_can_smiles> 
ON=C1CCCCC1 
 
>  <mulliken_charges> 
19 
1   -0.260455 
2   -0.265194 
3   -0.263245 
4   -0.327698 
5   -0.317416 
6   0.339205 
7   -0.252258 
8   -0.518006 
9   0.129661 
10   0.136067 
11   0.142492 
12   0.137059 
13   0.136201 
14   0.140776 
15   0.180286 
16   0.148135 
17   0.14333 
18   0.158438 
19   0.412622 
 
>  <lowdin_charges> 
19 
1   -0.278089 
2   -0.270081 
3   -0.274761 
4   -0.291879 
5   -0.273476 
6   0.018898 
7   -0.078591 
8   -0.396388 
9   0.135675 
10   0.146964 
11   0.142238 
12   0.145769 
13   0.147143 
14   0.141446 
15   0.170793 
16   0.152683 
17   0.147093 
18   0.160354 
19   0.354209 
 
$$$$ 
 
