PCCDB-ID:  70513 
public computational chemistry database (PCCDB) project, http://pccdb.org 
 
 18 18  0  0  0  0  0  0  0  0999 V2000 
    1.1601    0.2290   -0.1239 C   0  0  0  0  0  0  0  0  0  0  0  0 
    2.7536    2.9192   -1.3615 C   0  0  0  0  0  0  0  0  0  0  0  0 
    3.2017    2.4776   -0.0313 C   0  0  0  0  0  0  0  0  0  0  0  0 
    4.5697   -0.9109   -0.0172 C   0  0  0  0  0  0  0  0  0  0  0  0 
    2.6365    0.0231   -0.0627 C   0  0  0  0  0  0  0  0  0  0  0  0 
    4.7967    0.4480    0.0148 C   0  0  0  0  0  0  0  0  0  0  0  0 
    2.3794    3.2655   -2.4033 N   0  0  0  0  0  0  0  0  0  0  0  0 
    3.2353   -1.1619   -0.0650 N   0  0  0  0  0  0  0  0  0  0  0  0 
    3.5403    1.0539   -0.0053 N   0  0  0  0  0  0  0  0  0  0  0  0 
    6.0487    1.1153    0.0991 N   0  0  0  0  0  0  0  0  0  0  0  0 
    7.0534    0.4045    0.0818 O   0  0  0  0  0  0  0  0  0  0  0  0 
    6.0656    2.3539    0.1884 O   0  0  0  0  0  0  0  0  0  0  0  0 
    0.6828   -0.7520   -0.1436 H   0  0  0  0  0  0  0  0  0  0  0  0 
    0.8631    0.7826   -1.0226 H   0  0  0  0  0  0  0  0  0  0  0  0 
    0.7859    0.7796    0.7485 H   0  0  0  0  0  0  0  0  0  0  0  0 
    2.4056    2.6672    0.6957 H   0  0  0  0  0  0  0  0  0  0  0  0 
    4.0898    3.0370    0.2635 H   0  0  0  0  0  0  0  0  0  0  0  0 
    5.3140   -1.6935    0.0015 H   0  0  0  0  0  0  0  0  0  0  0  0 
  1  5  1  0  0  0  0 
  1 15  1  0  0  0  0 
  2  3  1  0  0  0  0 
  3  9  1  0  0  0  0 
  3 17  1  0  0  0  0 
  3 16  1  0  0  0  0 
  4 18  1  0  0  0  0 
  4  6  2  0  0  0  0 
  5  9  1  0  0  0  0 
  6 10  1  0  0  0  0 
  7  2  3  0  0  0  0 
  8  5  2  0  0  0  0 
  8  4  1  0  0  0  0 
  9  6  1  0  0  0  0 
 10 12  2  0  0  0  0 
 11 10  2  0  0  0  0 
 13  1  1  0  0  0  0 
 14  1  1  0  0  0  0 
M  END 
>  <HBA> 
3 
 
>  <HBD> 
0 
 
>  <TPSA> 
87.43 
 
>  <cid> 
70513 
 
>  <dipole> 
4.29 
 
>  <excitation_energy_1> 
3.823 
 
>  <excitation_energy_2> 
4.227 
 
>  <excitation_energy_3> 
4.237 
 
>  <excitation_energy_4> 
4.674 
 
>  <homo_energy> 
-7.41 
 
>  <homo_lumo_gap> 
4.648 
 
>  <logP> 
1.146 
 
>  <lumo_energy> 
-2.762 
 
>  <melting_point> 
98.86 
 
>  <molecular_refractivity> 
41.83 
 
>  <oscillator_strength_1> 
0.0012 
 
>  <oscillator_strength_2> 
0.1477 
 
>  <oscillator_strength_3> 
0.1059 
 
>  <oscillator_strength_4> 
0.0001 
 
>  <open_babel_can_smiles> 
N#CCn1c(C)ncc1N(=O)=O 
 
>  <mulliken_charges> 
18 
1   -0.546977 
2   0.376185 
3   -0.249091 
4   0.014148 
5   0.49836 
6   0.499238 
7   -0.443599 
8   -0.45721 
9   -0.485029 
10   0.344827 
11   -0.388694 
12   -0.429544 
13   0.209562 
14   0.201164 
15   0.175842 
16   0.219607 
17   0.271939 
18   0.189273 
 
>  <lowdin_charges> 
18 
1   -0.451651 
2   -0.02499 
3   -0.196484 
4   -0.094201 
5   0.087942 
6   -0.008677 
7   -0.089604 
8   -0.17267 
9   -0.008072 
10   0.311092 
11   -0.237302 
12   -0.271423 
13   0.193168 
14   0.183544 
15   0.171061 
16   0.193661 
17   0.22277 
18   0.191835 
 
$$$$ 
 
