PCCDB-ID:  59559 
public computational chemistry database (PCCDB) project, http://pccdb.org 
 
 26 27  0  0  0  0  0  0  0  0999 V2000 
    3.5645    1.5538    0.4744 C   0  0  0  0  0  0  0  0  0  0  0  0 
    3.6830   -1.7119   -3.6262 C   0  0  0  0  0  0  0  0  0  0  0  0 
    3.7042   -0.5875   -4.4477 C   0  0  0  0  0  0  0  0  0  0  0  0 
    3.6438   -1.5852   -2.2406 C   0  0  0  0  0  0  0  0  0  0  0  0 
    3.6412    5.1463   -3.5786 C   0  0  0  0  0  0  0  0  0  0  0  0 
    3.7117    5.2669   -5.1267 C   0  0  0  0  0  0  0  0  0  0  0  0 
    3.6461    0.8351   -2.4765 C   0  0  0  0  0  0  0  0  0  0  0  0 
    3.6862    0.6902   -3.8709 C   0  0  0  0  0  0  0  0  0  0  0  0 
    3.6255   -0.3047   -1.6660 C   0  0  0  0  0  0  0  0  0  0  0  0 
    3.6911    3.1281   -4.4460 C   0  0  0  0  0  0  0  0  0  0  0  0 
    3.6645    3.7059   -3.3042 N   0  0  0  0  0  0  0  0  0  0  0  0 
    3.7093    1.7947   -4.7407 N   0  0  0  0  0  0  0  0  0  0  0  0 
    3.7049    3.8945   -5.5833 O   0  0  0  0  0  0  0  0  0  0  0  0 
    3.5753   -0.2338    0.1162 S   0  0  0  0  0  0  0  0  0  0  0  0 
    3.5354    1.6352    1.5640 H   0  0  0  0  0  0  0  0  0  0  0  0 
    2.6806    2.0422    0.0562 H   0  0  0  0  0  0  0  0  0  0  0  0 
    4.4684    2.0437    0.1038 H   0  0  0  0  0  0  0  0  0  0  0  0 
    3.6963   -2.7014   -4.0751 H   0  0  0  0  0  0  0  0  0  0  0  0 
    3.7356   -0.6973   -5.5294 H   0  0  0  0  0  0  0  0  0  0  0  0 
    3.6273   -2.4689   -1.6092 H   0  0  0  0  0  0  0  0  0  0  0  0 
    2.7254    5.5951   -3.1735 H   0  0  0  0  0  0  0  0  0  0  0  0 
    4.4885    5.6420   -3.0894 H   0  0  0  0  0  0  0  0  0  0  0  0 
    4.6303    5.7404   -5.4867 H   0  0  0  0  0  0  0  0  0  0  0  0 
    2.8505    5.7758   -5.5690 H   0  0  0  0  0  0  0  0  0  0  0  0 
    3.6345    1.8342   -2.0654 H   0  0  0  0  0  0  0  0  0  0  0  0 
    3.7423    1.5914   -5.7295 H   0  0  0  0  0  0  0  0  0  0  0  0 
  1 15  1  0  0  0  0 
  2  4  2  0  0  0  0 
  3  8  2  0  0  0  0 
  3  2  1  0  0  0  0 
  4  9  1  0  0  0  0 
  4 20  1  0  0  0  0 
  5 11  1  0  0  0  0 
  5 21  1  0  0  0  0 
  5 22  1  0  0  0  0 
  6  5  1  0  0  0  0 
  7 25  1  0  0  0  0 
  7  9  2  0  0  0  0 
  8  7  1  0  0  0  0 
  9 14  1  0  0  0  0 
 10 11  2  0  0  0  0 
 12 10  1  0  0  0  0 
 12  8  1  0  0  0  0 
 13  6  1  0  0  0  0 
 13 10  1  0  0  0  0 
 14  1  1  0  0  0  0 
 16  1  1  0  0  0  0 
 17  1  1  0  0  0  0 
 18  2  1  0  0  0  0 
 19  3  1  0  0  0  0 
 23  6  1  0  0  0  0 
 24  6  1  0  0  0  0 
 26 12  1  0  0  0  0 
M  END 
>  <HBA> 
4 
 
>  <HBD> 
1 
 
>  <TPSA> 
58.92 
 
>  <cid> 
59559 
 
>  <dipole> 
3.31 
 
>  <excitation_energy_1> 
4.514 
 
>  <excitation_energy_2> 
4.792 
 
>  <excitation_energy_3> 
4.836 
 
>  <excitation_energy_4> 
4.885 
 
>  <homo_energy> 
-5.333 
 
>  <homo_lumo_gap> 
5.412 
 
>  <logP> 
1.715 
 
>  <lumo_energy> 
0.079 
 
>  <melting_point> 
81.85 
 
>  <molecular_refractivity> 
63.06 
 
>  <oscillator_strength_1> 
0.0277 
 
>  <oscillator_strength_2> 
0.0012 
 
>  <oscillator_strength_3> 
0.2064 
 
>  <oscillator_strength_4> 
0.0002 
 
>  <open_babel_can_smiles> 
CSc1cccc(c1)NC1=NCCO1 
 
>  <mulliken_charges> 
26 
1   -0.602309 
2   -0.123886 
3   -0.206397 
4   -0.164702 
5   -0.162022 
6   -0.058462 
7   -0.214895 
8   0.378689 
9   -0.073398 
10   0.764385 
11   -0.502961 
12   -0.771799 
13   -0.511657 
14   0.125917 
15   0.185039 
16   0.195304 
17   0.195472 
18   0.130535 
19   0.118615 
20   0.13571 
21   0.152927 
22   0.153034 
23   0.158168 
24   0.158888 
25   0.195326 
26   0.344481 
 
>  <lowdin_charges> 
26 
1   -0.547118 
2   -0.142363 
3   -0.203418 
4   -0.188232 
5   -0.209262 
6   -0.138089 
7   -0.215244 
8   0.069125 
9   -0.104395 
10   0.163276 
11   -0.277371 
12   -0.226259 
13   -0.228785 
14   0.163486 
15   0.176548 
16   0.172286 
17   0.172233 
18   0.159324 
19   0.150646 
20   0.164222 
21   0.148375 
22   0.149993 
23   0.151468 
24   0.153368 
25   0.189475 
26   0.296711 
 
$$$$ 
 
