PCCDB-ID:  15316 
public computational chemistry database (PCCDB) project, http://pccdb.org 
 
 31 33  0  0  1  0  0  0  0  0999 V2000 
   -3.3237   -1.3497    0.6980 C   0  0  0  0  0  0  0  0  0  0  0  0 
   -3.7175   -0.0169    0.8066 C   0  0  0  0  0  0  0  0  0  0  0  0 
    3.4951   -1.1633    0.3511 C   0  0  0  0  0  0  0  0  0  0  0  0 
    3.6997    0.1297    0.8332 C   0  0  0  0  0  0  0  0  0  0  0  0 
   -2.1188   -1.6667    0.0666 C   0  0  0  0  0  0  0  0  0  0  0  0 
   -2.9029    0.9894    0.2825 C   0  0  0  0  0  0  0  0  0  0  0  0 
    2.2906   -1.4727   -0.2713 C   0  0  0  0  0  0  0  0  0  0  0  0 
    2.6965    1.0796    0.6785 C   0  0  0  0  0  0  0  0  0  0  0  0 
    0.0044   -0.9955   -1.1549 C   0  0  0  0  0  0  0  0  0  0  0  0 
   -0.7828    1.7513   -0.8939 C   0  0  0  0  0  0  0  0  0  0  0  0 
   -1.2987   -0.6651   -0.4591 C   0  0  0  0  0  0  0  0  0  0  0  0 
   -1.6957    0.6805   -0.3528 C   0  0  0  0  0  0  0  0  0  0  0  0 
    1.2684   -0.5226   -0.4411 C   0  0  0  0  0  0  0  0  0  0  0  0 
    1.4778    0.7864    0.0423 C   0  0  0  0  0  0  0  0  0  0  0  0 
    0.4975    1.9659   -0.0448 C   0  0  2  0  0  0  0  0  0  0  0  0 
    0.2237    2.4373    1.3243 N   0  0  0  0  0  0  0  0  0  0  0  0 
   -3.9496   -2.1414    1.1011 H   0  0  0  0  0  0  0  0  0  0  0  0 
   -4.6546    0.2411    1.2929 H   0  0  0  0  0  0  0  0  0  0  0  0 
    4.2620   -1.9253    0.4633 H   0  0  0  0  0  0  0  0  0  0  0  0 
    4.6301    0.3951    1.3281 H   0  0  0  0  0  0  0  0  0  0  0  0 
   -1.8110   -2.7065   -0.0192 H   0  0  0  0  0  0  0  0  0  0  0  0 
   -3.2125    2.0297    0.3595 H   0  0  0  0  0  0  0  0  0  0  0  0 
    2.1266   -2.4828   -0.6402 H   0  0  0  0  0  0  0  0  0  0  0  0 
    2.8360    2.0827    1.0705 H   0  0  0  0  0  0  0  0  0  0  0  0 
   -0.0164   -0.5787   -2.1738 H   0  0  0  0  0  0  0  0  0  0  0  0 
    0.0729   -2.0804   -1.2851 H   0  0  0  0  0  0  0  0  0  0  0  0 
   -1.3143    2.7108   -0.9278 H   0  0  0  0  0  0  0  0  0  0  0  0 
   -0.4947    1.5248   -1.9300 H   0  0  0  0  0  0  0  0  0  0  0  0 
    1.0447    2.7853   -0.5331 H   0  0  0  0  0  0  0  0  0  0  0  0 
   -0.3022    1.7215    1.8261 H   0  0  0  0  0  0  0  0  0  0  0  0 
   -0.3784    3.2602    1.2847 H   0  0  0  0  0  0  0  0  0  0  0  0 
  1  2  1  0  0  0  0 
  1 17  1  0  0  0  0 
  2 18  1  0  0  0  0 
  3 19  1  0  0  0  0 
  3  4  2  0  0  0  0 
  4 20  1  0  0  0  0 
  5  1  2  0  0  0  0 
  6 22  1  0  0  0  0 
  6  2  2  0  0  0  0 
  7  3  1  0  0  0  0 
  8  4  1  0  0  0  0 
  8 24  1  0  0  0  0 
  9 11  1  0  0  0  0 
  9 13  1  0  0  0  0 
 10 12  1  0  0  0  0 
 10 15  1  0  0  0  0 
 11 12  2  0  0  0  0 
 11  5  1  0  0  0  0 
 12  6  1  0  0  0  0 
 13  7  2  0  0  0  0 
 13 14  1  0  0  0  0 
 14  8  2  0  0  0  0 
 15 29  1  6  0  0  0 
 15 14  1  0  0  0  0 
 15 16  1  0  0  0  0 
 16 30  1  0  0  0  0 
 21  5  1  0  0  0  0 
 23  7  1  0  0  0  0 
 25  9  1  0  0  0  0 
 26  9  1  0  0  0  0 
 27 10  1  0  0  0  0 
 28 10  1  0  0  0  0 
 31 16  1  0  0  0  0 
M  END 
>  <HBA> 
1 
 
>  <HBD> 
1 
 
>  <TPSA> 
26.02 
 
>  <cid> 
15316 
 
>  <dipole> 
1.29 
 
>  <excitation_energy_1> 
5.076 
 
>  <excitation_energy_2> 
5.142 
 
>  <excitation_energy_3> 
5.243 
 
>  <excitation_energy_4> 
5.387 
 
>  <homo_energy> 
-6.114 
 
>  <homo_lumo_gap> 
6.022 
 
>  <logP> 
3.534 
 
>  <lumo_energy> 
-0.093 
 
>  <melting_point> 
124.05 
 
>  <molecular_refractivity> 
66.42 
 
>  <oscillator_strength_1> 
0.0031 
 
>  <oscillator_strength_2> 
0.0109 
 
>  <oscillator_strength_3> 
0.0132 
 
>  <oscillator_strength_4> 
0.0127 
 
>  <open_babel_can_smiles> 
N[C@@H]1Cc2ccccc2Cc2c1cccc2 
 
>  <mulliken_charges> 
31 
1   -0.128181 
2   -0.127613 
3   -0.124997 
4   -0.131337 
5   -0.186313 
6   -0.20079 
7   -0.190255 
8   -0.156423 
9   -0.459565 
10   -0.370564 
11   0.140244 
12   0.129585 
13   0.123867 
14   0.105967 
15   -0.059519 
16   -0.703618 
17   0.128221 
18   0.127578 
19   0.125309 
20   0.125933 
21   0.124487 
22   0.119317 
23   0.11865 
24   0.142543 
25   0.163384 
26   0.1501 
27   0.132736 
28   0.145379 
29   0.142973 
30   0.303528 
31   0.289371 
 
>  <lowdin_charges> 
31 
1   -0.159956 
2   -0.159662 
3   -0.159096 
4   -0.16188 
5   -0.163146 
6   -0.17067 
7   -0.169661 
8   -0.145515 
9   -0.271319 
10   -0.291395 
11   -0.006648 
12   -0.015803 
13   -0.008827 
14   -0.023602 
15   -0.064312 
16   -0.548076 
17   0.158762 
18   0.156968 
19   0.156833 
20   0.156211 
21   0.153884 
22   0.150939 
23   0.150934 
24   0.165226 
25   0.158219 
26   0.153521 
27   0.147106 
28   0.151805 
29   0.148935 
30   0.259776 
31   0.250448 
 
$$$$ 
 
