PCCDB-ID:  22819 
public computational chemistry database (PCCDB) project, http://pccdb.org 
 
 20 21  0  0  1  0  0  0  0  0999 V2000 
    1.9939    1.1145   -0.0089 C   0  0  0  0  0  0  0  0  0  0  0  0 
    2.2542   -0.2552    0.1105 C   0  0  0  0  0  0  0  0  0  0  0  0 
    0.6805    1.5852   -0.1078 C   0  0  0  0  0  0  0  0  0  0  0  0 
    1.2016   -1.1748    0.1281 C   0  0  0  0  0  0  0  0  0  0  0  0 
   -1.8645    0.9113   -0.1707 C   0  0  0  0  0  0  0  0  0  0  0  0 
   -2.4632   -0.4206    0.3453 C   0  0  0  0  0  0  0  0  0  0  0  0 
   -0.3699    0.6689   -0.0839 C   0  0  0  0  0  0  0  0  0  0  0  0 
   -0.1047   -0.7005    0.0316 C   0  0  0  0  0  0  0  0  0  0  0  0 
   -1.3947   -1.4998    0.0304 C   0  0  1  0  0  0  0  0  0  0  0  0 
   -1.4061   -2.6255    0.8988 O   0  0  0  0  0  0  0  0  0  0  0  0 
    2.8206    1.8203   -0.0185 H   0  0  0  0  0  0  0  0  0  0  0  0 
    3.2805   -0.6040    0.1914 H   0  0  0  0  0  0  0  0  0  0  0  0 
    0.4862    2.6520   -0.1938 H   0  0  0  0  0  0  0  0  0  0  0  0 
    1.3903   -2.2407    0.2281 H   0  0  0  0  0  0  0  0  0  0  0  0 
   -2.1951    1.7823    0.4067 H   0  0  0  0  0  0  0  0  0  0  0  0 
   -2.1660    1.0927   -1.2126 H   0  0  0  0  0  0  0  0  0  0  0  0 
   -3.4430   -0.6576   -0.0794 H   0  0  0  0  0  0  0  0  0  0  0  0 
   -2.5799   -0.3721    1.4366 H   0  0  0  0  0  0  0  0  0  0  0  0 
   -1.5719   -1.9308   -0.9640 H   0  0  0  0  0  0  0  0  0  0  0  0 
   -1.1584   -2.3048    1.7817 H   0  0  0  0  0  0  0  0  0  0  0  0 
  1  2  2  0  0  0  0 
  2  4  1  0  0  0  0 
  2 12  1  0  0  0  0 
  3  7  2  0  0  0  0 
  3  1  1  0  0  0  0 
  4 14  1  0  0  0  0 
  5  7  1  0  0  0  0 
  5  6  1  0  0  0  0 
  5 15  1  0  0  0  0 
  6 18  1  0  0  0  0 
  7  8  1  0  0  0  0 
  8  4  2  0  0  0  0 
  9 19  1  6  0  0  0 
  9  8  1  0  0  0  0 
  9  6  1  0  0  0  0 
  9 10  1  0  0  0  0 
 10 20  1  0  0  0  0 
 11  1  1  0  0  0  0 
 13  3  1  0  0  0  0 
 16  5  1  0  0  0  0 
 17  6  1  0  0  0  0 
M  END 
>  <HBA> 
1 
 
>  <HBD> 
1 
 
>  <TPSA> 
20.23 
 
>  <cid> 
22819 
 
>  <dipole> 
1.62 
 
>  <excitation_energy_1> 
5.166 
 
>  <excitation_energy_2> 
5.725 
 
>  <excitation_energy_3> 
6.107 
 
>  <excitation_energy_4> 
6.111 
 
>  <homo_energy> 
-6.411 
 
>  <homo_lumo_gap> 
6.299 
 
>  <logP> 
1.666 
 
>  <lumo_energy> 
-0.112 
 
>  <melting_point> 
52.52 
 
>  <molecular_refractivity> 
40.23 
 
>  <oscillator_strength_1> 
0.0162 
 
>  <oscillator_strength_2> 
0.0193 
 
>  <oscillator_strength_3> 
0.0304 
 
>  <oscillator_strength_4> 
0.0572 
 
>  <open_babel_can_smiles> 
O[C@H]1CCc2c1cccc2 
 
>  <mulliken_charges> 
20 
1   -0.128424 
2   -0.134779 
3   -0.200979 
4   -0.189888 
5   -0.353352 
6   -0.298912 
7   0.137523 
8   0.070101 
9   0.079392 
10   -0.619366 
11   0.127669 
12   0.128174 
13   0.124991 
14   0.137594 
15   0.149527 
16   0.156222 
17   0.144961 
18   0.13643 
19   0.150995 
20   0.38212 
 
>  <lowdin_charges> 
20 
1   -0.156503 
2   -0.15837 
3   -0.163989 
4   -0.157702 
5   -0.27928 
6   -0.287484 
7   -0.011813 
8   -0.043925 
9   -0.004579 
10   -0.452931 
11   0.157785 
12   0.156054 
13   0.154084 
14   0.160645 
15   0.153415 
16   0.153087 
17   0.150887 
18   0.14279 
19   0.149778 
20   0.338052 
 
$$$$ 
 
