PCCDB-ID:  40983 
public computational chemistry database (PCCDB) project, http://pccdb.org 
 
 35 35  0  0  1  0  0  0  0  0999 V2000 
    2.8920   -1.1647   -3.2915 C   0  0  0  0  0  0  0  0  0  0  0  0 
    2.7307    0.1244   -0.4371 C   0  0  0  0  0  0  0  0  0  0  0  0 
    2.6043    0.3086   -2.9832 C   0  0  0  0  0  0  0  0  0  0  0  0 
    7.4321    3.7932   -3.5338 C   0  0  0  0  0  0  0  0  0  0  0  0 
    8.8230    1.8982   -3.9953 C   0  0  0  0  0  0  0  0  0  0  0  0 
    8.2092    4.5784   -4.3802 C   0  0  0  0  0  0  0  0  0  0  0  0 
    9.6053    2.6690   -4.8491 C   0  0  0  0  0  0  0  0  0  0  0  0 
    5.3921    1.6314   -2.6339 C   0  0  0  0  0  0  0  0  0  0  0  0 
    3.2527    0.8417   -1.6867 C   0  0  2  0  0  0  0  0  0  0  0  0 
    7.7196    2.4364   -3.3205 C   0  0  0  0  0  0  0  0  0  0  0  0 
    9.3114    4.0274   -5.0557 C   0  0  0  0  0  0  0  0  0  0  0  0 
    6.9038    1.5836   -2.3709 C   0  0  1  0  0  0  0  0  0  0  0  0 
   10.0571    4.7938   -5.9544 N   0  0  0  0  0  0  0  0  0  0  0  0 
    4.7134    0.7120   -1.7309 N   0  0  0  0  0  0  0  0  0  0  0  0 
    7.1690    1.9041   -0.9888 O   0  0  0  0  0  0  0  0  0  0  0  0 
    2.4878   -1.4433   -4.2716 H   0  0  0  0  0  0  0  0  0  0  0  0 
    2.4390   -1.8316   -2.5492 H   0  0  0  0  0  0  0  0  0  0  0  0 
    3.9697   -1.3545   -3.2944 H   0  0  0  0  0  0  0  0  0  0  0  0 
    1.6376    0.1775   -0.3840 H   0  0  0  0  0  0  0  0  0  0  0  0 
    3.1319    0.5868    0.4735 H   0  0  0  0  0  0  0  0  0  0  0  0 
    3.0281   -0.9293   -0.4347 H   0  0  0  0  0  0  0  0  0  0  0  0 
    1.5205    0.4740   -2.9110 H   0  0  0  0  0  0  0  0  0  0  0  0 
    2.9435    0.9259   -3.8256 H   0  0  0  0  0  0  0  0  0  0  0  0 
    6.5826    4.2555   -3.0354 H   0  0  0  0  0  0  0  0  0  0  0  0 
    9.0781    0.8516   -3.8455 H   0  0  0  0  0  0  0  0  0  0  0  0 
    7.9577    5.6262   -4.5308 H   0  0  0  0  0  0  0  0  0  0  0  0 
   10.4516    2.2193   -5.3641 H   0  0  0  0  0  0  0  0  0  0  0  0 
    5.2091    1.3441   -3.6767 H   0  0  0  0  0  0  0  0  0  0  0  0 
    5.0297    2.6754   -2.5260 H   0  0  0  0  0  0  0  0  0  0  0  0 
    2.9578    1.9088   -1.6056 H   0  0  0  0  0  0  0  0  0  0  0  0 
    7.2179    0.5388   -2.4661 H   0  0  0  0  0  0  0  0  0  0  0  0 
   10.0338    5.7923   -5.7879 H   0  0  0  0  0  0  0  0  0  0  0  0 
   11.0022    4.4672   -6.1132 H   0  0  0  0  0  0  0  0  0  0  0  0 
    5.0954    0.8791   -0.8007 H   0  0  0  0  0  0  0  0  0  0  0  0 
    7.1970    2.8719   -0.9227 H   0  0  0  0  0  0  0  0  0  0  0  0 
  1  3  1  0  0  0  0 
  1 17  1  0  0  0  0 
  2 21  1  0  0  0  0 
  2 19  1  0  0  0  0 
  2 20  1  0  0  0  0 
  3 22  1  0  0  0  0 
  3  9  1  0  0  0  0 
  4 10  1  0  0  0  0 
  4 24  1  0  0  0  0 
  5 25  1  0  0  0  0 
  5 10  2  0  0  0  0 
  6  4  2  0  0  0  0 
  7  5  1  0  0  0  0 
  8 29  1  0  0  0  0 
  8 12  1  0  0  0  0 
  8 14  1  0  0  0  0 
  9 30  1  1  0  0  0 
  9  2  1  0  0  0  0 
 10 12  1  0  0  0  0 
 11  7  2  0  0  0  0 
 11  6  1  0  0  0  0 
 12 31  1  6  0  0  0 
 12 15  1  0  0  0  0 
 13 32  1  0  0  0  0 
 13 11  1  0  0  0  0 
 14  9  1  0  0  0  0 
 14 34  1  0  0  0  0 
 15 35  1  0  0  0  0 
 16  1  1  0  0  0  0 
 18  1  1  0  0  0  0 
 23  3  1  0  0  0  0 
 26  6  1  0  0  0  0 
 27  7  1  0  0  0  0 
 28  8  1  0  0  0  0 
 33 13  1  0  0  0  0 
M  END 
>  <HBA> 
3 
 
>  <HBD> 
3 
 
>  <TPSA> 
58.28 
 
>  <cid> 
40983 
 
>  <dipole> 
3.71 
 
>  <excitation_energy_1> 
4.63 
 
>  <excitation_energy_2> 
4.806 
 
>  <excitation_energy_3> 
4.885 
 
>  <excitation_energy_4> 
5.163 
 
>  <homo_energy> 
-5.565 
 
>  <homo_lumo_gap> 
5.505 
 
>  <logP> 
2.662 
 
>  <lumo_energy> 
-0.06 
 
>  <melting_point> 
99.79 
 
>  <molecular_refractivity> 
63.81 
 
>  <oscillator_strength_1> 
0.0275 
 
>  <oscillator_strength_2> 
0.0065 
 
>  <oscillator_strength_3> 
0.0029 
 
>  <oscillator_strength_4> 
0.0153 
 
>  <open_babel_can_smiles> 
CC[C@H](NC[C@@H](c1ccc(cc1)N)O)C 
 
>  <mulliken_charges> 
35 
1   -0.443879 
2   -0.464678 
3   -0.252843 
4   -0.207196 
5   -0.193937 
6   -0.173222 
7   -0.171375 
8   -0.115214 
9   0.07275 
10   0.161306 
11   0.313285 
12   0.016998 
13   -0.787621 
14   -0.570665 
15   -0.626214 
16   0.133236 
17   0.139205 
18   0.163925 
19   0.140794 
20   0.137142 
21   0.158898 
22   0.124583 
23   0.130758 
24   0.124737 
25   0.131808 
26   0.118603 
27   0.119805 
28   0.145141 
29   0.09751 
30   0.092918 
31   0.148259 
32   0.320853 
33   0.32155 
34   0.308387 
35   0.384391 
 
>  <lowdin_charges> 
35 
1   -0.448401 
2   -0.447688 
3   -0.280005 
4   -0.162455 
5   -0.144577 
6   -0.198024 
7   -0.198461 
8   -0.214289 
9   -0.055353 
10   -0.047346 
11   0.062808 
12   -0.000995 
13   -0.483119 
14   -0.366565 
15   -0.466948 
16   0.145601 
17   0.146385 
18   0.155823 
19   0.148745 
20   0.146817 
21   0.153916 
22   0.137802 
23   0.140902 
24   0.153421 
25   0.15754 
26   0.15179 
27   0.154826 
28   0.145558 
29   0.109797 
30   0.108715 
31   0.150779 
32   0.27418 
33   0.275223 
34   0.257891 
35   0.335706 
 
$$$$ 
 
