PCCDB-ID:  72620 
public computational chemistry database (PCCDB) project, http://pccdb.org 
 
 24 24  0  0  0  0  0  0  0  0999 V2000 
    1.3774    0.1234    0.8955 C   0  0  0  0  0  0  0  0  0  0  0  0 
    3.8825    0.0045    0.7690 C   0  0  0  0  0  0  0  0  0  0  0  0 
    3.4345    1.6491   -1.9203 C   0  0  0  0  0  0  0  0  0  0  0  0 
    4.4099    0.7817   -2.5239 C   0  0  0  0  0  0  0  0  0  0  0  0 
    3.2768   -1.3948   -2.0330 C   0  0  0  0  0  0  0  0  0  0  0  0 
    2.5680    1.3518   -0.9226 C   0  0  0  0  0  0  0  0  0  0  0  0 
    2.4478   -1.0809   -1.0149 C   0  0  0  0  0  0  0  0  0  0  0  0 
    4.3519   -0.5874   -2.5751 C   0  0  0  0  0  0  0  0  0  0  0  0 
    5.3503   -1.3363   -3.3886 C   0  0  0  0  0  0  0  0  0  0  0  0 
    2.5833    0.0995   -0.0646 C   0  0  0  0  0  0  0  0  0  0  0  0 
    6.3769   -0.5685   -3.8451 O   0  0  0  0  0  0  0  0  0  0  0  0 
    5.2896   -2.5250   -3.6397 O   0  0  0  0  0  0  0  0  0  0  0  0 
    1.4372    0.9809    1.5754 H   0  0  0  0  0  0  0  0  0  0  0  0 
    1.3485   -0.7875    1.5037 H   0  0  0  0  0  0  0  0  0  0  0  0 
    0.4319    0.1923    0.3440 H   0  0  0  0  0  0  0  0  0  0  0  0 
    3.9659    0.8661    1.4426 H   0  0  0  0  0  0  0  0  0  0  0  0 
    4.7698   -0.0178    0.1322 H   0  0  0  0  0  0  0  0  0  0  0  0 
    3.8734   -0.9085    1.3759 H   0  0  0  0  0  0  0  0  0  0  0  0 
    3.3804    2.6511   -2.3448 H   0  0  0  0  0  0  0  0  0  0  0  0 
    5.2023    1.2646   -3.0879 H   0  0  0  0  0  0  0  0  0  0  0  0 
    3.1322   -2.3480   -2.5352 H   0  0  0  0  0  0  0  0  0  0  0  0 
    1.8084    2.0949   -0.6789 H   0  0  0  0  0  0  0  0  0  0  0  0 
    1.6122   -1.7540   -0.8242 H   0  0  0  0  0  0  0  0  0  0  0  0 
    6.9409   -1.1757   -4.3583 H   0  0  0  0  0  0  0  0  0  0  0  0 
  1 14  1  0  0  0  0 
  1 13  1  0  0  0  0 
  2 18  1  0  0  0  0 
  2 16  1  0  0  0  0 
  3  6  2  0  0  0  0 
  4  3  1  0  0  0  0 
  5  7  2  0  0  0  0 
  6 22  1  0  0  0  0 
  6 10  1  0  0  0  0 
  7 23  1  0  0  0  0 
  7 10  1  0  0  0  0 
  8  4  2  0  0  0  0 
  8  5  1  0  0  0  0 
  9  8  1  0  0  0  0 
 10  2  1  0  0  0  0 
 10  1  1  0  0  0  0 
 11  9  1  0  0  0  0 
 12  9  2  0  0  0  0 
 15  1  1  0  0  0  0 
 17  2  1  0  0  0  0 
 19  3  1  0  0  0  0 
 20  4  1  0  0  0  0 
 21  5  1  0  0  0  0 
 24 11  1  0  0  0  0 
M  END 
>  <HBA> 
2 
 
>  <HBD> 
1 
 
>  <TPSA> 
37.3 
 
>  <cid> 
72620 
 
>  <dipole> 
2.24 
 
>  <excitation_energy_1> 
3.912 
 
>  <excitation_energy_2> 
4.48 
 
>  <excitation_energy_3> 
4.673 
 
>  <excitation_energy_4> 
5.568 
 
>  <homo_energy> 
-6.128 
 
>  <homo_lumo_gap> 
4.406 
 
>  <logP> 
2.15 
 
>  <lumo_energy> 
-1.722 
 
>  <melting_point> 
121.99 
 
>  <molecular_refractivity> 
48.16 
 
>  <oscillator_strength_1> 
0.1091 
 
>  <oscillator_strength_2> 
0.0252 
 
>  <oscillator_strength_3> 
0.039 
 
>  <oscillator_strength_4> 
0.0683 
 
>  <open_babel_can_smiles> 
OC(=O)C1=CC=CC(C=C1)(C)C 
 
>  <mulliken_charges> 
24 
1   -0.47314 
2   -0.435432 
3   -0.118477 
4   -0.184602 
5   -0.145561 
6   -0.11275 
7   -0.132392 
8   0.048425 
9   0.545179 
10   0.041936 
11   -0.5886 
12   -0.477358 
13   0.145803 
14   0.148852 
15   0.146552 
16   0.139069 
17   0.160323 
18   0.14353 
19   0.137767 
20   0.167334 
21   0.16452 
22   0.135522 
23   0.133076 
24   0.410424 
 
>  <lowdin_charges> 
24 
1   -0.442865 
2   -0.43911 
3   -0.17361 
4   -0.134062 
5   -0.159857 
6   -0.125773 
7   -0.146334 
8   -0.053138 
9   0.191515 
10   0.009468 
11   -0.366317 
12   -0.274358 
13   0.151553 
14   0.153111 
15   0.14988 
16   0.148581 
17   0.160269 
18   0.150983 
19   0.162423 
20   0.176476 
21   0.1784 
22   0.159605 
23   0.159047 
24   0.364114 
 
$$$$ 
 
