PCCDB-ID:  70510 
public computational chemistry database (PCCDB) project, http://pccdb.org 
 
 19 19  0  0  0  0  0  0  0  0999 V2000 
    3.3296    1.5495    2.1683 C   0  0  0  0  0  0  0  0  0  0  0  0 
    2.5230   -2.5052    2.3440 C   0  0  0  0  0  0  0  0  0  0  0  0 
    1.9376   -3.2128    3.3826 C   0  0  0  0  0  0  0  0  0  0  0  0 
    1.0964   -0.6686    2.8904 C   0  0  0  0  0  0  0  0  0  0  0  0 
    2.1135   -1.1873    2.0780 C   0  0  0  0  0  0  0  0  0  0  0  0 
    0.9320   -2.5751    4.1315 C   0  0  0  0  0  0  0  0  0  0  0  0 
    2.7174   -0.4036    0.9575 C   0  0  0  0  0  0  0  0  0  0  0  0 
    3.1999    0.7664    0.9577 N   0  0  0  0  0  0  0  0  0  0  0  0 
    0.5138   -1.3365    3.8886 N   0  0  0  0  0  0  0  0  0  0  0  0 
    0.3051   -3.1858    5.1668 O   0  0  0  0  0  0  0  0  0  0  0  0 
    2.7816   -1.0926   -0.2318 O   0  0  0  0  0  0  0  0  0  0  0  0 
    4.3483    1.9534    2.2131 H   0  0  0  0  0  0  0  0  0  0  0  0 
    3.1322    1.0086    3.1054 H   0  0  0  0  0  0  0  0  0  0  0  0 
    2.6530    2.4126    2.1208 H   0  0  0  0  0  0  0  0  0  0  0  0 
    3.3079   -2.9618    1.7464 H   0  0  0  0  0  0  0  0  0  0  0  0 
    2.2484   -4.2292    3.6114 H   0  0  0  0  0  0  0  0  0  0  0  0 
    0.7185    0.3359    2.7116 H   0  0  0  0  0  0  0  0  0  0  0  0 
    0.6713   -4.0769    5.2809 H   0  0  0  0  0  0  0  0  0  0  0  0 
    2.1594   -1.8357   -0.1892 H   0  0  0  0  0  0  0  0  0  0  0  0 
  1 12  1  0  0  0  0 
  1 13  1  0  0  0  0 
  2  3  2  0  0  0  0 
  3 16  1  0  0  0  0 
  3  6  1  0  0  0  0 
  4  9  1  0  0  0  0 
  5  2  1  0  0  0  0 
  5  4  2  0  0  0  0 
  6 10  1  0  0  0  0 
  7  8  2  0  0  0  0 
  7  5  1  0  0  0  0 
  8  1  1  0  0  0  0 
  9  6  2  0  0  0  0 
 10 18  1  0  0  0  0 
 11 19  1  0  0  0  0 
 11  7  1  0  0  0  0 
 14  1  1  0  0  0  0 
 15  2  1  0  0  0  0 
 17  4  1  0  0  0  0 
M  END 
>  <HBA> 
3 
 
>  <HBD> 
2 
 
>  <TPSA> 
61.96 
 
>  <cid> 
70510 
 
>  <dipole> 
4.43 
 
>  <excitation_energy_1> 
4.648 
 
>  <excitation_energy_2> 
4.714 
 
>  <excitation_energy_3> 
4.796 
 
>  <excitation_energy_4> 
5.05 
 
>  <homo_energy> 
-6.593 
 
>  <homo_lumo_gap> 
5.453 
 
>  <logP> 
0.125 
 
>  <lumo_energy> 
-1.14 
 
>  <melting_point> 
148.11 
 
>  <molecular_refractivity> 
40.06 
 
>  <oscillator_strength_1> 
0.0092 
 
>  <oscillator_strength_2> 
0.0233 
 
>  <oscillator_strength_3> 
0.0052 
 
>  <oscillator_strength_4> 
0.013 
 
>  <open_babel_can_smiles> 
C/N=C(\c1ccc(nc1)O)/O 
 
>  <mulliken_charges> 
19 
1   -0.328945 
2   -0.141668 
3   -0.201757 
4   0.014599 
5   0.013744 
6   0.504723 
7   0.414564 
8   -0.393482 
9   -0.447091 
10   -0.588623 
11   -0.58129 
12   0.162164 
13   0.135366 
14   0.15828 
15   0.162867 
16   0.137686 
17   0.165807 
18   0.412662 
19   0.400393 
 
>  <lowdin_charges> 
19 
1   -0.358344 
2   -0.124807 
3   -0.223359 
4   -0.069762 
5   -0.086607 
6   0.141307 
7   0.118161 
8   -0.189163 
9   -0.15002 
10   -0.344088 
11   -0.373582 
12   0.155276 
13   0.134393 
14   0.154499 
15   0.173257 
16   0.162507 
17   0.167502 
18   0.360496 
19   0.352334 
 
$$$$ 
 
