PCCDB-ID:  38073 
public computational chemistry database (PCCDB) project, http://pccdb.org 
 
 36 35  0  0  0  0  0  0  0  0999 V2000 
    7.9165    2.2667   -2.2007 C   0  0  0  0  0  0  0  0  0  0  0  0 
    9.0786    2.0611   -1.2216 C   0  0  0  0  0  0  0  0  0  0  0  0 
    8.8709    0.9489   -0.1769 C   0  0  0  0  0  0  0  0  0  0  0  0 
    5.7878   -4.5676   -4.2837 C   0  0  0  0  0  0  0  0  0  0  0  0 
    6.9699   -4.1534   -3.3975 C   0  0  0  0  0  0  0  0  0  0  0  0 
    5.8754   -6.0172   -4.7761 C   0  0  0  0  0  0  0  0  0  0  0  0 
    6.8856   -2.7015   -2.9109 C   0  0  0  0  0  0  0  0  0  0  0  0 
    4.6902   -6.4331   -5.6498 C   0  0  0  0  0  0  0  0  0  0  0  0 
    9.0188   -0.4932   -0.6796 C   0  0  0  0  0  0  0  0  0  0  0  0 
    8.0549   -2.2982   -2.0103 C   0  0  0  0  0  0  0  0  0  0  0  0 
    4.8593   -7.8102   -6.1305 N   0  0  0  0  0  0  0  0  0  0  0  0 
    7.9599   -0.8977   -1.6042 N   0  0  0  0  0  0  0  0  0  0  0  0 
    8.1344    3.0833   -2.8997 H   0  0  0  0  0  0  0  0  0  0  0  0 
    6.9959    2.5313   -1.6635 H   0  0  0  0  0  0  0  0  0  0  0  0 
    7.7215    1.3559   -2.7725 H   0  0  0  0  0  0  0  0  0  0  0  0 
    9.2621    3.0028   -0.6859 H   0  0  0  0  0  0  0  0  0  0  0  0 
    9.9994    1.8492   -1.7837 H   0  0  0  0  0  0  0  0  0  0  0  0 
    7.8851    1.0689    0.2997 H   0  0  0  0  0  0  0  0  0  0  0  0 
    9.6072    1.0822    0.6274 H   0  0  0  0  0  0  0  0  0  0  0  0 
    5.7317   -3.8919   -5.1499 H   0  0  0  0  0  0  0  0  0  0  0  0 
    4.8502   -4.4249   -3.7259 H   0  0  0  0  0  0  0  0  0  0  0  0 
    7.9070   -4.2961   -3.9551 H   0  0  0  0  0  0  0  0  0  0  0  0 
    7.0261   -4.8283   -2.5305 H   0  0  0  0  0  0  0  0  0  0  0  0 
    5.9364   -6.6924   -3.9083 H   0  0  0  0  0  0  0  0  0  0  0  0 
    6.7987   -6.1692   -5.3498 H   0  0  0  0  0  0  0  0  0  0  0  0 
    5.9416   -2.5576   -2.3626 H   0  0  0  0  0  0  0  0  0  0  0  0 
    6.8518   -2.0173   -3.7687 H   0  0  0  0  0  0  0  0  0  0  0  0 
    4.6444   -5.7792   -6.5306 H   0  0  0  0  0  0  0  0  0  0  0  0 
    3.7513   -6.2661   -5.0881 H   0  0  0  0  0  0  0  0  0  0  0  0 
    9.0807   -1.1686    0.1980 H   0  0  0  0  0  0  0  0  0  0  0  0 
    9.9783   -0.5943   -1.2071 H   0  0  0  0  0  0  0  0  0  0  0  0 
    8.9991   -2.4239   -2.5586 H   0  0  0  0  0  0  0  0  0  0  0  0 
    8.1093   -2.9880   -1.1430 H   0  0  0  0  0  0  0  0  0  0  0  0 
    4.8167   -8.4523   -5.3393 H   0  0  0  0  0  0  0  0  0  0  0  0 
    4.0796   -8.0621   -6.7362 H   0  0  0  0  0  0  0  0  0  0  0  0 
    7.0580   -0.7482   -1.1507 H   0  0  0  0  0  0  0  0  0  0  0  0 
  1 14  1  0  0  0  0 
  1  2  1  0  0  0  0 
  2 16  1  0  0  0  0 
  2  3  1  0  0  0  0 
  3 18  1  0  0  0  0 
  3 19  1  0  0  0  0 
  4 21  1  0  0  0  0 
  4  5  1  0  0  0  0 
  5  7  1  0  0  0  0 
  5 23  1  0  0  0  0 
  6  4  1  0  0  0  0 
  6 24  1  0  0  0  0 
  7 26  1  0  0  0  0 
  7 10  1  0  0  0  0 
  8 29  1  0  0  0  0 
  8  6  1  0  0  0  0 
  9  3  1  0  0  0  0 
  9 30  1  0  0  0  0 
 10 12  1  0  0  0  0 
 10 33  1  0  0  0  0 
 11  8  1  0  0  0  0 
 11 34  1  0  0  0  0 
 12 36  1  0  0  0  0 
 12  9  1  0  0  0  0 
 13  1  1  0  0  0  0 
 15  1  1  0  0  0  0 
 17  2  1  0  0  0  0 
 20  4  1  0  0  0  0 
 22  5  1  0  0  0  0 
 25  6  1  0  0  0  0 
 27  7  1  0  0  0  0 
 28  8  1  0  0  0  0 
 31  9  1  0  0  0  0 
 32 10  1  0  0  0  0 
 35 11  1  0  0  0  0 
M  END 
>  <HBA> 
2 
 
>  <HBD> 
2 
 
>  <TPSA> 
38.05 
 
>  <cid> 
38073 
 
>  <dipole> 
2.04 
 
>  <excitation_energy_1> 
5.378 
 
>  <excitation_energy_2> 
5.568 
 
>  <excitation_energy_3> 
5.674 
 
>  <excitation_energy_4> 
5.832 
 
>  <homo_energy> 
-5.842 
 
>  <homo_lumo_gap> 
8.123 
 
>  <logP> 
2.986 
 
>  <lumo_energy> 
2.28 
 
>  <melting_point> 
52.21 
 
>  <molecular_refractivity> 
55.69 
 
>  <oscillator_strength_1> 
0.004 
 
>  <oscillator_strength_2> 
0.0132 
 
>  <oscillator_strength_3> 
0.0193 
 
>  <oscillator_strength_4> 
0.0009 
 
>  <open_babel_can_smiles> 
CCCCNCCCCCCN 
 
>  <mulliken_charges> 
36 
1   -0.446887 
2   -0.237311 
3   -0.268708 
4   -0.255511 
5   -0.25518 
6   -0.247032 
7   -0.267175 
8   -0.133135 
9   -0.108382 
10   -0.105957 
11   -0.715931 
12   -0.549517 
13   0.131349 
14   0.127052 
15   0.17584 
16   0.126427 
17   0.128537 
18   0.12246 
19   0.130678 
20   0.130539 
21   0.125675 
22   0.132086 
23   0.127574 
24   0.120357 
25   0.146922 
26   0.121609 
27   0.145246 
28   0.137256 
29   0.108437 
30   0.105032 
31   0.135342 
32   0.136882 
33   0.104432 
34   0.289923 
35   0.293985 
36   0.287087 
 
>  <lowdin_charges> 
36 
1   -0.456009 
2   -0.269761 
3   -0.280229 
4   -0.274117 
5   -0.273374 
6   -0.278889 
7   -0.279052 
8   -0.20443 
9   -0.201359 
10   -0.200985 
11   -0.56086 
12   -0.359134 
13   0.144494 
14   0.139388 
15   0.161883 
16   0.138691 
17   0.139018 
18   0.135168 
19   0.146157 
20   0.139779 
21   0.136558 
22   0.140161 
23   0.138043 
24   0.134749 
25   0.148596 
26   0.134604 
27   0.147774 
28   0.140777 
29   0.114182 
30   0.11452 
31   0.138432 
32   0.139693 
33   0.113416 
34   0.250613 
35   0.254028 
36   0.247476 
 
$$$$ 
 
