PCCDB-ID:  39391 
public computational chemistry database (PCCDB) project, http://pccdb.org 
 
 18 18  0  0  0  0  0  0  0  0999 V2000 
    1.5383   -1.0481    0.4157 C   0  0  0  0  0  0  0  0  0  0  0  0 
    2.0126    0.1440    0.0341 C   0  0  0  0  0  0  0  0  0  0  0  0 
    4.6172    1.2569    2.5437 C   0  0  0  0  0  0  0  0  0  0  0  0 
    4.5468    2.6513    2.4560 C   0  0  0  0  0  0  0  0  0  0  0  0 
    3.7914    0.4600    1.7556 C   0  0  0  0  0  0  0  0  0  0  0  0 
    3.6407    3.2313    1.5781 C   0  0  0  0  0  0  0  0  0  0  0  0 
    1.8149    3.1396   -0.0797 C   0  0  0  0  0  0  0  0  0  0  0  0 
    2.8597    1.0245    0.8672 C   0  0  0  0  0  0  0  0  0  0  0  0 
    2.7941    2.4384    0.7870 C   0  0  0  0  0  0  0  0  0  0  0  0 
    1.7649    4.3499   -0.2097 O   0  0  0  0  0  0  0  0  0  0  0  0 
    0.9422   -1.6567   -0.2577 H   0  0  0  0  0  0  0  0  0  0  0  0 
    1.7111   -1.4500    1.4107 H   0  0  0  0  0  0  0  0  0  0  0  0 
    1.7727    0.4939   -0.9674 H   0  0  0  0  0  0  0  0  0  0  0  0 
    5.3294    0.7886    3.2180 H   0  0  0  0  0  0  0  0  0  0  0  0 
    5.1965    3.2734    3.0651 H   0  0  0  0  0  0  0  0  0  0  0  0 
    3.8864   -0.6208    1.7994 H   0  0  0  0  0  0  0  0  0  0  0  0 
    3.5537    4.3094    1.4858 H   0  0  0  0  0  0  0  0  0  0  0  0 
    1.0893    2.4970   -0.6162 H   0  0  0  0  0  0  0  0  0  0  0  0 
  1 12  1  0  0  0  0 
  2  1  2  0  0  0  0 
  2  8  1  0  0  0  0 
  3 14  1  0  0  0  0 
  4  3  1  0  0  0  0 
  4 15  1  0  0  0  0 
  5 16  1  0  0  0  0 
  5  3  2  0  0  0  0 
  6  4  2  0  0  0  0 
  7  9  1  0  0  0  0 
  8  5  1  0  0  0  0 
  9  8  2  0  0  0  0 
  9  6  1  0  0  0  0 
 10  7  2  0  0  0  0 
 11  1  1  0  0  0  0 
 13  2  1  0  0  0  0 
 17  6  1  0  0  0  0 
 18  7  1  0  0  0  0 
M  END 
>  <HBA> 
1 
 
>  <HBD> 
0 
 
>  <TPSA> 
17.07 
 
>  <cid> 
39391 
 
>  <dipole> 
3.32 
 
>  <excitation_energy_1> 
3.543 
 
>  <excitation_energy_2> 
4.079 
 
>  <excitation_energy_3> 
4.764 
 
>  <excitation_energy_4> 
5.051 
 
>  <homo_energy> 
-6.593 
 
>  <homo_lumo_gap> 
4.762 
 
>  <logP> 
2.142 
 
>  <lumo_energy> 
-1.831 
 
>  <melting_point> 
31.22 
 
>  <molecular_refractivity> 
41.92 
 
>  <oscillator_strength_1> 
0.0014 
 
>  <oscillator_strength_2> 
0.0812 
 
>  <oscillator_strength_3> 
0.1589 
 
>  <oscillator_strength_4> 
0.0499 
 
>  <open_babel_can_smiles> 
O=Cc1ccccc1C=C 
 
>  <mulliken_charges> 
18 
1   -0.331717 
2   -0.136379 
3   -0.118177 
4   -0.128256 
5   -0.186789 
6   -0.161634 
7   0.197343 
8   0.107728 
9   0.023421 
10   -0.408726 
11   0.151489 
12   0.150208 
13   0.147327 
14   0.140803 
15   0.140956 
16   0.138486 
17   0.167166 
18   0.106752 
 
>  <lowdin_charges> 
18 
1   -0.318044 
2   -0.155359 
3   -0.135905 
4   -0.156634 
5   -0.156161 
6   -0.120888 
7   0.039968 
8   0.011072 
9   -0.060809 
10   -0.229286 
11   0.167359 
12   0.160979 
13   0.161335 
14   0.164288 
15   0.164797 
16   0.16138 
17   0.175581 
18   0.126329 
 
$$$$ 
 
