PCCDB-ID:  48549 
public computational chemistry database (PCCDB) project, http://pccdb.org 
 
 27 27  0  0  1  0  0  0  0  0999 V2000 
    2.5105    0.5526   -2.0872 C   0  0  0  0  0  0  0  0  0  0  0  0 
    3.7709   -1.5038    2.6355 C   0  0  0  0  0  0  0  0  0  0  0  0 
    6.2475   -1.4483    2.3667 C   0  0  0  0  0  0  0  0  0  0  0  0 
    3.0746   -0.5623   -1.6234 C   0  0  0  0  0  0  0  0  0  0  0  0 
    3.2244   -0.8788   -0.1593 C   0  0  0  0  0  0  0  0  0  0  0  0 
    4.8339   -1.3283    1.8365 C   0  0  0  0  0  0  0  0  0  0  0  0 
    5.4336    0.3234    0.0528 C   0  0  0  0  0  0  0  0  0  0  0  0 
    5.4204   -2.0754   -0.4785 C   0  0  0  0  0  0  0  0  0  0  0  0 
    6.5050   -0.5239   -1.8144 C   0  0  0  0  0  0  0  0  0  0  0  0 
    4.7117   -0.9949    0.3400 C   0  0  2  0  0  0  0  0  0  0  0  0 
    6.2404    0.5359   -0.9054 N   0  0  0  0  0  0  0  0  0  0  0  0 
    6.2156   -1.8694   -1.4481 N   0  0  0  0  0  0  0  0  0  0  0  0 
    5.1450    1.3447    0.8866 O   0  0  0  0  0  0  0  0  0  0  0  0 
    5.1223   -3.3512   -0.1532 O   0  0  0  0  0  0  0  0  0  0  0  0 
    7.0093   -0.2892   -2.8875 O   0  0  0  0  0  0  0  0  0  0  0  0 
    2.4143    0.7384   -3.1528 H   0  0  0  0  0  0  0  0  0  0  0  0 
    2.1287    1.3248   -1.4223 H   0  0  0  0  0  0  0  0  0  0  0  0 
    3.9056   -1.7382    3.6881 H   0  0  0  0  0  0  0  0  0  0  0  0 
    2.7449   -1.4253    2.2927 H   0  0  0  0  0  0  0  0  0  0  0  0 
    6.2463   -1.7009    3.4303 H   0  0  0  0  0  0  0  0  0  0  0  0 
    6.8014   -0.5108    2.2382 H   0  0  0  0  0  0  0  0  0  0  0  0 
    6.8091   -2.2232    1.8315 H   0  0  0  0  0  0  0  0  0  0  0  0 
    3.4500   -1.3060   -2.3247 H   0  0  0  0  0  0  0  0  0  0  0  0 
    2.7267   -1.8322    0.0640 H   0  0  0  0  0  0  0  0  0  0  0  0 
    2.7197   -0.1079    0.4336 H   0  0  0  0  0  0  0  0  0  0  0  0 
    4.5864    1.0155    1.6131 H   0  0  0  0  0  0  0  0  0  0  0  0 
    4.5763   -3.3558    0.6535 H   0  0  0  0  0  0  0  0  0  0  0  0 
  1  4  2  0  0  0  0 
  1 17  1  0  0  0  0 
  2 18  1  0  0  0  0 
  3 20  1  0  0  0  0 
  4  5  1  0  0  0  0 
  5 24  1  0  0  0  0 
  5 10  1  0  0  0  0 
  5 25  1  0  0  0  0 
  6  3  1  0  0  0  0 
  6  2  2  0  0  0  0 
  7 10  1  0  0  0  0 
  7 13  1  0  0  0  0 
  8 14  1  0  0  0  0 
  8 10  1  0  0  0  0 
  9 12  1  0  0  0  0 
  9 11  2  0  0  0  0 
 10  6  1  1  0  0  0 
 11  7  2  0  0  0  0 
 12  8  2  0  0  0  0 
 13 26  1  0  0  0  0 
 14 27  1  0  0  0  0 
 15  9  2  0  0  0  0 
 16  1  1  0  0  0  0 
 19  2  1  0  0  0  0 
 21  3  1  0  0  0  0 
 22  3  1  0  0  0  0 
 23  4  1  0  0  0  0 
M  END 
>  <HBA> 
5 
 
>  <HBD> 
2 
 
>  <TPSA> 
75.27 
 
>  <cid> 
48549 
 
>  <dipole> 
9.52 
 
>  <excitation_energy_1> 
4.015 
 
>  <excitation_energy_2> 
4.252 
 
>  <excitation_energy_3> 
4.994 
 
>  <excitation_energy_4> 
5.097 
 
>  <homo_energy> 
-6.895 
 
>  <homo_lumo_gap> 
5.385 
 
>  <logP> 
1.149 
 
>  <lumo_energy> 
-1.51 
 
>  <melting_point> 
103.13 
 
>  <molecular_refractivity> 
61.28 
 
>  <oscillator_strength_1> 
0.0006 
 
>  <oscillator_strength_2> 
0.0003 
 
>  <oscillator_strength_3> 
0.0305 
 
>  <oscillator_strength_4> 
0.0158 
 
>  <open_babel_can_smiles> 
C=CC[C@@]1(C(=C)C)C(=N[C](=[N]=C1O)=O)O 
 
>  <mulliken_charges> 
27 
1   -0.323225 
2   -0.408382 
3   -0.524324 
4   -0.063608 
5   -0.324276 
6   0.120919 
7   0.553819 
8   0.539655 
9   0.618233 
10   -0.174968 
11   -0.463749 
12   -0.467216 
13   -0.578857 
14   -0.578289 
15   -0.428682 
16   0.163151 
17   0.14499 
18   0.165174 
19   0.165685 
20   0.16887 
21   0.190953 
22   0.190273 
23   0.166644 
24   0.159883 
25   0.154296 
26   0.416199 
27   0.416831 
 
>  <lowdin_charges> 
27 
1   -0.30958 
2   -0.350049 
3   -0.450564 
4   -0.164752 
5   -0.265963 
6   -0.024689 
7   0.146483 
8   0.140907 
9   0.174534 
10   -0.061737 
11   -0.177318 
12   -0.18205 
13   -0.329808 
14   -0.330811 
15   -0.207791 
16   0.169899 
17   0.159465 
18   0.170065 
19   0.168138 
20   0.165406 
21   0.175843 
22   0.176438 
23   0.170329 
24   0.157095 
25   0.156465 
26   0.362339 
27   0.361708 
 
$$$$ 
 
