PCCDB-ID:  13064 
public computational chemistry database (PCCDB) project, http://pccdb.org 
 
 30 30  0  0  0  0  0  0  0  0999 V2000 
   -2.8959   -1.0180   -0.0165 C   0  0  0  0  0  0  0  0  0  0  0  0 
   -3.0263    0.5165    0.0168 C   0  0  0  0  0  0  0  0  0  0  0  0 
    2.9901   -0.5138   -0.0878 C   0  0  0  0  0  0  0  0  0  0  0  0 
    2.8610    1.0105    0.0874 C   0  0  0  0  0  0  0  0  0  0  0  0 
   -1.6099   -1.5696   -0.6607 C   0  0  0  0  0  0  0  0  0  0  0  0 
   -1.8519    1.2772    0.6615 C   0  0  0  0  0  0  0  0  0  0  0  0 
    1.9062   -1.3705    0.5564 C   0  0  0  0  0  0  0  0  0  0  0  0 
    1.6479    1.6730   -0.5554 C   0  0  0  0  0  0  0  0  0  0  0  0 
   -0.4462   -1.6267    0.3162 C   0  0  0  0  0  0  0  0  0  0  0  0 
   -0.7140    1.5287   -0.3149 C   0  0  0  0  0  0  0  0  0  0  0  0 
   -0.5494   -1.8988    1.4947 O   0  0  0  0  0  0  0  0  0  0  0  0 
   -0.8614    1.7786   -1.4937 O   0  0  0  0  0  0  0  0  0  0  0  0 
    0.7321   -1.3591   -0.2893 O   0  0  0  0  0  0  0  0  0  0  0  0 
    0.4925    1.4644    0.2907 O   0  0  0  0  0  0  0  0  0  0  0  0 
   -3.7592   -1.4135   -0.5651 H   0  0  0  0  0  0  0  0  0  0  0  0 
   -2.9587   -1.4208    1.0010 H   0  0  0  0  0  0  0  0  0  0  0  0 
   -3.9440    0.7606    0.5653 H   0  0  0  0  0  0  0  0  0  0  0  0 
   -3.1559    0.9033   -1.0005 H   0  0  0  0  0  0  0  0  0  0  0  0 
    3.9474   -0.8215    0.3535 H   0  0  0  0  0  0  0  0  0  0  0  0 
    3.0489   -0.7654   -1.1549 H   0  0  0  0  0  0  0  0  0  0  0  0 
    3.7524    1.4749   -0.3548 H   0  0  0  0  0  0  0  0  0  0  0  0 
    2.8780    1.2683    1.1546 H   0  0  0  0  0  0  0  0  0  0  0  0 
   -1.3210   -1.0116   -1.5558 H   0  0  0  0  0  0  0  0  0  0  0  0 
   -1.7833   -2.6079   -0.9764 H   0  0  0  0  0  0  0  0  0  0  0  0 
   -1.4739    0.7762    1.5570 H   0  0  0  0  0  0  0  0  0  0  0  0 
   -2.1978    2.2715    0.9766 H   0  0  0  0  0  0  0  0  0  0  0  0 
    1.6305   -1.0129    1.5513 H   0  0  0  0  0  0  0  0  0  0  0  0 
    2.2376   -2.4109    0.6504 H   0  0  0  0  0  0  0  0  0  0  0  0 
    1.4355    1.2748   -1.5504 H   0  0  0  0  0  0  0  0  0  0  0  0 
    1.7997    2.7544   -0.6490 H   0  0  0  0  0  0  0  0  0  0  0  0 
  1  2  1  0  0  0  0 
  1 16  1  0  0  0  0 
  2 17  1  0  0  0  0 
  2  6  1  0  0  0  0 
  3  4  1  0  0  0  0 
  3 19  1  0  0  0  0 
  3  7  1  0  0  0  0 
  4 22  1  0  0  0  0 
  5  1  1  0  0  0  0 
  5  9  1  0  0  0  0 
  6 26  1  0  0  0  0 
  6 25  1  0  0  0  0 
  7 28  1  0  0  0  0 
  7 27  1  0  0  0  0 
  8  4  1  0  0  0  0 
  8 14  1  0  0  0  0 
  9 11  2  0  0  0  0 
 10 14  1  0  0  0  0 
 10  6  1  0  0  0  0 
 12 10  2  0  0  0  0 
 13  9  1  0  0  0  0 
 13  7  1  0  0  0  0 
 15  1  1  0  0  0  0 
 18  2  1  0  0  0  0 
 20  3  1  0  0  0  0 
 21  4  1  0  0  0  0 
 23  5  1  0  0  0  0 
 24  5  1  0  0  0  0 
 29  8  1  0  0  0  0 
 30  8  1  0  0  0  0 
M  END 
>  <HBA> 
4 
 
>  <HBD> 
0 
 
>  <TPSA> 
52.6 
 
>  <cid> 
13064 
 
>  <dipole> 
1.72 
 
>  <excitation_energy_1> 
5.7 
 
>  <excitation_energy_2> 
5.739 
 
>  <excitation_energy_3> 
6.861 
 
>  <excitation_energy_4> 
6.876 
 
>  <homo_energy> 
-7.257 
 
>  <homo_lumo_gap> 
7.331 
 
>  <logP> 
1.427 
 
>  <lumo_energy> 
0.073 
 
>  <melting_point> 
18.24 
 
>  <molecular_refractivity> 
50.64 
 
>  <oscillator_strength_1> 
0.0025 
 
>  <oscillator_strength_2> 
0.0001 
 
>  <oscillator_strength_3> 
0.0008 
 
>  <oscillator_strength_4> 
0.0001 
 
>  <open_babel_can_smiles> 
O=C1CCCCC(=O)OCCCCO1 
 
>  <mulliken_charges> 
30 
1   -0.266571 
2   -0.266248 
3   -0.285064 
4   -0.285049 
5   -0.370999 
6   -0.371518 
7   -0.038764 
8   -0.038972 
9   0.630544 
10   0.630656 
11   -0.487114 
12   -0.487043 
13   -0.465095 
14   -0.465002 
15   0.136833 
16   0.166207 
17   0.136798 
18   0.16615 
19   0.144161 
20   0.154033 
21   0.144189 
22   0.154 
23   0.182532 
24   0.173656 
25   0.182593 
26   0.173729 
27   0.175525 
28   0.1501 
29   0.175645 
30   0.150086 
 
>  <lowdin_charges> 
30 
1   -0.274672 
2   -0.274243 
3   -0.2822 
4   -0.282817 
5   -0.306358 
6   -0.306888 
7   -0.128506 
8   -0.127822 
9   0.19235 
10   0.192477 
11   -0.273044 
12   -0.273141 
13   -0.194196 
14   -0.194267 
15   0.149454 
16   0.15698 
17   0.14889 
18   0.156989 
19   0.154577 
20   0.15149 
21   0.155269 
22   0.151472 
23   0.17105 
24   0.173097 
25   0.171147 
26   0.173735 
27   0.161264 
28   0.148734 
29   0.161295 
30   0.147884 
 
$$$$ 
 
