PCCDB-ID:  33377 
public computational chemistry database (PCCDB) project, http://pccdb.org 
 
 35 34  0  0  0  0  0  0  0  0999 V2000 
    0.7763    0.1706    0.0924 C   0  0  0  0  0  0  0  0  0  0  0  0 
    2.3077    0.1333    0.0683 C   0  0  0  0  0  0  0  0  0  0  0  0 
    2.8759   -1.2660   -0.2008 C   0  0  0  0  0  0  0  0  0  0  0  0 
    4.4090   -1.3130   -0.2239 C   0  0  0  0  0  0  0  0  0  0  0  0 
    4.9761   -2.7111   -0.5021 C   0  0  0  0  0  0  0  0  0  0  0  0 
    6.5094   -2.7598   -0.5181 C   0  0  0  0  0  0  0  0  0  0  0  0 
    7.0747   -4.1550   -0.8132 C   0  0  0  0  0  0  0  0  0  0  0  0 
    8.6080   -4.2062   -0.8154 C   0  0  0  0  0  0  0  0  0  0  0  0 
    9.1680   -5.5991   -1.1323 C   0  0  0  0  0  0  0  0  0  0  0  0 
   10.6978   -5.6423   -1.1170 C   0  0  0  0  0  0  0  0  0  0  0  0 
   11.1623   -7.0054   -1.3962 N   0  0  0  0  0  0  0  0  0  0  0  0 
   12.5999   -6.9439   -1.5672 O   0  0  0  0  0  0  0  0  0  0  0  0 
    0.4031    1.1828    0.2861 H   0  0  0  0  0  0  0  0  0  0  0  0 
    0.3758   -0.4870    0.8739 H   0  0  0  0  0  0  0  0  0  0  0  0 
    0.3563   -0.1615   -0.8651 H   0  0  0  0  0  0  0  0  0  0  0  0 
    2.6979    0.5043    1.0269 H   0  0  0  0  0  0  0  0  0  0  0  0 
    2.6788    0.8277   -0.6990 H   0  0  0  0  0  0  0  0  0  0  0  0 
    2.4864   -1.6359   -1.1612 H   0  0  0  0  0  0  0  0  0  0  0  0 
    2.5019   -1.9619    0.5651 H   0  0  0  0  0  0  0  0  0  0  0  0 
    4.7977   -0.9484    0.7387 H   0  0  0  0  0  0  0  0  0  0  0  0 
    4.7820   -0.6124   -0.9857 H   0  0  0  0  0  0  0  0  0  0  0  0 
    4.5920   -3.0726   -1.4677 H   0  0  0  0  0  0  0  0  0  0  0  0 
    4.5984   -3.4135    0.2557 H   0  0  0  0  0  0  0  0  0  0  0  0 
    6.8939   -2.4095    0.4515 H   0  0  0  0  0  0  0  0  0  0  0  0 
    6.8875   -2.0493   -1.2682 H   0  0  0  0  0  0  0  0  0  0  0  0 
    6.6990   -4.5000   -1.7880 H   0  0  0  0  0  0  0  0  0  0  0  0 
    6.6890   -4.8684   -0.0701 H   0  0  0  0  0  0  0  0  0  0  0  0 
    8.9837   -3.8785    0.1650 H   0  0  0  0  0  0  0  0  0  0  0  0 
    8.9949   -3.4821   -1.5471 H   0  0  0  0  0  0  0  0  0  0  0  0 
    8.8041   -5.9173   -2.1215 H   0  0  0  0  0  0  0  0  0  0  0  0 
    8.7827   -6.3316   -0.4109 H   0  0  0  0  0  0  0  0  0  0  0  0 
   11.0747   -5.3663   -0.1249 H   0  0  0  0  0  0  0  0  0  0  0  0 
   11.1127   -4.9160   -1.8351 H   0  0  0  0  0  0  0  0  0  0  0  0 
   10.8390   -7.2557   -2.3334 H   0  0  0  0  0  0  0  0  0  0  0  0 
   12.9111   -7.5632   -0.8886 H   0  0  0  0  0  0  0  0  0  0  0  0 
  1 13  1  0  0  0  0 
  1 14  1  0  0  0  0 
  2  1  1  0  0  0  0 
  2 16  1  0  0  0  0 
  3  2  1  0  0  0  0 
  3 19  1  0  0  0  0 
  4  3  1  0  0  0  0 
  4 20  1  0  0  0  0 
  5  4  1  0  0  0  0 
  5 23  1  0  0  0  0 
  6  5  1  0  0  0  0 
  6 24  1  0  0  0  0 
  7  6  1  0  0  0  0 
  7 27  1  0  0  0  0 
  8  7  1  0  0  0  0 
  8 28  1  0  0  0  0 
  9 10  1  0  0  0  0 
  9  8  1  0  0  0  0 
  9 31  1  0  0  0  0 
 10 32  1  0  0  0  0 
 11 10  1  0  0  0  0 
 12 11  1  0  0  0  0 
 12 35  1  0  0  0  0 
 15  1  1  0  0  0  0 
 17  2  1  0  0  0  0 
 18  3  1  0  0  0  0 
 21  4  1  0  0  0  0 
 22  5  1  0  0  0  0 
 25  6  1  0  0  0  0 
 26  7  1  0  0  0  0 
 29  8  1  0  0  0  0 
 30  9  1  0  0  0  0 
 33 10  1  0  0  0  0 
 34 11  1  0  0  0  0 
M  END 
>  <HBA> 
2 
 
>  <HBD> 
2 
 
>  <TPSA> 
32.26 
 
>  <cid> 
33377 
 
>  <dipole> 
0.85 
 
>  <excitation_energy_1> 
5.954 
 
>  <excitation_energy_2> 
6.408 
 
>  <excitation_energy_3> 
6.715 
 
>  <excitation_energy_4> 
6.871 
 
>  <homo_energy> 
-6.387 
 
>  <homo_lumo_gap> 
8.653 
 
>  <logP> 
3.497 
 
>  <lumo_energy> 
2.267 
 
>  <melting_point> 
51.87 
 
>  <molecular_refractivity> 
53.72 
 
>  <oscillator_strength_1> 
0.0024 
 
>  <oscillator_strength_2> 
0.0166 
 
>  <oscillator_strength_3> 
0.0175 
 
>  <oscillator_strength_4> 
0.0111 
 
>  <open_babel_can_smiles> 
CCCCCCCCCCNO 
 
>  <mulliken_charges> 
35 
1   -0.441154 
2   -0.246716 
3   -0.245523 
4   -0.252423 
5   -0.252934 
6   -0.253235 
7   -0.252516 
8   -0.254478 
9   -0.278121 
10   -0.101226 
11   -0.36071 
12   -0.537818 
13   0.141209 
14   0.140934 
15   0.140884 
16   0.129712 
17   0.129719 
18   0.125967 
19   0.126114 
20   0.126626 
21   0.12657 
22   0.126662 
23   0.127063 
24   0.127474 
25   0.12729 
26   0.127403 
27   0.129069 
28   0.131647 
29   0.13108 
30   0.126071 
31   0.147207 
32   0.141508 
33   0.12983 
34   0.309509 
35   0.407305 
 
>  <lowdin_charges> 
35 
1   -0.445046 
2   -0.273052 
3   -0.275589 
4   -0.275331 
5   -0.275003 
6   -0.275169 
7   -0.274562 
8   -0.273084 
9   -0.281135 
10   -0.212091 
11   -0.242213 
12   -0.436481 
13   0.148323 
14   0.147045 
15   0.145994 
16   0.138511 
17   0.139568 
18   0.136954 
19   0.1381 
20   0.137323 
21   0.138387 
22   0.137267 
23   0.138622 
24   0.137653 
25   0.138732 
26   0.137504 
27   0.139706 
28   0.139693 
29   0.140571 
30   0.136518 
31   0.148954 
32   0.143058 
33   0.130496 
34   0.250718 
35   0.349059 
 
$$$$ 
 
