PCCDB-ID:  20665 
public computational chemistry database (PCCDB) project, http://pccdb.org 
 
 34 33  0  0  0  0  0  0  0  0999 V2000 
    3.7909    7.7846    1.3822 C   0  0  0  0  0  0  0  0  0  0  0  0 
    4.5205    6.4806    1.7205 C   0  0  0  0  0  0  0  0  0  0  0  0 
    3.6900    5.2263    1.4196 C   0  0  0  0  0  0  0  0  0  0  0  0 
    4.4065    3.9185    1.7769 C   0  0  0  0  0  0  0  0  0  0  0  0 
    6.0395   -0.8895    5.8619 C   0  0  0  0  0  0  0  0  0  0  0  0 
    3.5766    2.6677    1.4621 C   0  0  0  0  0  0  0  0  0  0  0  0 
    5.2508    0.2642    5.2225 C   0  0  0  0  0  0  0  0  0  0  0  0 
    5.3506   -2.2555    5.7857 C   0  0  0  0  0  0  0  0  0  0  0  0 
    4.2683    1.3633    1.8423 C   0  0  0  0  0  0  0  0  0  0  0  0 
    5.1157    0.1703    3.7051 C   0  0  0  0  0  0  0  0  0  0  0  0 
    6.0402   -3.2567    6.5265 O   0  0  0  0  0  0  0  0  0  0  0  0 
    4.4607    1.3375    3.2468 O   0  0  0  0  0  0  0  0  0  0  0  0 
    4.4109    8.6608    1.6042 H   0  0  0  0  0  0  0  0  0  0  0  0 
    2.8619    7.8793    1.9580 H   0  0  0  0  0  0  0  0  0  0  0  0 
    3.5247    7.8258    0.3186 H   0  0  0  0  0  0  0  0  0  0  0  0 
    4.7996    6.4822    2.7838 H   0  0  0  0  0  0  0  0  0  0  0  0 
    5.4646    6.4329    1.1592 H   0  0  0  0  0  0  0  0  0  0  0  0 
    3.4205    5.2185    0.3524 H   0  0  0  0  0  0  0  0  0  0  0  0 
    2.7397    5.2813    1.9715 H   0  0  0  0  0  0  0  0  0  0  0  0 
    4.6600    3.9152    2.8441 H   0  0  0  0  0  0  0  0  0  0  0  0 
    5.3616    3.8648    1.2325 H   0  0  0  0  0  0  0  0  0  0  0  0 
    6.2135   -0.6663    6.9214 H   0  0  0  0  0  0  0  0  0  0  0  0 
    7.0340   -0.9604    5.3933 H   0  0  0  0  0  0  0  0  0  0  0  0 
    3.3452    2.6306    0.3881 H   0  0  0  0  0  0  0  0  0  0  0  0 
    2.6149    2.7158    1.9903 H   0  0  0  0  0  0  0  0  0  0  0  0 
    5.7461    1.2149    5.4539 H   0  0  0  0  0  0  0  0  0  0  0  0 
    4.2464    0.3230    5.6621 H   0  0  0  0  0  0  0  0  0  0  0  0 
    5.2140   -2.5695    4.7383 H   0  0  0  0  0  0  0  0  0  0  0  0 
    4.3528   -2.1951    6.2349 H   0  0  0  0  0  0  0  0  0  0  0  0 
    5.2407    1.2789    1.3247 H   0  0  0  0  0  0  0  0  0  0  0  0 
    3.6572    0.4992    1.5285 H   0  0  0  0  0  0  0  0  0  0  0  0 
    4.5422   -0.7249    3.4093 H   0  0  0  0  0  0  0  0  0  0  0  0 
    6.1136    0.0812    3.2382 H   0  0  0  0  0  0  0  0  0  0  0  0 
    6.9180   -3.3604    6.1273 H   0  0  0  0  0  0  0  0  0  0  0  0 
  1 13  1  0  0  0  0 
  1  2  1  0  0  0  0 
  1 14  1  0  0  0  0 
  2 16  1  0  0  0  0 
  3  2  1  0  0  0  0 
  3  4  1  0  0  0  0 
  3 19  1  0  0  0  0 
  4 20  1  0  0  0  0 
  5 22  1  0  0  0  0 
  6  4  1  0  0  0  0 
  6  9  1  0  0  0  0 
  6 25  1  0  0  0  0 
  7 26  1  0  0  0  0 
  7 27  1  0  0  0  0 
  7  5  1  0  0  0  0 
  8  5  1  0  0  0  0 
  8 29  1  0  0  0  0 
  8 11  1  0  0  0  0 
  9 12  1  0  0  0  0 
 10  7  1  0  0  0  0 
 12 10  1  0  0  0  0 
 15  1  1  0  0  0  0 
 17  2  1  0  0  0  0 
 18  3  1  0  0  0  0 
 21  4  1  0  0  0  0 
 23  5  1  0  0  0  0 
 24  6  1  0  0  0  0 
 28  8  1  0  0  0  0 
 30  9  1  0  0  0  0 
 31  9  1  0  0  0  0 
 32 10  1  0  0  0  0 
 33 10  1  0  0  0  0 
 34 11  1  0  0  0  0 
M  END 
>  <HBA> 
2 
 
>  <HBD> 
1 
 
>  <TPSA> 
29.46 
 
>  <cid> 
20665 
 
>  <dipole> 
1.98 
 
>  <excitation_energy_1> 
6.393 
 
>  <excitation_energy_2> 
6.448 
 
>  <excitation_energy_3> 
6.653 
 
>  <excitation_energy_4> 
6.809 
 
>  <homo_energy> 
-6.852 
 
>  <homo_lumo_gap> 
8.868 
 
>  <logP> 
2.356 
 
>  <lumo_energy> 
2.016 
 
>  <melting_point> 
-19.55 
 
>  <molecular_refractivity> 
52.43 
 
>  <oscillator_strength_1> 
0.0196 
 
>  <oscillator_strength_2> 
0.0075 
 
>  <oscillator_strength_3> 
0.0098 
 
>  <oscillator_strength_4> 
0.0041 
 
>  <open_babel_can_smiles> 
CCCCCCOCCCCO 
 
>  <mulliken_charges> 
34 
1   -0.441257 
2   -0.246498 
3   -0.246019 
4   -0.251444 
5   -0.289853 
6   -0.274332 
7   -0.2806 
8   -0.027561 
9   -0.008685 
10   -9.2e-05 
11   -0.614901 
12   -0.478622 
13   0.140853 
14   0.141251 
15   0.140139 
16   0.131243 
17   0.128725 
18   0.123137 
19   0.127644 
20   0.151303 
21   0.121379 
22   0.152314 
23   0.1207 
24   0.128736 
25   0.142907 
26   0.150251 
27   0.146535 
28   0.120413 
29   0.147196 
30   0.112962 
31   0.116088 
32   0.117781 
33   0.112732 
34   0.385577 
 
>  <lowdin_charges> 
34 
1   -0.443526 
2   -0.27015 
3   -0.272461 
4   -0.274453 
5   -0.293628 
6   -0.278681 
7   -0.280729 
8   -0.136068 
9   -0.127381 
10   -0.130997 
11   -0.4661 
12   -0.274871 
13   0.149196 
14   0.146154 
15   0.144122 
16   0.137879 
17   0.137878 
18   0.133643 
19   0.137598 
20   0.147923 
21   0.135256 
22   0.15239 
23   0.133402 
24   0.142273 
25   0.147135 
26   0.153988 
27   0.148502 
28   0.122517 
29   0.145769 
30   0.122381 
31   0.126384 
32   0.1241 
33   0.121143 
34   0.339411 
 
$$$$ 
 
