PCCDB-ID:  10326 
public computational chemistry database (PCCDB) project, http://pccdb.org 
 
 19 20  0  0  0  0  0  0  0  0999 V2000 
    1.9809    1.0963   -0.0638 C   0  0  0  0  0  0  0  0  0  0  0  0 
    2.2565   -0.2743   -0.0633 C   0  0  0  0  0  0  0  0  0  0  0  0 
   -2.4707   -0.5112   -0.2427 C   0  0  0  0  0  0  0  0  0  0  0  0 
    0.6605    1.5525   -0.0009 C   0  0  0  0  0  0  0  0  0  0  0  0 
    1.2149   -1.2055   -0.0003 C   0  0  0  0  0  0  0  0  0  0  0  0 
   -1.8712    0.8640    0.1469 C   0  0  0  0  0  0  0  0  0  0  0  0 
   -1.3866   -1.5484    0.1461 C   0  0  0  0  0  0  0  0  0  0  0  0 
   -0.3774    0.6245    0.0579 C   0  0  0  0  0  0  0  0  0  0  0  0 
   -0.1012   -0.7507    0.0569 C   0  0  0  0  0  0  0  0  0  0  0  0 
    2.7979    1.8112   -0.1185 H   0  0  0  0  0  0  0  0  0  0  0  0 
    3.2863   -0.6181   -0.1175 H   0  0  0  0  0  0  0  0  0  0  0  0 
   -2.6261   -0.5421   -1.3278 H   0  0  0  0  0  0  0  0  0  0  0  0 
   -3.4375   -0.7055    0.2323 H   0  0  0  0  0  0  0  0  0  0  0  0 
    0.4502    2.6198   -0.0042 H   0  0  0  0  0  0  0  0  0  0  0  0 
    1.4336   -2.2711   -0.0041 H   0  0  0  0  0  0  0  0  0  0  0  0 
   -2.1536    1.1367    1.1748 H   0  0  0  0  0  0  0  0  0  0  0  0 
   -2.2193    1.6774   -0.5002 H   0  0  0  0  0  0  0  0  0  0  0  0 
   -1.3942   -2.4327   -0.5016 H   0  0  0  0  0  0  0  0  0  0  0  0 
   -1.5413   -1.9097    1.1739 H   0  0  0  0  0  0  0  0  0  0  0  0 
  1  2  2  0  0  0  0 
  1  4  1  0  0  0  0 
  2  5  1  0  0  0  0 
  3  7  1  0  0  0  0 
  3  6  1  0  0  0  0 
  3 13  1  0  0  0  0 
  4  8  2  0  0  0  0 
  5  9  2  0  0  0  0 
  6 16  1  0  0  0  0 
  7 19  1  0  0  0  0 
  8  6  1  0  0  0  0 
  9  8  1  0  0  0  0 
  9  7  1  0  0  0  0 
 10  1  1  0  0  0  0 
 11  2  1  0  0  0  0 
 12  3  1  0  0  0  0 
 14  4  1  0  0  0  0 
 15  5  1  0  0  0  0 
 17  6  1  0  0  0  0 
 18  7  1  0  0  0  0 
M  END 
>  <HBA> 
0 
 
>  <HBD> 
0 
 
>  <TPSA> 
0.0 
 
>  <cid> 
10326 
 
>  <dipole> 
0.5 
 
>  <excitation_energy_1> 
5.152 
 
>  <excitation_energy_2> 
5.79 
 
>  <excitation_energy_3> 
5.926 
 
>  <excitation_energy_4> 
6.192 
 
>  <homo_energy> 
-6.185 
 
>  <homo_lumo_gap> 
6.283 
 
>  <logP> 
2.175 
 
>  <lumo_energy> 
0.098 
 
>  <melting_point> 
33.9 
 
>  <molecular_refractivity> 
39.07 
 
>  <oscillator_strength_1> 
0.0245 
 
>  <oscillator_strength_2> 
0.0014 
 
>  <oscillator_strength_3> 
0.0078 
 
>  <oscillator_strength_4> 
0.015 
 
>  <open_babel_can_smiles> 
C1Cc2c(C1)cccc2 
 
>  <mulliken_charges> 
19 
1   -0.132412 
2   -0.132497 
3   -0.28061 
4   -0.196784 
5   -0.196818 
6   -0.346522 
7   -0.346476 
8   0.131859 
9   0.132245 
10   0.124049 
11   0.124037 
12   0.146961 
13   0.136022 
14   0.121869 
15   0.121878 
16   0.150436 
17   0.146169 
18   0.146147 
19   0.150447 
 
>  <lowdin_charges> 
19 
1   -0.161734 
2   -0.159268 
3   -0.272218 
4   -0.16417 
5   -0.16418 
6   -0.279798 
7   -0.278539 
8   -0.014552 
9   -0.015046 
10   0.156132 
11   0.154212 
12   0.145148 
13   0.145322 
14   0.152632 
15   0.152673 
16   0.14996 
17   0.152031 
18   0.151432 
19   0.149964 
 
$$$$ 
 
