PCCDB-ID:  11788 
public computational chemistry database (PCCDB) project, http://pccdb.org 
 
 21 22  0  0  0  0  0  0  0  0999 V2000 
    1.0080    0.0071   -0.0511 C   0  0  0  0  0  0  0  0  0  0  0  0 
    4.5967    3.6564   -0.1294 C   0  0  0  0  0  0  0  0  0  0  0  0 
    3.1946    3.6598   -0.1184 C   0  0  0  0  0  0  0  0  0  0  0  0 
    5.2663    2.4435   -0.1189 C   0  0  0  0  0  0  0  0  0  0  0  0 
    2.4743    2.4750   -0.0972 C   0  0  0  0  0  0  0  0  0  0  0  0 
    4.5650    1.2254   -0.0971 C   0  0  0  0  0  0  0  0  0  0  0  0 
    3.1468    1.2340   -0.0858 C   0  0  0  0  0  0  0  0  0  0  0  0 
    5.1836   -0.0929   -0.0837 C   0  0  0  0  0  0  0  0  0  0  0  0 
    3.1467   -1.2221   -0.0545 C   0  0  0  0  0  0  0  0  0  0  0  0 
    4.5315   -1.2055   -0.0644 N   0  0  0  0  0  0  0  0  0  0  0  0 
    2.4694    0.0330   -0.0641 N   0  0  0  0  0  0  0  0  0  0  0  0 
    6.5280   -0.2150   -0.0927 O   0  0  0  0  0  0  0  0  0  0  0  0 
    2.5068   -2.2595   -0.0376 O   0  0  0  0  0  0  0  0  0  0  0  0 
    0.6196    0.5160    0.8379 H   0  0  0  0  0  0  0  0  0  0  0  0 
    0.7116   -1.0394   -0.0330 H   0  0  0  0  0  0  0  0  0  0  0  0 
    0.6038    0.4889   -0.9480 H   0  0  0  0  0  0  0  0  0  0  0  0 
    5.1503    4.5894   -0.1477 H   0  0  0  0  0  0  0  0  0  0  0  0 
    2.6577    4.6043   -0.1264 H   0  0  0  0  0  0  0  0  0  0  0  0 
    6.3544    2.4565   -0.1277 H   0  0  0  0  0  0  0  0  0  0  0  0 
    1.3923    2.5075   -0.0882 H   0  0  0  0  0  0  0  0  0  0  0  0 
    6.9475    0.6582   -0.0992 H   0  0  0  0  0  0  0  0  0  0  0  0 
  1 15  1  0  0  0  0 
  1 14  1  0  0  0  0 
  2  4  2  0  0  0  0 
  2  3  1  0  0  0  0 
  3  5  2  0  0  0  0 
  4  6  1  0  0  0  0 
  5 20  1  0  0  0  0 
  5  7  1  0  0  0  0 
  6  7  2  0  0  0  0 
  6  8  1  0  0  0  0 
  7 11  1  0  0  0  0 
  8 10  2  0  0  0  0 
  9 13  2  0  0  0  0 
 10  9  1  0  0  0  0 
 11  9  1  0  0  0  0 
 11  1  1  0  0  0  0 
 12  8  1  0  0  0  0 
 16  1  1  0  0  0  0 
 17  2  1  0  0  0  0 
 18  3  1  0  0  0  0 
 19  4  1  0  0  0  0 
 21 12  1  0  0  0  0 
M  END 
>  <HBA> 
3 
 
>  <HBD> 
1 
 
>  <TPSA> 
54.86 
 
>  <cid> 
11788 
 
>  <dipole> 
7.36 
 
>  <excitation_energy_1> 
3.86 
 
>  <excitation_energy_2> 
4.383 
 
>  <excitation_energy_3> 
4.535 
 
>  <excitation_energy_4> 
4.847 
 
>  <homo_energy> 
-6.272 
 
>  <homo_lumo_gap> 
4.495 
 
>  <logP> 
0.227 
 
>  <lumo_energy> 
-1.777 
 
>  <melting_point> 
168.98 
 
>  <molecular_refractivity> 
50.09 
 
>  <oscillator_strength_1> 
0.0787 
 
>  <oscillator_strength_2> 
0.0 
 
>  <oscillator_strength_3> 
0.001 
 
>  <oscillator_strength_4> 
0.0017 
 
>  <open_babel_can_smiles> 
Oc1nc(=O)n(c2c1cccc2)C 
 
>  <mulliken_charges> 
21 
1   -0.341934 
2   -0.131575 
3   -0.129601 
4   -0.223841 
5   -0.179584 
6   0.092486 
7   0.359469 
8   0.468519 
9   0.695631 
10   -0.500892 
11   -0.578357 
12   -0.576191 
13   -0.498562 
14   0.165518 
15   0.22451 
16   0.165614 
17   0.142667 
18   0.146951 
19   0.126659 
20   0.150236 
21   0.422277 
 
>  <lowdin_charges> 
21 
1   -0.3586 
2   -0.171794 
3   -0.125762 
4   -0.144743 
5   -0.188214 
6   -0.078827 
7   0.075566 
8   0.160669 
9   0.177575 
10   -0.182541 
11   -0.071229 
12   -0.330915 
13   -0.284514 
14   0.157501 
15   0.195595 
16   0.157489 
17   0.166191 
18   0.167309 
19   0.151868 
20   0.169666 
21   0.357711 
 
$$$$ 
 
