PCCDB-ID:  52521 
public computational chemistry database (PCCDB) project, http://pccdb.org 
 
 35 36  0  0  1  0  0  0  0  0999 V2000 
    3.0464   -2.7811   -1.1827 C   0  0  0  0  0  0  0  0  0  0  0  0 
    1.9692   -0.6000   -1.9361 C   0  0  0  0  0  0  0  0  0  0  0  0 
    1.6011   -1.4591    0.4068 C   0  0  0  0  0  0  0  0  0  0  0  0 
    7.2823    2.4983    0.0304 C   0  0  0  0  0  0  0  0  0  0  0  0 
    6.1558    1.7938   -0.7407 C   0  0  0  0  0  0  0  0  0  0  0  0 
    8.4709    1.5423    0.2271 C   0  0  0  0  0  0  0  0  0  0  0  0 
    8.9169   -0.7465    1.4576 C   0  0  0  0  0  0  0  0  0  0  0  0 
    7.9139    0.0157    2.3064 C   0  0  0  0  0  0  0  0  0  0  0  0 
    5.8102    0.4559   -0.0727 C   0  0  1  0  0  0  0  0  0  0  0  0 
    4.8088   -0.3381   -0.9160 C   0  0  0  0  0  0  0  0  0  0  0  0 
    2.5787   -1.3823   -0.7681 C   0  0  0  0  0  0  0  0  0  0  0  0 
    7.9882    0.2279    0.8096 C   0  0  0  0  0  0  0  0  0  0  0  0 
    5.0021   -0.6350   -2.0751 O   0  0  0  0  0  0  0  0  0  0  0  0 
    6.9710   -0.3744    0.0344 O   0  0  0  0  0  0  0  0  0  0  0  0 
    3.7116   -0.6262   -0.1931 O   0  0  0  0  0  0  0  0  0  0  0  0 
    2.1814   -3.3782   -1.4928 H   0  0  0  0  0  0  0  0  0  0  0  0 
    3.5250   -3.2884   -0.3381 H   0  0  0  0  0  0  0  0  0  0  0  0 
    3.7543   -2.7322   -2.0115 H   0  0  0  0  0  0  0  0  0  0  0  0 
    1.0543   -1.1007   -2.2725 H   0  0  0  0  0  0  0  0  0  0  0  0 
    2.6627   -0.5370   -2.7760 H   0  0  0  0  0  0  0  0  0  0  0  0 
    1.7026    0.4141   -1.6182 H   0  0  0  0  0  0  0  0  0  0  0  0 
    0.7001   -2.0073    0.1118 H   0  0  0  0  0  0  0  0  0  0  0  0 
    1.3058   -0.4560    0.7313 H   0  0  0  0  0  0  0  0  0  0  0  0 
    2.0586   -1.9754    1.2568 H   0  0  0  0  0  0  0  0  0  0  0  0 
    6.9077    2.8205    1.0120 H   0  0  0  0  0  0  0  0  0  0  0  0 
    7.5988    3.4026   -0.5028 H   0  0  0  0  0  0  0  0  0  0  0  0 
    6.4677    1.5810   -1.7699 H   0  0  0  0  0  0  0  0  0  0  0  0 
    5.2596    2.4256   -0.7893 H   0  0  0  0  0  0  0  0  0  0  0  0 
    9.2306    1.9900    0.8786 H   0  0  0  0  0  0  0  0  0  0  0  0 
    8.9470    1.3407   -0.7422 H   0  0  0  0  0  0  0  0  0  0  0  0 
    8.7203   -1.7995    1.2789 H   0  0  0  0  0  0  0  0  0  0  0  0 
    9.9696   -0.4847    1.5295 H   0  0  0  0  0  0  0  0  0  0  0  0 
    8.2779    0.7991    2.9668 H   0  0  0  0  0  0  0  0  0  0  0  0 
    7.0642   -0.5429    2.6886 H   0  0  0  0  0  0  0  0  0  0  0  0 
    5.3871    0.6269    0.9269 H   0  0  0  0  0  0  0  0  0  0  0  0 
  1 11  1  0  0  0  0 
  1 17  1  0  0  0  0 
  2 21  1  0  0  0  0 
  2 11  1  0  0  0  0 
  3 23  1  0  0  0  0 
  3 24  1  0  0  0  0 
  4  6  1  0  0  0  0 
  4 25  1  0  0  0  0 
  5  9  1  0  0  0  0 
  5  4  1  0  0  0  0 
  6 12  1  0  0  0  0 
  6 29  1  0  0  0  0 
  7 32  1  0  0  0  0 
  7  8  1  0  0  0  0 
  8 34  1  0  0  0  0 
  8 33  1  0  0  0  0 
  9 14  1  0  0  0  0 
  9 35  1  1  0  0  0 
 10 15  1  0  0  0  0 
 10  9  1  0  0  0  0 
 11 15  1  0  0  0  0 
 11  3  1  0  0  0  0 
 12  7  1  0  0  0  0 
 12  8  1  0  0  0  0 
 13 10  2  0  0  0  0 
 14 12  1  0  0  0  0 
 16  1  1  0  0  0  0 
 18  1  1  0  0  0  0 
 19  2  1  0  0  0  0 
 20  2  1  0  0  0  0 
 22  3  1  0  0  0  0 
 26  4  1  0  0  0  0 
 27  5  1  0  0  0  0 
 28  5  1  0  0  0  0 
 30  6  1  0  0  0  0 
 31  7  1  0  0  0  0 
M  END 
>  <HBA> 
3 
 
>  <HBD> 
0 
 
>  <TPSA> 
35.53 
 
>  <cid> 
52521 
 
>  <dipole> 
2.31 
 
>  <excitation_energy_1> 
5.442 
 
>  <excitation_energy_2> 
5.78 
 
>  <excitation_energy_3> 
6.249 
 
>  <excitation_energy_4> 
6.5 
 
>  <homo_energy> 
-6.607 
 
>  <homo_lumo_gap> 
6.827 
 
>  <logP> 
2.43 
 
>  <lumo_energy> 
0.22 
 
>  <melting_point> 
40.15 
 
>  <molecular_refractivity> 
58.02 
 
>  <oscillator_strength_1> 
0.0016 
 
>  <oscillator_strength_2> 
0.001 
 
>  <oscillator_strength_3> 
0.0083 
 
>  <oscillator_strength_4> 
0.0312 
 
>  <open_babel_can_smiles> 
O=C([C@@H]1CCCC2(O1)CC2)OC(C)(C)C 
 
>  <mulliken_charges> 
35 
1   -0.465443 
2   -0.466331 
3   -0.449615 
4   -0.278423 
5   -0.286792 
6   -0.282293 
7   -0.348966 
8   -0.347952 
9   0.090554 
10   0.629664 
11   0.306265 
12   0.362257 
13   -0.483355 
14   -0.516605 
15   -0.496539 
16   0.1425 
17   0.150969 
18   0.189059 
19   0.144134 
20   0.187075 
21   0.146248 
22   0.145999 
23   0.152666 
24   0.155139 
25   0.135319 
26   0.139775 
27   0.167349 
28   0.137328 
29   0.130553 
30   0.148272 
31   0.167917 
32   0.151014 
33   0.147732 
34   0.15904 
35   0.135482 
 
>  <lowdin_charges> 
35 
1   -0.457728 
2   -0.456321 
3   -0.444838 
4   -0.277599 
5   -0.289285 
6   -0.279706 
7   -0.312685 
8   -0.339181 
9   -0.014798 
10   0.194277 
11   0.14372 
12   0.100159 
13   -0.258164 
14   -0.245157 
15   -0.190362 
16   0.155398 
17   0.156755 
18   0.174012 
19   0.155844 
20   0.172826 
21   0.152536 
22   0.155106 
23   0.155593 
24   0.158175 
25   0.140989 
26   0.148859 
27   0.158676 
28   0.150505 
29   0.150093 
30   0.150532 
31   0.169267 
32   0.158442 
33   0.158167 
34   0.165811 
35   0.140083 
 
$$$$ 
 
