PCCDB-ID:  11752 
public computational chemistry database (PCCDB) project, http://pccdb.org 
 
 24 23  0  0  0  0  0  0  0  0999 V2000 
    2.2499   -1.3548    0.2055 C   0  0  0  0  0  0  0  0  0  0  0  0 
    2.7027    0.6560    1.6722 C   0  0  0  0  0  0  0  0  0  0  0  0 
    3.1989    2.9398   -2.2786 C   0  0  0  0  0  0  0  0  0  0  0  0 
    1.1102    2.8304   -0.8656 C   0  0  0  0  0  0  0  0  0  0  0  0 
    2.1234    0.1710    0.3330 C   0  0  0  0  0  0  0  0  0  0  0  0 
    2.5812    2.3999   -0.9789 C   0  0  0  0  0  0  0  0  0  0  0  0 
    2.7681    0.8656   -0.8936 C   0  0  0  0  0  0  0  0  0  0  0  0 
    4.1558    0.5205   -1.0058 O   0  0  0  0  0  0  0  0  0  0  0  0 
    1.7835   -1.8607    1.0589 H   0  0  0  0  0  0  0  0  0  0  0  0 
    3.3023   -1.6529    0.1591 H   0  0  0  0  0  0  0  0  0  0  0  0 
    1.7621   -1.7173   -0.7074 H   0  0  0  0  0  0  0  0  0  0  0  0 
    2.2142    0.1454    2.5096 H   0  0  0  0  0  0  0  0  0  0  0  0 
    2.5689    1.7337    1.8205 H   0  0  0  0  0  0  0  0  0  0  0  0 
    3.7753    0.4330    1.7471 H   0  0  0  0  0  0  0  0  0  0  0  0 
    3.1605    4.0351   -2.3044 H   0  0  0  0  0  0  0  0  0  0  0  0 
    2.6483    2.5667   -3.1523 H   0  0  0  0  0  0  0  0  0  0  0  0 
    4.2398    2.6231   -2.3825 H   0  0  0  0  0  0  0  0  0  0  0  0 
    1.0158    3.9118   -1.0172 H   0  0  0  0  0  0  0  0  0  0  0  0 
    0.6761    2.5963    0.1118 H   0  0  0  0  0  0  0  0  0  0  0  0 
    0.4977    2.3373   -1.6319 H   0  0  0  0  0  0  0  0  0  0  0  0 
    1.0536    0.4182    0.3192 H   0  0  0  0  0  0  0  0  0  0  0  0 
    3.1308    2.8486   -0.1352 H   0  0  0  0  0  0  0  0  0  0  0  0 
    2.3151    0.4255   -1.7929 H   0  0  0  0  0  0  0  0  0  0  0  0 
    4.6202    0.9535   -0.2716 H   0  0  0  0  0  0  0  0  0  0  0  0 
  1  5  1  0  0  0  0 
  1  9  1  0  0  0  0 
  2 14  1  0  0  0  0 
  2 13  1  0  0  0  0 
  2 12  1  0  0  0  0 
  3  6  1  0  0  0  0 
  4 19  1  0  0  0  0 
  5  2  1  0  0  0  0 
  6  7  1  0  0  0  0 
  6  4  1  0  0  0  0 
  6 22  1  0  0  0  0 
  7  5  1  0  0  0  0 
  8  7  1  0  0  0  0 
  8 24  1  0  0  0  0 
 10  1  1  0  0  0  0 
 11  1  1  0  0  0  0 
 15  3  1  0  0  0  0 
 16  3  1  0  0  0  0 
 17  3  1  0  0  0  0 
 18  4  1  0  0  0  0 
 20  4  1  0  0  0  0 
 21  5  1  0  0  0  0 
 23  7  1  0  0  0  0 
M  END 
>  <HBA> 
1 
 
>  <HBD> 
1 
 
>  <TPSA> 
20.23 
 
>  <cid> 
11752 
 
>  <dipole> 
1.61 
 
>  <excitation_energy_1> 
6.399 
 
>  <excitation_energy_2> 
6.884 
 
>  <excitation_energy_3> 
7.136 
 
>  <excitation_energy_4> 
7.305 
 
>  <homo_energy> 
-7.021 
 
>  <homo_lumo_gap> 
8.811 
 
>  <logP> 
1.659 
 
>  <lumo_energy> 
1.791 
 
>  <melting_point> 
-8.61 
 
>  <molecular_refractivity> 
36.92 
 
>  <oscillator_strength_1> 
0.0006 
 
>  <oscillator_strength_2> 
0.0107 
 
>  <oscillator_strength_3> 
0.0048 
 
>  <oscillator_strength_4> 
0.0032 
 
>  <open_babel_can_smiles> 
OC(C(C)C)C(C)C 
 
>  <mulliken_charges> 
24 
1   -0.442589 
2   -0.468731 
3   -0.440761 
4   -0.454888 
5   -0.083972 
6   -0.097385 
7   0.148787 
8   -0.630917 
9   0.134194 
10   0.157978 
11   0.137853 
12   0.149159 
13   0.146785 
14   0.132635 
15   0.13511 
16   0.137575 
17   0.158151 
18   0.143999 
19   0.147168 
20   0.142336 
21   0.126267 
22   0.11068 
23   0.124086 
24   0.386478 
 
>  <lowdin_charges> 
24 
1   -0.445327 
2   -0.450899 
3   -0.443479 
4   -0.446773 
5   -0.13783 
6   -0.139956 
7   -0.004483 
8   -0.463804 
9   0.146131 
10   0.153848 
11   0.147765 
12   0.155228 
13   0.146408 
14   0.139764 
15   0.143582 
16   0.146214 
17   0.15593 
18   0.149737 
19   0.148857 
20   0.14873 
21   0.140278 
22   0.13115 
23   0.140475 
24   0.338455 
 
$$$$ 
 
