PCCDB-ID:  16666 
public computational chemistry database (PCCDB) project, http://pccdb.org 
 
 31 31  0  0  1  0  0  0  0  0999 V2000 
    1.4890   -0.1519    1.8227 C   0  0  0  0  0  0  0  0  0  0  0  0 
    2.9773    1.2653    0.3354 C   0  0  0  0  0  0  0  0  0  0  0  0 
    4.2481   -5.2977    0.6322 C   0  0  0  0  0  0  0  0  0  0  0  0 
    2.6392   -3.7662   -0.6072 C   0  0  0  0  0  0  0  0  0  0  0  0 
    1.9545   -2.3989   -0.4996 C   0  0  0  0  0  0  0  0  0  0  0  0 
    3.5127   -3.0868    1.6930 C   0  0  0  0  0  0  0  0  0  0  0  0 
    2.1514   -0.0289    0.4375 C   0  0  0  0  0  0  0  0  0  0  0  0 
    3.1122   -4.2763    0.7768 C   0  0  2  0  0  0  0  0  0  0  0  0 
    2.9360   -1.2822   -0.0530 C   0  0  1  0  0  0  0  0  0  0  0  0 
    4.0323   -1.8854    0.8905 C   0  0  1  0  0  0  0  0  0  0  0  0 
    4.6918   -0.9345    1.7308 O   0  0  0  0  0  0  0  0  0  0  0  0 
    0.8141    0.6951    1.9926 H   0  0  0  0  0  0  0  0  0  0  0  0 
    0.8954   -1.0672    1.9248 H   0  0  0  0  0  0  0  0  0  0  0  0 
    2.2183   -0.1356    2.6426 H   0  0  0  0  0  0  0  0  0  0  0  0 
    2.3750    2.1357    0.6245 H   0  0  0  0  0  0  0  0  0  0  0  0 
    3.3216    1.4262   -0.6933 H   0  0  0  0  0  0  0  0  0  0  0  0 
    3.8617    1.2228    0.9766 H   0  0  0  0  0  0  0  0  0  0  0  0 
    4.5122   -5.7421    1.5990 H   0  0  0  0  0  0  0  0  0  0  0  0 
    5.1522   -4.8270    0.2241 H   0  0  0  0  0  0  0  0  0  0  0  0 
    3.9661   -6.1121   -0.0463 H   0  0  0  0  0  0  0  0  0  0  0  0 
    3.5007   -3.6839   -1.2870 H   0  0  0  0  0  0  0  0  0  0  0  0 
    1.9655   -4.5035   -1.0610 H   0  0  0  0  0  0  0  0  0  0  0  0 
    1.1236   -2.4743    0.2163 H   0  0  0  0  0  0  0  0  0  0  0  0 
    1.5015   -2.1172   -1.4584 H   0  0  0  0  0  0  0  0  0  0  0  0 
    4.2925   -3.3954    2.4000 H   0  0  0  0  0  0  0  0  0  0  0  0 
    2.6506   -2.7708    2.2954 H   0  0  0  0  0  0  0  0  0  0  0  0 
    1.3222    0.0724   -0.2812 H   0  0  0  0  0  0  0  0  0  0  0  0 
    2.2623   -4.7863    1.2509 H   0  0  0  0  0  0  0  0  0  0  0  0 
    3.4700   -0.9498   -0.9548 H   0  0  0  0  0  0  0  0  0  0  0  0 
    4.8424   -2.2462    0.2466 H   0  0  0  0  0  0  0  0  0  0  0  0 
    4.0969   -0.7282    2.4675 H   0  0  0  0  0  0  0  0  0  0  0  0 
  1 13  1  0  0  0  0 
  1 12  1  0  0  0  0 
  1 14  1  0  0  0  0 
  2  7  1  0  0  0  0 
  2 15  1  0  0  0  0 
  2 17  1  0  0  0  0 
  3  8  1  0  0  0  0 
  3 18  1  0  0  0  0 
  4  5  1  0  0  0  0 
  4  8  1  0  0  0  0 
  5  9  1  0  0  0  0 
  5 23  1  0  0  0  0 
  6 26  1  0  0  0  0 
  6 25  1  0  0  0  0 
  7  1  1  0  0  0  0 
  8 28  1  1  0  0  0 
  8  6  1  0  0  0  0 
  9 29  1  6  0  0  0 
  9  7  1  0  0  0  0 
  9 10  1  0  0  0  0 
 10 30  1  6  0  0  0 
 10  6  1  0  0  0  0 
 10 11  1  0  0  0  0 
 11 31  1  0  0  0  0 
 16  2  1  0  0  0  0 
 19  3  1  0  0  0  0 
 20  3  1  0  0  0  0 
 21  4  1  0  0  0  0 
 22  4  1  0  0  0  0 
 24  5  1  0  0  0  0 
 27  7  1  0  0  0  0 
M  END 
>  <HBA> 
1 
 
>  <HBD> 
1 
 
>  <TPSA> 
20.23 
 
>  <cid> 
16666 
 
>  <dipole> 
1.73 
 
>  <excitation_energy_1> 
6.239 
 
>  <excitation_energy_2> 
6.57 
 
>  <excitation_energy_3> 
6.68 
 
>  <excitation_energy_4> 
6.833 
 
>  <homo_energy> 
-6.797 
 
>  <homo_lumo_gap> 
8.506 
 
>  <logP> 
2.439 
 
>  <lumo_energy> 
1.709 
 
>  <melting_point> 
11.98 
 
>  <molecular_refractivity> 
49.23 
 
>  <oscillator_strength_1> 
0.0094 
 
>  <oscillator_strength_2> 
0.0133 
 
>  <oscillator_strength_3> 
0.0035 
 
>  <oscillator_strength_4> 
0.0196 
 
>  <open_babel_can_smiles> 
C[C@@H]1CC[C@H]([C@H](C1)O)C(C)C 
 
>  <mulliken_charges> 
31 
1   -0.456676 
2   -0.452125 
3   -0.453046 
4   -0.272657 
5   -0.286491 
6   -0.312604 
7   -0.077412 
8   -0.06415 
9   -0.086249 
10   0.136434 
11   -0.635426 
12   0.147409 
13   0.147779 
14   0.119274 
15   0.12995 
16   0.136624 
17   0.163952 
18   0.141722 
19   0.144197 
20   0.141267 
21   0.130221 
22   0.131684 
23   0.13042 
24   0.1328 
25   0.142848 
26   0.128506 
27   0.123422 
28   0.121998 
29   0.120509 
30   0.133541 
31   0.392281 
 
>  <lowdin_charges> 
31 
1   -0.4505 
2   -0.452613 
3   -0.446099 
4   -0.283901 
5   -0.282128 
6   -0.305319 
7   -0.121009 
8   -0.126844 
9   -0.148626 
10   -0.009608 
11   -0.458358 
12   0.153332 
13   0.14825 
14   0.134041 
15   0.143124 
16   0.145375 
17   0.158065 
18   0.147748 
19   0.146919 
20   0.149006 
21   0.138807 
22   0.146498 
23   0.138337 
24   0.144623 
25   0.151221 
26   0.140416 
27   0.139794 
28   0.13897 
29   0.141425 
30   0.143105 
31   0.335949 
 
$$$$ 
 
