PCCDB-ID:  24426 
public computational chemistry database (PCCDB) project, http://pccdb.org 
 
 20 19  0  0  0  0  0  0  0  0999 V2000 
    1.0773   -0.1274    0.0339 C   0  0  0  0  0  0  0  0  0  0  0  0 
    4.5352   -1.8447    3.1305 C   0  0  0  0  0  0  0  0  0  0  0  0 
    4.2750   -0.9763   -1.1930 C   0  0  0  0  0  0  0  0  0  0  0  0 
    4.2471    1.3709   -0.2445 C   0  0  0  0  0  0  0  0  0  0  0  0 
    2.2849   -0.1067   -0.0020 C   0  0  0  0  0  0  0  0  0  0  0  0 
    3.9927   -1.7568    1.7129 C   0  0  0  0  0  0  0  0  0  0  0  0 
    3.7646   -0.0753   -0.0500 C   0  0  0  0  0  0  0  0  0  0  0  0 
    4.3262   -0.4643    1.2126 O   0  0  0  0  0  0  0  0  0  0  0  0 
    0.0113   -0.1405    0.0652 H   0  0  0  0  0  0  0  0  0  0  0  0 
    4.3193   -2.8278    3.5640 H   0  0  0  0  0  0  0  0  0  0  0  0 
    4.0791   -1.0762    3.7628 H   0  0  0  0  0  0  0  0  0  0  0  0 
    5.6198   -1.6938    3.1372 H   0  0  0  0  0  0  0  0  0  0  0  0 
    3.9844   -0.5608   -2.1632 H   0  0  0  0  0  0  0  0  0  0  0  0 
    3.8658   -1.9881   -1.1259 H   0  0  0  0  0  0  0  0  0  0  0  0 
    5.3678   -1.0310   -1.1442 H   0  0  0  0  0  0  0  0  0  0  0  0 
    3.8497    1.7908   -1.1731 H   0  0  0  0  0  0  0  0  0  0  0  0 
    5.3411    1.3841   -0.2812 H   0  0  0  0  0  0  0  0  0  0  0  0 
    3.9168    1.9879    0.5951 H   0  0  0  0  0  0  0  0  0  0  0  0 
    2.9026   -1.8971    1.7032 H   0  0  0  0  0  0  0  0  0  0  0  0 
    4.4369   -2.5433    1.0843 H   0  0  0  0  0  0  0  0  0  0  0  0 
  1  9  1  0  0  0  0 
  2 12  1  0  0  0  0 
  2 10  1  0  0  0  0 
  2 11  1  0  0  0  0 
  3 15  1  0  0  0  0 
  3 14  1  0  0  0  0 
  3  7  1  0  0  0  0 
  4  7  1  0  0  0  0 
  4 18  1  0  0  0  0 
  5  1  3  0  0  0  0 
  6  2  1  0  0  0  0 
  7  5  1  0  0  0  0 
  7  8  1  0  0  0  0 
  8  6  1  0  0  0  0 
 13  3  1  0  0  0  0 
 16  4  1  0  0  0  0 
 17  4  1  0  0  0  0 
 19  6  1  0  0  0  0 
 20  6  1  0  0  0  0 
M  END 
>  <HBA> 
1 
 
>  <HBD> 
0 
 
>  <TPSA> 
9.23 
 
>  <cid> 
24426 
 
>  <dipole> 
0.94 
 
>  <excitation_energy_1> 
6.35 
 
>  <excitation_energy_2> 
6.6 
 
>  <excitation_energy_3> 
6.643 
 
>  <excitation_energy_4> 
6.751 
 
>  <homo_energy> 
-6.939 
 
>  <homo_lumo_gap> 
8.106 
 
>  <logP> 
1.435 
 
>  <lumo_energy> 
1.167 
 
>  <melting_point> 
-7.8 
 
>  <molecular_refractivity> 
35.05 
 
>  <oscillator_strength_1> 
0.0004 
 
>  <oscillator_strength_2> 
0.0047 
 
>  <oscillator_strength_3> 
0.0028 
 
>  <oscillator_strength_4> 
0.0045 
 
>  <open_babel_can_smiles> 
CCOC(C#C)(C)C 
 
>  <mulliken_charges> 
20 
1   -0.522452 
2   -0.452585 
3   -0.457516 
4   -0.44403 
5   0.347933 
6   -0.016405 
7   0.198263 
8   -0.490705 
9   0.190375 
10   0.141068 
11   0.158211 
12   0.155486 
13   0.154032 
14   0.156805 
15   0.155828 
16   0.148916 
17   0.154409 
18   0.165571 
19   0.135923 
20   0.120873 
 
>  <lowdin_charges> 
20 
1   -0.254769 
2   -0.446112 
3   -0.445403 
4   -0.433651 
5   -0.046218 
6   -0.129083 
7   0.141626 
8   -0.267883 
9   0.203446 
10   0.152398 
11   0.157957 
12   0.153398 
13   0.159999 
14   0.157142 
15   0.155888 
16   0.156898 
17   0.155814 
18   0.165058 
19   0.135643 
20   0.127851 
 
$$$$ 
 
