PCCDB-ID:  20858 
public computational chemistry database (PCCDB) project, http://pccdb.org 
 
 25 24  0  0  0  0  0  0  0  0999 V2000 
    0.4411   -1.9814    2.7972 C   0  0  0  0  0  0  0  0  0  0  0  0 
   -1.0391    1.5936   -0.2457 C   0  0  0  0  0  0  0  0  0  0  0  0 
    2.6768    1.8376    3.8560 C   0  0  0  0  0  0  0  0  0  0  0  0 
   -0.5227   -0.8456    2.4434 C   0  0  0  0  0  0  0  0  0  0  0  0 
   -0.5936    2.2987    1.0335 C   0  0  0  0  0  0  0  0  0  0  0  0 
    1.1927    1.9053    4.2117 C   0  0  0  0  0  0  0  0  0  0  0  0 
    0.1005    0.5437    2.5589 C   0  0  0  0  0  0  0  0  0  0  0  0 
   -0.8468    1.5454    2.2146 O   0  0  0  0  0  0  0  0  0  0  0  0 
    0.4887    0.7030    3.8995 O   0  0  0  0  0  0  0  0  0  0  0  0 
   -0.0477   -2.9556    2.6862 H   0  0  0  0  0  0  0  0  0  0  0  0 
    0.7901   -1.8868    3.8290 H   0  0  0  0  0  0  0  0  0  0  0  0 
    1.3219   -1.9767    2.1422 H   0  0  0  0  0  0  0  0  0  0  0  0 
   -0.9154    2.2579   -1.1097 H   0  0  0  0  0  0  0  0  0  0  0  0 
   -2.0944    1.3099   -0.1755 H   0  0  0  0  0  0  0  0  0  0  0  0 
   -0.4523    0.6871   -0.4326 H   0  0  0  0  0  0  0  0  0  0  0  0 
    3.1850    2.7536    4.1802 H   0  0  0  0  0  0  0  0  0  0  0  0 
    2.8364    1.7346    2.7768 H   0  0  0  0  0  0  0  0  0  0  0  0 
    3.1519    0.9851    4.3527 H   0  0  0  0  0  0  0  0  0  0  0  0 
   -1.3983   -0.8616    3.1030 H   0  0  0  0  0  0  0  0  0  0  0  0 
   -0.8930   -0.9628    1.4182 H   0  0  0  0  0  0  0  0  0  0  0  0 
   -1.1540    3.2317    1.1601 H   0  0  0  0  0  0  0  0  0  0  0  0 
    0.4745    2.5618    0.9705 H   0  0  0  0  0  0  0  0  0  0  0  0 
    0.7041    2.7592    3.7259 H   0  0  0  0  0  0  0  0  0  0  0  0 
    1.0727    2.0316    5.2926 H   0  0  0  0  0  0  0  0  0  0  0  0 
    0.9727    0.6377    1.8865 H   0  0  0  0  0  0  0  0  0  0  0  0 
  1 11  1  0  0  0  0 
  2 14  1  0  0  0  0 
  2  5  1  0  0  0  0 
  3 16  1  0  0  0  0 
  3  6  1  0  0  0  0 
  3 18  1  0  0  0  0 
  4  7  1  0  0  0  0 
  4  1  1  0  0  0  0 
  4 19  1  0  0  0  0 
  5 21  1  0  0  0  0 
  5  8  1  0  0  0  0 
  6 24  1  0  0  0  0 
  7  9  1  0  0  0  0 
  8  7  1  0  0  0  0 
  9  6  1  0  0  0  0 
 10  1  1  0  0  0  0 
 12  1  1  0  0  0  0 
 13  2  1  0  0  0  0 
 15  2  1  0  0  0  0 
 17  3  1  0  0  0  0 
 20  4  1  0  0  0  0 
 22  5  1  0  0  0  0 
 23  6  1  0  0  0  0 
 25  7  1  0  0  0  0 
M  END 
>  <HBA> 
2 
 
>  <HBD> 
0 
 
>  <TPSA> 
18.46 
 
>  <cid> 
20858 
 
>  <dipole> 
1.98 
 
>  <excitation_energy_1> 
6.436 
 
>  <excitation_energy_2> 
6.756 
 
>  <excitation_energy_3> 
6.849 
 
>  <excitation_energy_4> 
6.963 
 
>  <homo_energy> 
-6.795 
 
>  <homo_lumo_gap> 
8.846 
 
>  <logP> 
1.796 
 
>  <lumo_energy> 
2.052 
 
>  <melting_point> 
-45.13 
 
>  <molecular_refractivity> 
37.93 
 
>  <oscillator_strength_1> 
0.0161 
 
>  <oscillator_strength_2> 
0.0083 
 
>  <oscillator_strength_3> 
0.0101 
 
>  <oscillator_strength_4> 
0.0219 
 
>  <open_babel_can_smiles> 
CCC(OCC)OCC 
 
>  <mulliken_charges> 
25 
1   -0.449929 
2   -0.454878 
3   -0.460908 
4   -0.27437 
5   -0.029357 
6   -0.026962 
7   0.373511 
8   -0.482027 
9   -0.473216 
10   0.141602 
11   0.16661 
12   0.134067 
13   0.141844 
14   0.160593 
15   0.149419 
16   0.143242 
17   0.145974 
18   0.157692 
19   0.154585 
20   0.134884 
21   0.146118 
22   0.12256 
23   0.14112 
24   0.145023 
25   0.0928 
 
>  <lowdin_charges> 
25 
1   -0.446046 
2   -0.461739 
3   -0.461258 
4   -0.28568 
5   -0.12789 
6   -0.131825 
7   0.10192 
8   -0.26943 
9   -0.257883 
10   0.14974 
11   0.157941 
12   0.143375 
13   0.154025 
14   0.156499 
15   0.14991 
16   0.154598 
17   0.145804 
18   0.156674 
19   0.156793 
20   0.145448 
21   0.14688 
22   0.124952 
23   0.139448 
24   0.146219 
25   0.111524 
 
$$$$ 
 
