PCCDB-ID:  66113 
public computational chemistry database (PCCDB) project, http://pccdb.org 
 
 28 27  0  0  0  0  0  0  0  0999 V2000 
    1.5519    1.5354   -2.1161 C   0  0  0  0  0  0  0  0  0  0  0  0 
    7.8060    2.2459    0.2774 C   0  0  0  0  0  0  0  0  0  0  0  0 
    2.8409    1.2604    3.4601 C   0  0  0  0  0  0  0  0  0  0  0  0 
    2.9401    2.1382   -1.9882 C   0  0  0  0  0  0  0  0  0  0  0  0 
    6.4717    2.3266   -0.4384 C   0  0  0  0  0  0  0  0  0  0  0  0 
    4.4276   -0.5025    0.6306 C   0  0  0  0  0  0  0  0  0  0  0  0 
    4.3101    0.4142    1.8276 C   0  0  0  0  0  0  0  0  0  0  0  0 
    5.2111    1.0896    2.2819 O   0  0  0  0  0  0  0  0  0  0  0  0 
    4.4444   -0.5127   -2.1485 O   0  0  0  0  0  0  0  0  0  0  0  0 
    3.0630    0.3940    2.3337 O   0  0  0  0  0  0  0  0  0  0  0  0 
    3.6223    1.6067   -0.8189 O   0  0  0  0  0  0  0  0  0  0  0  0 
    6.1293    1.0032   -0.9276 O   0  0  0  0  0  0  0  0  0  0  0  0 
    4.6536    0.3645   -0.9734 P   0  0  0  0  0  0  0  0  0  0  0  0 
    1.0127    2.0113   -2.9437 H   0  0  0  0  0  0  0  0  0  0  0  0 
    0.9777    1.6872   -1.1962 H   0  0  0  0  0  0  0  0  0  0  0  0 
    1.6209    0.4627   -2.3189 H   0  0  0  0  0  0  0  0  0  0  0  0 
    8.1146    3.2477    0.5987 H   0  0  0  0  0  0  0  0  0  0  0  0 
    8.5787    1.8401   -0.3831 H   0  0  0  0  0  0  0  0  0  0  0  0 
    7.7182    1.6087    1.1615 H   0  0  0  0  0  0  0  0  0  0  0  0 
    3.0141    2.3022    3.1784 H   0  0  0  0  0  0  0  0  0  0  0  0 
    3.5092    0.9975    4.2840 H   0  0  0  0  0  0  0  0  0  0  0  0 
    1.7999    1.1065    3.7441 H   0  0  0  0  0  0  0  0  0  0  0  0 
    2.8973    3.2192   -1.8270 H   0  0  0  0  0  0  0  0  0  0  0  0 
    3.5346    1.9414   -2.8850 H   0  0  0  0  0  0  0  0  0  0  0  0 
    6.5246    2.9848   -1.3130 H   0  0  0  0  0  0  0  0  0  0  0  0 
    5.6896    2.6918    0.2296 H   0  0  0  0  0  0  0  0  0  0  0  0 
    3.5405   -1.1317    0.5338 H   0  0  0  0  0  0  0  0  0  0  0  0 
    5.3080   -1.1401    0.7570 H   0  0  0  0  0  0  0  0  0  0  0  0 
  1  4  1  0  0  0  0 
  1 15  1  0  0  0  0 
  2 17  1  0  0  0  0 
  2 19  1  0  0  0  0 
  3 22  1  0  0  0  0 
  3 21  1  0  0  0  0 
  4 23  1  0  0  0  0 
  4 11  1  0  0  0  0 
  5 26  1  0  0  0  0 
  5  2  1  0  0  0  0 
  6 28  1  0  0  0  0 
  6  7  1  0  0  0  0 
  7  8  2  0  0  0  0 
  7 10  1  0  0  0  0 
  9 13  2  0  0  0  0 
 10  3  1  0  0  0  0 
 12  5  1  0  0  0  0 
 13 12  1  0  0  0  0 
 13 11  1  0  0  0  0 
 13  6  1  0  0  0  0 
 14  1  1  0  0  0  0 
 16  1  1  0  0  0  0 
 18  2  1  0  0  0  0 
 20  3  1  0  0  0  0 
 24  4  1  0  0  0  0 
 25  5  1  0  0  0  0 
 27  6  1  0  0  0  0 
M  END 
>  <HBA> 
5 
 
>  <HBD> 
0 
 
>  <TPSA> 
71.64 
 
>  <cid> 
66113 
 
>  <dipole> 
4.08 
 
>  <excitation_energy_1> 
5.716 
 
>  <excitation_energy_2> 
6.639 
 
>  <excitation_energy_3> 
6.703 
 
>  <excitation_energy_4> 
7.026 
 
>  <homo_energy> 
-7.497 
 
>  <homo_lumo_gap> 
7.388 
 
>  <logP> 
1.425 
 
>  <lumo_energy> 
-0.109 
 
>  <melting_point> 
-17.25 
 
>  <molecular_refractivity> 
47.88 
 
>  <oscillator_strength_1> 
0.0046 
 
>  <oscillator_strength_2> 
0.0109 
 
>  <oscillator_strength_3> 
0.0481 
 
>  <oscillator_strength_4> 
0.0447 
 
>  <open_babel_can_smiles> 
CCOP(=O)(CC(=O)OC)OCC 
 
>  <mulliken_charges> 
28 
1   -0.456663 
2   -0.455799 
3   -0.221174 
4   -0.040925 
5   -0.037273 
6   -0.58223 
7   0.618553 
8   -0.474958 
9   -0.55067 
10   -0.433409 
11   -0.57567 
12   -0.525667 
13   1.171389 
14   0.148475 
15   0.157455 
16   0.185677 
17   0.143811 
18   0.159552 
19   0.180763 
20   0.173216 
21   0.174307 
22   0.168832 
23   0.153301 
24   0.17473 
25   0.145996 
26   0.167984 
27   0.212013 
28   0.218384 
 
>  <lowdin_charges> 
28 
1   -0.453187 
2   -0.451136 
3   -0.27628 
4   -0.114256 
5   -0.115033 
6   -0.475374 
7   0.202361 
8   -0.271353 
9   -0.586766 
10   -0.180498 
11   -0.41738 
12   -0.402423 
13   1.073748 
14   0.158922 
15   0.157125 
16   0.168489 
17   0.155309 
18   0.158883 
19   0.168007 
20   0.159861 
21   0.162399 
22   0.161924 
23   0.148122 
24   0.161951 
25   0.144472 
26   0.157922 
27   0.199152 
28   0.205041 
 
$$$$ 
 
