PCCDB-ID:  11427 
public computational chemistry database (PCCDB) project, http://pccdb.org 
 
 19 18  0  0  1  0  0  0  0  0999 V2000 
    1.6337    2.3045   -0.0964 C   0  0  0  0  0  0  0  0  0  0  0  0 
    4.7288    1.4218   -1.1970 C   0  0  0  0  0  0  0  0  0  0  0  0 
    3.4201    0.8444   -1.7502 C   0  0  0  0  0  0  0  0  0  0  0  0 
    5.3568    2.5706   -1.9995 C   0  0  1  0  0  0  0  0  0  0  0  0 
    5.6445    2.1695   -3.4629 C   0  0  0  0  0  0  0  0  0  0  0  0 
    4.6266    3.8010   -1.9554 O   0  0  0  0  0  0  0  0  0  0  0  0 
    6.0334    1.0714   -3.7877 O   0  0  0  0  0  0  0  0  0  0  0  0 
    5.4542    3.1699   -4.3379 O   0  0  0  0  0  0  0  0  0  0  0  0 
    1.9915    2.0085   -1.8658 S   0  0  0  0  0  0  0  0  0  0  0  0 
    0.7434    2.9371   -0.0576 H   0  0  0  0  0  0  0  0  0  0  0  0 
    2.4560    2.8221    0.4040 H   0  0  0  0  0  0  0  0  0  0  0  0 
    1.4187    1.3615    0.4144 H   0  0  0  0  0  0  0  0  0  0  0  0 
    5.4597    0.6053   -1.1790 H   0  0  0  0  0  0  0  0  0  0  0  0 
    4.5974    1.7591   -0.1623 H   0  0  0  0  0  0  0  0  0  0  0  0 
    3.1050   -0.0145   -1.1481 H   0  0  0  0  0  0  0  0  0  0  0  0 
    3.5705    0.4847   -2.7726 H   0  0  0  0  0  0  0  0  0  0  0  0 
    6.3332    2.7992   -1.5535 H   0  0  0  0  0  0  0  0  0  0  0  0 
    3.6768    3.5714   -2.0557 H   0  0  0  0  0  0  0  0  0  0  0  0 
    5.1156    3.9236   -3.8040 H   0  0  0  0  0  0  0  0  0  0  0  0 
  1 10  1  0  0  0  0 
  1 11  1  0  0  0  0 
  1 12  1  0  0  0  0 
  2 13  1  0  0  0  0 
  2 14  1  0  0  0  0 
  3  2  1  0  0  0  0 
  3 15  1  0  0  0  0 
  4  6  1  0  0  0  0 
  4 17  1  1  0  0  0 
  4  2  1  0  0  0  0 
  5  4  1  0  0  0  0 
  7  5  2  0  0  0  0 
  8 19  1  0  0  0  0 
  8  5  1  0  0  0  0 
  9  3  1  0  0  0  0 
  9  1  1  0  0  0  0 
 16  3  1  0  0  0  0 
 18  6  1  0  0  0  0 
M  END 
>  <HBA> 
4 
 
>  <HBD> 
2 
 
>  <TPSA> 
82.83 
 
>  <cid> 
11427 
 
>  <dipole> 
4.73 
 
>  <excitation_energy_1> 
5.424 
 
>  <excitation_energy_2> 
5.508 
 
>  <excitation_energy_3> 
5.663 
 
>  <excitation_energy_4> 
6.047 
 
>  <homo_energy> 
-6.732 
 
>  <homo_lumo_gap> 
6.906 
 
>  <logP> 
0.185 
 
>  <lumo_energy> 
0.174 
 
>  <melting_point> 
78.85 
 
>  <molecular_refractivity> 
36.67 
 
>  <oscillator_strength_1> 
0.0004 
 
>  <oscillator_strength_2> 
0.0001 
 
>  <oscillator_strength_3> 
0.0169 
 
>  <oscillator_strength_4> 
0.0083 
 
>  <open_babel_can_smiles> 
CSCC[C@@H](C(=O)O)O 
 
>  <mulliken_charges> 
19 
1   -0.585803 
2   -0.281922 
3   -0.434707 
4   0.02313 
5   0.582007 
6   -0.658782 
7   -0.464628 
8   -0.573082 
9   0.063009 
10   0.194596 
11   0.189061 
12   0.185769 
13   0.182417 
14   0.156066 
15   0.180284 
16   0.210683 
17   0.181852 
18   0.42331 
19   0.426738 
 
>  <lowdin_charges> 
19 
1   -0.549785 
2   -0.290285 
3   -0.380765 
4   -0.044779 
5   0.163969 
6   -0.472102 
7   -0.257828 
8   -0.34542 
9   0.111114 
10   0.182377 
11   0.166874 
12   0.168028 
13   0.176904 
14   0.153413 
15   0.166281 
16   0.183577 
17   0.170693 
18   0.334049 
19   0.363686 
 
$$$$ 
 
