PCCDB-ID:  70264 
public computational chemistry database (PCCDB) project, http://pccdb.org 
 
 20 20  0  0  0  0  0  0  0  0999 V2000 
    1.2983    0.1195    0.7688 C   0  0  0  0  0  0  0  0  0  0  0  0 
    4.4643   -3.5917   -0.8592 C   0  0  0  0  0  0  0  0  0  0  0  0 
    5.2828   -2.3331   -0.5328 C   0  0  0  0  0  0  0  0  0  0  0  0 
    3.2482   -3.6991    0.0674 C   0  0  0  0  0  0  0  0  0  0  0  0 
    4.4039   -1.1232   -0.3349 C   0  0  0  0  0  0  0  0  0  0  0  0 
    2.3099   -2.4922   -0.1014 C   0  0  0  0  0  0  0  0  0  0  0  0 
    3.0768   -1.1919   -0.1698 C   0  0  0  0  0  0  0  0  0  0  0  0 
    2.3617   -0.0093   -0.1638 O   0  0  0  0  0  0  0  0  0  0  0  0 
    0.9768    1.1626    0.7154 H   0  0  0  0  0  0  0  0  0  0  0  0 
    1.6267   -0.0990    1.7948 H   0  0  0  0  0  0  0  0  0  0  0  0 
    0.4421   -0.5225    0.5227 H   0  0  0  0  0  0  0  0  0  0  0  0 
    5.0927   -4.4869   -0.7756 H   0  0  0  0  0  0  0  0  0  0  0  0 
    4.1197   -3.5404   -1.9015 H   0  0  0  0  0  0  0  0  0  0  0  0 
    6.0059   -2.1378   -1.3370 H   0  0  0  0  0  0  0  0  0  0  0  0 
    5.8905   -2.5081    0.3700 H   0  0  0  0  0  0  0  0  0  0  0  0 
    3.5937   -3.7439    1.1095 H   0  0  0  0  0  0  0  0  0  0  0  0 
    2.6934   -4.6262   -0.1210 H   0  0  0  0  0  0  0  0  0  0  0  0 
    4.8639   -0.1380   -0.3630 H   0  0  0  0  0  0  0  0  0  0  0  0 
    1.5920   -2.4734    0.7285 H   0  0  0  0  0  0  0  0  0  0  0  0 
    1.7057   -2.5987   -1.0159 H   0  0  0  0  0  0  0  0  0  0  0  0 
  1 10  1  0  0  0  0 
  2 12  1  0  0  0  0 
  2  3  1  0  0  0  0 
  2  4  1  0  0  0  0 
  3  5  1  0  0  0  0 
  3 15  1  0  0  0  0 
  4 16  1  0  0  0  0 
  5  7  2  0  0  0  0 
  6  4  1  0  0  0  0 
  6 19  1  0  0  0  0 
  7  8  1  0  0  0  0 
  7  6  1  0  0  0  0 
  8  1  1  0  0  0  0 
  9  1  1  0  0  0  0 
 11  1  1  0  0  0  0 
 13  2  1  0  0  0  0 
 14  3  1  0  0  0  0 
 17  4  1  0  0  0  0 
 18  5  1  0  0  0  0 
 20  6  1  0  0  0  0 
M  END 
>  <HBA> 
1 
 
>  <HBD> 
0 
 
>  <TPSA> 
9.23 
 
>  <cid> 
70264 
 
>  <dipole> 
1.5 
 
>  <excitation_energy_1> 
5.184 
 
>  <excitation_energy_2> 
5.63 
 
>  <excitation_energy_3> 
5.833 
 
>  <excitation_energy_4> 
5.862 
 
>  <homo_energy> 
-5.633 
 
>  <homo_lumo_gap> 
6.768 
 
>  <logP> 
2.091 
 
>  <lumo_energy> 
1.135 
 
>  <melting_point> 
-0.39 
 
>  <molecular_refractivity> 
34.26 
 
>  <oscillator_strength_1> 
0.0116 
 
>  <oscillator_strength_2> 
0.0046 
 
>  <oscillator_strength_3> 
0.043 
 
>  <oscillator_strength_4> 
0.0028 
 
>  <open_babel_can_smiles> 
COC1=CCCCC1 
 
>  <mulliken_charges> 
20 
1   -0.208983 
2   -0.265369 
3   -0.289882 
4   -0.264709 
5   -0.189429 
6   -0.345203 
7   0.382311 
8   -0.497811 
9   0.162062 
10   0.14097 
11   0.142088 
12   0.130058 
13   0.137031 
14   0.13876 
15   0.138645 
16   0.137721 
17   0.13215 
18   0.123301 
19   0.143746 
20   0.152544 
 
>  <lowdin_charges> 
20 
1   -0.276574 
2   -0.274812 
3   -0.270543 
4   -0.272178 
5   -0.221926 
6   -0.289727 
7   0.072901 
8   -0.225019 
9   0.15682 
10   0.137746 
11   0.138392 
12   0.14389 
13   0.140871 
14   0.148542 
15   0.143604 
16   0.141254 
17   0.144967 
18   0.157687 
19   0.152035 
20   0.15207 
 
$$$$ 
 
