PCCDB-ID:  18693 
public computational chemistry database (PCCDB) project, http://pccdb.org 
 
 25 25  0  0  1  0  0  0  0  0999 V2000 
    6.4658    1.6314   -5.6520 C   0  0  0  0  0  0  0  0  0  0  0  0 
    6.0456    1.4908   -0.9572 C   0  0  0  0  0  0  0  0  0  0  0  0 
    5.8171    2.3937   -4.5082 C   0  0  0  0  0  0  0  0  0  0  0  0 
    7.3736    6.3729   -1.3134 C   0  0  0  0  0  0  0  0  0  0  0  0 
    6.0240    6.1134   -1.0707 C   0  0  0  0  0  0  0  0  0  0  0  0 
    8.1866    5.3657   -1.8392 C   0  0  0  0  0  0  0  0  0  0  0  0 
    5.4928    4.8533   -1.3529 C   0  0  0  0  0  0  0  0  0  0  0  0 
    7.6543    4.1061   -2.1132 C   0  0  0  0  0  0  0  0  0  0  0  0 
    5.7370    2.4402   -2.1173 C   0  0  1  0  0  0  0  0  0  0  0  0 
    6.3014    3.8351   -1.8691 C   0  0  0  0  0  0  0  0  0  0  0  0 
    6.2770    1.8316   -3.2854 O   0  0  0  0  0  0  0  0  0  0  0  0 
    6.1186    2.0194   -6.6160 H   0  0  0  0  0  0  0  0  0  0  0  0 
    6.2172    0.5667   -5.5949 H   0  0  0  0  0  0  0  0  0  0  0  0 
    7.5556    1.7303   -5.6108 H   0  0  0  0  0  0  0  0  0  0  0  0 
    5.6373    1.8816   -0.0196 H   0  0  0  0  0  0  0  0  0  0  0  0 
    7.1284    1.3767   -0.8405 H   0  0  0  0  0  0  0  0  0  0  0  0 
    5.6111    0.5050   -1.1530 H   0  0  0  0  0  0  0  0  0  0  0  0 
    4.7179    2.3142   -4.5635 H   0  0  0  0  0  0  0  0  0  0  0  0 
    6.0705    3.4630   -4.5621 H   0  0  0  0  0  0  0  0  0  0  0  0 
    7.7884    7.3547   -1.1006 H   0  0  0  0  0  0  0  0  0  0  0  0 
    5.3818    6.8937   -0.6703 H   0  0  0  0  0  0  0  0  0  0  0  0 
    9.2372    5.5631   -2.0372 H   0  0  0  0  0  0  0  0  0  0  0  0 
    4.4374    4.6588   -1.1703 H   0  0  0  0  0  0  0  0  0  0  0  0 
    8.2801    3.3231   -2.5321 H   0  0  0  0  0  0  0  0  0  0  0  0 
    4.6416    2.5220   -2.2260 H   0  0  0  0  0  0  0  0  0  0  0  0 
  1 14  1  0  0  0  0 
  1 13  1  0  0  0  0 
  1  3  1  0  0  0  0 
  2 16  1  0  0  0  0 
  2 15  1  0  0  0  0 
  3 11  1  0  0  0  0 
  4 20  1  0  0  0  0 
  4  5  1  0  0  0  0 
  5 21  1  0  0  0  0 
  6  4  2  0  0  0  0 
  7 23  1  0  0  0  0 
  7  5  2  0  0  0  0 
  8 10  2  0  0  0  0 
  8  6  1  0  0  0  0 
  9 25  1  6  0  0  0 
  9 10  1  0  0  0  0 
  9  2  1  0  0  0  0 
 10  7  1  0  0  0  0 
 11  9  1  0  0  0  0 
 12  1  1  0  0  0  0 
 17  2  1  0  0  0  0 
 18  3  1  0  0  0  0 
 19  3  1  0  0  0  0 
 22  6  1  0  0  0  0 
 24  8  1  0  0  0  0 
M  END 
>  <HBA> 
1 
 
>  <HBD> 
0 
 
>  <TPSA> 
9.23 
 
>  <cid> 
18693 
 
>  <dipole> 
0.92 
 
>  <excitation_energy_1> 
5.302 
 
>  <excitation_energy_2> 
5.819 
 
>  <excitation_energy_3> 
5.963 
 
>  <excitation_energy_4> 
5.989 
 
>  <homo_energy> 
-6.517 
 
>  <homo_lumo_gap> 
6.534 
 
>  <logP> 
2.784 
 
>  <lumo_energy> 
0.016 
 
>  <melting_point> 
-3.79 
 
>  <molecular_refractivity> 
46.91 
 
>  <oscillator_strength_1> 
0.0001 
 
>  <oscillator_strength_2> 
0.0215 
 
>  <oscillator_strength_3> 
0.0123 
 
>  <oscillator_strength_4> 
0.0008 
 
>  <open_babel_can_smiles> 
CCO[C@H](c1ccccc1)C 
 
>  <mulliken_charges> 
25 
1   -0.453351 
2   -0.44469 
3   -0.011268 
4   -0.129532 
5   -0.129416 
6   -0.129653 
7   -0.185756 
8   -0.1768 
9   0.085653 
10   0.137 
11   -0.483204 
12   0.142298 
13   0.156543 
14   0.155806 
15   0.146503 
16   0.156971 
17   0.153417 
18   0.117478 
19   0.132665 
20   0.127857 
21   0.128003 
22   0.128739 
23   0.122209 
24   0.140922 
25   0.111606 
 
>  <lowdin_charges> 
25 
1   -0.444714 
2   -0.441314 
3   -0.123094 
4   -0.159443 
5   -0.157465 
6   -0.153088 
7   -0.167042 
8   -0.162799 
9   0.00938 
10   -0.020936 
11   -0.272142 
12   0.153419 
13   0.154326 
14   0.153485 
15   0.155401 
16   0.155883 
17   0.155757 
18   0.122154 
19   0.130944 
20   0.156454 
21   0.158002 
22   0.155371 
23   0.151844 
24   0.164329 
25   0.125289 
 
$$$$ 
 
