PCCDB-ID:  69168 
public computational chemistry database (PCCDB) project, http://pccdb.org 
 
 27 29  0  0  0  0  0  0  0  0999 V2000 
   -1.5163   -0.0441    0.1319 C   0  0  0  0  0  0  0  0  0  0  0  0 
   -0.7247   -0.9840    0.7945 C   0  0  0  0  0  0  0  0  0  0  0  0 
   -0.9049    0.9655   -0.6134 C   0  0  0  0  0  0  0  0  0  0  0  0 
    7.1415   -1.9343   -0.4846 C   0  0  0  0  0  0  0  0  0  0  0  0 
    0.6649   -0.9147    0.7119 C   0  0  0  0  0  0  0  0  0  0  0  0 
    0.4851    1.0341   -0.6962 C   0  0  0  0  0  0  0  0  0  0  0  0 
    5.7778   -2.0844   -0.4019 C   0  0  0  0  0  0  0  0  0  0  0  0 
    3.4426    1.4233   -0.1382 C   0  0  0  0  0  0  0  0  0  0  0  0 
    4.8113    1.5128   -0.2227 C   0  0  0  0  0  0  0  0  0  0  0  0 
    7.6854   -0.6244   -0.4718 C   0  0  0  0  0  0  0  0  0  0  0  0 
    3.5438   -0.9883   -0.2168 C   0  0  0  0  0  0  0  0  0  0  0  0 
    1.2953    0.0936   -0.0373 C   0  0  0  0  0  0  0  0  0  0  0  0 
    2.7757    0.1615   -0.1322 C   0  0  0  0  0  0  0  0  0  0  0  0 
    4.9568   -0.9308   -0.3055 C   0  0  0  0  0  0  0  0  0  0  0  0 
    5.6102    0.3425   -0.3087 C   0  0  0  0  0  0  0  0  0  0  0  0 
    6.9662    0.4772   -0.3887 N   0  0  0  0  0  0  0  0  0  0  0  0 
   -2.5997   -0.0971    0.1971 H   0  0  0  0  0  0  0  0  0  0  0  0 
   -1.1896   -1.7684    1.3860 H   0  0  0  0  0  0  0  0  0  0  0  0 
   -1.5111    1.6995   -1.1378 H   0  0  0  0  0  0  0  0  0  0  0  0 
    7.8019   -2.7932   -0.5589 H   0  0  0  0  0  0  0  0  0  0  0  0 
    1.2723   -1.6329    1.2556 H   0  0  0  0  0  0  0  0  0  0  0  0 
    0.9482    1.8096   -1.2999 H   0  0  0  0  0  0  0  0  0  0  0  0 
    5.3179   -3.0701   -0.4064 H   0  0  0  0  0  0  0  0  0  0  0  0 
    2.8503    2.3293   -0.0485 H   0  0  0  0  0  0  0  0  0  0  0  0 
    5.3199    2.4718   -0.2172 H   0  0  0  0  0  0  0  0  0  0  0  0 
    8.7654   -0.4916   -0.5317 H   0  0  0  0  0  0  0  0  0  0  0  0 
    3.0609   -1.9621   -0.2449 H   0  0  0  0  0  0  0  0  0  0  0  0 
  1 17  1  0  0  0  0 
  1  2  2  0  0  0  0 
  2 18  1  0  0  0  0 
  3  1  1  0  0  0  0 
  4 10  2  0  0  0  0 
  4  7  1  0  0  0  0 
  5  2  1  0  0  0  0 
  5 21  1  0  0  0  0 
  6  3  2  0  0  0  0 
  6 12  1  0  0  0  0 
  7 14  2  0  0  0  0 
  8 13  1  0  0  0  0 
  8 24  1  0  0  0  0 
  9 25  1  0  0  0  0 
  9  8  2  0  0  0  0 
 10 16  1  0  0  0  0 
 11 13  2  0  0  0  0 
 12  5  2  0  0  0  0 
 13 12  1  0  0  0  0 
 14 11  1  0  0  0  0 
 15 14  1  0  0  0  0 
 15  9  1  0  0  0  0 
 16 15  2  0  0  0  0 
 19  3  1  0  0  0  0 
 20  4  1  0  0  0  0 
 22  6  1  0  0  0  0 
 23  7  1  0  0  0  0 
 26 10  1  0  0  0  0 
 27 11  1  0  0  0  0 
M  END 
>  <HBA> 
1 
 
>  <HBD> 
0 
 
>  <TPSA> 
12.89 
 
>  <cid> 
69168 
 
>  <dipole> 
2.12 
 
>  <excitation_energy_1> 
4.01 
 
>  <excitation_energy_2> 
4.249 
 
>  <excitation_energy_3> 
4.266 
 
>  <excitation_energy_4> 
4.714 
 
>  <homo_energy> 
-6.016 
 
>  <homo_lumo_gap> 
4.528 
 
>  <logP> 
3.902 
 
>  <lumo_energy> 
-1.488 
 
>  <melting_point> 
101.43 
 
>  <molecular_refractivity> 
67.18 
 
>  <oscillator_strength_1> 
0.1279 
 
>  <oscillator_strength_2> 
0.0022 
 
>  <oscillator_strength_3> 
0.0122 
 
>  <oscillator_strength_4> 
0.002 
 
>  <open_babel_can_smiles> 
c1ccc(cc1)c1ccc2c(c1)cccn2 
 
>  <mulliken_charges> 
27 
1   -0.1259 
2   -0.134287 
3   -0.133563 
4   -0.155885 
5   -0.170957 
6   -0.174672 
7   -0.146261 
8   -0.178509 
9   -0.144856 
10   0.043952 
11   -0.264894 
12   0.088198 
13   0.09304 
14   0.163918 
15   0.236926 
16   -0.496966 
17   0.131387 
18   0.131868 
19   0.132414 
20   0.137855 
21   0.13238 
22   0.134727 
23   0.14132 
24   0.137767 
25   0.14558 
26   0.140518 
27   0.134901 
 
>  <lowdin_charges> 
27 
1   -0.154056 
2   -0.154676 
3   -0.154908 
4   -0.182115 
5   -0.16203 
6   -0.161876 
7   -0.127484 
8   -0.156914 
9   -0.148885 
10   -0.083529 
11   -0.16354 
12   -0.002221 
13   0.000681 
14   -0.014141 
15   0.039912 
16   -0.148964 
17   0.156854 
18   0.159834 
19   0.16042 
20   0.165484 
21   0.160809 
22   0.161212 
23   0.162206 
24   0.163633 
25   0.170602 
26   0.153853 
27   0.159839 
 
$$$$ 
 
