PCCDB-ID:  58007 
public computational chemistry database (PCCDB) project, http://pccdb.org 
 
 32 32  0  0  1  0  0  0  0  0999 V2000 
    2.6171   -3.5534   -0.6153 C   0  0  0  0  0  0  0  0  0  0  0  0 
    1.8857   -0.6975    1.9801 C   0  0  0  0  0  0  0  0  0  0  0  0 
   10.8817   -0.2528    0.0193 C   0  0  0  0  0  0  0  0  0  0  0  0 
    2.1615   -2.8605    0.6723 C   0  0  0  0  0  0  0  0  0  0  0  0 
    4.8790   -1.6571    1.7265 C   0  0  0  0  0  0  0  0  0  0  0  0 
    4.6365   -0.3628   -0.2799 C   0  0  0  0  0  0  0  0  0  0  0  0 
    6.2533   -1.4252    1.7170 C   0  0  0  0  0  0  0  0  0  0  0  0 
    6.0105   -0.1249   -0.3096 C   0  0  0  0  0  0  0  0  0  0  0  0 
    2.5371   -1.3633    0.7522 C   0  0  2  0  0  0  0  0  0  0  0  0 
    4.0425   -1.1295    0.7314 C   0  0  0  0  0  0  0  0  0  0  0  0 
    6.8096   -0.6553    0.6992 C   0  0  0  0  0  0  0  0  0  0  0  0 
    8.8133    0.6828    0.6454 C   0  0  0  0  0  0  0  0  0  0  0  0 
   10.0327    0.8715    0.3756 N   0  0  0  0  0  0  0  0  0  0  0  0 
    7.9887    1.7048    0.9718 O   0  0  0  0  0  0  0  0  0  0  0  0 
    8.2005   -0.5303    0.6795 O   0  0  0  0  0  0  0  0  0  0  0  0 
    2.2966   -4.6012   -0.6325 H   0  0  0  0  0  0  0  0  0  0  0  0 
    3.7076   -3.5338   -0.7160 H   0  0  0  0  0  0  0  0  0  0  0  0 
    2.1926   -3.0615   -1.4995 H   0  0  0  0  0  0  0  0  0  0  0  0 
    0.7963   -0.8194    1.9551 H   0  0  0  0  0  0  0  0  0  0  0  0 
    2.1098    0.3741    2.0143 H   0  0  0  0  0  0  0  0  0  0  0  0 
    2.2497   -1.1428    2.9137 H   0  0  0  0  0  0  0  0  0  0  0  0 
   11.5591    0.0562   -0.7844 H   0  0  0  0  0  0  0  0  0  0  0  0 
   10.3279   -1.1415   -0.3088 H   0  0  0  0  0  0  0  0  0  0  0  0 
   11.5063   -0.5372    0.8764 H   0  0  0  0  0  0  0  0  0  0  0  0 
    2.5795   -3.3862    1.5423 H   0  0  0  0  0  0  0  0  0  0  0  0 
    1.0700   -2.9439    0.7655 H   0  0  0  0  0  0  0  0  0  0  0  0 
    4.4557   -2.2573    2.5281 H   0  0  0  0  0  0  0  0  0  0  0  0 
    4.0129    0.0539   -1.0675 H   0  0  0  0  0  0  0  0  0  0  0  0 
    6.9003   -1.8354    2.4860 H   0  0  0  0  0  0  0  0  0  0  0  0 
    6.4558    0.4649   -1.1041 H   0  0  0  0  0  0  0  0  0  0  0  0 
    2.1230   -0.8770   -0.1430 H   0  0  0  0  0  0  0  0  0  0  0  0 
    8.5511    2.4982    0.9249 H   0  0  0  0  0  0  0  0  0  0  0  0 
  1  4  1  0  0  0  0 
  2 20  1  0  0  0  0 
  2 21  1  0  0  0  0 
  3 13  1  0  0  0  0 
  3 24  1  0  0  0  0 
  4  9  1  0  0  0  0 
  4 26  1  0  0  0  0 
  4 25  1  0  0  0  0 
  5 27  1  0  0  0  0 
  6 10  1  0  0  0  0 
  7  5  1  0  0  0  0 
  7 29  1  0  0  0  0 
  8  6  2  0  0  0  0 
  8 11  1  0  0  0  0 
  9 31  1  6  0  0  0 
  9  2  1  0  0  0  0 
 10  9  1  0  0  0  0 
 10  5  2  0  0  0  0 
 11  7  2  0  0  0  0 
 12 15  1  0  0  0  0 
 12 14  1  0  0  0  0 
 13 12  2  0  0  0  0 
 15 11  1  0  0  0  0 
 16  1  1  0  0  0  0 
 17  1  1  0  0  0  0 
 18  1  1  0  0  0  0 
 19  2  1  0  0  0  0 
 22  3  1  0  0  0  0 
 23  3  1  0  0  0  0 
 28  6  1  0  0  0  0 
 30  8  1  0  0  0  0 
 32 14  1  0  0  0  0 
M  END 
>  <HBA> 
3 
 
>  <HBD> 
1 
 
>  <TPSA> 
38.33 
 
>  <cid> 
58007 
 
>  <dipole> 
1.55 
 
>  <excitation_energy_1> 
5.133 
 
>  <excitation_energy_2> 
5.606 
 
>  <excitation_energy_3> 
5.777 
 
>  <excitation_energy_4> 
5.816 
 
>  <homo_energy> 
-6.245 
 
>  <homo_lumo_gap> 
6.098 
 
>  <logP> 
3.309 
 
>  <lumo_energy> 
-0.147 
 
>  <melting_point> 
69.51 
 
>  <molecular_refractivity> 
60.52 
 
>  <oscillator_strength_1> 
0.0081 
 
>  <oscillator_strength_2> 
0.2102 
 
>  <oscillator_strength_3> 
0.0096 
 
>  <oscillator_strength_4> 
0.0014 
 
>  <open_babel_can_smiles> 
CC[C@H](c1ccc(cc1)O/C(=N\C)/O)C 
 
>  <mulliken_charges> 
32 
1   -0.446725 
2   -0.443568 
3   -0.322908 
4   -0.246719 
5   -0.199628 
6   -0.211586 
7   -0.159685 
8   -0.134236 
9   -0.16153 
10   0.193519 
11   0.349358 
12   0.702151 
13   -0.480479 
14   -0.59086 
15   -0.535528 
16   0.142423 
17   0.155984 
18   0.139176 
19   0.141861 
20   0.150532 
21   0.143581 
22   0.152928 
23   0.152431 
24   0.153807 
25   0.131446 
26   0.131422 
27   0.132092 
28   0.129669 
29   0.141917 
30   0.141366 
31   0.125038 
32   0.42275 
 
>  <lowdin_charges> 
32 
1   -0.444895 
2   -0.437732 
3   -0.355282 
4   -0.269949 
5   -0.159204 
6   -0.162418 
7   -0.170353 
8   -0.170061 
9   -0.121939 
10   -0.00398 
11   0.102315 
12   0.186329 
13   -0.262653 
14   -0.360649 
15   -0.160916 
16   0.149066 
17   0.152106 
18   0.146113 
19   0.146597 
20   0.151938 
21   0.147971 
22   0.152035 
23   0.144419 
24   0.151744 
25   0.140253 
26   0.139661 
27   0.158832 
28   0.158685 
29   0.169612 
30   0.168735 
31   0.140997 
32   0.372622 
 
$$$$ 
 
