PCCDB-ID:  34546 
public computational chemistry database (PCCDB) project, http://pccdb.org 
 
 30 31  0  0  0  0  0  0  0  0999 V2000 
    1.0316   -2.1055   -0.4053 C   0  0  0  0  0  0  0  0  0  0  0  0 
    8.8922   -1.1585   -3.5346 C   0  0  0  0  0  0  0  0  0  0  0  0 
   11.2456    0.6435   -1.1268 C   0  0  0  0  0  0  0  0  0  0  0  0 
   10.4132    0.8889   -0.0298 C   0  0  0  0  0  0  0  0  0  0  0  0 
   10.7448   -0.0168   -2.2484 C   0  0  0  0  0  0  0  0  0  0  0  0 
    9.0892    0.4719   -0.0641 C   0  0  0  0  0  0  0  0  0  0  0  0 
    3.3099   -1.9263   -1.5121 C   0  0  0  0  0  0  0  0  0  0  0  0 
    3.0320   -1.0175    0.7012 C   0  0  0  0  0  0  0  0  0  0  0  0 
    4.6410   -1.5283   -1.5244 C   0  0  0  0  0  0  0  0  0  0  0  0 
    4.3628   -0.6131    0.7000 C   0  0  0  0  0  0  0  0  0  0  0  0 
    2.4803   -1.6794   -0.4053 C   0  0  0  0  0  0  0  0  0  0  0  0 
    9.4144   -0.4470   -2.3092 C   0  0  0  0  0  0  0  0  0  0  0  0 
    5.1809   -0.8645   -0.4107 C   0  0  0  0  0  0  0  0  0  0  0  0 
    8.5840   -0.1934   -1.1945 C   0  0  0  0  0  0  0  0  0  0  0  0 
    6.5173   -0.4104   -0.3004 N   0  0  0  0  0  0  0  0  0  0  0  0 
    7.2455   -0.6475   -1.3034 N   0  0  0  0  0  0  0  0  0  0  0  0 
    0.7896   -2.7044   -1.2886 H   0  0  0  0  0  0  0  0  0  0  0  0 
    0.3610   -1.2365   -0.3991 H   0  0  0  0  0  0  0  0  0  0  0  0 
    0.7900   -2.7019    0.4828 H   0  0  0  0  0  0  0  0  0  0  0  0 
    9.6874   -1.2793   -4.2770 H   0  0  0  0  0  0  0  0  0  0  0  0 
    8.0702   -0.6044   -4.0005 H   0  0  0  0  0  0  0  0  0  0  0  0 
    8.4993   -2.1501   -3.2868 H   0  0  0  0  0  0  0  0  0  0  0  0 
   12.2832    0.9668   -1.1082 H   0  0  0  0  0  0  0  0  0  0  0  0 
   10.7989    1.4043    0.8458 H   0  0  0  0  0  0  0  0  0  0  0  0 
   11.3971   -0.2041   -3.0979 H   0  0  0  0  0  0  0  0  0  0  0  0 
    8.4195    0.6473    0.7704 H   0  0  0  0  0  0  0  0  0  0  0  0 
    2.8985   -2.4414   -2.3773 H   0  0  0  0  0  0  0  0  0  0  0  0 
    2.4100   -0.8169    1.5707 H   0  0  0  0  0  0  0  0  0  0  0  0 
    5.2780   -1.7211   -2.3803 H   0  0  0  0  0  0  0  0  0  0  0  0 
    4.7977   -0.1009    1.5531 H   0  0  0  0  0  0  0  0  0  0  0  0 
  1 11  1  0  0  0  0 
  1 18  1  0  0  0  0 
  1 19  1  0  0  0  0 
  2 22  1  0  0  0  0 
  2 12  1  0  0  0  0 
  3 23  1  0  0  0  0 
  3  4  2  0  0  0  0 
  4 24  1  0  0  0  0 
  5  3  1  0  0  0  0 
  6  4  1  0  0  0  0 
  6 26  1  0  0  0  0 
  7 11  1  0  0  0  0 
  8 28  1  0  0  0  0 
  9  7  2  0  0  0  0 
  9 13  1  0  0  0  0 
 10  8  1  0  0  0  0 
 10 30  1  0  0  0  0 
 11  8  2  0  0  0  0 
 12  5  2  0  0  0  0 
 12 14  1  0  0  0  0 
 13 15  1  0  0  0  0 
 13 10  2  0  0  0  0 
 14  6  2  0  0  0  0 
 16 14  1  0  0  0  0 
 16 15  1  0  0  0  0 
 17  1  1  0  0  0  0 
 20  2  1  0  0  0  0 
 21  2  1  0  0  0  0 
 25  5  1  0  0  0  0 
 27  7  1  0  0  0  0 
 29  9  1  0  0  0  0 
M  RAD  2  15   2  16   2 
M  END 
>  <HBA> 
2 
 
>  <HBD> 
0 
 
>  <TPSA> 
24.72 
 
>  <cid> 
34546 
 
>  <dipole> 
0.87 
 
>  <excitation_energy_1> 
2.534 
 
>  <excitation_energy_2> 
3.463 
 
>  <excitation_energy_3> 
3.801 
 
>  <excitation_energy_4> 
4.031 
 
>  <homo_energy> 
-5.924 
 
>  <homo_lumo_gap> 
3.818 
 
>  <logP> 
4.719 
 
>  <lumo_energy> 
-2.106 
 
>  <melting_point> 
70.49 
 
>  <molecular_refractivity> 
66.99 
 
>  <oscillator_strength_1> 
0.0 
 
>  <oscillator_strength_2> 
0.787 
 
>  <oscillator_strength_3> 
0.0241 
 
>  <oscillator_strength_4> 
0.0239 
 
>  <open_babel_can_smiles> 
Cc1ccc(cc1)[N][N]c1ccccc1C 
 
>  <mulliken_charges> 
30 
1   -0.532597 
2   -0.515231 
3   -0.111476 
4   -0.14995 
5   -0.197399 
6   -0.123145 
7   -0.198802 
8   -0.187287 
9   -0.123039 
10   -0.138223 
11   0.187978 
12   0.157542 
13   0.268242 
14   0.217566 
15   -0.308942 
16   -0.313668 
17   0.158001 
18   0.167611 
19   0.164848 
20   0.145529 
21   0.169901 
22   0.170592 
23   0.13134 
24   0.132387 
25   0.125562 
26   0.15473 
27   0.127652 
28   0.127034 
29   0.153127 
30   0.140117 
 
>  <lowdin_charges> 
30 
1   -0.444067 
2   -0.441767 
3   -0.143399 
4   -0.160582 
5   -0.17108 
6   -0.149652 
7   -0.165533 
8   -0.168018 
9   -0.150067 
10   -0.144626 
11   0.012519 
12   0.011018 
13   0.006656 
14   0.000298 
15   -0.080558 
16   -0.085972 
17   0.158745 
18   0.164257 
19   0.163011 
20   0.152829 
21   0.167407 
22   0.166259 
23   0.157662 
24   0.159173 
25   0.15689 
26   0.173558 
27   0.156996 
28   0.157732 
29   0.172916 
30   0.167395 
 
$$$$ 
 
