PCCDB-ID:  66559 
public computational chemistry database (PCCDB) project, http://pccdb.org 
 
 20 20  0  0  0  0  0  0  0  0999 V2000 
    2.0645    0.5127   -0.1929 C   0  0  0  0  0  0  0  0  0  0  0  0 
    4.2673   -2.9326   -3.0851 C   0  0  0  0  0  0  0  0  0  0  0  0 
    4.4209   -1.5725   -3.3501 C   0  0  0  0  0  0  0  0  0  0  0  0 
    3.8125   -3.3640   -1.8448 C   0  0  0  0  0  0  0  0  0  0  0  0 
    4.1116   -0.6129   -2.3767 C   0  0  0  0  0  0  0  0  0  0  0  0 
    3.4763   -2.4095   -0.8808 C   0  0  0  0  0  0  0  0  0  0  0  0 
    3.6056   -1.0342   -1.1237 C   0  0  0  0  0  0  0  0  0  0  0  0 
    4.2467    0.7530   -2.6069 N   0  0  0  0  0  0  0  0  0  0  0  0 
    2.9918   -2.9131    0.4113 N   0  0  0  0  0  0  0  0  0  0  0  0 
    2.2155   -2.2152    1.0630 O   0  0  0  0  0  0  0  0  0  0  0  0 
    3.3840   -4.0268    0.7617 O   0  0  0  0  0  0  0  0  0  0  0  0 
    3.3839   -0.0676   -0.1774 O   0  0  0  0  0  0  0  0  0  0  0  0 
    2.0753    1.2880    0.5758 H   0  0  0  0  0  0  0  0  0  0  0  0 
    1.3181   -0.2437    0.0569 H   0  0  0  0  0  0  0  0  0  0  0  0 
    1.8500    0.9605   -1.1700 H   0  0  0  0  0  0  0  0  0  0  0  0 
    4.5170   -3.6610   -3.8506 H   0  0  0  0  0  0  0  0  0  0  0  0 
    4.7930   -1.2431   -4.3173 H   0  0  0  0  0  0  0  0  0  0  0  0 
    3.7091   -4.4140   -1.6035 H   0  0  0  0  0  0  0  0  0  0  0  0 
    4.9180    1.0016   -3.3225 H   0  0  0  0  0  0  0  0  0  0  0  0 
    4.3711    1.2883   -1.7551 H   0  0  0  0  0  0  0  0  0  0  0  0 
  1 12  1  0  0  0  0 
  1 14  1  0  0  0  0 
  1 13  1  0  0  0  0 
  2  4  1  0  0  0  0 
  3  2  2  0  0  0  0 
  3  5  1  0  0  0  0 
  4 18  1  0  0  0  0 
  4  6  2  0  0  0  0 
  5  7  2  0  0  0  0 
  6  9  1  0  0  0  0 
  7  6  1  0  0  0  0 
  7 12  1  0  0  0  0 
  8  5  1  0  0  0  0 
  8 20  1  0  0  0  0 
  9 11  2  0  0  0  0 
  9 10  2  0  0  0  0 
 15  1  1  0  0  0  0 
 16  2  1  0  0  0  0 
 17  3  1  0  0  0  0 
 19  8  1  0  0  0  0 
M  END 
>  <HBA> 
2 
 
>  <HBD> 
1 
 
>  <TPSA> 
81.07 
 
>  <cid> 
66559 
 
>  <dipole> 
5.33 
 
>  <excitation_energy_1> 
3.148 
 
>  <excitation_energy_2> 
3.702 
 
>  <excitation_energy_3> 
4.213 
 
>  <excitation_energy_4> 
4.502 
 
>  <homo_energy> 
-6.025 
 
>  <homo_lumo_gap> 
3.905 
 
>  <logP> 
2.29 
 
>  <lumo_energy> 
-2.12 
 
>  <melting_point> 
98.38 
 
>  <molecular_refractivity> 
46.16 
 
>  <oscillator_strength_1> 
0.0262 
 
>  <oscillator_strength_2> 
0.0156 
 
>  <oscillator_strength_3> 
0.0011 
 
>  <oscillator_strength_4> 
0.069 
 
>  <open_babel_can_smiles> 
COc1c(N)cccc1N(=O)=O 
 
>  <mulliken_charges> 
20 
1   -0.225361 
2   -0.144763 
3   -0.16894 
4   -0.164696 
5   0.285311 
6   0.243569 
7   0.297862 
8   -0.794645 
9   0.3617 
10   -0.386217 
11   -0.386552 
12   -0.535551 
13   0.164635 
14   0.1806 
15   0.155975 
16   0.14354 
17   0.133428 
18   0.172723 
19   0.326211 
20   0.341173 
 
>  <lowdin_charges> 
20 
1   -0.278229 
2   -0.148141 
3   -0.178611 
4   -0.165459 
5   0.044815 
6   -0.005906 
7   0.06967 
8   -0.483556 
9   0.312101 
10   -0.240685 
11   -0.246064 
12   -0.227063 
13   0.160685 
14   0.161398 
15   0.146514 
16   0.167593 
17   0.16111 
18   0.182393 
19   0.280603 
20   0.286832 
 
$$$$ 
 
