PCCDB-ID:  18401 
public computational chemistry database (PCCDB) project, http://pccdb.org 
 
 31 30  0  0  0  0  0  0  0  0999 V2000 
    3.9892   -2.2673    1.4184 C   0  0  0  0  0  0  0  0  0  0  0  0 
    4.8616    3.8857   -0.2301 C   0  0  0  0  0  0  0  0  0  0  0  0 
    4.2711    3.2417    2.1243 C   0  0  0  0  0  0  0  0  0  0  0  0 
    3.9145   -1.0159    0.5377 C   0  0  0  0  0  0  0  0  0  0  0  0 
    4.5282    0.2276    1.1970 C   0  0  0  0  0  0  0  0  0  0  0  0 
    4.4438    1.4676    0.2950 C   0  0  0  0  0  0  0  0  0  0  0  0 
    6.5008    2.6590    1.2268 C   0  0  0  0  0  0  0  0  0  0  0  0 
    8.5572    2.0774    0.2195 C   0  0  0  0  0  0  0  0  0  0  0  0 
    5.0191    2.7974    0.8509 C   0  0  0  0  0  0  0  0  0  0  0  0 
    9.1646    2.3013    1.3168 N   0  0  0  0  0  0  0  0  0  0  0  0 
    9.0562    1.6696   -0.9801 O   0  0  0  0  0  0  0  0  0  0  0  0 
    7.2379    2.2182    0.0682 O   0  0  0  0  0  0  0  0  0  0  0  0 
    3.5438   -3.1352    0.9184 H   0  0  0  0  0  0  0  0  0  0  0  0 
    3.4565   -2.1200    2.3661 H   0  0  0  0  0  0  0  0  0  0  0  0 
    5.0289   -2.5199    1.6608 H   0  0  0  0  0  0  0  0  0  0  0  0 
    3.8056    4.0190   -0.4938 H   0  0  0  0  0  0  0  0  0  0  0  0 
    5.4093    3.6194   -1.1395 H   0  0  0  0  0  0  0  0  0  0  0  0 
    5.2421    4.8519    0.1240 H   0  0  0  0  0  0  0  0  0  0  0  0 
    3.1977    3.3389    1.9235 H   0  0  0  0  0  0  0  0  0  0  0  0 
    4.6336    4.2166    2.4720 H   0  0  0  0  0  0  0  0  0  0  0  0 
    4.3946    2.5290    2.9472 H   0  0  0  0  0  0  0  0  0  0  0  0 
    2.8649   -0.8103    0.2829 H   0  0  0  0  0  0  0  0  0  0  0  0 
    4.4264   -1.2075   -0.4157 H   0  0  0  0  0  0  0  0  0  0  0  0 
    5.5769    0.0133    1.4453 H   0  0  0  0  0  0  0  0  0  0  0  0 
    4.0162    0.4103    2.1519 H   0  0  0  0  0  0  0  0  0  0  0  0 
    3.3888    1.6456    0.0390 H   0  0  0  0  0  0  0  0  0  0  0  0 
    4.9545    1.2454   -0.6505 H   0  0  0  0  0  0  0  0  0  0  0  0 
    6.6555    1.9366    2.0341 H   0  0  0  0  0  0  0  0  0  0  0  0 
    6.9130    3.6175    1.5612 H   0  0  0  0  0  0  0  0  0  0  0  0 
   10.1692    2.1423    1.2438 H   0  0  0  0  0  0  0  0  0  0  0  0 
   10.0151    1.5619   -0.8884 H   0  0  0  0  0  0  0  0  0  0  0  0 
  1 15  1  0  0  0  0 
  1 14  1  0  0  0  0 
  2 18  1  0  0  0  0 
  2  9  1  0  0  0  0 
  3 20  1  0  0  0  0 
  3 21  1  0  0  0  0 
  4  5  1  0  0  0  0 
  4  1  1  0  0  0  0 
  5 24  1  0  0  0  0 
  5 25  1  0  0  0  0 
  6  9  1  0  0  0  0 
  6  5  1  0  0  0  0 
  7 29  1  0  0  0  0 
  7 28  1  0  0  0  0 
  8 10  2  0  0  0  0 
  9  7  1  0  0  0  0 
  9  3  1  0  0  0  0 
 11 31  1  0  0  0  0 
 11  8  1  0  0  0  0 
 12  8  1  0  0  0  0 
 12  7  1  0  0  0  0 
 13  1  1  0  0  0  0 
 16  2  1  0  0  0  0 
 17  2  1  0  0  0  0 
 19  3  1  0  0  0  0 
 22  4  1  0  0  0  0 
 23  4  1  0  0  0  0 
 26  6  1  0  0  0  0 
 27  6  1  0  0  0  0 
 30 10  1  0  0  0  0 
M  END 
>  <HBA> 
3 
 
>  <HBD> 
1 
 
>  <TPSA> 
52.32 
 
>  <cid> 
18401 
 
>  <dipole> 
1.15 
 
>  <excitation_energy_1> 
5.889 
 
>  <excitation_energy_2> 
6.388 
 
>  <excitation_energy_3> 
7.05 
 
>  <excitation_energy_4> 
7.121 
 
>  <homo_energy> 
-7.042 
 
>  <homo_lumo_gap> 
8.324 
 
>  <logP> 
2.998 
 
>  <lumo_energy> 
1.282 
 
>  <melting_point> 
67.15 
 
>  <molecular_refractivity> 
49.5 
 
>  <oscillator_strength_1> 
0.005 
 
>  <oscillator_strength_2> 
0.0438 
 
>  <oscillator_strength_3> 
0.0116 
 
>  <oscillator_strength_4> 
0.0008 
 
>  <open_babel_can_smiles> 
CCCCC(COC(=N)O)(C)C 
 
>  <mulliken_charges> 
31 
1   -0.442145 
2   -0.45021 
3   -0.456422 
4   -0.247553 
5   -0.262685 
6   -0.254861 
7   -0.014825 
8   0.645355 
9   0.055915 
10   -0.628394 
11   -0.572128 
12   -0.455376 
13   0.140959 
14   0.140049 
15   0.141683 
16   0.138214 
17   0.162042 
18   0.13489 
19   0.145168 
20   0.142085 
21   0.147161 
22   0.128972 
23   0.133887 
24   0.13596 
25   0.12831 
26   0.122084 
27   0.14828 
28   0.157835 
29   0.15392 
30   0.274763 
31   0.407067 
 
>  <lowdin_charges> 
31 
1   -0.444221 
2   -0.442763 
3   -0.442378 
4   -0.269117 
5   -0.278336 
6   -0.276182 
7   -0.12364 
8   0.187338 
9   0.002116 
10   -0.468756 
11   -0.3644 
12   -0.178347 
13   0.149526 
14   0.145332 
15   0.145287 
16   0.146268 
17   0.158004 
18   0.145497 
19   0.150378 
20   0.149113 
21   0.15033 
22   0.136632 
23   0.140355 
24   0.140035 
25   0.137442 
26   0.13724 
27   0.150208 
28   0.152794 
29   0.152062 
30   0.25369 
31   0.358494 
 
$$$$ 
 
