PCCDB-ID:  7090 
public computational chemistry database (PCCDB) project, http://pccdb.org 
 
 22 23  0  0  0  0  0  0  0  0999 V2000 
   -1.3427   -0.0566    0.0359 C   0  0  0  0  0  0  0  0  0  0  0  0 
   -0.6561    1.1220    0.3434 C   0  0  0  0  0  0  0  0  0  0  0  0 
   -0.6138   -1.1676   -0.3857 C   0  0  0  0  0  0  0  0  0  0  0  0 
    0.7285    1.1978    0.2351 C   0  0  0  0  0  0  0  0  0  0  0  0 
    0.7755   -1.1117   -0.4992 C   0  0  0  0  0  0  0  0  0  0  0  0 
    5.1089   -0.4775   -0.2083 C   0  0  0  0  0  0  0  0  0  0  0  0 
    3.6957   -1.0626   -0.3712 C   0  0  0  0  0  0  0  0  0  0  0  0 
    1.4645    0.0758   -0.1918 C   0  0  0  0  0  0  0  0  0  0  0  0 
    4.7616    0.8860    0.3499 C   0  0  0  0  0  0  0  0  0  0  0  0 
    3.5285    1.2063    0.2628 N   0  0  0  0  0  0  0  0  0  0  0  0 
    2.8513    0.1468   -0.3554 N   0  0  0  0  0  0  0  0  0  0  0  0 
    5.6764    1.7669    0.8231 O   0  0  0  0  0  0  0  0  0  0  0  0 
   -2.4239   -0.1065    0.1259 H   0  0  0  0  0  0  0  0  0  0  0  0 
   -1.2055    1.9986    0.6782 H   0  0  0  0  0  0  0  0  0  0  0  0 
   -1.1248   -2.0963   -0.6277 H   0  0  0  0  0  0  0  0  0  0  0  0 
    1.2587    2.1098    0.4799 H   0  0  0  0  0  0  0  0  0  0  0  0 
    1.3165   -1.9907   -0.8348 H   0  0  0  0  0  0  0  0  0  0  0  0 
    5.6317   -0.3705   -1.1689 H   0  0  0  0  0  0  0  0  0  0  0  0 
    5.7471   -1.0716    0.4552 H   0  0  0  0  0  0  0  0  0  0  0  0 
    3.4384   -1.7260    0.4695 H   0  0  0  0  0  0  0  0  0  0  0  0 
    3.5663   -1.6208   -1.3018 H   0  0  0  0  0  0  0  0  0  0  0  0 
    6.5233    1.3091    0.9287 H   0  0  0  0  0  0  0  0  0  0  0  0 
  1 13  1  0  0  0  0 
  1  2  2  0  0  0  0 
  2 14  1  0  0  0  0 
  3  1  1  0  0  0  0 
  4  2  1  0  0  0  0 
  4 16  1  0  0  0  0 
  5  3  2  0  0  0  0 
  5  8  1  0  0  0  0 
  6  9  1  0  0  0  0 
  6 19  1  0  0  0  0 
  7 11  1  0  0  0  0 
  7  6  1  0  0  0  0 
  7 20  1  0  0  0  0 
  8  4  2  0  0  0  0 
  9 12  1  0  0  0  0 
 10  9  2  0  0  0  0 
 11  8  1  0  0  0  0 
 11 10  1  0  0  0  0 
 12 22  1  0  0  0  0 
 15  3  1  0  0  0  0 
 17  5  1  0  0  0  0 
 18  6  1  0  0  0  0 
 21  7  1  0  0  0  0 
M  END 
>  <HBA> 
3 
 
>  <HBD> 
1 
 
>  <TPSA> 
32.34 
 
>  <cid> 
7090 
 
>  <dipole> 
4.8 
 
>  <excitation_energy_1> 
3.879 
 
>  <excitation_energy_2> 
4.302 
 
>  <excitation_energy_3> 
4.433 
 
>  <excitation_energy_4> 
4.532 
 
>  <homo_energy> 
-4.836 
 
>  <homo_lumo_gap> 
5.099 
 
>  <logP> 
1.322 
 
>  <lumo_energy> 
0.264 
 
>  <melting_point> 
83.15 
 
>  <molecular_refractivity> 
53.19 
 
>  <oscillator_strength_1> 
0.0066 
 
>  <oscillator_strength_2> 
0.097 
 
>  <oscillator_strength_3> 
0.064 
 
>  <oscillator_strength_4> 
0.1124 
 
>  <open_babel_can_smiles> 
OC1=NN(CC1)c1ccccc1 
 
>  <mulliken_charges> 
22 
1   -0.134269 
2   -0.139477 
3   -0.138093 
4   -0.169184 
5   -0.190913 
6   -0.398848 
7   -0.124129 
8   0.349292 
9   0.504062 
10   -0.279793 
11   -0.405413 
12   -0.589093 
13   0.117828 
14   0.124036 
15   0.120748 
16   0.156224 
17   0.116813 
18   0.178865 
19   0.162492 
20   0.156617 
21   0.16655 
22   0.415683 
 
>  <lowdin_charges> 
22 
1   -0.184704 
2   -0.148788 
3   -0.150439 
4   -0.189228 
5   -0.210526 
6   -0.314468 
7   -0.197789 
8   0.054163 
9   0.086176 
10   -0.120702 
11   -0.06261 
12   -0.350889 
13   0.151314 
14   0.15598 
15   0.153975 
16   0.174019 
17   0.154333 
18   0.166208 
19   0.16287 
20   0.146128 
21   0.159539 
22   0.365438 
 
$$$$ 
 
