PCCDB-ID:  61274 
public computational chemistry database (PCCDB) project, http://pccdb.org 
 
 10  9  0  0  0  0  0  0  0  0999 V2000 
    0.8747   -0.0837    0.1327 C   0  0  0  0  0  0  0  0  0  0  0  0 
    0.4949   -1.1638   -0.4156 N   0  0  0  0  0  0  0  0  0  0  0  0 
    0.2334    1.0238    0.6161 N   0  0  0  0  0  0  0  0  0  0  0  0 
    2.9575    0.8464   -1.2206 O   0  0  0  0  0  0  0  0  0  0  0  0 
    2.8518    1.1615    1.3526 O   0  0  0  0  0  0  0  0  0  0  0  0 
    2.7211    0.1265    0.2740 S   0  0  3  0  0  0  0  0  0  0  0  0 
   -0.5261   -1.2293   -0.4889 H   0  0  0  0  0  0  0  0  0  0  0  0 
   -0.7513    0.9455    0.8390 H   0  0  0  0  0  0  0  0  0  0  0  0 
    0.7938    1.5714    1.2694 H   0  0  0  0  0  0  0  0  0  0  0  0 
    2.4182    1.6619   -1.2646 H   0  0  0  0  0  0  0  0  0  0  0  0 
  1  6  1  0  0  0  0 
  1  3  2  0  0  0  0 
  2  1  1  0  0  0  0 
  3  8  1  0  0  0  0 
  3  9  1  0  0  0  0 
  4  6  1  0  0  0  0 
  6  5  1  0  0  0  0 
  7  2  1  0  0  0  0 
 10  4  1  0  0  0  0 
M  RAD  2   2   2   5   2 
M  END 
>  <HBA> 
4 
 
>  <HBD> 
3 
 
>  <TPSA> 
106.38 
 
>  <cid> 
61274 
 
>  <dipole> 
4.12 
 
>  <excitation_energy_1> 
4.831 
 
>  <excitation_energy_2> 
5.755 
 
>  <excitation_energy_3> 
5.869 
 
>  <excitation_energy_4> 
6.009 
 
>  <homo_energy> 
-7.023 
 
>  <homo_lumo_gap> 
6.188 
 
>  <logP> 
0.767 
 
>  <lumo_energy> 
-0.835 
 
>  <melting_point> 
132.95 
 
>  <molecular_refractivity> 
23.07 
 
>  <oscillator_strength_1> 
0.0068 
 
>  <oscillator_strength_2> 
0.0341 
 
>  <oscillator_strength_3> 
0.0304 
 
>  <oscillator_strength_4> 
0.0135 
 
>  <open_babel_can_smiles> 
O[S](C(=[NH2])[NH])[O] 
 
>  <mulliken_charges> 
10 
1   0.192839 
2   -0.566929 
3   -0.727822 
4   -0.650756 
5   -0.602048 
6   0.944715 
7   0.285651 
8   0.337814 
9   0.370847 
10   0.415688 
 
>  <lowdin_charges> 
10 
1   -0.06841 
2   -0.392081 
3   -0.48068 
4   -0.588029 
5   -0.63534 
6   0.961253 
7   0.255631 
8   0.287745 
9   0.302496 
10   0.357415 
 
$$$$ 
 
