PCCDB-ID:  10347 
public computational chemistry database (PCCDB) project, http://pccdb.org 
 
 18 18  0  0  0  0  0  0  0  0999 V2000 
   -0.7869    1.2735    0.0053 C   0  0  0  0  0  0  0  0  0  0  0  0 
   -1.6058    0.0873    0.0123 C   0  0  0  0  0  0  0  0  0  0  0  0 
    0.5677    1.1505   -0.0017 C   0  0  0  0  0  0  0  0  0  0  0  0 
   -0.8437   -1.1705    0.0120 C   0  0  0  0  0  0  0  0  0  0  0  0 
    0.5164   -1.1967    0.0034 C   0  0  0  0  0  0  0  0  0  0  0  0 
    1.4597    2.3556   -0.0082 C   0  0  0  0  0  0  0  0  0  0  0  0 
    1.4123   -2.4007   -0.0056 C   0  0  0  0  0  0  0  0  0  0  0  0 
   -2.8420    0.0113    0.0194 O   0  0  0  0  0  0  0  0  0  0  0  0 
   -1.6075   -2.2795    0.0198 O   0  0  0  0  0  0  0  0  0  0  0  0 
    2.7619    2.0360   -0.0174 O   0  0  0  0  0  0  0  0  0  0  0  0 
    1.0235    3.4851   -0.0051 O   0  0  0  0  0  0  0  0  0  0  0  0 
    2.6130   -2.3010   -0.0333 O   0  0  0  0  0  0  0  0  0  0  0  0 
    0.7891   -3.5940    0.0171 O   0  0  0  0  0  0  0  0  0  0  0  0 
    1.2170   -0.0252   -0.0037 O   0  0  0  0  0  0  0  0  0  0  0  0 
   -1.2329    2.2601    0.0056 H   0  0  0  0  0  0  0  0  0  0  0  0 
   -2.5349   -1.9271    0.0249 H   0  0  0  0  0  0  0  0  0  0  0  0 
    3.2549    2.8784   -0.0221 H   0  0  0  0  0  0  0  0  0  0  0  0 
   -0.1836   -3.4990    0.0432 H   0  0  0  0  0  0  0  0  0  0  0  0 
  1 15  1  0  0  0  0 
  1  2  1  0  0  0  0 
  2  8  2  0  0  0  0 
  3  1  2  0  0  0  0 
  4  2  1  0  0  0  0 
  4  9  1  0  0  0  0 
  5  4  2  0  0  0  0 
  6 11  2  0  0  0  0 
  6  3  1  0  0  0  0 
  7  5  1  0  0  0  0 
  7 13  1  0  0  0  0 
  9 16  1  0  0  0  0 
 10  6  1  0  0  0  0 
 12  7  2  0  0  0  0 
 13 18  1  0  0  0  0 
 14  3  1  0  0  0  0 
 14  5  1  0  0  0  0 
 17 10  1  0  0  0  0 
M  END 
>  <HBA> 
7 
 
>  <HBD> 
3 
 
>  <TPSA> 
125.04 
 
>  <cid> 
10347 
 
>  <dipole> 
1.96 
 
>  <excitation_energy_1> 
3.779 
 
>  <excitation_energy_2> 
4.119 
 
>  <excitation_energy_3> 
4.277 
 
>  <excitation_energy_4> 
4.471 
 
>  <homo_energy> 
-7.407 
 
>  <homo_lumo_gap> 
4.474 
 
>  <logP> 
-0.258 
 
>  <lumo_energy> 
-2.933 
 
>  <melting_point> 
262.62 
 
>  <molecular_refractivity> 
40.92 
 
>  <oscillator_strength_1> 
0.0 
 
>  <oscillator_strength_2> 
0.1086 
 
>  <oscillator_strength_3> 
0.0 
 
>  <oscillator_strength_4> 
0.0001 
 
>  <open_babel_can_smiles> 
OC(=O)c1cc(=O)c(c(o1)C(=O)O)O 
 
>  <mulliken_charges> 
18 
1   -0.22088 
2   0.459799 
3   0.310903 
4   0.265217 
5   0.200247 
6   0.558165 
7   0.603287 
8   -0.544101 
9   -0.673645 
10   -0.545374 
11   -0.445128 
12   -0.430797 
13   -0.594647 
14   -0.472702 
15   0.207765 
16   0.445615 
17   0.428534 
18   0.447743 
 
>  <lowdin_charges> 
18 
1   -0.182068 
2   0.114898 
3   0.090286 
4   0.053748 
5   0.025584 
6   0.18821 
7   0.182413 
8   -0.285486 
9   -0.355197 
10   -0.318105 
11   -0.241126 
12   -0.214575 
13   -0.341908 
14   -0.043222 
15   0.207352 
16   0.378731 
17   0.375353 
18   0.365112 
 
$$$$ 
 
