PCCDB-ID:  70045 
public computational chemistry database (PCCDB) project, http://pccdb.org 
 
 30 30  0  0  0  0  0  0  0  0999 V2000 
    2.3960    0.6446    1.8284 C   0  0  0  0  0  0  0  0  0  0  0  0 
    2.4771    3.8125   -1.4788 C   0  0  0  0  0  0  0  0  0  0  0  0 
    2.6119    0.5227    0.3146 C   0  0  0  0  0  0  0  0  0  0  0  0 
    2.3726    2.9344   -0.2283 C   0  0  0  0  0  0  0  0  0  0  0  0 
    6.2889    0.5789   -1.9741 C   0  0  0  0  0  0  0  0  0  0  0  0 
    5.0302    0.5963   -1.4101 C   0  0  0  0  0  0  0  0  0  0  0  0 
    6.6912    2.8208   -1.1563 C   0  0  0  0  0  0  0  0  0  0  0  0 
    7.1127    1.7062   -1.8608 C   0  0  0  0  0  0  0  0  0  0  0  0 
    4.5264    1.7195   -0.6941 C   0  0  0  0  0  0  0  0  0  0  0  0 
    5.4384    2.8047   -0.5466 C   0  0  0  0  0  0  0  0  0  0  0  0 
    3.2170    1.7296   -0.2672 N   0  0  0  0  0  0  0  0  0  0  0  0 
    8.4341    1.7044   -2.4798 N   0  0  0  0  0  0  0  0  0  0  0  0 
    5.1876    3.9213    0.3698 N   0  0  0  0  0  0  0  0  0  0  0  0 
    8.7820    0.6812   -3.0738 O   0  0  0  0  0  0  0  0  0  0  0  0 
    9.1209    2.7216   -2.3736 O   0  0  0  0  0  0  0  0  0  0  0  0 
    5.6309    5.0287    0.0624 O   0  0  0  0  0  0  0  0  0  0  0  0 
    4.5988    3.6746    1.4257 O   0  0  0  0  0  0  0  0  0  0  0  0 
    1.9816   -0.2911    2.2206 H   0  0  0  0  0  0  0  0  0  0  0  0 
    1.6980    1.4503    2.0761 H   0  0  0  0  0  0  0  0  0  0  0  0 
    3.3433    0.8503    2.3362 H   0  0  0  0  0  0  0  0  0  0  0  0 
    1.7222    4.6035   -1.4174 H   0  0  0  0  0  0  0  0  0  0  0  0 
    2.2894    3.2268   -2.3849 H   0  0  0  0  0  0  0  0  0  0  0  0 
    3.4482    4.3033   -1.5828 H   0  0  0  0  0  0  0  0  0  0  0  0 
    1.6581    0.3215   -0.1915 H   0  0  0  0  0  0  0  0  0  0  0  0 
    3.2648   -0.3290    0.1202 H   0  0  0  0  0  0  0  0  0  0  0  0 
    1.3454    2.5602   -0.1588 H   0  0  0  0  0  0  0  0  0  0  0  0 
    2.5566    3.5268    0.6750 H   0  0  0  0  0  0  0  0  0  0  0  0 
    6.6370   -0.2769   -2.5396 H   0  0  0  0  0  0  0  0  0  0  0  0 
    4.3746   -0.2494   -1.5803 H   0  0  0  0  0  0  0  0  0  0  0  0 
    7.3408    3.6780   -1.0387 H   0  0  0  0  0  0  0  0  0  0  0  0 
  1 19  1  0  0  0  0 
  1 18  1  0  0  0  0 
  1 20  1  0  0  0  0 
  2 21  1  0  0  0  0 
  2  4  1  0  0  0  0 
  3  1  1  0  0  0  0 
  4 26  1  0  0  0  0 
  4 27  1  0  0  0  0 
  5  8  2  0  0  0  0 
  5  6  1  0  0  0  0 
  6  9  2  0  0  0  0 
  7 30  1  0  0  0  0 
  7 10  2  0  0  0  0 
  8  7  1  0  0  0  0 
  9 10  1  0  0  0  0 
  9 11  1  0  0  0  0 
 10 13  1  0  0  0  0 
 11  4  1  0  0  0  0 
 11  3  1  0  0  0  0 
 12 15  2  0  0  0  0 
 12  8  1  0  0  0  0 
 13 17  2  0  0  0  0 
 14 12  2  0  0  0  0 
 16 13  2  0  0  0  0 
 22  2  1  0  0  0  0 
 23  2  1  0  0  0  0 
 24  3  1  0  0  0  0 
 25  3  1  0  0  0  0 
 28  5  1  0  0  0  0 
 29  6  1  0  0  0  0 
M  END 
>  <HBA> 
1 
 
>  <HBD> 
0 
 
>  <TPSA> 
94.88 
 
>  <cid> 
70045 
 
>  <dipole> 
7.25 
 
>  <excitation_energy_1> 
2.987 
 
>  <excitation_energy_2> 
3.417 
 
>  <excitation_energy_3> 
3.753 
 
>  <excitation_energy_4> 
3.773 
 
>  <homo_energy> 
-6.324 
 
>  <homo_lumo_gap> 
3.782 
 
>  <logP> 
3.396 
 
>  <lumo_energy> 
-2.542 
 
>  <melting_point> 
90.93 
 
>  <molecular_refractivity> 
67.91 
 
>  <oscillator_strength_1> 
0.0352 
 
>  <oscillator_strength_2> 
0.2956 
 
>  <oscillator_strength_3> 
0.0173 
 
>  <oscillator_strength_4> 
0.0166 
 
>  <open_babel_can_smiles> 
CCN(c1ccc(cc1N(=O)=O)N(=O)=O)CC 
 
>  <mulliken_charges> 
30 
1   -0.44124 
2   -0.471408 
3   -0.161069 
4   -0.156963 
5   -0.140908 
6   -0.195311 
7   -0.18243 
8   0.271648 
9   0.382537 
10   0.189764 
11   -0.474172 
12   0.37179 
13   0.353087 
14   -0.401233 
15   -0.398155 
16   -0.373537 
17   -0.384274 
18   0.152429 
19   0.160701 
20   0.174664 
21   0.163639 
22   0.158554 
23   0.175086 
24   0.153036 
25   0.160145 
26   0.154432 
27   0.191761 
28   0.188557 
29   0.15872 
30   0.220149 
 
>  <lowdin_charges> 
30 
1   -0.452445 
2   -0.454742 
3   -0.192393 
4   -0.201971 
5   -0.122077 
6   -0.181452 
7   -0.114198 
8   -0.020663 
9   0.083012 
10   -0.031311 
11   -0.093271 
12   0.310429 
13   0.303909 
14   -0.254719 
15   -0.249937 
16   -0.242382 
17   -0.245409 
18   0.158237 
19   0.157757 
20   0.165047 
21   0.165585 
22   0.156964 
23   0.161354 
24   0.145913 
25   0.158825 
26   0.154207 
27   0.161288 
28   0.192311 
29   0.17341 
30   0.208724 
 
$$$$ 
 
