PCCDB-ID:  25066 
public computational chemistry database (PCCDB) project, http://pccdb.org 
 
 20 19  0  0  1  0  0  0  0  0999 V2000 
    1.0253    0.0953    0.1710 C   0  0  0  0  0  0  0  0  0  0  0  0 
    3.0934    1.5281    0.0285 C   0  0  0  0  0  0  0  0  0  0  0  0 
    4.5359   -0.7874   -1.1252 C   0  0  0  0  0  0  0  0  0  0  0  0 
    3.1059   -0.4929    1.4976 C   0  0  0  0  0  0  0  0  0  0  0  0 
    3.0504   -0.7810   -1.0324 C   0  0  2  0  0  0  0  0  0  0  0  0 
    2.5646    0.0900    0.1732 C   0  0  0  0  0  0  0  0  0  0  0  0 
    5.6957   -0.8082   -1.1764 N   0  0  0  0  0  0  0  0  0  0  0  0 
    2.7308   -1.8606    1.7283 O   0  0  0  0  0  0  0  0  0  0  0  0 
    2.5513   -2.1023   -1.0142 O   0  0  0  0  0  0  0  0  0  0  0  0 
    0.6416    0.6523    1.0345 H   0  0  0  0  0  0  0  0  0  0  0  0 
    0.6161   -0.9188    0.1908 H   0  0  0  0  0  0  0  0  0  0  0  0 
    0.6399    0.5799   -0.7331 H   0  0  0  0  0  0  0  0  0  0  0  0 
    2.7247    2.1560    0.8477 H   0  0  0  0  0  0  0  0  0  0  0  0 
    2.7505    1.9766   -0.9111 H   0  0  0  0  0  0  0  0  0  0  0  0 
    4.1879    1.5648    0.0401 H   0  0  0  0  0  0  0  0  0  0  0  0 
    2.7812    0.1377    2.3375 H   0  0  0  0  0  0  0  0  0  0  0  0 
    4.1998   -0.4968    1.4872 H   0  0  0  0  0  0  0  0  0  0  0  0 
    2.6747   -0.3250   -1.9569 H   0  0  0  0  0  0  0  0  0  0  0  0 
    1.7932   -1.8787    1.9764 H   0  0  0  0  0  0  0  0  0  0  0  0 
    2.7079   -2.4345   -0.1063 H   0  0  0  0  0  0  0  0  0  0  0  0 
  1  6  1  0  0  0  0 
  1 11  1  0  0  0  0 
  1 10  1  0  0  0  0 
  2 15  1  0  0  0  0 
  2  6  1  0  0  0  0 
  2 13  1  0  0  0  0 
  3  5  1  0  0  0  0 
  4  8  1  0  0  0  0 
  4 16  1  0  0  0  0 
  5 18  1  6  0  0  0 
  5  9  1  0  0  0  0 
  5  6  1  0  0  0  0 
  6  4  1  0  0  0  0 
  7  3  3  0  0  0  0 
  8 19  1  0  0  0  0 
  9 20  1  0  0  0  0 
 12  1  1  0  0  0  0 
 14  2  1  0  0  0  0 
 17  4  1  0  0  0  0 
M  END 
>  <HBA> 
3 
 
>  <HBD> 
2 
 
>  <TPSA> 
64.25 
 
>  <cid> 
25066 
 
>  <dipole> 
5.31 
 
>  <excitation_energy_1> 
6.491 
 
>  <excitation_energy_2> 
6.906 
 
>  <excitation_energy_3> 
7.121 
 
>  <excitation_energy_4> 
7.253 
 
>  <homo_energy> 
-7.682 
 
>  <homo_lumo_gap> 
8.237 
 
>  <logP> 
-0.111 
 
>  <lumo_energy> 
0.555 
 
>  <melting_point> 
63.26 
 
>  <molecular_refractivity> 
32.77 
 
>  <oscillator_strength_1> 
0.0007 
 
>  <oscillator_strength_2> 
0.0081 
 
>  <oscillator_strength_3> 
0.0085 
 
>  <oscillator_strength_4> 
0.014 
 
>  <open_babel_can_smiles> 
OCC([C@@H](C#N)O)(C)C 
 
>  <mulliken_charges> 
20 
1   -0.464859 
2   -0.469735 
3   0.353058 
4   -0.064963 
5   0.095994 
6   0.026979 
7   -0.489931 
8   -0.624627 
9   -0.630957 
10   0.145728 
11   0.155897 
12   0.157212 
13   0.151871 
14   0.154244 
15   0.175324 
16   0.139968 
17   0.18128 
18   0.178009 
19   0.40744 
20   0.422068 
 
>  <lowdin_charges> 
20 
1   -0.451434 
2   -0.445225 
3   -0.034234 
4   -0.142479 
5   0.000774 
6   -0.019601 
7   -0.123961 
8   -0.454871 
9   -0.446083 
10   0.15185 
11   0.154694 
12   0.159614 
13   0.157036 
14   0.156983 
15   0.163766 
16   0.142048 
17   0.162441 
18   0.171904 
19   0.349607 
20   0.347171 
 
$$$$ 
 
