PCCDB-ID:  68955 
public computational chemistry database (PCCDB) project, http://pccdb.org 
 
 28 29  0  0  0  0  0  0  0  0999 V2000 
    1.3568    0.1523    0.8527 C   0  0  0  0  0  0  0  0  0  0  0  0 
    0.0070    0.9205   -0.9612 C   0  0  0  0  0  0  0  0  0  0  0  0 
   -0.1309    7.2164    0.6622 C   0  0  0  0  0  0  0  0  0  0  0  0 
   -1.0294    5.8835   -1.1036 C   0  0  0  0  0  0  0  0  0  0  0  0 
    0.8484   -1.1263    0.6206 C   0  0  0  0  0  0  0  0  0  0  0  0 
   -0.4423   -0.3915   -1.1070 C   0  0  0  0  0  0  0  0  0  0  0  0 
   -1.1094    8.1678    0.3710 C   0  0  0  0  0  0  0  0  0  0  0  0 
   -1.9686    6.8931   -1.3105 C   0  0  0  0  0  0  0  0  0  0  0  0 
    1.4882    2.6092    0.2327 C   0  0  0  0  0  0  0  0  0  0  0  0 
    0.9891    4.9946    0.1643 C   0  0  0  0  0  0  0  0  0  0  0  0 
    0.9355    1.2118    0.0440 C   0  0  0  0  0  0  0  0  0  0  0  0 
   -0.0763    6.0404   -0.0912 C   0  0  0  0  0  0  0  0  0  0  0  0 
   -0.0391   -1.4129   -0.3393 N   0  0  0  0  0  0  0  0  0  0  0  0 
   -2.0233    8.0255   -0.5961 N   0  0  0  0  0  0  0  0  0  0  0  0 
    0.4745    3.6365    0.0035 N   0  0  0  0  0  0  0  0  0  0  0  0 
    2.0695    0.3171    1.6571 H   0  0  0  0  0  0  0  0  0  0  0  0 
   -0.3604    1.7089   -1.6098 H   0  0  0  0  0  0  0  0  0  0  0  0 
    0.5758    7.3926    1.4695 H   0  0  0  0  0  0  0  0  0  0  0  0 
   -1.0376    4.9839   -1.7101 H   0  0  0  0  0  0  0  0  0  0  0  0 
    1.1669   -1.9618    1.2424 H   0  0  0  0  0  0  0  0  0  0  0  0 
   -1.1663   -0.6362   -1.8830 H   0  0  0  0  0  0  0  0  0  0  0  0 
   -1.1639    9.0893    0.9490 H   0  0  0  0  0  0  0  0  0  0  0  0 
   -2.7184    6.7876   -2.0933 H   0  0  0  0  0  0  0  0  0  0  0  0 
    2.2936    2.7789   -0.4975 H   0  0  0  0  0  0  0  0  0  0  0  0 
    1.9630    2.6814    1.2293 H   0  0  0  0  0  0  0  0  0  0  0  0 
    1.4425    5.1733    1.1576 H   0  0  0  0  0  0  0  0  0  0  0  0 
    1.8020    5.1233   -0.5658 H   0  0  0  0  0  0  0  0  0  0  0  0 
   -0.3039    3.4921    0.6460 H   0  0  0  0  0  0  0  0  0  0  0  0 
  1 16  1  0  0  0  0 
  2 11  1  0  0  0  0 
  3 18  1  0  0  0  0 
  4 12  1  0  0  0  0 
  5  1  1  0  0  0  0 
  5 20  1  0  0  0  0 
  6  2  2  0  0  0  0 
  6 13  1  0  0  0  0 
  7  3  1  0  0  0  0 
  7 22  1  0  0  0  0 
  8  4  2  0  0  0  0 
  8 14  1  0  0  0  0 
  9 25  1  0  0  0  0 
 10 26  1  0  0  0  0 
 11  9  1  0  0  0  0 
 11  1  2  0  0  0  0 
 12 10  1  0  0  0  0 
 12  3  2  0  0  0  0 
 13  5  2  0  0  0  0 
 14  7  2  0  0  0  0 
 15 10  1  0  0  0  0 
 15  9  1  0  0  0  0 
 15 28  1  0  0  0  0 
 17  2  1  0  0  0  0 
 19  4  1  0  0  0  0 
 21  6  1  0  0  0  0 
 23  8  1  0  0  0  0 
 24  9  1  0  0  0  0 
 27 10  1  0  0  0  0 
M  END 
>  <HBA> 
3 
 
>  <HBD> 
1 
 
>  <TPSA> 
37.81 
 
>  <cid> 
68955 
 
>  <dipole> 
3.09 
 
>  <excitation_energy_1> 
4.767 
 
>  <excitation_energy_2> 
4.825 
 
>  <excitation_energy_3> 
4.927 
 
>  <excitation_energy_4> 
5.109 
 
>  <homo_energy> 
-6.602 
 
>  <homo_lumo_gap> 
5.793 
 
>  <logP> 
2.157 
 
>  <lumo_energy> 
-0.808 
 
>  <melting_point> 
95.07 
 
>  <molecular_refractivity> 
59.09 
 
>  <oscillator_strength_1> 
0.0081 
 
>  <oscillator_strength_2> 
0.0008 
 
>  <oscillator_strength_3> 
0.0041 
 
>  <oscillator_strength_4> 
0.0003 
 
>  <open_babel_can_smiles> 
N(Cc1ccncc1)Cc1ccncc1 
 
>  <mulliken_charges> 
28 
1   -0.189912 
2   -0.17198 
3   -0.19006 
4   -0.171836 
5   0.039448 
6   0.036854 
7   0.039631 
8   0.036733 
9   -0.180517 
10   -0.180746 
11   0.14568 
12   0.145666 
13   -0.40795 
14   -0.407876 
15   -0.564363 
16   0.130558 
17   0.150851 
18   0.130593 
19   0.150829 
20   0.140951 
21   0.1417 
22   0.140934 
23   0.141775 
24   0.166029 
25   0.127604 
26   0.127534 
27   0.165952 
28   0.305921 
 
>  <lowdin_charges> 
28 
1   -0.186778 
2   -0.181906 
3   -0.187424 
4   -0.180323 
5   -0.090308 
6   -0.088151 
7   -0.08893 
8   -0.088712 
9   -0.198141 
10   -0.197747 
11   0.009039 
12   0.009225 
13   -0.150861 
14   -0.150554 
15   -0.355206 
16   0.160762 
17   0.171846 
18   0.160898 
19   0.170874 
20   0.157732 
21   0.157127 
22   0.156577 
23   0.157161 
24   0.158961 
25   0.127616 
26   0.127659 
27   0.158792 
28   0.260769 
 
$$$$ 
 
