PCCDB-ID:  68662 
public computational chemistry database (PCCDB) project, http://pccdb.org 
 
 22 21  0  0  1  0  0  0  0  0999 V2000 
    2.0198    1.2738   -0.0217 C   0  0  0  0  0  0  0  0  0  0  0  0 
    0.7962   -1.2400    2.4146 C   0  0  0  0  0  0  0  0  0  0  0  0 
    2.1975   -0.8224    1.9180 C   0  0  0  0  0  0  0  0  0  0  0  0 
    0.5458   -0.9130    3.8968 C   0  0  1  0  0  0  0  0  0  0  0  0 
    2.3076   -1.1063    0.4250 C   0  0  0  0  0  0  0  0  0  0  0  0 
    0.2858    0.5956    4.1271 C   0  0  0  0  0  0  0  0  0  0  0  0 
   -0.5574   -1.6603    4.5321 N   0  0  0  0  0  0  0  0  0  0  0  0 
    2.4640   -2.2274   -0.0013 O   0  0  0  0  0  0  0  0  0  0  0  0 
    0.7662    1.4747    3.4454 O   0  0  0  0  0  0  0  0  0  0  0  0 
   -0.5081    0.8452    5.1752 O   0  0  0  0  0  0  0  0  0  0  0  0 
    2.1590   -0.0864   -0.4569 O   0  0  0  0  0  0  0  0  0  0  0  0 
    1.2149    1.3982    0.7081 H   0  0  0  0  0  0  0  0  0  0  0  0 
    2.9566    1.6485    0.4051 H   0  0  0  0  0  0  0  0  0  0  0  0 
    1.7869    1.8411   -0.9243 H   0  0  0  0  0  0  0  0  0  0  0  0 
    0.6884   -2.3205    2.2653 H   0  0  0  0  0  0  0  0  0  0  0  0 
    0.0219   -0.7533    1.8070 H   0  0  0  0  0  0  0  0  0  0  0  0 
    2.9529   -1.4447    2.4094 H   0  0  0  0  0  0  0  0  0  0  0  0 
    2.3848    0.2186    2.1778 H   0  0  0  0  0  0  0  0  0  0  0  0 
    1.4516   -1.1477    4.4737 H   0  0  0  0  0  0  0  0  0  0  0  0 
   -0.2670   -2.6047    4.7742 H   0  0  0  0  0  0  0  0  0  0  0  0 
   -1.3431   -1.7492    3.8876 H   0  0  0  0  0  0  0  0  0  0  0  0 
   -0.8081   -0.0469    5.4855 H   0  0  0  0  0  0  0  0  0  0  0  0 
  1 13  1  0  0  0  0 
  1 12  1  0  0  0  0 
  2  4  1  0  0  0  0 
  3 18  1  0  0  0  0 
  3 17  1  0  0  0  0 
  3  2  1  0  0  0  0 
  4  6  1  0  0  0  0 
  4 19  1  1  0  0  0 
  4  7  1  0  0  0  0 
  5  3  1  0  0  0  0 
  6 10  1  0  0  0  0 
  7 20  1  0  0  0  0 
  8  5  2  0  0  0  0 
  9  6  2  0  0  0  0 
 10 22  1  0  0  0  0 
 11  1  1  0  0  0  0 
 11  5  1  0  0  0  0 
 14  1  1  0  0  0  0 
 15  2  1  0  0  0  0 
 16  2  1  0  0  0  0 
 21  7  1  0  0  0  0 
M  END 
>  <HBA> 
5 
 
>  <HBD> 
2 
 
>  <TPSA> 
89.62 
 
>  <cid> 
68662 
 
>  <dipole> 
3.53 
 
>  <excitation_energy_1> 
5.354 
 
>  <excitation_energy_2> 
5.489 
 
>  <excitation_energy_3> 
6.055 
 
>  <excitation_energy_4> 
6.343 
 
>  <homo_energy> 
-7.021 
 
>  <homo_lumo_gap> 
6.895 
 
>  <logP> 
0.052 
 
>  <lumo_energy> 
-0.125 
 
>  <melting_point> 
117.29 
 
>  <molecular_refractivity> 
36.72 
 
>  <oscillator_strength_1> 
0.002 
 
>  <oscillator_strength_2> 
0.0016 
 
>  <oscillator_strength_3> 
0.004 
 
>  <oscillator_strength_4> 
0.013 
 
>  <open_babel_can_smiles> 
COC(=O)CC[C@@H](C(=O)O)N 
 
>  <mulliken_charges> 
22 
1   -0.243178 
2   -0.273319 
3   -0.380234 
4   -0.093066 
5   0.594166 
6   0.613659 
7   -0.769182 
8   -0.456779 
9   -0.466522 
10   -0.572297 
11   -0.432559 
12   0.186456 
13   0.163544 
14   0.17578 
15   0.162766 
16   0.156551 
17   0.168853 
18   0.194211 
19   0.180449 
20   0.329465 
21   0.325772 
22   0.435464 
 
>  <lowdin_charges> 
22 
1   -0.285011 
2   -0.275509 
3   -0.318965 
4   -0.112054 
5   0.194507 
6   0.181799 
7   -0.540705 
8   -0.254054 
9   -0.265008 
10   -0.346892 
11   -0.189222 
12   0.163049 
13   0.153155 
14   0.167048 
15   0.156188 
16   0.1543 
17   0.168903 
18   0.173714 
19   0.168617 
20   0.273979 
21   0.270886 
22   0.361275 
 
$$$$ 
 
