PCCDB-ID:  70803 
public computational chemistry database (PCCDB) project, http://pccdb.org 
 
 22 23  0  0  0  0  0  0  0  0999 V2000 
   -1.4737   -0.0825    0.0938 C   0  0  0  0  0  0  0  0  0  0  0  0 
   -0.8400    1.1583    0.0049 C   0  0  0  0  0  0  0  0  0  0  0  0 
   -0.7049   -1.2479    0.0917 C   0  0  0  0  0  0  0  0  0  0  0  0 
    0.5484    1.2331   -0.0877 C   0  0  0  0  0  0  0  0  0  0  0  0 
    0.6838   -1.1736    0.0024 C   0  0  0  0  0  0  0  0  0  0  0  0 
    3.5693   -0.8232   -0.8636 C   0  0  0  0  0  0  0  0  0  0  0  0 
    3.5433    1.1992    0.3906 C   0  0  0  0  0  0  0  0  0  0  0  0 
    4.9442   -0.7375   -0.9480 C   0  0  0  0  0  0  0  0  0  0  0  0 
    4.9186    1.2614    0.2938 C   0  0  0  0  0  0  0  0  0  0  0  0 
    1.3364    0.0685   -0.0898 C   0  0  0  0  0  0  0  0  0  0  0  0 
    2.8103    0.1478   -0.1871 C   0  0  0  0  0  0  0  0  0  0  0  0 
    5.6373    0.2997   -0.3733 N   0  3  0  0  0  0  0  0  0  0  0  0 
    6.9076    0.3679   -0.4568 O   0  5  0  0  0  0  0  0  0  0  0  0 
   -2.5562   -0.1408    0.1646 H   0  0  0  0  0  0  0  0  0  0  0  0 
   -1.4285    2.0718   -0.0028 H   0  0  0  0  0  0  0  0  0  0  0  0 
   -1.1866   -2.2191    0.1681 H   0  0  0  0  0  0  0  0  0  0  0  0 
    1.0258    2.2039   -0.1895 H   0  0  0  0  0  0  0  0  0  0  0  0 
    1.2711   -2.0870    0.0346 H   0  0  0  0  0  0  0  0  0  0  0  0 
    3.0823   -1.6552   -1.3619 H   0  0  0  0  0  0  0  0  0  0  0  0 
    3.0397    1.9779    0.9544 H   0  0  0  0  0  0  0  0  0  0  0  0 
    5.5762   -1.4475   -1.4644 H   0  0  0  0  0  0  0  0  0  0  0  0 
    5.5332    2.0390    0.7271 H   0  0  0  0  0  0  0  0  0  0  0  0 
  1 14  1  0  0  0  0 
  2  1  2  0  0  0  0 
  3  1  1  0  0  0  0 
  3 16  1  0  0  0  0 
  4  2  1  0  0  0  0 
  5 18  1  0  0  0  0 
  5  3  2  0  0  0  0 
  6 11  1  0  0  0  0 
  7 20  1  0  0  0  0 
  8  6  2  0  0  0  0 
  8 12  1  0  0  0  0 
  9  7  1  0  0  0  0 
  9 22  1  0  0  0  0 
 10  4  2  0  0  0  0 
 10  5  1  0  0  0  0 
 11 10  1  0  0  0  0 
 11  7  2  0  0  0  0 
 12  9  2  0  0  0  0 
 13 12  1  0  0  0  0 
 15  2  1  0  0  0  0 
 17  4  1  0  0  0  0 
 19  6  1  0  0  0  0 
 21  8  1  0  0  0  0 
M  CHG  2  12   1  13  -1 
M  END 
>  <HBA> 
1 
 
>  <HBD> 
0 
 
>  <TPSA> 
25.46 
 
>  <cid> 
70803 
 
>  <dipole> 
4.32 
 
>  <excitation_energy_1> 
3.924 
 
>  <excitation_energy_2> 
4.029 
 
>  <excitation_energy_3> 
4.079 
 
>  <excitation_energy_4> 
4.548 
 
>  <homo_energy> 
-5.584 
 
>  <homo_lumo_gap> 
4.147 
 
>  <logP> 
2.782 
 
>  <lumo_energy> 
-1.437 
 
>  <melting_point> 
56.09 
 
>  <molecular_refractivity> 
53.04 
 
>  <oscillator_strength_1> 
0.0069 
 
>  <oscillator_strength_2> 
0.0104 
 
>  <oscillator_strength_3> 
0.5905 
 
>  <oscillator_strength_4> 
0.0019 
 
>  <open_babel_can_smiles> 
[O-][n+]1ccc(cc1)c1ccccc1 
 
>  <mulliken_charges> 
22 
1   -0.12537 
2   -0.13306 
3   -0.13282 
4   -0.176388 
5   -0.176541 
6   -0.215152 
7   -0.215328 
8   0.069727 
9   0.069814 
10   0.103614 
11   0.103451 
12   -0.00225 
13   -0.516249 
14   0.13485 
15   0.135583 
16   0.135521 
17   0.133874 
18   0.133892 
19   0.155751 
20   0.155738 
21   0.180674 
22   0.180667 
 
>  <lowdin_charges> 
22 
1   -0.151582 
2   -0.152102 
3   -0.151342 
4   -0.161305 
5   -0.16205 
6   -0.154639 
7   -0.154958 
8   -0.126129 
9   -0.126103 
10   -0.002896 
11   -0.012145 
12   0.217369 
13   -0.383849 
14   0.158625 
15   0.161095 
16   0.160504 
17   0.159443 
18   0.16002 
19   0.175026 
20   0.175271 
21   0.185986 
22   0.185761 
 
$$$$ 
 
