PCCDB-ID:  49187 
public computational chemistry database (PCCDB) project, http://pccdb.org 
 
 38 38  0  0  0  0  0  0  0  0999 V2000 
    3.8431   -0.7171   -0.1947 C   0  0  0  0  0  0  0  0  0  0  0  0 
    8.7869    0.0377   -5.3426 C   0  0  0  0  0  0  0  0  0  0  0  0 
    9.9697    4.9691   -4.1440 C   0  0  0  0  0  0  0  0  0  0  0  0 
    5.0354    0.1066   -0.6913 C   0  0  0  0  0  0  0  0  0  0  0  0 
    9.6557    1.2817   -5.5498 C   0  0  0  0  0  0  0  0  0  0  0  0 
   10.2394    3.7008   -4.9588 C   0  0  0  0  0  0  0  0  0  0  0  0 
    5.1308    1.4855   -0.0284 C   0  0  0  0  0  0  0  0  0  0  0  0 
    6.3263    2.3181   -0.5151 C   0  0  0  0  0  0  0  0  0  0  0  0 
    7.8301    2.9186   -4.9113 C   0  0  0  0  0  0  0  0  0  0  0  0 
    9.3702    2.1227   -3.1801 C   0  0  0  0  0  0  0  0  0  0  0  0 
    7.1437    2.5880   -2.7278 C   0  0  0  0  0  0  0  0  0  0  0  0 
    9.2786    2.5059   -4.6548 C   0  0  0  0  0  0  0  0  0  0  0  0 
    6.1609    2.6685   -1.9150 N   0  0  0  0  0  0  0  0  0  0  0  0 
    6.8856    2.9552   -4.0644 N   0  0  0  0  0  0  0  0  0  0  0  0 
    8.4299    2.1587   -2.3270 N   0  0  0  0  0  0  0  0  0  0  0  0 
    7.5256    3.2891   -6.1847 O   0  0  0  0  0  0  0  0  0  0  0  0 
   10.5834    1.7024   -2.7364 O   0  0  0  0  0  0  0  0  0  0  0  0 
    3.8003   -1.6972   -0.6844 H   0  0  0  0  0  0  0  0  0  0  0  0 
    2.8957   -0.2026   -0.3973 H   0  0  0  0  0  0  0  0  0  0  0  0 
    3.9002   -0.8886    0.8878 H   0  0  0  0  0  0  0  0  0  0  0  0 
    9.1140   -0.7672   -6.0088 H   0  0  0  0  0  0  0  0  0  0  0  0 
    7.7339    0.2465   -5.5576 H   0  0  0  0  0  0  0  0  0  0  0  0 
    8.8534   -0.3305   -4.3134 H   0  0  0  0  0  0  0  0  0  0  0  0 
   10.6798    5.7548   -4.4218 H   0  0  0  0  0  0  0  0  0  0  0  0 
   10.0760    4.7846   -3.0698 H   0  0  0  0  0  0  0  0  0  0  0  0 
    8.9588    5.3502   -4.3214 H   0  0  0  0  0  0  0  0  0  0  0  0 
    4.9644    0.2413   -1.7782 H   0  0  0  0  0  0  0  0  0  0  0  0 
    5.9675   -0.4478   -0.5073 H   0  0  0  0  0  0  0  0  0  0  0  0 
    9.6123    1.5908   -6.6031 H   0  0  0  0  0  0  0  0  0  0  0  0 
   10.7113    1.0295   -5.3786 H   0  0  0  0  0  0  0  0  0  0  0  0 
   11.2749    3.3703   -4.7977 H   0  0  0  0  0  0  0  0  0  0  0  0 
   10.1822    3.9316   -6.0313 H   0  0  0  0  0  0  0  0  0  0  0  0 
    5.2135    1.3662    1.0617 H   0  0  0  0  0  0  0  0  0  0  0  0 
    4.2079    2.0488   -0.2201 H   0  0  0  0  0  0  0  0  0  0  0  0 
    7.2711    1.7977   -0.3100 H   0  0  0  0  0  0  0  0  0  0  0  0 
    6.3447    3.2614    0.0514 H   0  0  0  0  0  0  0  0  0  0  0  0 
    8.3129    3.2255   -6.7462 H   0  0  0  0  0  0  0  0  0  0  0  0 
   11.2233    1.7100   -3.4647 H   0  0  0  0  0  0  0  0  0  0  0  0 
  1 20  1  0  0  0  0 
  2 23  1  0  0  0  0 
  3 25  1  0  0  0  0 
  4 28  1  0  0  0  0 
  4  1  1  0  0  0  0 
  4  7  1  0  0  0  0 
  5 30  1  0  0  0  0 
  5  2  1  0  0  0  0 
  5 12  1  0  0  0  0 
  6 31  1  0  0  0  0 
  6 12  1  0  0  0  0 
  6  3  1  0  0  0  0 
  7 33  1  0  0  0  0 
  8 35  1  0  0  0  0 
  8  7  1  0  0  0  0 
  8 36  1  0  0  0  0 
  9 12  1  0  0  0  0 
  9 14  2  0  0  0  0 
 10 17  1  0  0  0  0 
 10 15  2  0  0  0  0 
 11 15  2  0  0  0  0 
 11 13  1  0  0  0  0 
 12 10  1  0  0  0  0 
 13  8  1  0  0  0  0 
 14 11  2  0  0  0  0 
 16  9  1  0  0  0  0 
 18  1  1  0  0  0  0 
 19  1  1  0  0  0  0 
 21  2  1  0  0  0  0 
 22  2  1  0  0  0  0 
 24  3  1  0  0  0  0 
 26  3  1  0  0  0  0 
 27  4  1  0  0  0  0 
 29  5  1  0  0  0  0 
 32  6  1  0  0  0  0 
 34  7  1  0  0  0  0 
 37 16  1  0  0  0  0 
 38 17  1  0  0  0  0 
M  RAD  1  13   2 
M  END 
>  <HBA> 
5 
 
>  <HBD> 
2 
 
>  <TPSA> 
70.56 
 
>  <cid> 
49187 
 
>  <dipole> 
7.64 
 
>  <excitation_energy_1> 
4.101 
 
>  <excitation_energy_2> 
4.465 
 
>  <excitation_energy_3> 
4.995 
 
>  <excitation_energy_4> 
5.039 
 
>  <homo_energy> 
-6.289 
 
>  <homo_lumo_gap> 
5.249 
 
>  <logP> 
1.35 
 
>  <lumo_energy> 
-1.039 
 
>  <melting_point> 
125.72 
 
>  <molecular_refractivity> 
74.35 
 
>  <oscillator_strength_1> 
0.0014 
 
>  <oscillator_strength_2> 
0.0009 
 
>  <oscillator_strength_3> 
0.003 
 
>  <oscillator_strength_4> 
0.4388 
 
>  <open_babel_can_smiles> 
CCCC[N][C]1=[N]=C(O)C(C(=[N]=1)O)(CC)CC 
 
>  <mulliken_charges> 
38 
1   -0.440794 
2   -0.46475 
3   -0.465403 
4   -0.247531 
5   -0.273903 
6   -0.27049 
7   -0.243751 
8   -0.152737 
9   0.539497 
10   0.542277 
11   0.553423 
12   -0.14108 
13   -0.428883 
14   -0.462039 
15   -0.482528 
16   -0.59417 
17   -0.59241 
18   0.135518 
19   0.142038 
20   0.135876 
21   0.157794 
22   0.180844 
23   0.17634 
24   0.157627 
25   0.175887 
26   0.181119 
27   0.147528 
28   0.123547 
29   0.135119 
30   0.133018 
31   0.133418 
32   0.135236 
33   0.118411 
34   0.138707 
35   0.151237 
36   0.138901 
37   0.412413 
38   0.414695 
 
>  <lowdin_charges> 
38 
1   -0.441584 
2   -0.451002 
3   -0.450891 
4   -0.273414 
5   -0.269152 
6   -0.268664 
7   -0.274899 
8   -0.207727 
9   0.133368 
10   0.142347 
11   0.097856 
12   -0.064675 
13   -0.164454 
14   -0.161895 
15   -0.188328 
16   -0.348539 
17   -0.345165 
18   0.145407 
19   0.146332 
20   0.141141 
21   0.161134 
22   0.165545 
23   0.163596 
24   0.161008 
25   0.162694 
26   0.166222 
27   0.145142 
28   0.135835 
29   0.141095 
30   0.139512 
31   0.140299 
32   0.140702 
33   0.134499 
34   0.145063 
35   0.14207 
36   0.148971 
37   0.35421 
38   0.356341 
 
$$$$ 
 
