PCCDB-ID:  43493 
public computational chemistry database (PCCDB) project, http://pccdb.org 
 
 23 22  0  0  0  0  0  0  0  0999 V2000 
    2.9160   -2.8951   -2.3875 C   0  0  0  0  0  0  0  0  0  0  0  0 
    7.6137   -0.3372    1.3240 C   0  0  0  0  0  0  0  0  0  0  0  0 
    5.1612    3.3568    0.0068 C   0  0  0  0  0  0  0  0  0  0  0  0 
    2.7086   -2.2760   -1.0141 C   0  0  0  0  0  0  0  0  0  0  0  0 
    7.0976   -0.2399   -0.0891 C   0  0  0  0  0  0  0  0  0  0  0  0 
    5.5872   -0.0561   -0.2502 C   0  0  0  0  0  0  0  0  0  0  0  0 
    4.7952   -1.3078   -0.4337 C   0  0  0  0  0  0  0  0  0  0  0  0 
    4.9838    1.0762   -0.2327 N   0  0  0  0  0  0  0  0  0  0  0  0 
    7.7917   -0.3028   -1.0800 O   0  0  0  0  0  0  0  0  0  0  0  0 
    5.2901   -2.3973   -0.2077 O   0  0  0  0  0  0  0  0  0  0  0  0 
    5.8693    2.1138    0.0101 O   0  0  0  0  0  0  0  0  0  0  0  0 
    3.5361   -1.0965   -0.8367 O   0  0  0  0  0  0  0  0  0  0  0  0 
    2.2221   -3.7328   -2.5221 H   0  0  0  0  0  0  0  0  0  0  0  0 
    3.9362   -3.2745   -2.4913 H   0  0  0  0  0  0  0  0  0  0  0  0 
    2.7274   -2.1611   -3.1774 H   0  0  0  0  0  0  0  0  0  0  0  0 
    7.1655   -1.2121    1.8109 H   0  0  0  0  0  0  0  0  0  0  0  0 
    7.3140    0.5526    1.8902 H   0  0  0  0  0  0  0  0  0  0  0  0 
    8.7018   -0.4323    1.3176 H   0  0  0  0  0  0  0  0  0  0  0  0 
    5.9191    4.1171    0.2053 H   0  0  0  0  0  0  0  0  0  0  0  0 
    4.3968    3.3705    0.7905 H   0  0  0  0  0  0  0  0  0  0  0  0 
    4.6964    3.5331   -0.9682 H   0  0  0  0  0  0  0  0  0  0  0  0 
    2.9350   -2.9878   -0.2165 H   0  0  0  0  0  0  0  0  0  0  0  0 
    1.6899   -1.9018   -0.8905 H   0  0  0  0  0  0  0  0  0  0  0  0 
  1  4  1  0  0  0  0 
  2 16  1  0  0  0  0 
  2 17  1  0  0  0  0 
  3 11  1  0  0  0  0 
  3 19  1  0  0  0  0 
  3 20  1  0  0  0  0 
  4 23  1  0  0  0  0 
  4 12  1  0  0  0  0 
  4 22  1  0  0  0  0 
  5  2  1  0  0  0  0 
  6  8  2  0  0  0  0 
  6  5  1  0  0  0  0 
  7  6  1  0  0  0  0 
  7 10  2  0  0  0  0 
  8 11  1  0  0  0  0 
  9  5  2  0  0  0  0 
 12  7  1  0  0  0  0 
 13  1  1  0  0  0  0 
 14  1  1  0  0  0  0 
 15  1  1  0  0  0  0 
 18  2  1  0  0  0  0 
 21  3  1  0  0  0  0 
M  END 
>  <HBA> 
5 
 
>  <HBD> 
0 
 
>  <TPSA> 
64.96 
 
>  <cid> 
43493 
 
>  <dipole> 
3.48 
 
>  <excitation_energy_1> 
4.016 
 
>  <excitation_energy_2> 
4.324 
 
>  <excitation_energy_3> 
4.773 
 
>  <excitation_energy_4> 
5.223 
 
>  <homo_energy> 
-6.792 
 
>  <homo_lumo_gap> 
5.121 
 
>  <logP> 
0.141 
 
>  <lumo_energy> 
-1.671 
 
>  <melting_point> 
17.87 
 
>  <molecular_refractivity> 
42.02 
 
>  <oscillator_strength_1> 
0.0018 
 
>  <oscillator_strength_2> 
0.0002 
 
>  <oscillator_strength_3> 
0.0006 
 
>  <oscillator_strength_4> 
0.2408 
 
>  <open_babel_can_smiles> 
CCOC(=O)/C(=N/OC)/C(=O)C 
 
>  <mulliken_charges> 
23 
1   -0.464374 
2   -0.533856 
3   -0.190247 
4   -0.04907 
5   0.446679 
6   0.158521 
7   0.636527 
8   -0.168992 
9   -0.407549 
10   -0.487487 
11   -0.369204 
12   -0.453166 
13   0.152701 
14   0.181901 
15   0.163238 
16   0.191202 
17   0.182274 
18   0.182343 
19   0.169219 
20   0.161144 
21   0.167079 
22   0.171846 
23   0.15927 
 
>  <lowdin_charges> 
23 
1   -0.454897 
2   -0.468885 
3   -0.28148 
4   -0.124824 
5   0.177671 
6   -0.037396 
7   0.193755 
8   -0.001576 
9   -0.199505 
10   -0.265789 
11   -0.17792 
12   -0.168871 
13   0.16098 
14   0.167391 
15   0.160097 
16   0.183002 
17   0.177194 
18   0.173251 
19   0.163838 
20   0.153131 
21   0.155527 
22   0.160247 
23   0.155058 
 
$$$$ 
 
