PCCDB-ID:  41784 
public computational chemistry database (PCCDB) project, http://pccdb.org 
 
 24 24  0  0  0  0  0  0  0  0999 V2000 
   -0.2590    0.9012    1.5745 C   0  0  0  0  0  0  0  0  0  0  0  0 
    4.2165    1.9758    3.6442 C   0  0  0  0  0  0  0  0  0  0  0  0 
    4.0958    3.8353    2.1062 C   0  0  0  0  0  0  0  0  0  0  0  0 
    5.1873    2.6468    4.3841 C   0  0  0  0  0  0  0  0  0  0  0  0 
    5.0645    4.5190    2.8317 C   0  0  0  0  0  0  0  0  0  0  0  0 
    2.6151    1.8383    1.6633 C   0  0  0  0  0  0  0  0  0  0  0  0 
    0.9339    0.2628    2.2564 C   0  0  0  0  0  0  0  0  0  0  0  0 
    3.6611    2.5606    2.5005 C   0  0  0  0  0  0  0  0  0  0  0  0 
    5.5988    3.9106    3.9676 C   0  0  0  0  0  0  0  0  0  0  0  0 
    2.1420    0.6356    2.3039 N   0  0  0  0  0  0  0  0  0  0  0  0 
    6.6193    4.6223    4.7486 N   0  0  0  0  0  0  0  0  0  0  0  0 
    0.6452   -0.9079    2.9027 O   0  0  0  0  0  0  0  0  0  0  0  0 
    7.0785    4.0579    5.7421 O   0  0  0  0  0  0  0  0  0  0  0  0 
    6.9581    5.7437    4.3665 O   0  0  0  0  0  0  0  0  0  0  0  0 
   -0.0214    1.8688    1.1310 H   0  0  0  0  0  0  0  0  0  0  0  0 
   -1.0751    1.0466    2.2929 H   0  0  0  0  0  0  0  0  0  0  0  0 
   -0.6286    0.2452    0.7763 H   0  0  0  0  0  0  0  0  0  0  0  0 
    3.8751    0.9915    3.9433 H   0  0  0  0  0  0  0  0  0  0  0  0 
    3.6672    4.3011    1.2215 H   0  0  0  0  0  0  0  0  0  0  0  0 
    5.6276    2.2085    5.2711 H   0  0  0  0  0  0  0  0  0  0  0  0 
    5.4080    5.5040    2.5406 H   0  0  0  0  0  0  0  0  0  0  0  0 
    3.0871    1.5586    0.7078 H   0  0  0  0  0  0  0  0  0  0  0  0 
    1.8235    2.5613    1.4058 H   0  0  0  0  0  0  0  0  0  0  0  0 
   -0.3002   -1.1020    2.8116 H   0  0  0  0  0  0  0  0  0  0  0  0 
  1  7  1  0  0  0  0 
  1 16  1  0  0  0  0 
  2 18  1  0  0  0  0 
  2  4  2  0  0  0  0 
  3  8  2  0  0  0  0 
  3  5  1  0  0  0  0 
  4 20  1  0  0  0  0 
  5  9  2  0  0  0  0 
  6 10  1  0  0  0  0 
  6  8  1  0  0  0  0 
  7 10  2  0  0  0  0 
  7 12  1  0  0  0  0 
  8  2  1  0  0  0  0 
  9  4  1  0  0  0  0 
  9 11  1  0  0  0  0 
 11 13  2  0  0  0  0 
 14 11  2  0  0  0  0 
 15  1  1  0  0  0  0 
 17  1  1  0  0  0  0 
 19  3  1  0  0  0  0 
 21  5  1  0  0  0  0 
 22  6  1  0  0  0  0 
 23  6  1  0  0  0  0 
 24 12  1  0  0  0  0 
M  END 
>  <HBA> 
2 
 
>  <HBD> 
1 
 
>  <TPSA> 
74.92 
 
>  <cid> 
41784 
 
>  <dipole> 
8.6 
 
>  <excitation_energy_1> 
3.749 
 
>  <excitation_energy_2> 
4.192 
 
>  <excitation_energy_3> 
4.244 
 
>  <excitation_energy_4> 
4.31 
 
>  <homo_energy> 
-7.002 
 
>  <homo_lumo_gap> 
4.857 
 
>  <logP> 
2.145 
 
>  <lumo_energy> 
-2.144 
 
>  <melting_point> 
94.19 
 
>  <molecular_refractivity> 
52.85 
 
>  <oscillator_strength_1> 
0.0 
 
>  <oscillator_strength_2> 
0.0522 
 
>  <oscillator_strength_3> 
0.0206 
 
>  <oscillator_strength_4> 
0.1072 
 
>  <open_babel_can_smiles> 
C/C(=N\Cc1ccc(cc1)N(=O)=O)/O 
 
>  <mulliken_charges> 
24 
1   -0.559561 
2   -0.175061 
3   -0.188452 
4   -0.155165 
5   -0.150358 
6   -0.206423 
7   0.495423 
8   0.148773 
9   0.27538 
10   -0.414682 
11   0.375723 
12   -0.5725 
13   -0.398111 
14   -0.400589 
15   0.183498 
16   0.176535 
17   0.183363 
18   0.175961 
19   0.132646 
20   0.180687 
21   0.178335 
22   0.173039 
23   0.134142 
24   0.407398 
 
>  <lowdin_charges> 
24 
1   -0.484352 
2   -0.154146 
3   -0.163908 
4   -0.134653 
5   -0.137419 
6   -0.198227 
7   0.136959 
8   0.013489 
9   -0.005784 
10   -0.201476 
11   0.308445 
12   -0.36385 
13   -0.250876 
14   -0.252524 
15   0.173304 
16   0.170936 
17   0.175036 
18   0.182265 
19   0.16061 
20   0.186817 
21   0.184849 
22   0.1634 
23   0.137337 
24   0.353769 
 
$$$$ 
 
