PCCDB-ID:  69221 
public computational chemistry database (PCCDB) project, http://pccdb.org 
 
 13 12  0  0  0  0  0  0  0  0999 V2000 
    1.8190   -0.8115   -0.7085 C   0  0  0  0  0  0  0  0  0  0  0  0 
    1.8049    2.4810    0.9800 C   0  0  0  0  0  0  0  0  0  0  0  0 
    2.3407    1.3044    0.1844 C   0  0  0  0  0  0  0  0  0  0  0  0 
    2.6453    3.6491    0.7541 N   0  0  0  0  0  0  0  0  0  0  0  0 
    3.4914    1.1883   -0.1794 O   0  0  0  0  0  0  0  0  0  0  0  0 
    1.3858    0.3767   -0.0235 O   0  0  0  0  0  0  0  0  0  0  0  0 
    0.9353   -1.4460   -0.7792 H   0  0  0  0  0  0  0  0  0  0  0  0 
    2.6099   -1.3135   -0.1447 H   0  0  0  0  0  0  0  0  0  0  0  0 
    2.1949   -0.5628   -1.7042 H   0  0  0  0  0  0  0  0  0  0  0  0 
    1.7494    2.1344    2.0304 H   0  0  0  0  0  0  0  0  0  0  0  0 
    0.7732    2.6788    0.6682 H   0  0  0  0  0  0  0  0  0  0  0  0 
    3.6188    3.3505    0.7378 H   0  0  0  0  0  0  0  0  0  0  0  0 
    2.5374    4.3138    1.5157 H   0  0  0  0  0  0  0  0  0  0  0  0 
  1  8  1  0  0  0  0 
  1  6  1  0  0  0  0 
  2 10  1  0  0  0  0 
  3  2  1  0  0  0  0 
  4  2  1  0  0  0  0 
  4 13  1  0  0  0  0 
  5  3  2  0  0  0  0 
  6  3  1  0  0  0  0 
  7  1  1  0  0  0  0 
  9  1  1  0  0  0  0 
 11  2  1  0  0  0  0 
 12  4  1  0  0  0  0 
M  END 
>  <HBA> 
3 
 
>  <HBD> 
1 
 
>  <TPSA> 
52.32 
 
>  <cid> 
69221 
 
>  <dipole> 
2.15 
 
>  <excitation_energy_1> 
5.483 
 
>  <excitation_energy_2> 
5.921 
 
>  <excitation_energy_3> 
6.004 
 
>  <excitation_energy_4> 
6.558 
 
>  <homo_energy> 
-6.403 
 
>  <homo_lumo_gap> 
6.697 
 
>  <logP> 
-0.182 
 
>  <lumo_energy> 
0.294 
 
>  <melting_point> 
42.12 
 
>  <molecular_refractivity> 
20.53 
 
>  <oscillator_strength_1> 
0.0066 
 
>  <oscillator_strength_2> 
0.0066 
 
>  <oscillator_strength_3> 
0.0044 
 
>  <oscillator_strength_4> 
0.0186 
 
>  <open_babel_can_smiles> 
COC(=O)CN 
 
>  <mulliken_charges> 
13 
1   -0.219895 
2   -0.210595 
3   0.617698 
4   -0.718347 
5   -0.47629 
6   -0.446911 
7   0.166441 
8   0.170421 
9   0.17509 
10   0.151054 
11   0.174448 
12   0.317822 
13   0.299065 
 
>  <lowdin_charges> 
13 
1   -0.278357 
2   -0.224857 
3   0.192934 
4   -0.554195 
5   -0.263553 
6   -0.18737 
7   0.162255 
8   0.160696 
9   0.161173 
10   0.144405 
11   0.162762 
12   0.265341 
13   0.258769 
 
$$$$ 
 
