PCCDB-ID:  19471 
public computational chemistry database (PCCDB) project, http://pccdb.org 
 
 21 21  0  0  0  0  0  0  0  0999 V2000 
    2.2828   -0.1152   -1.1572 C   0  0  0  0  0  0  0  0  0  0  0  0 
    2.2287    1.8116    0.4885 C   0  0  0  0  0  0  0  0  0  0  0  0 
    6.9256   -0.7735    0.9257 C   0  0  0  0  0  0  0  0  0  0  0  0 
    6.7704    0.3826    1.8377 C   0  0  0  0  0  0  0  0  0  0  0  0 
    3.0487    0.6362   -0.0606 C   0  0  0  0  0  0  0  0  0  0  0  0 
    4.5072   -0.5259    1.4180 C   0  0  0  0  0  0  0  0  0  0  0  0 
    3.3227   -0.2929    1.0353 N   0  0  0  0  0  0  0  0  0  0  0  0 
    5.6917    0.0393    0.8836 N   0  0  0  0  0  0  0  0  0  0  0  0 
    4.7156   -1.4019    2.4493 O   0  0  0  0  0  0  0  0  0  0  0  0 
    2.0387    0.5572   -1.9881 H   0  0  0  0  0  0  0  0  0  0  0  0 
    1.3492   -0.5296   -0.7596 H   0  0  0  0  0  0  0  0  0  0  0  0 
    2.8806   -0.9443   -1.5514 H   0  0  0  0  0  0  0  0  0  0  0  0 
    1.9779    2.5163   -0.3132 H   0  0  0  0  0  0  0  0  0  0  0  0 
    2.7902    2.3535    1.2575 H   0  0  0  0  0  0  0  0  0  0  0  0 
    1.2964    1.4525    0.9395 H   0  0  0  0  0  0  0  0  0  0  0  0 
    6.8598   -1.7667    1.3604 H   0  0  0  0  0  0  0  0  0  0  0  0 
    7.5365   -0.6883    0.0304 H   0  0  0  0  0  0  0  0  0  0  0  0 
    7.2653    1.3265    1.6231 H   0  0  0  0  0  0  0  0  0  0  0  0 
    6.5957    0.1690    2.8886 H   0  0  0  0  0  0  0  0  0  0  0  0 
    3.9845    1.0250   -0.4834 H   0  0  0  0  0  0  0  0  0  0  0  0 
    3.8253   -1.7017    2.7071 H   0  0  0  0  0  0  0  0  0  0  0  0 
  1 11  1  0  0  0  0 
  1  5  1  0  0  0  0 
  2 15  1  0  0  0  0 
  2 14  1  0  0  0  0 
  3 16  1  0  0  0  0 
  3  4  1  0  0  0  0 
  4 19  1  0  0  0  0 
  5  2  1  0  0  0  0 
  5  7  1  0  0  0  0 
  6  9  1  0  0  0  0 
  7  6  2  0  0  0  0 
  8  3  1  0  0  0  0 
  8  6  1  0  0  0  0 
  8  4  1  0  0  0  0 
  9 21  1  0  0  0  0 
 10  1  1  0  0  0  0 
 12  1  1  0  0  0  0 
 13  2  1  0  0  0  0 
 17  3  1  0  0  0  0 
 18  4  1  0  0  0  0 
 20  5  1  0  0  0  0 
M  END 
>  <HBA> 
3 
 
>  <HBD> 
1 
 
>  <TPSA> 
32.11 
 
>  <cid> 
19471 
 
>  <dipole> 
1.49 
 
>  <excitation_energy_1> 
6.002 
 
>  <excitation_energy_2> 
6.272 
 
>  <excitation_energy_3> 
6.303 
 
>  <excitation_energy_4> 
6.414 
 
>  <homo_energy> 
-6.729 
 
>  <homo_lumo_gap> 
7.486 
 
>  <logP> 
0.749 
 
>  <lumo_energy> 
0.756 
 
>  <melting_point> 
43.63 
 
>  <molecular_refractivity> 
39.04 
 
>  <oscillator_strength_1> 
0.0033 
 
>  <oscillator_strength_2> 
0.0015 
 
>  <oscillator_strength_3> 
0.0037 
 
>  <oscillator_strength_4> 
0.0611 
 
>  <open_babel_can_smiles> 
CC(/N=C(\N1CC1)/O)C 
 
>  <mulliken_charges> 
21 
1   -0.430895 
2   -0.431153 
3   -0.192737 
4   -0.196131 
5   0.022286 
6   0.63293 
7   -0.466439 
8   -0.424589 
9   -0.610353 
10   0.134763 
11   0.145342 
12   0.141552 
13   0.135294 
14   0.140787 
15   0.145738 
16   0.182809 
17   0.166524 
18   0.167003 
19   0.180293 
20   0.144549 
21   0.412428 
 
>  <lowdin_charges> 
21 
1   -0.446785 
2   -0.447281 
3   -0.225752 
4   -0.224236 
5   -0.055418 
6   0.148894 
7   -0.23084 
8   -0.188541 
9   -0.389226 
10   0.147482 
11   0.15011 
12   0.150299 
13   0.147869 
14   0.150146 
15   0.150184 
16   0.167284 
17   0.16395 
18   0.163694 
19   0.165218 
20   0.140219 
21   0.362731 
 
$$$$ 
 
