PCCDB-ID:  10696 
public computational chemistry database (PCCDB) project, http://pccdb.org 
 
 22 22  0  0  0  0  0  0  0  0999 V2000 
    0.9937    0.0592   -0.0924 C   0  0  0  0  0  0  0  0  0  0  0  0 
    5.4087   -2.4868   -0.1011 C   0  0  0  0  0  0  0  0  0  0  0  0 
    2.4877   -2.5470   -0.0922 C   0  0  0  0  0  0  0  0  0  0  0  0 
    3.2165    1.2129   -0.1012 C   0  0  0  0  0  0  0  0  0  0  0  0 
    5.3096    0.0181   -0.1043 C   0  0  0  0  0  0  0  0  0  0  0  0 
    2.5076    0.0049   -0.0975 C   0  0  0  0  0  0  0  0  0  0  0  0 
    4.6219   -1.1960   -0.1006 C   0  0  0  0  0  0  0  0  0  0  0  0 
    3.2088   -1.2164   -0.0969 C   0  0  0  0  0  0  0  0  0  0  0  0 
    4.6100    1.2245   -0.1034 C   0  0  0  0  0  0  0  0  0  0  0  0 
    5.3417    2.3837   -0.1067 O   0  0  0  0  0  0  0  0  0  0  0  0 
    0.6424    1.0955   -0.0937 H   0  0  0  0  0  0  0  0  0  0  0  0 
    0.5679   -0.4305    0.7921 H   0  0  0  0  0  0  0  0  0  0  0  0 
    0.5616   -0.4347   -0.9714 H   0  0  0  0  0  0  0  0  0  0  0  0 
    6.4851   -2.2917   -0.1060 H   0  0  0  0  0  0  0  0  0  0  0  0 
    5.1774   -3.1041   -0.9790 H   0  0  0  0  0  0  0  0  0  0  0  0 
    5.1846   -3.1004    0.7812 H   0  0  0  0  0  0  0  0  0  0  0  0 
    1.4023   -2.4317   -0.0879 H   0  0  0  0  0  0  0  0  0  0  0  0 
    2.7539   -3.1489    0.7871 H   0  0  0  0  0  0  0  0  0  0  0  0 
    2.7467   -3.1514   -0.9719 H   0  0  0  0  0  0  0  0  0  0  0  0 
    2.6690    2.1548   -0.1015 H   0  0  0  0  0  0  0  0  0  0  0  0 
    6.3954    0.0419   -0.1078 H   0  0  0  0  0  0  0  0  0  0  0  0 
    4.7300    3.1360   -0.0928 H   0  0  0  0  0  0  0  0  0  0  0  0 
  1 12  1  0  0  0  0 
  2  7  1  0  0  0  0 
  2 16  1  0  0  0  0 
  3 17  1  0  0  0  0 
  3 18  1  0  0  0  0 
  4  6  2  0  0  0  0 
  5  9  2  0  0  0  0 
  5  7  1  0  0  0  0 
  6  8  1  0  0  0  0 
  6  1  1  0  0  0  0 
  7  8  2  0  0  0  0 
  8  3  1  0  0  0  0 
  9  4  1  0  0  0  0 
 10  9  1  0  0  0  0 
 10 22  1  0  0  0  0 
 11  1  1  0  0  0  0 
 13  1  1  0  0  0  0 
 14  2  1  0  0  0  0 
 15  2  1  0  0  0  0 
 19  3  1  0  0  0  0 
 20  4  1  0  0  0  0 
 21  5  1  0  0  0  0 
M  END 
>  <HBA> 
1 
 
>  <HBD> 
1 
 
>  <TPSA> 
20.23 
 
>  <cid> 
10696 
 
>  <dipole> 
1.44 
 
>  <excitation_energy_1> 
4.923 
 
>  <excitation_energy_2> 
4.958 
 
>  <excitation_energy_3> 
5.383 
 
>  <excitation_energy_4> 
5.623 
 
>  <homo_energy> 
-5.562 
 
>  <homo_lumo_gap> 
5.878 
 
>  <logP> 
2.317 
 
>  <lumo_energy> 
0.316 
 
>  <melting_point> 
57.8 
 
>  <molecular_refractivity> 
43.36 
 
>  <oscillator_strength_1> 
0.0345 
 
>  <oscillator_strength_2> 
0.001 
 
>  <oscillator_strength_3> 
0.0037 
 
>  <oscillator_strength_4> 
0.0348 
 
>  <open_babel_can_smiles> 
Oc1cc(C)c(c(c1)C)C 
 
>  <mulliken_charges> 
22 
1   -0.539874 
2   -0.532576 
3   -0.536148 
4   -0.264377 
5   -0.226809 
6   0.13259 
7   0.131568 
8   0.069574 
9   0.369579 
10   -0.651176 
11   0.151312 
12   0.161679 
13   0.16165 
14   0.155816 
15   0.158087 
16   0.158082 
17   0.152877 
18   0.155737 
19   0.155759 
20   0.104459 
21   0.127545 
22   0.404647 
 
>  <lowdin_charges> 
22 
1   -0.443802 
2   -0.439217 
3   -0.443856 
4   -0.231999 
5   -0.200224 
6   0.002496 
7   0.004924 
8   -0.040603 
9   0.099576 
10   -0.384404 
11   0.153607 
12   0.159548 
13   0.159561 
14   0.155417 
15   0.158207 
16   0.158174 
17   0.156298 
18   0.156442 
19   0.156431 
20   0.14714 
21   0.15998 
22   0.356306 
 
$$$$ 
 
