PCCDB-ID:  31462 
public computational chemistry database (PCCDB) project, http://pccdb.org 
 
 39 39  0  0  1  0  0  0  0  0999 V2000 
    0.2599    0.1207    3.1490 C   0  0  0  0  0  0  0  0  0  0  0  0 
    7.8419    3.2492    5.3357 C   0  0  0  0  0  0  0  0  0  0  0  0 
    5.5476    2.3398    5.9404 C   0  0  0  0  0  0  0  0  0  0  0  0 
    6.9646   -2.0101    1.7151 C   0  0  0  0  0  0  0  0  0  0  0  0 
    1.6577    0.4640    3.6396 C   0  0  0  0  0  0  0  0  0  0  0  0 
    4.8039   -1.0393    2.4963 C   0  0  0  0  0  0  0  0  0  0  0  0 
    3.9345   -0.1044    3.3347 C   0  0  0  0  0  0  0  0  0  0  0  0 
    6.7817   -1.3301    4.1183 C   0  0  0  0  0  0  0  0  0  0  0  0 
    6.9219    0.4120    2.3554 C   0  0  0  0  0  0  0  0  0  0  0  0 
    7.0237    2.0006    5.6938 C   0  0  0  0  0  0  0  0  0  0  0  0 
    7.2068    0.9191    4.6283 C   0  0  1  0  0  0  0  0  0  0  0  0 
    6.3405   -0.9829    2.6788 C   0  0  1  0  0  0  0  0  0  0  0  0 
    2.5880   -0.3515    2.9517 O   0  0  0  0  0  0  0  0  0  0  0  0 
    6.5608   -0.2669    5.0435 O   0  0  0  0  0  0  0  0  0  0  0  0 
    6.6888    1.3653    3.3912 O   0  0  0  0  0  0  0  0  0  0  0  0 
   -0.4891    0.7347    3.6614 H   0  0  0  0  0  0  0  0  0  0  0  0 
    0.0349   -0.9338    3.3400 H   0  0  0  0  0  0  0  0  0  0  0  0 
    0.1772    0.2982    2.0717 H   0  0  0  0  0  0  0  0  0  0  0  0 
    7.7618    4.0001    6.1294 H   0  0  0  0  0  0  0  0  0  0  0  0 
    7.4805    3.6965    4.4040 H   0  0  0  0  0  0  0  0  0  0  0  0 
    8.9051    3.0121    5.2056 H   0  0  0  0  0  0  0  0  0  0  0  0 
    5.4580    3.0621    6.7600 H   0  0  0  0  0  0  0  0  0  0  0  0 
    4.9768    1.4464    6.2086 H   0  0  0  0  0  0  0  0  0  0  0  0 
    5.0941    2.7826    5.0475 H   0  0  0  0  0  0  0  0  0  0  0  0 
    6.6031   -3.0221    1.9328 H   0  0  0  0  0  0  0  0  0  0  0  0 
    8.0586   -2.0214    1.7898 H   0  0  0  0  0  0  0  0  0  0  0  0 
    6.7009   -1.7835    0.6754 H   0  0  0  0  0  0  0  0  0  0  0  0 
    1.7370    0.2994    4.7284 H   0  0  0  0  0  0  0  0  0  0  0  0 
    1.8790    1.5306    3.4600 H   0  0  0  0  0  0  0  0  0  0  0  0 
    4.5734   -0.8420    1.4403 H   0  0  0  0  0  0  0  0  0  0  0  0 
    4.4685   -2.0673    2.6913 H   0  0  0  0  0  0  0  0  0  0  0  0 
    4.1976    0.9482    3.1564 H   0  0  0  0  0  0  0  0  0  0  0  0 
    4.0688   -0.2936    4.4096 H   0  0  0  0  0  0  0  0  0  0  0  0 
    7.8553   -1.5863    4.1182 H   0  0  0  0  0  0  0  0  0  0  0  0 
    6.2289   -2.1935    4.5031 H   0  0  0  0  0  0  0  0  0  0  0  0 
    6.4721    0.8253    1.4471 H   0  0  0  0  0  0  0  0  0  0  0  0 
    8.0094    0.3252    2.1881 H   0  0  0  0  0  0  0  0  0  0  0  0 
    7.4360    1.5647    6.6142 H   0  0  0  0  0  0  0  0  0  0  0  0 
    8.2855    0.6992    4.4941 H   0  0  0  0  0  0  0  0  0  0  0  0 
  1 17  1  0  0  0  0 
  1  5  1  0  0  0  0 
  1 16  1  0  0  0  0 
  2 10  1  0  0  0  0 
  2 19  1  0  0  0  0 
  3 23  1  0  0  0  0 
  3 22  1  0  0  0  0 
  4 26  1  0  0  0  0 
  4 25  1  0  0  0  0 
  5 28  1  0  0  0  0 
  6 12  1  0  0  0  0 
  6 31  1  0  0  0  0 
  6  7  1  0  0  0  0 
  7 33  1  0  0  0  0 
  8 35  1  0  0  0  0 
  8 14  1  0  0  0  0 
  9 12  1  0  0  0  0 
  9 15  1  0  0  0  0 
 10  3  1  0  0  0  0 
 10 38  1  0  0  0  0 
 11 39  1  6  0  0  0 
 11 14  1  0  0  0  0 
 11 10  1  0  0  0  0 
 12  4  1  6  0  0  0 
 12  8  1  0  0  0  0 
 13  7  1  0  0  0  0 
 13  5  1  0  0  0  0 
 15 11  1  0  0  0  0 
 18  1  1  0  0  0  0 
 20  2  1  0  0  0  0 
 21  2  1  0  0  0  0 
 24  3  1  0  0  0  0 
 27  4  1  0  0  0  0 
 29  5  1  0  0  0  0 
 30  6  1  0  0  0  0 
 32  7  1  0  0  0  0 
 34  8  1  0  0  0  0 
 36  9  1  0  0  0  0 
 37  9  1  0  0  0  0 
M  END 
>  <HBA> 
3 
 
>  <HBD> 
0 
 
>  <TPSA> 
27.69 
 
>  <cid> 
31462 
 
>  <dipole> 
1.49 
 
>  <excitation_energy_1> 
6.247 
 
>  <excitation_energy_2> 
6.416 
 
>  <excitation_energy_3> 
6.486 
 
>  <excitation_energy_4> 
6.646 
 
>  <homo_energy> 
-6.534 
 
>  <homo_lumo_gap> 
8.602 
 
>  <logP> 
2.448 
 
>  <lumo_energy> 
2.068 
 
>  <melting_point> 
-16.13 
 
>  <molecular_refractivity> 
60.68 
 
>  <oscillator_strength_1> 
0.0003 
 
>  <oscillator_strength_2> 
0.0234 
 
>  <oscillator_strength_3> 
0.0002 
 
>  <oscillator_strength_4> 
0.0068 
 
>  <open_babel_can_smiles> 
CCOCC[C@]1(C)CO[C@@H](OC1)C(C)C 
 
>  <mulliken_charges> 
39 
1   -0.452288 
2   -0.450569 
3   -0.4531 
4   -0.463039 
5   0.002688 
6   -0.278687 
7   -0.027301 
8   -0.041364 
9   -0.040916 
10   -0.110273 
11   0.379826 
12   0.043559 
13   -0.482834 
14   -0.48934 
15   -0.484232 
16   0.139682 
17   0.155148 
18   0.155035 
19   0.142917 
20   0.161991 
21   0.136005 
22   0.135971 
23   0.161384 
24   0.156389 
25   0.150718 
26   0.14322 
27   0.150657 
28   0.115499 
29   0.115526 
30   0.13915 
31   0.138858 
32   0.138444 
33   0.137503 
34   0.121493 
35   0.149067 
36   0.149217 
37   0.122355 
38   0.136963 
39   0.094679 
 
>  <lowdin_charges> 
39 
1   -0.447401 
2   -0.443971 
3   -0.448018 
4   -0.43808 
5   -0.120125 
6   -0.275352 
7   -0.137715 
8   -0.136508 
9   -0.135894 
10   -0.129942 
11   0.097094 
12   -0.023525 
13   -0.281994 
14   -0.261615 
15   -0.262257 
16   0.153295 
17   0.153907 
18   0.153451 
19   0.15111 
20   0.157064 
21   0.144418 
22   0.147653 
23   0.157863 
24   0.154228 
25   0.153352 
26   0.146089 
27   0.152932 
28   0.120699 
29   0.121105 
30   0.145665 
31   0.145911 
32   0.13403 
33   0.132786 
34   0.127908 
35   0.15302 
36   0.15277 
37   0.128089 
38   0.149047 
39   0.10891 
 
$$$$ 
 
