PCCDB-ID:  12295 
public computational chemistry database (PCCDB) project, http://pccdb.org 
 
 26 25  0  0  0  0  0  0  0  0999 V2000 
    8.1296    1.9760    4.6717 C   0  0  0  0  0  0  0  0  0  0  0  0 
    8.5118    0.5806    4.2016 C   0  0  0  0  0  0  0  0  0  0  0  0 
    6.3576   -1.7483   -0.0968 C   0  0  0  0  0  0  0  0  0  0  0  0 
    5.3720   -0.8829    0.6987 C   0  0  0  0  0  0  0  0  0  0  0  0 
    5.9834   -1.8290   -1.5912 C   0  0  0  0  0  0  0  0  0  0  0  0 
    5.7050   -0.7991    2.1918 C   0  0  0  0  0  0  0  0  0  0  0  0 
    6.9332   -2.7400   -2.3352 C   0  0  0  0  0  0  0  0  0  0  0  0 
    6.9545    0.0127    2.4868 C   0  0  0  0  0  0  0  0  0  0  0  0 
    6.8516   -3.9478   -2.3899 O   0  0  0  0  0  0  0  0  0  0  0  0 
    7.9500   -2.0531   -2.9170 O   0  0  0  0  0  0  0  0  0  0  0  0 
    7.5201    0.7412    1.6980 O   0  0  0  0  0  0  0  0  0  0  0  0 
    7.3497   -0.1675    3.7669 O   0  0  0  0  0  0  0  0  0  0  0  0 
    9.0132    2.4907    5.0664 H   0  0  0  0  0  0  0  0  0  0  0  0 
    7.3772    1.9273    5.4658 H   0  0  0  0  0  0  0  0  0  0  0  0 
    7.7318    2.5665    3.8416 H   0  0  0  0  0  0  0  0  0  0  0  0 
    8.9271   -0.0173    5.0167 H   0  0  0  0  0  0  0  0  0  0  0  0 
    9.2303    0.6227    3.3795 H   0  0  0  0  0  0  0  0  0  0  0  0 
    6.3779   -2.7653    0.3169 H   0  0  0  0  0  0  0  0  0  0  0  0 
    7.3674   -1.3345    0.0012 H   0  0  0  0  0  0  0  0  0  0  0  0 
    4.3591   -1.2923    0.5902 H   0  0  0  0  0  0  0  0  0  0  0  0 
    5.3551    0.1304    0.2805 H   0  0  0  0  0  0  0  0  0  0  0  0 
    5.9993   -0.8300   -2.0378 H   0  0  0  0  0  0  0  0  0  0  0  0 
    4.9772   -2.2475   -1.6987 H   0  0  0  0  0  0  0  0  0  0  0  0 
    5.8239   -1.7951    2.6352 H   0  0  0  0  0  0  0  0  0  0  0  0 
    4.8813   -0.3252    2.7431 H   0  0  0  0  0  0  0  0  0  0  0  0 
    8.5254   -2.7251   -3.3293 H   0  0  0  0  0  0  0  0  0  0  0  0 
  1 13  1  0  0  0  0 
  1 14  1  0  0  0  0 
  2  1  1  0  0  0  0 
  2 16  1  0  0  0  0 
  3 19  1  0  0  0  0 
  3 18  1  0  0  0  0 
  3  4  1  0  0  0  0 
  4  6  1  0  0  0  0 
  5  3  1  0  0  0  0 
  6  8  1  0  0  0  0 
  6 24  1  0  0  0  0 
  6 25  1  0  0  0  0 
  7  5  1  0  0  0  0 
  8 12  1  0  0  0  0 
  9  7  2  0  0  0  0 
 10  7  1  0  0  0  0 
 11  8  2  0  0  0  0 
 12  2  1  0  0  0  0 
 15  1  1  0  0  0  0 
 17  2  1  0  0  0  0 
 20  4  1  0  0  0  0 
 21  4  1  0  0  0  0 
 22  5  1  0  0  0  0 
 23  5  1  0  0  0  0 
 26 10  1  0  0  0  0 
M  END 
>  <HBA> 
4 
 
>  <HBD> 
1 
 
>  <TPSA> 
63.6 
 
>  <cid> 
12295 
 
>  <dipole> 
2.24 
 
>  <excitation_energy_1> 
5.734 
 
>  <excitation_energy_2> 
5.816 
 
>  <excitation_energy_3> 
6.846 
 
>  <excitation_energy_4> 
6.94 
 
>  <homo_energy> 
-7.306 
 
>  <homo_lumo_gap> 
7.597 
 
>  <logP> 
1.194 
 
>  <lumo_energy> 
0.291 
 
>  <melting_point> 
61.71 
 
>  <molecular_refractivity> 
43.63 
 
>  <oscillator_strength_1> 
0.0017 
 
>  <oscillator_strength_2> 
0.0008 
 
>  <oscillator_strength_3> 
0.0638 
 
>  <oscillator_strength_4> 
0.0092 
 
>  <open_babel_can_smiles> 
CCOC(=O)CCCCC(=O)O 
 
>  <mulliken_charges> 
26 
1   -0.462342 
2   -0.04471 
3   -0.276342 
4   -0.252391 
5   -0.32374 
6   -0.364188 
7   0.553311 
8   0.626134 
9   -0.462084 
10   -0.558774 
11   -0.48218 
12   -0.461212 
13   0.151581 
14   0.157223 
15   0.175657 
16   0.15347 
17   0.170836 
18   0.150092 
19   0.171444 
20   0.135201 
21   0.158076 
22   0.166832 
23   0.165914 
24   0.170907 
25   0.175555 
26   0.405729 
 
>  <lowdin_charges> 
26 
1   -0.457121 
2   -0.130135 
3   -0.269619 
4   -0.270033 
5   -0.294901 
6   -0.303843 
7   0.194137 
8   0.200957 
9   -0.270804 
10   -0.36131 
11   -0.272723 
12   -0.197127 
13   0.160095 
14   0.156541 
15   0.165969 
16   0.153958 
17   0.159524 
18   0.147636 
19   0.157956 
20   0.144925 
21   0.154906 
22   0.164509 
23   0.16482 
24   0.167254 
25   0.174496 
26   0.359932 
 
$$$$ 
 
