PCCDB-ID:  30447 
public computational chemistry database (PCCDB) project, http://pccdb.org 
 
 14 13  0  0  0  0  0  0  0  0999 V2000 
    0.8933    0.1135    0.0450 C   0  0  0  0  0  0  0  0  0  0  0  0 
    2.3930    0.0363    0.0746 C   0  0  0  0  0  0  0  0  0  0  0  0 
    3.2188    0.7714   -0.6746 C   0  0  0  0  0  0  0  0  0  0  0  0 
    4.7191    0.6893   -0.6290 C   0  0  0  0  0  0  0  0  0  0  0  0 
    5.2565    0.4392   -1.9759 N   0  0  0  0  0  0  0  0  0  0  0  0 
    0.4886    0.3899    1.0283 H   0  0  0  0  0  0  0  0  0  0  0  0 
    0.4491   -0.8574   -0.2141 H   0  0  0  0  0  0  0  0  0  0  0  0 
    0.5435    0.8517   -0.6844 H   0  0  0  0  0  0  0  0  0  0  0  0 
    2.8229   -0.6803    0.7780 H   0  0  0  0  0  0  0  0  0  0  0  0 
    2.8132    1.4838   -1.3941 H   0  0  0  0  0  0  0  0  0  0  0  0 
    5.0214   -0.0551    0.1300 H   0  0  0  0  0  0  0  0  0  0  0  0 
    5.1284    1.6554   -0.2992 H   0  0  0  0  0  0  0  0  0  0  0  0 
    4.9719   -0.4903   -2.2822 H   0  0  0  0  0  0  0  0  0  0  0  0 
    6.2751    0.4323   -1.9443 H   0  0  0  0  0  0  0  0  0  0  0  0 
  1  2  1  0  0  0  0 
  1  6  1  0  0  0  0 
  2  9  1  0  0  0  0 
  3  4  1  0  0  0  0 
  3  2  2  0  0  0  0 
  4 12  1  0  0  0  0 
  4 11  1  0  0  0  0 
  5 14  1  0  0  0  0 
  5  4  1  0  0  0  0 
  7  1  1  0  0  0  0 
  8  1  1  0  0  0  0 
 10  3  1  0  0  0  0 
 13  5  1  0  0  0  0 
M  END 
>  <HBA> 
1 
 
>  <HBD> 
1 
 
>  <TPSA> 
26.02 
 
>  <cid> 
30447 
 
>  <dipole> 
1.38 
 
>  <excitation_energy_1> 
5.569 
 
>  <excitation_energy_2> 
6.127 
 
>  <excitation_energy_3> 
6.247 
 
>  <excitation_energy_4> 
6.421 
 
>  <homo_energy> 
-6.251 
 
>  <homo_lumo_gap> 
6.991 
 
>  <logP> 
1.222 
 
>  <lumo_energy> 
0.74 
 
>  <melting_point> 
38.8 
 
>  <molecular_refractivity> 
23.58 
 
>  <oscillator_strength_1> 
0.0197 
 
>  <oscillator_strength_2> 
0.0135 
 
>  <oscillator_strength_3> 
0.0706 
 
>  <oscillator_strength_4> 
0.0288 
 
>  <open_babel_can_smiles> 
C/C=C/CN 
 
>  <mulliken_charges> 
14 
1   -0.48569 
2   -0.092867 
3   -0.08169 
4   -0.184435 
5   -0.711972 
6   0.154089 
7   0.153262 
8   0.15432 
9   0.116549 
10   0.128177 
11   0.116417 
12   0.146512 
13   0.293722 
14   0.293606 
 
>  <lowdin_charges> 
14 
1   -0.43969 
2   -0.166206 
3   -0.175318 
4   -0.200898 
5   -0.556058 
6   0.155969 
7   0.155542 
8   0.156503 
9   0.145422 
10   0.153849 
11   0.121601 
12   0.14718 
13   0.251533 
14   0.250572 
 
$$$$ 
 
