PCCDB-ID:  52757 
public computational chemistry database (PCCDB) project, http://pccdb.org 
 
 30 32  0  0  0  0  0  0  0  0999 V2000 
    2.0911    3.9477   -0.0379 C   0  0  0  0  0  0  0  0  0  0  0  0 
    2.7157    2.6844   -0.1289 C   0  0  0  0  0  0  0  0  0  0  0  0 
   -2.2811    1.8208   -0.0813 C   0  0  0  0  0  0  0  0  0  0  0  0 
    0.7187    4.0217   -0.0063 C   0  0  0  0  0  0  0  0  0  0  0  0 
   -1.4926    2.9454   -0.0298 C   0  0  0  0  0  0  0  0  0  0  0  0 
    1.9745    1.5223   -0.1879 C   0  0  0  0  0  0  0  0  0  0  0  0 
   -1.6780    0.5514   -0.1609 C   0  0  0  0  0  0  0  0  0  0  0  0 
   -3.0880   -2.9398   -2.7805 C   0  0  0  0  0  0  0  0  0  0  0  0 
   -2.8286   -2.7485   -1.4465 C   0  0  0  0  0  0  0  0  0  0  0  0 
   -0.7023   -2.2150   -0.1568 C   0  0  0  0  0  0  0  0  0  0  0  0 
   -0.9996   -2.4997   -2.6523 C   0  0  0  0  0  0  0  0  0  0  0  0 
   -0.0775    2.8468   -0.0634 C   0  0  0  0  0  0  0  0  0  0  0  0 
    0.5525    1.5571   -0.1567 C   0  0  0  0  0  0  0  0  0  0  0  0 
   -0.2975    0.3861   -0.2014 C   0  0  0  0  0  0  0  0  0  0  0  0 
    0.2478   -0.9979   -0.2925 C   0  0  0  0  0  0  0  0  0  0  0  0 
   -1.9424   -2.7812   -3.5266 N   0  0  0  0  0  0  0  0  0  0  0  0 
   -1.4768   -2.4615   -1.3684 N   0  0  0  0  0  0  0  0  0  0  0  0 
    1.4311   -1.2590   -0.4668 O   0  0  0  0  0  0  0  0  0  0  0  0 
    2.6922    4.8515    0.0058 H   0  0  0  0  0  0  0  0  0  0  0  0 
    3.8005    2.6235   -0.1540 H   0  0  0  0  0  0  0  0  0  0  0  0 
   -3.3638    1.9006   -0.0628 H   0  0  0  0  0  0  0  0  0  0  0  0 
    0.2169    4.9838    0.0630 H   0  0  0  0  0  0  0  0  0  0  0  0 
   -1.9435    3.9329    0.0349 H   0  0  0  0  0  0  0  0  0  0  0  0 
    2.4704    0.5665   -0.2663 H   0  0  0  0  0  0  0  0  0  0  0  0 
   -2.3286   -0.3123   -0.2212 H   0  0  0  0  0  0  0  0  0  0  0  0 
   -4.0341   -3.1819   -3.2459 H   0  0  0  0  0  0  0  0  0  0  0  0 
   -3.4481   -2.8057   -0.5632 H   0  0  0  0  0  0  0  0  0  0  0  0 
   -1.4014   -2.0938    0.6741 H   0  0  0  0  0  0  0  0  0  0  0  0 
   -0.0552   -3.0703    0.0571 H   0  0  0  0  0  0  0  0  0  0  0  0 
    0.0419   -2.3129   -2.8774 H   0  0  0  0  0  0  0  0  0  0  0  0 
  1  4  1  0  0  0  0 
  1 19  1  0  0  0  0 
  2  1  2  0  0  0  0 
  3 21  1  0  0  0  0 
  3  5  2  0  0  0  0 
  4 22  1  0  0  0  0 
  5 23  1  0  0  0  0 
  6 13  2  0  0  0  0 
  6  2  1  0  0  0  0 
  7  3  1  0  0  0  0 
  8  9  2  0  0  0  0 
  9 17  1  0  0  0  0 
  9 27  1  0  0  0  0 
 10 29  1  0  0  0  0 
 10 28  1  0  0  0  0 
 11 17  1  0  0  0  0 
 12  5  1  0  0  0  0 
 12  4  2  0  0  0  0 
 13 12  1  0  0  0  0 
 14  7  2  0  0  0  0 
 14 13  1  0  0  0  0 
 15 14  1  0  0  0  0 
 15 10  1  0  0  0  0 
 16  8  1  0  0  0  0 
 16 11  2  0  0  0  0 
 17 10  1  0  0  0  0 
 18 15  2  0  0  0  0 
 20  2  1  0  0  0  0 
 24  6  1  0  0  0  0 
 25  7  1  0  0  0  0 
 26  8  1  0  0  0  0 
 30 11  1  0  0  0  0 
M  END 
>  <HBA> 
3 
 
>  <HBD> 
0 
 
>  <TPSA> 
34.89 
 
>  <cid> 
52757 
 
>  <dipole> 
4.88 
 
>  <excitation_energy_1> 
3.224 
 
>  <excitation_energy_2> 
3.445 
 
>  <excitation_energy_3> 
3.572 
 
>  <excitation_energy_4> 
4.023 
 
>  <homo_energy> 
-6.128 
 
>  <homo_lumo_gap> 
3.891 
 
>  <logP> 
2.919 
 
>  <lumo_energy> 
-2.237 
 
>  <melting_point> 
127.78 
 
>  <molecular_refractivity> 
70.71 
 
>  <oscillator_strength_1> 
0.0262 
 
>  <oscillator_strength_2> 
0.0006 
 
>  <oscillator_strength_3> 
0.1163 
 
>  <oscillator_strength_4> 
0.0373 
 
>  <open_babel_can_smiles> 
O=C(c1cccc2c1cccc2)Cn1cncc1 
 
>  <mulliken_charges> 
30 
1   -0.127262 
2   -0.133698 
3   -0.137416 
4   -0.195265 
5   -0.174487 
6   -0.192019 
7   -0.189108 
8   -0.035846 
9   -0.000392 
10   -0.23346 
11   0.200009 
12   0.132767 
13   0.071415 
14   0.042606 
15   0.39545 
16   -0.434474 
17   -0.379186 
18   -0.46218 
19   0.136468 
20   0.138169 
21   0.142537 
22   0.134934 
23   0.142829 
24   0.186566 
25   0.147329 
26   0.136138 
27   0.149031 
28   0.17144 
29   0.193919 
30   0.173188 
 
>  <lowdin_charges> 
30 
1   -0.153811 
2   -0.143732 
3   -0.161569 
4   -0.154327 
5   -0.125218 
6   -0.160214 
7   -0.136745 
8   -0.150642 
9   -0.186793 
10   -0.21812 
11   -0.096585 
12   -1.3e-05 
13   0.011302 
14   -0.050451 
15   0.148918 
16   -0.183513 
17   -0.014405 
18   -0.235568 
19   0.162224 
20   0.160236 
21   0.163001 
22   0.159803 
23   0.163478 
24   0.186929 
25   0.169194 
26   0.16196 
27   0.167123 
28   0.168148 
29   0.176259 
30   0.173134 
 
$$$$ 
 
