PCCDB-ID:  66041 
public computational chemistry database (PCCDB) project, http://pccdb.org 
 
 20 20  0  0  0  0  0  0  0  0999 V2000 
    1.0415   -0.0829   -0.4120 C   0  0  0  0  0  0  0  0  0  0  0  0 
    6.3999    4.1128    3.3058 C   0  0  0  0  0  0  0  0  0  0  0  0 
    2.1632   -0.1477    0.3176 C   0  0  0  0  0  0  0  0  0  0  0  0 
    5.2798    4.1777    2.5738 C   0  0  0  0  0  0  0  0  0  0  0  0 
    4.0977    0.6951    1.6220 C   0  0  0  0  0  0  0  0  0  0  0  0 
    2.5761    2.3202    0.7153 C   0  0  0  0  0  0  0  0  0  0  0  0 
    4.8669    1.7098    2.1761 C   0  0  0  0  0  0  0  0  0  0  0  0 
    3.3456    3.3350    1.2690 C   0  0  0  0  0  0  0  0  0  0  0  0 
    2.9348    0.9706    0.8781 C   0  0  0  0  0  0  0  0  0  0  0  0 
    4.5089    3.0595    2.0122 C   0  0  0  0  0  0  0  0  0  0  0  0 
    0.5590   -0.9856   -0.7736 H   0  0  0  0  0  0  0  0  0  0  0  0 
    0.5627    0.8560   -0.6770 H   0  0  0  0  0  0  0  0  0  0  0  0 
    6.8828    5.0156    3.6669 H   0  0  0  0  0  0  0  0  0  0  0  0 
    6.8771    3.1738    3.5731 H   0  0  0  0  0  0  0  0  0  0  0  0 
    2.5745   -1.1335    0.5358 H   0  0  0  0  0  0  0  0  0  0  0  0 
    4.8698    5.1636    2.3535 H   0  0  0  0  0  0  0  0  0  0  0  0 
    4.3994   -0.3403    1.7644 H   0  0  0  0  0  0  0  0  0  0  0  0 
    1.6865    2.5807    0.1494 H   0  0  0  0  0  0  0  0  0  0  0  0 
    5.7564    1.4493    2.7423 H   0  0  0  0  0  0  0  0  0  0  0  0 
    3.0441    4.3704    1.1263 H   0  0  0  0  0  0  0  0  0  0  0  0 
  1  3  2  0  0  0  0 
  2 14  1  0  0  0  0 
  2 13  1  0  0  0  0 
  3 15  1  0  0  0  0 
  3  9  1  0  0  0  0 
  4  2  2  0  0  0  0 
  5 17  1  0  0  0  0 
  5  7  2  0  0  0  0 
  6  9  2  0  0  0  0 
  6  8  1  0  0  0  0 
  7 19  1  0  0  0  0 
  8 10  2  0  0  0  0 
  9  5  1  0  0  0  0 
 10  7  1  0  0  0  0 
 10  4  1  0  0  0  0 
 11  1  1  0  0  0  0 
 12  1  1  0  0  0  0 
 16  4  1  0  0  0  0 
 18  6  1  0  0  0  0 
 20  8  1  0  0  0  0 
M  END 
>  <HBA> 
0 
 
>  <HBD> 
0 
 
>  <TPSA> 
0.0 
 
>  <cid> 
66041 
 
>  <dipole> 
0.0 
 
>  <excitation_energy_1> 
4.116 
 
>  <excitation_energy_2> 
4.509 
 
>  <excitation_energy_3> 
5.206 
 
>  <excitation_energy_4> 
5.416 
 
>  <homo_energy> 
-5.706 
 
>  <homo_lumo_gap> 
4.408 
 
>  <logP> 
2.973 
 
>  <lumo_energy> 
-1.298 
 
>  <melting_point> 
-9.41 
 
>  <molecular_refractivity> 
46.62 
 
>  <oscillator_strength_1> 
0.6514 
 
>  <oscillator_strength_2> 
0.0283 
 
>  <oscillator_strength_3> 
0.0 
 
>  <oscillator_strength_4> 
0.2629 
 
>  <open_babel_can_smiles> 
C=Cc1ccc(cc1)C=C 
 
>  <mulliken_charges> 
20 
1   -0.349875 
2   -0.349883 
3   -0.116784 
4   -0.116769 
5   -0.198162 
6   -0.18254 
7   -0.182853 
8   -0.198401 
9   0.173867 
10   0.174079 
11   0.145166 
12   0.142325 
13   0.145169 
14   0.142323 
15   0.127704 
16   0.127701 
17   0.12963 
18   0.128822 
19   0.128853 
20   0.129628 
 
>  <lowdin_charges> 
20 
1   -0.332246 
2   -0.332246 
3   -0.146086 
4   -0.146083 
5   -0.155967 
6   -0.152234 
7   -0.152242 
8   -0.155973 
9   -0.003187 
10   -0.003183 
11   0.164217 
12   0.157015 
13   0.164219 
14   0.157014 
15   0.154318 
16   0.154317 
17   0.155652 
18   0.158521 
19   0.158522 
20   0.155652 
 
$$$$ 
 
