PCCDB-ID:  7333 
public computational chemistry database (PCCDB) project, http://pccdb.org 
 
 35 36  0  0  0  0  0  0  0  0999 V2000 
    0.0566   -0.8406    0.6780 C   0  0  0  0  0  0  0  0  0  0  0  0 
    6.4612    0.5828   -2.1040 C   0  0  0  0  0  0  0  0  0  0  0  0 
   -0.5046    2.1503    2.9894 C   0  0  0  0  0  0  0  0  0  0  0  0 
    4.6548   -2.7492   -2.6135 C   0  0  0  0  0  0  0  0  0  0  0  0 
    0.4645    3.0427    2.5347 C   0  0  0  0  0  0  0  0  0  0  0  0 
    3.3229   -2.3712   -2.4587 C   0  0  0  0  0  0  0  0  0  0  0  0 
   -0.6146    0.8961    2.3882 C   0  0  0  0  0  0  0  0  0  0  0  0 
    5.6560   -1.7815   -2.5089 C   0  0  0  0  0  0  0  0  0  0  0  0 
    1.3138    2.6812    1.4900 C   0  0  0  0  0  0  0  0  0  0  0  0 
    2.9993   -1.0381   -2.2048 C   0  0  0  0  0  0  0  0  0  0  0  0 
    0.2094    0.5145    1.3252 C   0  0  0  0  0  0  0  0  0  0  0  0 
    5.3633   -0.4443   -2.2297 C   0  0  0  0  0  0  0  0  0  0  0  0 
    1.1855    1.4290    0.8707 C   0  0  0  0  0  0  0  0  0  0  0  0 
    4.0081   -0.0705   -2.0677 C   0  0  0  0  0  0  0  0  0  0  0  0 
    2.6301    1.8534   -1.1366 C   0  0  0  0  0  0  0  0  0  0  0  0 
    2.3291    3.0635   -1.4444 N   0  0  0  0  0  0  0  0  0  0  0  0 
    2.0441    1.0289   -0.1791 N   0  0  0  0  0  0  0  0  0  0  0  0 
    3.7202    1.2840   -1.8026 N   0  0  0  0  0  0  0  0  0  0  0  0 
   -0.8099   -1.3696    1.0853 H   0  0  0  0  0  0  0  0  0  0  0  0 
    0.9334   -1.4842    0.8392 H   0  0  0  0  0  0  0  0  0  0  0  0 
   -0.0782   -0.7516   -0.4071 H   0  0  0  0  0  0  0  0  0  0  0  0 
    7.4440    0.1030   -2.0787 H   0  0  0  0  0  0  0  0  0  0  0  0 
    6.3432    1.1804   -1.1925 H   0  0  0  0  0  0  0  0  0  0  0  0 
    6.4665    1.2880   -2.9477 H   0  0  0  0  0  0  0  0  0  0  0  0 
   -1.1680    2.4235    3.8050 H   0  0  0  0  0  0  0  0  0  0  0  0 
    4.9152   -3.7833   -2.8197 H   0  0  0  0  0  0  0  0  0  0  0  0 
    0.5760    4.0184    2.9997 H   0  0  0  0  0  0  0  0  0  0  0  0 
    2.5272   -3.1044   -2.5594 H   0  0  0  0  0  0  0  0  0  0  0  0 
   -1.3660    0.1938    2.7420 H   0  0  0  0  0  0  0  0  0  0  0  0 
    6.6972   -2.0708   -2.6326 H   0  0  0  0  0  0  0  0  0  0  0  0 
    2.0969    3.3585    1.1671 H   0  0  0  0  0  0  0  0  0  0  0  0 
    1.9585   -0.7360   -2.1463 H   0  0  0  0  0  0  0  0  0  0  0  0 
    1.5484    3.4049   -0.8874 H   0  0  0  0  0  0  0  0  0  0  0  0 
    2.3964    0.0826   -0.1299 H   0  0  0  0  0  0  0  0  0  0  0  0 
    4.1700    1.9751   -2.3902 H   0  0  0  0  0  0  0  0  0  0  0  0 
  1 20  1  0  0  0  0 
  1 19  1  0  0  0  0 
  1 11  1  0  0  0  0 
  2 22  1  0  0  0  0 
  2 23  1  0  0  0  0 
  3 25  1  0  0  0  0 
  4  8  2  0  0  0  0 
  4  6  1  0  0  0  0 
  5  3  1  0  0  0  0 
  5 27  1  0  0  0  0 
  6 10  2  0  0  0  0 
  7 29  1  0  0  0  0 
  7  3  2  0  0  0  0 
  8 12  1  0  0  0  0 
  9  5  2  0  0  0  0 
 10 32  1  0  0  0  0 
 10 14  1  0  0  0  0 
 11  7  1  0  0  0  0 
 12  2  1  0  0  0  0 
 12 14  2  0  0  0  0 
 13 11  2  0  0  0  0 
 13  9  1  0  0  0  0 
 14 18  1  0  0  0  0 
 15 17  1  0  0  0  0 
 16 15  2  0  0  0  0 
 16 33  1  0  0  0  0 
 17 34  1  0  0  0  0 
 17 13  1  0  0  0  0 
 18 15  1  0  0  0  0 
 21  1  1  0  0  0  0 
 24  2  1  0  0  0  0 
 26  4  1  0  0  0  0 
 28  6  1  0  0  0  0 
 30  8  1  0  0  0  0 
 31  9  1  0  0  0  0 
 35 18  1  0  0  0  0 
M  END 
>  <HBA> 
3 
 
>  <HBD> 
2 
 
>  <TPSA> 
50.41 
 
>  <cid> 
7333 
 
>  <dipole> 
2.65 
 
>  <excitation_energy_1> 
4.603 
 
>  <excitation_energy_2> 
4.692 
 
>  <excitation_energy_3> 
4.799 
 
>  <excitation_energy_4> 
4.822 
 
>  <homo_energy> 
-5.587 
 
>  <homo_lumo_gap> 
5.328 
 
>  <logP> 
4.135 
 
>  <lumo_energy> 
-0.259 
 
>  <melting_point> 
153.59 
 
>  <molecular_refractivity> 
77.12 
 
>  <oscillator_strength_1> 
0.0326 
 
>  <oscillator_strength_2> 
0.023 
 
>  <oscillator_strength_3> 
0.2711 
 
>  <oscillator_strength_4> 
0.0569 
 
>  <open_babel_can_smiles> 
N=C(Nc1ccccc1C)Nc1ccccc1C 
 
>  <mulliken_charges> 
35 
1   -0.546352 
2   -0.538667 
3   -0.121436 
4   -0.123162 
5   -0.147167 
6   -0.145717 
7   -0.198252 
8   -0.197942 
9   -0.175117 
10   -0.191471 
11   0.15016 
12   0.153674 
13   0.270674 
14   0.256373 
15   0.638912 
16   -0.66143 
17   -0.739198 
18   -0.717041 
19   0.160974 
20   0.157427 
21   0.17136 
22   0.158315 
23   0.173621 
24   0.15833 
25   0.128109 
26   0.128488 
27   0.132586 
28   0.131057 
29   0.124109 
30   0.125644 
31   0.155386 
32   0.153224 
33   0.287495 
34   0.34307 
35   0.343963 
 
>  <lowdin_charges> 
35 
1   -0.444535 
2   -0.44459 
3   -0.16733 
4   -0.167746 
5   -0.153536 
6   -0.15635 
7   -0.162019 
8   -0.157529 
9   -0.187548 
10   -0.19945 
11   -0.021786 
12   -0.019668 
13   0.043529 
14   0.036146 
15   0.135787 
16   -0.47971 
17   -0.274905 
18   -0.267107 
19   0.161995 
20   0.155698 
21   0.160274 
22   0.159529 
23   0.166111 
24   0.157277 
25   0.158817 
26   0.157327 
27   0.159081 
28   0.159696 
29   0.156659 
30   0.15519 
31   0.170636 
32   0.163427 
33   0.258039 
34   0.289635 
35   0.298956 
 
$$$$ 
 
