PCCDB-ID:  70323 
public computational chemistry database (PCCDB) project, http://pccdb.org 
 
 22 23  0  0  1  0  0  0  0  0999 V2000 
   -1.5294   -0.0637   -0.0727 C   0  0  0  0  0  0  0  0  0  0  0  0 
   -0.7898    0.7209   -0.9599 C   0  0  0  0  0  0  0  0  0  0  0  0 
   -0.8608   -0.8633    0.8549 C   0  0  0  0  0  0  0  0  0  0  0  0 
    0.6039    0.7061   -0.9195 C   0  0  0  0  0  0  0  0  0  0  0  0 
    0.5335   -0.8787    0.8916 C   0  0  0  0  0  0  0  0  0  0  0  0 
    3.6714    0.9592   -0.3726 C   0  0  0  0  0  0  0  0  0  0  0  0 
    1.2888   -0.0953    0.0069 C   0  0  0  0  0  0  0  0  0  0  0  0 
    2.7775   -0.1532    0.0801 C   0  0  1  0  0  0  0  0  0  0  0  0 
    3.6191   -0.3053   -1.2001 C   0  0  2  0  0  0  0  0  0  0  0  0 
    4.7903   -1.2288   -1.1208 C   0  0  0  0  0  0  0  0  0  0  0  0 
    5.5067   -1.3229   -0.1517 O   0  0  0  0  0  0  0  0  0  0  0  0 
    5.0230   -2.0012   -2.2171 O   0  0  0  0  0  0  0  0  0  0  0  0 
   -2.6153   -0.0497   -0.1036 H   0  0  0  0  0  0  0  0  0  0  0  0 
   -1.2986    1.3505   -1.6852 H   0  0  0  0  0  0  0  0  0  0  0  0 
   -1.4234   -1.4780    1.5525 H   0  0  0  0  0  0  0  0  0  0  0  0 
    1.1577    1.3299   -1.6173 H   0  0  0  0  0  0  0  0  0  0  0  0 
    1.0471   -1.5053    1.6169 H   0  0  0  0  0  0  0  0  0  0  0  0 
    4.5865    1.1182    0.1891 H   0  0  0  0  0  0  0  0  0  0  0  0 
    3.2195    1.8520   -0.7949 H   0  0  0  0  0  0  0  0  0  0  0  0 
    3.1674   -0.7387    0.9085 H   0  0  0  0  0  0  0  0  0  0  0  0 
    3.0654   -0.2654   -2.1359 H   0  0  0  0  0  0  0  0  0  0  0  0 
    4.3579   -1.8196   -2.9008 H   0  0  0  0  0  0  0  0  0  0  0  0 
  1  3  2  0  0  0  0 
  2  4  2  0  0  0  0 
  2  1  1  0  0  0  0 
  3  5  1  0  0  0  0 
  3 15  1  0  0  0  0 
  4  7  1  0  0  0  0 
  5 17  1  0  0  0  0 
  6  8  1  0  0  0  0 
  6 18  1  0  0  0  0 
  7  8  1  0  0  0  0 
  7  5  2  0  0  0  0 
  8 20  1  1  0  0  0 
  9 21  1  6  0  0  0 
  9 10  1  0  0  0  0 
  9  6  1  0  0  0  0 
  9  8  1  0  0  0  0 
 10 11  2  0  0  0  0 
 12 10  1  0  0  0  0 
 13  1  1  0  0  0  0 
 14  2  1  0  0  0  0 
 16  4  1  0  0  0  0 
 19  6  1  0  0  0  0 
 22 12  1  0  0  0  0 
M  END 
>  <HBA> 
2 
 
>  <HBD> 
1 
 
>  <TPSA> 
37.3 
 
>  <cid> 
70323 
 
>  <dipole> 
4.24 
 
>  <excitation_energy_1> 
5.141 
 
>  <excitation_energy_2> 
5.408 
 
>  <excitation_energy_3> 
5.67 
 
>  <excitation_energy_4> 
5.688 
 
>  <homo_energy> 
-6.525 
 
>  <homo_lumo_gap> 
6.025 
 
>  <logP> 
1.875 
 
>  <lumo_energy> 
-0.501 
 
>  <melting_point> 
104.89 
 
>  <molecular_refractivity> 
45.49 
 
>  <oscillator_strength_1> 
0.016 
 
>  <oscillator_strength_2> 
0.199 
 
>  <oscillator_strength_3> 
0.0046 
 
>  <oscillator_strength_4> 
0.048 
 
>  <open_babel_can_smiles> 
OC(=O)[C@@H]1C[C@H]1c1ccccc1 
 
>  <mulliken_charges> 
22 
1   -0.130337 
2   -0.128502 
3   -0.129022 
4   -0.208387 
5   -0.196652 
6   -0.306906 
7   0.22363 
8   -0.207976 
9   -0.241754 
10   0.624503 
11   -0.462706 
12   -0.574873 
13   0.131879 
14   0.13146 
15   0.133985 
16   0.121797 
17   0.133903 
18   0.191915 
19   0.165865 
20   0.178444 
21   0.141425 
22   0.40831 
 
>  <lowdin_charges> 
22 
1   -0.157801 
2   -0.152959 
3   -0.152492 
4   -0.175293 
5   -0.165285 
6   -0.287213 
7   0.004971 
8   -0.129888 
9   -0.208042 
10   0.20247 
11   -0.257922 
12   -0.354898 
13   0.15708 
14   0.159691 
15   0.161322 
16   0.154092 
17   0.160417 
18   0.182169 
19   0.166789 
20   0.176678 
21   0.157608 
22   0.358507 
 
$$$$ 
 
