PCCDB-ID:  27314 
public computational chemistry database (PCCDB) project, http://pccdb.org 
 
 17 16  0  0  0  0  0  0  0  0999 V2000 
    1.1355    0.0452    0.0887 C   0  0  0  0  0  0  0  0  0  0  0  0 
    0.3620    1.1950    0.7728 C   0  0  0  0  0  0  0  0  0  0  0  0 
    2.6674    0.1602    0.0893 C   0  0  0  0  0  0  0  0  0  0  0  0 
    0.7358    1.3875    2.2391 C   0  0  0  0  0  0  0  0  0  0  0  0 
    0.0952    0.9643    3.2524 N   0  0  0  0  0  0  0  0  0  0  0  0 
    3.1089    1.3630   -0.7027 N   0  0  0  0  0  0  0  0  0  0  0  0 
    1.9105    2.0344    2.4590 O   0  0  0  0  0  0  0  0  0  0  0  0 
    3.4736    1.1926   -1.8549 O   0  0  0  0  0  0  0  0  0  0  0  0 
    3.0361    2.4687   -0.1463 O   0  0  0  0  0  0  0  0  0  0  0  0 
    0.7904   -0.0606   -0.9465 H   0  0  0  0  0  0  0  0  0  0  0  0 
    0.9049   -0.8970    0.5999 H   0  0  0  0  0  0  0  0  0  0  0  0 
   -0.7062    0.9652    0.7079 H   0  0  0  0  0  0  0  0  0  0  0  0 
    0.5157    2.1310    0.2225 H   0  0  0  0  0  0  0  0  0  0  0  0 
    3.1277   -0.6972   -0.4008 H   0  0  0  0  0  0  0  0  0  0  0  0 
    3.0651    0.2925    1.0963 H   0  0  0  0  0  0  0  0  0  0  0  0 
   -0.7574    0.4894    2.9519 H   0  0  0  0  0  0  0  0  0  0  0  0 
    2.2748    2.3718    1.6170 H   0  0  0  0  0  0  0  0  0  0  0  0 
  1  3  1  0  0  0  0 
  1 11  1  0  0  0  0 
  1  2  1  0  0  0  0 
  2  4  1  0  0  0  0 
  3 15  1  0  0  0  0 
  4  7  1  0  0  0  0 
  4  5  2  0  0  0  0 
  6  9  2  0  0  0  0 
  6  3  1  0  0  0  0 
  8  6  2  0  0  0  0 
 10  1  1  0  0  0  0 
 12  2  1  0  0  0  0 
 13  2  1  0  0  0  0 
 14  3  1  0  0  0  0 
 16  5  1  0  0  0  0 
 17  7  1  0  0  0  0 
M  END 
>  <HBA> 
2 
 
>  <HBD> 
1 
 
>  <TPSA> 
88.91 
 
>  <cid> 
27314 
 
>  <dipole> 
4.29 
 
>  <excitation_energy_1> 
3.838 
 
>  <excitation_energy_2> 
3.884 
 
>  <excitation_energy_3> 
4.102 
 
>  <excitation_energy_4> 
4.446 
 
>  <homo_energy> 
-7.162 
 
>  <homo_lumo_gap> 
4.523 
 
>  <logP> 
0.752 
 
>  <lumo_energy> 
-2.64 
 
>  <melting_point> 
81.16 
 
>  <molecular_refractivity> 
32.35 
 
>  <oscillator_strength_1> 
0.001 
 
>  <oscillator_strength_2> 
0.0005 
 
>  <oscillator_strength_3> 
0.0001 
 
>  <oscillator_strength_4> 
0.0005 
 
>  <open_babel_can_smiles> 
OC(=N)CCCN(=O)=O 
 
>  <mulliken_charges> 
17 
1   -0.281644 
2   -0.370531 
3   -0.193056 
4   0.472352 
5   -0.57891 
6   0.461596 
7   -0.601136 
8   -0.349081 
9   -0.389025 
10   0.176297 
11   0.180105 
12   0.164262 
13   0.175127 
14   0.20003 
15   0.218913 
16   0.278284 
17   0.436416 
 
>  <lowdin_charges> 
17 
1   -0.26914 
2   -0.315628 
3   -0.227593 
4   0.121682 
5   -0.399269 
6   0.301133 
7   -0.3789 
8   -0.208729 
9   -0.258817 
10   0.162972 
11   0.170239 
12   0.164022 
13   0.164302 
14   0.183417 
15   0.186786 
16   0.253746 
17   0.349775 
 
$$$$ 
 
