PCCDB-ID:  9211 
public computational chemistry database (PCCDB) project, http://pccdb.org 
 
 18 19  0  0  0  0  0  0  0  0999 V2000 
   -2.4377   -0.6925    0.0963 C   0  0  0  0  0  0  0  0  0  0  0  0 
   -2.4075    0.7031    0.0371 C   0  0  0  0  0  0  0  0  0  0  0  0 
    2.4170   -0.7471   -0.0201 C   0  0  0  0  0  0  0  0  0  0  0  0 
   -1.2418   -1.4085    0.0561 C   0  0  0  0  0  0  0  0  0  0  0  0 
    1.2753   -1.4392   -0.1266 C   0  0  0  0  0  0  0  0  0  0  0  0 
   -1.1912    1.3831   -0.0497 C   0  0  0  0  0  0  0  0  0  0  0  0 
    2.3724    0.7314    0.2587 C   0  0  0  0  0  0  0  0  0  0  0  0 
   -0.0088   -0.7498   -0.0292 C   0  0  0  0  0  0  0  0  0  0  0  0 
    0.0003    0.6602   -0.0725 C   0  0  0  0  0  0  0  0  0  0  0  0 
    1.1694    1.3570   -0.2142 O   0  0  0  0  0  0  0  0  0  0  0  0 
   -3.3856   -1.2179    0.1653 H   0  0  0  0  0  0  0  0  0  0  0  0 
   -3.3345    1.2696    0.0620 H   0  0  0  0  0  0  0  0  0  0  0  0 
    3.3909   -1.2242   -0.0900 H   0  0  0  0  0  0  0  0  0  0  0  0 
   -1.2541   -2.4959    0.0859 H   0  0  0  0  0  0  0  0  0  0  0  0 
    1.2761   -2.5129   -0.2994 H   0  0  0  0  0  0  0  0  0  0  0  0 
   -1.1476    2.4665   -0.1004 H   0  0  0  0  0  0  0  0  0  0  0  0 
    3.1854    1.2615   -0.2465 H   0  0  0  0  0  0  0  0  0  0  0  0 
    2.4754    0.9283    1.3411 H   0  0  0  0  0  0  0  0  0  0  0  0 
  1 11  1  0  0  0  0 
  2 12  1  0  0  0  0 
  2  1  2  0  0  0  0 
  3  7  1  0  0  0  0 
  4 14  1  0  0  0  0 
  4  1  1  0  0  0  0 
  5  8  1  0  0  0  0 
  5  3  2  0  0  0  0 
  6  2  1  0  0  0  0 
  7 18  1  0  0  0  0 
  8  4  2  0  0  0  0 
  9  6  2  0  0  0  0 
  9  8  1  0  0  0  0 
 10  9  1  0  0  0  0 
 10  7  1  0  0  0  0 
 13  3  1  0  0  0  0 
 15  5  1  0  0  0  0 
 16  6  1  0  0  0  0 
 17  7  1  0  0  0  0 
M  END 
>  <HBA> 
1 
 
>  <HBD> 
0 
 
>  <TPSA> 
9.23 
 
>  <cid> 
9211 
 
>  <dipole> 
1.23 
 
>  <excitation_energy_1> 
4.081 
 
>  <excitation_energy_2> 
4.727 
 
>  <excitation_energy_3> 
5.212 
 
>  <excitation_energy_4> 
5.433 
 
>  <homo_energy> 
-5.546 
 
>  <homo_lumo_gap> 
4.765 
 
>  <logP> 
2.092 
 
>  <lumo_energy> 
-0.781 
 
>  <melting_point> 
55.53 
 
>  <molecular_refractivity> 
40.91 
 
>  <oscillator_strength_1> 
0.0879 
 
>  <oscillator_strength_2> 
0.0269 
 
>  <oscillator_strength_3> 
0.0198 
 
>  <oscillator_strength_4> 
0.2488 
 
>  <open_babel_can_smiles> 
C1=Cc2c(OC1)cccc2 
 
>  <mulliken_charges> 
18 
1   -0.133778 
2   -0.135104 
3   -0.174232 
4   -0.206153 
5   -0.11666 
6   -0.176681 
7   -0.059021 
8   0.11767 
9   0.312037 
10   -0.529539 
11   0.126243 
12   0.130242 
13   0.139095 
14   0.127668 
15   0.134138 
16   0.137225 
17   0.158917 
18   0.147935 
 
>  <lowdin_charges> 
18 
1   -0.176742 
2   -0.147219 
3   -0.187536 
4   -0.150763 
5   -0.149917 
6   -0.182412 
7   -0.115724 
8   -0.043421 
9   0.104214 
10   -0.205855 
11   0.157488 
12   0.159261 
13   0.162626 
14   0.154385 
15   0.159192 
16   0.164471 
17   0.159158 
18   0.138794 
 
$$$$ 
 
