PCCDB-ID:  31940 
public computational chemistry database (PCCDB) project, http://pccdb.org 
 
 40 42  0  0  1  0  0  0  0  0999 V2000 
    2.7806   -0.1013    1.0865 C   0  0  0  0  0  0  0  0  0  0  0  0 
    1.3554    1.2303   -0.5343 C   0  0  0  0  0  0  0  0  0  0  0  0 
    4.8317    5.9540    3.6684 C   0  0  0  0  0  0  0  0  0  0  0  0 
    7.0504    5.6271    2.5223 C   0  0  0  0  0  0  0  0  0  0  0  0 
    6.4801    4.2787    4.5704 C   0  0  0  0  0  0  0  0  0  0  0  0 
    4.9285    4.8386    1.4141 C   0  0  0  0  0  0  0  0  0  0  0  0 
    4.3608    3.4862    3.4606 C   0  0  0  0  0  0  0  0  0  0  0  0 
    6.5650    3.1635    2.3188 C   0  0  0  0  0  0  0  0  0  0  0  0 
    3.1590    2.3963    0.7939 C   0  0  0  0  0  0  0  0  0  0  0  0 
    2.7404    1.0816    0.1104 C   0  0  0  0  0  0  0  0  0  0  0  0 
    5.5546    5.9336    2.3052 C   0  0  1  0  0  0  0  0  0  0  0  0 
    4.9839    4.5801    4.3535 C   0  0  2  0  0  0  0  0  0  0  0  0 
    7.1997    4.2527    3.2063 C   0  0  1  0  0  0  0  0  0  0  0  0 
    5.0626    3.4432    2.0831 C   0  0  2  0  0  0  0  0  0  0  0  0 
    4.5384    2.3248    1.2795 N   0  0  0  0  0  0  0  0  0  0  0  0 
    2.5733   -1.0471    0.5717 H   0  0  0  0  0  0  0  0  0  0  0  0 
    2.0241    0.0220    1.8733 H   0  0  0  0  0  0  0  0  0  0  0  0 
    3.7589   -0.1695    1.5700 H   0  0  0  0  0  0  0  0  0  0  0  0 
    1.0583    0.3095   -1.0493 H   0  0  0  0  0  0  0  0  0  0  0  0 
    1.3355    2.0462   -1.2674 H   0  0  0  0  0  0  0  0  0  0  0  0 
    0.5916    1.4450    0.2246 H   0  0  0  0  0  0  0  0  0  0  0  0 
    3.7677    6.1906    3.5275 H   0  0  0  0  0  0  0  0  0  0  0  0 
    5.2518    6.7433    4.3071 H   0  0  0  0  0  0  0  0  0  0  0  0 
    7.5105    6.4093    3.1419 H   0  0  0  0  0  0  0  0  0  0  0  0 
    7.5808    5.6306    1.5596 H   0  0  0  0  0  0  0  0  0  0  0  0 
    6.6011    3.3124    5.0791 H   0  0  0  0  0  0  0  0  0  0  0  0 
    6.9301    5.0413    5.2213 H   0  0  0  0  0  0  0  0  0  0  0  0 
    5.4229    4.8198    0.4312 H   0  0  0  0  0  0  0  0  0  0  0  0 
    3.8706    5.0698    1.2331 H   0  0  0  0  0  0  0  0  0  0  0  0 
    3.2885    3.6858    3.3363 H   0  0  0  0  0  0  0  0  0  0  0  0 
    4.4502    2.4997    3.9332 H   0  0  0  0  0  0  0  0  0  0  0  0 
    6.6727    2.1733    2.7797 H   0  0  0  0  0  0  0  0  0  0  0  0 
    7.0835    3.1228    1.3482 H   0  0  0  0  0  0  0  0  0  0  0  0 
    2.4954    2.5693    1.6506 H   0  0  0  0  0  0  0  0  0  0  0  0 
    2.9849    3.2315    0.0904 H   0  0  0  0  0  0  0  0  0  0  0  0 
    3.4662    0.8841   -0.6957 H   0  0  0  0  0  0  0  0  0  0  0  0 
    5.4455    6.9104    1.8151 H   0  0  0  0  0  0  0  0  0  0  0  0 
    4.4663    4.5920    5.3219 H   0  0  0  0  0  0  0  0  0  0  0  0 
    8.2639    4.0256    3.3532 H   0  0  0  0  0  0  0  0  0  0  0  0 
    5.1530    2.1952    0.4752 H   0  0  0  0  0  0  0  0  0  0  0  0 
  1 18  1  0  0  0  0 
  1 17  1  0  0  0  0 
  2 10  1  0  0  0  0 
  2 21  1  0  0  0  0 
  3 23  1  0  0  0  0 
  3 12  1  0  0  0  0 
  4 24  1  0  0  0  0 
  4 13  1  0  0  0  0 
  5 26  1  0  0  0  0 
  5 27  1  0  0  0  0 
  6 14  1  0  0  0  0 
  6 11  1  0  0  0  0 
  7 31  1  0  0  0  0 
  7 12  1  0  0  0  0 
  8 32  1  0  0  0  0 
  8 13  1  0  0  0  0 
  9 15  1  0  0  0  0 
  9 34  1  0  0  0  0 
 10  9  1  0  0  0  0 
 10  1  1  0  0  0  0 
 11 37  1  6  0  0  0 
 11  4  1  0  0  0  0 
 11  3  1  0  0  0  0 
 12  5  1  0  0  0  0 
 12 38  1  1  0  0  0 
 13 39  1  1  0  0  0 
 13  5  1  0  0  0  0 
 14 15  1  6  0  0  0 
 14  8  1  0  0  0  0 
 14  7  1  0  0  0  0 
 16  1  1  0  0  0  0 
 19  2  1  0  0  0  0 
 20  2  1  0  0  0  0 
 22  3  1  0  0  0  0 
 25  4  1  0  0  0  0 
 28  6  1  0  0  0  0 
 29  6  1  0  0  0  0 
 30  7  1  0  0  0  0 
 33  8  1  0  0  0  0 
 35  9  1  0  0  0  0 
 36 10  1  0  0  0  0 
 40 15  1  0  0  0  0 
M  END 
>  <HBA> 
1 
 
>  <HBD> 
1 
 
>  <TPSA> 
12.03 
 
>  <cid> 
31940 
 
>  <dipole> 
0.89 
 
>  <excitation_energy_1> 
5.082 
 
>  <excitation_energy_2> 
5.388 
 
>  <excitation_energy_3> 
5.576 
 
>  <excitation_energy_4> 
5.742 
 
>  <homo_energy> 
-5.665 
 
>  <homo_lumo_gap> 
7.559 
 
>  <logP> 
3.592 
 
>  <lumo_energy> 
1.894 
 
>  <melting_point> 
74.06 
 
>  <molecular_refractivity> 
65.91 
 
>  <oscillator_strength_1> 
0.0009 
 
>  <oscillator_strength_2> 
0.0025 
 
>  <oscillator_strength_3> 
0.0091 
 
>  <oscillator_strength_4> 
0.0179 
 
>  <open_babel_can_smiles> 
CC(CN[C@]12C[C@H]3C[C@@H](C2)C[C@@H](C1)C3)C 
 
>  <mulliken_charges> 
40 
1   -0.435863 
2   -0.444775 
3   -0.265407 
4   -0.263625 
5   -0.264057 
6   -0.2773 
7   -0.271867 
8   -0.285563 
9   -0.11109 
10   -0.078534 
11   -0.089845 
12   -0.092479 
13   -0.08988 
14   0.224847 
15   -0.590523 
16   0.131826 
17   0.131048 
18   0.162782 
19   0.141747 
20   0.137643 
21   0.138419 
22   0.124574 
23   0.124784 
24   0.124641 
25   0.12353 
26   0.126848 
27   0.123815 
28   0.114464 
29   0.128675 
30   0.124964 
31   0.1364 
32   0.138777 
33   0.114601 
34   0.135398 
35   0.110867 
36   0.113367 
37   0.114002 
38   0.114996 
39   0.115116 
40   0.282677 
 
>  <lowdin_charges> 
40 
1   -0.447473 
2   -0.446425 
3   -0.280905 
4   -0.282481 
5   -0.282109 
6   -0.291923 
7   -0.280469 
8   -0.281103 
9   -0.207393 
10   -0.12379 
11   -0.130476 
12   -0.130409 
13   -0.128963 
14   0.054048 
15   -0.356198 
16   0.143865 
17   0.142878 
18   0.158659 
19   0.149701 
20   0.14633 
21   0.145958 
22   0.137439 
23   0.140733 
24   0.140679 
25   0.138324 
26   0.140235 
27   0.140313 
28   0.134663 
29   0.139656 
30   0.137531 
31   0.146098 
32   0.146435 
33   0.133992 
34   0.140977 
35   0.118434 
36   0.131258 
37   0.137838 
38   0.138804 
39   0.137557 
40   0.247711 
 
$$$$ 
 
