PCCDB-ID:  25125 
public computational chemistry database (PCCDB) project, http://pccdb.org 
 
 26 26  0  0  0  0  0  0  0  0999 V2000 
    0.9237    0.0842   -0.0115 C   0  0  0  0  0  0  0  0  0  0  0  0 
    2.8689    1.4246   -0.4169 C   0  0  0  0  0  0  0  0  0  0  0  0 
    5.6248   -2.0395    5.2470 C   0  0  0  0  0  0  0  0  0  0  0  0 
    5.2387   -2.9358    4.2489 C   0  0  0  0  0  0  0  0  0  0  0  0 
    5.6226   -0.6693    4.9795 C   0  0  0  0  0  0  0  0  0  0  0  0 
    4.8528   -2.4627    2.9939 C   0  0  0  0  0  0  0  0  0  0  0  0 
    5.2367   -0.2021    3.7225 C   0  0  0  0  0  0  0  0  0  0  0  0 
    4.3883   -0.5782    1.3613 C   0  0  0  0  0  0  0  0  0  0  0  0 
    2.8832   -0.2466    1.3510 C   0  0  0  0  0  0  0  0  0  0  0  0 
    4.8449   -1.0900    2.7110 C   0  0  0  0  0  0  0  0  0  0  0  0 
    2.3798    0.1267    0.0296 N   0  0  0  0  0  0  0  0  0  0  0  0 
    0.5785    0.2980   -1.0292 H   0  0  0  0  0  0  0  0  0  0  0  0 
    0.4421    0.8139    0.6702 H   0  0  0  0  0  0  0  0  0  0  0  0 
    0.5735   -0.9168    0.2625 H   0  0  0  0  0  0  0  0  0  0  0  0 
    2.4761    1.6370   -1.4171 H   0  0  0  0  0  0  0  0  0  0  0  0 
    3.9605    1.4233   -0.4842 H   0  0  0  0  0  0  0  0  0  0  0  0 
    2.5668    2.2558    0.2524 H   0  0  0  0  0  0  0  0  0  0  0  0 
    5.9298   -2.4059    6.2236 H   0  0  0  0  0  0  0  0  0  0  0  0 
    5.2426   -4.0050    4.4451 H   0  0  0  0  0  0  0  0  0  0  0  0 
    5.9268    0.0366    5.7481 H   0  0  0  0  0  0  0  0  0  0  0  0 
    4.5572   -3.1675    2.2194 H   0  0  0  0  0  0  0  0  0  0  0  0 
    5.2433    0.8670    3.5197 H   0  0  0  0  0  0  0  0  0  0  0  0 
    4.9713    0.3113    1.0956 H   0  0  0  0  0  0  0  0  0  0  0  0 
    4.5758   -1.3281    0.5841 H   0  0  0  0  0  0  0  0  0  0  0  0 
    2.6734    0.5358    2.1093 H   0  0  0  0  0  0  0  0  0  0  0  0 
    2.3366   -1.1414    1.6721 H   0  0  0  0  0  0  0  0  0  0  0  0 
  1 11  1  0  0  0  0 
  1 14  1  0  0  0  0 
  1 13  1  0  0  0  0 
  2 11  1  0  0  0  0 
  2 17  1  0  0  0  0 
  3 18  1  0  0  0  0 
  4 19  1  0  0  0  0 
  4  3  2  0  0  0  0 
  5  3  1  0  0  0  0 
  5 20  1  0  0  0  0 
  6  4  1  0  0  0  0 
  7  5  2  0  0  0  0 
  8 10  1  0  0  0  0 
  9  8  1  0  0  0  0 
  9 26  1  0  0  0  0 
  9 25  1  0  0  0  0 
 10  6  2  0  0  0  0 
 10  7  1  0  0  0  0 
 11  9  1  0  0  0  0 
 12  1  1  0  0  0  0 
 15  2  1  0  0  0  0 
 16  2  1  0  0  0  0 
 21  6  1  0  0  0  0 
 22  7  1  0  0  0  0 
 23  8  1  0  0  0  0 
 24  8  1  0  0  0  0 
M  END 
>  <HBA> 
1 
 
>  <HBD> 
0 
 
>  <TPSA> 
3.24 
 
>  <cid> 
25125 
 
>  <dipole> 
0.57 
 
>  <excitation_energy_1> 
5.023 
 
>  <excitation_energy_2> 
5.092 
 
>  <excitation_energy_3> 
5.32 
 
>  <excitation_energy_4> 
5.36 
 
>  <homo_energy> 
-5.698 
 
>  <homo_lumo_gap> 
5.812 
 
>  <logP> 
1.791 
 
>  <lumo_energy> 
0.114 
 
>  <melting_point> 
7.79 
 
>  <molecular_refractivity> 
48.73 
 
>  <oscillator_strength_1> 
0.0095 
 
>  <oscillator_strength_2> 
0.0031 
 
>  <oscillator_strength_3> 
0.0046 
 
>  <oscillator_strength_4> 
0.0132 
 
>  <open_babel_can_smiles> 
CN(CCc1ccccc1)C 
 
>  <mulliken_charges> 
26 
1   -0.293954 
2   -0.300997 
3   -0.131427 
4   -0.127996 
5   -0.12814 
6   -0.181238 
7   -0.178498 
8   -0.357296 
9   -0.104975 
10   0.165602 
11   -0.366296 
12   0.146898 
13   0.117051 
14   0.148745 
15   0.14834 
16   0.153373 
17   0.115505 
18   0.12685 
19   0.127433 
20   0.127246 
21   0.123998 
22   0.121246 
23   0.144103 
24   0.152777 
25   0.111957 
26   0.139695 
 
>  <lowdin_charges> 
26 
1   -0.355472 
2   -0.356817 
3   -0.161163 
4   -0.153752 
5   -0.157273 
6   -0.169344 
7   -0.166105 
8   -0.27996 
9   -0.198728 
10   0.000493 
11   -0.184514 
12   0.148227 
13   0.121064 
14   0.149026 
15   0.149958 
16   0.148237 
17   0.119767 
18   0.156117 
19   0.154781 
20   0.157589 
21   0.155806 
22   0.151737 
23   0.14927 
24   0.155798 
25   0.118324 
26   0.146933 
 
$$$$ 
 
