PCCDB-ID:  10854 
public computational chemistry database (PCCDB) project, http://pccdb.org 
 
 34 35  0  0  0  0  0  0  0  0999 V2000 
    0.7932   -0.8569    0.2761 C   0  0  0  0  0  0  0  0  0  0  0  0 
   13.0842   -0.6961   -1.2795 C   0  0  0  0  0  0  0  0  0  0  0  0 
    3.1428   -0.6982    1.2249 C   0  0  0  0  0  0  0  0  0  0  0  0 
    2.8484   -0.4066   -1.1370 C   0  0  0  0  0  0  0  0  0  0  0  0 
   11.0427   -1.1458    0.1616 C   0  0  0  0  0  0  0  0  0  0  0  0 
   10.7283   -0.8623   -2.1987 C   0  0  0  0  0  0  0  0  0  0  0  0 
    4.5179   -0.5105    1.0764 C   0  0  0  0  0  0  0  0  0  0  0  0 
    4.2209   -0.2196   -1.2850 C   0  0  0  0  0  0  0  0  0  0  0  0 
    9.6690   -1.3350    0.3212 C   0  0  0  0  0  0  0  0  0  0  0  0 
    9.3574   -1.0509   -2.0391 C   0  0  0  0  0  0  0  0  0  0  0  0 
    6.5783   -0.1066   -0.3493 C   0  0  0  0  0  0  0  0  0  0  0  0 
    7.3064   -1.4537   -0.5979 C   0  0  0  0  0  0  0  0  0  0  0  0 
    2.2826   -0.6511    0.1224 C   0  0  0  0  0  0  0  0  0  0  0  0 
   11.5982   -0.9048   -1.0997 C   0  0  0  0  0  0  0  0  0  0  0  0 
    5.0835   -0.2696   -0.1808 C   0  0  0  0  0  0  0  0  0  0  0  0 
    8.8001   -1.2896   -0.7748 C   0  0  0  0  0  0  0  0  0  0  0  0 
    0.5093   -0.9497    1.3293 H   0  0  0  0  0  0  0  0  0  0  0  0 
    0.4584   -1.7667   -0.2387 H   0  0  0  0  0  0  0  0  0  0  0  0 
    0.2254   -0.0208   -0.1503 H   0  0  0  0  0  0  0  0  0  0  0  0 
   13.6251   -0.8430   -0.3392 H   0  0  0  0  0  0  0  0  0  0  0  0 
   13.3068    0.3183   -1.6348 H   0  0  0  0  0  0  0  0  0  0  0  0 
   13.5017   -1.3923   -2.0173 H   0  0  0  0  0  0  0  0  0  0  0  0 
    2.7313   -0.8785    2.2158 H   0  0  0  0  0  0  0  0  0  0  0  0 
    2.2040   -0.3563   -2.0125 H   0  0  0  0  0  0  0  0  0  0  0  0 
   11.6939   -1.1927    1.0319 H   0  0  0  0  0  0  0  0  0  0  0  0 
   11.1318   -0.6852   -3.1938 H   0  0  0  0  0  0  0  0  0  0  0  0 
    5.1602   -0.5465    1.9542 H   0  0  0  0  0  0  0  0  0  0  0  0 
    4.6311   -0.0256   -2.2743 H   0  0  0  0  0  0  0  0  0  0  0  0 
    9.2677   -1.5273    1.3144 H   0  0  0  0  0  0  0  0  0  0  0  0 
    8.7075   -1.0187   -2.9116 H   0  0  0  0  0  0  0  0  0  0  0  0 
    6.7909    0.5669   -1.1890 H   0  0  0  0  0  0  0  0  0  0  0  0 
    7.0087    0.3648    0.5431 H   0  0  0  0  0  0  0  0  0  0  0  0 
    6.8720   -1.9283   -1.4866 H   0  0  0  0  0  0  0  0  0  0  0  0 
    7.0989   -2.1248    0.2449 H   0  0  0  0  0  0  0  0  0  0  0  0 
  1 17  1  0  0  0  0 
  2 14  1  0  0  0  0 
  2 20  1  0  0  0  0 
  3 23  1  0  0  0  0 
  4 13  1  0  0  0  0 
  5  9  1  0  0  0  0 
  5 25  1  0  0  0  0 
  6 10  2  0  0  0  0 
  6 14  1  0  0  0  0 
  7  3  1  0  0  0  0 
  7 27  1  0  0  0  0 
  8  4  2  0  0  0  0 
  8 15  1  0  0  0  0 
  9 29  1  0  0  0  0 
 10 16  1  0  0  0  0 
 11 15  1  0  0  0  0 
 11 32  1  0  0  0  0 
 12 11  1  0  0  0  0 
 12 34  1  0  0  0  0 
 13  1  1  0  0  0  0 
 13  3  2  0  0  0  0 
 14  5  2  0  0  0  0 
 15  7  2  0  0  0  0 
 16 12  1  0  0  0  0 
 16  9  2  0  0  0  0 
 18  1  1  0  0  0  0 
 19  1  1  0  0  0  0 
 21  2  1  0  0  0  0 
 22  2  1  0  0  0  0 
 24  4  1  0  0  0  0 
 26  6  1  0  0  0  0 
 28  8  1  0  0  0  0 
 30 10  1  0  0  0  0 
 31 11  1  0  0  0  0 
 33 12  1  0  0  0  0 
M  END 
>  <HBA> 
0 
 
>  <HBD> 
0 
 
>  <TPSA> 
0.0 
 
>  <cid> 
10854 
 
>  <dipole> 
0.09 
 
>  <excitation_energy_1> 
5.147 
 
>  <excitation_energy_2> 
5.149 
 
>  <excitation_energy_3> 
5.396 
 
>  <excitation_energy_4> 
5.631 
 
>  <homo_energy> 
-6.046 
 
>  <homo_lumo_gap> 
6.044 
 
>  <logP> 
4.089 
 
>  <lumo_energy> 
-0.003 
 
>  <melting_point> 
46.56 
 
>  <molecular_refractivity> 
70.63 
 
>  <oscillator_strength_1> 
0.0092 
 
>  <oscillator_strength_2> 
0.0053 
 
>  <oscillator_strength_3> 
0.3015 
 
>  <oscillator_strength_4> 
0.0011 
 
>  <open_babel_can_smiles> 
Cc1ccc(cc1)CCc1ccc(cc1)C 
 
>  <mulliken_charges> 
34 
1   -0.530223 
2   -0.53027 
3   -0.182235 
4   -0.176293 
5   -0.182304 
6   -0.176334 
7   -0.180314 
8   -0.181497 
9   -0.18059 
10   -0.181231 
11   -0.345944 
12   -0.345988 
13   0.176996 
14   0.177075 
15   0.175979 
16   0.175998 
17   0.153624 
18   0.16168 
19   0.159999 
20   0.153622 
21   0.161673 
22   0.160056 
23   0.119358 
24   0.119318 
25   0.119379 
26   0.11933 
27   0.119259 
28   0.119456 
29   0.119258 
30   0.119452 
31   0.145268 
32   0.145591 
33   0.145327 
34   0.145522 
 
>  <lowdin_charges> 
34 
1   -0.442622 
2   -0.443052 
3   -0.167506 
4   -0.166335 
5   -0.169077 
6   -0.164753 
7   -0.167596 
8   -0.165162 
9   -0.166156 
10   -0.166571 
11   -0.271576 
12   -0.271591 
13   -0.002083 
14   -0.002135 
15   -0.006202 
16   -0.006199 
17   0.154671 
18   0.160297 
19   0.160193 
20   0.155992 
21   0.159246 
22   0.160407 
23   0.152527 
24   0.153736 
25   0.153651 
26   0.152593 
27   0.153431 
28   0.152276 
29   0.152321 
30   0.153363 
31   0.15086 
32   0.151094 
33   0.150952 
34   0.151004 
 
$$$$ 
 
