PCCDB-ID:  22615 
public computational chemistry database (PCCDB) project, http://pccdb.org 
 
 16 16  0  0  0  0  0  0  0  0999 V2000 
    0.7776   -0.0790    0.0821 C   0  0  0  0  0  0  0  0  0  0  0  0 
    2.9414    0.0976   -1.2201 C   0  0  0  0  0  0  0  0  0  0  0  0 
    2.9306   -1.1739    1.0524 C   0  0  0  0  0  0  0  0  0  0  0  0 
    3.3719   -0.0017    1.9463 C   0  0  0  0  0  0  0  0  0  0  0  0 
    2.3002   -0.0765    0.1515 C   0  0  0  0  0  0  0  0  0  0  0  0 
    2.7661    0.9697    1.0665 O   0  0  0  0  0  0  0  0  0  0  0  0 
    0.4151   -0.9099   -0.5358 H   0  0  0  0  0  0  0  0  0  0  0  0 
    0.4153    0.8582   -0.3556 H   0  0  0  0  0  0  0  0  0  0  0  0 
    0.3445   -0.1767    1.0832 H   0  0  0  0  0  0  0  0  0  0  0  0 
    2.6577   -0.7215   -1.8924 H   0  0  0  0  0  0  0  0  0  0  0  0 
    4.0332    0.1166   -1.1375 H   0  0  0  0  0  0  0  0  0  0  0  0 
    2.6178    1.0417   -1.6731 H   0  0  0  0  0  0  0  0  0  0  0  0 
    2.2164   -1.8684    1.5035 H   0  0  0  0  0  0  0  0  0  0  0  0 
    3.7404   -1.7443    0.5890 H   0  0  0  0  0  0  0  0  0  0  0  0 
    4.4559    0.1478    2.0359 H   0  0  0  0  0  0  0  0  0  0  0  0 
    2.9299    0.0245    2.9510 H   0  0  0  0  0  0  0  0  0  0  0  0 
  1  5  1  0  0  0  0 
  1  9  1  0  0  0  0 
  2 11  1  0  0  0  0 
  2  5  1  0  0  0  0 
  3 13  1  0  0  0  0 
  3  4  1  0  0  0  0 
  4 15  1  0  0  0  0 
  4 16  1  0  0  0  0 
  5  3  1  0  0  0  0 
  5  6  1  0  0  0  0 
  6  4  1  0  0  0  0 
  7  1  1  0  0  0  0 
  8  1  1  0  0  0  0 
 10  2  1  0  0  0  0 
 12  2  1  0  0  0  0 
 14  3  1  0  0  0  0 
M  END 
>  <HBA> 
1 
 
>  <HBD> 
0 
 
>  <TPSA> 
9.23 
 
>  <cid> 
22615 
 
>  <dipole> 
1.78 
 
>  <excitation_energy_1> 
6.173 
 
>  <excitation_energy_2> 
6.491 
 
>  <excitation_energy_3> 
6.773 
 
>  <excitation_energy_4> 
6.786 
 
>  <homo_energy> 
-6.493 
 
>  <homo_lumo_gap> 
8.757 
 
>  <logP> 
1.185 
 
>  <lumo_energy> 
2.264 
 
>  <melting_point> 
-1.25 
 
>  <molecular_refractivity> 
25.16 
 
>  <oscillator_strength_1> 
0.0048 
 
>  <oscillator_strength_2> 
0.0181 
 
>  <oscillator_strength_3> 
0.0002 
 
>  <oscillator_strength_4> 
0.0183 
 
>  <open_babel_can_smiles> 
CC1(C)CCO1 
 
>  <mulliken_charges> 
16 
1   -0.451482 
2   -0.451289 
3   -0.373303 
4   0.000264 
5   0.360484 
6   -0.523301 
7   0.139477 
8   0.153469 
9   0.146549 
10   0.139413 
11   0.146384 
12   0.153608 
13   0.146443 
14   0.146376 
15   0.133488 
16   0.133419 
 
>  <lowdin_charges> 
16 
1   -0.450763 
2   -0.448907 
3   -0.311289 
4   -0.116429 
5   0.142349 
6   -0.311643 
7   0.151887 
8   0.157432 
9   0.152955 
10   0.151792 
11   0.151364 
12   0.157447 
13   0.152324 
14   0.152152 
15   0.134035 
16   0.135293 
 
$$$$ 
 
