PCCDB-ID:  35231 
public computational chemistry database (PCCDB) project, http://pccdb.org 
 
 22 22  0  0  1  0  0  0  0  0999 V2000 
    2.2808    1.5133    0.2493 C   0  0  0  0  0  0  0  0  0  0  0  0 
    7.7150   -0.0722    0.1929 C   0  0  0  0  0  0  0  0  0  0  0  0 
    2.5843    0.0116    0.1612 C   0  0  0  0  0  0  0  0  0  0  0  0 
    6.7040   -0.3412   -0.8870 C   0  0  2  0  0  0  0  0  0  0  0  0 
    6.1071   -0.9109   -3.0509 C   0  0  0  0  0  0  0  0  0  0  0  0 
    4.3160   -0.4396   -1.4018 C   0  0  0  0  0  0  0  0  0  0  0  0 
    6.3558   -1.2378   -4.2607 N   0  0  0  0  0  0  0  0  0  0  0  0 
    3.0668   -0.3678   -1.1545 N   0  0  0  0  0  0  0  0  0  0  0  0 
    7.0876   -0.6708   -2.0731 N   0  0  0  0  0  0  0  0  0  0  0  0 
    5.3816   -0.2072   -0.5150 N   0  0  0  0  0  0  0  0  0  0  0  0 
    4.7703   -0.7823   -2.6585 N   0  0  0  0  0  0  0  0  0  0  0  0 
    1.8359    1.7664    1.2188 H   0  0  0  0  0  0  0  0  0  0  0  0 
    1.5805    1.8016   -0.5409 H   0  0  0  0  0  0  0  0  0  0  0  0 
    3.1909    2.1115    0.1213 H   0  0  0  0  0  0  0  0  0  0  0  0 
    8.7167   -0.2026   -0.2167 H   0  0  0  0  0  0  0  0  0  0  0  0 
    7.5787   -0.7608    1.0359 H   0  0  0  0  0  0  0  0  0  0  0  0 
    7.6142    0.9505    0.5768 H   0  0  0  0  0  0  0  0  0  0  0  0 
    1.6594   -0.5489    0.3431 H   0  0  0  0  0  0  0  0  0  0  0  0 
    3.2645   -0.2767    0.9857 H   0  0  0  0  0  0  0  0  0  0  0  0 
    7.3694   -1.2884   -4.3754 H   0  0  0  0  0  0  0  0  0  0  0  0 
    5.1567    0.0562    0.4326 H   0  0  0  0  0  0  0  0  0  0  0  0 
    4.0621   -0.9663   -3.3572 H   0  0  0  0  0  0  0  0  0  0  0  0 
  1 12  1  0  0  0  0 
  2 17  1  0  0  0  0 
  2 16  1  0  0  0  0 
  3  1  1  0  0  0  0 
  3 18  1  0  0  0  0 
  3 19  1  0  0  0  0 
  4 10  1  0  0  0  0 
  4  2  1  6  0  0  0 
  5 11  1  0  0  0  0 
  5  9  2  0  0  0  0 
  6  8  2  0  0  0  0 
  6 10  1  0  0  0  0 
  7  5  1  0  0  0  0 
  8  3  1  0  0  0  0 
  9  4  1  0  0  0  0 
 10 21  1  0  0  0  0 
 11  6  1  0  0  0  0 
 13  1  1  0  0  0  0 
 14  1  1  0  0  0  0 
 15  2  1  0  0  0  0 
 20  7  1  0  0  0  0 
 22 11  1  0  0  0  0 
M  RAD  2   4   2   7   2 
M  END 
>  <HBA> 
5 
 
>  <HBD> 
2 
 
>  <TPSA> 
76.72 
 
>  <cid> 
35231 
 
>  <dipole> 
5.38 
 
>  <excitation_energy_1> 
4.62 
 
>  <excitation_energy_2> 
5.078 
 
>  <excitation_energy_3> 
5.208 
 
>  <excitation_energy_4> 
5.327 
 
>  <homo_energy> 
-6.112 
 
>  <homo_lumo_gap> 
5.347 
 
>  <logP> 
0.848 
 
>  <lumo_energy> 
-0.765 
 
>  <melting_point> 
138.72 
 
>  <molecular_refractivity> 
43.31 
 
>  <oscillator_strength_1> 
0.0084 
 
>  <oscillator_strength_2> 
0.0718 
 
>  <oscillator_strength_3> 
0.0469 
 
>  <oscillator_strength_4> 
0.0017 
 
>  <open_babel_can_smiles> 
CC/N=C/1\N[C](C)N=C(N1)[NH] 
 
>  <mulliken_charges> 
22 
1   -0.435159 
2   -0.53862 
3   -0.158019 
4   0.522921 
5   0.603081 
6   0.742406 
7   -0.647926 
8   -0.481358 
9   -0.498103 
10   -0.696252 
11   -0.666389 
12   0.141603 
13   0.167605 
14   0.136782 
15   0.204586 
16   0.176272 
17   0.175653 
18   0.156499 
19   0.09681 
20   0.295045 
21   0.348105 
22   0.35446 
 
>  <lowdin_charges> 
22 
1   -0.451201 
2   -0.450033 
3   -0.197777 
4   0.125343 
5   0.115486 
6   0.133016 
7   -0.423427 
8   -0.260241 
9   -0.222719 
10   -0.250693 
11   -0.234744 
12   0.150198 
13   0.161809 
14   0.144056 
15   0.187569 
16   0.171296 
17   0.16972 
18   0.152287 
19   0.111037 
20   0.260755 
21   0.297141 
22   0.311122 
 
$$$$ 
 
