PCCDB-ID:  70339 
public computational chemistry database (PCCDB) project, http://pccdb.org 
 
 23 24  0  0  0  0  0  0  0  0999 V2000 
    1.2592    0.7497    0.7340 C   0  0  0  0  0  0  0  0  0  0  0  0 
    2.8968   -1.1112    0.6134 C   0  0  0  0  0  0  0  0  0  0  0  0 
    5.6329    1.4503   -4.6987 C   0  0  0  0  0  0  0  0  0  0  0  0 
    5.3673    0.5951   -3.6323 C   0  0  0  0  0  0  0  0  0  0  0  0 
    3.7295    2.8520   -4.1155 C   0  0  0  0  0  0  0  0  0  0  0  0 
    4.8223    2.5708   -4.9403 C   0  0  0  0  0  0  0  0  0  0  0  0 
    4.2795    0.8521   -2.7911 C   0  0  0  0  0  0  0  0  0  0  0  0 
    3.4755    1.9872   -3.0562 C   0  0  0  0  0  0  0  0  0  0  0  0 
    2.8525    0.5702   -1.1202 C   0  0  0  0  0  0  0  0  0  0  0  0 
    3.9113    0.0867   -1.6952 N   0  0  0  0  0  0  0  0  0  0  0  0 
    2.2166   -0.0071   -0.0554 N   0  0  0  0  0  0  0  0  0  0  0  0 
    5.0550    3.4347   -5.9805 O   0  0  0  0  0  0  0  0  0  0  0  0 
    2.1914    2.0803   -1.8545 S   0  0  0  0  0  0  0  0  0  0  0  0 
    0.6711    0.0509    1.3353 H   0  0  0  0  0  0  0  0  0  0  0  0 
    0.5673    1.2910    0.0818 H   0  0  0  0  0  0  0  0  0  0  0  0 
    1.7413    1.4727    1.4106 H   0  0  0  0  0  0  0  0  0  0  0  0 
    2.1508   -1.7268    1.1253 H   0  0  0  0  0  0  0  0  0  0  0  0 
    3.6319   -0.7562    1.3515 H   0  0  0  0  0  0  0  0  0  0  0  0 
    3.4188   -1.7103   -0.1322 H   0  0  0  0  0  0  0  0  0  0  0  0 
    6.4798    1.2508   -5.3529 H   0  0  0  0  0  0  0  0  0  0  0  0 
    5.9928   -0.2717   -3.4441 H   0  0  0  0  0  0  0  0  0  0  0  0 
    3.1162    3.7230   -4.3202 H   0  0  0  0  0  0  0  0  0  0  0  0 
    5.8334    3.1288   -6.4706 H   0  0  0  0  0  0  0  0  0  0  0  0 
  1 14  1  0  0  0  0 
  1 16  1  0  0  0  0 
  2 17  1  0  0  0  0 
  2 18  1  0  0  0  0 
  3  4  1  0  0  0  0 
  4 21  1  0  0  0  0 
  4  7  2  0  0  0  0 
  5  8  2  0  0  0  0 
  6  3  2  0  0  0  0 
  6  5  1  0  0  0  0 
  7 10  1  0  0  0  0 
  8  7  1  0  0  0  0 
  8 13  1  0  0  0  0 
  9 11  1  0  0  0  0 
 10  9  2  0  0  0  0 
 11  2  1  0  0  0  0 
 11  1  1  0  0  0  0 
 12  6  1  0  0  0  0 
 13  9  1  0  0  0  0 
 15  1  1  0  0  0  0 
 19  2  1  0  0  0  0 
 20  3  1  0  0  0  0 
 22  5  1  0  0  0  0 
 23 12  1  0  0  0  0 
M  END 
>  <HBA> 
4 
 
>  <HBD> 
1 
 
>  <TPSA> 
64.6 
 
>  <cid> 
70339 
 
>  <dipole> 
1.69 
 
>  <excitation_energy_1> 
4.312 
 
>  <excitation_energy_2> 
4.318 
 
>  <excitation_energy_3> 
4.549 
 
>  <excitation_energy_4> 
4.612 
 
>  <homo_energy> 
-5.083 
 
>  <homo_lumo_gap> 
5.034 
 
>  <logP> 
2.068 
 
>  <lumo_energy> 
-0.049 
 
>  <melting_point> 
113.71 
 
>  <molecular_refractivity> 
55.85 
 
>  <oscillator_strength_1> 
0.0284 
 
>  <oscillator_strength_2> 
0.0143 
 
>  <oscillator_strength_3> 
0.1396 
 
>  <oscillator_strength_4> 
0.0938 
 
>  <open_babel_can_smiles> 
Oc1ccc2c(c1)sc(n2)N(C)C 
 
>  <mulliken_charges> 
23 
1   -0.324451 
2   -0.308549 
3   -0.211015 
4   -0.163432 
5   -0.221976 
6   0.360651 
7   0.30149 
8   -0.129877 
9   0.32645 
10   -0.554339 
11   -0.428834 
12   -0.648823 
13   0.172986 
14   0.16431 
15   0.185374 
16   0.162562 
17   0.151891 
18   0.154351 
19   0.201728 
20   0.116949 
21   0.138226 
22   0.147959 
23   0.406369 
 
>  <lowdin_charges> 
23 
1   -0.354254 
2   -0.350784 
3   -0.215757 
4   -0.156636 
5   -0.194791 
6   0.09695 
7   0.012781 
8   -0.140192 
9   -0.015918 
10   -0.218438 
11   -0.102045 
12   -0.385578 
13   0.205314 
14   0.162417 
15   0.170866 
16   0.149401 
17   0.154444 
18   0.147393 
19   0.182651 
20   0.15372 
21   0.16776 
22   0.173121 
23   0.357576 
 
$$$$ 
 
