PCCDB-ID:  13030 
public computational chemistry database (PCCDB) project, http://pccdb.org 
 
 22 22  0  0  0  0  0  0  0  0999 V2000 
    0.8875    0.3085   -0.1781 C   0  0  0  0  0  0  0  0  0  0  0  0 
    2.6096   -1.5382    0.1046 C   0  0  0  0  0  0  0  0  0  0  0  0 
    7.5895    0.6027   -0.2168 C   0  0  0  0  0  0  0  0  0  0  0  0 
    6.9324    1.6859    0.3718 C   0  0  0  0  0  0  0  0  0  0  0  0 
    6.8397   -0.3992   -0.8344 C   0  0  0  0  0  0  0  0  0  0  0  0 
    5.5416    1.7557    0.3505 C   0  0  0  0  0  0  0  0  0  0  0  0 
    5.4465   -0.3289   -0.8528 C   0  0  0  0  0  0  0  0  0  0  0  0 
    3.2976    0.8793   -0.2428 C   0  0  0  0  0  0  0  0  0  0  0  0 
    2.3480   -0.0693   -0.1222 C   0  0  0  0  0  0  0  0  0  0  0  0 
    4.7664    0.7417   -0.2437 C   0  0  0  0  0  0  0  0  0  0  0  0 
    0.3776   -0.2145   -1.0000 H   0  0  0  0  0  0  0  0  0  0  0  0 
    0.7461    1.3837   -0.3252 H   0  0  0  0  0  0  0  0  0  0  0  0 
    0.3668    0.0153    0.7443 H   0  0  0  0  0  0  0  0  0  0  0  0 
    1.9285   -1.9271    0.8730 H   0  0  0  0  0  0  0  0  0  0  0  0 
    3.6347   -1.7397    0.4233 H   0  0  0  0  0  0  0  0  0  0  0  0 
    2.4165   -2.1261   -0.8046 H   0  0  0  0  0  0  0  0  0  0  0  0 
    8.6748    0.5479   -0.2061 H   0  0  0  0  0  0  0  0  0  0  0  0 
    7.5051    2.4792    0.8456 H   0  0  0  0  0  0  0  0  0  0  0  0 
    7.3405   -1.2343   -1.3176 H   0  0  0  0  0  0  0  0  0  0  0  0 
    5.0374    2.6035    0.8089 H   0  0  0  0  0  0  0  0  0  0  0  0 
    4.8816   -1.0943   -1.3749 H   0  0  0  0  0  0  0  0  0  0  0  0 
    2.9502    1.9104   -0.3215 H   0  0  0  0  0  0  0  0  0  0  0  0 
  1  9  1  0  0  0  0 
  1 13  1  0  0  0  0 
  2 15  1  0  0  0  0 
  2 14  1  0  0  0  0 
  3 17  1  0  0  0  0 
  3  4  2  0  0  0  0 
  4 18  1  0  0  0  0 
  5  3  1  0  0  0  0 
  6  4  1  0  0  0  0 
  6 20  1  0  0  0  0 
  7  5  2  0  0  0  0 
  7 10  1  0  0  0  0 
  8  9  2  0  0  0  0 
  9  2  1  0  0  0  0 
 10  8  1  0  0  0  0 
 10  6  2  0  0  0  0 
 11  1  1  0  0  0  0 
 12  1  1  0  0  0  0 
 16  2  1  0  0  0  0 
 19  5  1  0  0  0  0 
 21  7  1  0  0  0  0 
 22  8  1  0  0  0  0 
M  END 
>  <HBA> 
0 
 
>  <HBD> 
0 
 
>  <TPSA> 
0.0 
 
>  <cid> 
13030 
 
>  <dipole> 
0.54 
 
>  <excitation_energy_1> 
4.84 
 
>  <excitation_energy_2> 
4.91 
 
>  <excitation_energy_3> 
5.392 
 
>  <excitation_energy_4> 
5.686 
 
>  <homo_energy> 
-5.782 
 
>  <homo_lumo_gap> 
5.328 
 
>  <logP> 
3.11 
 
>  <lumo_energy> 
-0.454 
 
>  <melting_point> 
28.93 
 
>  <molecular_refractivity> 
46.15 
 
>  <oscillator_strength_1> 
0.0124 
 
>  <oscillator_strength_2> 
0.4564 
 
>  <oscillator_strength_3> 
0.0078 
 
>  <oscillator_strength_4> 
0.0736 
 
>  <open_babel_can_smiles> 
CC(=Cc1ccccc1)C 
 
>  <mulliken_charges> 
22 
1   -0.508685 
2   -0.521423 
3   -0.130516 
4   -0.129918 
5   -0.13281 
6   -0.18329 
7   -0.187393 
8   -0.257381 
9   0.195703 
10   0.163218 
11   0.15324 
12   0.153623 
13   0.15165 
14   0.149608 
15   0.167798 
16   0.154782 
17   0.126976 
18   0.127682 
19   0.127402 
20   0.125234 
21   0.133719 
22   0.120782 
 
>  <lowdin_charges> 
22 
1   -0.438651 
2   -0.44946 
3   -0.158953 
4   -0.157563 
5   -0.158287 
6   -0.161925 
7   -0.166522 
8   -0.193345 
9   0.00543 
10   5.5e-05 
11   0.155977 
12   0.153441 
13   0.154225 
14   0.15589 
15   0.163944 
16   0.157134 
17   0.154552 
18   0.15789 
19   0.157351 
20   0.156331 
21   0.161071 
22   0.151417 
 
$$$$ 
 
