PCCDB-ID:  71607 
public computational chemistry database (PCCDB) project, http://pccdb.org 
 
 29 31  0  0  1  0  0  0  0  0999 V2000 
   -1.2509   -0.0726    0.0635 C   0  0  0  0  0  0  0  0  0  0  0  0 
    2.6032    2.5616    4.6289 C   0  0  0  0  0  0  0  0  0  0  0  0 
   -0.7267    0.5354   -1.0776 C   0  0  0  0  0  0  0  0  0  0  0  0 
   -0.3871   -0.4518    1.0925 C   0  0  0  0  0  0  0  0  0  0  0  0 
    2.1678    3.2298    3.4819 C   0  0  0  0  0  0  0  0  0  0  0  0 
    3.4484    1.4587    4.5038 C   0  0  0  0  0  0  0  0  0  0  0  0 
    0.6459    0.7592   -1.1829 C   0  0  0  0  0  0  0  0  0  0  0  0 
    0.9852   -0.2288    0.9839 C   0  0  0  0  0  0  0  0  0  0  0  0 
    2.5743    2.7952    2.2211 C   0  0  0  0  0  0  0  0  0  0  0  0 
    3.8549    1.0276    3.2392 C   0  0  0  0  0  0  0  0  0  0  0  0 
    4.0718   -0.1722    0.3318 C   0  0  0  0  0  0  0  0  0  0  0  0 
    1.5281    0.3821   -0.1580 C   0  0  0  0  0  0  0  0  0  0  0  0 
    3.4230    1.6870    2.0809 C   0  0  0  0  0  0  0  0  0  0  0  0 
    2.9862    0.6421   -0.3417 C   0  0  1  0  0  0  0  0  0  0  0  0 
    3.9001    1.2687    0.7227 C   0  0  2  0  0  0  0  0  0  0  0  0 
   -2.3194   -0.2511    0.1497 H   0  0  0  0  0  0  0  0  0  0  0  0 
    2.2845    2.8984    5.6118 H   0  0  0  0  0  0  0  0  0  0  0  0 
   -1.3847    0.8349   -1.8893 H   0  0  0  0  0  0  0  0  0  0  0  0 
   -0.7816   -0.9271    1.9870 H   0  0  0  0  0  0  0  0  0  0  0  0 
    1.5060    4.0876    3.5696 H   0  0  0  0  0  0  0  0  0  0  0  0 
    3.7951    0.9335    5.3902 H   0  0  0  0  0  0  0  0  0  0  0  0 
    1.0448    1.2306   -2.0786 H   0  0  0  0  0  0  0  0  0  0  0  0 
    1.6338   -0.5285    1.8007 H   0  0  0  0  0  0  0  0  0  0  0  0 
    2.2248    3.3116    1.3307 H   0  0  0  0  0  0  0  0  0  0  0  0 
    4.5217    0.1739    3.1476 H   0  0  0  0  0  0  0  0  0  0  0  0 
    4.9380   -0.4595   -0.2584 H   0  0  0  0  0  0  0  0  0  0  0  0 
    3.7497   -0.9311    1.0402 H   0  0  0  0  0  0  0  0  0  0  0  0 
    3.2241    0.9661   -1.3528 H   0  0  0  0  0  0  0  0  0  0  0  0 
    4.6332    1.9543    0.2964 H   0  0  0  0  0  0  0  0  0  0  0  0 
  1 16  1  0  0  0  0 
  1  4  2  0  0  0  0 
  2 17  1  0  0  0  0 
  3  1  1  0  0  0  0 
  4 19  1  0  0  0  0 
  5 20  1  0  0  0  0 
  5  2  2  0  0  0  0 
  6  2  1  0  0  0  0 
  6 21  1  0  0  0  0 
  7  3  2  0  0  0  0 
  7 12  1  0  0  0  0 
  8  4  1  0  0  0  0 
  8 23  1  0  0  0  0 
  9  5  1  0  0  0  0 
 10  6  2  0  0  0  0 
 11 15  1  0  0  0  0 
 11 27  1  0  0  0  0 
 12  8  2  0  0  0  0 
 13  9  2  0  0  0  0 
 13 10  1  0  0  0  0 
 14 28  1  6  0  0  0 
 14 12  1  0  0  0  0 
 14 11  1  0  0  0  0 
 14 15  1  0  0  0  0 
 15 29  1  6  0  0  0 
 15 13  1  0  0  0  0 
 18  3  1  0  0  0  0 
 22  7  1  0  0  0  0 
 24  9  1  0  0  0  0 
 25 10  1  0  0  0  0 
 26 11  1  0  0  0  0 
M  END 
>  <HBA> 
0 
 
>  <HBD> 
0 
 
>  <TPSA> 
0.0 
 
>  <cid> 
71607 
 
>  <dipole> 
0.44 
 
>  <excitation_energy_1> 
5.028 
 
>  <excitation_energy_2> 
5.135 
 
>  <excitation_energy_3> 
5.257 
 
>  <excitation_energy_4> 
5.455 
 
>  <homo_energy> 
-6.025 
 
>  <homo_lumo_gap> 
5.902 
 
>  <logP> 
3.958 
 
>  <lumo_energy> 
-0.122 
 
>  <melting_point> 
58.79 
 
>  <molecular_refractivity> 
63.4 
 
>  <oscillator_strength_1> 
0.0385 
 
>  <oscillator_strength_2> 
0.012 
 
>  <oscillator_strength_3> 
0.0207 
 
>  <oscillator_strength_4> 
0.0231 
 
>  <open_babel_can_smiles> 
C1[C@H]([C@H]1c1ccccc1)c1ccccc1 
 
>  <mulliken_charges> 
29 
1   -0.132182 
2   -0.129113 
3   -0.128943 
4   -0.131307 
5   -0.130053 
6   -0.129861 
7   -0.202717 
8   -0.198031 
9   -0.164046 
10   -0.182142 
11   -0.323292 
12   0.224483 
13   0.152189 
14   -0.205303 
15   -0.200921 
16   0.124812 
17   0.127426 
18   0.125436 
19   0.126921 
20   0.129186 
21   0.127491 
22   0.120446 
23   0.131267 
24   0.130984 
25   0.12622 
26   0.152997 
27   0.159908 
28   0.13827 
29   0.159872 
 
>  <lowdin_charges> 
29 
1   -0.162464 
2   -0.159413 
3   -0.15842 
4   -0.153918 
5   -0.153377 
6   -0.158996 
7   -0.170479 
8   -0.168557 
9   -0.156057 
10   -0.166807 
11   -0.310741 
12   0.008076 
13   -0.002006 
14   -0.149897 
15   -0.15071 
16   0.153922 
17   0.156392 
18   0.156775 
19   0.156821 
20   0.157487 
21   0.157177 
22   0.152917 
23   0.159983 
24   0.160357 
25   0.156692 
26   0.161822 
27   0.163001 
28   0.155638 
29   0.164782 
 
$$$$ 
 
