PCCDB-ID:  22279 
public computational chemistry database (PCCDB) project, http://pccdb.org 
 
 18 18  0  0  0  0  0  0  0  0999 V2000 
    3.2011   -1.3988    0.1367 C   0  0  0  0  0  0  0  0  0  0  0  0 
    3.3478    3.0086   -2.1241 C   0  0  0  0  0  0  0  0  0  0  0  0 
    2.7277    2.1979   -1.1785 C   0  0  0  0  0  0  0  0  0  0  0  0 
    4.2161    2.4273   -3.0473 C   0  0  0  0  0  0  0  0  0  0  0  0 
    3.9068    0.3531   -2.1447 C   0  0  0  0  0  0  0  0  0  0  0  0 
    2.4290   -0.1386   -0.1889 C   0  0  0  0  0  0  0  0  0  0  0  0 
    2.9998    0.8176   -1.1724 C   0  0  0  0  0  0  0  0  0  0  0  0 
    4.4980    1.1189   -3.0654 N   0  0  0  0  0  0  0  0  0  0  0  0 
    1.3163   -0.0467    0.4564 N   0  0  0  0  0  0  0  0  0  0  0  0 
    0.5572    1.0952    0.1472 O   0  0  0  0  0  0  0  0  0  0  0  0 
    4.2319   -1.1680    0.4290 H   0  0  0  0  0  0  0  0  0  0  0  0 
    3.2469   -2.0770   -0.7238 H   0  0  0  0  0  0  0  0  0  0  0  0 
    2.7044   -1.9239    0.9550 H   0  0  0  0  0  0  0  0  0  0  0  0 
    3.1590    4.0780   -2.1454 H   0  0  0  0  0  0  0  0  0  0  0  0 
    2.0480    2.6206   -0.4518 H   0  0  0  0  0  0  0  0  0  0  0  0 
    4.7114    3.0346   -3.8034 H   0  0  0  0  0  0  0  0  0  0  0  0 
    4.1652   -0.7021   -2.1894 H   0  0  0  0  0  0  0  0  0  0  0  0 
   -0.2316    0.9585    0.6945 H   0  0  0  0  0  0  0  0  0  0  0  0 
  1 11  1  0  0  0  0 
  1 13  1  0  0  0  0 
  2  3  2  0  0  0  0 
  3  7  1  0  0  0  0 
  3 15  1  0  0  0  0 
  4  2  1  0  0  0  0 
  5  7  2  0  0  0  0 
  6  1  1  0  0  0  0 
  6  9  2  0  0  0  0 
  7  6  1  0  0  0  0 
  8  4  2  0  0  0  0 
  8  5  1  0  0  0  0 
 10  9  1  0  0  0  0 
 10 18  1  0  0  0  0 
 12  1  1  0  0  0  0 
 14  2  1  0  0  0  0 
 16  4  1  0  0  0  0 
 17  5  1  0  0  0  0 
M  END 
>  <HBA> 
3 
 
>  <HBD> 
1 
 
>  <TPSA> 
45.48 
 
>  <cid> 
22279 
 
>  <dipole> 
1.85 
 
>  <excitation_energy_1> 
4.408 
 
>  <excitation_energy_2> 
4.834 
 
>  <excitation_energy_3> 
4.95 
 
>  <excitation_energy_4> 
5.125 
 
>  <homo_energy> 
-6.495 
 
>  <homo_lumo_gap> 
5.268 
 
>  <logP> 
1.28 
 
>  <lumo_energy> 
-1.227 
 
>  <melting_point> 
93.76 
 
>  <molecular_refractivity> 
38.42 
 
>  <oscillator_strength_1> 
0.0081 
 
>  <oscillator_strength_2> 
0.0698 
 
>  <oscillator_strength_3> 
0.136 
 
>  <oscillator_strength_4> 
0.0773 
 
>  <open_babel_can_smiles> 
O/N=C(\c1cccnc1)/C 
 
>  <mulliken_charges> 
18 
1   -0.513159 
2   -0.14662 
3   -0.1228 
4   0.044164 
5   -0.005916 
6   0.254678 
7   0.106104 
8   -0.414105 
9   -0.232038 
10   -0.509073 
11   0.166802 
12   0.16819 
13   0.179963 
14   0.140115 
15   0.175601 
16   0.14455 
17   0.142589 
18   0.420954 
 
>  <lowdin_charges> 
18 
1   -0.441697 
2   -0.174445 
3   -0.119238 
4   -0.08457 
5   -0.088347 
6   0.023671 
7   -0.040406 
8   -0.147595 
9   -0.071534 
10   -0.376083 
11   0.16214 
12   0.163434 
13   0.174295 
14   0.163741 
15   0.181478 
16   0.159425 
17   0.157461 
18   0.358268 
 
$$$$ 
 
