PCCDB-ID:  66984 
public computational chemistry database (PCCDB) project, http://pccdb.org 
 
 26 25  0  0  0  0  0  0  0  0999 V2000 
    6.3957   -1.5963    1.3637 C   0  0  0  0  0  0  0  0  0  0  0  0 
    7.5776    4.4704    2.7652 C   0  0  0  0  0  0  0  0  0  0  0  0 
    4.9885    1.5294    0.0307 C   0  0  0  0  0  0  0  0  0  0  0  0 
    8.7308    3.4718    2.8927 C   0  0  0  0  0  0  0  0  0  0  0  0 
    5.9764    0.3736    0.1408 C   0  0  0  0  0  0  0  0  0  0  0  0 
    6.2081    3.8087    2.6654 C   0  0  0  0  0  0  0  0  0  0  0  0 
    4.9097    2.3800    1.2932 C   0  0  0  0  0  0  0  0  0  0  0  0 
    9.9943    4.1142    3.0363 O   0  0  0  0  0  0  0  0  0  0  0  0 
    5.5141   -0.5182    1.1416 O   0  0  0  0  0  0  0  0  0  0  0  0 
    6.1560    3.0344    1.4795 O   0  0  0  0  0  0  0  0  0  0  0  0 
    5.9575   -2.2175    2.1496 H   0  0  0  0  0  0  0  0  0  0  0  0 
    7.3894   -1.2511    1.6928 H   0  0  0  0  0  0  0  0  0  0  0  0 
    6.5280   -2.2097    0.4571 H   0  0  0  0  0  0  0  0  0  0  0  0 
    7.7302    5.0957    1.8739 H   0  0  0  0  0  0  0  0  0  0  0  0 
    7.5905    5.1397    3.6345 H   0  0  0  0  0  0  0  0  0  0  0  0 
    3.9919    1.1256   -0.1866 H   0  0  0  0  0  0  0  0  0  0  0  0 
    5.2782    2.1672   -0.8136 H   0  0  0  0  0  0  0  0  0  0  0  0 
    8.7256    2.7813    2.0377 H   0  0  0  0  0  0  0  0  0  0  0  0 
    8.6049    2.8696    3.7997 H   0  0  0  0  0  0  0  0  0  0  0  0 
    6.9773    0.7542    0.3992 H   0  0  0  0  0  0  0  0  0  0  0  0 
    6.0587   -0.1505   -0.8271 H   0  0  0  0  0  0  0  0  0  0  0  0 
    5.4154    4.5762    2.6538 H   0  0  0  0  0  0  0  0  0  0  0  0 
    6.0241    3.1684    3.5463 H   0  0  0  0  0  0  0  0  0  0  0  0 
    4.6779    1.7440    2.1610 H   0  0  0  0  0  0  0  0  0  0  0  0 
    4.1033    3.1271    1.1991 H   0  0  0  0  0  0  0  0  0  0  0  0 
   10.1719    4.5894    2.2098 H   0  0  0  0  0  0  0  0  0  0  0  0 
  1 12  1  0  0  0  0 
  1 11  1  0  0  0  0 
  2  4  1  0  0  0  0 
  2 15  1  0  0  0  0 
  3  5  1  0  0  0  0 
  3  7  1  0  0  0  0 
  4  8  1  0  0  0  0 
  4 19  1  0  0  0  0 
  5 20  1  0  0  0  0 
  5  9  1  0  0  0  0 
  6  2  1  0  0  0  0 
  6 23  1  0  0  0  0 
  7 10  1  0  0  0  0 
  7 24  1  0  0  0  0 
  9  1  1  0  0  0  0 
 10  6  1  0  0  0  0 
 13  1  1  0  0  0  0 
 14  2  1  0  0  0  0 
 16  3  1  0  0  0  0 
 17  3  1  0  0  0  0 
 18  4  1  0  0  0  0 
 21  5  1  0  0  0  0 
 22  6  1  0  0  0  0 
 25  7  1  0  0  0  0 
 26  8  1  0  0  0  0 
M  END 
>  <HBA> 
3 
 
>  <HBD> 
1 
 
>  <TPSA> 
38.69 
 
>  <cid> 
66984 
 
>  <dipole> 
1.54 
 
>  <excitation_energy_1> 
6.357 
 
>  <excitation_energy_2> 
6.401 
 
>  <excitation_energy_3> 
6.523 
 
>  <excitation_energy_4> 
6.673 
 
>  <homo_energy> 
-6.719 
 
>  <homo_lumo_gap> 
8.855 
 
>  <logP> 
0.422 
 
>  <lumo_energy> 
2.136 
 
>  <melting_point> 
-26.51 
 
>  <molecular_refractivity> 
39.09 
 
>  <oscillator_strength_1> 
0.0068 
 
>  <oscillator_strength_2> 
0.0263 
 
>  <oscillator_strength_3> 
0.0291 
 
>  <oscillator_strength_4> 
0.0096 
 
>  <open_babel_can_smiles> 
COCCCOCCCO 
 
>  <mulliken_charges> 
26 
1   -0.189867 
2   -0.294854 
3   -0.293727 
4   -0.029949 
5   -0.013308 
6   -0.012709 
7   -0.009463 
8   -0.617474 
9   -0.464212 
10   -0.483235 
11   0.156076 
12   0.131295 
13   0.127931 
14   0.133829 
15   0.146392 
16   0.147171 
17   0.14489 
18   0.140191 
19   0.14133 
20   0.137079 
21   0.11661 
22   0.12046 
23   0.120977 
24   0.142269 
25   0.116644 
26   0.385654 
 
>  <lowdin_charges> 
26 
1   -0.280024 
2   -0.300874 
3   -0.288204 
4   -0.137222 
5   -0.129627 
6   -0.128515 
7   -0.13115 
8   -0.470022 
9   -0.275685 
10   -0.282108 
11   0.1551 
12   0.13155 
13   0.13075 
14   0.143428 
15   0.153936 
16   0.154597 
17   0.15461 
18   0.134627 
19   0.14452 
20   0.132773 
21   0.125798 
22   0.129154 
23   0.127135 
24   0.138359 
25   0.127335 
26   0.339757 
 
$$$$ 
 
