PCCDB-ID:  12995 
public computational chemistry database (PCCDB) project, http://pccdb.org 
 
 14 13  0  0  0  0  0  0  0  0999 V2000 
    2.4614    0.8309   -2.6505 C   0  0  0  0  0  0  0  0  0  0  0  0 
    3.5248    0.9378   -3.4516 C   0  0  0  0  0  0  0  0  0  0  0  0 
    6.6675    1.1208   -1.6155 C   0  0  0  0  0  0  0  0  0  0  0  0 
    5.1577    0.9736   -1.7108 C   0  0  0  0  0  0  0  0  0  0  0  0 
    7.1111    2.3506   -2.1600 O   0  0  0  0  0  0  0  0  0  0  0  0 
    4.8387    0.9984   -3.1043 O   0  0  0  0  0  0  0  0  0  0  0  0 
    1.4732    0.7920   -3.0939 H   0  0  0  0  0  0  0  0  0  0  0  0 
    2.5241    0.7802   -1.5699 H   0  0  0  0  0  0  0  0  0  0  0  0 
    3.4313    0.9854   -4.5332 H   0  0  0  0  0  0  0  0  0  0  0  0 
    7.1464    0.2615   -2.1118 H   0  0  0  0  0  0  0  0  0  0  0  0 
    6.9682    1.1126   -0.5627 H   0  0  0  0  0  0  0  0  0  0  0  0 
    4.6563    1.8089   -1.2041 H   0  0  0  0  0  0  0  0  0  0  0  0 
    4.8174    0.0290   -1.2629 H   0  0  0  0  0  0  0  0  0  0  0  0 
    6.7512    2.3898   -3.0611 H   0  0  0  0  0  0  0  0  0  0  0  0 
  1  8  1  0  0  0  0 
  2  6  1  0  0  0  0 
  2  1  2  0  0  0  0 
  3 11  1  0  0  0  0 
  4  3  1  0  0  0  0 
  4 13  1  0  0  0  0 
  4 12  1  0  0  0  0 
  5  3  1  0  0  0  0 
  6  4  1  0  0  0  0 
  7  1  1  0  0  0  0 
  9  2  1  0  0  0  0 
 10  3  1  0  0  0  0 
 14  5  1  0  0  0  0 
M  END 
>  <HBA> 
2 
 
>  <HBD> 
1 
 
>  <TPSA> 
29.46 
 
>  <cid> 
12995 
 
>  <dipole> 
1.51 
 
>  <excitation_energy_1> 
5.966 
 
>  <excitation_energy_2> 
6.14 
 
>  <excitation_energy_3> 
6.509 
 
>  <excitation_energy_4> 
6.81 
 
>  <homo_energy> 
-6.351 
 
>  <homo_lumo_gap> 
7.353 
 
>  <logP> 
0.139 
 
>  <lumo_energy> 
1.001 
 
>  <melting_point> 
-36.16 
 
>  <molecular_refractivity> 
23.11 
 
>  <oscillator_strength_1> 
0.0359 
 
>  <oscillator_strength_2> 
0.012 
 
>  <oscillator_strength_3> 
0.0033 
 
>  <oscillator_strength_4> 
0.041 
 
>  <open_babel_can_smiles> 
OCCOC=C 
 
>  <mulliken_charges> 
14 
1   -0.397445 
2   0.158651 
3   -0.040206 
4   -0.053423 
5   -0.616664 
6   -0.466035 
7   0.145301 
8   0.144619 
9   0.144433 
10   0.134576 
11   0.150439 
12   0.153724 
13   0.140811 
14   0.40122 
 
>  <lowdin_charges> 
14 
1   -0.41996 
2   -0.033117 
3   -0.137716 
4   -0.147775 
5   -0.463519 
6   -0.211948 
7   0.170047 
8   0.161112 
9   0.15697 
10   0.135496 
11   0.151732 
12   0.148982 
13   0.144773 
14   0.344924 
 
$$$$ 
 
