PCCDB-ID:  32467 
public computational chemistry database (PCCDB) project, http://pccdb.org 
 
 28 28  0  0  0  0  0  0  0  0999 V2000 
    4.7053    3.8311    2.6977 C   0  0  0  0  0  0  0  0  0  0  0  0 
    4.2404    3.5846    1.2698 C   0  0  0  0  0  0  0  0  0  0  0  0 
    5.0960   -1.1021    0.3242 C   0  0  0  0  0  0  0  0  0  0  0  0 
    6.5213    0.5959   -0.6247 C   0  0  0  0  0  0  0  0  0  0  0  0 
    5.8546   -2.0837   -0.2905 C   0  0  0  0  0  0  0  0  0  0  0  0 
    7.2844   -0.3810   -1.2560 C   0  0  0  0  0  0  0  0  0  0  0  0 
    5.4226    0.2548    0.1745 C   0  0  0  0  0  0  0  0  0  0  0  0 
    6.9687   -1.7432   -1.0866 C   0  0  0  0  0  0  0  0  0  0  0  0 
    4.5796    1.2610    0.8649 C   0  0  0  0  0  0  0  0  0  0  0  0 
    8.9063   -2.8388   -2.3339 C   0  0  0  0  0  0  0  0  0  0  0  0 
    9.0983   -3.8206   -3.1374 N   0  0  0  0  0  0  0  0  0  0  0  0 
    9.7875   -1.7995   -2.0336 N   0  0  0  0  0  0  0  0  0  0  0  0 
    7.6750   -2.7915   -1.6787 N   0  0  0  0  0  0  0  0  0  0  0  0 
    3.6142    0.9899    1.5563 O   0  0  0  0  0  0  0  0  0  0  0  0 
    5.0024    2.5305    0.6396 O   0  0  0  0  0  0  0  0  0  0  0  0 
    4.1638    4.6840    3.1233 H   0  0  0  0  0  0  0  0  0  0  0  0 
    5.7767    4.0557    2.7256 H   0  0  0  0  0  0  0  0  0  0  0  0 
    4.5098    2.9543    3.3211 H   0  0  0  0  0  0  0  0  0  0  0  0 
    4.4139    4.4586    0.6365 H   0  0  0  0  0  0  0  0  0  0  0  0 
    3.1807    3.3197    1.2404 H   0  0  0  0  0  0  0  0  0  0  0  0 
    4.2412   -1.3670    0.9377 H   0  0  0  0  0  0  0  0  0  0  0  0 
    6.7722    1.6414   -0.7661 H   0  0  0  0  0  0  0  0  0  0  0  0 
    5.6008   -3.1322   -0.1542 H   0  0  0  0  0  0  0  0  0  0  0  0 
    8.1020   -0.0905   -1.9039 H   0  0  0  0  0  0  0  0  0  0  0  0 
   10.0561   -3.8276   -3.4906 H   0  0  0  0  0  0  0  0  0  0  0  0 
   10.7395   -1.9811   -2.3259 H   0  0  0  0  0  0  0  0  0  0  0  0 
    9.7390   -1.4463   -1.0839 H   0  0  0  0  0  0  0  0  0  0  0  0 
    7.1647   -3.6543   -1.8169 H   0  0  0  0  0  0  0  0  0  0  0  0 
  1 17  1  0  0  0  0 
  1 16  1  0  0  0  0 
  1 18  1  0  0  0  0 
  2  1  1  0  0  0  0 
  3 21  1  0  0  0  0 
  4  7  2  0  0  0  0 
  5 23  1  0  0  0  0 
  5  3  2  0  0  0  0 
  6  8  2  0  0  0  0 
  6  4  1  0  0  0  0 
  7  3  1  0  0  0  0 
  7  9  1  0  0  0  0 
  8  5  1  0  0  0  0 
  9 14  2  0  0  0  0 
 10 12  2  0  0  0  0 
 10 13  1  0  0  0  0 
 11 10  1  0  0  0  0 
 12 27  1  0  0  0  0 
 13  8  1  0  0  0  0 
 15  9  1  0  0  0  0 
 15  2  1  0  0  0  0 
 19  2  1  0  0  0  0 
 20  2  1  0  0  0  0 
 22  4  1  0  0  0  0 
 24  6  1  0  0  0  0 
 25 11  1  0  0  0  0 
 26 12  1  0  0  0  0 
 28 13  1  0  0  0  0 
M  RAD  1  11   2 
M  END 
>  <HBA> 
5 
 
>  <HBD> 
2 
 
>  <TPSA> 
90.7 
 
>  <cid> 
32467 
 
>  <dipole> 
3.75 
 
>  <excitation_energy_1> 
4.357 
 
>  <excitation_energy_2> 
4.61 
 
>  <excitation_energy_3> 
4.912 
 
>  <excitation_energy_4> 
4.958 
 
>  <homo_energy> 
-5.788 
 
>  <homo_lumo_gap> 
4.746 
 
>  <logP> 
2.169 
 
>  <lumo_energy> 
-1.042 
 
>  <melting_point> 
163.34 
 
>  <molecular_refractivity> 
57.15 
 
>  <oscillator_strength_1> 
0.6262 
 
>  <oscillator_strength_2> 
0.0058 
 
>  <oscillator_strength_3> 
0.0012 
 
>  <oscillator_strength_4> 
0.0048 
 
>  <open_babel_can_smiles> 
CCOC(=O)c1ccc(cc1)NC(=[NH2])[NH] 
 
>  <mulliken_charges> 
28 
1   -0.461387 
2   -0.039688 
3   -0.15892 
4   -0.175254 
5   -0.197481 
6   -0.196485 
7   0.052237 
8   0.363372 
9   0.591154 
10   0.58765 
11   -0.636332 
12   -0.748568 
13   -0.702493 
14   -0.501452 
15   -0.482139 
16   0.148214 
17   0.154227 
18   0.17774 
19   0.149285 
20   0.170352 
21   0.163855 
22   0.155998 
23   0.13326 
24   0.168102 
25   0.271401 
26   0.329706 
27   0.33638 
28   0.347266 
 
>  <lowdin_charges> 
28 
1   -0.45495 
2   -0.1264 
3   -0.120365 
4   -0.126942 
5   -0.190245 
6   -0.207702 
7   -0.06712 
8   0.067857 
9   0.196723 
10   0.133435 
11   -0.468142 
12   -0.492885 
13   -0.245843 
14   -0.28261 
15   -0.199075 
16   0.158447 
17   0.152947 
18   0.166586 
19   0.151103 
20   0.157166 
21   0.178471 
22   0.171152 
23   0.158157 
24   0.174941 
25   0.248669 
26   0.281132 
27   0.284677 
28   0.300815 
 
$$$$ 
 
