PCCDB-ID:  52184 
public computational chemistry database (PCCDB) project, http://pccdb.org 
 
 26 26  0  0  1  0  0  0  0  0999 V2000 
    4.0934   -1.1449   -3.5246 C   0  0  0  0  0  0  0  0  0  0  0  0 
    7.7109    3.3075   -2.5082 C   0  0  0  0  0  0  0  0  0  0  0  0 
    4.1644    0.1706   -2.7528 C   0  0  0  0  0  0  0  0  0  0  0  0 
    5.7383    2.1088   -1.3668 C   0  0  0  0  0  0  0  0  0  0  0  0 
    5.9439    4.5921   -1.2429 C   0  0  0  0  0  0  0  0  0  0  0  0 
    5.3777    3.5893   -3.4200 C   0  0  0  0  0  0  0  0  0  0  0  0 
    4.2656    5.4572   -2.5958 C   0  0  0  0  0  0  0  0  0  0  0  0 
    6.2052    3.3833   -2.1467 C   0  0  1  0  0  0  0  0  0  0  0  0 
    5.0868    5.5102   -1.4376 N   0  0  0  0  0  0  0  0  0  0  0  0 
    4.5287    4.5174   -3.6231 N   0  0  0  0  0  0  0  0  0  0  0  0 
    6.6776    4.6748   -0.1083 O   0  0  0  0  0  0  0  0  0  0  0  0 
    5.5901    2.7134   -4.4214 O   0  0  0  0  0  0  0  0  0  0  0  0 
    3.3394    6.2278   -2.7069 O   0  0  0  0  0  0  0  0  0  0  0  0 
    5.9142    0.4965   -2.2468 S   0  0  0  0  0  0  0  0  0  0  0  0 
    3.0532   -1.3501   -3.7991 H   0  0  0  0  0  0  0  0  0  0  0  0 
    4.4572   -1.9844   -2.9231 H   0  0  0  0  0  0  0  0  0  0  0  0 
    4.6815   -1.1007   -4.4471 H   0  0  0  0  0  0  0  0  0  0  0  0 
    8.3373    3.1638   -1.6194 H   0  0  0  0  0  0  0  0  0  0  0  0 
    8.0351    4.2247   -3.0081 H   0  0  0  0  0  0  0  0  0  0  0  0 
    7.9192    2.4654   -3.1726 H   0  0  0  0  0  0  0  0  0  0  0  0 
    3.5572    0.1236   -1.8437 H   0  0  0  0  0  0  0  0  0  0  0  0 
    3.8156    1.0031   -3.3699 H   0  0  0  0  0  0  0  0  0  0  0  0 
    4.6916    2.2188   -1.0682 H   0  0  0  0  0  0  0  0  0  0  0  0 
    6.3255    2.0191   -0.4479 H   0  0  0  0  0  0  0  0  0  0  0  0 
    7.3490    3.9761   -0.0829 H   0  0  0  0  0  0  0  0  0  0  0  0 
    6.0686    1.9291   -4.0768 H   0  0  0  0  0  0  0  0  0  0  0  0 
  1 16  1  0  0  0  0 
  1  3  1  0  0  0  0 
  2 18  1  0  0  0  0 
  3 14  1  0  0  0  0 
  3 21  1  0  0  0  0 
  4 23  1  0  0  0  0 
  4 24  1  0  0  0  0 
  5 11  1  0  0  0  0 
  6  8  1  0  0  0  0 
  7  9  2  0  0  0  0 
  8  2  1  6  0  0  0 
  8  4  1  0  0  0  0 
  8  5  1  0  0  0  0 
  9  5  2  0  0  0  0 
 10  6  2  0  0  0  0 
 10  7  1  0  0  0  0 
 11 25  1  0  0  0  0 
 12 26  1  0  0  0  0 
 12  6  1  0  0  0  0 
 13  7  2  0  0  0  0 
 14  4  1  0  0  0  0 
 15  1  1  0  0  0  0 
 17  1  1  0  0  0  0 
 19  2  1  0  0  0  0 
 20  2  1  0  0  0  0 
 22  3  1  0  0  0  0 
M  END 
>  <HBA> 
6 
 
>  <HBD> 
2 
 
>  <TPSA> 
100.57 
 
>  <cid> 
52184 
 
>  <dipole> 
8.93 
 
>  <excitation_energy_1> 
3.972 
 
>  <excitation_energy_2> 
4.159 
 
>  <excitation_energy_3> 
4.789 
 
>  <excitation_energy_4> 
5.195 
 
>  <homo_energy> 
-6.928 
 
>  <homo_lumo_gap> 
5.331 
 
>  <logP> 
0.769 
 
>  <lumo_energy> 
-1.597 
 
>  <melting_point> 
151.21 
 
>  <molecular_refractivity> 
60.21 
 
>  <oscillator_strength_1> 
0.0006 
 
>  <oscillator_strength_2> 
0.0001 
 
>  <oscillator_strength_3> 
0.0412 
 
>  <oscillator_strength_4> 
0.0019 
 
>  <open_babel_can_smiles> 
CCSC[C@@]1(C)C(=N[C](=[N]=C1O)=O)O 
 
>  <mulliken_charges> 
26 
1   -0.457152 
2   -0.468858 
3   -0.416545 
4   -0.440421 
5   0.542197 
6   0.54269 
7   0.613506 
8   -0.140451 
9   -0.459495 
10   -0.462829 
11   -0.573047 
12   -0.590045 
13   -0.429687 
14   0.072649 
15   0.172915 
16   0.171225 
17   0.169755 
18   0.145384 
19   0.196724 
20   0.181822 
21   0.185397 
22   0.206968 
23   0.210432 
24   0.181582 
25   0.414813 
26   0.430472 
 
>  <lowdin_charges> 
26 
1   -0.443785 
2   -0.444089 
3   -0.368344 
4   -0.377039 
5   0.144372 
6   0.142544 
7   0.169272 
8   -0.061068 
9   -0.179699 
10   -0.185622 
11   -0.331257 
12   -0.339014 
13   -0.208488 
14   0.098157 
15   0.167023 
16   0.163222 
17   0.162134 
18   0.150677 
19   0.178043 
20   0.170988 
21   0.164208 
22   0.172113 
23   0.181157 
24   0.16848 
25   0.356865 
26   0.349151 
 
$$$$ 
 
