PCCDB-ID:  36098 
public computational chemistry database (PCCDB) project, http://pccdb.org 
 
 20 20  0  0  0  0  0  0  0  0999 V2000 
    2.2799   -0.7098   -1.2657 C   0  0  0  0  0  0  0  0  0  0  0  0 
    0.8597    2.8845    0.5937 C   0  0  0  0  0  0  0  0  0  0  0  0 
    5.9524    3.2530   -1.1305 C   0  0  0  0  0  0  0  0  0  0  0  0 
    2.3759    0.0560    0.0644 C   0  0  0  0  0  0  0  0  0  0  0  0 
    2.2596    2.6315    0.1185 C   0  0  0  0  0  0  0  0  0  0  0  0 
    4.5948    2.8116   -0.6740 C   0  0  0  0  0  0  0  0  0  0  0  0 
    2.9197    1.4511   -0.1064 C   0  0  0  0  0  0  0  0  0  0  0  0 
    4.2287    1.5728   -0.5512 N   0  0  0  0  0  0  0  0  0  0  0  0 
    3.3357    3.9684   -0.2431 S   0  0  0  0  0  0  0  0  0  0  0  0 
    1.9533   -1.7426   -1.0981 H   0  0  0  0  0  0  0  0  0  0  0  0 
    3.2550   -0.7326   -1.7619 H   0  0  0  0  0  0  0  0  0  0  0  0 
    1.5651   -0.2319   -1.9451 H   0  0  0  0  0  0  0  0  0  0  0  0 
    0.3375    1.9399    0.7688 H   0  0  0  0  0  0  0  0  0  0  0  0 
    0.2775    3.4538   -0.1414 H   0  0  0  0  0  0  0  0  0  0  0  0 
    0.8447    3.4512    1.5328 H   0  0  0  0  0  0  0  0  0  0  0  0 
    6.5532    2.3643   -1.3385 H   0  0  0  0  0  0  0  0  0  0  0  0 
    6.4615    3.8510   -0.3656 H   0  0  0  0  0  0  0  0  0  0  0  0 
    5.8948    3.8601   -2.0416 H   0  0  0  0  0  0  0  0  0  0  0  0 
    3.0411   -0.4918    0.7449 H   0  0  0  0  0  0  0  0  0  0  0  0 
    1.3933    0.0893    0.5470 H   0  0  0  0  0  0  0  0  0  0  0  0 
  1 10  1  0  0  0  0 
  1  4  1  0  0  0  0 
  2 13  1  0  0  0  0 
  2 15  1  0  0  0  0 
  3  6  1  0  0  0  0 
  3 17  1  0  0  0  0 
  4 20  1  0  0  0  0 
  4 19  1  0  0  0  0 
  5  2  1  0  0  0  0 
  6  8  2  0  0  0  0 
  6  9  1  0  0  0  0 
  7  4  1  0  0  0  0 
  7  5  2  0  0  0  0 
  8  7  1  0  0  0  0 
  9  5  1  0  0  0  0 
 11  1  1  0  0  0  0 
 12  1  1  0  0  0  0 
 14  2  1  0  0  0  0 
 16  3  1  0  0  0  0 
 18  3  1  0  0  0  0 
M  END 
>  <HBA> 
2 
 
>  <HBD> 
0 
 
>  <TPSA> 
41.13 
 
>  <cid> 
36098 
 
>  <dipole> 
0.93 
 
>  <excitation_energy_1> 
5.101 
 
>  <excitation_energy_2> 
5.143 
 
>  <excitation_energy_3> 
5.354 
 
>  <excitation_energy_4> 
5.527 
 
>  <homo_energy> 
-6.022 
 
>  <homo_lumo_gap> 
5.657 
 
>  <logP> 
2.322 
 
>  <lumo_energy> 
-0.365 
 
>  <melting_point> 
30.9 
 
>  <molecular_refractivity> 
41.82 
 
>  <oscillator_strength_1> 
0.1346 
 
>  <oscillator_strength_2> 
0.001 
 
>  <oscillator_strength_3> 
0.0003 
 
>  <oscillator_strength_4> 
0.0026 
 
>  <open_babel_can_smiles> 
CCc1nc(sc1C)C 
 
>  <mulliken_charges> 
20 
1   -0.440514 
2   -0.51088 
3   -0.509404 
4   -0.317814 
5   -0.154317 
6   0.112555 
7   0.287226 
8   -0.439597 
9   0.187211 
10   0.139926 
11   0.168375 
12   0.142983 
13   0.169835 
14   0.170303 
15   0.170272 
16   0.187166 
17   0.172741 
18   0.172468 
19   0.155805 
20   0.135659 
 
>  <lowdin_charges> 
20 
1   -0.441455 
2   -0.437626 
3   -0.443784 
4   -0.270276 
5   -0.176603 
6   -0.079118 
7   0.000389 
8   -0.173558 
9   0.249292 
10   0.14712 
11   0.159654 
12   0.149043 
13   0.16571 
14   0.165774 
15   0.164276 
16   0.178686 
17   0.169553 
18   0.168394 
19   0.158717 
20   0.145812 
 
$$$$ 
 
