PCCDB-ID:  26056 
public computational chemistry database (PCCDB) project, http://pccdb.org 
 
 32 31  0  0  0  0  0  0  0  0999 V2000 
    2.4931    1.2132   -2.6411 C   0  0  0  0  0  0  0  0  0  0  0  0 
    0.9004    0.1821    0.6685 C   0  0  0  0  0  0  0  0  0  0  0  0 
    7.3923    1.9402   -1.3079 C   0  0  0  0  0  0  0  0  0  0  0  0 
    7.2327    4.3351   -0.5264 C   0  0  0  0  0  0  0  0  0  0  0  0 
    2.2661    2.0850   -1.3989 C   0  0  0  0  0  0  0  0  0  0  0  0 
    2.4077    0.2295    0.3913 C   0  0  0  0  0  0  0  0  0  0  0  0 
    5.1533    2.8945   -0.5125 C   0  0  0  0  0  0  0  0  0  0  0  0 
    4.4843    1.5503   -0.1882 C   0  0  0  0  0  0  0  0  0  0  0  0 
    6.6869    2.9104   -0.3478 C   0  0  0  0  0  0  0  0  0  0  0  0 
    2.9427    1.5936   -0.0969 C   0  0  0  0  0  0  0  0  0  0  0  0 
    1.9711    1.6356   -3.5074 H   0  0  0  0  0  0  0  0  0  0  0  0 
    2.1187    0.1928   -2.4997 H   0  0  0  0  0  0  0  0  0  0  0  0 
    3.5551    1.1415   -2.9024 H   0  0  0  0  0  0  0  0  0  0  0  0 
    0.6156   -0.7793    1.1113 H   0  0  0  0  0  0  0  0  0  0  0  0 
    0.3084    0.3088   -0.2448 H   0  0  0  0  0  0  0  0  0  0  0  0 
    0.6009    0.9713    1.3698 H   0  0  0  0  0  0  0  0  0  0  0  0 
    8.4800    1.9779   -1.1743 H   0  0  0  0  0  0  0  0  0  0  0  0 
    7.1778    2.2014   -2.3530 H   0  0  0  0  0  0  0  0  0  0  0  0 
    7.0766    0.9031   -1.1520 H   0  0  0  0  0  0  0  0  0  0  0  0 
    8.3184    4.3682   -0.3756 H   0  0  0  0  0  0  0  0  0  0  0  0 
    6.7734    5.0319    0.1851 H   0  0  0  0  0  0  0  0  0  0  0  0 
    7.0271    4.7092   -1.5381 H   0  0  0  0  0  0  0  0  0  0  0  0 
    1.1871    2.1775   -1.2214 H   0  0  0  0  0  0  0  0  0  0  0  0 
    2.6122    3.1042   -1.6124 H   0  0  0  0  0  0  0  0  0  0  0  0 
    2.6699   -0.5525   -0.3351 H   0  0  0  0  0  0  0  0  0  0  0  0 
    2.9433   -0.0330    1.3142 H   0  0  0  0  0  0  0  0  0  0  0  0 
    4.7261    3.6671    0.1442 H   0  0  0  0  0  0  0  0  0  0  0  0 
    4.9105    3.2018   -1.5402 H   0  0  0  0  0  0  0  0  0  0  0  0 
    4.8702    1.1924    0.7780 H   0  0  0  0  0  0  0  0  0  0  0  0 
    4.7825    0.7939   -0.9263 H   0  0  0  0  0  0  0  0  0  0  0  0 
    6.9134    2.5904    0.6815 H   0  0  0  0  0  0  0  0  0  0  0  0 
    2.6876    2.3326    0.6806 H   0  0  0  0  0  0  0  0  0  0  0  0 
  1 12  1  0  0  0  0 
  1  5  1  0  0  0  0 
  2 14  1  0  0  0  0 
  2 16  1  0  0  0  0 
  3 17  1  0  0  0  0 
  3 19  1  0  0  0  0 
  3  9  1  0  0  0  0 
  4 20  1  0  0  0  0 
  4  9  1  0  0  0  0 
  4 21  1  0  0  0  0 
  5 23  1  0  0  0  0 
  5 10  1  0  0  0  0 
  6  2  1  0  0  0  0 
  6 26  1  0  0  0  0 
  7  9  1  0  0  0  0 
  7  8  1  0  0  0  0 
  7 27  1  0  0  0  0 
  8 10  1  0  0  0  0 
  8 29  1  0  0  0  0 
  9 31  1  0  0  0  0 
 10  6  1  0  0  0  0 
 10 32  1  0  0  0  0 
 11  1  1  0  0  0  0 
 13  1  1  0  0  0  0 
 15  2  1  0  0  0  0 
 18  3  1  0  0  0  0 
 22  4  1  0  0  0  0 
 24  5  1  0  0  0  0 
 25  6  1  0  0  0  0 
 28  7  1  0  0  0  0 
 30  8  1  0  0  0  0 
M  END 
>  <HBA> 
0 
 
>  <HBD> 
0 
 
>  <TPSA> 
0.0 
 
>  <cid> 
26056 
 
>  <dipole> 
0.08 
 
>  <excitation_energy_1> 
7.434 
 
>  <excitation_energy_2> 
7.609 
 
>  <excitation_energy_3> 
7.762 
 
>  <excitation_energy_4> 
7.795 
 
>  <homo_energy> 
-7.919 
 
>  <homo_lumo_gap> 
10.0 
 
>  <logP> 
3.859 
 
>  <lumo_energy> 
2.082 
 
>  <melting_point> 
-29.22 
 
>  <molecular_refractivity> 
50.18 
 
>  <oscillator_strength_1> 
0.0079 
 
>  <oscillator_strength_2> 
0.0036 
 
>  <oscillator_strength_3> 
0.0066 
 
>  <oscillator_strength_4> 
0.0119 
 
>  <open_babel_can_smiles> 
CCC(CCC(C)C)CC 
 
>  <mulliken_charges> 
32 
1   -0.452345 
2   -0.449668 
3   -0.444721 
4   -0.441877 
5   -0.263519 
6   -0.253069 
7   -0.253546 
8   -0.265762 
9   -0.06621 
10   -0.066616 
11   0.141321 
12   0.145444 
13   0.1459 
14   0.140918 
15   0.14637 
16   0.140345 
17   0.138833 
18   0.136335 
19   0.145186 
20   0.138247 
21   0.138456 
22   0.137399 
23   0.1327 
24   0.134275 
25   0.130096 
26   0.127475 
27   0.123517 
28   0.128458 
29   0.123297 
30   0.132955 
31   0.118633 
32   0.111173 
 
>  <lowdin_charges> 
32 
1   -0.448384 
2   -0.448723 
3   -0.442542 
4   -0.443188 
5   -0.277261 
6   -0.277254 
7   -0.278131 
8   -0.280935 
9   -0.118498 
10   -0.127643 
11   0.150856 
12   0.146181 
13   0.145768 
14   0.149601 
15   0.147492 
16   0.146689 
17   0.145782 
18   0.142984 
19   0.147672 
20   0.145058 
21   0.147778 
22   0.144026 
23   0.14034 
24   0.141528 
25   0.139312 
26   0.140538 
27   0.139253 
28   0.13696 
29   0.138532 
30   0.140402 
31   0.132317 
32   0.133491 
 
$$$$ 
 
