PCCDB-ID:  58473 
public computational chemistry database (PCCDB) project, http://pccdb.org 
 
 32 31  0  0  0  0  0  0  0  0999 V2000 
   10.8440   -0.0999    2.0269 C   0  0  0  0  0  0  0  0  0  0  0  0 
    9.4370    6.0128   -6.9483 C   0  0  0  0  0  0  0  0  0  0  0  0 
   10.5362    1.3756    2.2981 C   0  0  0  0  0  0  0  0  0  0  0  0 
    9.9498    6.6940   -5.6885 C   0  0  0  0  0  0  0  0  0  0  0  0 
    9.6794    3.3766   -3.1703 C   0  0  0  0  0  0  0  0  0  0  0  0 
    9.0558    1.7246    2.1927 C   0  0  0  0  0  0  0  0  0  0  0  0 
    8.2492    3.3059   -2.6288 C   0  0  0  0  0  0  0  0  0  0  0  0 
   10.9272    4.9756   -4.3704 C   0  0  0  0  0  0  0  0  0  0  0  0 
    8.6696    2.4030   -0.0556 C   0  0  0  0  0  0  0  0  0  0  0  0 
    9.7795    4.5189   -4.0628 N   0  0  0  0  0  0  0  0  0  0  0  0 
   12.1485    4.5261   -3.9880 O   0  0  0  0  0  0  0  0  0  0  0  0 
    9.2008    3.4776    0.1142 O   0  0  0  0  0  0  0  0  0  0  0  0 
   11.1226    6.0348   -5.1643 O   0  0  0  0  0  0  0  0  0  0  0  0 
    8.5248    1.4386    0.8685 O   0  0  0  0  0  0  0  0  0  0  0  0 
    7.9272    1.8331   -1.5849 S   0  0  0  0  0  0  0  0  0  0  0  0 
   11.9176   -0.2975    2.1153 H   0  0  0  0  0  0  0  0  0  0  0  0 
   10.5287   -0.3912    1.0197 H   0  0  0  0  0  0  0  0  0  0  0  0 
   10.3244   -0.7513    2.7402 H   0  0  0  0  0  0  0  0  0  0  0  0 
    8.6003    6.5860   -7.3645 H   0  0  0  0  0  0  0  0  0  0  0  0 
    9.0848    5.0031   -6.7216 H   0  0  0  0  0  0  0  0  0  0  0  0 
   10.2247    5.9545   -7.7067 H   0  0  0  0  0  0  0  0  0  0  0  0 
   11.0981    2.0205    1.6124 H   0  0  0  0  0  0  0  0  0  0  0  0 
   10.8593    1.6479    3.3126 H   0  0  0  0  0  0  0  0  0  0  0  0 
    9.1820    6.7210   -4.9113 H   0  0  0  0  0  0  0  0  0  0  0  0 
   10.2925    7.7106   -5.8980 H   0  0  0  0  0  0  0  0  0  0  0  0 
    9.9080    2.4385   -3.7001 H   0  0  0  0  0  0  0  0  0  0  0  0 
   10.3588    3.4435   -2.3036 H   0  0  0  0  0  0  0  0  0  0  0  0 
    8.8786    2.7784    2.4192 H   0  0  0  0  0  0  0  0  0  0  0  0 
    8.4501    1.1008    2.8556 H   0  0  0  0  0  0  0  0  0  0  0  0 
    7.5368    3.2397   -3.4559 H   0  0  0  0  0  0  0  0  0  0  0  0 
    8.0205    4.1990   -2.0439 H   0  0  0  0  0  0  0  0  0  0  0  0 
   12.0251    3.7615   -3.4038 H   0  0  0  0  0  0  0  0  0  0  0  0 
  1 16  1  0  0  0  0 
  1  3  1  0  0  0  0 
  1 18  1  0  0  0  0 
  2 20  1  0  0  0  0 
  2  4  1  0  0  0  0 
  3 23  1  0  0  0  0 
  4 13  1  0  0  0  0 
  4 24  1  0  0  0  0 
  5  7  1  0  0  0  0 
  5 27  1  0  0  0  0 
  6  3  1  0  0  0  0 
  6 28  1  0  0  0  0 
  6 29  1  0  0  0  0 
  7 31  1  0  0  0  0 
  7 15  1  0  0  0  0 
  8 10  2  0  0  0  0 
  8 11  1  0  0  0  0 
  9 12  2  0  0  0  0 
  9 14  1  0  0  0  0 
 10  5  1  0  0  0  0 
 11 32  1  0  0  0  0 
 13  8  1  0  0  0  0 
 14  6  1  0  0  0  0 
 15  9  1  0  0  0  0 
 17  1  1  0  0  0  0 
 19  2  1  0  0  0  0 
 21  2  1  0  0  0  0 
 22  3  1  0  0  0  0 
 25  4  1  0  0  0  0 
 26  5  1  0  0  0  0 
 30  7  1  0  0  0  0 
M  END 
>  <HBA> 
6 
 
>  <HBD> 
1 
 
>  <TPSA> 
89.93 
 
>  <cid> 
58473 
 
>  <dipole> 
1.41 
 
>  <excitation_energy_1> 
5.834 
 
>  <excitation_energy_2> 
5.904 
 
>  <excitation_energy_3> 
6.009 
 
>  <excitation_energy_4> 
6.101 
 
>  <homo_energy> 
-6.713 
 
>  <homo_lumo_gap> 
6.955 
 
>  <logP> 
2.403 
 
>  <lumo_energy> 
0.242 
 
>  <melting_point> 
53.14 
 
>  <molecular_refractivity> 
59.12 
 
>  <oscillator_strength_1> 
0.0167 
 
>  <oscillator_strength_2> 
0.0025 
 
>  <oscillator_strength_3> 
0.0285 
 
>  <oscillator_strength_4> 
0.0331 
 
>  <open_babel_can_smiles> 
CCCOC(=O)SCC/N=C(/OCC)\O 
 
>  <mulliken_charges> 
32 
1   -0.444997 
2   -0.461384 
3   -0.275913 
4   -0.03091 
5   -0.164963 
6   -0.055807 
7   -0.421265 
8   0.693234 
9   0.459849 
10   -0.475038 
11   -0.589479 
12   -0.454152 
13   -0.457614 
14   -0.445308 
15   0.120948 
16   0.149091 
17   0.16287 
18   0.14421 
19   0.146113 
20   0.173184 
21   0.15718 
22   0.162462 
23   0.143942 
24   0.168961 
25   0.152707 
26   0.151363 
27   0.143434 
28   0.173104 
29   0.157861 
30   0.185663 
31   0.205012 
32   0.425643 
 
>  <lowdin_charges> 
32 
1   -0.446405 
2   -0.45716 
3   -0.28473 
4   -0.121769 
5   -0.213276 
6   -0.127353 
7   -0.373233 
8   0.192226 
9   0.081232 
10   -0.286755 
11   -0.357187 
12   -0.271245 
13   -0.177059 
14   -0.183914 
15   0.150592 
16   0.152112 
17   0.156165 
18   0.149703 
19   0.157698 
20   0.163331 
21   0.156616 
22   0.157531 
23   0.151872 
24   0.158903 
25   0.151137 
26   0.142915 
27   0.136714 
28   0.160528 
29   0.157372 
30   0.176322 
31   0.180541 
32   0.36658 
 
$$$$ 
 
