PCCDB-ID:  12197 
public computational chemistry database (PCCDB) project, http://pccdb.org 
 
 18 17  0  0  0  0  0  0  0  0999 V2000 
    1.4294   -0.5467   -0.7981 C   0  0  0  0  0  0  0  0  0  0  0  0 
    7.1362   -1.2236   -3.9493 C   0  0  0  0  0  0  0  0  0  0  0  0 
    2.8879   -0.5581   -1.2216 C   0  0  0  0  0  0  0  0  0  0  0  0 
    5.9909   -0.9618   -2.9871 C   0  0  0  0  0  0  0  0  0  0  0  0 
    5.2910    1.0694   -1.0257 O   0  0  0  0  0  0  0  0  0  0  0  0 
    3.0763    0.5289   -2.1624 O   0  0  0  0  0  0  0  0  0  0  0  0 
    5.3080    0.2393   -3.4303 O   0  0  0  0  0  0  0  0  0  0  0  0 
    4.5786    1.2408   -2.3108 S   0  0  0  0  0  0  0  0  0  0  0  0 
    1.2369   -1.3749   -0.1065 H   0  0  0  0  0  0  0  0  0  0  0  0 
    0.7705   -0.6589   -1.6648 H   0  0  0  0  0  0  0  0  0  0  0  0 
    1.1815    0.3921   -0.2936 H   0  0  0  0  0  0  0  0  0  0  0  0 
    7.6579   -2.1445   -3.6643 H   0  0  0  0  0  0  0  0  0  0  0  0 
    7.8531   -0.3970   -3.9281 H   0  0  0  0  0  0  0  0  0  0  0  0 
    6.7683   -1.3372   -4.9738 H   0  0  0  0  0  0  0  0  0  0  0  0 
    3.1498   -1.4993   -1.7206 H   0  0  0  0  0  0  0  0  0  0  0  0 
    3.5579   -0.4153   -0.3685 H   0  0  0  0  0  0  0  0  0  0  0  0 
    6.3515   -0.8150   -1.9647 H   0  0  0  0  0  0  0  0  0  0  0  0 
    5.2691   -1.7880   -2.9921 H   0  0  0  0  0  0  0  0  0  0  0  0 
  1 11  1  0  0  0  0 
  1  9  1  0  0  0  0 
  2 13  1  0  0  0  0 
  2 12  1  0  0  0  0 
  2  4  1  0  0  0  0 
  3  1  1  0  0  0  0 
  3 16  1  0  0  0  0 
  4 17  1  0  0  0  0 
  6  3  1  0  0  0  0 
  7  4  1  0  0  0  0 
  7  8  1  0  0  0  0 
  8  6  1  0  0  0  0 
  8  5  2  0  0  0  0 
 10  1  1  0  0  0  0 
 14  2  1  0  0  0  0 
 15  3  1  0  0  0  0 
 18  4  1  0  0  0  0 
M  END 
>  <HBA> 
3 
 
>  <HBD> 
0 
 
>  <TPSA> 
54.74 
 
>  <cid> 
12197 
 
>  <dipole> 
2.38 
 
>  <excitation_energy_1> 
6.59 
 
>  <excitation_energy_2> 
6.817 
 
>  <excitation_energy_3> 
6.999 
 
>  <excitation_energy_4> 
7.105 
 
>  <homo_energy> 
-7.516 
 
>  <homo_lumo_gap> 
7.978 
 
>  <logP> 
1.504 
 
>  <lumo_energy> 
0.463 
 
>  <melting_point> 
-19.14 
 
>  <molecular_refractivity> 
31.79 
 
>  <oscillator_strength_1> 
0.0512 
 
>  <oscillator_strength_2> 
0.0034 
 
>  <oscillator_strength_3> 
0.0175 
 
>  <oscillator_strength_4> 
0.0369 
 
>  <open_babel_can_smiles> 
CCOS(=O)OCC 
 
>  <mulliken_charges> 
18 
1   -0.4498 
2   -0.448869 
3   -0.062776 
4   -0.063719 
5   -0.589973 
6   -0.54675 
7   -0.547791 
8   1.099506 
9   0.150846 
10   0.164875 
11   0.166457 
12   0.150473 
13   0.166323 
14   0.164572 
15   0.146074 
16   0.176868 
17   0.176957 
18   0.146727 
 
>  <lowdin_charges> 
18 
1   -0.446596 
2   -0.445571 
3   -0.138012 
4   -0.136839 
5   -0.605143 
6   -0.432395 
7   -0.432426 
8   1.075472 
9   0.158974 
10   0.160652 
11   0.161708 
12   0.158487 
13   0.162042 
14   0.159075 
15   0.141206 
16   0.159273 
17   0.157867 
18   0.142225 
 
$$$$ 
 
