PCCDB-ID:  24066 
public computational chemistry database (PCCDB) project, http://pccdb.org 
 
 28 29  0  0  1  0  0  0  0  0999 V2000 
   -0.7636   -1.1559    0.2392 C   0  0  0  0  0  0  0  0  0  0  0  0 
    0.7720   -1.2273    0.1665 C   0  0  0  0  0  0  0  0  0  0  0  0 
    3.9367    1.2604    2.9208 C   0  0  0  0  0  0  0  0  0  0  0  0 
    3.2284    1.0422    1.7995 C   0  0  0  0  0  0  0  0  0  0  0  0 
   -2.2756    0.8471    0.8724 C   0  0  0  0  0  0  0  0  0  0  0  0 
   -1.0501    0.3454    0.1220 C   0  0  1  0  0  0  0  0  0  0  0  0 
    3.4819    0.7165    4.2083 C   0  0  0  0  0  0  0  0  0  0  0  0 
    1.2486    0.1907    0.5830 C   0  0  2  0  0  0  0  0  0  0  0  0 
    1.6550   -0.1658    3.0486 C   0  0  0  0  0  0  0  0  0  0  0  0 
    4.0683    0.8384    5.3461 N   0  0  0  0  0  0  0  0  0  0  0  0 
    2.2733   -0.0033    4.1591 N   0  0  0  0  0  0  0  0  0  0  0  0 
    2.0572    0.2834    1.8029 N   0  0  0  0  0  0  0  0  0  0  0  0 
   -2.4241    2.2514    0.7638 O   0  0  0  0  0  0  0  0  0  0  0  0 
    0.4948   -0.8572    3.0316 O   0  0  0  0  0  0  0  0  0  0  0  0 
    0.0937    0.9990    0.7118 O   0  0  0  0  0  0  0  0  0  0  0  0 
   -1.1149   -1.5310    1.2037 H   0  0  0  0  0  0  0  0  0  0  0  0 
   -1.2499   -1.7289   -0.5554 H   0  0  0  0  0  0  0  0  0  0  0  0 
    1.1079   -1.4214   -0.8573 H   0  0  0  0  0  0  0  0  0  0  0  0 
    1.1920   -2.0028    0.8085 H   0  0  0  0  0  0  0  0  0  0  0  0 
    4.8499    1.8446    2.8757 H   0  0  0  0  0  0  0  0  0  0  0  0 
    3.5198    1.4286    0.8294 H   0  0  0  0  0  0  0  0  0  0  0  0 
   -2.1967    0.5257    1.9234 H   0  0  0  0  0  0  0  0  0  0  0  0 
   -3.1802    0.4018    0.4446 H   0  0  0  0  0  0  0  0  0  0  0  0 
   -1.1224    0.6556   -0.9318 H   0  0  0  0  0  0  0  0  0  0  0  0 
    1.8998    0.6068   -0.1956 H   0  0  0  0  0  0  0  0  0  0  0  0 
    4.9269    1.3837    5.2246 H   0  0  0  0  0  0  0  0  0  0  0  0 
   -1.5929    2.6355    1.0877 H   0  0  0  0  0  0  0  0  0  0  0  0 
    0.3535   -1.1064    3.9645 H   0  0  0  0  0  0  0  0  0  0  0  0 
  1 16  1  0  0  0  0 
  2  1  1  0  0  0  0 
  2  8  1  0  0  0  0 
  2 19  1  0  0  0  0 
  3  7  1  0  0  0  0 
  4 12  1  0  0  0  0 
  4  3  2  0  0  0  0 
  5 22  1  0  0  0  0 
  6 24  1  6  0  0  0 
  6  1  1  0  0  0  0 
  6 15  1  0  0  0  0 
  6  5  1  0  0  0  0 
  7 10  1  0  0  0  0 
  8 25  1  6  0  0  0 
  8 15  1  0  0  0  0 
  8 12  1  0  0  0  0 
  9 11  2  0  0  0  0 
 11  7  2  0  0  0  0 
 12  9  1  0  0  0  0 
 13  5  1  0  0  0  0 
 13 27  1  0  0  0  0 
 14  9  1  0  0  0  0 
 14 28  1  0  0  0  0 
 17  1  1  0  0  0  0 
 18  2  1  0  0  0  0 
 20  3  1  0  0  0  0 
 21  4  1  0  0  0  0 
 23  5  1  0  0  0  0 
 26 10  1  0  0  0  0 
M  RAD  1  10   2 
M  END 
>  <HBA> 
6 
 
>  <HBD> 
2 
 
>  <TPSA> 
90.37 
 
>  <cid> 
24066 
 
>  <dipole> 
5.48 
 
>  <excitation_energy_1> 
4.515 
 
>  <excitation_energy_2> 
4.966 
 
>  <excitation_energy_3> 
5.051 
 
>  <excitation_energy_4> 
5.313 
 
>  <homo_energy> 
-5.769 
 
>  <homo_lumo_gap> 
5.312 
 
>  <logP> 
0.077 
 
>  <lumo_energy> 
-0.457 
 
>  <melting_point> 
136.18 
 
>  <molecular_refractivity> 
53.52 
 
>  <oscillator_strength_1> 
0.0251 
 
>  <oscillator_strength_2> 
0.0036 
 
>  <oscillator_strength_3> 
0.0006 
 
>  <oscillator_strength_4> 
0.0001 
 
>  <open_babel_can_smiles> 
[NH]C1=[N]=C(N(C=C1)[C@H]1CC[C@H](O1)CO)O 
 
>  <mulliken_charges> 
28 
1   -0.297 
2   -0.3283 
3   -0.201604 
4   0.070502 
5   -0.035436 
6   0.131957 
7   0.414015 
8   0.290694 
9   0.732065 
10   -0.620106 
11   -0.524812 
12   -0.492412 
13   -0.619669 
14   -0.614934 
15   -0.513284 
16   0.167508 
17   0.150574 
18   0.154431 
19   0.176618 
20   0.141526 
21   0.167782 
22   0.131766 
23   0.145261 
24   0.133944 
25   0.13855 
26   0.267326 
27   0.403436 
28   0.429603 
 
>  <lowdin_charges> 
28 
1   -0.293083 
2   -0.299431 
3   -0.225886 
4   -0.084555 
5   -0.140508 
6   -0.011079 
7   0.078685 
8   0.065158 
9   0.179164 
10   -0.406352 
11   -0.21725 
12   -0.061917 
13   -0.463333 
14   -0.351925 
15   -0.279886 
16   0.159697 
17   0.157542 
18   0.155001 
19   0.169976 
20   0.170428 
21   0.170907 
22   0.13351 
23   0.151857 
24   0.133784 
25   0.145228 
26   0.243083 
27   0.347859 
28   0.373327 
 
$$$$ 
 
