PCCDB-ID:  69126 
public computational chemistry database (PCCDB) project, http://pccdb.org 
 
 19 19  0  0  0  0  0  0  0  0999 V2000 
   -1.4074   -0.0754   -0.0006 C   0  0  0  0  0  0  0  0  0  0  0  0 
   -0.7802    1.1539    0.0616 C   0  0  0  0  0  0  0  0  0  0  0  0 
    0.7214   -1.1677   -0.0331 C   0  0  0  0  0  0  0  0  0  0  0  0 
   -0.6650   -1.2737   -0.0285 C   0  0  0  0  0  0  0  0  0  0  0  0 
    1.3890    0.0780   -0.0040 C   0  0  0  0  0  0  0  0  0  0  0  0 
    0.6279    1.2755    0.0907 C   0  0  0  0  0  0  0  0  0  0  0  0 
    2.8659    0.1556   -0.1094 C   0  0  0  0  0  0  0  0  0  0  0  0 
   -1.3153   -2.5210    0.0260 N   0  0  0  0  0  0  0  0  0  0  0  0 
    1.2019    2.5153    0.2367 N   0  0  0  0  0  0  0  0  0  0  0  0 
    3.5289    1.1484    0.1404 O   0  0  0  0  0  0  0  0  0  0  0  0 
    3.5242   -0.9585   -0.5370 O   0  0  0  0  0  0  0  0  0  0  0  0 
   -2.4945   -0.1206   -0.0035 H   0  0  0  0  0  0  0  0  0  0  0  0 
   -1.3806    2.0593    0.1104 H   0  0  0  0  0  0  0  0  0  0  0  0 
    1.3005   -2.0894   -0.0025 H   0  0  0  0  0  0  0  0  0  0  0  0 
   -2.2470   -2.5119   -0.3733 H   0  0  0  0  0  0  0  0  0  0  0  0 
   -0.7767   -3.2837   -0.3686 H   0  0  0  0  0  0  0  0  0  0  0  0 
    0.6691    3.3187   -0.0620 H   0  0  0  0  0  0  0  0  0  0  0  0 
    2.2113    2.5579    0.1539 H   0  0  0  0  0  0  0  0  0  0  0  0 
    2.8874   -1.6033   -0.8829 H   0  0  0  0  0  0  0  0  0  0  0  0 
  1  2  2  0  0  0  0 
  2  6  1  0  0  0  0 
  2 13  1  0  0  0  0 
  3  4  2  0  0  0  0 
  3  5  1  0  0  0  0 
  3 14  1  0  0  0  0 
  4  1  1  0  0  0  0 
  4  8  1  0  0  0  0 
  5  6  2  0  0  0  0 
  6  9  1  0  0  0  0 
  7  5  1  0  0  0  0 
  7 10  2  0  0  0  0 
 11  7  1  0  0  0  0 
 12  1  1  0  0  0  0 
 15  8  1  0  0  0  0 
 16  8  1  0  0  0  0 
 17  9  1  0  0  0  0 
 18  9  1  0  0  0  0 
 19 11  1  0  0  0  0 
M  END 
>  <HBA> 
4 
 
>  <HBD> 
3 
 
>  <TPSA> 
89.34 
 
>  <cid> 
69126 
 
>  <dipole> 
5.26 
 
>  <excitation_energy_1> 
3.358 
 
>  <excitation_energy_2> 
4.172 
 
>  <excitation_energy_3> 
4.702 
 
>  <excitation_energy_4> 
4.766 
 
>  <homo_energy> 
-5.034 
 
>  <homo_lumo_gap> 
3.897 
 
>  <logP> 
1.712 
 
>  <lumo_energy> 
-1.137 
 
>  <melting_point> 
194.96 
 
>  <molecular_refractivity> 
42.21 
 
>  <oscillator_strength_1> 
0.0878 
 
>  <oscillator_strength_2> 
0.0102 
 
>  <oscillator_strength_3> 
0.0202 
 
>  <oscillator_strength_4> 
0.0209 
 
>  <open_babel_can_smiles> 
Nc1ccc(c(c1)C(=O)O)N 
 
>  <mulliken_charges> 
19 
1   -0.165794 
2   -0.177568 
3   -0.284315 
4   0.301961 
5   0.037296 
6   0.299008 
7   0.559525 
8   -0.78758 
9   -0.819323 
10   -0.491065 
11   -0.577832 
12   0.127443 
13   0.1269 
14   0.117881 
15   0.317213 
16   0.314456 
17   0.320436 
18   0.372944 
19   0.408413 
 
>  <lowdin_charges> 
19 
1   -0.160777 
2   -0.183815 
3   -0.203994 
4   0.033546 
5   -0.098053 
6   0.073417 
7   0.202534 
8   -0.497242 
9   -0.474512 
10   -0.275318 
11   -0.361922 
12   0.156204 
13   0.158478 
14   0.150281 
15   0.273003 
16   0.272919 
17   0.279493 
18   0.3002 
19   0.355557 
 
$$$$ 
 
