PCCDB-ID:  12230 
public computational chemistry database (PCCDB) project, http://pccdb.org 
 
 12 11  0  0  0  0  0  0  0  0999 V2000 
    1.0263    0.0027   -0.1031 C   0  0  0  0  0  0  0  0  0  0  0  0 
    4.8367   -1.5467    0.7240 C   0  0  0  0  0  0  0  0  0  0  0  0 
    2.5476   -0.1219   -0.0318 C   0  0  0  0  0  0  0  0  0  0  0  0 
    3.0181   -1.6962    0.7920 S   0  0  0  0  0  0  0  0  0  0  0  0 
    0.7473    0.9414   -0.5949 H   0  0  0  0  0  0  0  0  0  0  0  0 
    0.5807   -0.0013    0.8973 H   0  0  0  0  0  0  0  0  0  0  0  0 
    0.5874   -0.8224   -0.6742 H   0  0  0  0  0  0  0  0  0  0  0  0 
    5.2508   -2.4434    1.1925 H   0  0  0  0  0  0  0  0  0  0  0  0 
    5.1854   -0.6690    1.2774 H   0  0  0  0  0  0  0  0  0  0  0  0 
    5.1936   -1.4946   -0.3096 H   0  0  0  0  0  0  0  0  0  0  0  0 
    2.9755    0.7143    0.5333 H   0  0  0  0  0  0  0  0  0  0  0  0 
    2.9823   -0.1062   -1.0381 H   0  0  0  0  0  0  0  0  0  0  0  0 
  1  3  1  0  0  0  0 
  1  6  1  0  0  0  0 
  2  4  1  0  0  0  0 
  2  8  1  0  0  0  0 
  2  9  1  0  0  0  0 
  3 11  1  0  0  0  0 
  3  4  1  0  0  0  0 
  5  1  1  0  0  0  0 
  7  1  1  0  0  0  0 
 10  2  1  0  0  0  0 
 12  3  1  0  0  0  0 
M  END 
>  <HBA> 
1 
 
>  <HBD> 
0 
 
>  <TPSA> 
25.3 
 
>  <cid> 
12230 
 
>  <dipole> 
1.71 
 
>  <excitation_energy_1> 
5.02 
 
>  <excitation_energy_2> 
5.331 
 
>  <excitation_energy_3> 
5.973 
 
>  <excitation_energy_4> 
6.303 
 
>  <homo_energy> 
-5.85 
 
>  <homo_lumo_gap> 
6.958 
 
>  <logP> 
1.369 
 
>  <lumo_energy> 
1.108 
 
>  <melting_point> 
-15.6 
 
>  <molecular_refractivity> 
24.13 
 
>  <oscillator_strength_1> 
0.0 
 
>  <oscillator_strength_2> 
0.0018 
 
>  <oscillator_strength_3> 
0.0292 
 
>  <oscillator_strength_4> 
0.0326 
 
>  <open_babel_can_smiles> 
CSCC 
 
>  <mulliken_charges> 
12 
1   -0.453511 
2   -0.583084 
3   -0.38765 
4   0.083397 
5   0.152377 
6   0.164395 
7   0.164366 
8   0.18266 
9   0.174144 
10   0.17413 
11   0.164366 
12   0.164409 
 
>  <lowdin_charges> 
12 
1   -0.445193 
2   -0.547232 
3   -0.368764 
4   0.0873 
5   0.156073 
6   0.158268 
7   0.159739 
8   0.176185 
9   0.160472 
10   0.158933 
11   0.152927 
12   0.151292 
 
$$$$ 
 
