PCCDB-ID:  7793 
public computational chemistry database (PCCDB) project, http://pccdb.org 
 
 31 30  0  0  1  0  0  0  0  0999 V2000 
    7.5628   -1.6714    5.8995 C   0  0  0  0  0  0  0  0  0  0  0  0 
    9.1398   -3.1693    4.5910 C   0  0  0  0  0  0  0  0  0  0  0  0 
    5.6603   -2.0260    1.6275 C   0  0  0  0  0  0  0  0  0  0  0  0 
    8.8109   -1.1274    2.2081 C   0  0  0  0  0  0  0  0  0  0  0  0 
    8.1526   -1.0779    3.5628 C   0  0  0  0  0  0  0  0  0  0  0  0 
    7.8732   -0.8643    1.0064 C   0  0  0  0  0  0  0  0  0  0  0  0 
    7.5060   -3.3217    0.4094 C   0  0  0  0  0  0  0  0  0  0  0  0 
    6.6400   -4.3323   -0.3345 C   0  0  0  0  0  0  0  0  0  0  0  0 
    8.2853   -1.9245    4.5967 C   0  0  0  0  0  0  0  0  0  0  0  0 
    6.8351   -1.9524    0.6368 C   0  0  1  0  0  0  0  0  0  0  0  0 
    7.4236   -5.5074   -0.5317 O   0  0  0  0  0  0  0  0  0  0  0  0 
    6.8939   -2.5069    6.1514 H   0  0  0  0  0  0  0  0  0  0  0  0 
    8.2713   -1.5799    6.7352 H   0  0  0  0  0  0  0  0  0  0  0  0 
    6.9628   -0.7565    5.8638 H   0  0  0  0  0  0  0  0  0  0  0  0 
    9.9387   -3.0944    5.3423 H   0  0  0  0  0  0  0  0  0  0  0  0 
    9.6106   -3.3680    3.6255 H   0  0  0  0  0  0  0  0  0  0  0  0 
    8.5426   -4.0510    4.8620 H   0  0  0  0  0  0  0  0  0  0  0  0 
    4.8739   -2.7000    1.2683 H   0  0  0  0  0  0  0  0  0  0  0  0 
    5.2045   -1.0377    1.7634 H   0  0  0  0  0  0  0  0  0  0  0  0 
    5.9862   -2.3786    2.6108 H   0  0  0  0  0  0  0  0  0  0  0  0 
    9.3462   -2.0707    2.0594 H   0  0  0  0  0  0  0  0  0  0  0  0 
    9.5836   -0.3424    2.1773 H   0  0  0  0  0  0  0  0  0  0  0  0 
    7.5045   -0.2112    3.7121 H   0  0  0  0  0  0  0  0  0  0  0  0 
    8.5126   -0.7041    0.1271 H   0  0  0  0  0  0  0  0  0  0  0  0 
    7.3428    0.0848    1.1718 H   0  0  0  0  0  0  0  0  0  0  0  0 
    8.4260   -3.1890   -0.1761 H   0  0  0  0  0  0  0  0  0  0  0  0 
    7.8055   -3.7666    1.3669 H   0  0  0  0  0  0  0  0  0  0  0  0 
    6.3171   -3.9057   -1.2997 H   0  0  0  0  0  0  0  0  0  0  0  0 
    5.7304   -4.5634    0.2418 H   0  0  0  0  0  0  0  0  0  0  0  0 
    6.4168   -1.6331   -0.3315 H   0  0  0  0  0  0  0  0  0  0  0  0 
    6.8676   -6.1628   -0.9793 H   0  0  0  0  0  0  0  0  0  0  0  0 
  1 12  1  0  0  0  0 
  1 13  1  0  0  0  0 
  2  9  1  0  0  0  0 
  2 17  1  0  0  0  0 
  2 15  1  0  0  0  0 
  3 19  1  0  0  0  0 
  3 20  1  0  0  0  0 
  4  5  1  0  0  0  0 
  5 23  1  0  0  0  0 
  5  9  2  0  0  0  0 
  6 25  1  0  0  0  0 
  6  4  1  0  0  0  0 
  7 10  1  0  0  0  0 
  7 27  1  0  0  0  0 
  8 29  1  0  0  0  0 
  8  7  1  0  0  0  0 
  9  1  1  0  0  0  0 
 10 30  1  6  0  0  0 
 10  6  1  0  0  0  0 
 10  3  1  0  0  0  0 
 11  8  1  0  0  0  0 
 14  1  1  0  0  0  0 
 16  2  1  0  0  0  0 
 18  3  1  0  0  0  0 
 21  4  1  0  0  0  0 
 22  4  1  0  0  0  0 
 24  6  1  0  0  0  0 
 26  7  1  0  0  0  0 
 28  8  1  0  0  0  0 
 31 11  1  0  0  0  0 
M  END 
>  <HBA> 
1 
 
>  <HBD> 
1 
 
>  <TPSA> 
20.23 
 
>  <cid> 
7793 
 
>  <dipole> 
1.21 
 
>  <excitation_energy_1> 
5.605 
 
>  <excitation_energy_2> 
5.84 
 
>  <excitation_energy_3> 
5.961 
 
>  <excitation_energy_4> 
6.071 
 
>  <homo_energy> 
-6.076 
 
>  <homo_lumo_gap> 
6.999 
 
>  <logP> 
2.751 
 
>  <lumo_energy> 
0.922 
 
>  <melting_point> 
2.61 
 
>  <molecular_refractivity> 
50.87 
 
>  <oscillator_strength_1> 
0.0053 
 
>  <oscillator_strength_2> 
0.0018 
 
>  <oscillator_strength_3> 
0.0216 
 
>  <oscillator_strength_4> 
0.0044 
 
>  <open_babel_can_smiles> 
OCC[C@H](CCC=C(C)C)C 
 
>  <mulliken_charges> 
31 
1   -0.505497 
2   -0.514011 
3   -0.454058 
4   -0.306662 
5   -0.14993 
6   -0.268362 
7   -0.267153 
8   -0.034564 
9   0.18037 
10   -0.066213 
11   -0.621993 
12   0.147814 
13   0.14806 
14   0.14975 
15   0.151541 
16   0.157773 
17   0.150638 
18   0.135532 
19   0.135142 
20   0.157765 
21   0.145507 
22   0.141991 
23   0.107744 
24   0.127483 
25   0.125494 
26   0.140716 
27   0.146981 
28   0.113816 
29   0.11978 
30   0.11546 
31   0.389086 
 
>  <lowdin_charges> 
31 
1   -0.440817 
2   -0.44638 
3   -0.453544 
4   -0.278776 
5   -0.188908 
6   -0.275365 
7   -0.284424 
8   -0.134607 
9   -0.014798 
10   -0.1223 
11   -0.47695 
12   0.15209 
13   0.152185 
14   0.153593 
15   0.15572 
16   0.15634 
17   0.154778 
18   0.144632 
19   0.145685 
20   0.155663 
21   0.148537 
22   0.151697 
23   0.14355 
24   0.142158 
25   0.1387 
26   0.147862 
27   0.148579 
28   0.121851 
29   0.12511 
30   0.133946 
31   0.344194 
 
$$$$ 
 
