PCCDB-ID:  36394 
public computational chemistry database (PCCDB) project, http://pccdb.org 
 
 19 19  0  0  0  0  0  0  0  0999 V2000 
    2.4247    0.7003    1.4884 C   0  0  0  0  0  0  0  0  0  0  0  0 
    4.5278    0.4534   -0.6585 C   0  0  0  0  0  0  0  0  0  0  0  0 
    1.2856    0.0945   -3.0475 C   0  0  0  0  0  0  0  0  0  0  0  0 
    1.5463    1.6009   -3.1003 C   0  0  0  0  0  0  0  0  0  0  0  0 
    2.1103    0.0571    0.1457 C   0  0  0  0  0  0  0  0  0  0  0  0 
    3.0434    0.4146   -1.0451 C   0  0  0  0  0  0  0  0  0  0  0  0 
    1.1591   -0.6853    0.0157 O   0  0  0  0  0  0  0  0  0  0  0  0 
    2.8177   -0.7180   -2.4692 S   0  0  0  0  0  0  0  0  0  0  0  0 
    2.4689    2.1252   -1.5896 S   0  0  0  0  0  0  0  0  0  0  0  0 
    3.3011    0.2184    1.9390 H   0  0  0  0  0  0  0  0  0  0  0  0 
    1.5683    0.5606    2.1507 H   0  0  0  0  0  0  0  0  0  0  0  0 
    2.6465    1.7679    1.3908 H   0  0  0  0  0  0  0  0  0  0  0  0 
    4.8560   -0.5315   -0.3048 H   0  0  0  0  0  0  0  0  0  0  0  0 
    4.7141    1.1783    0.1390 H   0  0  0  0  0  0  0  0  0  0  0  0 
    5.1313    0.7348   -1.5243 H   0  0  0  0  0  0  0  0  0  0  0  0 
    1.0536   -0.2975   -4.0429 H   0  0  0  0  0  0  0  0  0  0  0  0 
    0.4728   -0.1535   -2.3624 H   0  0  0  0  0  0  0  0  0  0  0  0 
    0.6071    2.1622   -3.1333 H   0  0  0  0  0  0  0  0  0  0  0  0 
    2.1486    1.8603   -3.9744 H   0  0  0  0  0  0  0  0  0  0  0  0 
  1 10  1  0  0  0  0 
  1 11  1  0  0  0  0 
  2 13  1  0  0  0  0 
  2 14  1  0  0  0  0 
  3  8  1  0  0  0  0 
  3 17  1  0  0  0  0 
  4  3  1  0  0  0  0 
  4  9  1  0  0  0  0 
  5  1  1  0  0  0  0 
  6  2  1  0  0  0  0 
  6  5  1  0  0  0  0 
  7  5  2  0  0  0  0 
  8  6  1  0  0  0  0 
  9  6  1  0  0  0  0 
 12  1  1  0  0  0  0 
 15  2  1  0  0  0  0 
 16  3  1  0  0  0  0 
 18  4  1  0  0  0  0 
 19  4  1  0  0  0  0 
M  END 
>  <HBA> 
3 
 
>  <HBD> 
0 
 
>  <TPSA> 
67.67 
 
>  <cid> 
36394 
 
>  <dipole> 
1.53 
 
>  <excitation_energy_1> 
4.094 
 
>  <excitation_energy_2> 
4.324 
 
>  <excitation_energy_3> 
4.696 
 
>  <excitation_energy_4> 
4.785 
 
>  <homo_energy> 
-6.196 
 
>  <homo_lumo_gap> 
5.423 
 
>  <logP> 
1.772 
 
>  <lumo_energy> 
-0.773 
 
>  <melting_point> 
46.37 
 
>  <molecular_refractivity> 
44.26 
 
>  <oscillator_strength_1> 
0.0086 
 
>  <oscillator_strength_2> 
0.0034 
 
>  <oscillator_strength_3> 
0.0004 
 
>  <oscillator_strength_4> 
0.0079 
 
>  <open_babel_can_smiles> 
CC(=O)C1(C)SCCS1 
 
>  <mulliken_charges> 
19 
1   -0.536349 
2   -0.460447 
3   -0.427771 
4   -0.409132 
5   0.496326 
6   -0.334099 
7   -0.425402 
8   0.148287 
9   0.102492 
10   0.176101 
11   0.185173 
12   0.181732 
13   0.169265 
14   0.167626 
15   0.188244 
16   0.182836 
17   0.217007 
18   0.186507 
19   0.191602 
 
>  <lowdin_charges> 
19 
1   -0.471422 
2   -0.445513 
3   -0.37673 
4   -0.370995 
5   0.151136 
6   -0.210315 
7   -0.22347 
8   0.134194 
9   0.093636 
10   0.17438 
11   0.17754 
12   0.172156 
13   0.162083 
14   0.163241 
15   0.176524 
16   0.174211 
17   0.178714 
18   0.17225 
19   0.16838 
 
$$$$ 
 
