PCCDB-ID:  40787 
public computational chemistry database (PCCDB) project, http://pccdb.org 
 
 23 23  0  0  0  0  0  0  0  0999 V2000 
    3.7871   -0.1073    0.9122 C   0  0  0  0  0  0  0  0  0  0  0  0 
    1.6271    1.0196    0.1804 C   0  0  0  0  0  0  0  0  0  0  0  0 
    3.5746   -1.8078   -4.6610 C   0  0  0  0  0  0  0  0  0  0  0  0 
    4.8601    1.1655   -4.8707 C   0  0  0  0  0  0  0  0  0  0  0  0 
    2.6359   -0.1056   -0.1122 C   0  0  0  0  0  0  0  0  0  0  0  0 
    3.6264   -0.7446   -3.6003 C   0  0  0  0  0  0  0  0  0  0  0  0 
    4.1749    0.5067   -3.7105 C   0  0  0  0  0  0  0  0  0  0  0  0 
    3.1504   -0.0582   -1.5304 C   0  0  0  0  0  0  0  0  0  0  0  0 
    3.0577   -1.0433   -2.3712 N   0  0  0  0  0  0  0  0  0  0  0  0 
    3.9679    1.3610   -2.1945 S   0  0  0  0  0  0  0  0  0  0  0  0 
    3.3918   -0.2285    1.9274 H   0  0  0  0  0  0  0  0  0  0  0  0 
    4.3485    0.8341    0.8805 H   0  0  0  0  0  0  0  0  0  0  0  0 
    4.4876   -0.9257    0.7169 H   0  0  0  0  0  0  0  0  0  0  0  0 
    1.2171    0.9085    1.1907 H   0  0  0  0  0  0  0  0  0  0  0  0 
    0.7945    1.0017   -0.5306 H   0  0  0  0  0  0  0  0  0  0  0  0 
    2.1013    2.0067    0.1204 H   0  0  0  0  0  0  0  0  0  0  0  0 
    2.5354   -2.0767   -4.8841 H   0  0  0  0  0  0  0  0  0  0  0  0 
    4.0747   -2.7198   -4.3141 H   0  0  0  0  0  0  0  0  0  0  0  0 
    4.0519   -1.4902   -5.5914 H   0  0  0  0  0  0  0  0  0  0  0  0 
    4.8935    0.4908   -5.7303 H   0  0  0  0  0  0  0  0  0  0  0  0 
    5.8930    1.4449   -4.6285 H   0  0  0  0  0  0  0  0  0  0  0  0 
    4.3397    2.0784   -5.1858 H   0  0  0  0  0  0  0  0  0  0  0  0 
    2.1146   -1.0679   -0.0457 H   0  0  0  0  0  0  0  0  0  0  0  0 
  1 11  1  0  0  0  0 
  2 14  1  0  0  0  0 
  3 18  1  0  0  0  0 
  3  6  1  0  0  0  0 
  4 21  1  0  0  0  0 
  4  7  1  0  0  0  0 
  5 23  1  0  0  0  0 
  5  2  1  0  0  0  0 
  5  1  1  0  0  0  0 
  6  9  1  0  0  0  0 
  7  6  2  0  0  0  0 
  7 10  1  0  0  0  0 
  8  5  1  0  0  0  0 
  9  8  2  0  0  0  0 
 10  8  1  0  0  0  0 
 12  1  1  0  0  0  0 
 13  1  1  0  0  0  0 
 15  2  1  0  0  0  0 
 16  2  1  0  0  0  0 
 17  3  1  0  0  0  0 
 19  3  1  0  0  0  0 
 20  4  1  0  0  0  0 
 22  4  1  0  0  0  0 
M  END 
>  <HBA> 
2 
 
>  <HBD> 
0 
 
>  <TPSA> 
41.13 
 
>  <cid> 
40787 
 
>  <dipole> 
0.88 
 
>  <excitation_energy_1> 
5.127 
 
>  <excitation_energy_2> 
5.175 
 
>  <excitation_energy_3> 
5.364 
 
>  <excitation_energy_4> 
5.578 
 
>  <homo_energy> 
-5.987 
 
>  <homo_lumo_gap> 
5.69 
 
>  <logP> 
2.883 
 
>  <lumo_energy> 
-0.297 
 
>  <melting_point> 
30.24 
 
>  <molecular_refractivity> 
46.63 
 
>  <oscillator_strength_1> 
0.1462 
 
>  <oscillator_strength_2> 
0.0043 
 
>  <oscillator_strength_3> 
0.0005 
 
>  <oscillator_strength_4> 
0.0068 
 
>  <open_babel_can_smiles> 
CC(c1sc(c(n1)C)C)C 
 
>  <mulliken_charges> 
23 
1   -0.446719 
2   -0.451686 
3   -0.507668 
4   -0.511399 
5   -0.135839 
6   0.284433 
7   -0.147077 
8   0.110381 
9   -0.448556 
10   0.182049 
11   0.14642 
12   0.151176 
13   0.159526 
14   0.147067 
15   0.158969 
16   0.152363 
17   0.168195 
18   0.168249 
19   0.14816 
20   0.168022 
21   0.170083 
22   0.170154 
23   0.163696 
 
>  <lowdin_charges> 
23 
1   -0.441337 
2   -0.44177 
3   -0.438514 
4   -0.435877 
5   -0.121777 
6   0.00275 
7   -0.178272 
8   -0.076796 
9   -0.175804 
10   0.243836 
11   0.150877 
12   0.151928 
13   0.158218 
14   0.151557 
15   0.157593 
16   0.151835 
17   0.164633 
18   0.166017 
19   0.154568 
20   0.165383 
21   0.163209 
22   0.164649 
23   0.163094 
 
$$$$ 
 
