PCCDB-ID:  24331 
public computational chemistry database (PCCDB) project, http://pccdb.org 
 
 23 23  0  0  0  0  0  0  0  0999 V2000 
    6.2465   -0.1097    3.4008 C   0  0  0  0  0  0  0  0  0  0  0  0 
    5.4712   -0.8046    2.2761 C   0  0  0  0  0  0  0  0  0  0  0  0 
    1.0703   -3.4900   -1.4030 C   0  0  0  0  0  0  0  0  0  0  0  0 
    1.8167   -2.9319   -0.3694 C   0  0  0  0  0  0  0  0  0  0  0  0 
    1.3276   -4.8116   -1.7734 C   0  0  0  0  0  0  0  0  0  0  0  0 
    4.1487   -1.3770    2.7759 C   0  0  0  0  0  0  0  0  0  0  0  0 
    2.9666   -5.0368   -0.2004 C   0  0  0  0  0  0  0  0  0  0  0  0 
    2.7913   -3.7209    0.2518 C   0  0  0  0  0  0  0  0  0  0  0  0 
    3.6482   -3.2346    1.3697 C   0  0  0  0  0  0  0  0  0  0  0  0 
    2.2563   -5.5827   -1.1912 N   0  0  0  0  0  0  0  0  0  0  0  0 
    4.4921   -3.9113    1.9241 O   0  0  0  0  0  0  0  0  0  0  0  0 
    3.3724   -1.9520    1.6980 O   0  0  0  0  0  0  0  0  0  0  0  0 
    7.1925    0.2968    3.0285 H   0  0  0  0  0  0  0  0  0  0  0  0 
    6.4818   -0.8078    4.2128 H   0  0  0  0  0  0  0  0  0  0  0  0 
    5.6735    0.7216    3.8297 H   0  0  0  0  0  0  0  0  0  0  0  0 
    6.0696   -1.6203    1.8554 H   0  0  0  0  0  0  0  0  0  0  0  0 
    5.2675   -0.0971    1.4625 H   0  0  0  0  0  0  0  0  0  0  0  0 
    0.3035   -2.9161   -1.9145 H   0  0  0  0  0  0  0  0  0  0  0  0 
    1.6556   -1.9101   -0.0438 H   0  0  0  0  0  0  0  0  0  0  0  0 
    0.7601   -5.2763   -2.5783 H   0  0  0  0  0  0  0  0  0  0  0  0 
    3.5060   -0.5924    3.1852 H   0  0  0  0  0  0  0  0  0  0  0  0 
    4.3154   -2.1431    3.5378 H   0  0  0  0  0  0  0  0  0  0  0  0 
    3.7198   -5.6627    0.2714 H   0  0  0  0  0  0  0  0  0  0  0  0 
  1 15  1  0  0  0  0 
  1 14  1  0  0  0  0 
  2  6  1  0  0  0  0 
  2  1  1  0  0  0  0 
  3  4  1  0  0  0  0 
  4 19  1  0  0  0  0 
  4  8  2  0  0  0  0 
  5  3  2  0  0  0  0 
  5 10  1  0  0  0  0 
  6 21  1  0  0  0  0 
  6 22  1  0  0  0  0 
  7  8  1  0  0  0  0 
  7 23  1  0  0  0  0 
  8  9  1  0  0  0  0 
  9 12  1  0  0  0  0 
  9 11  2  0  0  0  0 
 10  7  2  0  0  0  0 
 12  6  1  0  0  0  0 
 13  1  1  0  0  0  0 
 16  2  1  0  0  0  0 
 17  2  1  0  0  0  0 
 18  3  1  0  0  0  0 
 20  5  1  0  0  0  0 
M  END 
>  <HBA> 
3 
 
>  <HBD> 
0 
 
>  <TPSA> 
39.19 
 
>  <cid> 
24331 
 
>  <dipole> 
3.62 
 
>  <excitation_energy_1> 
4.281 
 
>  <excitation_energy_2> 
4.876 
 
>  <excitation_energy_3> 
4.913 
 
>  <excitation_energy_4> 
5.17 
 
>  <homo_energy> 
-7.037 
 
>  <homo_lumo_gap> 
5.529 
 
>  <logP> 
1.648 
 
>  <lumo_energy> 
-1.508 
 
>  <melting_point> 
43.44 
 
>  <molecular_refractivity> 
45.13 
 
>  <oscillator_strength_1> 
0.0006 
 
>  <oscillator_strength_2> 
0.0001 
 
>  <oscillator_strength_3> 
0.003 
 
>  <oscillator_strength_4> 
0.0982 
 
>  <open_babel_can_smiles> 
CCCOC(=O)c1cccnc1 
 
>  <mulliken_charges> 
23 
1   -0.454133 
2   -0.274083 
3   -0.147723 
4   -0.123801 
5   0.050259 
6   -0.038625 
7   0.024945 
8   0.026612 
9   0.59862 
10   -0.413283 
11   -0.487822 
12   -0.485241 
13   0.155046 
14   0.153764 
15   0.144747 
16   0.166538 
17   0.145012 
18   0.144654 
19   0.168229 
20   0.149879 
21   0.149721 
22   0.169989 
23   0.176695 
 
>  <lowdin_charges> 
23 
1   -0.445644 
2   -0.286542 
3   -0.177115 
4   -0.111335 
5   -0.07491 
6   -0.133485 
7   -0.066019 
8   -0.063742 
9   0.200085 
10   -0.143647 
11   -0.267967 
12   -0.19273 
13   0.157549 
14   0.153238 
15   0.148917 
16   0.159485 
17   0.14814 
18   0.168789 
19   0.175839 
20   0.161592 
21   0.152647 
22   0.159831 
23   0.177023 
 
$$$$ 
 
