PCCDB-ID:  11129 
public computational chemistry database (PCCDB) project, http://pccdb.org 
 
 26 27  0  0  1  0  0  0  0  0999 V2000 
    0.8991    0.0845    0.4078 C   0  0  0  0  0  0  0  0  0  0  0  0 
    5.2850   -1.4590   -3.1966 C   0  0  0  0  0  0  0  0  0  0  0  0 
    6.3202   -1.9330   -0.9237 C   0  0  0  0  0  0  0  0  0  0  0  0 
    2.9063    1.4100   -0.2701 C   0  0  0  0  0  0  0  0  0  0  0  0 
    3.9208    1.3139   -1.4656 C   0  0  0  0  0  0  0  0  0  0  0  0 
    3.0408   -1.1983    0.1966 C   0  0  0  0  0  0  0  0  0  0  0  0 
    2.2095    0.1009    0.1448 C   0  0  0  0  0  0  0  0  0  0  0  0 
    4.7123    0.0731   -1.1120 C   0  0  1  0  0  0  0  0  0  0  0  0 
    3.8005   -1.1315   -1.1164 C   0  0  1  0  0  0  0  0  0  0  0  0 
    5.2064   -1.2450   -1.6946 C   0  0  0  0  0  0  0  0  0  0  0  0 
    0.2860    0.9803    0.3370 H   0  0  0  0  0  0  0  0  0  0  0  0 
    0.3896   -0.8261    0.7151 H   0  0  0  0  0  0  0  0  0  0  0  0 
    6.2435   -1.0934   -3.5863 H   0  0  0  0  0  0  0  0  0  0  0  0 
    4.4861   -0.9290   -3.7260 H   0  0  0  0  0  0  0  0  0  0  0  0 
    5.2059   -2.5245   -3.4476 H   0  0  0  0  0  0  0  0  0  0  0  0 
    7.3029   -1.5459   -1.2223 H   0  0  0  0  0  0  0  0  0  0  0  0 
    6.3122   -3.0127   -1.1197 H   0  0  0  0  0  0  0  0  0  0  0  0 
    6.2177   -1.7897    0.1573 H   0  0  0  0  0  0  0  0  0  0  0  0 
    2.1419    2.1690   -0.4734 H   0  0  0  0  0  0  0  0  0  0  0  0 
    3.4788    1.7770    0.5964 H   0  0  0  0  0  0  0  0  0  0  0  0 
    4.5103    2.2394   -1.5163 H   0  0  0  0  0  0  0  0  0  0  0  0 
    3.3901    1.2057   -2.4187 H   0  0  0  0  0  0  0  0  0  0  0  0 
    2.3725   -2.0621    0.3050 H   0  0  0  0  0  0  0  0  0  0  0  0 
    3.7259   -1.1983    1.0558 H   0  0  0  0  0  0  0  0  0  0  0  0 
    5.1680    0.2100   -0.1270 H   0  0  0  0  0  0  0  0  0  0  0  0 
    3.0831   -1.0720   -1.9385 H   0  0  0  0  0  0  0  0  0  0  0  0 
  1 12  1  0  0  0  0 
  2 10  1  0  0  0  0 
  3 18  1  0  0  0  0 
  4  7  1  0  0  0  0 
  4 20  1  0  0  0  0 
  5  8  1  0  0  0  0 
  5  4  1  0  0  0  0 
  6 23  1  0  0  0  0 
  6 24  1  0  0  0  0 
  7  6  1  0  0  0  0 
  7  1  2  0  0  0  0 
  8 25  1  1  0  0  0 
  9 26  1  6  0  0  0 
  9  8  1  0  0  0  0 
  9  6  1  0  0  0  0 
 10  9  1  0  0  0  0 
 10  8  1  0  0  0  0 
 10  3  1  0  0  0  0 
 11  1  1  0  0  0  0 
 13  2  1  0  0  0  0 
 14  2  1  0  0  0  0 
 15  2  1  0  0  0  0 
 16  3  1  0  0  0  0 
 17  3  1  0  0  0  0 
 19  4  1  0  0  0  0 
 21  5  1  0  0  0  0 
 22  5  1  0  0  0  0 
M  END 
>  <HBA> 
0 
 
>  <HBD> 
0 
 
>  <TPSA> 
0.0 
 
>  <cid> 
11129 
 
>  <dipole> 
0.48 
 
>  <excitation_energy_1> 
5.533 
 
>  <excitation_energy_2> 
5.919 
 
>  <excitation_energy_3> 
6.076 
 
>  <excitation_energy_4> 
6.175 
 
>  <homo_energy> 
-6.316 
 
>  <homo_lumo_gap> 
6.958 
 
>  <logP> 
2.999 
 
>  <lumo_energy> 
0.642 
 
>  <melting_point> 
17.45 
 
>  <molecular_refractivity> 
45.22 
 
>  <oscillator_strength_1> 
0.0021 
 
>  <oscillator_strength_2> 
0.0105 
 
>  <oscillator_strength_3> 
0.132 
 
>  <oscillator_strength_4> 
0.1021 
 
>  <open_babel_can_smiles> 
C=C1CC[C@H]2[C@H](C1)C2(C)C 
 
>  <mulliken_charges> 
26 
1   -0.415154 
2   -0.471689 
3   -0.472256 
4   -0.339642 
5   -0.262963 
6   -0.328375 
7   0.230401 
8   -0.131407 
9   -0.135996 
10   0.118314 
11   0.130982 
12   0.131162 
13   0.14593 
14   0.14524 
15   0.145239 
16   0.14516 
17   0.146427 
18   0.144008 
19   0.139941 
20   0.144741 
21   0.128756 
22   0.135187 
23   0.134359 
24   0.137926 
25   0.122261 
26   0.131449 
 
>  <lowdin_charges> 
26 
1   -0.365407 
2   -0.433181 
3   -0.429626 
4   -0.276122 
5   -0.267624 
6   -0.265519 
7   0.006985 
8   -0.182128 
9   -0.182604 
10   0.019217 
11   0.153077 
12   0.153328 
13   0.151243 
14   0.152842 
15   0.149038 
16   0.150001 
17   0.149766 
18   0.149122 
19   0.150685 
20   0.149689 
21   0.140486 
22   0.143433 
23   0.145514 
24   0.147313 
25   0.141908 
26   0.148564 
 
$$$$ 
 
