PCCDB-ID:  33109 
public computational chemistry database (PCCDB) project, http://pccdb.org 
 
 21 22  0  0  0  0  0  0  0  0999 V2000 
    0.8052    0.0570   -0.0016 C   0  0  0  0  0  0  0  0  0  0  0  0 
    6.7216   -0.0233   -0.0171 C   0  0  0  0  0  0  0  0  0  0  0  0 
    3.0684    1.2134   -0.0098 C   0  0  0  0  0  0  0  0  0  0  0  0 
    4.4770    1.2042   -0.0137 C   0  0  0  0  0  0  0  0  0  0  0  0 
    2.6822   -2.5692   -0.0057 C   0  0  0  0  0  0  0  0  0  0  0  0 
    3.8526   -3.2534   -0.0080 C   0  0  0  0  0  0  0  0  0  0  0  0 
    2.3128    0.0429   -0.0074 C   0  0  0  0  0  0  0  0  0  0  0  0 
    5.2163    0.0211   -0.0142 C   0  0  0  0  0  0  0  0  0  0  0  0 
    3.0361   -1.1684   -0.0084 C   0  0  0  0  0  0  0  0  0  0  0  0 
    4.4402   -1.1400   -0.0120 C   0  0  0  0  0  0  0  0  0  0  0  0 
    4.9415   -2.4181   -0.0119 O   0  0  0  0  0  0  0  0  0  0  0  0 
    0.4193    1.0809    0.0159 H   0  0  0  0  0  0  0  0  0  0  0  0 
    0.4009   -0.4682    0.8735 H   0  0  0  0  0  0  0  0  0  0  0  0 
    0.3941   -0.4399   -0.8902 H   0  0  0  0  0  0  0  0  0  0  0  0 
    7.1411    0.9871   -0.0324 H   0  0  0  0  0  0  0  0  0  0  0  0 
    7.1046   -0.5648   -0.8907 H   0  0  0  0  0  0  0  0  0  0  0  0 
    7.1088   -0.5396    0.8699 H   0  0  0  0  0  0  0  0  0  0  0  0 
    2.5536    2.1713   -0.0074 H   0  0  0  0  0  0  0  0  0  0  0  0 
    5.0091    2.1526   -0.0168 H   0  0  0  0  0  0  0  0  0  0  0  0 
    1.6912   -3.0011   -0.0024 H   0  0  0  0  0  0  0  0  0  0  0  0 
    4.0854   -4.3080   -0.0083 H   0  0  0  0  0  0  0  0  0  0  0  0 
  1 12  1  0  0  0  0 
  1 13  1  0  0  0  0 
  2  8  1  0  0  0  0 
  2 17  1  0  0  0  0 
  3 18  1  0  0  0  0 
  3  7  2  0  0  0  0 
  4  3  1  0  0  0  0 
  5 20  1  0  0  0  0 
  6  5  2  0  0  0  0 
  7  1  1  0  0  0  0 
  8  4  2  0  0  0  0 
  8 10  1  0  0  0  0 
  9  7  1  0  0  0  0 
  9  5  1  0  0  0  0 
 10 11  1  0  0  0  0 
 10  9  2  0  0  0  0 
 11  6  1  0  0  0  0 
 14  1  1  0  0  0  0 
 15  2  1  0  0  0  0 
 16  2  1  0  0  0  0 
 19  4  1  0  0  0  0 
 21  6  1  0  0  0  0 
M  END 
>  <HBA> 
1 
 
>  <HBD> 
0 
 
>  <TPSA> 
13.14 
 
>  <cid> 
33109 
 
>  <dipole> 
0.69 
 
>  <excitation_energy_1> 
4.86 
 
>  <excitation_energy_2> 
5.0 
 
>  <excitation_energy_3> 
5.457 
 
>  <excitation_energy_4> 
5.713 
 
>  <homo_energy> 
-5.704 
 
>  <homo_lumo_gap> 
5.399 
 
>  <logP> 
3.05 
 
>  <lumo_energy> 
-0.305 
 
>  <melting_point> 
56.56 
 
>  <molecular_refractivity> 
46.15 
 
>  <oscillator_strength_1> 
0.0373 
 
>  <oscillator_strength_2> 
0.1871 
 
>  <oscillator_strength_3> 
0.0088 
 
>  <oscillator_strength_4> 
0.0018 
 
>  <open_babel_can_smiles> 
Cc1ccc(c2c1occ2)C 
 
>  <mulliken_charges> 
21 
1   -0.529233 
2   -0.521615 
3   -0.189764 
4   -0.204855 
5   -0.225176 
6   0.080852 
7   0.113046 
8   0.13867 
9   0.081249 
10   0.240764 
11   -0.480431 
12   0.155496 
13   0.159817 
14   0.160151 
15   0.15343 
16   0.166931 
17   0.166937 
18   0.116308 
19   0.119226 
20   0.141689 
21   0.156506 
 
>  <lowdin_charges> 
21 
1   -0.441102 
2   -0.437351 
3   -0.179645 
4   -0.171887 
5   -0.215045 
6   -0.057152 
7   -0.005499 
8   -0.020529 
9   -0.038192 
10   0.073593 
11   -0.117439 
12   0.157131 
13   0.159551 
14   0.159607 
15   0.157135 
16   0.164166 
17   0.164058 
18   0.153442 
19   0.155177 
20   0.170403 
21   0.169578 
 
$$$$ 
 
