PCCDB-ID:  62128 
public computational chemistry database (PCCDB) project, http://pccdb.org 
 
 17 17  0  0  1  0  0  0  0  0999 V2000 
    1.4696    0.2941    0.6406 C   0  0  0  0  0  0  0  0  0  0  0  0 
    3.8418   -1.0202   -1.9906 C   0  0  0  0  0  0  0  0  0  0  0  0 
    3.0232    0.1172   -2.6323 C   0  0  0  0  0  0  0  0  0  0  0  0 
    2.6449    0.1891   -0.3150 C   0  0  1  0  0  0  0  0  0  0  0  0 
    3.1103   -1.2377   -0.6576 C   0  0  2  0  0  0  0  0  0  0  0  0 
    2.2658    0.7360   -1.5805 O   0  0  0  0  0  0  0  0  0  0  0  0 
    4.0513   -2.1145    0.6506 S   0  0  0  0  0  0  0  0  0  0  0  0 
    1.7366   -0.1164    1.6198 H   0  0  0  0  0  0  0  0  0  0  0  0 
    0.6085   -0.2567    0.2463 H   0  0  0  0  0  0  0  0  0  0  0  0 
    1.1764    1.3407    0.7687 H   0  0  0  0  0  0  0  0  0  0  0  0 
    4.8728   -0.6997   -1.8012 H   0  0  0  0  0  0  0  0  0  0  0  0 
    3.8826   -1.9239   -2.6047 H   0  0  0  0  0  0  0  0  0  0  0  0 
    2.3144   -0.2564   -3.3815 H   0  0  0  0  0  0  0  0  0  0  0  0 
    3.6658    0.8636   -3.1175 H   0  0  0  0  0  0  0  0  0  0  0  0 
    3.5049    0.7513    0.0926 H   0  0  0  0  0  0  0  0  0  0  0  0 
    2.2254   -1.8670   -0.8122 H   0  0  0  0  0  0  0  0  0  0  0  0 
    5.0965   -1.2574    0.6874 H   0  0  0  0  0  0  0  0  0  0  0  0 
  1 10  1  0  0  0  0 
  1  8  1  0  0  0  0 
  2 11  1  0  0  0  0 
  2  5  1  0  0  0  0 
  3  2  1  0  0  0  0 
  3  6  1  0  0  0  0 
  4 15  1  1  0  0  0 
  4  1  1  0  0  0  0 
  5 16  1  6  0  0  0 
  5  4  1  0  0  0  0 
  5  7  1  0  0  0  0 
  6  4  1  0  0  0  0 
  7 17  1  0  0  0  0 
  9  1  1  0  0  0  0 
 12  2  1  0  0  0  0 
 13  3  1  0  0  0  0 
 14  3  1  0  0  0  0 
M  END 
>  <HBA> 
2 
 
>  <HBD> 
1 
 
>  <TPSA> 
48.03 
 
>  <cid> 
62128 
 
>  <dipole> 
1.19 
 
>  <excitation_energy_1> 
5.269 
 
>  <excitation_energy_2> 
5.923 
 
>  <excitation_energy_3> 
6.048 
 
>  <excitation_energy_4> 
6.323 
 
>  <homo_energy> 
-6.479 
 
>  <homo_lumo_gap> 
7.029 
 
>  <logP> 
1.094 
 
>  <lumo_energy> 
0.55 
 
>  <melting_point> 
7.99 
 
>  <molecular_refractivity> 
33.05 
 
>  <oscillator_strength_1> 
0.0069 
 
>  <oscillator_strength_2> 
0.0312 
 
>  <oscillator_strength_3> 
0.0103 
 
>  <oscillator_strength_4> 
0.0128 
 
>  <open_babel_can_smiles> 
S[C@@H]1CCO[C@H]1C 
 
>  <mulliken_charges> 
17 
1   -0.456556 
2   -0.303458 
3   -0.00921 
4   0.18494 
5   -0.285762 
6   -0.500289 
7   -0.066998 
8   0.162432 
9   0.148534 
10   0.159899 
11   0.148107 
12   0.161008 
13   0.141133 
14   0.137527 
15   0.111403 
16   0.176667 
17   0.090625 
 
>  <lowdin_charges> 
17 
1   -0.447405 
2   -0.297195 
3   -0.133452 
4   0.001646 
5   -0.241008 
6   -0.286094 
7   -0.072318 
8   0.163162 
9   0.154485 
10   0.159878 
11   0.14886 
12   0.16189 
13   0.142836 
14   0.141303 
15   0.124587 
16   0.166936 
17   0.11189 
 
$$$$ 
 
