PCCDB-ID:  43243 
public computational chemistry database (PCCDB) project, http://pccdb.org 
 
 26 26  0  0  0  0  0  0  0  0999 V2000 
    2.7727    0.0357   -1.7669 C   0  0  0  0  0  0  0  0  0  0  0  0 
    1.0248    0.3996    0.0694 C   0  0  0  0  0  0  0  0  0  0  0  0 
    1.1389   -2.8387   -0.9033 C   0  0  0  0  0  0  0  0  0  0  0  0 
    3.8200   -3.7510    1.7434 C   0  0  0  0  0  0  0  0  0  0  0  0 
    4.3849   -2.5779    2.0236 C   0  0  0  0  0  0  0  0  0  0  0  0 
    2.7073   -3.8953    0.7474 C   0  0  0  0  0  0  0  0  0  0  0  0 
    3.9582   -1.2969    1.3702 C   0  0  0  0  0  0  0  0  0  0  0  0 
    2.4579   -0.0632   -0.2607 C   0  0  0  0  0  0  0  0  0  0  0  0 
    2.2635   -2.6054    0.0790 C   0  0  0  0  0  0  0  0  0  0  0  0 
    2.8309   -1.4175    0.3589 C   0  0  0  0  0  0  0  0  0  0  0  0 
    2.6146    1.0614   -2.1236 H   0  0  0  0  0  0  0  0  0  0  0  0 
    2.1436   -0.6249   -2.3713 H   0  0  0  0  0  0  0  0  0  0  0  0 
    3.8167   -0.2320   -1.9660 H   0  0  0  0  0  0  0  0  0  0  0  0 
    0.8668    1.4276   -0.2805 H   0  0  0  0  0  0  0  0  0  0  0  0 
    0.8485    0.3816    1.1509 H   0  0  0  0  0  0  0  0  0  0  0  0 
    0.2619   -0.2297   -0.3985 H   0  0  0  0  0  0  0  0  0  0  0  0 
    1.4300   -3.5946   -1.6468 H   0  0  0  0  0  0  0  0  0  0  0  0 
    0.8263   -1.9472   -1.4443 H   0  0  0  0  0  0  0  0  0  0  0  0 
    0.2559   -3.2427   -0.3867 H   0  0  0  0  0  0  0  0  0  0  0  0 
    4.1591   -4.6583    2.2413 H   0  0  0  0  0  0  0  0  0  0  0  0 
    5.1910   -2.5153    2.7532 H   0  0  0  0  0  0  0  0  0  0  0  0 
    1.8342   -4.3671    1.2324 H   0  0  0  0  0  0  0  0  0  0  0  0 
    3.0001   -4.6202   -0.0325 H   0  0  0  0  0  0  0  0  0  0  0  0 
    4.8281   -0.8244    0.8802 H   0  0  0  0  0  0  0  0  0  0  0  0 
    3.6651   -0.5677    2.1461 H   0  0  0  0  0  0  0  0  0  0  0  0 
    3.1186    0.6705    0.2229 H   0  0  0  0  0  0  0  0  0  0  0  0 
  1  8  1  0  0  0  0 
  2 15  1  0  0  0  0 
  3 19  1  0  0  0  0 
  3  9  1  0  0  0  0 
  4  5  2  0  0  0  0 
  4 20  1  0  0  0  0 
  5 21  1  0  0  0  0 
  6 22  1  0  0  0  0 
  6  4  1  0  0  0  0 
  7  5  1  0  0  0  0 
  7 25  1  0  0  0  0 
  8  2  1  0  0  0  0 
  8 26  1  0  0  0  0 
  8 10  1  0  0  0  0 
  9 10  2  0  0  0  0 
  9  6  1  0  0  0  0 
 10  7  1  0  0  0  0 
 11  1  1  0  0  0  0 
 12  1  1  0  0  0  0 
 13  1  1  0  0  0  0 
 14  2  1  0  0  0  0 
 16  2  1  0  0  0  0 
 17  3  1  0  0  0  0 
 18  3  1  0  0  0  0 
 23  6  1  0  0  0  0 
 24  7  1  0  0  0  0 
M  END 
>  <HBA> 
0 
 
>  <HBD> 
0 
 
>  <TPSA> 
0.0 
 
>  <cid> 
43243 
 
>  <dipole> 
0.19 
 
>  <excitation_energy_1> 
5.365 
 
>  <excitation_energy_2> 
5.553 
 
>  <excitation_energy_3> 
5.788 
 
>  <excitation_energy_4> 
5.83 
 
>  <homo_energy> 
-5.837 
 
>  <homo_lumo_gap> 
6.61 
 
>  <logP> 
3.309 
 
>  <lumo_energy> 
0.773 
 
>  <melting_point> 
19.78 
 
>  <molecular_refractivity> 
47.12 
 
>  <oscillator_strength_1> 
0.0003 
 
>  <oscillator_strength_2> 
0.006 
 
>  <oscillator_strength_3> 
0.0001 
 
>  <oscillator_strength_4> 
0.0008 
 
>  <open_babel_can_smiles> 
CC(C1=C(C)CC=CC1)C 
 
>  <mulliken_charges> 
26 
1   -0.441333 
2   -0.441281 
3   -0.516167 
4   -0.099051 
5   -0.096652 
6   -0.359327 
7   -0.385575 
8   -0.145601 
9   0.106348 
10   0.120072 
11   0.136878 
12   0.147251 
13   0.144601 
14   0.136666 
15   0.144541 
16   0.146913 
17   0.147798 
18   0.156237 
19   0.149464 
20   0.117063 
21   0.116854 
22   0.144532 
23   0.144635 
24   0.148651 
25   0.148683 
26   0.1278 
 
>  <lowdin_charges> 
26 
1   -0.442408 
2   -0.441684 
3   -0.447486 
4   -0.169804 
5   -0.172383 
6   -0.27182 
7   -0.274017 
8   -0.120727 
9   -0.027172 
10   -0.033133 
11   0.144876 
12   0.1499 
13   0.149209 
14   0.144745 
15   0.148663 
16   0.14998 
17   0.153639 
18   0.156996 
19   0.154156 
20   0.151208 
21   0.151003 
22   0.150071 
23   0.150224 
24   0.151197 
25   0.151296 
26   0.14347 
 
$$$$ 
 
