PCCDB-ID:  19313 
public computational chemistry database (PCCDB) project, http://pccdb.org 
 
 28 28  0  0  0  0  0  0  0  0999 V2000 
    5.9130   -0.1917   -2.3619 C   0  0  0  0  0  0  0  0  0  0  0  0 
    4.9528    0.0377   -1.1901 C   0  0  0  0  0  0  0  0  0  0  0  0 
    5.4572    1.0871   -0.1921 C   0  0  0  0  0  0  0  0  0  0  0  0 
    4.4922    1.3177    0.9883 C   0  0  0  0  0  0  0  0  0  0  0  0 
    4.5877    3.7002    1.8541 C   0  0  0  0  0  0  0  0  0  0  0  0 
    5.0952    4.6598    2.7321 C   0  0  0  0  0  0  0  0  0  0  0  0 
    5.8578    2.0118    3.0019 C   0  0  0  0  0  0  0  0  0  0  0  0 
    4.9813    2.3626    1.9688 C   0  0  0  0  0  0  0  0  0  0  0  0 
    5.9823    4.3147    3.7513 C   0  0  0  0  0  0  0  0  0  0  0  0 
    6.3516    2.9580    3.9092 C   0  0  0  0  0  0  0  0  0  0  0  0 
    6.5089    5.2665    4.6796 N   0  0  0  0  0  0  0  0  0  0  0  0 
    7.1454    2.5751    4.9894 N   0  0  0  0  0  0  0  0  0  0  0  0 
    5.5247   -0.9452   -3.0569 H   0  0  0  0  0  0  0  0  0  0  0  0 
    6.8930   -0.5373   -2.0099 H   0  0  0  0  0  0  0  0  0  0  0  0 
    6.0738    0.7332   -2.9293 H   0  0  0  0  0  0  0  0  0  0  0  0 
    4.7838   -0.9123   -0.6631 H   0  0  0  0  0  0  0  0  0  0  0  0 
    3.9713    0.3479   -1.5766 H   0  0  0  0  0  0  0  0  0  0  0  0 
    5.6226    2.0413   -0.7120 H   0  0  0  0  0  0  0  0  0  0  0  0 
    6.4379    0.7815    0.1996 H   0  0  0  0  0  0  0  0  0  0  0  0 
    4.3361    0.3628    1.5092 H   0  0  0  0  0  0  0  0  0  0  0  0 
    3.5126    1.6172    0.5922 H   0  0  0  0  0  0  0  0  0  0  0  0 
    3.8930    3.9970    1.0722 H   0  0  0  0  0  0  0  0  0  0  0  0 
    4.8072    5.7038    2.6181 H   0  0  0  0  0  0  0  0  0  0  0  0 
    6.1406    0.9685    3.1346 H   0  0  0  0  0  0  0  0  0  0  0  0 
    6.0368    6.1620    4.5906 H   0  0  0  0  0  0  0  0  0  0  0  0 
    7.5026    5.4327    4.5185 H   0  0  0  0  0  0  0  0  0  0  0  0 
    7.7999    1.8215    4.8358 H   0  0  0  0  0  0  0  0  0  0  0  0 
    7.5010    3.3308    5.5572 H   0  0  0  0  0  0  0  0  0  0  0  0 
  1 14  1  0  0  0  0 
  1  2  1  0  0  0  0 
  2 16  1  0  0  0  0 
  2  3  1  0  0  0  0 
  3 19  1  0  0  0  0 
  3  4  1  0  0  0  0 
  4 20  1  0  0  0  0 
  4  8  1  0  0  0  0 
  5  8  2  0  0  0  0 
  5  6  1  0  0  0  0 
  6  9  2  0  0  0  0 
  7 24  1  0  0  0  0 
  7 10  2  0  0  0  0 
  8  7  1  0  0  0  0 
  9 10  1  0  0  0  0 
  9 11  1  0  0  0  0 
 10 12  1  0  0  0  0 
 12 28  1  0  0  0  0 
 13  1  1  0  0  0  0 
 15  1  1  0  0  0  0 
 17  2  1  0  0  0  0 
 18  3  1  0  0  0  0 
 21  4  1  0  0  0  0 
 22  5  1  0  0  0  0 
 23  6  1  0  0  0  0 
 25 11  1  0  0  0  0 
 26 11  1  0  0  0  0 
 27 12  1  0  0  0  0 
M  END 
>  <HBA> 
2 
 
>  <HBD> 
2 
 
>  <TPSA> 
52.04 
 
>  <cid> 
19313 
 
>  <dipole> 
2.31 
 
>  <excitation_energy_1> 
4.256 
 
>  <excitation_energy_2> 
4.514 
 
>  <excitation_energy_3> 
4.823 
 
>  <excitation_energy_4> 
4.984 
 
>  <homo_energy> 
-4.917 
 
>  <homo_lumo_gap> 
5.41 
 
>  <logP> 
3.356 
 
>  <lumo_energy> 
0.493 
 
>  <melting_point> 
105.48 
 
>  <molecular_refractivity> 
54.64 
 
>  <oscillator_strength_1> 
0.0131 
 
>  <oscillator_strength_2> 
0.0694 
 
>  <oscillator_strength_3> 
0.0057 
 
>  <oscillator_strength_4> 
0.0063 
 
>  <open_babel_can_smiles> 
CCCCc1ccc(c(c1)N)N 
 
>  <mulliken_charges> 
28 
1   -0.441016 
2   -0.245085 
3   -0.238901 
4   -0.350866 
5   -0.204091 
6   -0.17808 
7   -0.245516 
8   0.178435 
9   0.225389 
10   0.305594 
11   -0.806797 
12   -0.808272 
13   0.140656 
14   0.140457 
15   0.141447 
16   0.129165 
17   0.129796 
18   0.13232 
19   0.129243 
20   0.135876 
21   0.135327 
22   0.110111 
23   0.108496 
24   0.106616 
25   0.314439 
26   0.30818 
27   0.317358 
28   0.329717 
 
>  <lowdin_charges> 
28 
1   -0.44494 
2   -0.272759 
3   -0.271994 
4   -0.270933 
5   -0.195674 
6   -0.18249 
7   -0.207092 
8   -0.002144 
9   -0.001299 
10   0.046411 
11   -0.519145 
12   -0.498258 
13   0.149652 
14   0.14543 
15   0.146495 
16   0.138137 
17   0.138085 
18   0.140697 
19   0.138616 
20   0.145058 
21   0.144876 
22   0.150957 
23   0.147065 
24   0.147327 
25   0.267933 
26   0.262656 
27   0.276814 
28   0.280519 
 
$$$$ 
 
