PCCDB-ID:  9609 
public computational chemistry database (PCCDB) project, http://pccdb.org 
 
 15 14  0  0  0  0  0  0  0  0999 V2000 
    2.8463    1.8685    0.6712 C   0  0  0  0  0  0  0  0  0  0  0  0 
    5.8558   -0.9267   -0.1280 C   0  0  0  0  0  0  0  0  0  0  0  0 
    2.7603    0.5287   -0.0591 C   0  0  0  0  0  0  0  0  0  0  0  0 
    5.0409   -0.7152    1.1475 C   0  0  0  0  0  0  0  0  0  0  0  0 
    3.2251   -0.9366    0.9513 S   0  0  0  0  0  0  0  0  0  0  0  0 
    2.5086    2.6811    0.0154 H   0  0  0  0  0  0  0  0  0  0  0  0 
    3.8727    2.0976    0.9777 H   0  0  0  0  0  0  0  0  0  0  0  0 
    2.2197    1.8664    1.5686 H   0  0  0  0  0  0  0  0  0  0  0  0 
    6.9273   -0.8192    0.0836 H   0  0  0  0  0  0  0  0  0  0  0  0 
    5.5972   -0.1938   -0.8999 H   0  0  0  0  0  0  0  0  0  0  0  0 
    5.6847   -1.9257   -0.5409 H   0  0  0  0  0  0  0  0  0  0  0  0 
    3.3589    0.5400   -0.9766 H   0  0  0  0  0  0  0  0  0  0  0  0 
    1.7275    0.3228   -0.3602 H   0  0  0  0  0  0  0  0  0  0  0  0 
    5.2402    0.2688    1.5855 H   0  0  0  0  0  0  0  0  0  0  0  0 
    5.3154   -1.4577    1.9046 H   0  0  0  0  0  0  0  0  0  0  0  0 
  1  7  1  0  0  0  0 
  1  8  1  0  0  0  0 
  2  9  1  0  0  0  0 
  2  4  1  0  0  0  0 
  3  1  1  0  0  0  0 
  3  5  1  0  0  0  0 
  4 14  1  0  0  0  0 
  4 15  1  0  0  0  0 
  5  4  1  0  0  0  0 
  6  1  1  0  0  0  0 
 10  2  1  0  0  0  0 
 11  2  1  0  0  0  0 
 12  3  1  0  0  0  0 
 13  3  1  0  0  0  0 
M  END 
>  <HBA> 
1 
 
>  <HBD> 
0 
 
>  <TPSA> 
25.3 
 
>  <cid> 
9609 
 
>  <dipole> 
1.77 
 
>  <excitation_energy_1> 
5.27 
 
>  <excitation_energy_2> 
5.345 
 
>  <excitation_energy_3> 
5.95 
 
>  <excitation_energy_4> 
6.001 
 
>  <homo_energy> 
-5.853 
 
>  <homo_lumo_gap> 
7.192 
 
>  <logP> 
1.759 
 
>  <lumo_energy> 
1.339 
 
>  <melting_point> 
-16.26 
 
>  <molecular_refractivity> 
28.93 
 
>  <oscillator_strength_1> 
0.0004 
 
>  <oscillator_strength_2> 
0.0327 
 
>  <oscillator_strength_3> 
0.0234 
 
>  <oscillator_strength_4> 
0.0011 
 
>  <open_babel_can_smiles> 
CCSCC 
 
>  <mulliken_charges> 
15 
1   -0.43527 
2   -0.435453 
3   -0.408119 
4   -0.407918 
5   0.075078 
6   0.14736 
7   0.150635 
8   0.16375 
9   0.147358 
10   0.150721 
11   0.163786 
12   0.168968 
13   0.17506 
14   0.169027 
15   0.175019 
 
>  <lowdin_charges> 
15 
1   -0.448404 
2   -0.446928 
3   -0.374 
4   -0.376066 
5   0.080191 
6   0.153196 
7   0.14922 
8   0.15917 
9   0.150725 
10   0.150898 
11   0.158457 
12   0.154242 
13   0.166843 
14   0.153907 
15   0.168547 
 
$$$$ 
 
