PCCDB-ID:  31269 
public computational chemistry database (PCCDB) project, http://pccdb.org 
 
 12 11  0  0  0  0  0  0  0  0999 V2000 
    0.4385    0.2545   -0.4093 C   0  0  0  0  0  0  0  0  0  0  0  0 
   -1.1673   -2.3342    1.4520 C   0  0  0  0  0  0  0  0  0  0  0  0 
   -0.4016    0.8406   -1.1526 N   0  0  0  0  0  0  0  0  0  0  0  0 
   -0.3246   -2.9293    2.1851 N   0  0  0  0  0  0  0  0  0  0  0  0 
    0.2290   -0.8533    0.5136 N   0  0  0  0  0  0  0  0  0  0  0  0 
   -0.9579   -1.2257    0.5298 N   0  0  0  0  0  0  0  0  0  0  0  0 
    1.7391    0.5852   -0.3533 O   0  0  0  0  0  0  0  0  0  0  0  0 
   -2.4707   -2.6555    1.4067 O   0  0  0  0  0  0  0  0  0  0  0  0 
   -1.3267    0.4207   -1.0282 H   0  0  0  0  0  0  0  0  0  0  0  0 
    0.6021   -2.5146    2.0548 H   0  0  0  0  0  0  0  0  0  0  0  0 
    1.8578    1.3256   -0.9751 H   0  0  0  0  0  0  0  0  0  0  0  0 
   -2.5892   -3.3966    2.0277 H   0  0  0  0  0  0  0  0  0  0  0  0 
  1  7  1  0  0  0  0 
  1  5  1  0  0  0  0 
  2  4  2  0  0  0  0 
  3  9  1  0  0  0  0 
  3  1  2  0  0  0  0 
  5  6  1  0  0  0  0 
  6  2  1  0  0  0  0 
  8  2  1  0  0  0  0 
  8 12  1  0  0  0  0 
 10  4  1  0  0  0  0 
 11  7  1  0  0  0  0 
M  RAD  2   5   2   6   2 
M  END 
>  <HBA> 
6 
 
>  <HBD> 
2 
 
>  <TPSA> 
110.9 
 
>  <cid> 
31269 
 
>  <dipole> 
0.0 
 
>  <excitation_energy_1> 
2.44 
 
>  <excitation_energy_2> 
3.523 
 
>  <excitation_energy_3> 
3.811 
 
>  <excitation_energy_4> 
4.043 
 
>  <homo_energy> 
-7.35 
 
>  <homo_lumo_gap> 
3.995 
 
>  <logP> 
0.997 
 
>  <lumo_energy> 
-3.355 
 
>  <melting_point> 
163.56 
 
>  <molecular_refractivity> 
23.18 
 
>  <oscillator_strength_1> 
0.0 
 
>  <oscillator_strength_2> 
0.0036 
 
>  <oscillator_strength_3> 
0.09 
 
>  <oscillator_strength_4> 
0.0 
 
>  <open_babel_can_smiles> 
OC(=N)[N][N]C(=N)O 
 
>  <mulliken_charges> 
12 
1   0.596298 
2   0.59627 
3   -0.580938 
4   -0.580925 
5   -0.205767 
6   -0.20577 
7   -0.567089 
8   -0.567082 
9   0.329028 
10   0.329024 
11   0.428476 
12   0.428477 
 
>  <lowdin_charges> 
12 
1   0.125252 
2   0.125278 
3   -0.386179 
4   -0.386174 
5   -0.055379 
6   -0.055381 
7   -0.337507 
8   -0.337516 
9   0.279112 
10   0.279102 
11   0.374698 
12   0.374695 
 
$$$$ 
 
