PCCDB-ID:  35409 
public computational chemistry database (PCCDB) project, http://pccdb.org 
 
 20 19  0  0  0  0  0  0  0  0999 V2000 
    2.9135   -0.3560   -1.4426 C   0  0  0  0  0  0  0  0  0  0  0  0 
    0.7483    0.1125   -0.2520 C   0  0  0  0  0  0  0  0  0  0  0  0 
    4.9224   -2.4411    2.4275 C   0  0  0  0  0  0  0  0  0  0  0  0 
    4.8758   -0.9343    2.1837 C   0  0  0  0  0  0  0  0  0  0  0  0 
    5.5062   -3.1506    0.1508 C   0  0  0  0  0  0  0  0  0  0  0  0 
    2.2134   -0.2339   -0.3070 C   0  0  0  0  0  0  0  0  0  0  0  0 
    2.8466   -0.4827    1.0200 C   0  0  0  0  0  0  0  0  0  0  0  0 
    5.5823   -3.1606    1.3592 N   0  0  0  0  0  0  0  0  0  0  0  0 
    5.5445   -3.2515   -1.0243 O   0  0  0  0  0  0  0  0  0  0  0  0 
    2.2267   -0.5422    2.0639 O   0  0  0  0  0  0  0  0  0  0  0  0 
    4.1996   -0.6368    0.9516 O   0  0  0  0  0  0  0  0  0  0  0  0 
    2.4401   -0.1972   -2.4079 H   0  0  0  0  0  0  0  0  0  0  0  0 
    3.9626   -0.6287   -1.4460 H   0  0  0  0  0  0  0  0  0  0  0  0 
    0.3480    0.2687   -1.2575 H   0  0  0  0  0  0  0  0  0  0  0  0 
    0.5802    1.0207    0.3383 H   0  0  0  0  0  0  0  0  0  0  0  0 
    0.1769   -0.6843    0.2367 H   0  0  0  0  0  0  0  0  0  0  0  0 
    3.9043   -2.8246    2.5611 H   0  0  0  0  0  0  0  0  0  0  0  0 
    5.4694   -2.6317    3.3563 H   0  0  0  0  0  0  0  0  0  0  0  0 
    5.8835   -0.5312    2.0601 H   0  0  0  0  0  0  0  0  0  0  0  0 
    4.3686   -0.4392    3.0152 H   0  0  0  0  0  0  0  0  0  0  0  0 
  1  6  2  0  0  0  0 
  2 16  1  0  0  0  0 
  2 15  1  0  0  0  0 
  3 17  1  0  0  0  0 
  3 18  1  0  0  0  0 
  4  3  1  0  0  0  0 
  4 20  1  0  0  0  0 
  5  8  2  0  0  0  0 
  6  2  1  0  0  0  0 
  6  7  1  0  0  0  0 
  7 10  2  0  0  0  0 
  8  3  1  0  0  0  0 
  9  5  2  0  0  0  0 
 11  7  1  0  0  0  0 
 11  4  1  0  0  0  0 
 12  1  1  0  0  0  0 
 13  1  1  0  0  0  0 
 14  2  1  0  0  0  0 
 19  4  1  0  0  0  0 
M  END 
>  <HBA> 
4 
 
>  <HBD> 
0 
 
>  <TPSA> 
55.73 
 
>  <cid> 
35409 
 
>  <dipole> 
1.44 
 
>  <excitation_energy_1> 
4.878 
 
>  <excitation_energy_2> 
5.501 
 
>  <excitation_energy_3> 
5.809 
 
>  <excitation_energy_4> 
6.046 
 
>  <homo_energy> 
-7.418 
 
>  <homo_lumo_gap> 
6.12 
 
>  <logP> 
0.442 
 
>  <lumo_energy> 
-1.298 
 
>  <melting_point> 
18.81 
 
>  <molecular_refractivity> 
38.83 
 
>  <oscillator_strength_1> 
0.001 
 
>  <oscillator_strength_2> 
0.0179 
 
>  <oscillator_strength_3> 
0.1506 
 
>  <oscillator_strength_4> 
0.0485 
 
>  <open_babel_can_smiles> 
CC(=C)C(=O)OCCN=C=O 
 
>  <mulliken_charges> 
20 
1   -0.367609 
2   -0.500577 
3   -0.159035 
4   -0.0619 
5   0.638145 
6   0.124187 
7   0.59196 
8   -0.439738 
9   -0.418338 
10   -0.481998 
11   -0.476558 
12   0.153517 
13   0.185825 
14   0.151138 
15   0.1708 
16   0.176341 
17   0.190252 
18   0.17298 
19   0.16905 
20   0.181559 
 
>  <lowdin_charges> 
20 
1   -0.289483 
2   -0.435262 
3   -0.180355 
4   -0.140093 
5   0.172921 
6   -0.031483 
7   0.200756 
8   -0.182593 
9   -0.157522 
10   -0.266411 
11   -0.196359 
12   0.165888 
13   0.178943 
14   0.157125 
15   0.16744 
16   0.171492 
17   0.167506 
18   0.166422 
19   0.160812 
20   0.170256 
 
$$$$ 
 
