PCCDB-ID:  8135 
public computational chemistry database (PCCDB) project, http://pccdb.org 
 
 20 20  0  0  0  0  0  0  0  0999 V2000 
    4.1630    2.6185   -0.8086 C   0  0  0  0  0  0  0  0  0  0  0  0 
    5.2942    1.9043   -1.0087 C   0  0  0  0  0  0  0  0  0  0  0  0 
    3.1045    2.9490    0.2474 C   0  0  0  0  0  0  0  0  0  0  0  0 
    6.3550    1.0761   -0.2784 C   0  0  0  0  0  0  0  0  0  0  0  0 
    3.3825    2.8276    1.7707 C   0  0  0  0  0  0  0  0  0  0  0  0 
    6.0787    0.3872    1.0859 C   0  0  0  0  0  0  0  0  0  0  0  0 
    4.0650    1.5121    1.9248 C   0  0  0  0  0  0  0  0  0  0  0  0 
    5.3956    1.4298    1.9022 C   0  0  0  0  0  0  0  0  0  0  0  0 
    3.8334    3.0858   -1.7406 H   0  0  0  0  0  0  0  0  0  0  0  0 
    5.6217    1.9870   -2.0487 H   0  0  0  0  0  0  0  0  0  0  0  0 
    2.7527    3.9690    0.0344 H   0  0  0  0  0  0  0  0  0  0  0  0 
    2.2408    2.3046    0.0156 H   0  0  0  0  0  0  0  0  0  0  0  0 
    6.7089    0.3163   -0.9904 H   0  0  0  0  0  0  0  0  0  0  0  0 
    7.2169    1.7494   -0.1417 H   0  0  0  0  0  0  0  0  0  0  0  0 
    2.4281    2.9219    2.3054 H   0  0  0  0  0  0  0  0  0  0  0  0 
    4.0371    3.6426    2.1019 H   0  0  0  0  0  0  0  0  0  0  0  0 
    7.0337    0.0296    1.4929 H   0  0  0  0  0  0  0  0  0  0  0  0 
    5.4252   -0.4820    0.9453 H   0  0  0  0  0  0  0  0  0  0  0  0 
    3.4787    0.6334    1.6459 H   0  0  0  0  0  0  0  0  0  0  0  0 
    5.9821    2.3244    2.1243 H   0  0  0  0  0  0  0  0  0  0  0  0 
  1  3  1  0  0  0  0 
  2  1  2  0  0  0  0 
  2  4  1  0  0  0  0 
  3  5  1  0  0  0  0 
  4 14  1  0  0  0  0 
  4  6  1  0  0  0  0 
  5  7  1  0  0  0  0 
  5 16  1  0  0  0  0 
  5 15  1  0  0  0  0 
  6 17  1  0  0  0  0 
  6  8  1  0  0  0  0 
  8  7  1  0  0  0  0 
  8 20  1  0  0  0  0 
  9  1  1  0  0  0  0 
 10  2  1  0  0  0  0 
 11  3  1  0  0  0  0 
 12  3  1  0  0  0  0 
 13  4  1  0  0  0  0 
 18  6  1  0  0  0  0 
 19  7  1  0  0  0  0 
M  RAD  2   7   2   8   2 
M  END 
>  <HBA> 
0 
 
>  <HBD> 
0 
 
>  <TPSA> 
0.0 
 
>  <cid> 
8135 
 
>  <dipole> 
0.53 
 
>  <excitation_energy_1> 
5.549 
 
>  <excitation_energy_2> 
5.783 
 
>  <excitation_energy_3> 
5.803 
 
>  <excitation_energy_4> 
6.013 
 
>  <homo_energy> 
-6.136 
 
>  <homo_lumo_gap> 
6.651 
 
>  <logP> 
2.673 
 
>  <lumo_energy> 
0.514 
 
>  <melting_point> 
14.27 
 
>  <molecular_refractivity> 
37.51 
 
>  <oscillator_strength_1> 
0.0043 
 
>  <oscillator_strength_2> 
0.0041 
 
>  <oscillator_strength_3> 
0.0125 
 
>  <oscillator_strength_4> 
0.0868 
 
>  <open_babel_can_smiles> 
[CH]1[CH]CCC=CCC1 
 
>  <mulliken_charges> 
20 
1   -0.110738 
2   -0.110429 
3   -0.299977 
4   -0.299985 
5   -0.290907 
6   -0.290726 
7   -0.094622 
8   -0.094752 
9   0.114461 
10   0.114409 
11   0.141125 
12   0.152351 
13   0.141085 
14   0.152363 
15   0.130975 
16   0.141346 
17   0.130958 
18   0.14135 
19   0.11584 
20   0.115874 
 
>  <lowdin_charges> 
20 
1   -0.18048 
2   -0.179642 
3   -0.274484 
4   -0.276203 
5   -0.269419 
6   -0.26928 
7   -0.168002 
8   -0.167457 
9   0.151149 
10   0.149539 
11   0.149102 
12   0.154795 
13   0.151008 
14   0.154767 
15   0.143693 
16   0.148644 
17   0.143843 
18   0.148215 
19   0.145263 
20   0.144948 
 
$$$$ 
 
