PCCDB-ID:  7050 
public computational chemistry database (PCCDB) project, http://pccdb.org 
 
 34 35  0  0  0  0  0  0  0  0999 V2000 
    2.7279   -2.7558   -0.5904 C   0  0  0  0  0  0  0  0  0  0  0  0 
    3.6462    1.3761   -2.3019 C   0  0  0  0  0  0  0  0  0  0  0  0 
   10.8296   -1.1493   -1.0578 C   0  0  0  0  0  0  0  0  0  0  0  0 
    3.2179   -1.9236   -1.7823 C   0  0  0  0  0  0  0  0  0  0  0  0 
    3.6992    0.4182   -1.1048 C   0  0  0  0  0  0  0  0  0  0  0  0 
    6.5334   -0.1866   -1.1664 C   0  0  0  0  0  0  0  0  0  0  0  0 
    7.8820   -0.4857   -1.1289 C   0  0  0  0  0  0  0  0  0  0  0  0 
   10.0783   -3.4911   -1.4849 C   0  0  0  0  0  0  0  0  0  0  0  0 
    6.0347   -2.5183   -1.5798 C   0  0  0  0  0  0  0  0  0  0  0  0 
    9.7591   -2.1824   -1.2926 C   0  0  0  0  0  0  0  0  0  0  0  0 
    5.5610   -1.2025   -1.3930 C   0  0  0  0  0  0  0  0  0  0  0  0 
    8.3663   -1.7948   -1.3165 C   0  0  0  0  0  0  0  0  0  0  0  0 
    7.3966   -2.7930   -1.5440 C   0  0  0  0  0  0  0  0  0  0  0  0 
    9.0835   -4.5227   -1.7149 C   0  0  0  0  0  0  0  0  0  0  0  0 
    4.2124   -0.9110   -1.4305 N   0  0  0  0  0  0  0  0  0  0  0  0 
    9.2949   -5.7009   -1.8918 O   0  0  0  0  0  0  0  0  0  0  0  0 
    7.7498   -4.0979   -1.7322 O   0  0  0  0  0  0  0  0  0  0  0  0 
    1.9834   -3.4907   -0.9179 H   0  0  0  0  0  0  0  0  0  0  0  0 
    2.2627   -2.1168    0.1687 H   0  0  0  0  0  0  0  0  0  0  0  0 
    3.5546   -3.2933   -0.1157 H   0  0  0  0  0  0  0  0  0  0  0  0 
    3.2394    2.3478   -1.9977 H   0  0  0  0  0  0  0  0  0  0  0  0 
    3.0062    0.9739   -3.0952 H   0  0  0  0  0  0  0  0  0  0  0  0 
    4.6423    1.5375   -2.7260 H   0  0  0  0  0  0  0  0  0  0  0  0 
   11.8233   -1.6044   -1.0733 H   0  0  0  0  0  0  0  0  0  0  0  0 
   10.6957   -0.6541   -0.0882 H   0  0  0  0  0  0  0  0  0  0  0  0 
   10.7996   -0.3674   -1.8266 H   0  0  0  0  0  0  0  0  0  0  0  0 
    2.3700   -1.4031   -2.2423 H   0  0  0  0  0  0  0  0  0  0  0  0 
    3.6267   -2.5739   -2.5624 H   0  0  0  0  0  0  0  0  0  0  0  0 
    2.6910    0.2871   -0.6957 H   0  0  0  0  0  0  0  0  0  0  0  0 
    4.2943    0.8488   -0.2927 H   0  0  0  0  0  0  0  0  0  0  0  0 
    6.2286    0.8438   -1.0357 H   0  0  0  0  0  0  0  0  0  0  0  0 
    8.5877    0.3214   -0.9560 H   0  0  0  0  0  0  0  0  0  0  0  0 
   11.1063   -3.8362   -1.4762 H   0  0  0  0  0  0  0  0  0  0  0  0 
    5.3675   -3.3556   -1.7346 H   0  0  0  0  0  0  0  0  0  0  0  0 
  1 20  1  0  0  0  0 
  1 19  1  0  0  0  0 
  2 21  1  0  0  0  0 
  2  5  1  0  0  0  0 
  3 25  1  0  0  0  0 
  4 15  1  0  0  0  0 
  4  1  1  0  0  0  0 
  5 29  1  0  0  0  0 
  5 30  1  0  0  0  0 
  6  7  1  0  0  0  0 
  6 31  1  0  0  0  0 
  7 32  1  0  0  0  0 
  8 33  1  0  0  0  0 
  8 10  2  0  0  0  0 
  9 13  2  0  0  0  0 
  9 11  1  0  0  0  0 
 10  3  1  0  0  0  0 
 11  6  2  0  0  0  0 
 12 10  1  0  0  0  0 
 12  7  2  0  0  0  0 
 13 12  1  0  0  0  0 
 14  8  1  0  0  0  0 
 15 11  1  0  0  0  0 
 15  5  1  0  0  0  0 
 16 14  2  0  0  0  0 
 17 14  1  0  0  0  0 
 17 13  1  0  0  0  0 
 18  1  1  0  0  0  0 
 22  2  1  0  0  0  0 
 23  2  1  0  0  0  0 
 24  3  1  0  0  0  0 
 26  3  1  0  0  0  0 
 27  4  1  0  0  0  0 
 28  4  1  0  0  0  0 
 34  9  1  0  0  0  0 
M  END 
>  <HBA> 
3 
 
>  <HBD> 
0 
 
>  <TPSA> 
33.45 
 
>  <cid> 
7050 
 
>  <dipole> 
6.96 
 
>  <excitation_energy_1> 
3.657 
 
>  <excitation_energy_2> 
4.3 
 
>  <excitation_energy_3> 
4.594 
 
>  <excitation_energy_4> 
4.627 
 
>  <homo_energy> 
-5.268 
 
>  <homo_lumo_gap> 
4.035 
 
>  <logP> 
2.948 
 
>  <lumo_energy> 
-1.233 
 
>  <melting_point> 
96.18 
 
>  <molecular_refractivity> 
71.27 
 
>  <oscillator_strength_1> 
0.4128 
 
>  <oscillator_strength_2> 
0.0078 
 
>  <oscillator_strength_3> 
0.0221 
 
>  <oscillator_strength_4> 
0.0019 
 
>  <open_babel_can_smiles> 
CCN(c1ccc2c(c1)oc(=O)cc2C)CC 
 
>  <mulliken_charges> 
34 
1   -0.445604 
2   -0.443872 
3   -0.535544 
4   -0.153222 
5   -0.154276 
6   -0.189614 
7   -0.217286 
8   -0.311129 
9   -0.272039 
10   0.200852 
11   0.389596 
12   0.080505 
13   0.317331 
14   0.602407 
15   -0.484457 
16   -0.481805 
17   -0.525392 
18   0.150317 
19   0.150277 
20   0.168441 
21   0.147766 
22   0.153615 
23   0.162728 
24   0.168843 
25   0.170807 
26   0.170731 
27   0.150512 
28   0.163995 
29   0.152281 
30   0.158454 
31   0.129216 
32   0.131967 
33   0.145802 
34   0.147796 
 
>  <lowdin_charges> 
34 
1   -0.458287 
2   -0.455749 
3   -0.440623 
4   -0.198525 
5   -0.195655 
6   -0.217686 
7   -0.142621 
8   -0.234208 
9   -0.239806 
10   0.043173 
11   0.079061 
12   -0.074816 
13   0.124112 
14   0.192179 
15   -0.101939 
16   -0.25362 
17   -0.141294 
18   0.156755 
19   0.153029 
20   0.161139 
21   0.154124 
22   0.154592 
23   0.15677 
24   0.164806 
25   0.166131 
26   0.166801 
27   0.151241 
28   0.156478 
29   0.150359 
30   0.153316 
31   0.160448 
32   0.162457 
33   0.173002 
34   0.174855 
 
$$$$ 
 
