PCCDB-ID:  11173 
public computational chemistry database (PCCDB) project, http://pccdb.org 
 
 16 15  0  0  0  0  0  0  0  0999 V2000 
    0.9165    0.0868    0.0758 C   0  0  0  0  0  0  0  0  0  0  0  0 
    2.9174   -1.2969    0.7984 C   0  0  0  0  0  0  0  0  0  0  0  0 
    3.2049    0.9107   -0.4095 C   0  0  0  0  0  0  0  0  0  0  0  0 
    4.7050    0.9587   -0.4778 C   0  0  0  0  0  0  0  0  0  0  0  0 
    2.4208   -0.0439    0.1177 C   0  0  0  0  0  0  0  0  0  0  0  0 
    5.1679    1.1665   -1.8161 O   0  0  0  0  0  0  0  0  0  0  0  0 
    0.4915    0.0838    1.0894 H   0  0  0  0  0  0  0  0  0  0  0  0 
    0.4621   -0.7630   -0.4527 H   0  0  0  0  0  0  0  0  0  0  0  0 
    0.5993    1.0081   -0.4222 H   0  0  0  0  0  0  0  0  0  0  0  0 
    2.4482   -2.1864    0.3562 H   0  0  0  0  0  0  0  0  0  0  0  0 
    2.6366   -1.2957    1.8608 H   0  0  0  0  0  0  0  0  0  0  0  0 
    4.0010   -1.4233    0.7429 H   0  0  0  0  0  0  0  0  0  0  0  0 
    2.7237    1.7737   -0.8717 H   0  0  0  0  0  0  0  0  0  0  0  0 
    5.1668    0.0636   -0.0374 H   0  0  0  0  0  0  0  0  0  0  0  0 
    5.0834    1.8224    0.0827 H   0  0  0  0  0  0  0  0  0  0  0  0 
    4.7707    0.4675   -2.3592 H   0  0  0  0  0  0  0  0  0  0  0  0 
  1  5  1  0  0  0  0 
  1  7  1  0  0  0  0 
  2 11  1  0  0  0  0 
  3  5  2  0  0  0  0 
  4  3  1  0  0  0  0 
  4 14  1  0  0  0  0 
  4 15  1  0  0  0  0 
  5  2  1  0  0  0  0 
  6  4  1  0  0  0  0 
  8  1  1  0  0  0  0 
  9  1  1  0  0  0  0 
 10  2  1  0  0  0  0 
 12  2  1  0  0  0  0 
 13  3  1  0  0  0  0 
 16  6  1  0  0  0  0 
M  END 
>  <HBA> 
1 
 
>  <HBD> 
1 
 
>  <TPSA> 
20.23 
 
>  <cid> 
11173 
 
>  <dipole> 
2.21 
 
>  <excitation_energy_1> 
5.968 
 
>  <excitation_energy_2> 
6.167 
 
>  <excitation_energy_3> 
6.495 
 
>  <excitation_energy_4> 
6.584 
 
>  <homo_energy> 
-6.474 
 
>  <homo_lumo_gap> 
6.934 
 
>  <logP> 
0.945 
 
>  <lumo_energy> 
0.46 
 
>  <melting_point> 
5.93 
 
>  <molecular_refractivity> 
26.84 
 
>  <oscillator_strength_1> 
0.0884 
 
>  <oscillator_strength_2> 
0.0885 
 
>  <oscillator_strength_3> 
0.0746 
 
>  <oscillator_strength_4> 
0.0107 
 
>  <open_babel_can_smiles> 
OCC=C(C)C 
 
>  <mulliken_charges> 
16 
1   -0.505739 
2   -0.515308 
3   -0.20584 
4   -0.064194 
5   0.192164 
6   -0.615409 
7   0.153378 
8   0.151317 
9   0.155821 
10   0.152779 
11   0.158764 
12   0.156317 
13   0.125235 
14   0.125225 
15   0.152066 
16   0.383422 
 
>  <lowdin_charges> 
16 
1   -0.440354 
2   -0.443862 
3   -0.219092 
4   -0.134237 
5   -0.000695 
6   -0.473255 
7   0.154567 
8   0.155031 
9   0.157068 
10   0.156208 
11   0.157839 
12   0.154135 
13   0.15311 
14   0.130763 
15   0.15293 
16   0.339845 
 
$$$$ 
 
