PCCDB-ID:  11357 
public computational chemistry database (PCCDB) project, http://pccdb.org 
 
 20 20  0  0  0  0  0  0  0  0999 V2000 
    3.7235    0.4580    0.7240 C   0  0  0  0  0  0  0  0  0  0  0  0 
    2.4826   -0.1015    0.0026 C   0  0  0  0  0  0  0  0  0  0  0  0 
    3.0170   -3.2582   -2.0933 C   0  0  0  0  0  0  0  0  0  0  0  0 
    3.4803   -2.7246   -3.2959 C   0  0  0  0  0  0  0  0  0  0  0  0 
    2.6902   -2.3903   -1.0509 C   0  0  0  0  0  0  0  0  0  0  0  0 
    3.6063   -1.3461   -3.4456 C   0  0  0  0  0  0  0  0  0  0  0  0 
    2.8158   -1.0025   -1.1688 C   0  0  0  0  0  0  0  0  0  0  0  0 
    3.2814   -0.4728   -2.3954 C   0  0  0  0  0  0  0  0  0  0  0  0 
    3.4742    0.9089   -2.5565 N   0  0  0  0  0  0  0  0  0  0  0  0 
    3.4319    1.1075    1.5578 H   0  0  0  0  0  0  0  0  0  0  0  0 
    4.3519    1.0371    0.0396 H   0  0  0  0  0  0  0  0  0  0  0  0 
    4.3339   -0.3581    1.1254 H   0  0  0  0  0  0  0  0  0  0  0  0 
    1.8473    0.7372   -0.3244 H   0  0  0  0  0  0  0  0  0  0  0  0 
    1.8724   -0.6644    0.7189 H   0  0  0  0  0  0  0  0  0  0  0  0 
    2.9082   -4.3317   -1.9685 H   0  0  0  0  0  0  0  0  0  0  0  0 
    3.7389   -3.3789   -4.1245 H   0  0  0  0  0  0  0  0  0  0  0  0 
    2.3241   -2.7966   -0.1099 H   0  0  0  0  0  0  0  0  0  0  0  0 
    3.9642   -0.9308   -4.3860 H   0  0  0  0  0  0  0  0  0  0  0  0 
    3.4882    1.2087   -3.5244 H   0  0  0  0  0  0  0  0  0  0  0  0 
    2.8509    1.4919   -2.0109 H   0  0  0  0  0  0  0  0  0  0  0  0 
  1 12  1  0  0  0  0 
  1 10  1  0  0  0  0 
  2 14  1  0  0  0  0 
  2  1  1  0  0  0  0 
  3 15  1  0  0  0  0 
  3  5  2  0  0  0  0 
  4  3  1  0  0  0  0 
  5 17  1  0  0  0  0 
  6  4  2  0  0  0  0 
  6  8  1  0  0  0  0 
  7  5  1  0  0  0  0 
  7  2  1  0  0  0  0 
  8  7  2  0  0  0  0 
  9  8  1  0  0  0  0 
  9 20  1  0  0  0  0 
 11  1  1  0  0  0  0 
 13  2  1  0  0  0  0 
 16  4  1  0  0  0  0 
 18  6  1  0  0  0  0 
 19  9  1  0  0  0  0 
M  END 
>  <HBA> 
1 
 
>  <HBD> 
1 
 
>  <TPSA> 
26.02 
 
>  <cid> 
11357 
 
>  <dipole> 
1.65 
 
>  <excitation_energy_1> 
4.622 
 
>  <excitation_energy_2> 
4.841 
 
>  <excitation_energy_3> 
5.289 
 
>  <excitation_energy_4> 
5.328 
 
>  <homo_energy> 
-5.339 
 
>  <homo_lumo_gap> 
5.646 
 
>  <logP> 
2.412 
 
>  <lumo_energy> 
0.307 
 
>  <melting_point> 
56.65 
 
>  <molecular_refractivity> 
40.62 
 
>  <oscillator_strength_1> 
0.0338 
 
>  <oscillator_strength_2> 
0.0225 
 
>  <oscillator_strength_3> 
0.0253 
 
>  <oscillator_strength_4> 
0.0196 
 
>  <open_babel_can_smiles> 
CCc1ccccc1N 
 
>  <mulliken_charges> 
20 
1   -0.439659 
2   -0.357029 
3   -0.131863 
4   -0.138715 
5   -0.203334 
6   -0.169411 
7   0.159127 
8   0.23837 
9   -0.790195 
10   0.137964 
11   0.165305 
12   0.151192 
13   0.125767 
14   0.144956 
15   0.118698 
16   0.122378 
17   0.117032 
18   0.112127 
19   0.317281 
20   0.320009 
 
>  <lowdin_charges> 
20 
1   -0.449333 
2   -0.273658 
3   -0.184136 
4   -0.152787 
5   -0.159208 
6   -0.200429 
7   -0.04162 
8   0.051992 
9   -0.494531 
10   0.147174 
11   0.158496 
12   0.153355 
13   0.136814 
14   0.152047 
15   0.152183 
16   0.155812 
17   0.151819 
18   0.149989 
19   0.271716 
20   0.274305 
 
$$$$ 
 
