PCCDB-ID:  70698 
public computational chemistry database (PCCDB) project, http://pccdb.org 
 
 12 11  0  0  0  0  0  0  0  0999 V2000 
    1.0828    0.0732   -0.2228 C   0  0  0  0  0  0  0  0  0  0  0  0 
    3.3590   -0.9883    0.4020 C   0  0  0  0  0  0  0  0  0  0  0  0 
    3.2617   -2.0018   -0.6529 C   0  0  0  0  0  0  0  0  0  0  0  0 
    2.5432    0.2742    0.1062 C   0  0  0  0  0  0  0  0  0  0  0  0 
    3.1661   -2.7948   -1.4952 N   0  0  0  0  0  0  0  0  0  0  0  0 
    3.1665    1.3806    0.1926 N   0  0  0  0  0  0  0  0  0  0  0  0 
    0.5715   -0.4573    0.5909 H   0  0  0  0  0  0  0  0  0  0  0  0 
    0.9700   -0.5425   -1.1230 H   0  0  0  0  0  0  0  0  0  0  0  0 
    0.5800    1.0309   -0.3853 H   0  0  0  0  0  0  0  0  0  0  0  0 
    4.4032   -0.6942    0.5418 H   0  0  0  0  0  0  0  0  0  0  0  0 
    3.0082   -1.4380    1.3417 H   0  0  0  0  0  0  0  0  0  0  0  0 
    2.5308    2.1654    0.0089 H   0  0  0  0  0  0  0  0  0  0  0  0 
  1  4  1  0  0  0  0 
  1  7  1  0  0  0  0 
  2 10  1  0  0  0  0 
  2 11  1  0  0  0  0 
  3  2  1  0  0  0  0 
  4  6  2  0  0  0  0 
  4  2  1  0  0  0  0 
  5  3  3  0  0  0  0 
  8  1  1  0  0  0  0 
  9  1  1  0  0  0  0 
 12  6  1  0  0  0  0 
M  END 
>  <HBA> 
2 
 
>  <HBD> 
1 
 
>  <TPSA> 
47.64 
 
>  <cid> 
70698 
 
>  <dipole> 
3.53 
 
>  <excitation_energy_1> 
5.486 
 
>  <excitation_energy_2> 
6.68 
 
>  <excitation_energy_3> 
7.224 
 
>  <excitation_energy_4> 
7.342 
 
>  <homo_energy> 
-7.603 
 
>  <homo_lumo_gap> 
7.075 
 
>  <logP> 
1.039 
 
>  <lumo_energy> 
-0.528 
 
>  <melting_point> 
39.97 
 
>  <molecular_refractivity> 
24.68 
 
>  <oscillator_strength_1> 
0.0056 
 
>  <oscillator_strength_2> 
0.0349 
 
>  <oscillator_strength_3> 
0.0026 
 
>  <oscillator_strength_4> 
0.0459 
 
>  <open_babel_can_smiles> 
CC(=N)CC#N 
 
>  <mulliken_charges> 
12 
1   -0.510877 
2   -0.387791 
3   0.353176 
4   0.310629 
5   -0.467185 
6   -0.551928 
7   0.173364 
8   0.198759 
9   0.162842 
10   0.225147 
11   0.205318 
12   0.288547 
 
>  <lowdin_charges> 
12 
1   -0.466886 
2   -0.280367 
3   -0.016537 
4   0.072029 
5   -0.123087 
6   -0.350373 
7   0.171765 
8   0.183355 
9   0.163695 
10   0.200863 
11   0.190873 
12   0.25467 
 
$$$$ 
 
