PCCDB-ID:  35700 
public computational chemistry database (PCCDB) project, http://pccdb.org 
 
 24 26  0  0  0  0  0  0  0  0999 V2000 
    0.9756    0.2396   -0.0691 C   0  0  0  0  0  0  0  0  0  0  0  0 
    6.6942    4.3168   -0.0697 C   0  0  0  0  0  0  0  0  0  0  0  0 
    7.9836    3.7626   -0.0696 C   0  0  0  0  0  0  0  0  0  0  0  0 
    5.5724    3.4952   -0.0697 C   0  0  0  0  0  0  0  0  0  0  0  0 
    8.1636    2.3816   -0.0696 C   0  0  0  0  0  0  0  0  0  0  0  0 
    3.0693   -1.1972   -0.0683 C   0  0  0  0  0  0  0  0  0  0  0  0 
    4.4519   -1.3667   -0.0687 C   0  0  0  0  0  0  0  0  0  0  0  0 
    3.3109    1.2022   -0.0695 C   0  0  0  0  0  0  0  0  0  0  0  0 
    2.4795    0.0803   -0.0684 C   0  0  0  0  0  0  0  0  0  0  0  0 
    5.7273    2.1007   -0.0693 C   0  0  0  0  0  0  0  0  0  0  0  0 
    4.7049    1.0642   -0.0688 C   0  0  0  0  0  0  0  0  0  0  0  0 
    7.0337    1.5609   -0.0692 C   0  0  0  0  0  0  0  0  0  0  0  0 
    5.2642   -0.2336   -0.0683 C   0  0  0  0  0  0  0  0  0  0  0  0 
    7.0324   -0.2074   -0.0680 S   0  0  0  0  0  0  0  0  0  0  0  0 
    0.4712   -0.7317   -0.0648 H   0  0  0  0  0  0  0  0  0  0  0  0 
    0.6305    0.7889   -0.9538 H   0  0  0  0  0  0  0  0  0  0  0  0 
    0.6305    0.7969    0.8106 H   0  0  0  0  0  0  0  0  0  0  0  0 
    6.5719    5.3962   -0.0700 H   0  0  0  0  0  0  0  0  0  0  0  0 
    8.8522    4.4152   -0.0691 H   0  0  0  0  0  0  0  0  0  0  0  0 
    4.5767    3.9307   -0.0701 H   0  0  0  0  0  0  0  0  0  0  0  0 
    9.1617    1.9532   -0.0704 H   0  0  0  0  0  0  0  0  0  0  0  0 
    2.4290   -2.0759   -0.0681 H   0  0  0  0  0  0  0  0  0  0  0  0 
    4.8836   -2.3635   -0.0700 H   0  0  0  0  0  0  0  0  0  0  0  0 
    2.8697    2.1968   -0.0713 H   0  0  0  0  0  0  0  0  0  0  0  0 
  1  9  1  0  0  0  0 
  1 15  1  0  0  0  0 
  1 17  1  0  0  0  0 
  2  3  1  0  0  0  0 
  3 19  1  0  0  0  0 
  4  2  2  0  0  0  0 
  4 10  1  0  0  0  0 
  5  3  2  0  0  0  0 
  5 12  1  0  0  0  0 
  6 22  1  0  0  0  0 
  7 13  2  0  0  0  0 
  7  6  1  0  0  0  0 
  8 11  2  0  0  0  0 
  8  9  1  0  0  0  0 
  9  6  2  0  0  0  0 
 10 12  2  0  0  0  0 
 10 11  1  0  0  0  0 
 11 13  1  0  0  0  0 
 12 14  1  0  0  0  0 
 13 14  1  0  0  0  0 
 16  1  1  0  0  0  0 
 18  2  1  0  0  0  0 
 20  4  1  0  0  0  0 
 21  5  1  0  0  0  0 
 23  7  1  0  0  0  0 
 24  8  1  0  0  0  0 
M  END 
>  <HBA> 
1 
 
>  <HBD> 
0 
 
>  <TPSA> 
28.24 
 
>  <cid> 
35700 
 
>  <dipole> 
1.22 
 
>  <excitation_energy_1> 
4.012 
 
>  <excitation_energy_2> 
4.507 
 
>  <excitation_energy_3> 
4.792 
 
>  <excitation_energy_4> 
4.883 
 
>  <homo_energy> 
-5.701 
 
>  <homo_lumo_gap> 
4.795 
 
>  <logP> 
4.363 
 
>  <lumo_energy> 
-0.906 
 
>  <melting_point> 
97.06 
 
>  <molecular_refractivity> 
64.3 
 
>  <oscillator_strength_1> 
0.0257 
 
>  <oscillator_strength_2> 
0.1232 
 
>  <oscillator_strength_3> 
0.0001 
 
>  <oscillator_strength_4> 
0.0261 
 
>  <open_babel_can_smiles> 
Cc1ccc2c(c1)c1ccccc1s2 
 
>  <mulliken_charges> 
24 
1   -0.529824 
2   -0.147643 
3   -0.114307 
4   -0.16513 
5   -0.182974 
6   -0.167568 
7   -0.181446 
8   -0.221424 
9   0.162603 
10   0.105914 
11   0.112779 
12   -0.143972 
13   -0.145893 
14   0.207158 
15   0.155245 
16   0.163357 
17   0.163262 
18   0.13129 
19   0.132431 
20   0.133173 
21   0.141687 
22   0.125112 
23   0.140669 
24   0.125504 
 
>  <lowdin_charges> 
24 
1   -0.443138 
2   -0.159678 
3   -0.154106 
4   -0.152801 
5   -0.163784 
6   -0.16485 
7   -0.162747 
8   -0.162781 
9   -0.001961 
10   -0.020118 
11   -0.017734 
12   -0.123988 
13   -0.128473 
14   0.255966 
15   0.156778 
16   0.161487 
17   0.161478 
18   0.1573 
19   0.161218 
20   0.159072 
21   0.164556 
22   0.158027 
23   0.164366 
24   0.155911 
 
$$$$ 
 
