PCCDB-ID:  29147 
public computational chemistry database (PCCDB) project, http://pccdb.org 
 
 19 19  0  0  0  0  0  0  0  0999 V2000 
   -0.7130    1.0921   -0.2415 C   0  0  0  0  0  0  0  0  0  0  0  0 
    1.4156   -0.0422   -0.1033 C   0  0  0  0  0  0  0  0  0  0  0  0 
   -1.3754   -0.1303   -0.1802 C   0  0  0  0  0  0  0  0  0  0  0  0 
    0.7707   -1.2735   -0.0362 C   0  0  0  0  0  0  0  0  0  0  0  0 
    1.4096    2.4865   -0.2296 C   0  0  0  0  0  0  0  0  0  0  0  0 
    0.6874    1.1520   -0.2002 C   0  0  0  0  0  0  0  0  0  0  0  0 
   -0.6221   -1.2988   -0.0762 C   0  0  0  0  0  0  0  0  0  0  0  0 
    0.6668    3.4945   -0.9889 N   0  0  0  0  0  0  0  0  0  0  0  0 
   -1.3138   -2.5939   -0.0129 N   0  0  0  0  0  0  0  0  0  0  0  0 
   -2.5445   -2.5895   -0.0533 O   0  0  0  0  0  0  0  0  0  0  0  0 
   -0.6227   -3.6094    0.0775 O   0  0  0  0  0  0  0  0  0  0  0  0 
   -1.2718    2.0174   -0.3312 H   0  0  0  0  0  0  0  0  0  0  0  0 
    2.5022   -0.0091   -0.0842 H   0  0  0  0  0  0  0  0  0  0  0  0 
   -2.4562   -0.1936   -0.2116 H   0  0  0  0  0  0  0  0  0  0  0  0 
    1.3209   -2.2032    0.0395 H   0  0  0  0  0  0  0  0  0  0  0  0 
    2.4432    2.3195   -0.5806 H   0  0  0  0  0  0  0  0  0  0  0  0 
    1.4979    2.8580    0.8012 H   0  0  0  0  0  0  0  0  0  0  0  0 
    0.6986    3.2744   -1.9831 H   0  0  0  0  0  0  0  0  0  0  0  0 
    1.1068    4.4054   -0.8769 H   0  0  0  0  0  0  0  0  0  0  0  0 
  1  6  2  0  0  0  0 
  1  3  1  0  0  0  0 
  2 13  1  0  0  0  0 
  2  4  2  0  0  0  0 
  3  7  2  0  0  0  0 
  4 15  1  0  0  0  0 
  5  6  1  0  0  0  0 
  5 17  1  0  0  0  0 
  6  2  1  0  0  0  0 
  7  4  1  0  0  0  0 
  7  9  1  0  0  0  0 
  8 19  1  0  0  0  0 
  8  5  1  0  0  0  0 
  9 11  2  0  0  0  0 
 10  9  2  0  0  0  0 
 12  1  1  0  0  0  0 
 14  3  1  0  0  0  0 
 16  5  1  0  0  0  0 
 18  8  1  0  0  0  0 
M  END 
>  <HBA> 
1 
 
>  <HBD> 
1 
 
>  <TPSA> 
71.84 
 
>  <cid> 
29147 
 
>  <dipole> 
6.19 
 
>  <excitation_energy_1> 
3.744 
 
>  <excitation_energy_2> 
3.954 
 
>  <excitation_energy_3> 
4.249 
 
>  <excitation_energy_4> 
4.282 
 
>  <homo_energy> 
-6.887 
 
>  <homo_lumo_gap> 
4.621 
 
>  <logP> 
2.277 
 
>  <lumo_energy> 
-2.267 
 
>  <melting_point> 
101.2 
 
>  <molecular_refractivity> 
42.94 
 
>  <oscillator_strength_1> 
0.0 
 
>  <oscillator_strength_2> 
0.0435 
 
>  <oscillator_strength_3> 
0.0129 
 
>  <oscillator_strength_4> 
0.0056 
 
>  <open_babel_can_smiles> 
NCc1ccc(cc1)N(=O)=O 
 
>  <mulliken_charges> 
19 
1   -0.179282 
2   -0.196546 
3   -0.150532 
4   -0.148434 
5   -0.210333 
6   0.160567 
7   0.274081 
8   -0.717578 
9   0.377478 
10   -0.397144 
11   -0.398566 
12   0.1706 
13   0.13808 
14   0.181047 
15   0.180615 
16   0.132903 
17   0.170401 
18   0.304889 
19   0.307756 
 
>  <lowdin_charges> 
19 
1   -0.153735 
2   -0.159198 
3   -0.133753 
4   -0.137582 
5   -0.200447 
6   0.007714 
7   -0.002266 
8   -0.548222 
9   0.305976 
10   -0.247368 
11   -0.251455 
12   0.179799 
13   0.160158 
14   0.184551 
15   0.186774 
16   0.129554 
17   0.159964 
18   0.25742 
19   0.262118 
 
$$$$ 
 
