PCCDB-ID:  69972 
public computational chemistry database (PCCDB) project, http://pccdb.org 
 
 10 10  0  0  0  0  0  0  0  0999 V2000 
   -0.9661    0.2383    0.0234 C   0  0  0  0  0  0  0  0  0  0  0  0 
   -0.3335   -0.9424   -0.0236 C   0  0  0  0  0  0  0  0  0  0  0  0 
    0.3139    1.0558    0.0252 C   0  0  0  0  0  0  0  0  0  0  0  0 
    1.0560   -0.3295   -0.0303 C   0  0  0  0  0  0  0  0  0  0  0  0 
   -2.0137    0.5275    0.0510 H   0  0  0  0  0  0  0  0  0  0  0  0 
   -0.6731   -1.9749   -0.0489 H   0  0  0  0  0  0  0  0  0  0  0  0 
    0.5062    1.6452    0.9303 H   0  0  0  0  0  0  0  0  0  0  0  0 
    0.4744    1.6995   -0.8486 H   0  0  0  0  0  0  0  0  0  0  0  0 
    1.6508   -0.4974   -0.9367 H   0  0  0  0  0  0  0  0  0  0  0  0 
    1.6832   -0.5512    0.8421 H   0  0  0  0  0  0  0  0  0  0  0  0 
  1  3  1  0  0  0  0 
  1  5  1  0  0  0  0 
  2  1  2  0  0  0  0 
  3  7  1  0  0  0  0 
  4  2  1  0  0  0  0 
  4  3  1  0  0  0  0 
  4 10  1  0  0  0  0 
  6  2  1  0  0  0  0 
  8  3  1  0  0  0  0 
  9  4  1  0  0  0  0 
M  END 
>  <HBA> 
0 
 
>  <HBD> 
0 
 
>  <TPSA> 
0.0 
 
>  <cid> 
69972 
 
>  <dipole> 
0.11 
 
>  <excitation_energy_1> 
6.485 
 
>  <excitation_energy_2> 
6.679 
 
>  <excitation_energy_3> 
6.705 
 
>  <excitation_energy_4> 
6.978 
 
>  <homo_energy> 
-6.626 
 
>  <homo_lumo_gap> 
7.369 
 
>  <logP> 
1.336 
 
>  <lumo_energy> 
0.743 
 
>  <melting_point> 
7.13 
 
>  <molecular_refractivity> 
18.75 
 
>  <oscillator_strength_1> 
0.0051 
 
>  <oscillator_strength_2> 
0.0223 
 
>  <oscillator_strength_3> 
0.0 
 
>  <oscillator_strength_4> 
0.2032 
 
>  <open_babel_can_smiles> 
C1CC=C1 
 
>  <mulliken_charges> 
10 
1   -0.100809 
2   -0.101147 
3   -0.305356 
4   -0.305376 
5   0.120077 
6   0.120096 
7   0.143126 
8   0.143132 
9   0.143121 
10   0.143138 
 
>  <lowdin_charges> 
10 
1   -0.167583 
2   -0.168265 
3   -0.274012 
4   -0.274665 
5   0.147442 
6   0.147665 
7   0.147281 
8   0.147405 
9   0.147254 
10   0.147478 
 
$$$$ 
 
