PCCDB-ID:  7621 
public computational chemistry database (PCCDB) project, http://pccdb.org 
 
 35 34  0  0  0  0  0  0  0  0999 V2000 
    5.0251    3.2885    0.8822 C   0  0  0  0  0  0  0  0  0  0  0  0 
    2.7612   -1.1921   -5.0126 C   0  0  0  0  0  0  0  0  0  0  0  0 
    4.7767    1.8326    0.4745 C   0  0  0  0  0  0  0  0  0  0  0  0 
    4.1844   -1.7553   -4.9133 C   0  0  0  0  0  0  0  0  0  0  0  0 
    5.4630    1.4457   -0.8427 C   0  0  0  0  0  0  0  0  0  0  0  0 
    5.2909   -0.6878   -4.9317 C   0  0  0  0  0  0  0  0  0  0  0  0 
    5.1815   -0.0186   -1.2332 C   0  0  0  0  0  0  0  0  0  0  0  0 
    5.3542    0.2027   -3.6790 C   0  0  0  0  0  0  0  0  0  0  0  0 
    7.2452   -0.7135   -2.3934 C   0  0  0  0  0  0  0  0  0  0  0  0 
    7.5712   -2.0484   -1.7145 C   0  0  0  0  0  0  0  0  0  0  0  0 
    5.7909   -0.5174   -2.4739 N   0  0  0  0  0  0  0  0  0  0  0  0 
    6.8853   -3.1110   -2.3476 O   0  0  0  0  0  0  0  0  0  0  0  0 
    4.5190    3.5304    1.8236 H   0  0  0  0  0  0  0  0  0  0  0  0 
    4.6557    3.9823    0.1170 H   0  0  0  0  0  0  0  0  0  0  0  0 
    6.0954    3.4865    1.0178 H   0  0  0  0  0  0  0  0  0  0  0  0 
    2.0185   -1.9974   -5.0313 H   0  0  0  0  0  0  0  0  0  0  0  0 
    2.6338   -0.5997   -5.9275 H   0  0  0  0  0  0  0  0  0  0  0  0 
    2.5146   -0.5436   -4.1634 H   0  0  0  0  0  0  0  0  0  0  0  0 
    3.6949    1.6586    0.3832 H   0  0  0  0  0  0  0  0  0  0  0  0 
    5.1243    1.1641    1.2752 H   0  0  0  0  0  0  0  0  0  0  0  0 
    4.3514   -2.4466   -5.7494 H   0  0  0  0  0  0  0  0  0  0  0  0 
    4.2769   -2.3567   -3.9999 H   0  0  0  0  0  0  0  0  0  0  0  0 
    6.5446    1.6135   -0.7480 H   0  0  0  0  0  0  0  0  0  0  0  0 
    5.1160    2.1167   -1.6405 H   0  0  0  0  0  0  0  0  0  0  0  0 
    5.1478   -0.0329   -5.8034 H   0  0  0  0  0  0  0  0  0  0  0  0 
    6.2612   -1.1799   -5.0774 H   0  0  0  0  0  0  0  0  0  0  0  0 
    4.0958   -0.1583   -1.3243 H   0  0  0  0  0  0  0  0  0  0  0  0 
    5.5016   -0.6730   -0.4124 H   0  0  0  0  0  0  0  0  0  0  0  0 
    4.3543    0.6046   -3.4792 H   0  0  0  0  0  0  0  0  0  0  0  0 
    5.9963    1.0762   -3.8901 H   0  0  0  0  0  0  0  0  0  0  0  0 
    7.6354   -0.7488   -3.4153 H   0  0  0  0  0  0  0  0  0  0  0  0 
    7.7631    0.1148   -1.8795 H   0  0  0  0  0  0  0  0  0  0  0  0 
    7.3261   -1.9998   -0.6390 H   0  0  0  0  0  0  0  0  0  0  0  0 
    8.6451   -2.2533   -1.7905 H   0  0  0  0  0  0  0  0  0  0  0  0 
    5.9942   -2.7478   -2.5094 H   0  0  0  0  0  0  0  0  0  0  0  0 
  1 15  1  0  0  0  0 
  1 13  1  0  0  0  0 
  2  4  1  0  0  0  0 
  2 18  1  0  0  0  0 
  3  1  1  0  0  0  0 
  3 20  1  0  0  0  0 
  4 22  1  0  0  0  0 
  5 23  1  0  0  0  0 
  5  3  1  0  0  0  0 
  6  4  1  0  0  0  0 
  6  8  1  0  0  0  0 
  7  5  1  0  0  0  0 
  7 28  1  0  0  0  0 
  8 29  1  0  0  0  0 
  8 11  1  0  0  0  0 
  9 32  1  0  0  0  0 
  9 10  1  0  0  0  0 
 10 33  1  0  0  0  0 
 11  9  1  0  0  0  0 
 11  7  1  0  0  0  0 
 12 10  1  0  0  0  0 
 14  1  1  0  0  0  0 
 16  2  1  0  0  0  0 
 17  2  1  0  0  0  0 
 19  3  1  0  0  0  0 
 21  4  1  0  0  0  0 
 24  5  1  0  0  0  0 
 25  6  1  0  0  0  0 
 26  6  1  0  0  0  0 
 27  7  1  0  0  0  0 
 30  8  1  0  0  0  0 
 31  9  1  0  0  0  0 
 34 10  1  0  0  0  0 
 35 12  1  0  0  0  0 
M  END 
>  <HBA> 
2 
 
>  <HBD> 
1 
 
>  <TPSA> 
23.47 
 
>  <cid> 
7621 
 
>  <dipole> 
2.67 
 
>  <excitation_energy_1> 
5.349 
 
>  <excitation_energy_2> 
5.508 
 
>  <excitation_energy_3> 
5.632 
 
>  <excitation_energy_4> 
5.752 
 
>  <homo_energy> 
-5.823 
 
>  <homo_lumo_gap> 
7.758 
 
>  <logP> 
1.881 
 
>  <lumo_energy> 
1.935 
 
>  <melting_point> 
-7.97 
 
>  <molecular_refractivity> 
54.24 
 
>  <oscillator_strength_1> 
0.0223 
 
>  <oscillator_strength_2> 
0.0103 
 
>  <oscillator_strength_3> 
0.0151 
 
>  <oscillator_strength_4> 
0.0029 
 
>  <open_babel_can_smiles> 
CCCCN(CCCC)CCO 
 
>  <mulliken_charges> 
35 
1   -0.441076 
2   -0.446558 
3   -0.24976 
4   -0.247798 
5   -0.263837 
6   -0.260284 
7   -0.143563 
8   -0.131534 
9   -0.157232 
10   -0.020826 
11   -0.411352 
12   -0.635826 
13   0.144117 
14   0.14254 
15   0.142856 
16   0.145294 
17   0.140813 
18   0.141167 
19   0.132112 
20   0.133299 
21   0.136003 
22   0.138055 
23   0.135039 
24   0.135163 
25   0.126747 
26   0.143103 
27   0.13874 
28   0.140767 
29   0.139473 
30   0.122565 
31   0.151025 
32   0.121488 
33   0.114966 
34   0.137388 
35   0.406926 
 
>  <lowdin_charges> 
35 
1   -0.443131 
2   -0.44927 
3   -0.269946 
4   -0.275236 
5   -0.293047 
6   -0.285332 
7   -0.207235 
8   -0.201037 
9   -0.22366 
10   -0.13654 
11   -0.192466 
12   -0.475208 
13   0.150572 
14   0.147898 
15   0.145476 
16   0.152039 
17   0.145825 
18   0.144398 
19   0.13756 
20   0.140852 
21   0.145679 
22   0.141282 
23   0.138473 
24   0.142004 
25   0.141772 
26   0.146804 
27   0.140005 
28   0.144816 
29   0.144131 
30   0.127477 
31   0.150612 
32   0.13024 
33   0.117866 
34   0.142726 
35   0.3336 
 
$$$$ 
 
