PCCDB-ID:  9244 
public computational chemistry database (PCCDB) project, http://pccdb.org 
 
 14 15  0  0  1  0  0  0  0  0999 V2000 
    0.7624    1.3335    0.2943 C   0  0  0  0  0  0  0  0  0  0  0  0 
    1.4240    0.0039   -0.1506 C   0  0  0  0  0  0  0  0  0  0  0  0 
   -0.7245    1.2226   -0.1302 C   0  0  0  0  0  0  0  0  0  0  0  0 
    0.2828   -0.9949   -0.1230 C   0  0  2  0  0  0  0  0  0  0  0  0 
   -0.9956   -0.2698   -0.1112 C   0  0  1  0  0  0  0  0  0  0  0  0 
   -0.5130   -0.9280    1.0770 O   0  0  0  0  0  0  0  0  0  0  0  0 
    1.2556    2.2105   -0.1356 H   0  0  0  0  0  0  0  0  0  0  0  0 
    0.8222    1.4205    1.3820 H   0  0  0  0  0  0  0  0  0  0  0  0 
    2.2591   -0.2858    0.4970 H   0  0  0  0  0  0  0  0  0  0  0  0 
    1.8090    0.0697   -1.1775 H   0  0  0  0  0  0  0  0  0  0  0  0 
   -0.8802    1.5961   -1.1517 H   0  0  0  0  0  0  0  0  0  0  0  0 
   -1.3926    1.7847    0.5320 H   0  0  0  0  0  0  0  0  0  0  0  0 
    0.3946   -1.9906   -0.5502 H   0  0  0  0  0  0  0  0  0  0  0  0 
   -1.9135   -0.6814   -0.5286 H   0  0  0  0  0  0  0  0  0  0  0  0 
  1  8  1  0  0  0  0 
  2  4  1  0  0  0  0 
  2  1  1  0  0  0  0 
  2  9  1  0  0  0  0 
  3  5  1  0  0  0  0 
  3  1  1  0  0  0  0 
  3 12  1  0  0  0  0 
  4 13  1  6  0  0  0 
  4  5  1  0  0  0  0 
  4  6  1  0  0  0  0 
  5 14  1  6  0  0  0 
  5  6  1  0  0  0  0 
  7  1  1  0  0  0  0 
 10  2  1  0  0  0  0 
 11  3  1  0  0  0  0 
M  END 
>  <HBA> 
1 
 
>  <HBD> 
0 
 
>  <TPSA> 
12.53 
 
>  <cid> 
9244 
 
>  <dipole> 
1.97 
 
>  <excitation_energy_1> 
6.71 
 
>  <excitation_energy_2> 
7.078 
 
>  <excitation_energy_3> 
7.216 
 
>  <excitation_energy_4> 
7.357 
 
>  <homo_energy> 
-6.958 
 
>  <homo_lumo_gap> 
9.611 
 
>  <logP> 
0.938 
 
>  <lumo_energy> 
2.653 
 
>  <melting_point> 
10.31 
 
>  <molecular_refractivity> 
23.01 
 
>  <oscillator_strength_1> 
0.0148 
 
>  <oscillator_strength_2> 
0.023 
 
>  <oscillator_strength_3> 
0.0105 
 
>  <oscillator_strength_4> 
0.0089 
 
>  <open_babel_can_smiles> 
C1C[C@@H]2[C@H](C1)O2 
 
>  <mulliken_charges> 
14 
1   -0.29321 
2   -0.275144 
3   -0.275165 
4   0.073764 
5   0.073671 
6   -0.458866 
7   0.138743 
8   0.16209 
9   0.150185 
10   0.137124 
11   0.137118 
12   0.150196 
13   0.139754 
14   0.13974 
 
>  <lowdin_charges> 
14 
1   -0.279925 
2   -0.28478 
3   -0.28611 
4   -0.032872 
5   -0.033522 
6   -0.294071 
7   0.149422 
8   0.154359 
9   0.154667 
10   0.146937 
11   0.146999 
12   0.155357 
13   0.151337 
14   0.152201 
 
$$$$ 
 
