PCCDB-ID:  61252 
public computational chemistry database (PCCDB) project, http://pccdb.org 
 
 12 12  0  0  0  0  0  0  0  0999 V2000 
   -0.7376   -1.0396   -0.1881 C   0  0  0  0  0  0  0  0  0  0  0  0 
    0.7345   -1.1464    0.2052 C   0  0  0  0  0  0  0  0  0  0  0  0 
   -0.0092    1.3936    0.0249 C   0  0  0  0  0  0  0  0  0  0  0  0 
   -1.1907    0.4075    0.0108 C   0  0  0  0  0  0  0  0  0  0  0  0 
   -2.3394    0.7616    0.1446 O   0  0  0  0  0  0  0  0  0  0  0  0 
    1.5196    0.4465   -0.3236 S   0  0  0  0  0  0  0  0  0  0  0  0 
   -1.3931   -1.7114    0.3745 H   0  0  0  0  0  0  0  0  0  0  0  0 
   -0.8618   -1.2688   -1.2556 H   0  0  0  0  0  0  0  0  0  0  0  0 
    1.2551   -1.9621   -0.3003 H   0  0  0  0  0  0  0  0  0  0  0  0 
    0.8521   -1.2773    1.2857 H   0  0  0  0  0  0  0  0  0  0  0  0 
    0.0258    1.8846    1.0046 H   0  0  0  0  0  0  0  0  0  0  0  0 
   -0.1650    2.1674   -0.7319 H   0  0  0  0  0  0  0  0  0  0  0  0 
  1  4  1  0  0  0  0 
  1  2  1  0  0  0  0 
  1  7  1  0  0  0  0 
  2 10  1  0  0  0  0 
  3 11  1  0  0  0  0 
  4  3  1  0  0  0  0 
  4  5  2  0  0  0  0 
  6  3  1  0  0  0  0 
  6  2  1  0  0  0  0 
  8  1  1  0  0  0  0 
  9  2  1  0  0  0  0 
 12  3  1  0  0  0  0 
M  END 
>  <HBA> 
2 
 
>  <HBD> 
0 
 
>  <TPSA> 
42.37 
 
>  <cid> 
61252 
 
>  <dipole> 
1.63 
 
>  <excitation_energy_1> 
4.175 
 
>  <excitation_energy_2> 
4.511 
 
>  <excitation_energy_3> 
5.082 
 
>  <excitation_energy_4> 
5.603 
 
>  <homo_energy> 
-6.291 
 
>  <homo_lumo_gap> 
5.445 
 
>  <logP> 
0.692 
 
>  <lumo_energy> 
-0.846 
 
>  <melting_point> 
27.7 
 
>  <molecular_refractivity> 
27.02 
 
>  <oscillator_strength_1> 
0.0012 
 
>  <oscillator_strength_2> 
0.0011 
 
>  <oscillator_strength_3> 
0.0002 
 
>  <oscillator_strength_4> 
0.0107 
 
>  <open_babel_can_smiles> 
O=C1CSCC1 
 
>  <mulliken_charges> 
12 
1   -0.347698 
2   -0.428382 
3   -0.496655 
4   0.447788 
5   -0.423626 
6   0.093053 
7   0.182505 
8   0.192208 
9   0.185973 
10   0.182875 
11   0.203933 
12   0.208026 
 
>  <lowdin_charges> 
12 
1   -0.313702 
2   -0.370823 
3   -0.412784 
4   0.160175 
5   -0.215549 
6   0.093455 
7   0.176319 
8   0.179857 
9   0.174288 
10   0.15813 
11   0.180705 
12   0.189927 
 
$$$$ 
 
