PCCDB-ID:  24823 
public computational chemistry database (PCCDB) project, http://pccdb.org 
 
  3  2  0  0  0  0  0  0  0  0999 V2000 
    1.0454   -0.0274    0.0716 O   0  0  0  0  0  0  0  0  0  0  0  0 
    2.9389    0.0335   -0.9798 O   0  0  0  0  0  0  0  0  0  0  0  0 
    2.3090   -0.0299    0.1147 O   0  0  0  0  0  0  0  0  0  0  0  0 
  1  3  1  0  0  0  0 
  2  3  1  0  0  0  0 
M  RAD  2   1   2   2   2 
M  END 
>  <HBA> 
3 
 
>  <HBD> 
0 
 
>  <TPSA> 
51.21 
 
>  <cid> 
24823 
 
>  <dipole> 
0.61 
 
>  <excitation_energy_1> 
2.059 
 
>  <excitation_energy_2> 
2.248 
 
>  <excitation_energy_3> 
5.23 
 
>  <excitation_energy_4> 
8.89 
 
>  <homo_energy> 
-9.121 
 
>  <homo_lumo_gap> 
4.095 
 
>  <logP> 
0.101 
 
>  <lumo_energy> 
-5.026 
 
>  <melting_point> 
0.0 
 
>  <molecular_refractivity> 
10.1 
 
>  <oscillator_strength_1> 
0.0 
 
>  <oscillator_strength_2> 
0.0 
 
>  <oscillator_strength_3> 
0.1147 
 
>  <oscillator_strength_4> 
0.0016 
 
>  <open_babel_can_smiles> 
[O]O[O] 
 
>  <mulliken_charges> 
3 
1   -0.11554 
2   -0.115566 
3   0.231106 
 
>  <lowdin_charges> 
3 
1   -0.131325 
2   -0.133915 
3   0.26524 
 
$$$$ 
 
