PCCDB-ID:  8167 
public computational chemistry database (PCCDB) project, http://pccdb.org 
 
 38 37  0  0  0  0  0  0  0  0999 V2000 
    2.2198    1.0153    2.6125 C   0  0  0  0  0  0  0  0  0  0  0  0 
   12.2228   -4.8021    7.3185 C   0  0  0  0  0  0  0  0  0  0  0  0 
    1.9646   -0.4780    2.3764 C   0  0  0  0  0  0  0  0  0  0  0  0 
    2.6551   -1.0497    1.1252 C   0  0  0  0  0  0  0  0  0  0  0  0 
    4.1933   -1.0003    1.1223 C   0  0  0  0  0  0  0  0  0  0  0  0 
    4.8635   -1.8390    2.2196 C   0  0  0  0  0  0  0  0  0  0  0  0 
    6.3960   -1.8304    2.1373 C   0  0  0  0  0  0  0  0  0  0  0  0 
    7.0708   -2.6637    3.2343 C   0  0  0  0  0  0  0  0  0  0  0  0 
    8.6036   -2.6426    3.1632 C   0  0  0  0  0  0  0  0  0  0  0  0 
    9.2676   -3.4800    4.2647 C   0  0  0  0  0  0  0  0  0  0  0  0 
   10.7900   -3.4396    4.1801 C   0  0  0  0  0  0  0  0  0  0  0  0 
   11.5998   -3.7788    6.3968 C   0  0  0  0  0  0  0  0  0  0  0  0 
   11.3099   -2.6432    6.7053 O   0  0  0  0  0  0  0  0  0  0  0  0 
   11.4021   -4.3052    5.1650 O   0  0  0  0  0  0  0  0  0  0  0  0 
    1.6478    1.3817    3.4726 H   0  0  0  0  0  0  0  0  0  0  0  0 
    1.9242    1.6096    1.7386 H   0  0  0  0  0  0  0  0  0  0  0  0 
    3.2775    1.2236    2.8101 H   0  0  0  0  0  0  0  0  0  0  0  0 
   12.4521   -4.3356    8.2771 H   0  0  0  0  0  0  0  0  0  0  0  0 
   13.1330   -5.2142    6.8719 H   0  0  0  0  0  0  0  0  0  0  0  0 
   11.5287   -5.6356    7.4716 H   0  0  0  0  0  0  0  0  0  0  0  0 
    0.8832   -0.6428    2.2763 H   0  0  0  0  0  0  0  0  0  0  0  0 
    2.2714   -1.0459    3.2649 H   0  0  0  0  0  0  0  0  0  0  0  0 
    2.2859   -0.5066    0.2431 H   0  0  0  0  0  0  0  0  0  0  0  0 
    2.3363   -2.0937    0.9933 H   0  0  0  0  0  0  0  0  0  0  0  0 
    4.5345    0.0412    1.2041 H   0  0  0  0  0  0  0  0  0  0  0  0 
    4.5481   -1.3524    0.1431 H   0  0  0  0  0  0  0  0  0  0  0  0 
    4.5011   -2.8762    2.1563 H   0  0  0  0  0  0  0  0  0  0  0  0 
    4.5599   -1.4719    3.2099 H   0  0  0  0  0  0  0  0  0  0  0  0 
    6.7557   -0.7924    2.1978 H   0  0  0  0  0  0  0  0  0  0  0  0 
    6.7104   -2.2030    1.1510 H   0  0  0  0  0  0  0  0  0  0  0  0 
    6.7191   -3.7040    3.1699 H   0  0  0  0  0  0  0  0  0  0  0  0 
    6.7507   -2.2953    4.2198 H   0  0  0  0  0  0  0  0  0  0  0  0 
    8.9543   -1.6027    3.2327 H   0  0  0  0  0  0  0  0  0  0  0  0 
    8.9262   -3.0090    2.1772 H   0  0  0  0  0  0  0  0  0  0  0  0 
    8.9355   -4.5243    4.1933 H   0  0  0  0  0  0  0  0  0  0  0  0 
    8.9610   -3.1088    5.2500 H   0  0  0  0  0  0  0  0  0  0  0  0 
   11.1641   -2.4220    4.3212 H   0  0  0  0  0  0  0  0  0  0  0  0 
   11.1440   -3.8252    3.2197 H   0  0  0  0  0  0  0  0  0  0  0  0 
  1 17  1  0  0  0  0 
  1 15  1  0  0  0  0 
  2 20  1  0  0  0  0 
  2 18  1  0  0  0  0 
  3  1  1  0  0  0  0 
  3 22  1  0  0  0  0 
  4  3  1  0  0  0  0 
  5  4  1  0  0  0  0 
  5 25  1  0  0  0  0 
  5  6  1  0  0  0  0 
  6 28  1  0  0  0  0 
  7 29  1  0  0  0  0 
  7  6  1  0  0  0  0 
  7  8  1  0  0  0  0 
  8 32  1  0  0  0  0 
  9 33  1  0  0  0  0 
  9  8  1  0  0  0  0 
  9 10  1  0  0  0  0 
 10 36  1  0  0  0  0 
 11 10  1  0  0  0  0 
 11 37  1  0  0  0  0 
 11 14  1  0  0  0  0 
 12 13  2  0  0  0  0 
 12  2  1  0  0  0  0 
 14 12  1  0  0  0  0 
 16  1  1  0  0  0  0 
 19  2  1  0  0  0  0 
 21  3  1  0  0  0  0 
 23  4  1  0  0  0  0 
 24  4  1  0  0  0  0 
 26  5  1  0  0  0  0 
 27  6  1  0  0  0  0 
 30  7  1  0  0  0  0 
 31  8  1  0  0  0  0 
 34  9  1  0  0  0  0 
 35 10  1  0  0  0  0 
 38 11  1  0  0  0  0 
M  END 
>  <HBA> 
2 
 
>  <HBD> 
0 
 
>  <TPSA> 
26.3 
 
>  <cid> 
8167 
 
>  <dipole> 
1.75 
 
>  <excitation_energy_1> 
5.812 
 
>  <excitation_energy_2> 
7.017 
 
>  <excitation_energy_3> 
7.405 
 
>  <excitation_energy_4> 
7.472 
 
>  <homo_energy> 
-7.263 
 
>  <homo_lumo_gap> 
7.717 
 
>  <logP> 
3.69 
 
>  <lumo_energy> 
0.454 
 
>  <melting_point> 
-18.11 
 
>  <molecular_refractivity> 
61.08 
 
>  <oscillator_strength_1> 
0.001 
 
>  <oscillator_strength_2> 
0.0351 
 
>  <oscillator_strength_3> 
0.0899 
 
>  <oscillator_strength_4> 
0.0096 
 
>  <open_babel_can_smiles> 
CCCCCCCCCCOC(=O)C 
 
>  <mulliken_charges> 
38 
1   -0.443323 
2   -0.522787 
3   -0.250339 
4   -0.251801 
5   -0.256175 
6   -0.25422 
7   -0.253888 
8   -0.252686 
9   -0.264344 
10   -0.278248 
11   -0.043263 
12   0.600457 
13   -0.470229 
14   -0.456379 
15   0.141811 
16   0.140456 
17   0.14529 
18   0.181308 
19   0.179984 
20   0.181305 
21   0.130358 
22   0.134522 
23   0.125769 
24   0.125716 
25   0.131183 
26   0.12659 
27   0.125858 
28   0.133036 
29   0.12849 
30   0.126681 
31   0.128585 
32   0.13235 
33   0.136819 
34   0.128722 
35   0.140091 
36   0.159179 
37   0.166205 
38   0.146911 
 
>  <lowdin_charges> 
38 
1   -0.447536 
2   -0.464908 
3   -0.274544 
4   -0.275865 
5   -0.276608 
6   -0.274946 
7   -0.27236 
8   -0.271037 
9   -0.272552 
10   -0.284915 
11   -0.132657 
12   0.199174 
13   -0.268279 
14   -0.198814 
15   0.15043 
16   0.146393 
17   0.145339 
18   0.174846 
19   0.176828 
20   0.178259 
21   0.139952 
22   0.140126 
23   0.140049 
24   0.137945 
25   0.137643 
26   0.139896 
27   0.135896 
28   0.138867 
29   0.13714 
30   0.136748 
31   0.137193 
32   0.139803 
33   0.140929 
34   0.137654 
35   0.143973 
36   0.154536 
37   0.155733 
38   0.14967 
 
$$$$ 
 
