PCCDB-ID:  27731 
public computational chemistry database (PCCDB) project, http://pccdb.org 
 
 35 35  0  0  1  0  0  0  0  0999 V2000 
    4.3436   -2.7255   -0.5359 C   0  0  0  0  0  0  0  0  0  0  0  0 
    2.2371   -1.8197    0.5178 C   0  0  0  0  0  0  0  0  0  0  0  0 
    8.4136    1.7430    3.0300 C   0  0  0  0  0  0  0  0  0  0  0  0 
    5.8625   -0.3523    0.9022 C   0  0  0  0  0  0  0  0  0  0  0  0 
    4.4729   -0.9015    1.2579 C   0  0  0  0  0  0  0  0  0  0  0  0 
    6.5691    0.2866    2.1083 C   0  0  0  0  0  0  0  0  0  0  0  0 
   11.2606   -0.4708    0.6210 C   0  0  0  0  0  0  0  0  0  0  0  0 
   11.3510    0.6040    1.6773 C   0  0  0  0  0  0  0  0  0  0  0  0 
    3.6712   -1.4880    0.0782 C   0  0  0  0  0  0  0  0  0  0  0  0 
    7.9143    0.9690    1.8047 C   0  0  2  0  0  0  0  0  0  0  0  0 
   10.1163    0.4888    0.8158 C   0  0  0  0  0  0  0  0  0  0  0  0 
    8.9056   -0.0395    1.3955 N   0  0  0  0  0  0  0  0  0  0  0  0 
    3.7419   -3.1291   -1.3589 H   0  0  0  0  0  0  0  0  0  0  0  0 
    4.4559   -3.5206    0.2133 H   0  0  0  0  0  0  0  0  0  0  0  0 
    5.3382   -2.5009   -0.9359 H   0  0  0  0  0  0  0  0  0  0  0  0 
    1.6431   -2.2055   -0.3193 H   0  0  0  0  0  0  0  0  0  0  0  0 
    1.7248   -0.9349    0.9143 H   0  0  0  0  0  0  0  0  0  0  0  0 
    2.2368   -2.5852    1.3050 H   0  0  0  0  0  0  0  0  0  0  0  0 
    7.6809    2.5023    3.3270 H   0  0  0  0  0  0  0  0  0  0  0  0 
    9.3609    2.2502    2.8251 H   0  0  0  0  0  0  0  0  0  0  0  0 
    8.5700    1.0603    3.8733 H   0  0  0  0  0  0  0  0  0  0  0  0 
    5.7622    0.3954    0.1009 H   0  0  0  0  0  0  0  0  0  0  0  0 
    6.4764   -1.1650    0.4920 H   0  0  0  0  0  0  0  0  0  0  0  0 
    3.8843   -0.0902    1.7109 H   0  0  0  0  0  0  0  0  0  0  0  0 
    4.5756   -1.6720    2.0377 H   0  0  0  0  0  0  0  0  0  0  0  0 
    6.7341   -0.4728    2.8856 H   0  0  0  0  0  0  0  0  0  0  0  0 
    5.9002    1.0413    2.5440 H   0  0  0  0  0  0  0  0  0  0  0  0 
   11.1067   -1.4904    0.9630 H   0  0  0  0  0  0  0  0  0  0  0  0 
   11.8666   -0.3787   -0.2761 H   0  0  0  0  0  0  0  0  0  0  0  0 
   12.0214    1.4433    1.5109 H   0  0  0  0  0  0  0  0  0  0  0  0 
   11.2542    0.2915    2.7122 H   0  0  0  0  0  0  0  0  0  0  0  0 
    3.6123   -0.7131   -0.7024 H   0  0  0  0  0  0  0  0  0  0  0  0 
    7.7435    1.7035    0.9903 H   0  0  0  0  0  0  0  0  0  0  0  0 
    9.9980    1.2620    0.0466 H   0  0  0  0  0  0  0  0  0  0  0  0 
    8.4762   -0.6615    0.7137 H   0  0  0  0  0  0  0  0  0  0  0  0 
  1  9  1  0  0  0  0 
  1 14  1  0  0  0  0 
  2 17  1  0  0  0  0 
  2 18  1  0  0  0  0 
  3 19  1  0  0  0  0 
  3 21  1  0  0  0  0 
  4  5  1  0  0  0  0 
  4  6  1  0  0  0  0 
  5 24  1  0  0  0  0 
  5 25  1  0  0  0  0 
  6 27  1  0  0  0  0 
  6 26  1  0  0  0  0 
  7 11  1  0  0  0  0 
  7 28  1  0  0  0  0 
  7  8  1  0  0  0  0 
  8 31  1  0  0  0  0 
  9  2  1  0  0  0  0 
  9  5  1  0  0  0  0 
 10 33  1  6  0  0  0 
 10  6  1  0  0  0  0 
 10  3  1  0  0  0  0 
 11 12  1  0  0  0  0 
 11  8  1  0  0  0  0 
 12 10  1  0  0  0  0 
 13  1  1  0  0  0  0 
 15  1  1  0  0  0  0 
 16  2  1  0  0  0  0 
 20  3  1  0  0  0  0 
 22  4  1  0  0  0  0 
 23  4  1  0  0  0  0 
 29  7  1  0  0  0  0 
 30  8  1  0  0  0  0 
 32  9  1  0  0  0  0 
 34 11  1  0  0  0  0 
 35 12  1  0  0  0  0 
M  END 
>  <HBA> 
1 
 
>  <HBD> 
1 
 
>  <TPSA> 
12.03 
 
>  <cid> 
27731 
 
>  <dipole> 
1.01 
 
>  <excitation_energy_1> 
5.524 
 
>  <excitation_energy_2> 
5.87 
 
>  <excitation_energy_3> 
6.008 
 
>  <excitation_energy_4> 
6.123 
 
>  <homo_energy> 
-5.902 
 
>  <homo_lumo_gap> 
8.144 
 
>  <logP> 
3.344 
 
>  <lumo_energy> 
2.242 
 
>  <melting_point> 
19.87 
 
>  <molecular_refractivity> 
55.68 
 
>  <oscillator_strength_1> 
0.0123 
 
>  <oscillator_strength_2> 
0.0562 
 
>  <oscillator_strength_3> 
0.0115 
 
>  <oscillator_strength_4> 
0.0282 
 
>  <open_babel_can_smiles> 
C[C@@H](NC1CC1)CCCC(C)C 
 
>  <mulliken_charges> 
35 
1   -0.444626 
2   -0.441946 
3   -0.441483 
4   -0.275293 
5   -0.246531 
6   -0.266974 
7   -0.332405 
8   -0.297196 
9   -0.065974 
10   0.06248 
11   0.030506 
12   -0.574724 
13   0.14011 
14   0.138531 
15   0.14263 
16   0.139063 
17   0.139284 
18   0.138687 
19   0.133661 
20   0.153013 
21   0.14632 
22   0.128603 
23   0.131305 
24   0.126024 
25   0.126201 
26   0.139013 
27   0.128662 
28   0.156496 
29   0.146687 
30   0.143449 
31   0.158882 
32   0.119141 
33   0.097143 
34   0.119407 
35   0.301855 
 
>  <lowdin_charges> 
35 
1   -0.447807 
2   -0.446302 
3   -0.449767 
4   -0.282623 
5   -0.275957 
6   -0.282495 
7   -0.320123 
8   -0.319166 
9   -0.121145 
10   -0.057275 
11   -0.096423 
12   -0.353412 
13   0.1494 
14   0.146006 
15   0.146682 
16   0.148273 
17   0.147694 
18   0.145934 
19   0.147438 
20   0.155423 
21   0.151345 
22   0.138631 
23   0.138004 
24   0.140353 
25   0.138613 
26   0.146299 
27   0.144574 
28   0.161545 
29   0.157175 
30   0.155452 
31   0.162818 
32   0.134492 
33   0.112105 
34   0.12938 
35   0.254863 
 
$$$$ 
 
