PCCDB-ID:  15510 
public computational chemistry database (PCCDB) project, http://pccdb.org 
 
 16 16  0  0  0  0  0  0  0  0999 V2000 
   -0.7912   -1.0010   -0.2348 C   0  0  0  0  0  0  0  0  0  0  0  0 
    0.7265   -1.0976    0.0554 C   0  0  0  0  0  0  0  0  0  0  0  0 
   -1.1759    0.4062    0.2475 C   0  0  0  0  0  0  0  0  0  0  0  0 
    1.2562    0.3686    0.0742 C   0  0  0  0  0  0  0  0  0  0  0  0 
    0.0239    1.2816   -0.1633 C   0  0  0  0  0  0  0  0  0  0  0  0 
   -0.1001    1.9428   -1.8949 S   0  0  0  0  0  0  0  0  0  0  0  0 
   -1.3671   -1.7910    0.2581 H   0  0  0  0  0  0  0  0  0  0  0  0 
   -0.9855   -1.0924   -1.3110 H   0  0  0  0  0  0  0  0  0  0  0  0 
    1.2459   -1.7158   -0.6839 H   0  0  0  0  0  0  0  0  0  0  0  0 
    0.8933   -1.5686    1.0306 H   0  0  0  0  0  0  0  0  0  0  0  0 
   -1.2476    0.4109    1.3451 H   0  0  0  0  0  0  0  0  0  0  0  0 
   -2.1271    0.7703   -0.1500 H   0  0  0  0  0  0  0  0  0  0  0  0 
    2.0367    0.5469   -0.6698 H   0  0  0  0  0  0  0  0  0  0  0  0 
    1.6948    0.6023    1.0516 H   0  0  0  0  0  0  0  0  0  0  0  0 
    0.0790    2.2007    0.4272 H   0  0  0  0  0  0  0  0  0  0  0  0 
   -0.0563    0.7557   -2.5381 H   0  0  0  0  0  0  0  0  0  0  0  0 
  1  2  1  0  0  0  0 
  1  3  1  0  0  0  0 
  1  7  1  0  0  0  0 
  2  4  1  0  0  0  0 
  2 10  1  0  0  0  0 
  3 11  1  0  0  0  0 
  4 14  1  0  0  0  0 
  5  4  1  0  0  0  0 
  5  3  1  0  0  0  0 
  5 15  1  0  0  0  0 
  6  5  1  0  0  0  0 
  8  1  1  0  0  0  0 
  9  2  1  0  0  0  0 
 12  3  1  0  0  0  0 
 13  4  1  0  0  0  0 
 16  6  1  0  0  0  0 
M  END 
>  <HBA> 
1 
 
>  <HBD> 
1 
 
>  <TPSA> 
38.8 
 
>  <cid> 
15510 
 
>  <dipole> 
2.03 
 
>  <excitation_energy_1> 
5.22 
 
>  <excitation_energy_2> 
5.766 
 
>  <excitation_energy_3> 
5.965 
 
>  <excitation_energy_4> 
6.386 
 
>  <homo_energy> 
-6.261 
 
>  <homo_lumo_gap> 
7.037 
 
>  <logP> 
1.859 
 
>  <lumo_energy> 
0.776 
 
>  <melting_point> 
16.94 
 
>  <molecular_refractivity> 
31.96 
 
>  <oscillator_strength_1> 
0.0165 
 
>  <oscillator_strength_2> 
0.0231 
 
>  <oscillator_strength_3> 
0.001 
 
>  <oscillator_strength_4> 
0.0045 
 
>  <open_babel_can_smiles> 
SC1CCCC1 
 
>  <mulliken_charges> 
16 
1   -0.274444 
2   -0.272701 
3   -0.261645 
4   -0.273925 
5   -0.248 
6   -0.097097 
7   0.141466 
8   0.136757 
9   0.141716 
10   0.141744 
11   0.138763 
12   0.159311 
13   0.162152 
14   0.145899 
15   0.170827 
16   0.089178 
 
>  <lowdin_charges> 
16 
1   -0.284238 
2   -0.288902 
3   -0.282967 
4   -0.291526 
5   -0.219528 
6   -0.099961 
7   0.150219 
8   0.139388 
9   0.149355 
10   0.146171 
11   0.142932 
12   0.157118 
13   0.158707 
14   0.15024 
15   0.164134 
16   0.108859 
 
$$$$ 
 
