PCCDB-ID:  53570 
public computational chemistry database (PCCDB) project, http://pccdb.org 
 
 33 33  0  0  0  0  0  0  0  0999 V2000 
    2.6455    1.1641    2.2044 C   0  0  0  0  0  0  0  0  0  0  0  0 
    6.0156   -1.7841   -0.2203 C   0  0  0  0  0  0  0  0  0  0  0  0 
    1.4369   -3.1860   -2.4690 C   0  0  0  0  0  0  0  0  0  0  0  0 
   -0.6686   -2.9001   -1.2279 C   0  0  0  0  0  0  0  0  0  0  0  0 
    6.1439    1.8679    0.8577 C   0  0  0  0  0  0  0  0  0  0  0  0 
    4.9075    2.0160    1.4841 C   0  0  0  0  0  0  0  0  0  0  0  0 
    6.4722    0.6421    0.2848 C   0  0  0  0  0  0  0  0  0  0  0  0 
    2.9271   -1.9299   -0.2815 C   0  0  0  0  0  0  0  0  0  0  0  0 
    3.9810    0.9707    1.5219 C   0  0  0  0  0  0  0  0  0  0  0  0 
    5.5836   -0.4381    0.3151 C   0  0  0  0  0  0  0  0  0  0  0  0 
    1.3960   -2.0951   -0.2136 C   0  0  0  0  0  0  0  0  0  0  0  0 
    4.3156   -0.2644    0.9158 C   0  0  0  0  0  0  0  0  0  0  0  0 
    3.4039   -1.3420    0.9609 N   0  0  0  0  0  0  0  0  0  0  0  0 
    0.7740   -2.7001   -1.2701 N   0  0  0  0  0  0  0  0  0  0  0  0 
    0.7769   -1.6943    0.7719 O   0  0  0  0  0  0  0  0  0  0  0  0 
    2.5066    2.2110    2.4908 H   0  0  0  0  0  0  0  0  0  0  0  0 
    2.5621    0.5645    3.1221 H   0  0  0  0  0  0  0  0  0  0  0  0 
    1.8052    0.8729    1.5627 H   0  0  0  0  0  0  0  0  0  0  0  0 
    7.1040   -1.8220   -0.3316 H   0  0  0  0  0  0  0  0  0  0  0  0 
    5.5845   -2.0172   -1.2032 H   0  0  0  0  0  0  0  0  0  0  0  0 
    5.7109   -2.5858    0.4628 H   0  0  0  0  0  0  0  0  0  0  0  0 
    1.3313   -4.2761   -2.5567 H   0  0  0  0  0  0  0  0  0  0  0  0 
    2.4980   -2.9432   -2.4667 H   0  0  0  0  0  0  0  0  0  0  0  0 
    0.9852   -2.7303   -3.3600 H   0  0  0  0  0  0  0  0  0  0  0  0 
   -1.1508   -2.3838   -2.0680 H   0  0  0  0  0  0  0  0  0  0  0  0 
   -1.0466   -2.5007   -0.2883 H   0  0  0  0  0  0  0  0  0  0  0  0 
   -0.9082   -3.9694   -1.2960 H   0  0  0  0  0  0  0  0  0  0  0  0 
    6.8490    2.6942    0.8314 H   0  0  0  0  0  0  0  0  0  0  0  0 
    4.6445    2.9656    1.9450 H   0  0  0  0  0  0  0  0  0  0  0  0 
    7.4470    0.5044   -0.1783 H   0  0  0  0  0  0  0  0  0  0  0  0 
    3.1777   -1.2942   -1.1434 H   0  0  0  0  0  0  0  0  0  0  0  0 
    3.3839   -2.9119   -0.4694 H   0  0  0  0  0  0  0  0  0  0  0  0 
    2.5941   -1.1595    1.5473 H   0  0  0  0  0  0  0  0  0  0  0  0 
  1 16  1  0  0  0  0 
  1 17  1  0  0  0  0 
  2 10  1  0  0  0  0 
  2 21  1  0  0  0  0 
  3 23  1  0  0  0  0 
  3 14  1  0  0  0  0 
  4 26  1  0  0  0  0 
  5  6  2  0  0  0  0 
  6  9  1  0  0  0  0 
  6 29  1  0  0  0  0 
  7 10  2  0  0  0  0 
  7  5  1  0  0  0  0 
  8 11  1  0  0  0  0 
  8 13  1  0  0  0  0 
  9  1  1  0  0  0  0 
 10 12  1  0  0  0  0 
 11 15  2  0  0  0  0 
 12 13  1  0  0  0  0 
 12  9  2  0  0  0  0 
 13 33  1  0  0  0  0 
 14  4  1  0  0  0  0 
 14 11  1  0  0  0  0 
 18  1  1  0  0  0  0 
 19  2  1  0  0  0  0 
 20  2  1  0  0  0  0 
 22  3  1  0  0  0  0 
 24  3  1  0  0  0  0 
 25  4  1  0  0  0  0 
 27  4  1  0  0  0  0 
 28  5  1  0  0  0  0 
 30  7  1  0  0  0  0 
 31  8  1  0  0  0  0 
 32  8  1  0  0  0  0 
M  END 
>  <HBA> 
3 
 
>  <HBD> 
1 
 
>  <TPSA> 
32.34 
 
>  <cid> 
53570 
 
>  <dipole> 
4.34 
 
>  <excitation_energy_1> 
4.605 
 
>  <excitation_energy_2> 
4.709 
 
>  <excitation_energy_3> 
4.87 
 
>  <excitation_energy_4> 
5.163 
 
>  <homo_energy> 
-5.184 
 
>  <homo_lumo_gap> 
5.614 
 
>  <logP> 
1.877 
 
>  <lumo_energy> 
0.43 
 
>  <melting_point> 
69.58 
 
>  <molecular_refractivity> 
63.2 
 
>  <oscillator_strength_1> 
0.0119 
 
>  <oscillator_strength_2> 
0.0248 
 
>  <oscillator_strength_3> 
0.0039 
 
>  <oscillator_strength_4> 
0.0537 
 
>  <open_babel_can_smiles> 
CN(C(=O)CNc1c(C)cccc1C)C 
 
>  <mulliken_charges> 
33 
1   -0.559353 
2   -0.531339 
3   -0.322075 
4   -0.32391 
5   -0.121876 
6   -0.206229 
7   -0.205508 
8   -0.213238 
9   0.164663 
10   0.166268 
11   0.586063 
12   0.159081 
13   -0.661606 
14   -0.407943 
15   -0.525669 
16   0.151983 
17   0.161904 
18   0.173741 
19   0.150677 
20   0.140919 
21   0.17035 
22   0.164257 
23   0.17979 
24   0.164598 
25   0.155141 
26   0.209554 
27   0.155295 
28   0.116665 
29   0.113977 
30   0.11256 
31   0.165579 
32   0.162317 
33   0.353364 
 
>  <lowdin_charges> 
33 
1   -0.451085 
2   -0.441447 
3   -0.348568 
4   -0.353801 
5   -0.178729 
6   -0.169006 
7   -0.16839 
8   -0.227765 
9   -0.028959 
10   -0.029949 
11   0.156895 
12   0.029617 
13   -0.319702 
14   -0.100234 
15   -0.320812 
16   0.155972 
17   0.158066 
18   0.164538 
19   0.153341 
20   0.146774 
21   0.164326 
22   0.151334 
23   0.168184 
24   0.155538 
25   0.15159 
26   0.187206 
27   0.149123 
28   0.153692 
29   0.150775 
30   0.149449 
31   0.156983 
32   0.151629 
33   0.283417 
 
$$$$ 
 
