PCCDB-ID:  70819 
public computational chemistry database (PCCDB) project, http://pccdb.org 
 
 27 29  0  0  0  0  0  0  0  0999 V2000 
    0.9261    0.1161    0.0806 C   0  0  0  0  0  0  0  0  0  0  0  0 
    2.5039    5.3919    0.0812 C   0  0  0  0  0  0  0  0  0  0  0  0 
    4.5213   -1.2731    0.0803 C   0  0  0  0  0  0  0  0  0  0  0  0 
    6.2712    4.5787    0.0803 C   0  0  0  0  0  0  0  0  0  0  0  0 
    3.1177   -1.2041    0.0816 C   0  0  0  0  0  0  0  0  0  0  0  0 
    5.0601    5.2914    0.0811 C   0  0  0  0  0  0  0  0  0  0  0  0 
    5.2999   -0.1188    0.0794 C   0  0  0  0  0  0  0  0  0  0  0  0 
    6.2883    3.1864    0.0798 C   0  0  0  0  0  0  0  0  0  0  0  0 
    2.4291    0.0140    0.0820 C   0  0  0  0  0  0  0  0  0  0  0  0 
    3.8157    4.6514    0.0817 C   0  0  0  0  0  0  0  0  0  0  0  0 
    4.6457    1.1192    0.0805 C   0  0  0  0  0  0  0  0  0  0  0  0 
    5.0618    2.5109    0.0805 C   0  0  0  0  0  0  0  0  0  0  0  0 
    3.2404    1.1479    0.0818 C   0  0  0  0  0  0  0  0  0  0  0  0 
    3.8713    3.2584    0.0817 C   0  0  0  0  0  0  0  0  0  0  0  0 
    2.7601    2.4410    0.0826 O   0  0  0  0  0  0  0  0  0  0  0  0 
    0.4666   -0.8767    0.0755 H   0  0  0  0  0  0  0  0  0  0  0  0 
    0.5646    0.6650   -0.7974 H   0  0  0  0  0  0  0  0  0  0  0  0 
    0.5620    0.6568    0.9627 H   0  0  0  0  0  0  0  0  0  0  0  0 
    2.6658    6.4739    0.0758 H   0  0  0  0  0  0  0  0  0  0  0  0 
    1.9031    5.1407    0.9637 H   0  0  0  0  0  0  0  0  0  0  0  0 
    1.8994    5.1323   -0.7964 H   0  0  0  0  0  0  0  0  0  0  0  0 
    5.0032   -2.2468    0.0797 H   0  0  0  0  0  0  0  0  0  0  0  0 
    7.2084    5.1281    0.0799 H   0  0  0  0  0  0  0  0  0  0  0  0 
    2.5410   -2.1260    0.0827 H   0  0  0  0  0  0  0  0  0  0  0  0 
    5.0843    6.3785    0.0814 H   0  0  0  0  0  0  0  0  0  0  0  0 
    6.3846   -0.1784    0.0772 H   0  0  0  0  0  0  0  0  0  0  0  0 
    7.2274    2.6405    0.0786 H   0  0  0  0  0  0  0  0  0  0  0  0 
  1  9  1  0  0  0  0 
  1 18  1  0  0  0  0 
  2 10  1  0  0  0  0 
  2 20  1  0  0  0  0 
  3  5  1  0  0  0  0 
  4  6  1  0  0  0  0 
  5  9  2  0  0  0  0 
  5 24  1  0  0  0  0 
  6 25  1  0  0  0  0 
  6 10  2  0  0  0  0 
  7  3  2  0  0  0  0 
  7 11  1  0  0  0  0 
  8  4  2  0  0  0  0 
  8 12  1  0  0  0  0 
 10 14  1  0  0  0  0 
 11 12  1  0  0  0  0 
 11 13  2  0  0  0  0 
 12 14  2  0  0  0  0 
 13  9  1  0  0  0  0 
 13 15  1  0  0  0  0 
 14 15  1  0  0  0  0 
 16  1  1  0  0  0  0 
 17  1  1  0  0  0  0 
 19  2  1  0  0  0  0 
 21  2  1  0  0  0  0 
 22  3  1  0  0  0  0 
 23  4  1  0  0  0  0 
 26  7  1  0  0  0  0 
 27  8  1  0  0  0  0 
M  END 
>  <HBA> 
1 
 
>  <HBD> 
0 
 
>  <TPSA> 
13.14 
 
>  <cid> 
70819 
 
>  <dipole> 
0.1 
 
>  <excitation_energy_1> 
4.423 
 
>  <excitation_energy_2> 
4.62 
 
>  <excitation_energy_3> 
5.13 
 
>  <excitation_energy_4> 
5.432 
 
>  <homo_energy> 
-5.88 
 
>  <homo_lumo_gap> 
5.143 
 
>  <logP> 
4.203 
 
>  <lumo_energy> 
-0.737 
 
>  <melting_point> 
101.9 
 
>  <molecular_refractivity> 
63.65 
 
>  <oscillator_strength_1> 
0.0405 
 
>  <oscillator_strength_2> 
0.278 
 
>  <oscillator_strength_3> 
0.0308 
 
>  <oscillator_strength_4> 
0.1223 
 
>  <open_babel_can_smiles> 
Cc1cccc2c1oc1c2cccc1C 
 
>  <mulliken_charges> 
27 
1   -0.519382 
2   -0.519432 
3   -0.139547 
4   -0.139594 
5   -0.194552 
6   -0.194489 
7   -0.19896 
8   -0.199323 
9   0.111098 
10   0.11121 
11   0.095569 
12   0.095746 
13   0.250871 
14   0.250994 
15   -0.558877 
16   0.154061 
17   0.169126 
18   0.169075 
19   0.154061 
20   0.169058 
21   0.169084 
22   0.127453 
23   0.127458 
24   0.122492 
25   0.122492 
26   0.132158 
27   0.132151 
 
>  <lowdin_charges> 
27 
1   -0.437526 
2   -0.435833 
3   -0.166608 
4   -0.166977 
5   -0.16612 
6   -0.162956 
7   -0.156595 
8   -0.16004 
9   -0.019074 
10   -0.019224 
11   -0.034103 
12   -0.032591 
13   0.086041 
14   0.084646 
15   -0.134705 
16   0.157779 
17   0.165511 
18   0.165441 
19   0.15639 
20   0.165312 
21   0.165376 
22   0.157878 
23   0.158307 
24   0.157096 
25   0.154613 
26   0.157847 
27   0.160115 
 
$$$$ 
 
