PCCDB-ID:  42431 
public computational chemistry database (PCCDB) project, http://pccdb.org 
 
 23 24  0  0  1  0  0  0  0  0999 V2000 
    0.9199   -0.1572    0.3105 C   0  0  0  0  0  0  0  0  0  0  0  0 
    5.0564   -1.0542    4.0174 C   0  0  0  0  0  0  0  0  0  0  0  0 
    4.8029   -2.2484    3.3304 C   0  0  0  0  0  0  0  0  0  0  0  0 
    4.6762    0.1550    3.4469 C   0  0  0  0  0  0  0  0  0  0  0  0 
    4.1653   -2.2400    2.0912 C   0  0  0  0  0  0  0  0  0  0  0  0 
    3.6675    1.4148    1.5199 C   0  0  0  0  0  0  0  0  0  0  0  0 
    2.5915    2.6167   -0.3234 C   0  0  0  0  0  0  0  0  0  0  0  0 
    2.3708    0.0722   -0.1178 C   0  0  1  0  0  0  0  0  0  0  0  0 
    4.0279    0.1918    2.2010 C   0  0  0  0  0  0  0  0  0  0  0  0 
    2.9227    1.3849    0.3914 C   0  0  0  0  0  0  0  0  0  0  0  0 
    3.7659   -1.0253    1.5293 C   0  0  0  0  0  0  0  0  0  0  0  0 
    1.9085    2.6638   -1.3351 O   0  0  0  0  0  0  0  0  0  0  0  0 
    3.1919   -1.0510    0.2992 O   0  0  0  0  0  0  0  0  0  0  0  0 
    0.2879    0.6346   -0.1039 H   0  0  0  0  0  0  0  0  0  0  0  0 
    0.8275   -0.1469    1.4019 H   0  0  0  0  0  0  0  0  0  0  0  0 
    0.5656   -1.1228   -0.0646 H   0  0  0  0  0  0  0  0  0  0  0  0 
    5.5521   -1.0724    4.9831 H   0  0  0  0  0  0  0  0  0  0  0  0 
    5.1035   -3.1973    3.7664 H   0  0  0  0  0  0  0  0  0  0  0  0 
    4.8780    1.0926    3.9599 H   0  0  0  0  0  0  0  0  0  0  0  0 
    3.9664   -3.1579    1.5475 H   0  0  0  0  0  0  0  0  0  0  0  0 
    4.0308    2.3635    1.9136 H   0  0  0  0  0  0  0  0  0  0  0  0 
    3.0128    3.5437    0.1257 H   0  0  0  0  0  0  0  0  0  0  0  0 
    2.4293    0.0557   -1.2092 H   0  0  0  0  0  0  0  0  0  0  0  0 
  1 15  1  0  0  0  0 
  2 17  1  0  0  0  0 
  3 18  1  0  0  0  0 
  3  2  2  0  0  0  0 
  4 19  1  0  0  0  0 
  4  2  1  0  0  0  0 
  5  3  1  0  0  0  0 
  6 21  1  0  0  0  0 
  6  9  1  0  0  0  0 
  7 22  1  0  0  0  0 
  7 10  1  0  0  0  0 
  8 23  1  6  0  0  0 
  8 13  1  0  0  0  0 
  8  1  1  0  0  0  0 
  8 10  1  0  0  0  0 
  9  4  2  0  0  0  0 
 10  6  2  0  0  0  0 
 11  5  2  0  0  0  0 
 11  9  1  0  0  0  0 
 12  7  2  0  0  0  0 
 13 11  1  0  0  0  0 
 14  1  1  0  0  0  0 
 16  1  1  0  0  0  0 
 20  5  1  0  0  0  0 
M  END 
>  <HBA> 
2 
 
>  <HBD> 
0 
 
>  <TPSA> 
26.3 
 
>  <cid> 
42431 
 
>  <dipole> 
3.47 
 
>  <excitation_energy_1> 
3.315 
 
>  <excitation_energy_2> 
3.495 
 
>  <excitation_energy_3> 
4.247 
 
>  <excitation_energy_4> 
5.119 
 
>  <homo_energy> 
-5.97 
 
>  <homo_lumo_gap> 
3.864 
 
>  <logP> 
2.05 
 
>  <lumo_energy> 
-2.106 
 
>  <melting_point> 
89.34 
 
>  <molecular_refractivity> 
50.73 
 
>  <oscillator_strength_1> 
0.1276 
 
>  <oscillator_strength_2> 
0.003 
 
>  <oscillator_strength_3> 
0.2922 
 
>  <oscillator_strength_4> 
0.1315 
 
>  <open_babel_can_smiles> 
O=CC1=Cc2ccccc2O[C@H]1C 
 
>  <mulliken_charges> 
23 
1   -0.454591 
2   -0.138977 
3   -0.127444 
4   -0.194705 
5   -0.181092 
6   -0.186608 
7   0.201746 
8   0.074582 
9   0.117675 
10   0.053218 
11   0.333987 
12   -0.427207 
13   -0.538367 
14   0.173584 
15   0.152723 
16   0.161003 
17   0.134485 
18   0.139493 
19   0.136241 
20   0.145864 
21   0.148927 
22   0.103151 
23   0.172314 
 
>  <lowdin_charges> 
23 
1   -0.45325 
2   -0.175169 
3   -0.132702 
4   -0.142127 
5   -0.184948 
6   -0.11317 
7   0.032563 
8   0.021986 
9   -0.054544 
10   -0.073322 
11   0.117721 
12   -0.243732 
13   -0.191165 
14   0.170961 
15   0.153548 
16   0.160525 
17   0.160911 
18   0.163528 
19   0.160928 
20   0.171118 
21   0.166479 
22   0.119763 
23   0.164098 
 
$$$$ 
 
