PCCDB-ID:  12640 
public computational chemistry database (PCCDB) project, http://pccdb.org 
 
 20 20  0  0  0  0  0  0  0  0999 V2000 
    1.3517   -0.6797    1.0064 C   0  0  0  0  0  0  0  0  0  0  0  0 
    2.0385    0.8081   -0.9464 C   0  0  0  0  0  0  0  0  0  0  0  0 
    6.8600   -0.8826    1.6234 C   0  0  0  0  0  0  0  0  0  0  0  0 
    6.4899    0.5143    1.2183 C   0  0  0  0  0  0  0  0  0  0  0  0 
    2.4175   -0.3497   -0.0335 C   0  0  0  0  0  0  0  0  0  0  0  0 
    4.4460   -0.9273    1.0888 C   0  0  0  0  0  0  0  0  0  0  0  0 
    5.5110   -0.3870    1.8076 N   0  0  0  0  0  0  0  0  0  0  0  0 
    4.2473   -2.1172    0.9441 O   0  0  0  0  0  0  0  0  0  0  0  0 
    3.6436    0.0617    0.6386 O   0  0  0  0  0  0  0  0  0  0  0  0 
    0.4205   -0.9761    0.5103 H   0  0  0  0  0  0  0  0  0  0  0  0 
    1.1451    0.1924    1.6369 H   0  0  0  0  0  0  0  0  0  0  0  0 
    1.6795   -1.5078    1.6406 H   0  0  0  0  0  0  0  0  0  0  0  0 
    1.1286    0.5636   -1.5050 H   0  0  0  0  0  0  0  0  0  0  0  0 
    2.8382    1.0178   -1.6640 H   0  0  0  0  0  0  0  0  0  0  0  0 
    1.8513    1.7166   -0.3635 H   0  0  0  0  0  0  0  0  0  0  0  0 
    7.4249   -1.0539    2.5366 H   0  0  0  0  0  0  0  0  0  0  0  0 
    7.0163   -1.6197    0.8383 H   0  0  0  0  0  0  0  0  0  0  0  0 
    6.4031    0.7274    0.1547 H   0  0  0  0  0  0  0  0  0  0  0  0 
    6.7797    1.3622    1.8345 H   0  0  0  0  0  0  0  0  0  0  0  0 
    2.6494   -1.2442   -0.6191 H   0  0  0  0  0  0  0  0  0  0  0  0 
  1 11  1  0  0  0  0 
  1 12  1  0  0  0  0 
  2 15  1  0  0  0  0 
  2  5  1  0  0  0  0 
  3  7  1  0  0  0  0 
  3 16  1  0  0  0  0 
  4  3  1  0  0  0  0 
  4  7  1  0  0  0  0 
  4 19  1  0  0  0  0 
  5  9  1  0  0  0  0 
  5  1  1  0  0  0  0 
  6  7  1  0  0  0  0 
  8  6  2  0  0  0  0 
  9  6  1  0  0  0  0 
 10  1  1  0  0  0  0 
 13  2  1  0  0  0  0 
 14  2  1  0  0  0  0 
 17  3  1  0  0  0  0 
 18  4  1  0  0  0  0 
 20  5  1  0  0  0  0 
M  END 
>  <HBA> 
3 
 
>  <HBD> 
0 
 
>  <TPSA> 
29.31 
 
>  <cid> 
12640 
 
>  <dipole> 
2.28 
 
>  <excitation_energy_1> 
6.146 
 
>  <excitation_energy_2> 
6.613 
 
>  <excitation_energy_3> 
6.926 
 
>  <excitation_energy_4> 
7.128 
 
>  <homo_energy> 
-6.95 
 
>  <homo_lumo_gap> 
7.812 
 
>  <logP> 
0.785 
 
>  <lumo_energy> 
0.863 
 
>  <melting_point> 
7.5 
 
>  <molecular_refractivity> 
37.33 
 
>  <oscillator_strength_1> 
0.0195 
 
>  <oscillator_strength_2> 
0.0389 
 
>  <oscillator_strength_3> 
0.0068 
 
>  <oscillator_strength_4> 
0.0804 
 
>  <open_babel_can_smiles> 
CC(OC(=O)N1CC1)C 
 
>  <mulliken_charges> 
20 
1   -0.458419 
2   -0.452243 
3   -0.189424 
4   -0.190123 
5   0.134718 
6   0.734244 
7   -0.385029 
8   -0.495793 
9   -0.472822 
10   0.145741 
11   0.151885 
12   0.176939 
13   0.149354 
14   0.153459 
15   0.156498 
16   0.168207 
17   0.176026 
18   0.168688 
19   0.167877 
20   0.160218 
 
>  <lowdin_charges> 
20 
1   -0.456275 
2   -0.448785 
3   -0.217398 
4   -0.218027 
5   0.014332 
6   0.199878 
7   -0.148038 
8   -0.289128 
9   -0.19683 
10   0.156284 
11   0.154883 
12   0.168907 
13   0.157318 
14   0.157273 
15   0.156885 
16   0.165223 
17   0.165556 
18   0.158883 
19   0.165187 
20   0.153872 
 
$$$$ 
 
