PCCDB-ID:  36767 
public computational chemistry database (PCCDB) project, http://pccdb.org 
 
 34 35  0  0  1  0  0  0  0  0999 V2000 
    3.8787    1.0353   -0.9560 C   0  0  0  0  0  0  0  0  0  0  0  0 
    1.6869   -0.1983   -1.1550 C   0  0  0  0  0  0  0  0  0  0  0  0 
    5.1509   -8.3787   -1.1211 C   0  0  0  0  0  0  0  0  0  0  0  0 
    3.8255   -7.0773    0.6060 C   0  0  0  0  0  0  0  0  0  0  0  0 
    3.5066   -5.9116    1.3149 C   0  0  0  0  0  0  0  0  0  0  0  0 
    5.5423   -5.9217   -0.6379 C   0  0  0  0  0  0  0  0  0  0  0  0 
    5.7801   -3.3491   -0.0418 C   0  0  0  0  0  0  0  0  0  0  0  0 
    4.5895   -1.2735    0.9917 C   0  0  0  0  0  0  0  0  0  0  0  0 
    2.9283    0.0336   -0.2891 C   0  0  0  0  0  0  0  0  0  0  0  0 
    4.8327   -7.1073   -0.3663 C   0  0  0  0  0  0  0  0  0  0  0  0 
    5.2425   -4.7579    0.0549 C   0  0  0  0  0  0  0  0  0  0  0  0 
    5.1427   -2.6777    1.2019 C   0  0  1  0  0  0  0  0  0  0  0  0 
    4.2312   -4.7661    1.0192 C   0  0  0  0  0  0  0  0  0  0  0  0 
    3.5980   -1.2574   -0.0763 N   0  0  0  0  0  0  0  0  0  0  0  0 
    4.0418   -3.5456    1.6149 O   0  0  0  0  0  0  0  0  0  0  0  0 
    3.3635    1.9838   -1.1450 H   0  0  0  0  0  0  0  0  0  0  0  0 
    4.2379    0.6357   -1.9113 H   0  0  0  0  0  0  0  0  0  0  0  0 
    4.7507    1.2556   -0.3305 H   0  0  0  0  0  0  0  0  0  0  0  0 
    1.1557    0.7422   -1.3361 H   0  0  0  0  0  0  0  0  0  0  0  0 
    0.9868   -0.8892   -0.6686 H   0  0  0  0  0  0  0  0  0  0  0  0 
    1.9717   -0.6287   -2.1220 H   0  0  0  0  0  0  0  0  0  0  0  0 
    4.6055   -9.2338   -0.7089 H   0  0  0  0  0  0  0  0  0  0  0  0 
    6.2211   -8.6164   -1.0804 H   0  0  0  0  0  0  0  0  0  0  0  0 
    4.8814   -8.2977   -2.1826 H   0  0  0  0  0  0  0  0  0  0  0  0 
    3.2751   -7.9897    0.8240 H   0  0  0  0  0  0  0  0  0  0  0  0 
    2.7286   -5.9016    2.0715 H   0  0  0  0  0  0  0  0  0  0  0  0 
    6.3263   -5.9240   -1.3931 H   0  0  0  0  0  0  0  0  0  0  0  0 
    5.4356   -2.8506   -0.9562 H   0  0  0  0  0  0  0  0  0  0  0  0 
    6.8734   -3.2932   -0.0106 H   0  0  0  0  0  0  0  0  0  0  0  0 
    5.4293   -0.6199    0.7257 H   0  0  0  0  0  0  0  0  0  0  0  0 
    4.1913   -0.9047    1.9565 H   0  0  0  0  0  0  0  0  0  0  0  0 
    2.5984    0.4688    0.6757 H   0  0  0  0  0  0  0  0  0  0  0  0 
    5.8577   -2.6593    2.0355 H   0  0  0  0  0  0  0  0  0  0  0  0 
    2.8935   -1.9545    0.1625 H   0  0  0  0  0  0  0  0  0  0  0  0 
  1 18  1  0  0  0  0 
  1  9  1  0  0  0  0 
  2 20  1  0  0  0  0 
  2  9  1  0  0  0  0 
  3 23  1  0  0  0  0 
  3 22  1  0  0  0  0 
  3 10  1  0  0  0  0 
  4 25  1  0  0  0  0 
  4  5  2  0  0  0  0 
  5 26  1  0  0  0  0 
  6 10  2  0  0  0  0 
  6 11  1  0  0  0  0 
  7 29  1  0  0  0  0 
  7 11  1  0  0  0  0 
  7 12  1  0  0  0  0 
  8 12  1  0  0  0  0 
  8 31  1  0  0  0  0 
  9 14  1  0  0  0  0 
  9 32  1  0  0  0  0 
 10  4  1  0  0  0  0 
 11 13  2  0  0  0  0 
 12 15  1  0  0  0  0 
 12 33  1  1  0  0  0 
 13  5  1  0  0  0  0 
 13 15  1  0  0  0  0 
 14 34  1  0  0  0  0 
 14  8  1  0  0  0  0 
 16  1  1  0  0  0  0 
 17  1  1  0  0  0  0 
 19  2  1  0  0  0  0 
 21  2  1  0  0  0  0 
 24  3  1  0  0  0  0 
 27  6  1  0  0  0  0 
 28  7  1  0  0  0  0 
 30  8  1  0  0  0  0 
M  END 
>  <HBA> 
2 
 
>  <HBD> 
1 
 
>  <TPSA> 
21.26 
 
>  <cid> 
36767 
 
>  <dipole> 
0.98 
 
>  <excitation_energy_1> 
4.674 
 
>  <excitation_energy_2> 
5.136 
 
>  <excitation_energy_3> 
5.321 
 
>  <excitation_energy_4> 
5.383 
 
>  <homo_energy> 
-5.47 
 
>  <homo_lumo_gap> 
5.576 
 
>  <logP> 
2.687 
 
>  <lumo_energy> 
0.106 
 
>  <melting_point> 
65.2 
 
>  <molecular_refractivity> 
62.78 
 
>  <oscillator_strength_1> 
0.0604 
 
>  <oscillator_strength_2> 
0.017 
 
>  <oscillator_strength_3> 
0.0004 
 
>  <oscillator_strength_4> 
0.016 
 
>  <open_babel_can_smiles> 
CC(NC[C@@H]1Cc2c(O1)ccc(c2)C)C 
 
>  <mulliken_charges> 
34 
1   -0.439006 
2   -0.457604 
3   -0.529531 
4   -0.196679 
5   -0.186948 
6   -0.259036 
7   -0.365634 
8   -0.131774 
9   0.07068 
10   0.176309 
11   0.10915 
12   0.118025 
13   0.353277 
14   -0.567498 
15   -0.557146 
16   0.139535 
17   0.1507 
18   0.14132 
19   0.14422 
20   0.140097 
21   0.155184 
22   0.151832 
23   0.155758 
24   0.158702 
25   0.119344 
26   0.13285 
27   0.117743 
28   0.185317 
29   0.15126 
30   0.14389 
31   0.125329 
32   0.103434 
33   0.138191 
34   0.308707 
 
>  <lowdin_charges> 
34 
1   -0.4502 
2   -0.448986 
3   -0.439231 
4   -0.163241 
5   -0.190968 
6   -0.165738 
7   -0.28883 
8   -0.210057 
9   -0.053839 
10   -0.017329 
11   -0.040437 
12   0.010534 
13   0.087267 
14   -0.36674 
15   -0.22625 
16   0.150091 
17   0.152781 
18   0.147877 
19   0.152585 
20   0.148668 
21   0.154261 
22   0.155752 
23   0.154819 
24   0.155781 
25   0.154263 
26   0.164444 
27   0.153664 
28   0.170422 
29   0.155214 
30   0.148852 
31   0.127523 
32   0.11451 
33   0.143213 
34   0.259323 
 
$$$$ 
 
