PCCDB-ID:  45911 
public computational chemistry database (PCCDB) project, http://pccdb.org 
 
 27 28  0  0  1  0  0  0  0  0999 V2000 
    0.7242    0.0472   -0.1922 C   0  0  0  0  0  0  0  0  0  0  0  0 
    3.4582   -2.9369   -2.2079 C   0  0  0  0  0  0  0  0  0  0  0  0 
    3.9774   -2.2557   -3.3153 C   0  0  0  0  0  0  0  0  0  0  0  0 
    2.9196   -2.2289   -1.1351 C   0  0  0  0  0  0  0  0  0  0  0  0 
    3.9560   -0.8677   -3.3349 C   0  0  0  0  0  0  0  0  0  0  0  0 
    2.9133    2.1106   -1.1025 C   0  0  0  0  0  0  0  0  0  0  0  0 
    2.2507   -0.0740    0.0144 C   0  0  1  0  0  0  0  0  0  0  0  0 
    2.8849   -0.8293   -1.1405 C   0  0  0  0  0  0  0  0  0  0  0  0 
    3.4150   -0.1486   -2.2556 C   0  0  0  0  0  0  0  0  0  0  0  0 
    2.9622    1.2871    0.1973 C   0  0  2  0  0  0  0  0  0  0  0  0 
    3.4361    1.3377   -2.3170 C   0  0  0  0  0  0  0  0  0  0  0  0 
    2.4592    2.0157    1.4514 C   0  0  0  0  0  0  0  0  0  0  0  0 
    3.8541    1.9470   -3.2895 O   0  0  0  0  0  0  0  0  0  0  0  0 
    1.9000    1.4621    2.3660 O   0  0  0  0  0  0  0  0  0  0  0  0 
    2.7163    3.3468    1.5313 O   0  0  0  0  0  0  0  0  0  0  0  0 
    0.2825   -0.9503   -0.2839 H   0  0  0  0  0  0  0  0  0  0  0  0 
    0.4752    0.5946   -1.1084 H   0  0  0  0  0  0  0  0  0  0  0  0 
    0.2587    0.5479    0.6604 H   0  0  0  0  0  0  0  0  0  0  0  0 
    3.4784   -4.0232   -2.1796 H   0  0  0  0  0  0  0  0  0  0  0  0 
    4.3984   -2.8090   -4.1499 H   0  0  0  0  0  0  0  0  0  0  0  0 
    2.5206   -2.7666   -0.2781 H   0  0  0  0  0  0  0  0  0  0  0  0 
    4.3550   -0.3059   -4.1734 H   0  0  0  0  0  0  0  0  0  0  0  0 
    3.5176    3.0257   -1.0647 H   0  0  0  0  0  0  0  0  0  0  0  0 
    1.8847    2.4259   -1.3233 H   0  0  0  0  0  0  0  0  0  0  0  0 
    2.4071   -0.6453    0.9352 H   0  0  0  0  0  0  0  0  0  0  0  0 
    4.0221    1.0695    0.4072 H   0  0  0  0  0  0  0  0  0  0  0  0 
    3.1719    3.6554    0.7313 H   0  0  0  0  0  0  0  0  0  0  0  0 
  1  7  1  0  0  0  0 
  1 18  1  0  0  0  0 
  2 19  1  0  0  0  0 
  2  4  2  0  0  0  0 
  3  2  1  0  0  0  0 
  4 21  1  0  0  0  0 
  5  3  2  0  0  0  0 
  5  9  1  0  0  0  0 
  6 23  1  0  0  0  0 
  6 10  1  0  0  0  0 
  7 10  1  0  0  0  0 
  7 25  1  1  0  0  0 
  8  4  1  0  0  0  0 
  8  7  1  0  0  0  0 
  9  8  2  0  0  0  0 
 10 26  1  1  0  0  0 
 10 12  1  0  0  0  0 
 11  9  1  0  0  0  0 
 11  6  1  0  0  0  0 
 12 15  1  0  0  0  0 
 12 14  2  0  0  0  0 
 13 11  2  0  0  0  0 
 16  1  1  0  0  0  0 
 17  1  1  0  0  0  0 
 20  3  1  0  0  0  0 
 22  5  1  0  0  0  0 
 24  6  1  0  0  0  0 
 27 15  1  0  0  0  0 
M  END 
>  <HBA> 
3 
 
>  <HBD> 
1 
 
>  <TPSA> 
54.37 
 
>  <cid> 
45911 
 
>  <dipole> 
2.58 
 
>  <excitation_energy_1> 
3.673 
 
>  <excitation_energy_2> 
4.447 
 
>  <excitation_energy_3> 
4.992 
 
>  <excitation_energy_4> 
5.227 
 
>  <homo_energy> 
-6.904 
 
>  <homo_lumo_gap> 
5.072 
 
>  <logP> 
2.077 
 
>  <lumo_energy> 
-1.831 
 
>  <melting_point> 
140.79 
 
>  <molecular_refractivity> 
55.68 
 
>  <oscillator_strength_1> 
0.0003 
 
>  <oscillator_strength_2> 
0.033 
 
>  <oscillator_strength_3> 
0.2134 
 
>  <oscillator_strength_4> 
0.0052 
 
>  <open_babel_can_smiles> 
OC(=O)[C@@H]1CC(=O)c2c([C@@H]1C)cccc2 
 
>  <mulliken_charges> 
27 
1   -0.460025 
2   -0.115614 
3   -0.13404 
4   -0.197555 
5   -0.159876 
6   -0.403436 
7   -0.164885 
8   0.121296 
9   0.037003 
10   -0.244626 
11   0.403774 
12   0.626199 
13   -0.465923 
14   -0.449325 
15   -0.573952 
16   0.155413 
17   0.144065 
18   0.181536 
19   0.141824 
20   0.141095 
21   0.137496 
22   0.166151 
23   0.158414 
24   0.193355 
25   0.165908 
26   0.179399 
27   0.416327 
 
>  <lowdin_charges> 
27 
1   -0.448737 
2   -0.129546 
3   -0.158843 
4   -0.167081 
5   -0.122974 
6   -0.315782 
7   -0.120445 
8   0.011674 
9   -0.065816 
10   -0.17032 
11   0.155503 
12   0.197773 
13   -0.243289 
14   -0.24036 
15   -0.352567 
16   0.158187 
17   0.147829 
18   0.168947 
19   0.161639 
20   0.164481 
21   0.162244 
22   0.178668 
23   0.16034 
24   0.175679 
25   0.16545 
26   0.169347 
27   0.357999 
 
$$$$ 
 
