PCCDB-ID:  50987 
public computational chemistry database (PCCDB) project, http://pccdb.org 
 
 30 30  0  0  1  0  0  0  0  0999 V2000 
    3.3138   -0.7595   -3.2198 C   0  0  0  0  0  0  0  0  0  0  0  0 
    3.3957    8.8374   -1.2703 C   0  0  0  0  0  0  0  0  0  0  0  0 
    2.6287    6.1105   -1.3917 C   0  0  0  0  0  0  0  0  0  0  0  0 
    4.9887    5.5596   -1.4542 C   0  0  0  0  0  0  0  0  0  0  0  0 
    2.3243    4.7483   -1.4518 C   0  0  0  0  0  0  0  0  0  0  0  0 
    4.6730    4.2088   -1.5111 C   0  0  0  0  0  0  0  0  0  0  0  0 
    2.8179    1.7558   -3.3769 C   0  0  0  0  0  0  0  0  0  0  0  0 
    2.3435    0.3302   -3.6937 C   0  0  1  0  0  0  0  0  0  0  0  0 
    3.9676    6.5206   -1.3937 C   0  0  0  0  0  0  0  0  0  0  0  0 
    3.3341    3.7836   -1.5173 C   0  0  0  0  0  0  0  0  0  0  0  0 
    1.4493   -0.9980   -5.4908 N   0  0  0  0  0  0  0  0  0  0  0  0 
    2.0659    0.3058   -5.1471 N   0  0  0  0  0  0  0  0  0  0  0  0 
    4.3813    7.8185   -1.3373 O   0  0  0  0  0  0  0  0  0  0  0  0 
    2.9304    2.0366   -1.5514 S   0  0  0  0  0  0  0  0  0  0  0  0 
    3.3908   -0.7861   -2.1278 H   0  0  0  0  0  0  0  0  0  0  0  0 
    4.3202   -0.5763   -3.6203 H   0  0  0  0  0  0  0  0  0  0  0  0 
    2.9738   -1.7360   -3.5747 H   0  0  0  0  0  0  0  0  0  0  0  0 
    3.9432    9.7809   -1.2350 H   0  0  0  0  0  0  0  0  0  0  0  0 
    2.7779    8.7426   -0.3676 H   0  0  0  0  0  0  0  0  0  0  0  0 
    2.7452    8.8284   -2.1548 H   0  0  0  0  0  0  0  0  0  0  0  0 
    1.8224    6.8332   -1.3389 H   0  0  0  0  0  0  0  0  0  0  0  0 
    6.0202    5.8982   -1.4496 H   0  0  0  0  0  0  0  0  0  0  0  0 
    1.2851    4.4329   -1.4418 H   0  0  0  0  0  0  0  0  0  0  0  0 
    5.4679    3.4698   -1.5488 H   0  0  0  0  0  0  0  0  0  0  0  0 
    2.1121    2.4741   -3.8012 H   0  0  0  0  0  0  0  0  0  0  0  0 
    3.8045    1.9365   -3.8212 H   0  0  0  0  0  0  0  0  0  0  0  0 
    1.3718    0.1844   -3.2001 H   0  0  0  0  0  0  0  0  0  0  0  0 
    1.3069   -0.9326   -6.5021 H   0  0  0  0  0  0  0  0  0  0  0  0 
    0.4973   -0.9103   -5.1235 H   0  0  0  0  0  0  0  0  0  0  0  0 
    2.9794    0.2576   -5.6069 H   0  0  0  0  0  0  0  0  0  0  0  0 
  1 15  1  0  0  0  0 
  2 18  1  0  0  0  0 
  2 19  1  0  0  0  0 
  3 21  1  0  0  0  0 
  4 22  1  0  0  0  0 
  4  9  2  0  0  0  0 
  5 23  1  0  0  0  0 
  5  3  2  0  0  0  0 
  6  4  1  0  0  0  0 
  7 14  1  0  0  0  0 
  8  7  1  0  0  0  0 
  8  1  1  0  0  0  0 
  8 27  1  1  0  0  0 
  9  3  1  0  0  0  0 
  9 13  1  0  0  0  0 
 10  6  2  0  0  0  0 
 10  5  1  0  0  0  0 
 11 12  1  0  0  0  0 
 11 29  1  0  0  0  0 
 12  8  1  0  0  0  0 
 13  2  1  0  0  0  0 
 14 10  1  0  0  0  0 
 16  1  1  0  0  0  0 
 17  1  1  0  0  0  0 
 20  2  1  0  0  0  0 
 24  6  1  0  0  0  0 
 25  7  1  0  0  0  0 
 26  7  1  0  0  0  0 
 28 11  1  0  0  0  0 
 30 12  1  0  0  0  0 
M  END 
>  <HBA> 
4 
 
>  <HBD> 
2 
 
>  <TPSA> 
72.58 
 
>  <cid> 
50987 
 
>  <dipole> 
2.91 
 
>  <excitation_energy_1> 
4.592 
 
>  <excitation_energy_2> 
4.723 
 
>  <excitation_energy_3> 
4.756 
 
>  <excitation_energy_4> 
4.795 
 
>  <homo_energy> 
-5.339 
 
>  <homo_lumo_gap> 
5.192 
 
>  <logP> 
2.73 
 
>  <lumo_energy> 
-0.147 
 
>  <melting_point> 
102.34 
 
>  <molecular_refractivity> 
59.78 
 
>  <oscillator_strength_1> 
0.006 
 
>  <oscillator_strength_2> 
0.0004 
 
>  <oscillator_strength_3> 
0.0036 
 
>  <oscillator_strength_4> 
0.0048 
 
>  <open_babel_can_smiles> 
NN[C@H](CSc1ccc(cc1)OC)C 
 
>  <mulliken_charges> 
30 
1   -0.456319 
2   -0.216703 
3   -0.185749 
4   -0.161851 
5   -0.151241 
6   -0.148092 
7   -0.400746 
8   0.026918 
9   0.374189 
10   -0.099962 
11   -0.591914 
12   -0.468923 
13   -0.503482 
14   0.070795 
15   0.162642 
16   0.129884 
17   0.176841 
18   0.171819 
19   0.15445 
20   0.15358 
21   0.134461 
22   0.141431 
23   0.147321 
24   0.147058 
25   0.182312 
26   0.158579 
27   0.140798 
28   0.305529 
29   0.306789 
30   0.299583 
 
>  <lowdin_charges> 
30 
1   -0.461219 
2   -0.278685 
3   -0.216085 
4   -0.181204 
5   -0.140802 
6   -0.144976 
7   -0.373916 
8   -0.070773 
9   0.108372 
10   -0.148471 
11   -0.489992 
12   -0.31938 
13   -0.1962 
14   0.10795 
15   0.159013 
16   0.142496 
17   0.165849 
18   0.16393 
19   0.146831 
20   0.146541 
21   0.164857 
22   0.167575 
23   0.166129 
24   0.168723 
25   0.166081 
26   0.150173 
27   0.142901 
28   0.253599 
29   0.252192 
30   0.248489 
 
$$$$ 
 
