PCCDB-ID:  62228 
public computational chemistry database (PCCDB) project, http://pccdb.org 
 
 28 28  0  0  1  0  0  0  0  0999 V2000 
    1.2377   -0.1101    1.6655 C   0  0  0  0  0  0  0  0  0  0  0  0 
   -0.2863    4.0118   -1.5951 C   0  0  0  0  0  0  0  0  0  0  0  0 
    4.0586    1.7231   -1.8334 C   0  0  0  0  0  0  0  0  0  0  0  0 
    0.3257    2.7649   -1.4964 C   0  0  0  0  0  0  0  0  0  0  0  0 
    2.8858    0.7854   -1.5253 C   0  0  0  0  0  0  0  0  0  0  0  0 
    0.0941    5.0229   -0.7105 C   0  0  0  0  0  0  0  0  0  0  0  0 
    5.1699    1.7291   -0.8082 C   0  0  0  0  0  0  0  0  0  0  0  0 
    1.6009    3.6550    0.3202 C   0  0  0  0  0  0  0  0  0  0  0  0 
    1.3032    2.5654   -0.5102 C   0  0  0  0  0  0  0  0  0  0  0  0 
    2.0532    1.2558   -0.3091 C   0  0  1  0  0  0  0  0  0  0  0  0 
    1.0238    4.8590    0.2371 N   0  0  0  0  0  0  0  0  0  0  0  0 
    0.3135   -0.5574   -0.4535 N   0  0  0  0  0  0  0  0  0  0  0  0 
    1.1825    0.1763    0.2379 N   0  0  0  0  0  0  0  0  0  0  0  0 
    5.1660    1.0973    0.2279 O   0  0  0  0  0  0  0  0  0  0  0  0 
    0.2095   -0.2950   -1.6534 O   0  0  0  0  0  0  0  0  0  0  0  0 
    2.2485   -0.4155    1.9581 H   0  0  0  0  0  0  0  0  0  0  0  0 
    0.5351   -0.9194    1.8681 H   0  0  0  0  0  0  0  0  0  0  0  0 
    0.9510    0.7742    2.2466 H   0  0  0  0  0  0  0  0  0  0  0  0 
   -1.0504    4.1985   -2.3442 H   0  0  0  0  0  0  0  0  0  0  0  0 
    3.7255    2.7641   -1.9667 H   0  0  0  0  0  0  0  0  0  0  0  0 
    4.5183    1.4535   -2.7964 H   0  0  0  0  0  0  0  0  0  0  0  0 
    0.0463    1.9504   -2.1548 H   0  0  0  0  0  0  0  0  0  0  0  0 
    3.2769   -0.2129   -1.2996 H   0  0  0  0  0  0  0  0  0  0  0  0 
    2.2518    0.6910   -2.4065 H   0  0  0  0  0  0  0  0  0  0  0  0 
   -0.3673    6.0077   -0.7643 H   0  0  0  0  0  0  0  0  0  0  0  0 
    6.0398    2.3728   -1.0686 H   0  0  0  0  0  0  0  0  0  0  0  0 
    2.3566    3.5476    1.0997 H   0  0  0  0  0  0  0  0  0  0  0  0 
    2.7686    1.4191    0.5002 H   0  0  0  0  0  0  0  0  0  0  0  0 
  1 17  1  0  0  0  0 
  1 16  1  0  0  0  0 
  1 18  1  0  0  0  0 
  2  4  2  0  0  0  0 
  2  6  1  0  0  0  0 
  3  5  1  0  0  0  0 
  3  7  1  0  0  0  0 
  4  9  1  0  0  0  0 
  5 23  1  0  0  0  0 
  5 10  1  0  0  0  0 
  6 11  2  0  0  0  0 
  7 14  2  0  0  0  0 
  8 27  1  0  0  0  0 
  9 10  1  0  0  0  0 
  9  8  2  0  0  0  0 
 10 13  1  0  0  0  0 
 10 28  1  1  0  0  0 
 11  8  1  0  0  0  0 
 12 13  1  0  0  0  0 
 13  1  1  0  0  0  0 
 15 12  2  0  0  0  0 
 19  2  1  0  0  0  0 
 20  3  1  0  0  0  0 
 21  3  1  0  0  0  0 
 22  4  1  0  0  0  0 
 24  5  1  0  0  0  0 
 25  6  1  0  0  0  0 
 26  7  1  0  0  0  0 
M  END 
>  <HBA> 
5 
 
>  <HBD> 
0 
 
>  <TPSA> 
62.63 
 
>  <cid> 
62228 
 
>  <dipole> 
1.84 
 
>  <excitation_energy_1> 
3.309 
 
>  <excitation_energy_2> 
4.261 
 
>  <excitation_energy_3> 
4.453 
 
>  <excitation_energy_4> 
4.558 
 
>  <homo_energy> 
-6.09 
 
>  <homo_lumo_gap> 
5.07 
 
>  <logP> 
1.715 
 
>  <lumo_energy> 
-1.02 
 
>  <melting_point> 
73.41 
 
>  <molecular_refractivity> 
56.27 
 
>  <oscillator_strength_1> 
0.0003 
 
>  <oscillator_strength_2> 
0.0001 
 
>  <oscillator_strength_3> 
0.004 
 
>  <oscillator_strength_4> 
0.0015 
 
>  <open_babel_can_smiles> 
O=CCC[C@@H](c1cccnc1)N(N=O)C 
 
>  <mulliken_charges> 
28 
1   -0.319026 
2   -0.142315 
3   -0.366189 
4   -0.150238 
5   -0.26562 
6   0.040779 
7   0.255047 
8   -0.027692 
9   0.151313 
10   -0.093542 
11   -0.406811 
12   0.145296 
13   -0.201222 
14   -0.387949 
15   -0.393127 
16   0.180792 
17   0.193771 
18   0.172785 
19   0.143526 
20   0.179199 
21   0.174394 
22   0.188187 
23   0.161869 
24   0.18305 
25   0.145115 
26   0.116426 
27   0.141114 
28   0.18107 
 
>  <lowdin_charges> 
28 
1   -0.356068 
2   -0.171975 
3   -0.317054 
4   -0.132831 
5   -0.279201 
6   -0.087569 
7   0.057817 
8   -0.108705 
9   -0.036833 
10   -0.0667 
11   -0.146451 
12   0.053351 
13   -0.032852 
14   -0.226526 
15   -0.285675 
16   0.162884 
17   0.178697 
18   0.160585 
19   0.167246 
20   0.172139 
21   0.173962 
22   0.182739 
23   0.161217 
24   0.170119 
25   0.157677 
26   0.123547 
27   0.154356 
28   0.172107 
 
$$$$ 
 
