PCCDB-ID:  38671 
public computational chemistry database (PCCDB) project, http://pccdb.org 
 
 19 18  0  0  0  0  0  0  0  0999 V2000 
    0.9601   -0.0763    0.0883 C   0  0  0  0  0  0  0  0  0  0  0  0 
    0.3231    0.9839   -0.8161 C   0  0  0  0  0  0  0  0  0  0  0  0 
    2.4514   -0.2489   -0.2042 C   0  0  0  0  0  0  0  0  0  0  0  0 
   -1.7947    2.1974   -1.0648 C   0  0  0  0  0  0  0  0  0  0  0  0 
   -1.1875    3.1066   -1.7365 N   0  0  0  0  0  0  0  0  0  0  0  0 
   -3.1754    2.0939   -0.8163 N   0  0  0  0  0  0  0  0  0  0  0  0 
   -1.0930    1.1378   -0.4988 N   0  0  0  0  0  0  0  0  0  0  0  0 
    3.2708   -1.5715    0.7832 S   0  0  0  0  0  0  0  0  0  0  0  0 
    0.4564   -1.0435   -0.0440 H   0  0  0  0  0  0  0  0  0  0  0  0 
    0.8144    0.2135    1.1366 H   0  0  0  0  0  0  0  0  0  0  0  0 
    0.4741    0.7271   -1.8769 H   0  0  0  0  0  0  0  0  0  0  0  0 
    0.7951    1.9587   -0.6681 H   0  0  0  0  0  0  0  0  0  0  0  0 
    2.9926    0.6918   -0.0611 H   0  0  0  0  0  0  0  0  0  0  0  0 
    2.6085   -0.5542   -1.2445 H   0  0  0  0  0  0  0  0  0  0  0  0 
   -1.8259    3.8654   -1.9821 H   0  0  0  0  0  0  0  0  0  0  0  0 
   -3.6906    2.9336   -1.0516 H   0  0  0  0  0  0  0  0  0  0  0  0 
   -3.3983    1.7807    0.1233 H   0  0  0  0  0  0  0  0  0  0  0  0 
   -1.6135    0.2670   -0.5163 H   0  0  0  0  0  0  0  0  0  0  0  0 
    3.0577   -1.0173    1.9972 H   0  0  0  0  0  0  0  0  0  0  0  0 
  1 10  1  0  0  0  0 
  2 12  1  0  0  0  0 
  2  7  1  0  0  0  0 
  2  1  1  0  0  0  0 
  3 13  1  0  0  0  0 
  3  1  1  0  0  0  0 
  3  8  1  0  0  0  0 
  4  6  2  0  0  0  0 
  4  7  1  0  0  0  0 
  5  4  1  0  0  0  0 
  6 17  1  0  0  0  0 
  8 19  1  0  0  0  0 
  9  1  1  0  0  0  0 
 11  2  1  0  0  0  0 
 14  3  1  0  0  0  0 
 15  5  1  0  0  0  0 
 16  6  1  0  0  0  0 
 18  7  1  0  0  0  0 
M  RAD  1   5   2 
M  END 
>  <HBA> 
4 
 
>  <HBD> 
3 
 
>  <TPSA> 
103.2 
 
>  <cid> 
38671 
 
>  <dipole> 
3.45 
 
>  <excitation_energy_1> 
5.262 
 
>  <excitation_energy_2> 
5.291 
 
>  <excitation_energy_3> 
5.788 
 
>  <excitation_energy_4> 
5.855 
 
>  <homo_energy> 
-6.153 
 
>  <homo_lumo_gap> 
6.879 
 
>  <logP> 
0.98 
 
>  <lumo_energy> 
0.727 
 
>  <melting_point> 
121.39 
 
>  <molecular_refractivity> 
38.37 
 
>  <oscillator_strength_1> 
0.0114 
 
>  <oscillator_strength_2> 
0.0023 
 
>  <oscillator_strength_3> 
0.0018 
 
>  <oscillator_strength_4> 
0.0054 
 
>  <open_babel_can_smiles> 
[NH]C(=[NH2])NCCCS 
 
>  <mulliken_charges> 
19 
1   -0.265238 
2   -0.099801 
3   -0.418579 
4   0.58661 
5   -0.644728 
6   -0.756462 
7   -0.608632 
8   -0.080695 
9   0.14591 
10   0.147875 
11   0.141852 
12   0.177501 
13   0.180799 
14   0.180709 
15   0.264293 
16   0.318793 
17   0.322057 
18   0.31562 
19   0.092118 
 
>  <lowdin_charges> 
19 
1   -0.284629 
2   -0.189717 
3   -0.368179 
4   0.125111 
5   -0.478312 
6   -0.513643 
7   -0.312747 
8   -0.085599 
9   0.147098 
10   0.147567 
11   0.135863 
12   0.165679 
13   0.161442 
14   0.167226 
15   0.247373 
16   0.275306 
17   0.276439 
18   0.272448 
19   0.111274 
 
$$$$ 
 
