PCCDB-ID:  11915 
public computational chemistry database (PCCDB) project, http://pccdb.org 
 
 17 17  0  0  0  0  0  0  0  0999 V2000 
   -1.4946   -0.1006    0.1839 C   0  0  0  0  0  0  0  0  0  0  0  0 
   -0.8483    1.1337    0.3104 C   0  0  0  0  0  0  0  0  0  0  0  0 
   -0.7578   -1.2506   -0.1055 C   0  0  0  0  0  0  0  0  0  0  0  0 
    0.5293    1.2143    0.1469 C   0  0  0  0  0  0  0  0  0  0  0  0 
    0.6248   -1.1768   -0.2673 C   0  0  0  0  0  0  0  0  0  0  0  0 
    1.2799    0.0602   -0.1417 C   0  0  0  0  0  0  0  0  0  0  0  0 
    2.7427    0.2372   -0.3309 C   0  0  0  0  0  0  0  0  0  0  0  0 
    3.6217   -1.0013   -0.6024 C   0  0  0  0  0  0  0  0  0  0  0  0 
    3.3008    1.3176   -0.2486 O   0  0  0  0  0  0  0  0  0  0  0  0 
    4.6020   -0.7185   -1.4765 O   0  0  0  0  0  0  0  0  0  0  0  0 
    3.4890   -2.0776   -0.0608 O   0  0  0  0  0  0  0  0  0  0  0  0 
   -2.5723   -0.1643    0.3090 H   0  0  0  0  0  0  0  0  0  0  0  0 
   -1.4214    2.0289    0.5349 H   0  0  0  0  0  0  0  0  0  0  0  0 
   -1.2601   -2.2088   -0.2023 H   0  0  0  0  0  0  0  0  0  0  0  0 
    1.0517    2.1611    0.2360 H   0  0  0  0  0  0  0  0  0  0  0  0 
    1.1942   -2.0742   -0.4757 H   0  0  0  0  0  0  0  0  0  0  0  0 
    5.1434   -1.5280   -1.5524 H   0  0  0  0  0  0  0  0  0  0  0  0 
  1 12  1  0  0  0  0 
  1  2  1  0  0  0  0 
  2 13  1  0  0  0  0 
  3  1  2  0  0  0  0 
  4 15  1  0  0  0  0 
  4  2  2  0  0  0  0 
  5  6  2  0  0  0  0 
  5  3  1  0  0  0  0 
  6  4  1  0  0  0  0 
  7  9  2  0  0  0  0 
  7  6  1  0  0  0  0 
  8  7  1  0  0  0  0 
  8 11  2  0  0  0  0 
 10  8  1  0  0  0  0 
 14  3  1  0  0  0  0 
 16  5  1  0  0  0  0 
 17 10  1  0  0  0  0 
M  END 
>  <HBA> 
3 
 
>  <HBD> 
1 
 
>  <TPSA> 
54.37 
 
>  <cid> 
11915 
 
>  <dipole> 
2.39 
 
>  <excitation_energy_1> 
3.246 
 
>  <excitation_energy_2> 
4.131 
 
>  <excitation_energy_3> 
4.529 
 
>  <excitation_energy_4> 
5.039 
 
>  <homo_energy> 
-6.983 
 
>  <homo_lumo_gap> 
4.694 
 
>  <logP> 
0.954 
 
>  <lumo_energy> 
-2.288 
 
>  <melting_point> 
115.37 
 
>  <molecular_refractivity> 
38.41 
 
>  <oscillator_strength_1> 
0.0007 
 
>  <oscillator_strength_2> 
0.0138 
 
>  <oscillator_strength_3> 
0.2283 
 
>  <oscillator_strength_4> 
0.0043 
 
>  <open_babel_can_smiles> 
O=C(c1ccccc1)C(=O)O 
 
>  <mulliken_charges> 
17 
1   -0.113283 
2   -0.134171 
3   -0.13955 
4   -0.149917 
5   -0.163657 
6   0.067422 
7   0.357826 
8   0.507188 
9   -0.434249 
10   -0.533144 
11   -0.446234 
12   0.142517 
13   0.142855 
14   0.14249 
15   0.167993 
16   0.170551 
17   0.415364 
 
>  <lowdin_charges> 
17 
1   -0.128305 
2   -0.154821 
3   -0.156178 
4   -0.123378 
5   -0.137274 
6   -0.04805 
7   0.137263 
8   0.17138 
9   -0.204353 
10   -0.32174 
11   -0.248631 
12   0.161819 
13   0.164674 
14   0.163898 
15   0.178276 
16   0.179459 
17   0.365964 
 
$$$$ 
 
