PCCDB-ID:  24834 
public computational chemistry database (PCCDB) project, http://pccdb.org 
 
 21 21  0  0  0  0  0  0  0  0999 V2000 
    2.8117    2.1629    2.7609 C   0  0  0  0  0  0  0  0  0  0  0  0 
    4.2961    2.3628    2.5122 C   0  0  0  0  0  0  0  0  0  0  0  0 
    8.4402    1.8382    1.7676 C   0  0  0  0  0  0  0  0  0  0  0  0 
    8.0602   -0.5498    1.7522 C   0  0  0  0  0  0  0  0  0  0  0  0 
    7.0906    2.0617    2.0132 C   0  0  0  0  0  0  0  0  0  0  0  0 
    6.7122   -0.3440    1.9971 C   0  0  0  0  0  0  0  0  0  0  0  0 
   10.3747    0.3089    1.3731 C   0  0  0  0  0  0  0  0  0  0  0  0 
    8.9432    0.5367    1.6337 C   0  0  0  0  0  0  0  0  0  0  0  0 
    6.2172    0.9654    2.1293 C   0  0  0  0  0  0  0  0  0  0  0  0 
   11.2130    1.1853    1.2556 O   0  0  0  0  0  0  0  0  0  0  0  0 
    4.8853    1.0663    2.3673 O   0  0  0  0  0  0  0  0  0  0  0  0 
    2.3189    3.1332    2.8838 H   0  0  0  0  0  0  0  0  0  0  0  0 
    2.6486    1.5727    3.6679 H   0  0  0  0  0  0  0  0  0  0  0  0 
    2.3460    1.6403    1.9197 H   0  0  0  0  0  0  0  0  0  0  0  0 
    4.7687    2.8914    3.3513 H   0  0  0  0  0  0  0  0  0  0  0  0 
    4.4674    2.9500    1.5997 H   0  0  0  0  0  0  0  0  0  0  0  0 
    9.1314    2.6706    1.6745 H   0  0  0  0  0  0  0  0  0  0  0  0 
    8.4418   -1.5637    1.6496 H   0  0  0  0  0  0  0  0  0  0  0  0 
    6.7234    3.0765    2.1121 H   0  0  0  0  0  0  0  0  0  0  0  0 
    6.0161   -1.1714    2.0906 H   0  0  0  0  0  0  0  0  0  0  0  0 
   10.6622   -0.7637    1.2851 H   0  0  0  0  0  0  0  0  0  0  0  0 
  1 12  1  0  0  0  0 
  1 13  1  0  0  0  0 
  2  1  1  0  0  0  0 
  2 15  1  0  0  0  0 
  3  5  2  0  0  0  0 
  4  6  1  0  0  0  0 
  5 19  1  0  0  0  0 
  5  9  1  0  0  0  0 
  6 20  1  0  0  0  0 
  6  9  2  0  0  0  0 
  7  8  1  0  0  0  0 
  8  4  2  0  0  0  0 
  8  3  1  0  0  0  0 
  9 11  1  0  0  0  0 
 10  7  2  0  0  0  0 
 11  2  1  0  0  0  0 
 14  1  1  0  0  0  0 
 16  2  1  0  0  0  0 
 17  3  1  0  0  0  0 
 18  4  1  0  0  0  0 
 21  7  1  0  0  0  0 
M  END 
>  <HBA> 
2 
 
>  <HBD> 
0 
 
>  <TPSA> 
26.3 
 
>  <cid> 
24834 
 
>  <dipole> 
4.31 
 
>  <excitation_energy_1> 
3.783 
 
>  <excitation_energy_2> 
4.615 
 
>  <excitation_energy_3> 
4.775 
 
>  <excitation_energy_4> 
5.476 
 
>  <homo_energy> 
-6.313 
 
>  <homo_lumo_gap> 
4.942 
 
>  <logP> 
1.898 
 
>  <lumo_energy> 
-1.371 
 
>  <melting_point> 
42.53 
 
>  <molecular_refractivity> 
43.13 
 
>  <oscillator_strength_1> 
0.0001 
 
>  <oscillator_strength_2> 
0.3868 
 
>  <oscillator_strength_3> 
0.0015 
 
>  <oscillator_strength_4> 
0.0 
 
>  <open_babel_can_smiles> 
CCOc1ccc(cc1)C=O 
 
>  <mulliken_charges> 
21 
1   -0.458202 
2   -0.036248 
3   -0.16865 
4   -0.181761 
5   -0.194471 
6   -0.179107 
7   0.187813 
8   0.095986 
9   0.391739 
10   -0.418836 
11   -0.509603 
12   0.153217 
13   0.166816 
14   0.166689 
15   0.148164 
16   0.148148 
17   0.164189 
18   0.140698 
19   0.142451 
20   0.144986 
21   0.095982 
 
>  <lowdin_charges> 
21 
1   -0.447887 
2   -0.125069 
3   -0.114367 
4   -0.132274 
5   -0.210197 
6   -0.18523 
7   0.046086 
8   -0.075854 
9   0.120814 
10   -0.24249 
11   -0.191687 
12   0.159696 
13   0.162052 
14   0.162632 
15   0.143426 
16   0.142777 
17   0.177069 
18   0.16211 
19   0.165878 
20   0.170856 
21   0.111659 
 
$$$$ 
 
