PCCDB-ID:  14475 
public computational chemistry database (PCCDB) project, http://pccdb.org 
 
 26 25  0  0  1  0  0  0  0  0999 V2000 
    3.5178    3.0008   -1.1839 C   0  0  0  0  0  0  0  0  0  0  0  0 
    4.6488    2.6790    4.7142 C   0  0  0  0  0  0  0  0  0  0  0  0 
    2.4960    2.2130   -0.3550 C   0  0  0  0  0  0  0  0  0  0  0  0 
    3.0213    0.8780    0.2025 C   0  0  0  0  0  0  0  0  0  0  0  0 
    4.1998    0.9744    1.1883 C   0  0  0  0  0  0  0  0  0  0  0  0 
    3.8620    1.7114    2.4929 C   0  0  0  0  0  0  0  0  0  0  0  0 
    5.0222    1.7958    3.5168 C   0  0  2  0  0  0  0  0  0  0  0  0 
    5.3777    0.3879    4.0045 C   0  0  0  0  0  0  0  0  0  0  0  0 
    4.7917   -0.1840    4.8899 O   0  0  0  0  0  0  0  0  0  0  0  0 
    6.3958   -0.2424    3.3518 O   0  0  0  0  0  0  0  0  0  0  0  0 
    3.0645    3.9018   -1.6123 H   0  0  0  0  0  0  0  0  0  0  0  0 
    3.9040    2.3961   -2.0142 H   0  0  0  0  0  0  0  0  0  0  0  0 
    4.3759    3.3218   -0.5820 H   0  0  0  0  0  0  0  0  0  0  0  0 
    4.3526    3.6772    4.3745 H   0  0  0  0  0  0  0  0  0  0  0  0 
    5.4892    2.7883    5.4080 H   0  0  0  0  0  0  0  0  0  0  0  0 
    3.8175    2.2319    5.2666 H   0  0  0  0  0  0  0  0  0  0  0  0 
    1.6209    1.9974   -0.9822 H   0  0  0  0  0  0  0  0  0  0  0  0 
    2.1249    2.8430    0.4645 H   0  0  0  0  0  0  0  0  0  0  0  0 
    3.3259    0.2421   -0.6407 H   0  0  0  0  0  0  0  0  0  0  0  0 
    2.1944    0.3498    0.6973 H   0  0  0  0  0  0  0  0  0  0  0  0 
    5.0515    1.4718    0.7003 H   0  0  0  0  0  0  0  0  0  0  0  0 
    4.5333   -0.0457    1.4185 H   0  0  0  0  0  0  0  0  0  0  0  0 
    3.0101    1.2218    2.9836 H   0  0  0  0  0  0  0  0  0  0  0  0 
    3.5486    2.7388    2.2693 H   0  0  0  0  0  0  0  0  0  0  0  0 
    5.8965    2.2336    3.0100 H   0  0  0  0  0  0  0  0  0  0  0  0 
    6.7565    0.3438    2.6670 H   0  0  0  0  0  0  0  0  0  0  0  0 
  1 13  1  0  0  0  0 
  1  3  1  0  0  0  0 
  2 16  1  0  0  0  0 
  2 15  1  0  0  0  0 
  3  4  1  0  0  0  0 
  3 18  1  0  0  0  0 
  4 20  1  0  0  0  0 
  4  5  1  0  0  0  0 
  5 22  1  0  0  0  0 
  5  6  1  0  0  0  0 
  6 23  1  0  0  0  0 
  6  7  1  0  0  0  0 
  7 25  1  6  0  0  0 
  7  8  1  0  0  0  0 
  7  2  1  0  0  0  0 
  8  9  2  0  0  0  0 
 10  8  1  0  0  0  0 
 11  1  1  0  0  0  0 
 12  1  1  0  0  0  0 
 14  2  1  0  0  0  0 
 17  3  1  0  0  0  0 
 19  4  1  0  0  0  0 
 21  5  1  0  0  0  0 
 24  6  1  0  0  0  0 
 26 10  1  0  0  0  0 
M  END 
>  <HBA> 
2 
 
>  <HBD> 
1 
 
>  <TPSA> 
37.3 
 
>  <cid> 
14475 
 
>  <dipole> 
4.17 
 
>  <excitation_energy_1> 
5.64 
 
>  <excitation_energy_2> 
6.43 
 
>  <excitation_energy_3> 
7.116 
 
>  <excitation_energy_4> 
7.289 
 
>  <homo_energy> 
-7.244 
 
>  <homo_lumo_gap> 
7.532 
 
>  <logP> 
2.287 
 
>  <lumo_energy> 
0.288 
 
>  <melting_point> 
49.27 
 
>  <molecular_refractivity> 
42.34 
 
>  <oscillator_strength_1> 
0.0018 
 
>  <oscillator_strength_2> 
0.0087 
 
>  <oscillator_strength_3> 
0.0034 
 
>  <oscillator_strength_4> 
0.0012 
 
>  <open_babel_can_smiles> 
CCCCC[C@H](C(=O)O)C 
 
>  <mulliken_charges> 
26 
1   -0.443816 
2   -0.446372 
3   -0.253207 
4   -0.253734 
5   -0.286247 
6   -0.256111 
7   -0.191467 
8   0.603273 
9   -0.447095 
10   -0.568946 
11   0.145792 
12   0.143155 
13   0.140707 
14   0.142931 
15   0.153349 
16   0.177846 
17   0.136366 
18   0.135348 
19   0.13194 
20   0.136281 
21   0.123343 
22   0.148726 
23   0.15756 
24   0.144853 
25   0.118309 
26   0.407213 
 
>  <lowdin_charges> 
26 
1   -0.449367 
2   -0.439041 
3   -0.278224 
4   -0.27708 
5   -0.289359 
6   -0.271534 
7   -0.163417 
8   0.195321 
9   -0.242708 
10   -0.35899 
11   0.152308 
12   0.148018 
13   0.144911 
14   0.15024 
15   0.156517 
16   0.168273 
17   0.145609 
18   0.140735 
19   0.143768 
20   0.145785 
21   0.134889 
22   0.148275 
23   0.155019 
24   0.146814 
25   0.136973 
26   0.356264 
 
$$$$ 
 
