PCCDB-ID:  33686 
public computational chemistry database (PCCDB) project, http://pccdb.org 
 
 30 30  0  0  0  0  0  0  0  0999 V2000 
    7.1867   -2.4917   -1.6736 C   0  0  0  0  0  0  0  0  0  0  0  0 
    8.2776   -2.7396   -2.4111 C   0  0  0  0  0  0  0  0  0  0  0  0 
    6.5692   -1.1923   -1.1977 C   0  0  0  0  0  0  0  0  0  0  0  0 
    9.3630   -1.8476   -2.9914 C   0  0  0  0  0  0  0  0  0  0  0  0 
    5.3280   -0.9095   -2.0164 C   0  0  0  0  0  0  0  0  0  0  0  0 
    8.9941   -0.5262   -3.7064 C   0  0  0  0  0  0  0  0  0  0  0  0 
    5.1320    0.2024   -2.7284 C   0  0  0  0  0  0  0  0  0  0  0  0 
    7.9116   -0.6508   -4.7528 C   0  0  0  0  0  0  0  0  0  0  0  0 
    4.1001    0.3600   -3.8216 C   0  0  0  0  0  0  0  0  0  0  0  0 
    6.9995    0.2991   -4.9752 C   0  0  0  0  0  0  0  0  0  0  0  0 
    4.5238   -0.3425   -5.1390 C   0  0  0  0  0  0  0  0  0  0  0  0 
    5.7826    0.2057   -5.8615 C   0  0  0  0  0  0  0  0  0  0  0  0 
    6.6023   -3.3687   -1.3879 H   0  0  0  0  0  0  0  0  0  0  0  0 
    8.4616   -3.7975   -2.6046 H   0  0  0  0  0  0  0  0  0  0  0  0 
    6.3211   -1.3045   -0.1303 H   0  0  0  0  0  0  0  0  0  0  0  0 
    7.2685   -0.3539   -1.2776 H   0  0  0  0  0  0  0  0  0  0  0  0 
   10.0931   -1.6100   -2.2024 H   0  0  0  0  0  0  0  0  0  0  0  0 
    9.9183   -2.4629   -3.7115 H   0  0  0  0  0  0  0  0  0  0  0  0 
    4.6291   -1.7429   -2.1198 H   0  0  0  0  0  0  0  0  0  0  0  0 
    9.9256   -0.1560   -4.1632 H   0  0  0  0  0  0  0  0  0  0  0  0 
    8.6976    0.2375   -2.9775 H   0  0  0  0  0  0  0  0  0  0  0  0 
    5.8432    1.0176   -2.6065 H   0  0  0  0  0  0  0  0  0  0  0  0 
    7.8696   -1.5870   -5.3133 H   0  0  0  0  0  0  0  0  0  0  0  0 
    3.9032    1.4233   -4.0137 H   0  0  0  0  0  0  0  0  0  0  0  0 
    3.1452   -0.0816   -3.5066 H   0  0  0  0  0  0  0  0  0  0  0  0 
    7.0849    1.2205   -4.3983 H   0  0  0  0  0  0  0  0  0  0  0  0 
    3.6813   -0.3022   -5.8437 H   0  0  0  0  0  0  0  0  0  0  0  0 
    4.6966   -1.4010   -4.9073 H   0  0  0  0  0  0  0  0  0  0  0  0 
    5.9854   -0.4507   -6.7182 H   0  0  0  0  0  0  0  0  0  0  0  0 
    5.5543    1.1978   -6.2758 H   0  0  0  0  0  0  0  0  0  0  0  0 
  1 13  1  0  0  0  0 
  1  3  1  0  0  0  0 
  2  1  2  0  0  0  0 
  3 15  1  0  0  0  0 
  4  2  1  0  0  0  0 
  4 17  1  0  0  0  0 
  5  3  1  0  0  0  0 
  6  4  1  0  0  0  0 
  6 21  1  0  0  0  0 
  7 22  1  0  0  0  0 
  7  5  2  0  0  0  0 
  8  6  1  0  0  0  0 
  9 25  1  0  0  0  0 
  9  7  1  0  0  0  0 
 10  8  2  0  0  0  0 
 10 26  1  0  0  0  0 
 11 28  1  0  0  0  0 
 11  9  1  0  0  0  0 
 12 11  1  0  0  0  0 
 12 10  1  0  0  0  0 
 14  2  1  0  0  0  0 
 16  3  1  0  0  0  0 
 18  4  1  0  0  0  0 
 19  5  1  0  0  0  0 
 20  6  1  0  0  0  0 
 23  8  1  0  0  0  0 
 24  9  1  0  0  0  0 
 27 11  1  0  0  0  0 
 29 12  1  0  0  0  0 
 30 12  1  0  0  0  0 
M  END 
>  <HBA> 
0 
 
>  <HBD> 
0 
 
>  <TPSA> 
0.0 
 
>  <cid> 
33686 
 
>  <dipole> 
0.21 
 
>  <excitation_energy_1> 
5.247 
 
>  <excitation_energy_2> 
5.406 
 
>  <excitation_energy_3> 
5.55 
 
>  <excitation_energy_4> 
5.64 
 
>  <homo_energy> 
-5.818 
 
>  <homo_lumo_gap> 
6.12 
 
>  <logP> 
4.009 
 
>  <lumo_energy> 
0.302 
 
>  <melting_point> 
21.4 
 
>  <molecular_refractivity> 
56.26 
 
>  <oscillator_strength_1> 
0.0189 
 
>  <oscillator_strength_2> 
0.0194 
 
>  <oscillator_strength_3> 
0.0012 
 
>  <oscillator_strength_4> 
0.002 
 
>  <open_babel_can_smiles> 
C\1=C/CC/C=C\C/C=C/CCC1 
 
>  <mulliken_charges> 
30 
1   -0.104123 
2   -0.108144 
3   -0.33914 
4   -0.306476 
5   -0.073641 
6   -0.304275 
7   -0.100588 
8   -0.06233 
9   -0.304914 
10   -0.109941 
11   -0.239895 
12   -0.301359 
13   0.118548 
14   0.118266 
15   0.144279 
16   0.142883 
17   0.149246 
18   0.13756 
19   0.112634 
20   0.142696 
21   0.140102 
22   0.113521 
23   0.112374 
24   0.129945 
25   0.142021 
26   0.112824 
27   0.126471 
28   0.1416 
29   0.139021 
30   0.130835 
 
>  <lowdin_charges> 
30 
1   -0.165602 
2   -0.176157 
3   -0.267895 
4   -0.280984 
5   -0.165417 
6   -0.27164 
7   -0.167613 
8   -0.167513 
9   -0.27561 
10   -0.165094 
11   -0.266577 
12   -0.275275 
13   0.149153 
14   0.14859 
15   0.149868 
16   0.150998 
17   0.155984 
18   0.149249 
19   0.144554 
20   0.14977 
21   0.145014 
22   0.144645 
23   0.145428 
24   0.141443 
25   0.151462 
26   0.142041 
27   0.14067 
28   0.143722 
29   0.150117 
30   0.142669 
 
$$$$ 
 
