PCCDB-ID:  8255 
public computational chemistry database (PCCDB) project, http://pccdb.org 
 
 12 11  0  0  0  0  0  0  0  0999 V2000 
    1.0321    0.0166    0.0148 C   0  0  0  0  0  0  0  0  0  0  0  0 
    3.1707   -0.7547    1.0339 C   0  0  0  0  0  0  0  0  0  0  0  0 
    3.1707    0.7856   -1.0060 C   0  0  0  0  0  0  0  0  0  0  0  0 
    2.3688    0.0157    0.0142 C   0  0  0  0  0  0  0  0  0  0  0  0 
    0.4602   -0.5400    0.7533 H   0  0  0  0  0  0  0  0  0  0  0  0 
    0.4602    0.5739   -0.7232 H   0  0  0  0  0  0  0  0  0  0  0  0 
    2.5271   -1.2894    1.7393 H   0  0  0  0  0  0  0  0  0  0  0  0 
    3.8253   -0.0854    1.6094 H   0  0  0  0  0  0  0  0  0  0  0  0 
    3.8277   -1.4887    0.5470 H   0  0  0  0  0  0  0  0  0  0  0  0 
    2.5271    1.3177   -1.7133 H   0  0  0  0  0  0  0  0  0  0  0  0 
    3.8274    0.1164   -1.5791 H   0  0  0  0  0  0  0  0  0  0  0  0 
    3.8256    1.5219   -0.5196 H   0  0  0  0  0  0  0  0  0  0  0  0 
  1  5  1  0  0  0  0 
  2  8  1  0  0  0  0 
  2  7  1  0  0  0  0 
  3 12  1  0  0  0  0 
  3  4  1  0  0  0  0 
  4  1  2  0  0  0  0 
  4  2  1  0  0  0  0 
  6  1  1  0  0  0  0 
  9  2  1  0  0  0  0 
 10  3  1  0  0  0  0 
 11  3  1  0  0  0  0 
M  END 
>  <HBA> 
0 
 
>  <HBD> 
0 
 
>  <TPSA> 
0.0 
 
>  <cid> 
8255 
 
>  <dipole> 
0.5 
 
>  <excitation_energy_1> 
6.174 
 
>  <excitation_energy_2> 
6.599 
 
>  <excitation_energy_3> 
6.855 
 
>  <excitation_energy_4> 
6.862 
 
>  <homo_energy> 
-6.517 
 
>  <homo_lumo_gap> 
7.366 
 
>  <logP> 
1.582 
 
>  <lumo_energy> 
0.849 
 
>  <melting_point> 
-42.41 
 
>  <molecular_refractivity> 
20.87 
 
>  <oscillator_strength_1> 
0.0038 
 
>  <oscillator_strength_2> 
0.2714 
 
>  <oscillator_strength_3> 
0.0 
 
>  <oscillator_strength_4> 
0.0316 
 
>  <open_babel_can_smiles> 
CC(=C)C 
 
>  <mulliken_charges> 
12 
1   -0.391413 
2   -0.504525 
3   -0.504521 
4   0.232109 
5   0.128939 
6   0.128934 
7   0.152331 
8   0.151496 
9   0.15141 
10   0.152327 
11   0.151426 
12   0.151486 
 
>  <lowdin_charges> 
12 
1   -0.369408 
2   -0.444334 
3   -0.444325 
4   0.011538 
5   0.154017 
6   0.154018 
7   0.157424 
8   0.156015 
9   0.155812 
10   0.15742 
11   0.155974 
12   0.155849 
 
$$$$ 
 
