PCCDB-ID:  23321 
public computational chemistry database (PCCDB) project, http://pccdb.org 
 
 13 13  0  0  0  0  0  0  0  0999 V2000 
   -0.7919    1.2110   -0.0036 C   0  0  0  0  0  0  0  0  0  0  0  0 
    1.3547    0.0159   -0.0669 C   0  0  0  0  0  0  0  0  0  0  0  0 
   -1.4246    0.0108    0.0382 C   0  0  0  0  0  0  0  0  0  0  0  0 
    0.6698   -1.1551   -0.0233 C   0  0  0  0  0  0  0  0  0  0  0  0 
    0.6719    1.3169   -0.0728 C   0  0  0  0  0  0  0  0  0  0  0  0 
   -0.7010   -1.1525   -0.0083 N   0  0  0  0  0  0  0  0  0  0  0  0 
    1.2704    2.3944   -0.1219 O   0  0  0  0  0  0  0  0  0  0  0  0 
   -1.3707   -2.3643    0.1543 O   0  0  0  0  0  0  0  0  0  0  0  0 
   -1.3700    2.1280    0.0219 H   0  0  0  0  0  0  0  0  0  0  0  0 
    2.4387    0.0076   -0.0905 H   0  0  0  0  0  0  0  0  0  0  0  0 
   -2.4980   -0.1234    0.1057 H   0  0  0  0  0  0  0  0  0  0  0  0 
    1.1232   -2.1393   -0.0007 H   0  0  0  0  0  0  0  0  0  0  0  0 
   -1.5677   -2.6697   -0.7513 H   0  0  0  0  0  0  0  0  0  0  0  0 
  1  9  1  0  0  0  0 
  1  3  2  0  0  0  0 
  2  4  2  0  0  0  0 
  3 11  1  0  0  0  0 
  4  6  1  0  0  0  0 
  4 12  1  0  0  0  0 
  5  2  1  0  0  0  0 
  5  1  1  0  0  0  0 
  6  3  1  0  0  0  0 
  6  8  1  0  0  0  0 
  7  5  2  0  0  0  0 
 10  2  1  0  0  0  0 
 13  8  1  0  0  0  0 
M  END 
>  <HBA> 
3 
 
>  <HBD> 
1 
 
>  <TPSA> 
42.23 
 
>  <cid> 
23321 
 
>  <dipole> 
6.04 
 
>  <excitation_energy_1> 
4.05 
 
>  <excitation_energy_2> 
4.473 
 
>  <excitation_energy_3> 
4.76 
 
>  <excitation_energy_4> 
4.8 
 
>  <homo_energy> 
-5.954 
 
>  <homo_lumo_gap> 
5.467 
 
>  <logP> 
0.086 
 
>  <lumo_energy> 
-0.487 
 
>  <melting_point> 
95.49 
 
>  <molecular_refractivity> 
28.24 
 
>  <oscillator_strength_1> 
0.0 
 
>  <oscillator_strength_2> 
0.0002 
 
>  <oscillator_strength_3> 
0.0346 
 
>  <oscillator_strength_4> 
0.0389 
 
>  <open_babel_can_smiles> 
On1ccc(=O)cc1 
 
>  <mulliken_charges> 
13 
1   -0.250228 
2   -0.250256 
3   0.097589 
4   0.097557 
5   0.457285 
6   -0.207875 
7   -0.543259 
8   -0.493882 
9   0.153868 
10   0.153861 
11   0.17843 
12   0.178459 
13   0.428451 
 
>  <lowdin_charges> 
13 
1   -0.212799 
2   -0.209962 
3   -0.09568 
4   -0.095273 
5   0.122954 
6   0.079792 
7   -0.313872 
8   -0.350966 
9   0.179163 
10   0.176836 
11   0.177614 
12   0.179057 
13   0.363136 
 
$$$$ 
 
