PCCDB-ID:  44386 
public computational chemistry database (PCCDB) project, http://pccdb.org 
 
 32 32  0  0  0  0  0  0  0  0999 V2000 
    2.2994    4.2358    4.1014 C   0  0  0  0  0  0  0  0  0  0  0  0 
    3.2624    4.2759    2.9090 C   0  0  0  0  0  0  0  0  0  0  0  0 
    2.5637    4.3367    1.5383 C   0  0  0  0  0  0  0  0  0  0  0  0 
   -0.4319   -1.7583   -0.7341 C   0  0  0  0  0  0  0  0  0  0  0  0 
   -1.1544   -1.0036    0.1933 C   0  0  0  0  0  0  0  0  0  0  0  0 
    0.9345   -1.9633   -0.5310 C   0  0  0  0  0  0  0  0  0  0  0  0 
    1.7425    3.1038    1.1169 C   0  0  0  0  0  0  0  0  0  0  0  0 
   -0.5217   -0.4569    1.3083 C   0  0  0  0  0  0  0  0  0  0  0  0 
    1.5766   -1.4142    0.5782 C   0  0  0  0  0  0  0  0  0  0  0  0 
    2.5466    1.8701    0.7121 C   0  0  0  0  0  0  0  0  0  0  0  0 
    0.8570   -0.6397    1.5071 C   0  0  0  0  0  0  0  0  0  0  0  0 
    2.5022    0.5680    2.7513 C   0  0  0  0  0  0  0  0  0  0  0  0 
    1.4480   -0.1442    2.6792 N   0  0  0  0  0  0  0  0  0  0  0  0 
    3.0976    0.7553    3.9495 O   0  0  0  0  0  0  0  0  0  0  0  0 
    3.2201    1.2301    1.8271 O   0  0  0  0  0  0  0  0  0  0  0  0 
    2.8504    4.2646    5.0480 H   0  0  0  0  0  0  0  0  0  0  0  0 
    1.6938    3.3232    4.1095 H   0  0  0  0  0  0  0  0  0  0  0  0 
    1.6142    5.0933    4.0871 H   0  0  0  0  0  0  0  0  0  0  0  0 
    3.9324    3.4105    2.9510 H   0  0  0  0  0  0  0  0  0  0  0  0 
    3.8987    5.1669    2.9999 H   0  0  0  0  0  0  0  0  0  0  0  0 
    3.3167    4.5295    0.7603 H   0  0  0  0  0  0  0  0  0  0  0  0 
    1.8935    5.2082    1.5297 H   0  0  0  0  0  0  0  0  0  0  0  0 
   -0.9296   -2.1905   -1.5976 H   0  0  0  0  0  0  0  0  0  0  0  0 
   -2.2205   -0.8445    0.0525 H   0  0  0  0  0  0  0  0  0  0  0  0 
    1.5071   -2.5580   -1.2384 H   0  0  0  0  0  0  0  0  0  0  0  0 
    1.1417    3.3714    0.2362 H   0  0  0  0  0  0  0  0  0  0  0  0 
    1.0191    2.8233    1.8932 H   0  0  0  0  0  0  0  0  0  0  0  0 
   -1.0815    0.1176    2.0405 H   0  0  0  0  0  0  0  0  0  0  0  0 
    2.6380   -1.5828    0.7390 H   0  0  0  0  0  0  0  0  0  0  0  0 
    3.3708    2.1425    0.0468 H   0  0  0  0  0  0  0  0  0  0  0  0 
    1.9152    1.1437    0.1988 H   0  0  0  0  0  0  0  0  0  0  0  0 
    2.6107    0.1836    4.5693 H   0  0  0  0  0  0  0  0  0  0  0  0 
  1 17  1  0  0  0  0 
  1 16  1  0  0  0  0 
  2 19  1  0  0  0  0 
  2 20  1  0  0  0  0 
  2  1  1  0  0  0  0 
  3  2  1  0  0  0  0 
  4  6  2  0  0  0  0 
  4  5  1  0  0  0  0 
  5  8  2  0  0  0  0 
  6  9  1  0  0  0  0 
  7  3  1  0  0  0  0 
  7 27  1  0  0  0  0 
  8 11  1  0  0  0  0 
  8 28  1  0  0  0  0 
  9 29  1  0  0  0  0 
  9 11  2  0  0  0  0 
 10  7  1  0  0  0  0 
 10 15  1  0  0  0  0 
 11 13  1  0  0  0  0 
 12 14  1  0  0  0  0 
 13 12  2  0  0  0  0 
 14 32  1  0  0  0  0 
 15 12  1  0  0  0  0 
 18  1  1  0  0  0  0 
 21  3  1  0  0  0  0 
 22  3  1  0  0  0  0 
 23  4  1  0  0  0  0 
 24  5  1  0  0  0  0 
 25  6  1  0  0  0  0 
 26  7  1  0  0  0  0 
 30 10  1  0  0  0  0 
 31 10  1  0  0  0  0 
M  END 
>  <HBA> 
3 
 
>  <HBD> 
1 
 
>  <TPSA> 
38.33 
 
>  <cid> 
44386 
 
>  <dipole> 
1.27 
 
>  <excitation_energy_1> 
4.873 
 
>  <excitation_energy_2> 
4.973 
 
>  <excitation_energy_3> 
5.393 
 
>  <excitation_energy_4> 
5.559 
 
>  <homo_energy> 
-5.791 
 
>  <homo_lumo_gap> 
5.701 
 
>  <logP> 
3.498 
 
>  <lumo_energy> 
-0.09 
 
>  <melting_point> 
57.32 
 
>  <molecular_refractivity> 
61.46 
 
>  <oscillator_strength_1> 
0.0137 
 
>  <oscillator_strength_2> 
0.2286 
 
>  <oscillator_strength_3> 
0.0069 
 
>  <oscillator_strength_4> 
0.0043 
 
>  <open_babel_can_smiles> 
CCCCCO/C(=N\c1ccccc1)/O 
 
>  <mulliken_charges> 
32 
1   -0.441733 
2   -0.255791 
3   -0.253356 
4   -0.132897 
5   -0.136957 
6   -0.137858 
7   -0.285898 
8   -0.155151 
9   -0.154886 
10   -0.060329 
11   0.242688 
12   0.674901 
13   -0.538474 
14   -0.570835 
15   -0.461369 
16   0.143714 
17   0.14538 
18   0.133546 
19   0.163568 
20   0.126947 
21   0.127125 
22   0.131077 
23   0.125391 
24   0.128279 
25   0.129064 
26   0.143347 
27   0.155221 
28   0.128872 
29   0.131329 
30   0.157002 
31   0.178315 
32   0.419766 
 
>  <lowdin_charges> 
32 
1   -0.447063 
2   -0.281135 
3   -0.277286 
4   -0.175252 
5   -0.150074 
6   -0.154533 
7   -0.292887 
8   -0.180386 
9   -0.187179 
10   -0.131454 
11   0.048304 
12   0.201741 
13   -0.246075 
14   -0.348073 
15   -0.188941 
16   0.151278 
17   0.146574 
18   0.142143 
19   0.154425 
20   0.140586 
21   0.14056 
22   0.142086 
23   0.157121 
24   0.15538 
25   0.158696 
26   0.156037 
27   0.153701 
28   0.162076 
29   0.158226 
30   0.156975 
31   0.164991 
32   0.369437 
 
$$$$ 
 
