PCCDB-ID:  67049 
public computational chemistry database (PCCDB) project, http://pccdb.org 
 
 16 16  0  0  0  0  0  0  0  0999 V2000 
   -1.0573    0.6892   -0.0502 C   0  0  0  0  0  0  0  0  0  0  0  0 
    1.2766   -0.6950    0.0504 C   0  0  0  0  0  0  0  0  0  0  0  0 
    1.2151    0.6837   -0.0435 C   0  0  0  0  0  0  0  0  0  0  0  0 
    0.0562   -1.4671    0.1293 C   0  0  0  0  0  0  0  0  0  0  0  0 
    2.5644   -1.3238    0.0619 N   0  0  0  0  0  0  0  0  0  0  0  0 
    2.3462    1.4502   -0.0522 N   0  0  0  0  0  0  0  0  0  0  0  0 
   -0.1409   -2.7381    0.2363 N   0  0  0  0  0  0  0  0  0  0  0  0 
    0.0279    1.3976   -0.1013 N   0  0  0  0  0  0  0  0  0  0  0  0 
   -1.0997   -0.6566    0.0596 N   0  0  0  0  0  0  0  0  0  0  0  0 
   -2.0218    1.1913   -0.0982 H   0  0  0  0  0  0  0  0  0  0  0  0 
    2.7857   -1.7180    0.9769 H   0  0  0  0  0  0  0  0  0  0  0  0 
    2.6015   -2.0934   -0.6062 H   0  0  0  0  0  0  0  0  0  0  0  0 
    3.2044    0.9503   -0.2462 H   0  0  0  0  0  0  0  0  0  0  0  0 
    2.2466    2.3839   -0.4242 H   0  0  0  0  0  0  0  0  0  0  0  0 
    0.7577   -3.2204    0.2934 H   0  0  0  0  0  0  0  0  0  0  0  0 
   -1.9819   -1.1533    0.1078 H   0  0  0  0  0  0  0  0  0  0  0  0 
  1  9  1  0  0  0  0 
  2  5  1  0  0  0  0 
  2  4  1  0  0  0  0 
  3  2  2  0  0  0  0 
  4  7  2  0  0  0  0 
  5 11  1  0  0  0  0 
  6  3  1  0  0  0  0 
  7 15  1  0  0  0  0 
  8  1  2  0  0  0  0 
  8  3  1  0  0  0  0 
  9 16  1  0  0  0  0 
  9  4  1  0  0  0  0 
 10  1  1  0  0  0  0 
 12  5  1  0  0  0  0 
 13  6  1  0  0  0  0 
 14  6  1  0  0  0  0 
M  END 
>  <HBA> 
5 
 
>  <HBD> 
3 
 
>  <TPSA> 
103.84 
 
>  <cid> 
67049 
 
>  <dipole> 
1.21 
 
>  <excitation_energy_1> 
4.032 
 
>  <excitation_energy_2> 
4.449 
 
>  <excitation_energy_3> 
4.872 
 
>  <excitation_energy_4> 
5.165 
 
>  <homo_energy> 
-5.162 
 
>  <homo_lumo_gap> 
4.708 
 
>  <logP> 
0.967 
 
>  <lumo_energy> 
-0.454 
 
>  <melting_point> 
183.8 
 
>  <molecular_refractivity> 
35.25 
 
>  <oscillator_strength_1> 
0.0359 
 
>  <oscillator_strength_2> 
0.0077 
 
>  <oscillator_strength_3> 
0.0001 
 
>  <oscillator_strength_4> 
0.0461 
 
>  <open_babel_can_smiles> 
Nc1c(N)nc[nH]c1=N 
 
>  <mulliken_charges> 
16 
1   0.257914 
2   0.123829 
3   0.453393 
4   0.464078 
5   -0.815859 
6   -0.763172 
7   -0.684106 
8   -0.510298 
9   -0.601867 
10   0.164331 
11   0.316939 
12   0.312011 
13   0.347891 
14   0.334301 
15   0.257582 
16   0.343032 
 
>  <lowdin_charges> 
16 
1   -0.00921 
2   -0.108144 
3   0.105566 
4   0.072752 
5   -0.527006 
6   -0.454475 
7   -0.486524 
8   -0.217912 
9   -0.194776 
10   0.166952 
11   0.26643 
12   0.264631 
13   0.292546 
14   0.287124 
15   0.241283 
16   0.300763 
 
$$$$ 
 
