PCCDB-ID:  20006 
public computational chemistry database (PCCDB) project, http://pccdb.org 
 
 29 29  0  0  1  0  0  0  0  0999 V2000 
    0.5768    0.2566    0.4790 C   0  0  0  0  0  0  0  0  0  0  0  0 
    2.4239    2.5932    1.1627 C   0  0  0  0  0  0  0  0  0  0  0  0 
    2.9173    0.6886    2.5410 C   0  0  0  0  0  0  0  0  0  0  0  0 
    1.4384   -2.5353   -3.9827 C   0  0  0  0  0  0  0  0  0  0  0  0 
    2.5530   -2.6578   -3.1497 C   0  0  0  0  0  0  0  0  0  0  0  0 
    0.6584   -1.3803   -3.9201 C   0  0  0  0  0  0  0  0  0  0  0  0 
    2.8802   -1.6327   -2.2628 C   0  0  0  0  0  0  0  0  0  0  0  0 
    0.9913   -0.3571   -3.0298 C   0  0  0  0  0  0  0  0  0  0  0  0 
    2.4662    0.6319   -1.2068 C   0  0  0  0  0  0  0  0  0  0  0  0 
    2.1015    0.3046    0.2642 C   0  0  1  0  0  0  0  0  0  0  0  0 
    2.1034   -0.4667   -2.1847 C   0  0  0  0  0  0  0  0  0  0  0  0 
    2.8384    1.1967    1.1799 N   0  0  0  0  0  0  0  0  0  0  0  0 
    0.1247   -0.5092   -0.1594 H   0  0  0  0  0  0  0  0  0  0  0  0 
    0.1055    1.2154    0.2317 H   0  0  0  0  0  0  0  0  0  0  0  0 
    0.3261    0.0154    1.5178 H   0  0  0  0  0  0  0  0  0  0  0  0 
    3.1453    3.1853    1.7379 H   0  0  0  0  0  0  0  0  0  0  0  0 
    1.4233    2.7748    1.5996 H   0  0  0  0  0  0  0  0  0  0  0  0 
    2.4225    2.9803    0.1396 H   0  0  0  0  0  0  0  0  0  0  0  0 
    3.6234    1.3005    3.1150 H   0  0  0  0  0  0  0  0  0  0  0  0 
    3.2935   -0.3404    2.5321 H   0  0  0  0  0  0  0  0  0  0  0  0 
    1.9542    0.6961    3.0876 H   0  0  0  0  0  0  0  0  0  0  0  0 
    1.1843   -3.3314   -4.6775 H   0  0  0  0  0  0  0  0  0  0  0  0 
    3.1725   -3.5498   -3.1965 H   0  0  0  0  0  0  0  0  0  0  0  0 
   -0.2086   -1.2717   -4.5668 H   0  0  0  0  0  0  0  0  0  0  0  0 
    3.7568   -1.7321   -1.6255 H   0  0  0  0  0  0  0  0  0  0  0  0 
    0.3809    0.5426   -2.9924 H   0  0  0  0  0  0  0  0  0  0  0  0 
    3.5467    0.8158   -1.2357 H   0  0  0  0  0  0  0  0  0  0  0  0 
    1.9734    1.5627   -1.5140 H   0  0  0  0  0  0  0  0  0  0  0  0 
    2.4978   -0.6994    0.4672 H   0  0  0  0  0  0  0  0  0  0  0  0 
  1 15  1  0  0  0  0 
  2 12  1  0  0  0  0 
  2 17  1  0  0  0  0 
  2 16  1  0  0  0  0 
  3 21  1  0  0  0  0 
  3 19  1  0  0  0  0 
  4  6  2  0  0  0  0 
  4  5  1  0  0  0  0 
  5  7  2  0  0  0  0 
  6  8  1  0  0  0  0 
  7 11  1  0  0  0  0 
  7 25  1  0  0  0  0 
  8 26  1  0  0  0  0 
  8 11  2  0  0  0  0 
  9 10  1  0  0  0  0 
 10 29  1  1  0  0  0 
 10  1  1  0  0  0  0 
 10 12  1  0  0  0  0 
 11  9  1  0  0  0  0 
 12  3  1  0  0  0  0 
 13  1  1  0  0  0  0 
 14  1  1  0  0  0  0 
 18  2  1  0  0  0  0 
 20  3  1  0  0  0  0 
 22  4  1  0  0  0  0 
 23  5  1  0  0  0  0 
 24  6  1  0  0  0  0 
 27  9  1  0  0  0  0 
 28  9  1  0  0  0  0 
M  END 
>  <HBA> 
1 
 
>  <HBD> 
0 
 
>  <TPSA> 
3.24 
 
>  <cid> 
20006 
 
>  <dipole> 
0.57 
 
>  <excitation_energy_1> 
4.761 
 
>  <excitation_energy_2> 
4.868 
 
>  <excitation_energy_3> 
5.049 
 
>  <excitation_energy_4> 
5.309 
 
>  <homo_energy> 
-5.483 
 
>  <homo_lumo_gap> 
5.551 
 
>  <logP> 
2.179 
 
>  <lumo_energy> 
0.068 
 
>  <melting_point> 
7.13 
 
>  <molecular_refractivity> 
53.53 
 
>  <oscillator_strength_1> 
0.0051 
 
>  <oscillator_strength_2> 
0.0017 
 
>  <oscillator_strength_3> 
0.0043 
 
>  <oscillator_strength_4> 
0.0007 
 
>  <open_babel_can_smiles> 
C[C@H](N(C)C)Cc1ccccc1 
 
>  <mulliken_charges> 
29 
1   -0.464513 
2   -0.30466 
3   -0.295366 
4   -0.131774 
5   -0.128697 
6   -0.128123 
7   -0.180737 
8   -0.184605 
9   -0.356236 
10   0.051982 
11   0.170166 
12   -0.370581 
13   0.157598 
14   0.140296 
15   0.145822 
16   0.146985 
17   0.121054 
18   0.151257 
19   0.146128 
20   0.145508 
21   0.118913 
22   0.12681 
23   0.127499 
24   0.127196 
25   0.125527 
26   0.12195 
27   0.155902 
28   0.13624 
29   0.128458 
 
>  <lowdin_charges> 
29 
1   -0.466153 
2   -0.359065 
3   -0.356449 
4   -0.162999 
5   -0.155904 
6   -0.15617 
7   -0.167078 
8   -0.170417 
9   -0.279148 
10   -0.056486 
11   -0.000142 
12   -0.187278 
13   0.161333 
14   0.146629 
15   0.149587 
16   0.150948 
17   0.120716 
18   0.149362 
19   0.149877 
20   0.146998 
21   0.119369 
22   0.157192 
23   0.156736 
24   0.156613 
25   0.155098 
26   0.153861 
27   0.157376 
28   0.14528 
29   0.140314 
 
$$$$ 
 
