PCCDB-ID:  29634 
public computational chemistry database (PCCDB) project, http://pccdb.org 
 
 42 41  0  0  0  0  0  0  0  0999 V2000 
    2.1861    0.2491    2.3512 C   0  0  0  0  0  0  0  0  0  0  0  0 
    3.5736    0.4812    2.9585 C   0  0  0  0  0  0  0  0  0  0  0  0 
    3.5875    0.3381    4.4885 C   0  0  0  0  0  0  0  0  0  0  0  0 
    4.9606    0.5690    5.1593 C   0  0  0  0  0  0  0  0  0  0  0  0 
    5.8196   -0.6876    5.3908 C   0  0  0  0  0  0  0  0  0  0  0  0 
    6.2706   -1.4418    4.1322 C   0  0  0  0  0  0  0  0  0  0  0  0 
    7.2130   -2.6152    4.4484 C   0  0  0  0  0  0  0  0  0  0  0  0 
    7.6754   -3.4385    3.2242 C   0  0  0  0  0  0  0  0  0  0  0  0 
    9.0237   -3.0230    2.6023 C   0  0  0  0  0  0  0  0  0  0  0  0 
    9.1157   -1.5987    2.0210 C   0  0  0  0  0  0  0  0  0  0  0  0 
    8.2243   -1.2940    0.7947 C   0  0  0  0  0  0  0  0  0  0  0  0 
    8.8876   -1.4960   -0.5825 C   0  0  0  0  0  0  0  0  0  0  0  0 
    9.2548   -2.9448   -0.9128 C   0  0  0  0  0  0  0  0  0  0  0  0 
   10.0033   -3.1690   -2.5841 S   0  0  0  0  0  0  0  0  0  0  0  0 
    2.1979    0.3747    1.2624 H   0  0  0  0  0  0  0  0  0  0  0  0 
    1.4517    0.9541    2.7602 H   0  0  0  0  0  0  0  0  0  0  0  0 
    1.8240   -0.7641    2.5658 H   0  0  0  0  0  0  0  0  0  0  0  0 
    3.9243    1.4892    2.6945 H   0  0  0  0  0  0  0  0  0  0  0  0 
    4.2904   -0.2153    2.5063 H   0  0  0  0  0  0  0  0  0  0  0  0 
    3.2067   -0.6561    4.7670 H   0  0  0  0  0  0  0  0  0  0  0  0 
    2.8644    1.0570    4.8985 H   0  0  0  0  0  0  0  0  0  0  0  0 
    4.7997    1.0374    6.1392 H   0  0  0  0  0  0  0  0  0  0  0  0 
    5.5342    1.3004    4.5707 H   0  0  0  0  0  0  0  0  0  0  0  0 
    5.2664   -1.3799    6.0435 H   0  0  0  0  0  0  0  0  0  0  0  0 
    6.7134   -0.3906    5.9588 H   0  0  0  0  0  0  0  0  0  0  0  0 
    6.7553   -0.7373    3.4432 H   0  0  0  0  0  0  0  0  0  0  0  0 
    5.3945   -1.8354    3.5987 H   0  0  0  0  0  0  0  0  0  0  0  0 
    6.6925   -3.2827    5.1491 H   0  0  0  0  0  0  0  0  0  0  0  0 
    8.0933   -2.2427    4.9932 H   0  0  0  0  0  0  0  0  0  0  0  0 
    6.8851   -3.4276    2.4603 H   0  0  0  0  0  0  0  0  0  0  0  0 
    7.7754   -4.4901    3.5235 H   0  0  0  0  0  0  0  0  0  0  0  0 
    9.2814   -3.7572    1.8276 H   0  0  0  0  0  0  0  0  0  0  0  0 
    9.7988   -3.1228    3.3757 H   0  0  0  0  0  0  0  0  0  0  0  0 
   10.1636   -1.3977    1.7548 H   0  0  0  0  0  0  0  0  0  0  0  0 
    8.8811   -0.8851    2.8202 H   0  0  0  0  0  0  0  0  0  0  0  0 
    7.9067   -0.2443    0.8417 H   0  0  0  0  0  0  0  0  0  0  0  0 
    7.2981   -1.8829    0.8415 H   0  0  0  0  0  0  0  0  0  0  0  0 
    9.7905   -0.8761   -0.6528 H   0  0  0  0  0  0  0  0  0  0  0  0 
    8.1996   -1.1249   -1.3545 H   0  0  0  0  0  0  0  0  0  0  0  0 
    8.3859   -3.6049   -0.8191 H   0  0  0  0  0  0  0  0  0  0  0  0 
   10.0229   -3.3230   -0.2320 H   0  0  0  0  0  0  0  0  0  0  0  0 
    8.9489   -2.7094   -3.2935 H   0  0  0  0  0  0  0  0  0  0  0  0 
  1 17  1  0  0  0  0 
  1 16  1  0  0  0  0 
  1  2  1  0  0  0  0 
  2  3  1  0  0  0  0 
  3 20  1  0  0  0  0 
  3 21  1  0  0  0  0 
  3  4  1  0  0  0  0 
  4  5  1  0  0  0  0 
  4 22  1  0  0  0  0 
  5 25  1  0  0  0  0 
  5 24  1  0  0  0  0 
  6  7  1  0  0  0  0 
  6  5  1  0  0  0  0 
  7 29  1  0  0  0  0 
  7 28  1  0  0  0  0 
  8 31  1  0  0  0  0 
  8  7  1  0  0  0  0 
  9  8  1  0  0  0  0 
  9 33  1  0  0  0  0 
 10  9  1  0  0  0  0 
 10 35  1  0  0  0  0 
 11 37  1  0  0  0  0 
 11 36  1  0  0  0  0 
 11 10  1  0  0  0  0 
 12 11  1  0  0  0  0 
 13 40  1  0  0  0  0 
 13 12  1  0  0  0  0 
 13 41  1  0  0  0  0 
 14 13  1  0  0  0  0 
 15  1  1  0  0  0  0 
 18  2  1  0  0  0  0 
 19  2  1  0  0  0  0 
 23  4  1  0  0  0  0 
 26  6  1  0  0  0  0 
 27  6  1  0  0  0  0 
 30  8  1  0  0  0  0 
 32  9  1  0  0  0  0 
 34 10  1  0  0  0  0 
 38 12  1  0  0  0  0 
 39 12  1  0  0  0  0 
 42 14  1  0  0  0  0 
M  END 
>  <HBA> 
1 
 
>  <HBD> 
1 
 
>  <TPSA> 
38.8 
 
>  <cid> 
29634 
 
>  <dipole> 
2.07 
 
>  <excitation_energy_1> 
5.196 
 
>  <excitation_energy_2> 
5.874 
 
>  <excitation_energy_3> 
6.117 
 
>  <excitation_energy_4> 
6.195 
 
>  <homo_energy> 
-6.338 
 
>  <homo_lumo_gap> 
7.097 
 
>  <logP> 
5.227 
 
>  <lumo_energy> 
0.759 
 
>  <melting_point> 
-10.95 
 
>  <molecular_refractivity> 
72.53 
 
>  <oscillator_strength_1> 
0.0093 
 
>  <oscillator_strength_2> 
0.029 
 
>  <oscillator_strength_3> 
0.0015 
 
>  <oscillator_strength_4> 
0.0052 
 
>  <open_babel_can_smiles> 
CCCCCCCCCCCCCS 
 
>  <mulliken_charges> 
42 
1   -0.442051 
2   -0.254211 
3   -0.246886 
4   -0.260635 
5   -0.255823 
6   -0.261903 
7   -0.256497 
8   -0.260433 
9   -0.264917 
10   -0.265172 
11   -0.263808 
12   -0.249587 
13   -0.412904 
14   -0.086576 
15   0.140537 
16   0.14131 
17   0.140687 
18   0.129721 
19   0.137756 
20   0.127127 
21   0.127996 
22   0.129116 
23   0.127194 
24   0.127145 
25   0.126311 
26   0.135824 
27   0.13481 
28   0.129731 
29   0.128825 
30   0.130235 
31   0.131518 
32   0.129265 
33   0.130683 
34   0.131807 
35   0.139451 
36   0.137102 
37   0.136796 
38   0.151403 
39   0.132702 
40   0.172762 
41   0.183654 
42   0.089936 
 
>  <lowdin_charges> 
42 
1   -0.443458 
2   -0.276869 
3   -0.279188 
4   -0.278726 
5   -0.276758 
6   -0.283626 
7   -0.280466 
8   -0.280201 
9   -0.28013 
10   -0.283452 
11   -0.281208 
12   -0.28049 
13   -0.374409 
14   -0.09185 
15   0.146733 
16   0.147114 
17   0.145049 
18   0.137244 
19   0.142266 
20   0.137188 
21   0.141708 
22   0.143152 
23   0.139476 
24   0.138239 
25   0.139679 
26   0.140884 
27   0.139881 
28   0.143146 
29   0.13884 
30   0.138479 
31   0.143456 
32   0.140397 
33   0.141854 
34   0.140926 
35   0.145601 
36   0.146343 
37   0.141414 
38   0.150321 
39   0.144292 
40   0.157308 
41   0.168503 
42   0.11134 
 
$$$$ 
 
