PCCDB-ID:  10600 
public computational chemistry database (PCCDB) project, http://pccdb.org 
 
 22 22  0  0  0  0  0  0  0  0999 V2000 
    3.5277    0.3751   -1.1099 C   0  0  0  0  0  0  0  0  0  0  0  0 
    3.9502    0.6522    2.6385 C   0  0  0  0  0  0  0  0  0  0  0  0 
    2.0376   -3.2670   -0.1519 C   0  0  0  0  0  0  0  0  0  0  0  0 
    2.4171   -0.0119   -0.1153 C   0  0  0  0  0  0  0  0  0  0  0  0 
    3.7733   -1.9039    2.7887 C   0  0  0  0  0  0  0  0  0  0  0  0 
    3.5474   -0.7078    2.1454 C   0  0  0  0  0  0  0  0  0  0  0  0 
    2.6806   -2.3855    0.8725 C   0  0  0  0  0  0  0  0  0  0  0  0 
    2.8508   -1.0111    0.9240 C   0  0  0  0  0  0  0  0  0  0  0  0 
    3.2519   -2.9131    2.0113 N   0  0  0  0  0  0  0  0  0  0  0  0 
    3.1695    1.1154   -1.8359 H   0  0  0  0  0  0  0  0  0  0  0  0 
    3.8791   -0.5031   -1.6635 H   0  0  0  0  0  0  0  0  0  0  0  0 
    4.3921    0.8033   -0.5901 H   0  0  0  0  0  0  0  0  0  0  0  0 
    4.3635    0.5963    3.6516 H   0  0  0  0  0  0  0  0  0  0  0  0 
    3.0984    1.3447    2.6708 H   0  0  0  0  0  0  0  0  0  0  0  0 
    4.7130    1.1187    2.0004 H   0  0  0  0  0  0  0  0  0  0  0  0 
    1.4950   -2.6652   -0.8864 H   0  0  0  0  0  0  0  0  0  0  0  0 
    1.3151   -3.9611    0.2991 H   0  0  0  0  0  0  0  0  0  0  0  0 
    2.7694   -3.8729   -0.7048 H   0  0  0  0  0  0  0  0  0  0  0  0 
    1.5595   -0.4042   -0.6774 H   0  0  0  0  0  0  0  0  0  0  0  0 
    2.0545    0.8985    0.3816 H   0  0  0  0  0  0  0  0  0  0  0  0 
    4.2547   -2.1141    3.7337 H   0  0  0  0  0  0  0  0  0  0  0  0 
    3.2467   -3.8911    2.2562 H   0  0  0  0  0  0  0  0  0  0  0  0 
  1 12  1  0  0  0  0 
  1  4  1  0  0  0  0 
  2 14  1  0  0  0  0 
  2 13  1  0  0  0  0 
  3 17  1  0  0  0  0 
  3  7  1  0  0  0  0 
  4 20  1  0  0  0  0 
  4  8  1  0  0  0  0 
  5 21  1  0  0  0  0 
  6  2  1  0  0  0  0 
  6  5  2  0  0  0  0 
  7  8  2  0  0  0  0 
  7  9  1  0  0  0  0 
  8  6  1  0  0  0  0 
  9 22  1  0  0  0  0 
  9  5  1  0  0  0  0 
 10  1  1  0  0  0  0 
 11  1  1  0  0  0  0 
 15  2  1  0  0  0  0 
 16  3  1  0  0  0  0 
 18  3  1  0  0  0  0 
 19  4  1  0  0  0  0 
M  END 
>  <HBA> 
0 
 
>  <HBD> 
1 
 
>  <TPSA> 
15.79 
 
>  <cid> 
10600 
 
>  <dipole> 
1.75 
 
>  <excitation_energy_1> 
4.516 
 
>  <excitation_energy_2> 
4.921 
 
>  <excitation_energy_3> 
5.126 
 
>  <excitation_energy_4> 
5.255 
 
>  <homo_energy> 
-5.056 
 
>  <homo_lumo_gap> 
6.501 
 
>  <logP> 
2.194 
 
>  <lumo_energy> 
1.445 
 
>  <melting_point> 
63.44 
 
>  <molecular_refractivity> 
40.5 
 
>  <oscillator_strength_1> 
0.0034 
 
>  <oscillator_strength_2> 
0.0105 
 
>  <oscillator_strength_3> 
0.001 
 
>  <oscillator_strength_4> 
0.0016 
 
>  <open_babel_can_smiles> 
CCc1c(C)c[nH]c1C 
 
>  <mulliken_charges> 
22 
1   -0.430778 
2   -0.531996 
3   -0.532623 
4   -0.34209 
5   -0.022367 
6   0.09054 
7   0.279173 
8   0.046216 
9   -0.61604 
10   0.133576 
11   0.141737 
12   0.147039 
13   0.145273 
14   0.150353 
15   0.151636 
16   0.167331 
17   0.149685 
18   0.157243 
19   0.132067 
20   0.136241 
21   0.129492 
22   0.318293 
 
>  <lowdin_charges> 
22 
1   -0.444544 
2   -0.438708 
3   -0.449046 
4   -0.269181 
5   -0.176308 
6   -0.057828 
7   -0.012584 
8   -0.075148 
9   -0.182926 
10   0.144578 
11   0.147416 
12   0.148964 
13   0.153087 
14   0.152665 
15   0.152634 
16   0.167304 
17   0.154228 
18   0.156528 
19   0.143818 
20   0.146006 
21   0.156445 
22   0.282599 
 
$$$$ 
 
