PCCDB-ID:  70759 
public computational chemistry database (PCCDB) project, http://pccdb.org 
 
 22 22  0  0  0  0  0  0  0  0999 V2000 
    0.9996    0.1736    0.5332 C   0  0  0  0  0  0  0  0  0  0  0  0 
    2.9597   -1.2989    0.1682 C   0  0  0  0  0  0  0  0  0  0  0  0 
    2.8070    4.8381   -1.3059 C   0  0  0  0  0  0  0  0  0  0  0  0 
    4.2455    1.6337   -2.7932 C   0  0  0  0  0  0  0  0  0  0  0  0 
    3.9488    2.9814   -2.5987 C   0  0  0  0  0  0  0  0  0  0  0  0 
    3.6900    0.6611   -1.9630 C   0  0  0  0  0  0  0  0  0  0  0  0 
    2.5410    2.3879   -0.7414 C   0  0  0  0  0  0  0  0  0  0  0  0 
    2.1954   -0.0110   -0.0473 C   0  0  0  0  0  0  0  0  0  0  0  0 
    3.0941    3.3756   -1.5605 C   0  0  0  0  0  0  0  0  0  0  0  0 
    2.8118    1.0206   -0.9268 C   0  0  0  0  0  0  0  0  0  0  0  0 
    0.5702   -0.5783    1.1897 H   0  0  0  0  0  0  0  0  0  0  0  0 
    0.3997    1.0619    0.3606 H   0  0  0  0  0  0  0  0  0  0  0  0 
    2.4690   -1.9219    0.9215 H   0  0  0  0  0  0  0  0  0  0  0  0 
    3.9888   -1.1048    0.4945 H   0  0  0  0  0  0  0  0  0  0  0  0 
    3.0250   -1.8901   -0.7544 H   0  0  0  0  0  0  0  0  0  0  0  0 
    2.8829    5.4265   -2.2266 H   0  0  0  0  0  0  0  0  0  0  0  0 
    3.5195    5.2652   -0.5873 H   0  0  0  0  0  0  0  0  0  0  0  0 
    1.8034    4.9850   -0.8925 H   0  0  0  0  0  0  0  0  0  0  0  0 
    4.9107    1.3365   -3.6000 H   0  0  0  0  0  0  0  0  0  0  0  0 
    4.3892    3.7346   -3.2483 H   0  0  0  0  0  0  0  0  0  0  0  0 
    3.9271   -0.3835   -2.1382 H   0  0  0  0  0  0  0  0  0  0  0  0 
    1.8995    2.6894    0.0826 H   0  0  0  0  0  0  0  0  0  0  0  0 
  1 11  1  0  0  0  0 
  2 14  1  0  0  0  0 
  2 13  1  0  0  0  0 
  3 18  1  0  0  0  0 
  3 17  1  0  0  0  0 
  4  5  2  0  0  0  0 
  4  6  1  0  0  0  0 
  5  9  1  0  0  0  0 
  6 10  2  0  0  0  0 
  7 22  1  0  0  0  0 
  8  2  1  0  0  0  0 
  8  1  2  0  0  0  0 
  9  3  1  0  0  0  0 
  9  7  2  0  0  0  0 
 10  7  1  0  0  0  0 
 10  8  1  0  0  0  0 
 12  1  1  0  0  0  0 
 15  2  1  0  0  0  0 
 16  3  1  0  0  0  0 
 19  4  1  0  0  0  0 
 20  5  1  0  0  0  0 
 21  6  1  0  0  0  0 
M  END 
>  <HBA> 
0 
 
>  <HBD> 
0 
 
>  <TPSA> 
0.0 
 
>  <cid> 
70759 
 
>  <dipole> 
0.31 
 
>  <excitation_energy_1> 
4.779 
 
>  <excitation_energy_2> 
4.932 
 
>  <excitation_energy_3> 
5.581 
 
>  <excitation_energy_4> 
5.642 
 
>  <homo_energy> 
-5.957 
 
>  <homo_lumo_gap> 
5.418 
 
>  <logP> 
3.028 
 
>  <lumo_energy> 
-0.539 
 
>  <melting_point> 
-6.86 
 
>  <molecular_refractivity> 
46.31 
 
>  <oscillator_strength_1> 
0.0375 
 
>  <oscillator_strength_2> 
0.2618 
 
>  <oscillator_strength_3> 
0.097 
 
>  <oscillator_strength_4> 
0.0266 
 
>  <open_babel_can_smiles> 
Cc1cccc(c1)C(=C)C 
 
>  <mulliken_charges> 
22 
1   -0.397899 
2   -0.519451 
3   -0.528734 
4   -0.127922 
5   -0.179483 
6   -0.189426 
7   -0.238236 
8   0.161713 
9   0.178938 
10   0.121915 
11   0.134033 
12   0.140099 
13   0.153072 
14   0.160845 
15   0.159708 
16   0.155439 
17   0.165552 
18   0.15672 
19   0.127052 
20   0.120174 
21   0.12334 
22   0.12255 
 
>  <lowdin_charges> 
22 
1   -0.354542 
2   -0.440919 
3   -0.442919 
4   -0.154095 
5   -0.170706 
6   -0.169135 
7   -0.167995 
8   0.008897 
9   0.001932 
10   -0.002714 
11   0.157362 
12   0.158152 
13   0.159002 
14   0.157824 
15   0.157737 
16   0.157588 
17   0.162872 
18   0.157312 
19   0.157098 
20   0.155138 
21   0.15559 
22   0.156522 
 
$$$$ 
 
