PCCDB-ID:  15304 
public computational chemistry database (PCCDB) project, http://pccdb.org 
 
 30 32  0  0  0  0  0  0  0  0999 V2000 
    0.9312    0.0545   -0.0486 C   0  0  0  0  0  0  0  0  0  0  0  0 
    4.7724    6.3141   -0.0382 C   0  0  0  0  0  0  0  0  0  0  0  0 
    3.1582   -1.1714   -0.0486 C   0  0  0  0  0  0  0  0  0  0  0  0 
    6.8745    4.8842   -0.0407 C   0  0  0  0  0  0  0  0  0  0  0  0 
    4.5393   -1.1750   -0.0485 C   0  0  0  0  0  0  0  0  0  0  0  0 
    7.5030    3.6543   -0.0426 C   0  0  0  0  0  0  0  0  0  0  0  0 
    6.7095    0.0199   -0.0478 C   0  0  0  0  0  0  0  0  0  0  0  0 
    7.4205    1.1784   -0.0464 C   0  0  0  0  0  0  0  0  0  0  0  0 
    3.1598    1.2353   -0.0467 C   0  0  0  0  0  0  0  0  0  0  0  0 
    4.7296    3.7927   -0.0423 C   0  0  0  0  0  0  0  0  0  0  0  0 
    2.4436    0.0447   -0.0481 C   0  0  0  0  0  0  0  0  0  0  0  0 
    5.4667    4.9705   -0.0408 C   0  0  0  0  0  0  0  0  0  0  0  0 
    5.2741    0.0306   -0.0474 C   0  0  0  0  0  0  0  0  0  0  0  0 
    6.7609    2.4534   -0.0443 C   0  0  0  0  0  0  0  0  0  0  0  0 
    4.5712    1.2727   -0.0463 C   0  0  0  0  0  0  0  0  0  0  0  0 
    5.3352    2.5173   -0.0443 C   0  0  0  0  0  0  0  0  0  0  0  0 
    0.5262   -0.9624   -0.0445 H   0  0  0  0  0  0  0  0  0  0  0  0 
    0.5328    0.5670   -0.9331 H   0  0  0  0  0  0  0  0  0  0  0  0 
    0.5323    0.5744    0.8313 H   0  0  0  0  0  0  0  0  0  0  0  0 
    5.4948    7.1364   -0.0371 H   0  0  0  0  0  0  0  0  0  0  0  0 
    4.1320    6.4338    0.8446 H   0  0  0  0  0  0  0  0  0  0  0  0 
    4.1312    6.4369   -0.9199 H   0  0  0  0  0  0  0  0  0  0  0  0 
    2.6126   -2.1120   -0.0497 H   0  0  0  0  0  0  0  0  0  0  0  0 
    7.4662    5.7965   -0.0399 H   0  0  0  0  0  0  0  0  0  0  0  0 
    5.0824   -2.1173   -0.0489 H   0  0  0  0  0  0  0  0  0  0  0  0 
    8.5892    3.5969   -0.0419 H   0  0  0  0  0  0  0  0  0  0  0  0 
    7.2181   -0.9413   -0.0496 H   0  0  0  0  0  0  0  0  0  0  0  0 
    8.5078    1.1603   -0.0470 H   0  0  0  0  0  0  0  0  0  0  0  0 
    2.5996    2.1655   -0.0463 H   0  0  0  0  0  0  0  0  0  0  0  0 
    3.6464    3.8708   -0.0415 H   0  0  0  0  0  0  0  0  0  0  0  0 
  1 11  1  0  0  0  0 
  1 17  1  0  0  0  0 
  1 19  1  0  0  0  0 
  2 20  1  0  0  0  0 
  2 21  1  0  0  0  0 
  3  5  2  0  0  0  0 
  3 11  1  0  0  0  0 
  4 24  1  0  0  0  0 
  5 13  1  0  0  0  0 
  6 26  1  0  0  0  0 
  6  4  2  0  0  0  0 
  7 13  2  0  0  0  0 
  7  8  1  0  0  0  0 
  8 14  2  0  0  0  0 
  9 15  1  0  0  0  0 
  9 29  1  0  0  0  0 
 10 30  1  0  0  0  0 
 10 12  2  0  0  0  0 
 11  9  2  0  0  0  0 
 12  4  1  0  0  0  0 
 12  2  1  0  0  0  0 
 13 15  1  0  0  0  0 
 14  6  1  0  0  0  0 
 15 16  2  0  0  0  0 
 16 14  1  0  0  0  0 
 16 10  1  0  0  0  0 
 18  1  1  0  0  0  0 
 22  2  1  0  0  0  0 
 23  3  1  0  0  0  0 
 25  5  1  0  0  0  0 
 27  7  1  0  0  0  0 
 28  8  1  0  0  0  0 
M  END 
>  <HBA> 
0 
 
>  <HBD> 
0 
 
>  <TPSA> 
0.0 
 
>  <cid> 
15304 
 
>  <dipole> 
0.67 
 
>  <excitation_energy_1> 
3.861 
 
>  <excitation_energy_2> 
4.102 
 
>  <excitation_energy_3> 
4.615 
 
>  <excitation_energy_4> 
4.79 
 
>  <homo_energy> 
-5.491 
 
>  <homo_lumo_gap> 
4.593 
 
>  <logP> 
4.61 
 
>  <lumo_energy> 
-0.898 
 
>  <melting_point> 
102.67 
 
>  <molecular_refractivity> 
71.39 
 
>  <oscillator_strength_1> 
0.0037 
 
>  <oscillator_strength_2> 
0.1123 
 
>  <oscillator_strength_3> 
0.0692 
 
>  <oscillator_strength_4> 
0.582 
 
>  <open_babel_can_smiles> 
Cc1ccc2c(c1)c1cc(C)ccc1cc2 
 
>  <mulliken_charges> 
30 
1   -0.532355 
2   -0.532417 
3   -0.182828 
4   -0.182967 
5   -0.206933 
6   -0.207049 
7   -0.194894 
8   -0.195141 
9   -0.252397 
10   -0.252405 
11   0.178657 
12   0.178923 
13   0.141892 
14   0.142285 
15   0.06701 
16   0.066696 
17   0.154585 
18   0.163134 
19   0.163039 
20   0.154559 
21   0.163104 
22   0.163075 
23   0.121346 
24   0.12142 
25   0.127415 
26   0.127459 
27   0.127139 
28   0.127203 
29   0.12524 
30   0.12521 
 
>  <lowdin_charges> 
30 
1   -0.443647 
2   -0.443933 
3   -0.168368 
4   -0.168762 
5   -0.157032 
6   -0.154165 
7   -0.160517 
8   -0.157829 
9   -0.168501 
10   -0.165489 
11   0.00124 
12   0.000418 
13   -0.004489 
14   -0.005119 
15   -0.00111 
16   -0.001471 
17   0.155733 
18   0.161609 
19   0.161602 
20   0.156924 
21   0.161343 
22   0.161335 
23   0.15516 
24   0.155415 
25   0.156713 
26   0.154424 
27   0.157162 
28   0.155115 
29   0.154311 
30   0.151929 
 
$$$$ 
 
