PCCDB-ID:  72669 
public computational chemistry database (PCCDB) project, http://pccdb.org 
 
 18 18  0  0  0  0  0  0  0  0999 V2000 
    4.1984    0.4373   -0.2705 C   0  0  0  0  0  0  0  0  0  0  0  0 
    2.4973   -4.7028    0.0259 C   0  0  0  0  0  0  0  0  0  0  0  0 
    1.2327   -5.0301    0.5329 C   0  0  0  0  0  0  0  0  0  0  0  0 
    2.0592   -2.4869    0.3860 C   0  0  0  0  0  0  0  0  0  0  0  0 
    0.7657   -2.8233    0.9027 C   0  0  0  0  0  0  0  0  0  0  0  0 
    2.4987   -1.0694    0.3163 C   0  0  0  0  0  0  0  0  0  0  0  0 
   -0.1156   -1.9022    1.3441 N   0  0  0  0  0  0  0  0  0  0  0  0 
    2.8975   -3.4362   -0.0412 N   0  0  0  0  0  0  0  0  0  0  0  0 
    0.3735   -4.1167    0.9669 N   0  0  0  0  0  0  0  0  0  0  0  0 
    1.8094   -0.1216    0.6807 O   0  0  0  0  0  0  0  0  0  0  0  0 
    3.7314   -0.9178   -0.1863 O   0  0  0  0  0  0  0  0  0  0  0  0 
    5.2012    0.3698   -0.6925 H   0  0  0  0  0  0  0  0  0  0  0  0 
    4.2272    0.8978    0.7208 H   0  0  0  0  0  0  0  0  0  0  0  0 
    3.5467    1.0305   -0.9178 H   0  0  0  0  0  0  0  0  0  0  0  0 
    3.1850   -5.4685   -0.3237 H   0  0  0  0  0  0  0  0  0  0  0  0 
    0.9078   -6.0684    0.5889 H   0  0  0  0  0  0  0  0  0  0  0  0 
    0.1384   -0.9229    1.3161 H   0  0  0  0  0  0  0  0  0  0  0  0 
   -1.0054   -2.2249    1.6932 H   0  0  0  0  0  0  0  0  0  0  0  0 
  1 11  1  0  0  0  0 
  1 13  1  0  0  0  0 
  2  3  1  0  0  0  0 
  3 16  1  0  0  0  0 
  3  9  2  0  0  0  0 
  4  5  2  0  0  0  0 
  5  9  1  0  0  0  0 
  5  7  1  0  0  0  0 
  6  4  1  0  0  0  0 
  6 10  2  0  0  0  0 
  7 18  1  0  0  0  0 
  8  2  2  0  0  0  0 
  8  4  1  0  0  0  0 
 11  6  1  0  0  0  0 
 12  1  1  0  0  0  0 
 14  1  1  0  0  0  0 
 15  2  1  0  0  0  0 
 17  7  1  0  0  0  0 
M  END 
>  <HBA> 
5 
 
>  <HBD> 
1 
 
>  <TPSA> 
78.1 
 
>  <cid> 
72669 
 
>  <dipole> 
0.42 
 
>  <excitation_energy_1> 
3.764 
 
>  <excitation_energy_2> 
3.826 
 
>  <excitation_energy_3> 
4.834 
 
>  <excitation_energy_4> 
5.116 
 
>  <homo_energy> 
-6.12 
 
>  <homo_lumo_gap> 
4.392 
 
>  <logP> 
0.427 
 
>  <lumo_energy> 
-1.728 
 
>  <melting_point> 
110.43 
 
>  <molecular_refractivity> 
37.72 
 
>  <oscillator_strength_1> 
0.0028 
 
>  <oscillator_strength_2> 
0.1484 
 
>  <oscillator_strength_3> 
0.0002 
 
>  <oscillator_strength_4> 
0.001 
 
>  <open_babel_can_smiles> 
COC(=O)c1nccnc1N 
 
>  <mulliken_charges> 
18 
1   -0.216994 
2   0.005101 
3   0.046956 
4   0.175736 
5   0.506759 
6   0.635643 
7   -0.793429 
8   -0.441417 
9   -0.476436 
10   -0.534588 
11   -0.436039 
12   0.170129 
13   0.169981 
14   0.169966 
15   0.144749 
16   0.150651 
17   0.38133 
18   0.341901 
 
>  <lowdin_charges> 
18 
1   -0.275515 
2   -0.15055 
3   -0.077234 
4   -0.053041 
5   0.111074 
6   0.198386 
7   -0.440398 
8   -0.090113 
9   -0.169941 
10   -0.299844 
11   -0.160654 
12   0.162602 
13   0.158993 
14   0.16087 
15   0.163521 
16   0.161775 
17   0.307032 
18   0.293037 
 
$$$$ 
 
