PCCDB-ID:  22086 
public computational chemistry database (PCCDB) project, http://pccdb.org 
 
 27 29  0  0  0  0  0  0  0  0999 V2000 
    1.9708    0.7809   -0.7709 C   0  0  0  0  0  0  0  0  0  0  0  0 
    1.9091   -6.9845   -0.2206 C   0  0  0  0  0  0  0  0  0  0  0  0 
    2.8418   -7.6270   -1.0501 C   0  0  0  0  0  0  0  0  0  0  0  0 
    1.9328   -5.6007   -0.0453 C   0  0  0  0  0  0  0  0  0  0  0  0 
    3.8256   -6.9028   -1.7289 C   0  0  0  0  0  0  0  0  0  0  0  0 
    2.7965   -2.2531   -0.2564 C   0  0  0  0  0  0  0  0  0  0  0  0 
    5.0343   -2.2310   -2.0156 C   0  0  0  0  0  0  0  0  0  0  0  0 
    2.9096   -4.8549   -0.7148 C   0  0  0  0  0  0  0  0  0  0  0  0 
    3.2687   -3.4525   -0.8048 C   0  0  0  0  0  0  0  0  0  0  0  0 
    4.5529   -1.0343   -1.4664 C   0  0  0  0  0  0  0  0  0  0  0  0 
    3.8313   -5.5293   -1.5404 C   0  0  0  0  0  0  0  0  0  0  0  0 
    4.3743   -3.4013   -1.6724 C   0  0  0  0  0  0  0  0  0  0  0  0 
    3.4322   -1.0663   -0.5921 C   0  0  0  0  0  0  0  0  0  0  0  0 
    5.1113    0.2037   -1.7801 N   0  0  0  0  0  0  0  0  0  0  0  0 
    3.0204    0.1388   -0.0404 O   0  0  0  0  0  0  0  0  0  0  0  0 
    4.7231   -4.6540   -2.1242 O   0  0  0  0  0  0  0  0  0  0  0  0 
    1.7581    1.7174   -0.2491 H   0  0  0  0  0  0  0  0  0  0  0  0 
    1.0659    0.1600   -0.7871 H   0  0  0  0  0  0  0  0  0  0  0  0 
    2.2771    0.9948   -1.8026 H   0  0  0  0  0  0  0  0  0  0  0  0 
    1.1565   -7.5760    0.2932 H   0  0  0  0  0  0  0  0  0  0  0  0 
    2.7999   -8.7060   -1.1686 H   0  0  0  0  0  0  0  0  0  0  0  0 
    1.2065   -5.1132    0.5992 H   0  0  0  0  0  0  0  0  0  0  0  0 
    4.5540   -7.3836   -2.3736 H   0  0  0  0  0  0  0  0  0  0  0  0 
    1.9580   -2.2265    0.4332 H   0  0  0  0  0  0  0  0  0  0  0  0 
    5.8872   -2.2429   -2.6871 H   0  0  0  0  0  0  0  0  0  0  0  0 
    6.0820    0.1742   -2.0660 H   0  0  0  0  0  0  0  0  0  0  0  0 
    4.9389    0.9024   -1.0661 H   0  0  0  0  0  0  0  0  0  0  0  0 
  1 17  1  0  0  0  0 
  1 15  1  0  0  0  0 
  2  4  1  0  0  0  0 
  2 20  1  0  0  0  0 
  3  2  2  0  0  0  0 
  4 22  1  0  0  0  0 
  5 11  2  0  0  0  0 
  5  3  1  0  0  0  0 
  6 24  1  0  0  0  0 
  7 12  2  0  0  0  0 
  7 10  1  0  0  0  0 
  8  4  2  0  0  0  0 
  9  8  1  0  0  0  0 
  9  6  2  0  0  0  0 
 10 13  2  0  0  0  0 
 11  8  1  0  0  0  0 
 12  9  1  0  0  0  0 
 13  6  1  0  0  0  0 
 13 15  1  0  0  0  0 
 14 10  1  0  0  0  0 
 14 27  1  0  0  0  0 
 16 12  1  0  0  0  0 
 16 11  1  0  0  0  0 
 18  1  1  0  0  0  0 
 19  1  1  0  0  0  0 
 21  3  1  0  0  0  0 
 23  5  1  0  0  0  0 
 25  7  1  0  0  0  0 
 26 14  1  0  0  0  0 
M  END 
>  <HBA> 
3 
 
>  <HBD> 
1 
 
>  <TPSA> 
48.39 
 
>  <cid> 
22086 
 
>  <dipole> 
1.66 
 
>  <excitation_energy_1> 
4.089 
 
>  <excitation_energy_2> 
4.414 
 
>  <excitation_energy_3> 
4.696 
 
>  <excitation_energy_4> 
4.943 
 
>  <homo_energy> 
-5.195 
 
>  <homo_lumo_gap> 
4.566 
 
>  <logP> 
3.758 
 
>  <lumo_energy> 
-0.629 
 
>  <melting_point> 
148.49 
 
>  <molecular_refractivity> 
64.62 
 
>  <oscillator_strength_1> 
0.3901 
 
>  <oscillator_strength_2> 
0.0172 
 
>  <oscillator_strength_3> 
0.0071 
 
>  <oscillator_strength_4> 
0.0941 
 
>  <open_babel_can_smiles> 
COc1cc2c(cc1N)oc1c2cccc1 
 
>  <mulliken_charges> 
27 
1   -0.211237 
2   -0.144743 
3   -0.139299 
4   -0.195086 
5   -0.203412 
6   -0.249906 
7   -0.280567 
8   0.083311 
9   0.082072 
10   0.294505 
11   0.316641 
12   0.326413 
13   0.298761 
14   -0.800008 
15   -0.544303 
16   -0.559323 
17   0.158337 
18   0.146526 
19   0.157542 
20   0.126625 
21   0.129426 
22   0.130476 
23   0.142763 
24   0.13806 
25   0.138007 
26   0.32242 
27   0.335998 
 
>  <lowdin_charges> 
27 
1   -0.273995 
2   -0.169608 
3   -0.155263 
4   -0.160571 
5   -0.179774 
6   -0.165155 
7   -0.221938 
8   -0.031934 
9   -0.057157 
10   0.047814 
11   0.092303 
12   0.101752 
13   0.048902 
14   -0.483368 
15   -0.244309 
16   -0.131262 
17   0.155093 
18   0.142504 
19   0.146055 
20   0.158717 
21   0.15716 
22   0.160062 
23   0.169816 
24   0.167493 
25   0.167328 
26   0.27546 
27   0.283875 
 
$$$$ 
 
