PCCDB-ID:  72856 
public computational chemistry database (PCCDB) project, http://pccdb.org 
 
 27 27  0  0  0  0  0  0  0  0999 V2000 
    2.1369    2.2657    2.5348 C   0  0  0  0  0  0  0  0  0  0  0  0 
    6.1497   -4.5654    0.3226 C   0  0  0  0  0  0  0  0  0  0  0  0 
    2.7469    1.1423    2.1590 C   0  0  0  0  0  0  0  0  0  0  0  0 
    6.8725   -3.4496    0.2301 C   0  0  0  0  0  0  0  0  0  0  0  0 
    6.8989    1.1784    0.0267 C   0  0  0  0  0  0  0  0  0  0  0  0 
    3.1582    0.8177    0.7394 C   0  0  0  0  0  0  0  0  0  0  0  0 
    7.0310   -2.4232    1.3294 C   0  0  0  0  0  0  0  0  0  0  0  0 
    5.5359    1.4488    0.1167 C   0  0  0  0  0  0  0  0  0  0  0  0 
    7.3778   -0.0672    0.4345 C   0  0  0  0  0  0  0  0  0  0  0  0 
    4.6385    0.4941    0.6078 C   0  0  0  0  0  0  0  0  0  0  0  0 
    6.5180   -1.0529    0.9241 C   0  0  0  0  0  0  0  0  0  0  0  0 
    5.1463   -0.7552    1.0055 C   0  0  0  0  0  0  0  0  0  0  0  0 
    4.3370   -1.7420    1.5150 O   0  0  0  0  0  0  0  0  0  0  0  0 
    1.8693    2.4511    3.5715 H   0  0  0  0  0  0  0  0  0  0  0  0 
    1.8815    3.0460    1.8203 H   0  0  0  0  0  0  0  0  0  0  0  0 
    6.0754   -5.2685   -0.5031 H   0  0  0  0  0  0  0  0  0  0  0  0 
    5.6012   -4.8159    1.2279 H   0  0  0  0  0  0  0  0  0  0  0  0 
    2.9934    0.3932    2.9126 H   0  0  0  0  0  0  0  0  0  0  0  0 
    7.3960   -3.2250   -0.7003 H   0  0  0  0  0  0  0  0  0  0  0  0 
    7.5830    1.9320   -0.3526 H   0  0  0  0  0  0  0  0  0  0  0  0 
    2.9123    1.6630    0.0877 H   0  0  0  0  0  0  0  0  0  0  0  0 
    2.5489   -0.0227    0.3612 H   0  0  0  0  0  0  0  0  0  0  0  0 
    8.0964   -2.3317    1.5831 H   0  0  0  0  0  0  0  0  0  0  0  0 
    6.5115   -2.7716    2.2279 H   0  0  0  0  0  0  0  0  0  0  0  0 
    5.1516    2.4181   -0.1927 H   0  0  0  0  0  0  0  0  0  0  0  0 
    8.4421   -0.2845    0.3744 H   0  0  0  0  0  0  0  0  0  0  0  0 
    3.4096   -1.4813    1.4162 H   0  0  0  0  0  0  0  0  0  0  0  0 
  1 14  1  0  0  0  0 
  2 17  1  0  0  0  0 
  3  1  2  0  0  0  0 
  3 18  1  0  0  0  0 
  4  2  2  0  0  0  0 
  4  7  1  0  0  0  0 
  5  8  2  0  0  0  0 
  5  9  1  0  0  0  0 
  6  3  1  0  0  0  0 
  7 23  1  0  0  0  0 
  7 24  1  0  0  0  0 
  8 10  1  0  0  0  0 
  9 11  2  0  0  0  0 
 10  6  1  0  0  0  0 
 10 12  2  0  0  0  0 
 11 12  1  0  0  0  0 
 11  7  1  0  0  0  0 
 12 13  1  0  0  0  0 
 15  1  1  0  0  0  0 
 16  2  1  0  0  0  0 
 19  4  1  0  0  0  0 
 20  5  1  0  0  0  0 
 21  6  1  0  0  0  0 
 22  6  1  0  0  0  0 
 25  8  1  0  0  0  0 
 26  9  1  0  0  0  0 
 27 13  1  0  0  0  0 
M  END 
>  <HBA> 
1 
 
>  <HBD> 
1 
 
>  <TPSA> 
20.23 
 
>  <cid> 
72856 
 
>  <dipole> 
1.43 
 
>  <excitation_energy_1> 
4.84 
 
>  <excitation_energy_2> 
5.202 
 
>  <excitation_energy_3> 
5.339 
 
>  <excitation_energy_4> 
5.555 
 
>  <homo_energy> 
-5.831 
 
>  <homo_lumo_gap> 
5.736 
 
>  <logP> 
2.849 
 
>  <lumo_energy> 
-0.095 
 
>  <melting_point> 
9.11 
 
>  <molecular_refractivity> 
56.68 
 
>  <oscillator_strength_1> 
0.0832 
 
>  <oscillator_strength_2> 
0.0041 
 
>  <oscillator_strength_3> 
0.0043 
 
>  <oscillator_strength_4> 
0.0166 
 
>  <open_babel_can_smiles> 
C=CCc1cccc(c1O)CC=C 
 
>  <mulliken_charges> 
27 
1   -0.337602 
2   -0.333163 
3   -0.030439 
4   -0.029228 
5   -0.124198 
6   -0.449063 
7   -0.382778 
8   -0.194618 
9   -0.201644 
10   0.162554 
11   0.139072 
12   0.221848 
13   -0.650797 
14   0.144126 
15   0.137005 
16   0.133839 
17   0.137656 
18   0.135796 
19   0.12461 
20   0.12386 
21   0.16058 
22   0.147149 
23   0.146602 
24   0.161599 
25   0.122312 
26   0.121661 
27   0.413263 
 
>  <lowdin_charges> 
27 
1   -0.336716 
2   -0.341303 
3   -0.150513 
4   -0.140763 
5   -0.178067 
6   -0.278047 
7   -0.265954 
8   -0.157952 
9   -0.159235 
10   -0.049297 
11   -0.027346 
12   0.088509 
13   -0.381821 
14   0.160196 
15   0.155853 
16   0.1566 
17   0.156279 
18   0.153582 
19   0.149186 
20   0.157961 
21   0.163034 
22   0.147116 
23   0.152859 
24   0.162822 
25   0.15464 
26   0.153014 
27   0.355362 
 
$$$$ 
 
