PCCDB-ID:  9235 
public computational chemistry database (PCCDB) project, http://pccdb.org 
 
 22 23  0  0  1  0  0  0  0  0999 V2000 
    0.7796    1.4187   -0.3069 C   0  0  0  0  0  0  0  0  0  0  0  0 
   -0.7795    1.4188   -0.3070 C   0  0  0  0  0  0  0  0  0  0  0  0 
    0.7792   -0.4436    1.3822 C   0  0  0  0  0  0  0  0  0  0  0  0 
    0.7796   -0.9751   -1.0750 C   0  0  0  0  0  0  0  0  0  0  0  0 
   -0.7796   -0.4438    1.3819 C   0  0  0  0  0  0  0  0  0  0  0  0 
   -0.7793   -0.9749   -1.0754 C   0  0  0  0  0  0  0  0  0  0  0  0 
    1.2998   -0.0002    0.0004 C   0  0  1  0  0  0  0  0  0  0  0  0 
   -1.2998   -0.0002    0.0000 C   0  0  2  0  0  0  0  0  0  0  0  0 
    1.1681    2.1230    0.4396 H   0  0  0  0  0  0  0  0  0  0  0  0 
    1.1679    1.7510   -1.2780 H   0  0  0  0  0  0  0  0  0  0  0  0 
   -1.1677    1.7513   -1.2779 H   0  0  0  0  0  0  0  0  0  0  0  0 
   -1.1680    2.1229    0.4397 H   0  0  0  0  0  0  0  0  0  0  0  0 
    1.1680   -1.4422    1.6181 H   0  0  0  0  0  0  0  0  0  0  0  0 
    1.1673    0.2312    2.1554 H   0  0  0  0  0  0  0  0  0  0  0  0 
    1.1685   -0.6804   -2.0578 H   0  0  0  0  0  0  0  0  0  0  0  0 
    1.1680   -1.9821   -0.8772 H   0  0  0  0  0  0  0  0  0  0  0  0 
   -1.1682    0.2306    2.1552 H   0  0  0  0  0  0  0  0  0  0  0  0 
   -1.1682   -1.4426    1.6174 H   0  0  0  0  0  0  0  0  0  0  0  0 
   -1.1681   -1.9819   -0.8782 H   0  0  0  0  0  0  0  0  0  0  0  0 
   -1.1676   -0.6797   -2.0583 H   0  0  0  0  0  0  0  0  0  0  0  0 
    2.3973   -0.0003    0.0006 H   0  0  0  0  0  0  0  0  0  0  0  0 
   -2.3973   -0.0003   -0.0001 H   0  0  0  0  0  0  0  0  0  0  0  0 
  1  7  1  0  0  0  0 
  1  9  1  0  0  0  0 
  2  1  1  0  0  0  0 
  2  8  1  0  0  0  0 
  2 12  1  0  0  0  0 
  3 13  1  0  0  0  0 
  3 14  1  0  0  0  0 
  4 16  1  0  0  0  0 
  4  7  1  0  0  0  0 
  5  3  1  0  0  0  0 
  5 18  1  0  0  0  0 
  5 17  1  0  0  0  0 
  6  4  1  0  0  0  0 
  6 19  1  0  0  0  0 
  6  8  1  0  0  0  0 
  7 21  1  1  0  0  0 
  7  3  1  0  0  0  0 
  8 22  1  6  0  0  0 
  8  5  1  0  0  0  0 
 10  1  1  0  0  0  0 
 11  2  1  0  0  0  0 
 15  4  1  0  0  0  0 
 20  6  1  0  0  0  0 
M  END 
>  <HBA> 
0 
 
>  <HBD> 
0 
 
>  <TPSA> 
0.0 
 
>  <cid> 
9235 
 
>  <dipole> 
0.0 
 
>  <excitation_energy_1> 
6.854 
 
>  <excitation_energy_2> 
6.856 
 
>  <excitation_energy_3> 
6.979 
 
>  <excitation_energy_4> 
7.493 
 
>  <homo_energy> 
-7.529 
 
>  <homo_lumo_gap> 
9.404 
 
>  <logP> 
2.587 
 
>  <lumo_energy> 
1.875 
 
>  <melting_point> 
17.27 
 
>  <molecular_refractivity> 
36.34 
 
>  <oscillator_strength_1> 
0.0 
 
>  <oscillator_strength_2> 
0.0 
 
>  <oscillator_strength_3> 
0.0 
 
>  <oscillator_strength_4> 
0.035 
 
>  <open_babel_can_smiles> 
C1C[C@@H]2CC[C@H]1CC2 
 
>  <mulliken_charges> 
22 
1   -0.266619 
2   -0.266738 
3   -0.266501 
4   -0.26653 
5   -0.266549 
6   -0.266563 
7   -0.085409 
8   -0.085363 
9   0.128955 
10   0.128991 
11   0.129 
12   0.128958 
13   0.128979 
14   0.128985 
15   0.128994 
16   0.128945 
17   0.128991 
18   0.128983 
19   0.128949 
20   0.128993 
21   0.111273 
22   0.111275 
 
>  <lowdin_charges> 
22 
1   -0.285737 
2   -0.28575 
3   -0.28517 
4   -0.283423 
5   -0.285174 
6   -0.283425 
7   -0.128071 
8   -0.128068 
9   0.142034 
10   0.140822 
11   0.140825 
12   0.142033 
13   0.140447 
14   0.142025 
15   0.140584 
16   0.140234 
17   0.142029 
18   0.140444 
19   0.140237 
20   0.140581 
21   0.136262 
22   0.136262 
 
$$$$ 
 
