PCCDB-ID:  6492 
public computational chemistry database (PCCDB) project, http://pccdb.org 
 
 22 24  0  0  1  0  0  0  0  0999 V2000 
    5.4696    0.6045    0.8965 C   0  0  0  0  0  0  0  0  0  0  0  0 
    4.6667    0.1960    1.8967 C   0  0  0  0  0  0  0  0  0  0  0  0 
    4.6868    0.8611   -0.4056 C   0  0  0  0  0  0  0  0  0  0  0  0 
    1.1178   -0.8500    0.6849 C   0  0  0  0  0  0  0  0  0  0  0  0 
    1.1888   -0.1843   -0.4777 C   0  0  0  0  0  0  0  0  0  0  0  0 
    1.2557    1.4042    1.2507 C   0  0  0  0  0  0  0  0  0  0  0  0 
    1.7654    0.0284    1.7673 C   0  0  2  0  0  0  0  0  0  0  0  0 
    1.8022    1.1871   -0.2063 C   0  0  1  0  0  0  0  0  0  0  0  0 
    3.2809   -0.0099    1.3025 C   0  0  1  0  0  0  0  0  0  0  0  0 
    3.3035    1.0926    0.2273 C   0  0  1  0  0  0  0  0  0  0  0  0 
    6.5495    0.7113    0.9613 H   0  0  0  0  0  0  0  0  0  0  0  0 
    4.9901   -0.0895    2.8933 H   0  0  0  0  0  0  0  0  0  0  0  0 
    4.7122   -0.0301   -1.0536 H   0  0  0  0  0  0  0  0  0  0  0  0 
    5.0771    1.7071   -0.9829 H   0  0  0  0  0  0  0  0  0  0  0  0 
    0.8076   -1.8802    0.8331 H   0  0  0  0  0  0  0  0  0  0  0  0 
    0.9152   -0.5565   -1.4599 H   0  0  0  0  0  0  0  0  0  0  0  0 
    1.6869    2.2736    1.7588 H   0  0  0  0  0  0  0  0  0  0  0  0 
    0.1644    1.4712    1.2837 H   0  0  0  0  0  0  0  0  0  0  0  0 
    1.5449   -0.2342    2.8042 H   0  0  0  0  0  0  0  0  0  0  0  0 
    1.5715    1.9721   -0.9311 H   0  0  0  0  0  0  0  0  0  0  0  0 
    3.3803   -0.9827    0.7968 H   0  0  0  0  0  0  0  0  0  0  0  0 
    3.4599    2.0340    0.7696 H   0  0  0  0  0  0  0  0  0  0  0  0 
  1 11  1  0  0  0  0 
  1  2  2  0  0  0  0 
  2 12  1  0  0  0  0 
  3 10  1  0  0  0  0 
  3  1  1  0  0  0  0 
  4 15  1  0  0  0  0 
  4  7  1  0  0  0  0 
  5  8  1  0  0  0  0 
  5  4  2  0  0  0  0 
  6 18  1  0  0  0  0 
  6 17  1  0  0  0  0 
  6  7  1  0  0  0  0 
  7 19  1  1  0  0  0 
  8 20  1  6  0  0  0 
  8 10  1  0  0  0  0 
  8  6  1  0  0  0  0 
  9 21  1  6  0  0  0 
  9  7  1  0  0  0  0 
  9  2  1  0  0  0  0 
 10 22  1  1  0  0  0 
 10  9  1  0  0  0  0 
 13  3  1  0  0  0  0 
 14  3  1  0  0  0  0 
 16  5  1  0  0  0  0 
M  END 
>  <HBA> 
0 
 
>  <HBD> 
0 
 
>  <TPSA> 
0.0 
 
>  <cid> 
6492 
 
>  <dipole> 
0.11 
 
>  <excitation_energy_1> 
5.63 
 
>  <excitation_energy_2> 
5.723 
 
>  <excitation_energy_3> 
5.872 
 
>  <excitation_energy_4> 
5.981 
 
>  <homo_energy> 
-6.065 
 
>  <homo_lumo_gap> 
6.561 
 
>  <logP> 
2.385 
 
>  <lumo_energy> 
0.495 
 
>  <melting_point> 
58.1 
 
>  <molecular_refractivity> 
42.89 
 
>  <oscillator_strength_1> 
0.0104 
 
>  <oscillator_strength_2> 
0.0293 
 
>  <oscillator_strength_3> 
0.0012 
 
>  <oscillator_strength_4> 
0.0068 
 
>  <open_babel_can_smiles> 
C1=C[C@@H]2[C@@H](C1)[C@H]1C=C[C@@H]2C1 
 
>  <mulliken_charges> 
22 
1   -0.133346 
2   -0.108924 
3   -0.307364 
4   -0.129683 
5   -0.086259 
6   -0.258734 
7   -0.161167 
8   -0.179503 
9   -0.129992 
10   -0.080487 
11   0.123408 
12   0.122472 
13   0.142596 
14   0.134811 
15   0.127027 
16   0.125795 
17   0.132058 
18   0.139578 
19   0.120166 
20   0.118931 
21   0.149256 
22   0.139362 
 
>  <lowdin_charges> 
22 
1   -0.174098 
2   -0.170013 
3   -0.282316 
4   -0.168465 
5   -0.172623 
6   -0.267622 
7   -0.136972 
8   -0.13985 
9   -0.142817 
10   -0.128246 
11   0.149543 
12   0.155006 
13   0.148561 
14   0.146639 
15   0.155261 
16   0.155376 
17   0.140134 
18   0.14561 
19   0.14408 
20   0.145562 
21   0.150505 
22   0.146745 
 
$$$$ 
 
