PCCDB-ID:  11568 
public computational chemistry database (PCCDB) project, http://pccdb.org 
 
 15 15  0  0  0  0  0  0  0  0999 V2000 
   -0.7544    1.1581   -0.0183 C   0  0  0  0  0  0  0  0  0  0  0  0 
   -1.3937   -0.0771    0.0085 C   0  0  0  0  0  0  0  0  0  0  0  0 
    0.6376    1.2541   -0.0512 C   0  0  0  0  0  0  0  0  0  0  0  0 
    0.7680   -1.1725   -0.0310 C   0  0  0  0  0  0  0  0  0  0  0  0 
   -0.6304   -1.2597    0.0033 C   0  0  0  0  0  0  0  0  0  0  0  0 
    1.3915    0.0754   -0.0565 C   0  0  0  0  0  0  0  0  0  0  0  0 
   -1.2571   -2.5068    0.0888 N   0  0  0  0  0  0  0  0  0  0  0  0 
    2.7610    0.0819   -0.0917 O   0  0  0  0  0  0  0  0  0  0  0  0 
   -1.3504    2.0671   -0.0154 H   0  0  0  0  0  0  0  0  0  0  0  0 
   -2.4788   -0.1352    0.0395 H   0  0  0  0  0  0  0  0  0  0  0  0 
    1.1298    2.2240   -0.0737 H   0  0  0  0  0  0  0  0  0  0  0  0 
    1.3837   -2.0675   -0.0325 H   0  0  0  0  0  0  0  0  0  0  0  0 
   -2.2057   -2.5282   -0.2644 H   0  0  0  0  0  0  0  0  0  0  0  0 
   -0.7127   -3.2814   -0.2703 H   0  0  0  0  0  0  0  0  0  0  0  0 
    3.0651    1.0025   -0.1009 H   0  0  0  0  0  0  0  0  0  0  0  0 
  1  9  1  0  0  0  0 
  1  2  2  0  0  0  0 
  2 10  1  0  0  0  0 
  3  1  1  0  0  0  0 
  4  5  2  0  0  0  0 
  5  2  1  0  0  0  0 
  5  7  1  0  0  0  0 
  6  3  2  0  0  0  0 
  6  4  1  0  0  0  0 
  8  6  1  0  0  0  0 
 11  3  1  0  0  0  0 
 12  4  1  0  0  0  0 
 13  7  1  0  0  0  0 
 14  7  1  0  0  0  0 
 15  8  1  0  0  0  0 
M  END 
>  <HBA> 
2 
 
>  <HBD> 
2 
 
>  <TPSA> 
46.25 
 
>  <cid> 
11568 
 
>  <dipole> 
1.32 
 
>  <excitation_energy_1> 
4.776 
 
>  <excitation_energy_2> 
4.796 
 
>  <excitation_energy_3> 
4.998 
 
>  <excitation_energy_4> 
5.439 
 
>  <homo_energy> 
-5.342 
 
>  <homo_lumo_gap> 
5.744 
 
>  <logP> 
1.556 
 
>  <lumo_energy> 
0.403 
 
>  <melting_point> 
93.45 
 
>  <molecular_refractivity> 
32.87 
 
>  <oscillator_strength_1> 
0.0236 
 
>  <oscillator_strength_2> 
0.0109 
 
>  <oscillator_strength_3> 
0.0015 
 
>  <oscillator_strength_4> 
0.0149 
 
>  <open_babel_can_smiles> 
Nc1cccc(c1)O 
 
>  <mulliken_charges> 
15 
1   -0.138737 
2   -0.17879 
3   -0.207798 
4   -0.216374 
5   0.31238 
6   0.350295 
7   -0.789045 
8   -0.647478 
9   0.12597 
10   0.111832 
11   0.108789 
12   0.124293 
13   0.318934 
14   0.319907 
15   0.405822 
 
>  <lowdin_charges> 
15 
1   -0.136375 
2   -0.221151 
3   -0.246716 
4   -0.235316 
5   0.071011 
6   0.114824 
7   -0.487768 
8   -0.382474 
9   0.157291 
10   0.149591 
11   0.150101 
12   0.161904 
13   0.273985 
14   0.276221 
15   0.354872 
 
$$$$ 
 
