PCCDB-ID:  15437 
public computational chemistry database (PCCDB) project, http://pccdb.org 
 
 27 26  0  0  0  0  0  0  0  0999 V2000 
    0.2261    0.1216   -0.6840 C   0  0  0  0  0  0  0  0  0  0  0  0 
    1.7842   -0.1636    1.3047 C   0  0  0  0  0  0  0  0  0  0  0  0 
    3.5393   -4.1976   -0.1073 C   0  0  0  0  0  0  0  0  0  0  0  0 
    3.7759    2.1812    0.1729 C   0  0  0  0  0  0  0  0  0  0  0  0 
    2.6157   -0.4127   -1.0918 C   0  0  0  0  0  0  0  0  0  0  0  0 
    5.0406   -2.8231   -1.3549 C   0  0  0  0  0  0  0  0  0  0  0  0 
    1.6656    0.2671   -0.1569 C   0  0  0  0  0  0  0  0  0  0  0  0 
    4.8388   -3.8471   -0.6491 N   0  0  0  0  0  0  0  0  0  0  0  0 
    3.3799   -1.3453   -0.6712 N   0  0  0  0  0  0  0  0  0  0  0  0 
    6.2290   -2.5896   -1.9549 O   0  0  0  0  0  0  0  0  0  0  0  0 
    1.9313    2.4862   -1.7731 O   0  0  0  0  0  0  0  0  0  0  0  0 
    4.2068   -1.7956   -1.7360 O   0  0  0  0  0  0  0  0  0  0  0  0 
    2.0009    2.1505   -0.2973 S   0  0  2  0  0  0  0  0  0  0  0  0 
   -0.0590   -0.9361   -0.6961 H   0  0  0  0  0  0  0  0  0  0  0  0 
    0.1363    0.5226   -1.6974 H   0  0  0  0  0  0  0  0  0  0  0  0 
   -0.4755    0.6590   -0.0356 H   0  0  0  0  0  0  0  0  0  0  0  0 
    1.4448   -1.1994    1.4099 H   0  0  0  0  0  0  0  0  0  0  0  0 
    1.1516    0.4659    1.9405 H   0  0  0  0  0  0  0  0  0  0  0  0 
    2.8129   -0.1229    1.6705 H   0  0  0  0  0  0  0  0  0  0  0  0 
    3.4357   -3.8269    0.9194 H   0  0  0  0  0  0  0  0  0  0  0  0 
    3.4675   -5.2903   -0.0741 H   0  0  0  0  0  0  0  0  0  0  0  0 
    2.6939   -3.8112   -0.6899 H   0  0  0  0  0  0  0  0  0  0  0  0 
    3.8907    1.9241    1.2290 H   0  0  0  0  0  0  0  0  0  0  0  0 
    4.1042    3.2104    0.0080 H   0  0  0  0  0  0  0  0  0  0  0  0 
    4.3574    1.5047   -0.4577 H   0  0  0  0  0  0  0  0  0  0  0  0 
    2.6410   -0.0713   -2.1290 H   0  0  0  0  0  0  0  0  0  0  0  0 
    6.7570   -3.3896   -1.7850 H   0  0  0  0  0  0  0  0  0  0  0  0 
  1  7  1  0  0  0  0 
  1 16  1  0  0  0  0 
  2 17  1  0  0  0  0 
  2 19  1  0  0  0  0 
  2 18  1  0  0  0  0 
  3 21  1  0  0  0  0 
  3 20  1  0  0  0  0 
  4 23  1  0  0  0  0 
  5  9  1  0  0  0  0 
  5  7  1  0  0  0  0 
  6  8  2  0  0  0  0 
  7  2  1  0  0  0  0 
  8  3  1  0  0  0  0 
 10 27  1  0  0  0  0 
 10  6  1  0  0  0  0 
 12  6  1  0  0  0  0 
 12  9  1  0  0  0  0 
 13 11  2  6  0  0  0 
 13  7  1  0  0  0  0 
 13  4  1  0  0  0  0 
 14  1  1  0  0  0  0 
 15  1  1  0  0  0  0 
 22  3  1  0  0  0  0 
 24  4  1  0  0  0  0 
 25  4  1  0  0  0  0 
 26  5  1  0  0  0  0 
M  RAD  2   5   2   9   2 
M  END 
>  <HBA> 
5 
 
>  <HBD> 
1 
 
>  <TPSA> 
86.97 
 
>  <cid> 
15437 
 
>  <dipole> 
3.23 
 
>  <excitation_energy_1> 
4.438 
 
>  <excitation_energy_2> 
5.08 
 
>  <excitation_energy_3> 
5.135 
 
>  <excitation_energy_4> 
5.415 
 
>  <homo_energy> 
-6.261 
 
>  <homo_lumo_gap> 
5.314 
 
>  <logP> 
1.742 
 
>  <lumo_energy> 
-0.947 
 
>  <melting_point> 
73.26 
 
>  <molecular_refractivity> 
52.24 
 
>  <oscillator_strength_1> 
0.069 
 
>  <oscillator_strength_2> 
0.04 
 
>  <oscillator_strength_3> 
0.0345 
 
>  <oscillator_strength_4> 
0.0221 
 
>  <open_babel_can_smiles> 
C/N=C(\O[N][CH]C([S@](=O)C)(C)C)/O 
 
>  <mulliken_charges> 
27 
1   -0.467832 
2   -0.462939 
3   -0.305746 
4   -0.645771 
5   0.096756 
6   0.678399 
7   -0.173475 
8   -0.438897 
9   -0.142994 
10   -0.571209 
11   -0.637933 
12   -0.391917 
13   0.767267 
14   0.167334 
15   0.19239 
16   0.164463 
17   0.174898 
18   0.159558 
19   0.172158 
20   0.158145 
21   0.152164 
22   0.141603 
23   0.183009 
24   0.204579 
25   0.212117 
26   0.19454 
27   0.419332 
 
>  <lowdin_charges> 
27 
1   -0.444993 
2   -0.445514 
3   -0.348548 
4   -0.597371 
5   -0.099944 
6   0.18188 
7   -0.121837 
8   -0.248505 
9   -0.031534 
10   -0.353744 
11   -0.671391 
12   -0.142693 
13   0.797131 
14   0.161756 
15   0.174671 
16   0.163386 
17   0.168257 
18   0.161109 
19   0.163259 
20   0.152687 
21   0.148123 
22   0.140849 
23   0.176692 
24   0.187289 
25   0.185668 
26   0.174328 
27   0.368989 
 
$$$$ 
 
