PCCDB-ID:  26701 
public computational chemistry database (PCCDB) project, http://pccdb.org 
 
 28 30  0  0  1  0  0  0  0  0999 V2000 
   -1.3503    1.7421    1.0931 C   0  0  0  0  0  0  0  0  0  0  0  0 
   -0.7288    0.7987    1.9169 C   0  0  0  0  0  0  0  0  0  0  0  0 
   -0.7159    2.1701   -0.0727 C   0  0  0  0  0  0  0  0  0  0  0  0 
    0.5270    0.2932    1.5863 C   0  0  0  0  0  0  0  0  0  0  0  0 
    0.5377    1.6549   -0.4128 C   0  0  0  0  0  0  0  0  0  0  0  0 
    4.1786   -4.4085    2.5730 C   0  0  0  0  0  0  0  0  0  0  0  0 
    5.0462   -4.5252    1.3514 C   0  0  0  0  0  0  0  0  0  0  0  0 
    1.1686    0.7197    0.4171 C   0  0  0  0  0  0  0  0  0  0  0  0 
    4.0477   -3.3899    1.4572 C   0  0  0  0  0  0  0  0  0  0  0  0 
    2.5664    0.2485    0.0766 C   0  0  1  0  0  0  0  0  0  0  0  0 
    3.6589    1.0046    0.8278 C   0  0  0  0  0  0  0  0  0  0  0  0 
    4.0245   -1.0654    1.2584 C   0  0  0  0  0  0  0  0  0  0  0  0 
    4.5854   -2.0973    1.7154 N   0  0  0  0  0  0  0  0  0  0  0  0 
    4.4696    0.2496    1.4633 N   0  0  0  0  0  0  0  0  0  0  0  0 
    3.7563    2.3360    0.7994 O   0  0  0  0  0  0  0  0  0  0  0  0 
    2.8450   -1.0831    0.4799 O   0  0  0  0  0  0  0  0  0  0  0  0 
   -2.3283    2.1348    1.3565 H   0  0  0  0  0  0  0  0  0  0  0  0 
   -1.2246    0.4568    2.8212 H   0  0  0  0  0  0  0  0  0  0  0  0 
   -1.1989    2.8913   -0.7260 H   0  0  0  0  0  0  0  0  0  0  0  0 
    1.0093   -0.4438    2.2207 H   0  0  0  0  0  0  0  0  0  0  0  0 
    1.0124    1.9607   -1.3440 H   0  0  0  0  0  0  0  0  0  0  0  0 
    4.6416   -4.0607    3.4909 H   0  0  0  0  0  0  0  0  0  0  0  0 
    3.3638   -5.1149    2.7081 H   0  0  0  0  0  0  0  0  0  0  0  0 
    4.8384   -5.3139    0.6333 H   0  0  0  0  0  0  0  0  0  0  0  0 
    6.0931   -4.2552    1.4472 H   0  0  0  0  0  0  0  0  0  0  0  0 
    3.1585   -3.4567    0.8324 H   0  0  0  0  0  0  0  0  0  0  0  0 
    2.7319    0.3474   -1.0082 H   0  0  0  0  0  0  0  0  0  0  0  0 
    2.9452    2.7030    0.4054 H   0  0  0  0  0  0  0  0  0  0  0  0 
  1 17  1  0  0  0  0 
  1  2  2  0  0  0  0 
  2 18  1  0  0  0  0 
  3  1  1  0  0  0  0 
  4  2  1  0  0  0  0 
  4 20  1  0  0  0  0 
  5  3  2  0  0  0  0 
  5  8  1  0  0  0  0 
  6 23  1  0  0  0  0 
  6 22  1  0  0  0  0 
  7 25  1  0  0  0  0 
  7  9  1  0  0  0  0 
  7  6  1  0  0  0  0 
  8  4  2  0  0  0  0 
  9 13  1  0  0  0  0 
  9  6  1  0  0  0  0 
 10 27  1  6  0  0  0 
 10  8  1  0  0  0  0 
 10 16  1  0  0  0  0 
 10 11  1  0  0  0  0 
 11 14  2  0  0  0  0 
 12 14  2  0  0  0  0 
 12 13  1  0  0  0  0 
 15 11  1  0  0  0  0 
 16 12  1  0  0  0  0 
 19  3  1  0  0  0  0 
 21  5  1  0  0  0  0 
 24  7  1  0  0  0  0 
 26  9  1  0  0  0  0 
 28 15  1  0  0  0  0 
M  RAD  1  13   2 
M  END 
>  <HBA> 
4 
 
>  <HBD> 
1 
 
>  <TPSA> 
50.69 
 
>  <cid> 
26701 
 
>  <dipole> 
5.89 
 
>  <excitation_energy_1> 
4.481 
 
>  <excitation_energy_2> 
4.567 
 
>  <excitation_energy_3> 
5.044 
 
>  <excitation_energy_4> 
5.051 
 
>  <homo_energy> 
-6.019 
 
>  <homo_lumo_gap> 
5.102 
 
>  <logP> 
1.219 
 
>  <lumo_energy> 
-0.917 
 
>  <melting_point> 
106.47 
 
>  <molecular_refractivity> 
62.31 
 
>  <oscillator_strength_1> 
0.0753 
 
>  <oscillator_strength_2> 
0.004 
 
>  <oscillator_strength_3> 
0.0177 
 
>  <oscillator_strength_4> 
0.2837 
 
>  <open_babel_can_smiles> 
OC1=[N]=C(O[C@H]1c1ccccc1)[N]C1CC1 
 
>  <mulliken_charges> 
28 
1   -0.124145 
2   -0.127915 
3   -0.126544 
4   -0.169616 
5   -0.213512 
6   -0.316685 
7   -0.315866 
8   0.142506 
9   0.015855 
10   -0.014443 
11   0.512462 
12   0.674228 
13   -0.472533 
14   -0.460795 
15   -0.578088 
16   -0.523862 
17   0.141845 
18   0.145255 
19   0.141925 
20   0.162243 
21   0.134307 
22   0.166227 
23   0.147222 
24   0.147735 
25   0.166803 
26   0.151 
27   0.173446 
28   0.420947 
 
>  <lowdin_charges> 
28 
1   -0.148495 
2   -0.143299 
3   -0.150364 
4   -0.149786 
5   -0.184929 
6   -0.314394 
7   -0.311988 
8   -0.026661 
9   -0.090434 
10   -0.025596 
11   0.125972 
12   0.149584 
13   -0.174988 
14   -0.15967 
15   -0.318856 
16   -0.228084 
17   0.163392 
18   0.165593 
19   0.164824 
20   0.174882 
21   0.156825 
22   0.16765 
23   0.157949 
24   0.158351 
25   0.166491 
26   0.147794 
27   0.159206 
28   0.369031 
 
$$$$ 
 
