PCCDB-ID:  26403 
public computational chemistry database (PCCDB) project, http://pccdb.org 
 
 19 19  0  0  1  0  0  0  0  0999 V2000 
   -1.5758    0.1001    0.0383 C   0  0  0  0  0  0  0  0  0  0  0  0 
   -0.8823    1.2215   -0.4158 C   0  0  0  0  0  0  0  0  0  0  0  0 
   -0.8699   -1.0281    0.4652 C   0  0  0  0  0  0  0  0  0  0  0  0 
    0.5147    1.2145   -0.4433 C   0  0  0  0  0  0  0  0  0  0  0  0 
    0.5233   -1.0406    0.4330 C   0  0  0  0  0  0  0  0  0  0  0  0 
    3.3891   -0.5461    1.0410 C   0  0  0  0  0  0  0  0  0  0  0  0 
    1.2275    0.0824   -0.0234 C   0  0  0  0  0  0  0  0  0  0  0  0 
    2.7505    0.0691   -0.1276 C   0  0  2  0  0  0  0  0  0  0  0  0 
    3.2911   -0.5921   -1.4381 C   0  0  0  0  0  0  0  0  0  0  0  0 
    3.8530   -1.0263    1.9893 N   0  0  0  0  0  0  0  0  0  0  0  0 
    4.3645   -1.1251   -1.5048 O   0  0  0  0  0  0  0  0  0  0  0  0 
    2.4921   -0.4513   -2.5134 O   0  0  0  0  0  0  0  0  0  0  0  0 
   -2.6616    0.1056    0.0663 H   0  0  0  0  0  0  0  0  0  0  0  0 
   -1.4226    2.1071   -0.7376 H   0  0  0  0  0  0  0  0  0  0  0  0 
   -1.4058   -1.9015    0.8253 H   0  0  0  0  0  0  0  0  0  0  0  0 
    1.0524    2.0999   -0.7766 H   0  0  0  0  0  0  0  0  0  0  0  0 
    1.0685   -1.9162    0.7745 H   0  0  0  0  0  0  0  0  0  0  0  0 
    3.1030    1.1096   -0.1804 H   0  0  0  0  0  0  0  0  0  0  0  0 
    1.6327   -0.0741   -2.2470 H   0  0  0  0  0  0  0  0  0  0  0  0 
  1 13  1  0  0  0  0 
  1  3  2  0  0  0  0 
  2  1  1  0  0  0  0 
  3 15  1  0  0  0  0 
  4  2  2  0  0  0  0 
  4  7  1  0  0  0  0 
  5  3  1  0  0  0  0 
  5 17  1  0  0  0  0 
  6 10  3  0  0  0  0 
  7  5  2  0  0  0  0 
  8 18  1  6  0  0  0 
  8  7  1  0  0  0  0 
  8  6  1  0  0  0  0 
  9  8  1  0  0  0  0 
 11  9  2  0  0  0  0 
 12 19  1  0  0  0  0 
 12  9  1  0  0  0  0 
 14  2  1  0  0  0  0 
 16  4  1  0  0  0  0 
M  END 
>  <HBA> 
3 
 
>  <HBD> 
1 
 
>  <TPSA> 
61.09 
 
>  <cid> 
26403 
 
>  <dipole> 
6.87 
 
>  <excitation_energy_1> 
5.205 
 
>  <excitation_energy_2> 
5.526 
 
>  <excitation_energy_3> 
5.702 
 
>  <excitation_energy_4> 
6.194 
 
>  <homo_energy> 
-7.415 
 
>  <homo_lumo_gap> 
6.259 
 
>  <logP> 
1.378 
 
>  <lumo_energy> 
-1.156 
 
>  <melting_point> 
116.88 
 
>  <molecular_refractivity> 
42.54 
 
>  <oscillator_strength_1> 
0.001 
 
>  <oscillator_strength_2> 
0.0089 
 
>  <oscillator_strength_3> 
0.0657 
 
>  <oscillator_strength_4> 
0.105 
 
>  <open_babel_can_smiles> 
N#C[C@H](c1ccccc1)C(=O)O 
 
>  <mulliken_charges> 
19 
1   -0.122237 
2   -0.122213 
3   -0.130049 
4   -0.201873 
5   -0.15177 
6   0.385915 
7   0.096835 
8   -0.366475 
9   0.630512 
10   -0.458368 
11   -0.415613 
12   -0.561657 
13   0.148536 
14   0.14934 
15   0.152695 
16   0.146613 
17   0.16905 
18   0.22762 
19   0.423139 
 
>  <lowdin_charges> 
19 
1   -0.141526 
2   -0.147401 
3   -0.140796 
4   -0.180895 
5   -0.150299 
6   -0.005072 
7   -0.025019 
8   -0.162996 
9   0.191547 
10   -0.102907 
11   -0.208103 
12   -0.337188 
13   0.1652 
14   0.168168 
15   0.169843 
16   0.163914 
17   0.177511 
18   0.201404 
19   0.364616 
 
$$$$ 
 
