PCCDB-ID:  32896 
public computational chemistry database (PCCDB) project, http://pccdb.org 
 
 24 24  0  0  0  0  0  0  0  0999 V2000 
    4.0186    2.1794    0.3092 C   0  0  0  0  0  0  0  0  0  0  0  0 
    2.2421    0.6513    0.8488 C   0  0  0  0  0  0  0  0  0  0  0  0 
    7.7064   -0.6655    0.1149 C   0  0  0  0  0  0  0  0  0  0  0  0 
    6.3398   -0.4707    0.2984 C   0  0  0  0  0  0  0  0  0  0  0  0 
    8.2714   -0.6124   -1.1616 C   0  0  0  0  0  0  0  0  0  0  0  0 
    6.0781   -0.1498   -2.0823 C   0  0  0  0  0  0  0  0  0  0  0  0 
    4.0157   -0.0541   -0.6274 C   0  0  0  0  0  0  0  0  0  0  0  0 
    5.5151   -0.2126   -0.8072 C   0  0  0  0  0  0  0  0  0  0  0  0 
    7.4510   -0.3530   -2.2622 C   0  0  0  0  0  0  0  0  0  0  0  0 
    3.6535    0.7829    0.5156 N   0  0  0  0  0  0  0  0  0  0  0  0 
    7.9313   -0.2798   -3.5429 O   0  0  0  0  0  0  0  0  0  0  0  0 
    3.8028    2.7527    1.2173 H   0  0  0  0  0  0  0  0  0  0  0  0 
    3.4696    2.6479   -0.5319 H   0  0  0  0  0  0  0  0  0  0  0  0 
    5.0895    2.2562    0.1024 H   0  0  0  0  0  0  0  0  0  0  0  0 
    2.0214    1.2385    1.7470 H   0  0  0  0  0  0  0  0  0  0  0  0 
    2.0062   -0.3973    1.0609 H   0  0  0  0  0  0  0  0  0  0  0  0 
    1.5661    0.9987    0.0420 H   0  0  0  0  0  0  0  0  0  0  0  0 
    8.3459   -0.8640    0.9712 H   0  0  0  0  0  0  0  0  0  0  0  0 
    5.9001   -0.5011    1.2900 H   0  0  0  0  0  0  0  0  0  0  0  0 
    9.3403   -0.7667   -1.3000 H   0  0  0  0  0  0  0  0  0  0  0  0 
    5.4645    0.0585   -2.9544 H   0  0  0  0  0  0  0  0  0  0  0  0 
    3.5762   -1.0459   -0.4529 H   0  0  0  0  0  0  0  0  0  0  0  0 
    3.5703    0.3195   -1.5717 H   0  0  0  0  0  0  0  0  0  0  0  0 
    8.8889   -0.4314   -3.5263 H   0  0  0  0  0  0  0  0  0  0  0  0 
  1 10  1  0  0  0  0 
  1 12  1  0  0  0  0 
  2 16  1  0  0  0  0 
  2 15  1  0  0  0  0 
  3  4  1  0  0  0  0 
  3 18  1  0  0  0  0 
  4 19  1  0  0  0  0 
  5  3  2  0  0  0  0 
  6  8  1  0  0  0  0 
  7 22  1  0  0  0  0 
  7 10  1  0  0  0  0 
  8  7  1  0  0  0  0 
  8  4  2  0  0  0  0 
  9  6  2  0  0  0  0 
  9  5  1  0  0  0  0 
 10  2  1  0  0  0  0 
 11 24  1  0  0  0  0 
 11  9  1  0  0  0  0 
 13  1  1  0  0  0  0 
 14  1  1  0  0  0  0 
 17  2  1  0  0  0  0 
 20  5  1  0  0  0  0 
 21  6  1  0  0  0  0 
 23  7  1  0  0  0  0 
M  END 
>  <HBA> 
2 
 
>  <HBD> 
1 
 
>  <TPSA> 
23.47 
 
>  <cid> 
32896 
 
>  <dipole> 
0.73 
 
>  <excitation_energy_1> 
4.819 
 
>  <excitation_energy_2> 
5.015 
 
>  <excitation_energy_3> 
5.139 
 
>  <excitation_energy_4> 
5.183 
 
>  <homo_energy> 
-5.717 
 
>  <homo_lumo_gap> 
5.796 
 
>  <logP> 
1.454 
 
>  <lumo_energy> 
0.079 
 
>  <melting_point> 
49.43 
 
>  <molecular_refractivity> 
45.94 
 
>  <oscillator_strength_1> 
0.0067 
 
>  <oscillator_strength_2> 
0.0334 
 
>  <oscillator_strength_3> 
0.0003 
 
>  <oscillator_strength_4> 
0.0015 
 
>  <open_babel_can_smiles> 
CN(Cc1cccc(c1)O)C 
 
>  <mulliken_charges> 
24 
1   -0.302513 
2   -0.292761 
3   -0.135261 
4   -0.16918 
5   -0.196906 
6   -0.223934 
7   -0.193386 
8   0.14028 
9   0.35463 
10   -0.365149 
11   -0.645414 
12   0.1466 
13   0.115962 
14   0.164888 
15   0.148848 
16   0.148172 
17   0.117498 
18   0.128737 
19   0.137434 
20   0.114449 
21   0.132237 
22   0.151998 
23   0.116957 
24   0.405815 
 
>  <lowdin_charges> 
24 
1   -0.35971 
2   -0.356137 
3   -0.145924 
4   -0.182527 
5   -0.217879 
6   -0.199292 
7   -0.195033 
8   -0.000678 
9   0.102809 
10   -0.180324 
11   -0.379632 
12   0.149703 
13   0.12093 
14   0.157107 
15   0.150443 
16   0.147912 
17   0.121287 
18   0.158262 
19   0.164014 
20   0.149749 
21   0.164431 
22   0.153595 
23   0.122406 
24   0.354488 
 
$$$$ 
 
