PCCDB-ID:  28227 
public computational chemistry database (PCCDB) project, http://pccdb.org 
 
 29 31  0  0  1  0  0  0  0  0999 V2000 
    1.0381    0.0051   -0.1021 C   0  0  0  0  0  0  0  0  0  0  0  0 
    1.9127   -3.0055    1.2592 C   0  0  0  0  0  0  0  0  0  0  0  0 
    5.5285   -5.3613   -0.0832 C   0  0  0  0  0  0  0  0  0  0  0  0 
    6.6356   -4.5058   -0.0779 C   0  0  0  0  0  0  0  0  0  0  0  0 
    4.6776    1.1819   -0.0675 C   0  0  0  0  0  0  0  0  0  0  0  0 
    3.2807    1.1705   -0.0899 C   0  0  0  0  0  0  0  0  0  0  0  0 
    4.2291   -4.8416   -0.0596 C   0  0  0  0  0  0  0  0  0  0  0  0 
    6.4633   -3.1202   -0.0519 C   0  0  0  0  0  0  0  0  0  0  0  0 
    5.3953   -0.0137   -0.0387 C   0  0  0  0  0  0  0  0  0  0  0  0 
    2.5492   -0.0284   -0.0661 C   0  0  0  0  0  0  0  0  0  0  0  0 
    2.7604   -2.6607    0.0163 C   0  0  2  0  0  0  0  0  0  0  0  0 
    4.0520   -3.4626   -0.0344 C   0  0  0  0  0  0  0  0  0  0  0  0 
    5.1667   -2.6017   -0.0307 C   0  0  0  0  0  0  0  0  0  0  0  0 
    4.6846   -1.2145   -0.0195 C   0  0  0  0  0  0  0  0  0  0  0  0 
    3.2735   -1.2245   -0.0167 C   0  0  0  0  0  0  0  0  0  0  0  0 
    0.6778    0.9594   -0.4996 H   0  0  0  0  0  0  0  0  0  0  0  0 
    0.6038   -0.1151    0.8988 H   0  0  0  0  0  0  0  0  0  0  0  0 
    0.6289   -0.7952   -0.7293 H   0  0  0  0  0  0  0  0  0  0  0  0 
    1.6447   -4.0679    1.2581 H   0  0  0  0  0  0  0  0  0  0  0  0 
    0.9845   -2.4272    1.2851 H   0  0  0  0  0  0  0  0  0  0  0  0 
    2.4736   -2.7976    2.1764 H   0  0  0  0  0  0  0  0  0  0  0  0 
    5.6785   -6.4374   -0.1063 H   0  0  0  0  0  0  0  0  0  0  0  0 
    7.6390   -4.9232   -0.0946 H   0  0  0  0  0  0  0  0  0  0  0  0 
    5.2062    2.1314   -0.0865 H   0  0  0  0  0  0  0  0  0  0  0  0 
    2.7406    2.1138   -0.1339 H   0  0  0  0  0  0  0  0  0  0  0  0 
    3.3738   -5.5136   -0.0645 H   0  0  0  0  0  0  0  0  0  0  0  0 
    7.3276   -2.4608   -0.0500 H   0  0  0  0  0  0  0  0  0  0  0  0 
    6.4822   -0.0064   -0.0401 H   0  0  0  0  0  0  0  0  0  0  0  0 
    2.1523   -2.8646   -0.8792 H   0  0  0  0  0  0  0  0  0  0  0  0 
  1 10  1  0  0  0  0 
  1 17  1  0  0  0  0 
  2 20  1  0  0  0  0 
  2 21  1  0  0  0  0 
  3  4  2  0  0  0  0 
  3  7  1  0  0  0  0 
  4  8  1  0  0  0  0 
  5  9  1  0  0  0  0 
  6  5  2  0  0  0  0 
  6 10  1  0  0  0  0 
  7 12  2  0  0  0  0 
  8 27  1  0  0  0  0 
  8 13  2  0  0  0  0 
  9 14  2  0  0  0  0 
 10 15  2  0  0  0  0 
 11 29  1  6  0  0  0 
 11  2  1  0  0  0  0 
 12 13  1  0  0  0  0 
 12 11  1  0  0  0  0 
 13 14  1  0  0  0  0 
 14 15  1  0  0  0  0 
 15 11  1  0  0  0  0 
 16  1  1  0  0  0  0 
 18  1  1  0  0  0  0 
 19  2  1  0  0  0  0 
 22  3  1  0  0  0  0 
 23  4  1  0  0  0  0 
 24  5  1  0  0  0  0 
 25  6  1  0  0  0  0 
 26  7  1  0  0  0  0 
 28  9  1  0  0  0  0 
M  END 
>  <HBA> 
0 
 
>  <HBD> 
0 
 
>  <TPSA> 
0.0 
 
>  <cid> 
28227 
 
>  <dipole> 
0.76 
 
>  <excitation_energy_1> 
4.498 
 
>  <excitation_energy_2> 
4.577 
 
>  <excitation_energy_3> 
4.789 
 
>  <excitation_energy_4> 
5.287 
 
>  <homo_energy> 
-5.687 
 
>  <homo_lumo_gap> 
5.018 
 
>  <logP> 
4.127 
 
>  <lumo_energy> 
-0.669 
 
>  <melting_point> 
77.68 
 
>  <molecular_refractivity> 
64.66 
 
>  <oscillator_strength_1> 
0.1711 
 
>  <oscillator_strength_2> 
0.2156 
 
>  <oscillator_strength_3> 
0.0123 
 
>  <oscillator_strength_4> 
0.0271 
 
>  <open_babel_can_smiles> 
Cc1cccc2c1[C@H](C)c1c2cccc1 
 
>  <mulliken_charges> 
29 
1   -0.534895 
2   -0.440463 
3   -0.131149 
4   -0.136849 
5   -0.130889 
6   -0.188659 
7   -0.20248 
8   -0.192439 
9   -0.197065 
10   0.123495 
11   -0.242584 
12   0.109143 
13   0.079706 
14   0.086879 
15   0.037355 
16   0.155292 
17   0.166549 
18   0.157283 
19   0.147222 
20   0.149384 
21   0.157761 
22   0.125661 
23   0.12657 
24   0.125648 
25   0.117583 
26   0.123065 
27   0.127819 
28   0.126357 
29   0.154703 
 
>  <lowdin_charges> 
29 
1   -0.443975 
2   -0.434642 
3   -0.156953 
4   -0.156438 
5   -0.155408 
6   -0.170966 
7   -0.165984 
8   -0.163991 
9   -0.165234 
10   -0.00421 
11   -0.121488 
12   -0.004648 
13   -0.009973 
14   -0.01024 
15   -0.017649 
16   0.158001 
17   0.160448 
18   0.158258 
19   0.149596 
20   0.15202 
21   0.15694 
22   0.154655 
23   0.156099 
24   0.156526 
25   0.153377 
26   0.155761 
27   0.157405 
28   0.154239 
29   0.158473 
 
$$$$ 
 
