PCCDB-ID:  10406 
public computational chemistry database (PCCDB) project, http://pccdb.org 
 
 43 42  0  0  1  0  0  0  0  0999 V2000 
    3.2902   -3.3471   -5.0046 C   0  0  0  0  0  0  0  0  0  0  0  0 
    2.9960   -0.8841   -5.4670 C   0  0  0  0  0  0  0  0  0  0  0  0 
   12.0208   -0.3983   -1.7854 C   0  0  0  0  0  0  0  0  0  0  0  0 
    9.9447    1.0095   -2.0671 C   0  0  0  0  0  0  0  0  0  0  0  0 
    6.0319   -4.3004   -0.1456 C   0  0  0  0  0  0  0  0  0  0  0  0 
    5.0661   -2.4962   -2.5418 C   0  0  0  0  0  0  0  0  0  0  0  0 
    4.0617   -1.6076   -3.2895 C   0  0  0  0  0  0  0  0  0  0  0  0 
    5.2869   -2.0453   -1.0914 C   0  0  0  0  0  0  0  0  0  0  0  0 
    9.7577   -1.4669   -1.4462 C   0  0  0  0  0  0  0  0  0  0  0  0 
    8.3524   -1.4151   -0.8395 C   0  0  0  0  0  0  0  0  0  0  0  0 
    3.8735   -1.9432   -4.7827 C   0  0  0  0  0  0  0  0  0  0  0  0 
   10.5777   -0.1694   -1.3114 C   0  0  0  0  0  0  0  0  0  0  0  0 
    6.3777   -2.8167   -0.3160 C   0  0  2  0  0  0  0  0  0  0  0  0 
    7.6850   -2.7086   -0.9813 N   0  0  0  0  0  0  0  0  0  0  0  0 
    3.1519   -3.5499   -6.0736 H   0  0  0  0  0  0  0  0  0  0  0  0 
    2.3091   -3.4431   -4.5200 H   0  0  0  0  0  0  0  0  0  0  0  0 
    3.9396   -4.1317   -4.6022 H   0  0  0  0  0  0  0  0  0  0  0  0 
    2.8935   -1.0838   -6.5405 H   0  0  0  0  0  0  0  0  0  0  0  0 
    3.4185    0.1213   -5.3513 H   0  0  0  0  0  0  0  0  0  0  0  0 
    1.9867   -0.8720   -5.0344 H   0  0  0  0  0  0  0  0  0  0  0  0 
   12.6280    0.5063   -1.6616 H   0  0  0  0  0  0  0  0  0  0  0  0 
   12.0456   -0.6718   -2.8484 H   0  0  0  0  0  0  0  0  0  0  0  0 
   12.5038   -1.2066   -1.2232 H   0  0  0  0  0  0  0  0  0  0  0  0 
   10.5614    1.9111   -1.9717 H   0  0  0  0  0  0  0  0  0  0  0  0 
    8.9454    1.2545   -1.6910 H   0  0  0  0  0  0  0  0  0  0  0  0 
    9.8522    0.7822   -3.1374 H   0  0  0  0  0  0  0  0  0  0  0  0 
    5.0402   -4.4223    0.3033 H   0  0  0  0  0  0  0  0  0  0  0  0 
    6.7572   -4.7966    0.5119 H   0  0  0  0  0  0  0  0  0  0  0  0 
    6.0420   -4.8212   -1.1087 H   0  0  0  0  0  0  0  0  0  0  0  0 
    6.0319   -2.4894   -3.0631 H   0  0  0  0  0  0  0  0  0  0  0  0 
    4.7176   -3.5364   -2.5525 H   0  0  0  0  0  0  0  0  0  0  0  0 
    4.3903   -0.5606   -3.2091 H   0  0  0  0  0  0  0  0  0  0  0  0 
    3.0821   -1.6538   -2.7876 H   0  0  0  0  0  0  0  0  0  0  0  0 
    4.3481   -2.1318   -0.5252 H   0  0  0  0  0  0  0  0  0  0  0  0 
    5.5363   -0.9751   -1.0850 H   0  0  0  0  0  0  0  0  0  0  0  0 
    9.6736   -1.7440   -2.5063 H   0  0  0  0  0  0  0  0  0  0  0  0 
   10.3155   -2.2822   -0.9596 H   0  0  0  0  0  0  0  0  0  0  0  0 
    7.7519   -0.6605   -1.3595 H   0  0  0  0  0  0  0  0  0  0  0  0 
    8.4171   -1.0868    0.2187 H   0  0  0  0  0  0  0  0  0  0  0  0 
    4.8674   -1.9126   -5.2561 H   0  0  0  0  0  0  0  0  0  0  0  0 
   10.6142    0.0955   -0.2430 H   0  0  0  0  0  0  0  0  0  0  0  0 
    6.4185   -2.3669    0.6970 H   0  0  0  0  0  0  0  0  0  0  0  0 
    8.2991   -3.4267   -0.5983 H   0  0  0  0  0  0  0  0  0  0  0  0 
  1 11  1  0  0  0  0 
  1 17  1  0  0  0  0 
  1 16  1  0  0  0  0 
  2 19  1  0  0  0  0 
  2 20  1  0  0  0  0 
  2 11  1  0  0  0  0 
  3 21  1  0  0  0  0 
  3 12  1  0  0  0  0 
  3 23  1  0  0  0  0 
  4 24  1  0  0  0  0 
  4 25  1  0  0  0  0 
  4 12  1  0  0  0  0 
  5 27  1  0  0  0  0 
  5 28  1  0  0  0  0 
  6  8  1  0  0  0  0 
  7 32  1  0  0  0  0 
  7 33  1  0  0  0  0 
  7  6  1  0  0  0  0 
  8 35  1  0  0  0  0 
  8 34  1  0  0  0  0 
  8 13  1  0  0  0  0 
  9 12  1  0  0  0  0 
  9 37  1  0  0  0  0 
  9 10  1  0  0  0  0 
 10 39  1  0  0  0  0 
 11  7  1  0  0  0  0 
 12 41  1  0  0  0  0 
 13  5  1  0  0  0  0 
 13 42  1  1  0  0  0 
 14 10  1  0  0  0  0 
 14 43  1  0  0  0  0 
 14 13  1  0  0  0  0 
 15  1  1  0  0  0  0 
 18  2  1  0  0  0  0 
 22  3  1  0  0  0  0 
 26  4  1  0  0  0  0 
 29  5  1  0  0  0  0 
 30  6  1  0  0  0  0 
 31  6  1  0  0  0  0 
 36  9  1  0  0  0  0 
 38 10  1  0  0  0  0 
 40 11  1  0  0  0  0 
M  END 
>  <HBA> 
1 
 
>  <HBD> 
1 
 
>  <TPSA> 
12.03 
 
>  <cid> 
10406 
 
>  <dipole> 
1.05 
 
>  <excitation_energy_1> 
5.294 
 
>  <excitation_energy_2> 
5.66 
 
>  <excitation_energy_3> 
5.789 
 
>  <excitation_energy_4> 
5.864 
 
>  <homo_energy> 
-5.826 
 
>  <homo_lumo_gap> 
7.957 
 
>  <logP> 
4.228 
 
>  <lumo_energy> 
2.131 
 
>  <melting_point> 
-4.03 
 
>  <molecular_refractivity> 
67.41 
 
>  <oscillator_strength_1> 
0.0072 
 
>  <oscillator_strength_2> 
0.0221 
 
>  <oscillator_strength_3> 
0.028 
 
>  <oscillator_strength_4> 
0.0106 
 
>  <open_babel_can_smiles> 
C[C@@H](NCCC(C)C)CCCC(C)C 
 
>  <mulliken_charges> 
43 
1   -0.444301 
2   -0.441384 
3   -0.441225 
4   -0.44567 
5   -0.469372 
6   -0.259986 
7   -0.246692 
8   -0.262681 
9   -0.261226 
10   -0.116505 
11   -0.06408 
12   -0.068086 
13   0.069311 
14   -0.564822 
15   0.137308 
16   0.135299 
17   0.145464 
18   0.137142 
19   0.137542 
20   0.136578 
21   0.139324 
22   0.139879 
23   0.138639 
24   0.1399 
25   0.144957 
26   0.140158 
27   0.144879 
28   0.134939 
29   0.159308 
30   0.150857 
31   0.130805 
32   0.120731 
33   0.118928 
34   0.123574 
35   0.127808 
36   0.140243 
37   0.118579 
38   0.144453 
39   0.104564 
40   0.119436 
41   0.120217 
42   0.09767 
43   0.287541 
 
>  <lowdin_charges> 
43 
1   -0.446106 
2   -0.440947 
3   -0.443653 
4   -0.444803 
5   -0.45252 
6   -0.279032 
7   -0.272983 
8   -0.280419 
9   -0.278511 
10   -0.204141 
11   -0.119338 
12   -0.118199 
13   -0.055961 
14   -0.366565 
15   0.145425 
16   0.143325 
17   0.149898 
18   0.144566 
19   0.145292 
20   0.143475 
21   0.147786 
22   0.144579 
23   0.147728 
24   0.148625 
25   0.147767 
26   0.144702 
27   0.152449 
28   0.14629 
29   0.154627 
30   0.149351 
31   0.138133 
32   0.135005 
33   0.133378 
34   0.139518 
35   0.136815 
36   0.144086 
37   0.136321 
38   0.143113 
39   0.111513 
40   0.13363 
41   0.132457 
42   0.112854 
43   0.250472 
 
$$$$ 
 
