PCCDB-ID:  33166 
public computational chemistry database (PCCDB) project, http://pccdb.org 
 
 23 23  0  0  0  0  0  0  0  0999 V2000 
    0.8813   -0.1845   -0.0940 C   0  0  0  0  0  0  0  0  0  0  0  0 
    2.5586    0.3535   -1.9248 C   0  0  0  0  0  0  0  0  0  0  0  0 
    3.5833   -0.3538    3.6359 C   0  0  0  0  0  0  0  0  0  0  0  0 
    3.3335    3.5045    0.6702 C   0  0  0  0  0  0  0  0  0  0  0  0 
    3.7134    3.2981    1.9851 C   0  0  0  0  0  0  0  0  0  0  0  0 
    2.3612    0.1099   -0.4235 C   0  0  0  0  0  0  0  0  0  0  0  0 
    2.8604    1.2707    0.4179 C   0  0  0  0  0  0  0  0  0  0  0  0 
    3.2503    1.0871    1.7764 C   0  0  0  0  0  0  0  0  0  0  0  0 
    2.9104    2.4897   -0.1071 N   0  0  0  0  0  0  0  0  0  0  0  0 
    3.6735    2.0759    2.5462 N   0  0  0  0  0  0  0  0  0  0  0  0 
    3.1762   -0.1673    2.2761 O   0  0  0  0  0  0  0  0  0  0  0  0 
    0.5308   -1.0553   -0.6601 H   0  0  0  0  0  0  0  0  0  0  0  0 
    0.2496    0.6709   -0.3605 H   0  0  0  0  0  0  0  0  0  0  0  0 
    0.7458   -0.3961    0.9714 H   0  0  0  0  0  0  0  0  0  0  0  0 
    2.2183   -0.5195   -2.4933 H   0  0  0  0  0  0  0  0  0  0  0  0 
    3.6121    0.5311   -2.1658 H   0  0  0  0  0  0  0  0  0  0  0  0 
    1.9935    1.2285   -2.2581 H   0  0  0  0  0  0  0  0  0  0  0  0 
    2.9625    0.2379    4.3151 H   0  0  0  0  0  0  0  0  0  0  0  0 
    4.6292   -0.0643    3.7752 H   0  0  0  0  0  0  0  0  0  0  0  0 
    3.4531   -1.4196    3.8297 H   0  0  0  0  0  0  0  0  0  0  0  0 
    3.3661    4.4927    0.2181 H   0  0  0  0  0  0  0  0  0  0  0  0 
    4.0607    4.1148    2.6144 H   0  0  0  0  0  0  0  0  0  0  0  0 
    2.9423   -0.7732   -0.1290 H   0  0  0  0  0  0  0  0  0  0  0  0 
  1 14  1  0  0  0  0 
  2  6  1  0  0  0  0 
  3 19  1  0  0  0  0 
  3 20  1  0  0  0  0 
  3 18  1  0  0  0  0 
  4  5  2  0  0  0  0 
  5 10  1  0  0  0  0 
  5 22  1  0  0  0  0 
  6 23  1  0  0  0  0 
  6  1  1  0  0  0  0 
  6  7  1  0  0  0  0 
  7  8  1  0  0  0  0 
  8 11  1  0  0  0  0 
  8 10  2  0  0  0  0 
  9  7  2  0  0  0  0 
  9  4  1  0  0  0  0 
 11  3  1  0  0  0  0 
 12  1  1  0  0  0  0 
 13  1  1  0  0  0  0 
 15  2  1  0  0  0  0 
 16  2  1  0  0  0  0 
 17  2  1  0  0  0  0 
 21  4  1  0  0  0  0 
M  END 
>  <HBA> 
3 
 
>  <HBD> 
0 
 
>  <TPSA> 
35.01 
 
>  <cid> 
33166 
 
>  <dipole> 
1.42 
 
>  <excitation_energy_1> 
4.335 
 
>  <excitation_energy_2> 
4.784 
 
>  <excitation_energy_3> 
5.161 
 
>  <excitation_energy_4> 
5.813 
 
>  <homo_energy> 
-6.368 
 
>  <homo_lumo_gap> 
5.393 
 
>  <logP> 
1.609 
 
>  <lumo_energy> 
-0.974 
 
>  <melting_point> 
42.94 
 
>  <molecular_refractivity> 
43.1 
 
>  <oscillator_strength_1> 
0.0043 
 
>  <oscillator_strength_2> 
0.1482 
 
>  <oscillator_strength_3> 
0.0001 
 
>  <oscillator_strength_4> 
0.0028 
 
>  <open_babel_can_smiles> 
COc1nccnc1C(C)C 
 
>  <mulliken_charges> 
23 
1   -0.446747 
2   -0.434718 
3   -0.20624 
4   0.01118 
5   0.028472 
6   -0.131733 
7   0.264216 
8   0.526693 
9   -0.456482 
10   -0.481615 
11   -0.494089 
12   0.144709 
13   0.150887 
14   0.153709 
15   0.134048 
16   0.144369 
17   0.162325 
18   0.166357 
19   0.166398 
20   0.162929 
21   0.142632 
22   0.145353 
23   0.147347 
 
>  <lowdin_charges> 
23 
1   -0.440365 
2   -0.440061 
3   -0.272342 
4   -0.130947 
5   -0.106497 
6   -0.12607 
7   0.023668 
8   0.112504 
9   -0.125362 
10   -0.163299 
11   -0.191124 
12   0.151087 
13   0.151853 
14   0.152293 
15   0.147187 
16   0.15049 
17   0.159159 
18   0.158204 
19   0.15532 
20   0.157368 
21   0.160343 
22   0.162498 
23   0.154094 
 
$$$$ 
 
