PCCDB-ID:  28943 
public computational chemistry database (PCCDB) project, http://pccdb.org 
 
 29 29  0  0  1  0  0  0  0  0999 V2000 
    2.5502    1.6961   -1.3763 C   0  0  0  0  0  0  0  0  0  0  0  0 
    1.2028   -2.8386   -6.3124 C   0  0  0  0  0  0  0  0  0  0  0  0 
    3.6086    0.6806   -0.9532 C   0  0  0  0  0  0  0  0  0  0  0  0 
    2.5930   -3.4519   -2.1712 C   0  0  0  0  0  0  0  0  0  0  0  0 
    2.9302   -1.8353   -3.9431 C   0  0  0  0  0  0  0  0  0  0  0  0 
    3.9012   -2.9939   -1.6317 C   0  0  0  0  0  0  0  0  0  0  0  0 
    4.2805   -1.9206   -3.8536 C   0  0  0  0  0  0  0  0  0  0  0  0 
    0.5497   -3.4479   -5.0931 C   0  0  0  0  0  0  0  0  0  0  0  0 
    2.1597   -3.0236   -3.4170 C   0  0  2  0  0  0  0  0  0  0  0  0 
    4.2042   -1.6482   -1.5707 C   0  0  1  0  0  0  0  0  0  0  0  0 
    5.1303   -1.2467   -2.7567 C   0  0  0  0  0  0  0  0  0  0  0  0 
    3.2528   -0.6766   -1.3774 N   0  0  0  0  0  0  0  0  0  0  0  0 
    0.9660   -3.5479   -3.8924 N   0  0  0  0  0  0  0  0  0  0  0  0 
   -0.6725   -4.0090   -5.3305 O   0  0  0  0  0  0  0  0  0  0  0  0 
    6.2275   -0.7570   -2.8052 O   0  0  0  0  0  0  0  0  0  0  0  0 
    2.8219    2.6967   -1.0228 H   0  0  0  0  0  0  0  0  0  0  0  0 
    1.5697    1.4495   -0.9509 H   0  0  0  0  0  0  0  0  0  0  0  0 
    2.4495    1.7282   -2.4660 H   0  0  0  0  0  0  0  0  0  0  0  0 
    2.1318   -2.3280   -6.0536 H   0  0  0  0  0  0  0  0  0  0  0  0 
    0.5266   -2.1170   -6.7892 H   0  0  0  0  0  0  0  0  0  0  0  0 
    1.4251   -3.6246   -7.0462 H   0  0  0  0  0  0  0  0  0  0  0  0 
    3.7478    0.7136    0.1386 H   0  0  0  0  0  0  0  0  0  0  0  0 
    4.5762    0.9251   -1.4011 H   0  0  0  0  0  0  0  0  0  0  0  0 
    1.9829   -4.2102   -1.6846 H   0  0  0  0  0  0  0  0  0  0  0  0 
    2.4658   -0.8796   -3.6856 H   0  0  0  0  0  0  0  0  0  0  0  0 
    4.7483   -3.6576   -1.8069 H   0  0  0  0  0  0  0  0  0  0  0  0 
    4.7453   -2.8811   -4.0895 H   0  0  0  0  0  0  0  0  0  0  0  0 
    2.3620   -1.0156   -1.0219 H   0  0  0  0  0  0  0  0  0  0  0  0 
   -0.8942   -3.8996   -6.2684 H   0  0  0  0  0  0  0  0  0  0  0  0 
  1 16  1  0  0  0  0 
  1  3  1  0  0  0  0 
  1 17  1  0  0  0  0 
  2 19  1  0  0  0  0 
  2  8  1  0  0  0  0 
  3 22  1  0  0  0  0 
  4 24  1  0  0  0  0 
  4  6  1  0  0  0  0 
  5  7  1  0  0  0  0 
  5 25  1  0  0  0  0 
  5  9  1  0  0  0  0 
  6 10  1  0  0  0  0 
  7 11  1  0  0  0  0 
  8 13  2  0  0  0  0 
  9 13  1  1  0  0  0 
  9  4  1  0  0  0  0 
 10 12  1  6  0  0  0 
 11 10  1  0  0  0  0 
 12 28  1  0  0  0  0 
 12  3  1  0  0  0  0 
 14  8  1  0  0  0  0 
 15 11  2  0  0  0  0 
 18  1  1  0  0  0  0 
 20  2  1  0  0  0  0 
 21  2  1  0  0  0  0 
 23  3  1  0  0  0  0 
 26  6  1  0  0  0  0 
 27  7  1  0  0  0  0 
 29 14  1  0  0  0  0 
M  RAD  6   4   2   5   2   6   2   7   2   9   2  10   2 
M  END 
>  <HBA> 
4 
 
>  <HBD> 
2 
 
>  <TPSA> 
58.2 
 
>  <cid> 
28943 
 
>  <dipole> 
3.29 
 
>  <excitation_energy_1> 
2.381 
 
>  <excitation_energy_2> 
2.853 
 
>  <excitation_energy_3> 
3.39 
 
>  <excitation_energy_4> 
3.733 
 
>  <homo_energy> 
-4.906 
 
>  <homo_lumo_gap> 
3.263 
 
>  <logP> 
1.583 
 
>  <lumo_energy> 
-1.644 
 
>  <melting_point> 
128.93 
 
>  <molecular_refractivity> 
61.14 
 
>  <oscillator_strength_1> 
0.0054 
 
>  <oscillator_strength_2> 
0.0298 
 
>  <oscillator_strength_3> 
0.0059 
 
>  <oscillator_strength_4> 
0.0045 
 
>  <open_babel_can_smiles> 
CCN[C]1[CH][CH][C]([CH][CH]C1=O)/N=C(/O)\C 
 
>  <mulliken_charges> 
29 
1   -0.45415 
2   -0.563715 
3   -0.123329 
4   -0.212639 
5   -0.19747 
6   -0.243313 
7   -0.199028 
8   0.49257 
9   0.261437 
10   0.192547 
11   0.382048 
12   -0.5501 
13   -0.48244 
14   -0.567416 
15   -0.42076 
16   0.155392 
17   0.147506 
18   0.161799 
19   0.204637 
20   0.165648 
21   0.175759 
22   0.148809 
23   0.179955 
24   0.153454 
25   0.146039 
26   0.147204 
27   0.170984 
28   0.321851 
29   0.406722 
 
>  <lowdin_charges> 
29 
1   -0.447978 
2   -0.4919 
3   -0.188001 
4   -0.188821 
5   -0.228514 
6   -0.230604 
7   -0.177711 
8   0.147424 
9   0.043258 
10   0.000282 
11   0.156429 
12   -0.251699 
13   -0.177025 
14   -0.356383 
15   -0.192814 
16   0.158368 
17   0.149846 
18   0.154577 
19   0.188777 
20   0.166672 
21   0.171625 
22   0.138485 
23   0.164486 
24   0.172684 
25   0.155788 
26   0.161937 
27   0.174687 
28   0.273162 
29   0.352966 
 
$$$$ 
 
