PCCDB-ID:  27069 
public computational chemistry database (PCCDB) project, http://pccdb.org 
 
 31 32  0  0  0  0  0  0  0  0999 V2000 
   -2.8230    0.8652   -0.2885 C   0  0  0  0  0  0  0  0  0  0  0  0 
   -2.2173    0.2867    0.8287 C   0  0  0  0  0  0  0  0  0  0  0  0 
   -2.0339    1.2782   -1.3627 C   0  0  0  0  0  0  0  0  0  0  0  0 
   -0.8324    0.1283    0.8735 C   0  0  0  0  0  0  0  0  0  0  0  0 
   -0.6482    1.1178   -1.3174 C   0  0  0  0  0  0  0  0  0  0  0  0 
    3.6724    0.6965    0.7038 C   0  0  0  0  0  0  0  0  0  0  0  0 
    4.2217   -0.1421   -0.2648 C   0  0  0  0  0  0  0  0  0  0  0  0 
    1.7979    1.9652    1.7984 C   0  0  0  0  0  0  0  0  0  0  0  0 
    1.6634    3.3865    1.2247 C   0  0  0  0  0  0  0  0  0  0  0  0 
    2.0076   -0.4884   -1.1580 C   0  0  0  0  0  0  0  0  0  0  0  0 
   -0.0255    0.5471   -0.1963 C   0  0  0  0  0  0  0  0  0  0  0  0 
    2.3004    0.9650    0.7754 C   0  0  0  0  0  0  0  0  0  0  0  0 
    3.3810   -0.7364   -1.2068 C   0  0  0  0  0  0  0  0  0  0  0  0 
    1.4560    0.3461   -0.1784 C   0  0  0  0  0  0  0  0  0  0  0  0 
    1.1731    4.3059    2.2576 N   0  0  0  0  0  0  0  0  0  0  0  0 
    3.8366   -1.5722   -2.1914 O   0  0  0  0  0  0  0  0  0  0  0  0 
   -3.9020    0.9898   -0.3221 H   0  0  0  0  0  0  0  0  0  0  0  0 
   -2.8245   -0.0473    1.6659 H   0  0  0  0  0  0  0  0  0  0  0  0 
   -2.4959    1.7263   -2.2387 H   0  0  0  0  0  0  0  0  0  0  0  0 
   -0.3700   -0.3429    1.7366 H   0  0  0  0  0  0  0  0  0  0  0  0 
   -0.0360    1.4424   -2.1547 H   0  0  0  0  0  0  0  0  0  0  0  0 
    4.3363    1.1636    1.4282 H   0  0  0  0  0  0  0  0  0  0  0  0 
    5.2936   -0.3322   -0.2842 H   0  0  0  0  0  0  0  0  0  0  0  0 
    0.8262    1.6809    2.2095 H   0  0  0  0  0  0  0  0  0  0  0  0 
    2.4992    1.9922    2.6441 H   0  0  0  0  0  0  0  0  0  0  0  0 
    0.9285    3.3720    0.4114 H   0  0  0  0  0  0  0  0  0  0  0  0 
    2.6284    3.6827    0.7740 H   0  0  0  0  0  0  0  0  0  0  0  0 
    1.3649   -0.9758   -1.8845 H   0  0  0  0  0  0  0  0  0  0  0  0 
    1.8982    4.4467    2.9609 H   0  0  0  0  0  0  0  0  0  0  0  0 
    1.0001    5.2226    1.8482 H   0  0  0  0  0  0  0  0  0  0  0  0 
    4.7982   -1.6618   -2.1046 H   0  0  0  0  0  0  0  0  0  0  0  0 
  1  2  2  0  0  0  0 
  2  4  1  0  0  0  0 
  2 18  1  0  0  0  0 
  3  5  2  0  0  0  0 
  3  1  1  0  0  0  0 
  4 20  1  0  0  0  0 
  5 11  1  0  0  0  0 
  6 12  1  0  0  0  0 
  6 22  1  0  0  0  0 
  7  6  2  0  0  0  0 
  8 24  1  0  0  0  0 
  8 25  1  0  0  0  0 
  9  8  1  0  0  0  0 
  9 15  1  0  0  0  0 
 10 14  1  0  0  0  0 
 11 14  1  0  0  0  0 
 11  4  2  0  0  0  0 
 12  8  1  0  0  0  0 
 13 10  2  0  0  0  0 
 13  7  1  0  0  0  0 
 14 12  2  0  0  0  0 
 15 29  1  0  0  0  0 
 16 31  1  0  0  0  0 
 16 13  1  0  0  0  0 
 17  1  1  0  0  0  0 
 19  3  1  0  0  0  0 
 21  5  1  0  0  0  0 
 23  7  1  0  0  0  0 
 26  9  1  0  0  0  0 
 27  9  1  0  0  0  0 
 28 10  1  0  0  0  0 
 30 15  1  0  0  0  0 
M  END 
>  <HBA> 
2 
 
>  <HBD> 
2 
 
>  <TPSA> 
46.25 
 
>  <cid> 
27069 
 
>  <dipole> 
2.27 
 
>  <excitation_energy_1> 
4.64 
 
>  <excitation_energy_2> 
4.987 
 
>  <excitation_energy_3> 
5.066 
 
>  <excitation_energy_4> 
5.155 
 
>  <homo_energy> 
-5.747 
 
>  <homo_lumo_gap> 
5.391 
 
>  <logP> 
3.261 
 
>  <lumo_energy> 
-0.356 
 
>  <melting_point> 
139.99 
 
>  <molecular_refractivity> 
66.38 
 
>  <oscillator_strength_1> 
0.0704 
 
>  <oscillator_strength_2> 
0.0074 
 
>  <oscillator_strength_3> 
0.0011 
 
>  <oscillator_strength_4> 
0.0303 
 
>  <open_babel_can_smiles> 
NCCc1ccc(cc1c1ccccc1)O 
 
>  <mulliken_charges> 
31 
1   -0.125343 
2   -0.132399 
3   -0.132539 
4   -0.159532 
5   -0.164014 
6   -0.201163 
7   -0.187412 
8   -0.341752 
9   -0.133776 
10   -0.200113 
11   0.062735 
12   0.139896 
13   0.351285 
14   -0.000335 
15   -0.713579 
16   -0.645743 
17   0.128683 
18   0.130644 
19   0.129264 
20   0.135823 
21   0.133383 
22   0.12251 
23   0.115587 
24   0.163181 
25   0.127832 
26   0.150724 
27   0.11297 
28   0.142658 
29   0.289266 
30   0.295358 
31   0.405903 
 
>  <lowdin_charges> 
31 
1   -0.15521 
2   -0.155442 
3   -0.156396 
4   -0.159401 
5   -0.164089 
6   -0.156834 
7   -0.214805 
8   -0.280946 
9   -0.205375 
10   -0.190089 
11   -0.000267 
12   -0.024102 
13   0.099983 
14   -0.001497 
15   -0.558034 
16   -0.37823 
17   0.155537 
18   0.159249 
19   0.158174 
20   0.161265 
21   0.160957 
22   0.155884 
23   0.150589 
24   0.161769 
25   0.142121 
26   0.148935 
27   0.116745 
28   0.170755 
29   0.250032 
30   0.254172 
31   0.354549 
 
$$$$ 
 
