PCCDB-ID:  48415 
public computational chemistry database (PCCDB) project, http://pccdb.org 
 
 31 32  0  0  1  0  0  0  0  0999 V2000 
    0.8441   -1.1753    1.8864 C   0  0  0  0  0  0  0  0  0  0  0  0 
    2.3459   -1.1562    1.8708 C   0  0  0  0  0  0  0  0  0  0  0  0 
    6.2940   -3.2760    2.9885 C   0  0  0  0  0  0  0  0  0  0  0  0 
    7.5082   -2.4964    2.5642 C   0  0  0  0  0  0  0  0  0  0  0  0 
    5.1491   -2.6496    2.7074 C   0  0  0  0  0  0  0  0  0  0  0  0 
    6.9244   -1.1983    1.9380 C   0  0  0  0  0  0  0  0  0  0  0  0 
    3.0910   -1.2325    0.7582 C   0  0  0  0  0  0  0  0  0  0  0  0 
    5.3653   -1.3122    2.0246 C   0  0  1  0  0  0  0  0  0  0  0  0 
    4.9730    0.2087    0.0354 C   0  0  0  0  0  0  0  0  0  0  0  0 
    5.0856   -2.2116   -0.3655 C   0  0  0  0  0  0  0  0  0  0  0  0 
    6.4362   -0.7111   -1.5051 C   0  0  0  0  0  0  0  0  0  0  0  0 
    4.6110   -1.1590    0.6379 C   0  0  2  0  0  0  0  0  0  0  0  0 
    5.7938    0.4105   -0.9154 N   0  0  0  0  0  0  0  0  0  0  0  0 
    5.9027   -2.0134   -1.3220 N   0  0  0  0  0  0  0  0  0  0  0  0 
    4.3922    1.2770    0.6146 O   0  0  0  0  0  0  0  0  0  0  0  0 
    4.5817   -3.4528   -0.2222 O   0  0  0  0  0  0  0  0  0  0  0  0 
    7.4228   -0.5522   -2.1880 O   0  0  0  0  0  0  0  0  0  0  0  0 
    0.4707   -2.0215    2.4776 H   0  0  0  0  0  0  0  0  0  0  0  0 
    0.4280   -1.2505    0.8772 H   0  0  0  0  0  0  0  0  0  0  0  0 
    0.4455   -0.2670    2.3564 H   0  0  0  0  0  0  0  0  0  0  0  0 
    2.8268   -1.0834    2.8455 H   0  0  0  0  0  0  0  0  0  0  0  0 
    6.3620   -4.2412    3.4834 H   0  0  0  0  0  0  0  0  0  0  0  0 
    8.1221   -3.0624    1.8517 H   0  0  0  0  0  0  0  0  0  0  0  0 
    8.1580   -2.2805    3.4227 H   0  0  0  0  0  0  0  0  0  0  0  0 
    4.1639   -3.0296    2.9627 H   0  0  0  0  0  0  0  0  0  0  0  0 
    7.2703   -1.0806    0.9100 H   0  0  0  0  0  0  0  0  0  0  0  0 
    7.2632   -0.3110    2.4790 H   0  0  0  0  0  0  0  0  0  0  0  0 
    2.5748   -1.2991   -0.2009 H   0  0  0  0  0  0  0  0  0  0  0  0 
    4.9742   -0.4982    2.6504 H   0  0  0  0  0  0  0  0  0  0  0  0 
    3.6667    0.9637    1.1848 H   0  0  0  0  0  0  0  0  0  0  0  0 
    4.0475   -3.4917    0.5891 H   0  0  0  0  0  0  0  0  0  0  0  0 
  1 20  1  0  0  0  0 
  1 18  1  0  0  0  0 
  2  1  1  0  0  0  0 
  2 21  1  0  0  0  0 
  3 22  1  0  0  0  0 
  4  3  1  0  0  0  0 
  4 24  1  0  0  0  0 
  5 25  1  0  0  0  0 
  5  3  2  0  0  0  0 
  6  8  1  0  0  0  0 
  6 27  1  0  0  0  0 
  6  4  1  0  0  0  0 
  7  2  2  0  0  0  0 
  8 29  1  1  0  0  0 
  8  5  1  0  0  0  0 
  9 15  1  0  0  0  0 
  9 12  1  0  0  0  0 
 10 16  1  0  0  0  0 
 10 12  1  0  0  0  0 
 11 14  1  0  0  0  0 
 11 13  2  0  0  0  0 
 12  7  1  1  0  0  0 
 12  8  1  0  0  0  0 
 13  9  2  0  0  0  0 
 14 10  2  0  0  0  0 
 15 30  1  0  0  0  0 
 16 31  1  0  0  0  0 
 17 11  2  0  0  0  0 
 19  1  1  0  0  0  0 
 23  4  1  0  0  0  0 
 26  6  1  0  0  0  0 
 28  7  1  0  0  0  0 
M  END 
>  <HBA> 
5 
 
>  <HBD> 
2 
 
>  <TPSA> 
75.27 
 
>  <cid> 
48415 
 
>  <dipole> 
10.44 
 
>  <excitation_energy_1> 
3.973 
 
>  <excitation_energy_2> 
4.204 
 
>  <excitation_energy_3> 
4.901 
 
>  <excitation_energy_4> 
5.004 
 
>  <homo_energy> 
-6.743 
 
>  <homo_lumo_gap> 
5.293 
 
>  <logP> 
1.539 
 
>  <lumo_energy> 
-1.45 
 
>  <melting_point> 
181.74 
 
>  <molecular_refractivity> 
68.78 
 
>  <oscillator_strength_1> 
0.001 
 
>  <oscillator_strength_2> 
0.0006 
 
>  <oscillator_strength_3> 
0.0176 
 
>  <oscillator_strength_4> 
0.0672 
 
>  <open_babel_can_smiles> 
C/C=C\[C@@]1([C@@H]2CCC=C2)C(=N[C](=[N]=C1O)=O)O 
 
>  <mulliken_charges> 
31 
1   -0.493308 
2   -0.103835 
3   -0.088336 
4   -0.314539 
5   -0.148303 
6   -0.32101 
7   -0.186631 
8   -0.121827 
9   0.547445 
10   0.533619 
11   0.608847 
12   -0.171871 
13   -0.461732 
14   -0.463531 
15   -0.576295 
16   -0.570102 
17   -0.43774 
18   0.172387 
19   0.171319 
20   0.172607 
21   0.153158 
22   0.14387 
23   0.17428 
24   0.158658 
25   0.130511 
26   0.18809 
27   0.162879 
28   0.165711 
29   0.144039 
30   0.412374 
31   0.419265 
 
>  <lowdin_charges> 
31 
1   -0.439393 
2   -0.159031 
3   -0.135625 
4   -0.27734 
5   -0.211748 
6   -0.283829 
7   -0.197837 
8   -0.119669 
9   0.144125 
10   0.145779 
11   0.165488 
12   -0.061312 
13   -0.183196 
14   -0.185242 
15   -0.329789 
16   -0.322726 
17   -0.213943 
18   0.168256 
19   0.163877 
20   0.168278 
21   0.160342 
22   0.162078 
23   0.165294 
24   0.157767 
25   0.153383 
26   0.167993 
27   0.16141 
28   0.169491 
29   0.148274 
30   0.358811 
31   0.360035 
 
$$$$ 
 
