PCCDB-ID:  70294 
public computational chemistry database (PCCDB) project, http://pccdb.org 
 
 26 27  0  0  0  0  0  0  0  0999 V2000 
   -1.1356    0.2139   -0.4749 C   0  0  0  0  0  0  0  0  0  0  0  0 
   -0.4836    1.2294    0.4981 C   0  0  0  0  0  0  0  0  0  0  0  0 
   -0.1650   -0.9431   -0.4605 C   0  0  0  0  0  0  0  0  0  0  0  0 
    1.0138    0.8455    0.5477 C   0  0  0  0  0  0  0  0  0  0  0  0 
    3.4442   -0.8453    0.1704 C   0  0  0  0  0  0  0  0  0  0  0  0 
    2.0363   -2.8035   -0.1264 C   0  0  0  0  0  0  0  0  0  0  0  0 
    4.5084   -1.7589    0.7725 C   0  0  0  0  0  0  0  0  0  0  0  0 
    3.1649   -3.6414    0.4715 C   0  0  0  0  0  0  0  0  0  0  0  0 
    1.0085   -0.6119    0.1150 C   0  0  0  0  0  0  0  0  0  0  0  0 
    2.1137   -1.4308    0.3666 N   0  0  0  0  0  0  0  0  0  0  0  0 
    4.4393   -3.0657    0.2202 O   0  0  0  0  0  0  0  0  0  0  0  0 
   -1.2425    0.6352   -1.4877 H   0  0  0  0  0  0  0  0  0  0  0  0 
   -2.1481   -0.0656   -0.1538 H   0  0  0  0  0  0  0  0  0  0  0  0 
   -0.9194    1.1050    1.4959 H   0  0  0  0  0  0  0  0  0  0  0  0 
   -0.6424    2.2711    0.2008 H   0  0  0  0  0  0  0  0  0  0  0  0 
   -0.4006   -1.9030   -0.9064 H   0  0  0  0  0  0  0  0  0  0  0  0 
    1.4504    0.9870    1.5444 H   0  0  0  0  0  0  0  0  0  0  0  0 
    1.6072    1.4575   -0.1481 H   0  0  0  0  0  0  0  0  0  0  0  0 
    3.6615   -0.6984   -0.9032 H   0  0  0  0  0  0  0  0  0  0  0  0 
    3.4860    0.1328    0.6580 H   0  0  0  0  0  0  0  0  0  0  0  0 
    1.0731   -3.2282    0.1755 H   0  0  0  0  0  0  0  0  0  0  0  0 
    2.0895   -2.8371   -1.2297 H   0  0  0  0  0  0  0  0  0  0  0  0 
    4.3799   -1.8033    1.8669 H   0  0  0  0  0  0  0  0  0  0  0  0 
    5.5100   -1.3782    0.5504 H   0  0  0  0  0  0  0  0  0  0  0  0 
    3.1791   -4.6383    0.0207 H   0  0  0  0  0  0  0  0  0  0  0  0 
    3.0079   -3.7476    1.5578 H   0  0  0  0  0  0  0  0  0  0  0  0 
  1  3  1  0  0  0  0 
  1 13  1  0  0  0  0 
  1  2  1  0  0  0  0 
  2  4  1  0  0  0  0 
  2 14  1  0  0  0  0 
  3  9  2  0  0  0  0 
  4 17  1  0  0  0  0 
  5 10  1  0  0  0  0 
  5 20  1  0  0  0  0 
  5  7  1  0  0  0  0 
  6 21  1  0  0  0  0 
  6 10  1  0  0  0  0 
  6  8  1  0  0  0  0 
  7 23  1  0  0  0  0 
  8 26  1  0  0  0  0 
  9 10  1  0  0  0  0 
  9  4  1  0  0  0  0 
 11  8  1  0  0  0  0 
 11  7  1  0  0  0  0 
 12  1  1  0  0  0  0 
 15  2  1  0  0  0  0 
 16  3  1  0  0  0  0 
 18  4  1  0  0  0  0 
 19  5  1  0  0  0  0 
 22  6  1  0  0  0  0 
 24  7  1  0  0  0  0 
 25  8  1  0  0  0  0 
M  END 
>  <HBA> 
2 
 
>  <HBD> 
0 
 
>  <TPSA> 
12.47 
 
>  <cid> 
70294 
 
>  <dipole> 
0.67 
 
>  <excitation_energy_1> 
4.69 
 
>  <excitation_energy_2> 
5.102 
 
>  <excitation_energy_3> 
5.119 
 
>  <excitation_energy_4> 
5.252 
 
>  <homo_energy> 
-5.072 
 
>  <homo_lumo_gap> 
6.381 
 
>  <logP> 
1.324 
 
>  <lumo_energy> 
1.309 
 
>  <melting_point> 
23.5 
 
>  <molecular_refractivity> 
48.57 
 
>  <oscillator_strength_1> 
0.0219 
 
>  <oscillator_strength_2> 
0.0042 
 
>  <oscillator_strength_3> 
0.0252 
 
>  <oscillator_strength_4> 
0.0359 
 
>  <open_babel_can_smiles> 
O1CCN(CC1)C1=CCCC1 
 
>  <mulliken_charges> 
26 
1   -0.29642 
2   -0.279074 
3   -0.19443 
4   -0.338415 
5   -0.14644 
6   -0.137043 
7   -0.033785 
8   -0.037649 
9   0.34179 
10   -0.48062 
11   -0.466315 
12   0.134316 
13   0.132425 
14   0.144564 
15   0.1318 
16   0.111244 
17   0.14321 
18   0.144781 
19   0.135727 
20   0.152983 
21   0.152246 
22   0.133968 
23   0.128171 
24   0.146671 
25   0.14707 
26   0.129225 
 
>  <lowdin_charges> 
26 
1   -0.267233 
2   -0.269861 
3   -0.256846 
4   -0.285123 
5   -0.207489 
6   -0.208044 
7   -0.13489 
8   -0.134703 
9   0.028173 
10   -0.138603 
11   -0.272621 
12   0.137738 
13   0.140198 
14   0.146312 
15   0.141659 
16   0.149868 
17   0.146209 
18   0.147094 
19   0.130249 
20   0.157487 
21   0.157874 
22   0.129646 
23   0.128937 
24   0.152093 
25   0.152126 
26   0.129753 
 
$$$$ 
 
