PCCDB-ID:  12137 
public computational chemistry database (PCCDB) project, http://pccdb.org 
 
 29 30  0  0  0  0  0  0  0  0999 V2000 
    2.4999    1.7667    0.2349 C   0  0  0  0  0  0  0  0  0  0  0  0 
    5.2378   -6.4044   -7.0432 C   0  0  0  0  0  0  0  0  0  0  0  0 
    4.8063   -5.1556   -7.4940 C   0  0  0  0  0  0  0  0  0  0  0  0 
    5.3077   -6.6633   -5.6684 C   0  0  0  0  0  0  0  0  0  0  0  0 
    4.4473   -4.1709   -6.5751 C   0  0  0  0  0  0  0  0  0  0  0  0 
    4.9508   -5.6855   -4.7470 C   0  0  0  0  0  0  0  0  0  0  0  0 
    3.5568   -1.8371    0.0358 C   0  0  0  0  0  0  0  0  0  0  0  0 
    3.0248   -0.3080   -1.7741 C   0  0  0  0  0  0  0  0  0  0  0  0 
    3.9069   -2.8024   -0.8922 C   0  0  0  0  0  0  0  0  0  0  0  0 
    3.3749   -1.2815   -2.6953 C   0  0  0  0  0  0  0  0  0  0  0  0 
    3.1053   -0.5668   -0.3853 C   0  0  0  0  0  0  0  0  0  0  0  0 
    4.5165   -4.4265   -5.1986 C   0  0  0  0  0  0  0  0  0  0  0  0 
    3.8226   -2.5463   -2.2717 C   0  0  0  0  0  0  0  0  0  0  0  0 
    2.7295    0.3712    0.5539 N   0  0  0  0  0  0  0  0  0  0  0  0 
    4.1273   -3.3531   -4.3584 N   0  0  0  0  0  0  0  0  0  0  0  0 
    4.2056   -3.5993   -3.1199 N   0  0  0  0  0  0  0  0  0  0  0  0 
    2.2712    2.3023    1.1594 H   0  0  0  0  0  0  0  0  0  0  0  0 
    1.6380    1.8760   -0.4335 H   0  0  0  0  0  0  0  0  0  0  0  0 
    3.3675    2.2481   -0.2425 H   0  0  0  0  0  0  0  0  0  0  0  0 
    5.5188   -7.1748   -7.7564 H   0  0  0  0  0  0  0  0  0  0  0  0 
    4.7498   -4.9491   -8.5594 H   0  0  0  0  0  0  0  0  0  0  0  0 
    5.6424   -7.6366   -5.3182 H   0  0  0  0  0  0  0  0  0  0  0  0 
    4.1070   -3.1913   -6.8974 H   0  0  0  0  0  0  0  0  0  0  0  0 
    4.9980   -5.8684   -3.6793 H   0  0  0  0  0  0  0  0  0  0  0  0 
    3.6234   -2.0531    1.1000 H   0  0  0  0  0  0  0  0  0  0  0  0 
    2.6849    0.6606   -2.1253 H   0  0  0  0  0  0  0  0  0  0  0  0 
    4.2551   -3.7804   -0.5734 H   0  0  0  0  0  0  0  0  0  0  0  0 
    3.3133   -1.0834   -3.7598 H   0  0  0  0  0  0  0  0  0  0  0  0 
    3.0354    0.1804    1.4974 H   0  0  0  0  0  0  0  0  0  0  0  0 
  1 14  1  0  0  0  0 
  1 17  1  0  0  0  0 
  2  4  1  0  0  0  0 
  3  2  2  0  0  0  0 
  3  5  1  0  0  0  0 
  4 22  1  0  0  0  0 
  4  6  2  0  0  0  0 
  5 12  2  0  0  0  0 
  6 24  1  0  0  0  0 
  7 25  1  0  0  0  0 
  8 11  2  0  0  0  0 
  9 27  1  0  0  0  0 
  9  7  2  0  0  0  0 
 10 13  2  0  0  0  0 
 10  8  1  0  0  0  0 
 11  7  1  0  0  0  0 
 11 14  1  0  0  0  0 
 12  6  1  0  0  0  0 
 12 15  1  0  0  0  0 
 13  9  1  0  0  0  0 
 14 29  1  0  0  0  0 
 15 16  1  0  0  0  0 
 16 13  1  0  0  0  0 
 18  1  1  0  0  0  0 
 19  1  1  0  0  0  0 
 20  2  1  0  0  0  0 
 21  3  1  0  0  0  0 
 23  5  1  0  0  0  0 
 26  8  1  0  0  0  0 
 28 10  1  0  0  0  0 
M  RAD  2  15   2  16   2 
M  END 
>  <HBA> 
3 
 
>  <HBD> 
1 
 
>  <TPSA> 
36.75 
 
>  <cid> 
12137 
 
>  <dipole> 
3.71 
 
>  <excitation_energy_1> 
2.675 
 
>  <excitation_energy_2> 
3.181 
 
>  <excitation_energy_3> 
4.119 
 
>  <excitation_energy_4> 
4.19 
 
>  <homo_energy> 
-5.197 
 
>  <homo_lumo_gap> 
3.437 
 
>  <logP> 
4.217 
 
>  <lumo_energy> 
-1.761 
 
>  <melting_point> 
96.37 
 
>  <molecular_refractivity> 
66.37 
 
>  <oscillator_strength_1> 
0.0 
 
>  <oscillator_strength_2> 
0.8662 
 
>  <oscillator_strength_3> 
0.0064 
 
>  <oscillator_strength_4> 
0.0031 
 
>  <open_babel_can_smiles> 
CNc1ccc(cc1)[N][N]c1ccccc1 
 
>  <mulliken_charges> 
29 
1   -0.302902 
2   -0.120981 
3   -0.138787 
4   -0.146127 
5   -0.143877 
6   -0.127124 
7   -0.202483 
8   -0.199265 
9   -0.14302 
10   -0.134142 
11   0.377315 
12   0.273232 
13   0.267901 
14   -0.643267 
15   -0.325471 
16   -0.316474 
17   0.159538 
18   0.170135 
19   0.157122 
20   0.128605 
21   0.129778 
22   0.13039 
23   0.135175 
24   0.149861 
25   0.119581 
26   0.129727 
27   0.138315 
28   0.154316 
29   0.322929 
 
>  <lowdin_charges> 
29 
1   -0.353214 
2   -0.155235 
3   -0.156573 
4   -0.154087 
5   -0.151607 
6   -0.154234 
7   -0.20291 
8   -0.20291 
9   -0.134363 
10   -0.133535 
11   0.070735 
12   0.014371 
13   -0.017627 
14   -0.279694 
15   -0.103254 
16   -0.082443 
17   0.161355 
18   0.156986 
19   0.145702 
20   0.158486 
21   0.156237 
22   0.156897 
23   0.163915 
24   0.169185 
25   0.151811 
26   0.159849 
27   0.166105 
28   0.171723 
29   0.278331 
 
$$$$ 
 
