PCCDB-ID:  32202 
public computational chemistry database (PCCDB) project, http://pccdb.org 
 
 16 15  0  0  0  0  0  0  0  0999 V2000 
    2.3286   -3.3568   -0.8456 C   0  0  0  0  0  0  0  0  0  0  0  0 
    2.0168   -2.1502    0.0246 C   0  0  0  0  0  0  0  0  0  0  0  0 
    4.9279    0.1556   -0.0028 C   0  0  0  0  0  0  0  0  0  0  0  0 
    6.9288   -0.3440    1.3981 C   0  0  0  0  0  0  0  0  0  0  0  0 
    4.1083   -1.0740    0.4071 C   0  0  0  0  0  0  0  0  0  0  0  0 
    6.2016    0.2147    0.6227 N   0  0  0  0  0  0  0  0  0  0  0  0 
    4.4665   -1.9162    1.1942 O   0  0  0  0  0  0  0  0  0  0  0  0 
    2.9335   -1.0532   -0.2460 O   0  0  0  0  0  0  0  0  0  0  0  0 
    8.0164   -0.9392    2.3874 S   0  0  0  0  0  0  0  0  0  0  0  0 
    1.5696   -4.1313   -0.6871 H   0  0  0  0  0  0  0  0  0  0  0  0 
    3.3051   -3.7774   -0.5894 H   0  0  0  0  0  0  0  0  0  0  0  0 
    2.3250   -3.0846   -1.9060 H   0  0  0  0  0  0  0  0  0  0  0  0 
    2.0755   -2.3966    1.0873 H   0  0  0  0  0  0  0  0  0  0  0  0 
    1.0326   -1.7329   -0.1990 H   0  0  0  0  0  0  0  0  0  0  0  0 
    4.3497    1.0565    0.2376 H   0  0  0  0  0  0  0  0  0  0  0  0 
    5.0451    0.1501   -1.0934 H   0  0  0  0  0  0  0  0  0  0  0  0 
  1 10  1  0  0  0  0 
  1 11  1  0  0  0  0 
  1  2  1  0  0  0  0 
  2 13  1  0  0  0  0 
  3 15  1  0  0  0  0 
  3  5  1  0  0  0  0 
  3  6  1  0  0  0  0 
  4  9  2  0  0  0  0 
  5  7  2  0  0  0  0 
  6  4  2  0  0  0  0 
  8  2  1  0  0  0  0 
  8  5  1  0  0  0  0 
 12  1  1  0  0  0  0 
 14  2  1  0  0  0  0 
 16  3  1  0  0  0  0 
M  END 
>  <HBA> 
4 
 
>  <HBD> 
0 
 
>  <TPSA> 
70.75 
 
>  <cid> 
32202 
 
>  <dipole> 
4.98 
 
>  <excitation_energy_1> 
4.533 
 
>  <excitation_energy_2> 
5.179 
 
>  <excitation_energy_3> 
5.49 
 
>  <excitation_energy_4> 
5.577 
 
>  <homo_energy> 
-6.626 
 
>  <homo_lumo_gap> 
6.106 
 
>  <logP> 
0.652 
 
>  <lumo_energy> 
-0.52 
 
>  <melting_point> 
35.95 
 
>  <molecular_refractivity> 
36.6 
 
>  <oscillator_strength_1> 
0.0 
 
>  <oscillator_strength_2> 
0.0166 
 
>  <oscillator_strength_3> 
0.0044 
 
>  <oscillator_strength_4> 
0.0006 
 
>  <open_babel_can_smiles> 
CCOC(=O)CN=C=S 
 
>  <mulliken_charges> 
16 
1   -0.464945 
2   -0.050052 
3   -0.23154 
4   0.251721 
5   0.616001 
6   -0.359543 
7   -0.451526 
8   -0.457231 
9   -0.10761 
10   0.158238 
11   0.181499 
12   0.161076 
13   0.178098 
14   0.161349 
15   0.207603 
16   0.206862 
 
>  <lowdin_charges> 
16 
1   -0.453756 
2   -0.122488 
3   -0.20048 
4   -0.025114 
5   0.189874 
6   -0.114906 
7   -0.238081 
8   -0.190935 
9   -0.020548 
10   0.16405 
11   0.167755 
12   0.156924 
13   0.160824 
14   0.156547 
15   0.186712 
16   0.183622 
 
$$$$ 
 
