PCCDB-ID:  43554 
public computational chemistry database (PCCDB) project, http://pccdb.org 
 
 20 20  0  0  1  0  0  0  0  0999 V2000 
    1.5388   -0.0777   -0.9015 C   0  0  0  0  0  0  0  0  0  0  0  0 
    4.1551    1.8305    0.1234 C   0  0  0  0  0  0  0  0  0  0  0  0 
    2.3331   -1.2345    1.2796 C   0  0  0  0  0  0  0  0  0  0  0  0 
    3.4291   -0.8671    2.2789 C   0  0  0  0  0  0  0  0  0  0  0  0 
    2.6588   -0.2870    0.1146 C   0  0  2  0  0  0  0  0  0  0  0  0 
    3.1160    0.9992    0.8617 C   0  0  2  0  0  0  0  0  0  0  0  0 
    2.0310    1.8756    1.1426 O   0  0  0  0  0  0  0  0  0  0  0  0 
    3.6623    0.5379    2.1016 O   0  0  0  0  0  0  0  0  0  0  0  0 
    1.2599   -1.0274   -1.3724 H   0  0  0  0  0  0  0  0  0  0  0  0 
    1.8471    0.6107   -1.6964 H   0  0  0  0  0  0  0  0  0  0  0  0 
    0.6521    0.3478   -0.4229 H   0  0  0  0  0  0  0  0  0  0  0  0 
    5.0305    1.2216   -0.1214 H   0  0  0  0  0  0  0  0  0  0  0  0 
    4.4670    2.6648    0.7574 H   0  0  0  0  0  0  0  0  0  0  0  0 
    3.7330    2.2371   -0.8013 H   0  0  0  0  0  0  0  0  0  0  0  0 
    1.3386   -1.0106    1.6893 H   0  0  0  0  0  0  0  0  0  0  0  0 
    2.3467   -2.2918    0.9972 H   0  0  0  0  0  0  0  0  0  0  0  0 
    4.3556   -1.4224    2.0694 H   0  0  0  0  0  0  0  0  0  0  0  0 
    3.1600   -1.0406    3.3262 H   0  0  0  0  0  0  0  0  0  0  0  0 
    3.5431   -0.6870   -0.4025 H   0  0  0  0  0  0  0  0  0  0  0  0 
    1.6041    1.5323    1.9432 H   0  0  0  0  0  0  0  0  0  0  0  0 
  1 11  1  0  0  0  0 
  1  5  1  0  0  0  0 
  2 13  1  0  0  0  0 
  2  6  1  0  0  0  0 
  3 15  1  0  0  0  0 
  3  4  1  0  0  0  0 
  4 18  1  0  0  0  0 
  5 19  1  6  0  0  0 
  5  6  1  0  0  0  0 
  5  3  1  0  0  0  0 
  6  7  1  1  0  0  0 
  6  8  1  0  0  0  0 
  7 20  1  0  0  0  0 
  8  4  1  0  0  0  0 
  9  1  1  0  0  0  0 
 10  1  1  0  0  0  0 
 12  2  1  0  0  0  0 
 14  2  1  0  0  0  0 
 16  3  1  0  0  0  0 
 17  4  1  0  0  0  0 
M  END 
>  <HBA> 
2 
 
>  <HBD> 
1 
 
>  <TPSA> 
29.46 
 
>  <cid> 
43554 
 
>  <dipole> 
2.23 
 
>  <excitation_energy_1> 
6.308 
 
>  <excitation_energy_2> 
6.757 
 
>  <excitation_energy_3> 
6.908 
 
>  <excitation_energy_4> 
7.026 
 
>  <homo_energy> 
-6.89 
 
>  <homo_lumo_gap> 
8.735 
 
>  <logP> 
0.751 
 
>  <lumo_energy> 
1.845 
 
>  <melting_point> 
16.71 
 
>  <molecular_refractivity> 
31.13 
 
>  <oscillator_strength_1> 
0.0077 
 
>  <oscillator_strength_2> 
0.0028 
 
>  <oscillator_strength_3> 
0.0136 
 
>  <oscillator_strength_4> 
0.0239 
 
>  <open_babel_can_smiles> 
C[C@@H]1CCO[C@]1(C)O 
 
>  <mulliken_charges> 
20 
1   -0.439234 
2   -0.45231 
3   -0.31701 
4   -0.019235 
5   -0.125642 
6   0.530334 
7   -0.62774 
8   -0.520761 
9   0.138818 
10   0.148338 
11   0.153493 
12   0.141666 
13   0.165458 
14   0.152536 
15   0.134879 
16   0.14697 
17   0.132399 
18   0.142832 
19   0.128611 
20   0.385598 
 
>  <lowdin_charges> 
20 
1   -0.442526 
2   -0.450225 
3   -0.295769 
4   -0.130015 
5   -0.150215 
6   0.207204 
7   -0.453204 
8   -0.280054 
9   0.148932 
10   0.154121 
11   0.155267 
12   0.153462 
13   0.166771 
14   0.158804 
15   0.140999 
16   0.153514 
17   0.133918 
18   0.143933 
19   0.144263 
20   0.340821 
 
$$$$ 
 
