PCCDB-ID:  11361 
public computational chemistry database (PCCDB) project, http://pccdb.org 
 
 19 20  0  0  0  0  0  0  0  0999 V2000 
    1.0004   -0.0578    0.0799 C   0  0  0  0  0  0  0  0  0  0  0  0 
    3.2989   -1.0659    0.1260 C   0  0  0  0  0  0  0  0  0  0  0  0 
    3.2690    1.1328    0.1024 C   0  0  0  0  0  0  0  0  0  0  0  0 
    4.5597    0.6280    0.1273 C   0  0  0  0  0  0  0  0  0  0  0  0 
    3.1115    2.5577    0.0834 C   0  0  0  0  0  0  0  0  0  0  0  0 
    5.4434    2.8909    0.1094 C   0  0  0  0  0  0  0  0  0  0  0  0 
    6.4108    3.7330    0.1110 N   0  0  0  0  0  0  0  0  0  0  0  0 
    4.5818   -0.7338    0.1418 N   0  0  0  0  0  0  0  0  0  0  0  0 
    5.6251    1.4747    0.1312 N   0  0  0  0  0  0  0  0  0  0  0  0 
    4.1297    3.3500    0.0868 N   0  0  0  0  0  0  0  0  0  0  0  0 
    2.4504   -0.0008    0.1004 N   0  0  0  0  0  0  0  0  0  0  0  0 
    1.8878    3.1506    0.0574 O   0  0  0  0  0  0  0  0  0  0  0  0 
    0.6889   -1.1043    0.0727 H   0  0  0  0  0  0  0  0  0  0  0  0 
    0.6024    0.4224   -0.8217 H   0  0  0  0  0  0  0  0  0  0  0  0 
    0.5757    0.4179    0.9720 H   0  0  0  0  0  0  0  0  0  0  0  0 
    2.9252   -2.0818    0.1289 H   0  0  0  0  0  0  0  0  0  0  0  0 
    7.3130    3.2503    0.1296 H   0  0  0  0  0  0  0  0  0  0  0  0 
    6.5603    1.0901    0.1463 H   0  0  0  0  0  0  0  0  0  0  0  0 
    1.1910    2.4785    0.0809 H   0  0  0  0  0  0  0  0  0  0  0  0 
  1 11  1  0  0  0  0 
  1 15  1  0  0  0  0 
  2 16  1  0  0  0  0 
  2  8  2  0  0  0  0 
  3  4  2  0  0  0  0 
  4  9  1  0  0  0  0 
  4  8  1  0  0  0  0 
  5 10  2  0  0  0  0 
  5  3  1  0  0  0  0 
  6  7  1  0  0  0  0 
  6  9  1  0  0  0  0 
  7 17  1  0  0  0  0 
  9 18  1  0  0  0  0 
 10  6  2  0  0  0  0 
 11  3  1  0  0  0  0 
 11  2  1  0  0  0  0 
 12 19  1  0  0  0  0 
 12  5  1  0  0  0  0 
 13  1  1  0  0  0  0 
 14  1  1  0  0  0  0 
M  RAD  1   7   2 
M  END 
>  <HBA> 
5 
 
>  <HBD> 
2 
 
>  <TPSA> 
89.59 
 
>  <cid> 
11361 
 
>  <dipole> 
8.48 
 
>  <excitation_energy_1> 
3.693 
 
>  <excitation_energy_2> 
4.238 
 
>  <excitation_energy_3> 
4.841 
 
>  <excitation_energy_4> 
4.867 
 
>  <homo_energy> 
-5.353 
 
>  <homo_lumo_gap> 
4.31 
 
>  <logP> 
-0.18 
 
>  <lumo_energy> 
-1.042 
 
>  <melting_point> 
214.71 
 
>  <molecular_refractivity> 
43.82 
 
>  <oscillator_strength_1> 
0.083 
 
>  <oscillator_strength_2> 
0.001 
 
>  <oscillator_strength_3> 
0.0 
 
>  <oscillator_strength_4> 
0.0008 
 
>  <open_babel_can_smiles> 
Cn1cnc2c1C(=[N]=C(N2)[NH])O 
 
>  <mulliken_charges> 
19 
1   -0.362643 
2   0.218029 
3   0.224884 
4   0.501088 
5   0.527558 
6   0.59677 
7   -0.618917 
8   -0.499119 
9   -0.743759 
10   -0.498029 
11   -0.492485 
12   -0.596356 
13   0.193602 
14   0.188978 
15   0.188087 
16   0.17066 
17   0.256457 
18   0.334734 
19   0.410465 
 
>  <lowdin_charges> 
19 
1   -0.354204 
2   -0.062951 
3   -0.107223 
4   0.078694 
5   0.150918 
6   0.131062 
7   -0.432961 
8   -0.199783 
9   -0.240042 
10   -0.181271 
11   -0.011409 
12   -0.347266 
13   0.178932 
14   0.167283 
15   0.166706 
16   0.173788 
17   0.23993 
18   0.2965 
19   0.353296 
 
$$$$ 
 
