PCCDB-ID:  70962 
public computational chemistry database (PCCDB) project, http://pccdb.org 
 
 29 29  0  0  1  0  0  0  0  0999 V2000 
    5.2952    0.7773    0.9454 C   0  0  0  0  0  0  0  0  0  0  0  0 
    5.2355   -1.7018    0.5484 C   0  0  0  0  0  0  0  0  0  0  0  0 
    3.2622   -1.3513    5.1225 C   0  0  0  0  0  0  0  0  0  0  0  0 
    2.5977   -2.4815    2.9190 C   0  0  0  0  0  0  0  0  0  0  0  0 
    2.4133   -1.8704    1.5206 C   0  0  0  0  0  0  0  0  0  0  0  0 
    1.6762   -0.1600    3.5280 C   0  0  0  0  0  0  0  0  0  0  0  0 
    4.6784   -0.5535    1.4066 C   0  0  0  0  0  0  0  0  0  0  0  0 
    2.1544   -1.5273    4.0727 C   0  0  2  0  0  0  0  0  0  0  0  0 
    3.1117   -0.5012    1.3799 C   0  0  2  0  0  0  0  0  0  0  0  0 
    2.5686    0.4566    2.4552 C   0  0  0  0  0  0  0  0  0  0  0  0 
    2.7927    1.6542    2.4401 O   0  0  0  0  0  0  0  0  0  0  0  0 
    4.9093    1.6233    1.5162 H   0  0  0  0  0  0  0  0  0  0  0  0 
    5.0677    0.9576   -0.1137 H   0  0  0  0  0  0  0  0  0  0  0  0 
    6.3863    0.7460    1.0501 H   0  0  0  0  0  0  0  0  0  0  0  0 
    6.3300   -1.6478    0.5183 H   0  0  0  0  0  0  0  0  0  0  0  0 
    4.8737   -1.6326   -0.4858 H   0  0  0  0  0  0  0  0  0  0  0  0 
    4.9674   -2.6906    0.9340 H   0  0  0  0  0  0  0  0  0  0  0  0 
    2.9201   -0.7371    5.9636 H   0  0  0  0  0  0  0  0  0  0  0  0 
    4.1475   -0.8641    4.6942 H   0  0  0  0  0  0  0  0  0  0  0  0 
    3.5794   -2.3220    5.5218 H   0  0  0  0  0  0  0  0  0  0  0  0 
    3.6541   -2.7457    3.0562 H   0  0  0  0  0  0  0  0  0  0  0  0 
    2.0436   -3.4258    2.9777 H   0  0  0  0  0  0  0  0  0  0  0  0 
    1.3418   -1.7392    1.3174 H   0  0  0  0  0  0  0  0  0  0  0  0 
    2.7736   -2.5654    0.7557 H   0  0  0  0  0  0  0  0  0  0  0  0 
    1.5544    0.5750    4.3296 H   0  0  0  0  0  0  0  0  0  0  0  0 
    0.6860   -0.2851    3.0636 H   0  0  0  0  0  0  0  0  0  0  0  0 
    4.9987   -0.7313    2.4437 H   0  0  0  0  0  0  0  0  0  0  0  0 
    1.2944   -1.9783    4.5839 H   0  0  0  0  0  0  0  0  0  0  0  0 
    2.8329   -0.0604    0.4112 H   0  0  0  0  0  0  0  0  0  0  0  0 
  1 14  1  0  0  0  0 
  1  7  1  0  0  0  0 
  1 12  1  0  0  0  0 
  2 17  1  0  0  0  0 
  2  7  1  0  0  0  0 
  3 20  1  0  0  0  0 
  3 18  1  0  0  0  0 
  4 22  1  0  0  0  0 
  4 21  1  0  0  0  0 
  4  8  1  0  0  0  0 
  5  4  1  0  0  0  0 
  6  8  1  0  0  0  0 
  6 25  1  0  0  0  0 
  7 27  1  0  0  0  0 
  8 28  1  1  0  0  0 
  8  3  1  0  0  0  0 
  9 29  1  6  0  0  0 
  9  7  1  0  0  0  0 
  9  5  1  0  0  0  0 
  9 10  1  0  0  0  0 
 10  6  1  0  0  0  0 
 11 10  2  0  0  0  0 
 13  1  1  0  0  0  0 
 15  2  1  0  0  0  0 
 16  2  1  0  0  0  0 
 19  3  1  0  0  0  0 
 23  5  1  0  0  0  0 
 24  5  1  0  0  0  0 
 26  6  1  0  0  0  0 
M  END 
>  <HBA> 
1 
 
>  <HBD> 
0 
 
>  <TPSA> 
17.07 
 
>  <cid> 
70962 
 
>  <dipole> 
2.86 
 
>  <excitation_energy_1> 
4.092 
 
>  <excitation_energy_2> 
5.815 
 
>  <excitation_energy_3> 
6.189 
 
>  <excitation_energy_4> 
6.288 
 
>  <homo_energy> 
-6.261 
 
>  <homo_lumo_gap> 
5.897 
 
>  <logP> 
2.648 
 
>  <lumo_energy> 
-0.365 
 
>  <melting_point> 
14.75 
 
>  <molecular_refractivity> 
48.27 
 
>  <oscillator_strength_1> 
0.0003 
 
>  <oscillator_strength_2> 
0.0066 
 
>  <oscillator_strength_3> 
0.0028 
 
>  <oscillator_strength_4> 
0.0049 
 
>  <open_babel_can_smiles> 
C[C@@H]1CC[C@@H](C(=O)C1)C(C)C 
 
>  <mulliken_charges> 
29 
1   -0.45466 
2   -0.452517 
3   -0.458576 
4   -0.284673 
5   -0.292205 
6   -0.361727 
7   -0.078684 
8   -0.071363 
9   -0.159487 
10   0.44955 
11   -0.455893 
12   0.186319 
13   0.133828 
14   0.132585 
15   0.145286 
16   0.141845 
17   0.145862 
18   0.146515 
19   0.152699 
20   0.145928 
21   0.144161 
22   0.138048 
23   0.132962 
24   0.144075 
25   0.161131 
26   0.160483 
27   0.128945 
28   0.131131 
29   0.148432 
 
>  <lowdin_charges> 
29 
1   -0.449356 
2   -0.44308 
3   -0.448128 
4   -0.283801 
5   -0.283706 
6   -0.310285 
7   -0.114792 
8   -0.126713 
9   -0.163076 
10   0.159249 
11   -0.239318 
12   0.170723 
13   0.142304 
14   0.142619 
15   0.15031 
16   0.145947 
17   0.147506 
18   0.15106 
19   0.148279 
20   0.150335 
21   0.143721 
22   0.148225 
23   0.140083 
24   0.152701 
25   0.164926 
26   0.164757 
27   0.135079 
28   0.144429 
29   0.16 
 
$$$$ 
 
