PCCDB-ID:  9457 
public computational chemistry database (PCCDB) project, http://pccdb.org 
 
 27 27  0  0  1  0  0  0  0  0999 V2000 
    2.8544   -1.7843    0.1646 C   0  0  0  0  0  0  0  0  0  0  0  0 
    4.5265    0.0286   -1.4232 C   0  0  0  0  0  0  0  0  0  0  0  0 
   -0.6289   -0.3352    4.0574 C   0  0  0  0  0  0  0  0  0  0  0  0 
    0.0023    0.8413    3.6456 C   0  0  0  0  0  0  0  0  0  0  0  0 
   -0.7385   -1.4053    3.1694 C   0  0  0  0  0  0  0  0  0  0  0  0 
    0.5278    0.9433    2.3581 C   0  0  0  0  0  0  0  0  0  0  0  0 
   -0.2183   -1.2976    1.8777 C   0  0  0  0  0  0  0  0  0  0  0  0 
    2.5681   -0.2849    0.0724 C   0  0  2  0  0  0  0  0  0  0  0  0 
    0.4269   -0.1282    1.4602 C   0  0  0  0  0  0  0  0  0  0  0  0 
    1.0294   -0.0247    0.0747 C   0  0  1  0  0  0  0  0  0  0  0  0 
    3.1138    0.3050   -1.1627 N   0  0  0  0  0  0  0  0  0  0  0  0 
    0.7354    1.2760   -0.4426 O   0  0  0  0  0  0  0  0  0  0  0  0 
    3.9220   -1.9894    0.2889 H   0  0  0  0  0  0  0  0  0  0  0  0 
    2.5089   -2.2981   -0.7408 H   0  0  0  0  0  0  0  0  0  0  0  0 
    2.3355   -2.2140    1.0268 H   0  0  0  0  0  0  0  0  0  0  0  0 
    4.8552    0.6497   -2.2629 H   0  0  0  0  0  0  0  0  0  0  0  0 
    4.6645   -1.0165   -1.7151 H   0  0  0  0  0  0  0  0  0  0  0  0 
    5.1928    0.2319   -0.5649 H   0  0  0  0  0  0  0  0  0  0  0  0 
   -1.0393   -0.4132    5.0608 H   0  0  0  0  0  0  0  0  0  0  0  0 
    0.0819    1.6833    4.3284 H   0  0  0  0  0  0  0  0  0  0  0  0 
   -1.2375   -2.3209    3.4759 H   0  0  0  0  0  0  0  0  0  0  0  0 
    1.0032    1.8636    2.0330 H   0  0  0  0  0  0  0  0  0  0  0  0 
   -0.3238   -2.1287    1.1839 H   0  0  0  0  0  0  0  0  0  0  0  0 
    2.9978    0.2055    0.9659 H   0  0  0  0  0  0  0  0  0  0  0  0 
    0.5681   -0.7855   -0.5745 H   0  0  0  0  0  0  0  0  0  0  0  0 
    3.0140    1.3129   -1.0606 H   0  0  0  0  0  0  0  0  0  0  0  0 
    1.0013    1.2430   -1.3767 H   0  0  0  0  0  0  0  0  0  0  0  0 
  1 13  1  0  0  0  0 
  1 15  1  0  0  0  0 
  2 11  1  0  0  0  0 
  2 18  1  0  0  0  0 
  3 19  1  0  0  0  0 
  4  3  1  0  0  0  0 
  4 20  1  0  0  0  0 
  5 21  1  0  0  0  0 
  5  3  2  0  0  0  0 
  6  4  2  0  0  0  0 
  7  5  1  0  0  0  0 
  8 10  1  0  0  0  0 
  8  1  1  0  0  0  0 
  8 24  1  1  0  0  0 
  9  7  2  0  0  0  0 
  9  6  1  0  0  0  0 
 10 25  1  6  0  0  0 
 10  9  1  0  0  0  0 
 11 26  1  0  0  0  0 
 11  8  1  0  0  0  0 
 12 10  1  0  0  0  0 
 14  1  1  0  0  0  0 
 16  2  1  0  0  0  0 
 17  2  1  0  0  0  0 
 22  6  1  0  0  0  0 
 23  7  1  0  0  0  0 
 27 12  1  0  0  0  0 
M  END 
>  <HBA> 
2 
 
>  <HBD> 
2 
 
>  <TPSA> 
32.26 
 
>  <cid> 
9457 
 
>  <dipole> 
1.51 
 
>  <excitation_energy_1> 
5.293 
 
>  <excitation_energy_2> 
5.415 
 
>  <excitation_energy_3> 
5.579 
 
>  <excitation_energy_4> 
5.616 
 
>  <homo_energy> 
-6.144 
 
>  <homo_lumo_gap> 
6.188 
 
>  <logP> 
1.719 
 
>  <lumo_energy> 
0.044 
 
>  <melting_point> 
50.96 
 
>  <molecular_refractivity> 
49.79 
 
>  <oscillator_strength_1> 
0.0021 
 
>  <oscillator_strength_2> 
0.0081 
 
>  <oscillator_strength_3> 
0.0111 
 
>  <oscillator_strength_4> 
0.0023 
 
>  <open_babel_can_smiles> 
CN[C@@H]([C@@H](c1ccccc1)O)C 
 
>  <mulliken_charges> 
27 
1   -0.470508 
2   -0.304085 
3   -0.12802 
4   -0.132335 
5   -0.131688 
6   -0.164014 
7   -0.186438 
8   0.043318 
9   0.153146 
10   0.066387 
11   -0.578937 
12   -0.643249 
13   0.150822 
14   0.149563 
15   0.159405 
16   0.148231 
17   0.159152 
18   0.12536 
19   0.127407 
20   0.128412 
21   0.1278 
22   0.141615 
23   0.124979 
24   0.115427 
25   0.119659 
26   0.299946 
27   0.398645 
 
>  <lowdin_charges> 
27 
1   -0.454762 
2   -0.361286 
3   -0.157479 
4   -0.156295 
5   -0.157652 
6   -0.154395 
7   -0.170054 
8   -0.077499 
9   -0.00738 
10   -0.005806 
11   -0.373323 
12   -0.461337 
13   0.152646 
14   0.151753 
15   0.162581 
16   0.152281 
17   0.15003 
18   0.125504 
19   0.155798 
20   0.157545 
21   0.157017 
22   0.164696 
23   0.15525 
24   0.123756 
25   0.134673 
26   0.250883 
27   0.342856 
 
$$$$ 
 
