PCCDB-ID:  57942 
public computational chemistry database (PCCDB) project, http://pccdb.org 
 
 39 40  0  0  1  0  0  0  0  0999 V2000 
    6.8001   -1.0153    0.8191 C   0  0  0  0  0  0  0  0  0  0  0  0 
    6.0622    0.3688   -1.1571 C   0  0  0  0  0  0  0  0  0  0  0  0 
    3.8389    5.2236    3.6054 C   0  0  0  0  0  0  0  0  0  0  0  0 
    3.7969    5.9774    2.2493 C   0  0  0  0  0  0  0  0  0  0  0  0 
    1.9805    3.7671    2.7088 C   0  0  0  0  0  0  0  0  0  0  0  0 
    2.1371    4.3601    1.2762 C   0  0  0  0  0  0  0  0  0  0  0  0 
    4.6257    0.2695    0.9539 C   0  0  0  0  0  0  0  0  0  0  0  0 
    3.8741    1.6075    0.8208 C   0  0  0  0  0  0  0  0  0  0  0  0 
    4.3528    2.7725    2.9618 C   0  0  0  0  0  0  0  0  0  0  0  0 
    4.6508    3.9933    0.8416 C   0  0  0  0  0  0  0  0  0  0  0  0 
    6.0528    0.2507    0.3748 C   0  0  0  0  0  0  0  0  0  0  0  0 
    3.2984    3.7786    3.5093 C   0  0  1  0  0  0  0  0  0  0  0  0 
    3.5081    5.0342    1.0668 C   0  0  2  0  0  0  0  0  0  0  0  0 
    4.5346    2.7102    1.5175 N   0  0  0  0  0  0  0  0  0  0  0  0 
    7.8260   -1.0294    0.4311 H   0  0  0  0  0  0  0  0  0  0  0  0 
    6.2964   -1.9203    0.4537 H   0  0  0  0  0  0  0  0  0  0  0  0 
    6.8548   -1.0846    1.9123 H   0  0  0  0  0  0  0  0  0  0  0  0 
    7.0880    0.3657   -1.5449 H   0  0  0  0  0  0  0  0  0  0  0  0 
    5.5859    1.2928   -1.5044 H   0  0  0  0  0  0  0  0  0  0  0  0 
    5.5314   -0.4746   -1.6194 H   0  0  0  0  0  0  0  0  0  0  0  0 
    3.2466    5.7735    4.3479 H   0  0  0  0  0  0  0  0  0  0  0  0 
    4.8629    5.1958    3.9990 H   0  0  0  0  0  0  0  0  0  0  0  0 
    4.7399    6.5111    2.0765 H   0  0  0  0  0  0  0  0  0  0  0  0 
    3.0137    6.7470    2.2748 H   0  0  0  0  0  0  0  0  0  0  0  0 
    1.5769    2.7484    2.6619 H   0  0  0  0  0  0  0  0  0  0  0  0 
    1.2422    4.3561    3.2685 H   0  0  0  0  0  0  0  0  0  0  0  0 
    1.3518    5.1070    1.1045 H   0  0  0  0  0  0  0  0  0  0  0  0 
    1.9849    3.5840    0.5181 H   0  0  0  0  0  0  0  0  0  0  0  0 
    4.0202   -0.5117    0.4681 H   0  0  0  0  0  0  0  0  0  0  0  0 
    4.6707   -0.0051    2.0175 H   0  0  0  0  0  0  0  0  0  0  0  0 
    2.8368    1.4507    1.1646 H   0  0  0  0  0  0  0  0  0  0  0  0 
    3.8013    1.8756   -0.2385 H   0  0  0  0  0  0  0  0  0  0  0  0 
    4.0802    1.7663    3.2994 H   0  0  0  0  0  0  0  0  0  0  0  0 
    5.3168    3.0040    3.4449 H   0  0  0  0  0  0  0  0  0  0  0  0 
    5.6044    4.4627    1.1353 H   0  0  0  0  0  0  0  0  0  0  0  0 
    4.7346    3.7849   -0.2308 H   0  0  0  0  0  0  0  0  0  0  0  0 
    6.5782    1.1227    0.7877 H   0  0  0  0  0  0  0  0  0  0  0  0 
    3.0820    3.4444    4.5345 H   0  0  0  0  0  0  0  0  0  0  0  0 
    3.4575    5.6486    0.1564 H   0  0  0  0  0  0  0  0  0  0  0  0 
  1 17  1  0  0  0  0 
  2 11  1  0  0  0  0 
  3 22  1  0  0  0  0 
  3 21  1  0  0  0  0 
  4 24  1  0  0  0  0 
  4  3  1  0  0  0  0 
  5 26  1  0  0  0  0 
  5 12  1  0  0  0  0 
  6  5  1  0  0  0  0 
  7 30  1  0  0  0  0 
  8  7  1  0  0  0  0 
  8 31  1  0  0  0  0 
  8 14  1  0  0  0  0 
  9 33  1  0  0  0  0 
  9 34  1  0  0  0  0 
  9 12  1  0  0  0  0 
 10 13  1  0  0  0  0 
 10 35  1  0  0  0  0 
 10 14  1  0  0  0  0 
 11 37  1  0  0  0  0 
 11  1  1  0  0  0  0 
 11  7  1  0  0  0  0 
 12  3  1  0  0  0  0 
 12 38  1  1  0  0  0 
 13 39  1  6  0  0  0 
 13  6  1  0  0  0  0 
 13  4  1  0  0  0  0 
 14  9  1  0  0  0  0 
 15  1  1  0  0  0  0 
 16  1  1  0  0  0  0 
 18  2  1  0  0  0  0 
 19  2  1  0  0  0  0 
 20  2  1  0  0  0  0 
 23  4  1  0  0  0  0 
 25  5  1  0  0  0  0 
 27  6  1  0  0  0  0 
 28  6  1  0  0  0  0 
 29  7  1  0  0  0  0 
 32  8  1  0  0  0  0 
 36 10  1  0  0  0  0 
M  END 
>  <HBA> 
1 
 
>  <HBD> 
0 
 
>  <TPSA> 
3.24 
 
>  <cid> 
57942 
 
>  <dipole> 
0.7 
 
>  <excitation_energy_1> 
4.402 
 
>  <excitation_energy_2> 
4.86 
 
>  <excitation_energy_3> 
4.968 
 
>  <excitation_energy_4> 
4.976 
 
>  <homo_energy> 
-5.059 
 
>  <homo_lumo_gap> 
6.748 
 
>  <logP> 
3.092 
 
>  <lumo_energy> 
1.69 
 
>  <melting_point> 
16.58 
 
>  <molecular_refractivity> 
67.19 
 
>  <oscillator_strength_1> 
0.0168 
 
>  <oscillator_strength_2> 
0.0083 
 
>  <oscillator_strength_3> 
0.0025 
 
>  <oscillator_strength_4> 
0.0082 
 
>  <open_babel_can_smiles> 
CC(CCN1C[C@@H]2CC[C@H](C1)CC2)C 
 
>  <mulliken_charges> 
39 
1   -0.442967 
2   -0.447766 
3   -0.270061 
4   -0.270812 
5   -0.267831 
6   -0.267395 
7   -0.250783 
8   -0.139741 
9   -0.13831 
10   -0.142916 
11   -0.056368 
12   -0.093001 
13   -0.090695 
14   -0.370029 
15   0.136624 
16   0.134597 
17   0.137408 
18   0.138631 
19   0.1391 
20   0.134336 
21   0.130288 
22   0.130043 
23   0.130227 
24   0.1281 
25   0.131477 
26   0.129969 
27   0.128976 
28   0.135293 
29   0.117647 
30   0.126778 
31   0.120596 
32   0.133824 
33   0.134256 
34   0.125933 
35   0.126574 
36   0.133036 
37   0.137716 
38   0.114418 
39   0.112826 
 
>  <lowdin_charges> 
39 
1   -0.44111 
2   -0.447405 
3   -0.287889 
4   -0.28554 
5   -0.2836 
6   -0.286043 
7   -0.28577 
8   -0.197133 
9   -0.204108 
10   -0.203998 
11   -0.123644 
12   -0.144089 
13   -0.149047 
14   -0.186001 
15   0.144876 
16   0.143094 
17   0.143874 
18   0.146775 
19   0.145096 
20   0.143614 
21   0.144024 
22   0.139767 
23   0.141544 
24   0.14071 
25   0.14115 
26   0.14377 
27   0.142876 
28   0.144916 
29   0.138201 
30   0.137304 
31   0.123431 
32   0.140666 
33   0.144145 
34   0.133479 
35   0.1344 
36   0.142194 
37   0.144348 
38   0.140905 
39   0.140218 
 
$$$$ 
 
