PCCDB-ID:  23435 
public computational chemistry database (PCCDB) project, http://pccdb.org 
 
 23 22  0  0  0  0  0  0  0  0999 V2000 
    0.8387   -0.1558    0.1519 C   0  0  0  0  0  0  0  0  0  0  0  0 
    2.9564   -0.3104    1.4965 C   0  0  0  0  0  0  0  0  0  0  0  0 
    2.3164    1.4818   -1.8211 C   0  0  0  0  0  0  0  0  0  0  0  0 
    3.0262    2.2860    0.3153 C   0  0  0  0  0  0  0  0  0  0  0  0 
    2.8899   -1.3115   -0.7886 C   0  0  0  0  0  0  0  0  0  0  0  0 
    2.3772   -0.1324    0.0811 C   0  0  0  0  0  0  0  0  0  0  0  0 
    2.9354    1.1094   -0.5467 N   0  0  0  0  0  0  0  0  0  0  0  0 
    4.2857   -1.2270   -0.9896 O   0  0  0  0  0  0  0  0  0  0  0  0 
    0.4961   -1.0755    0.6401 H   0  0  0  0  0  0  0  0  0  0  0  0 
    0.3786   -0.1190   -0.8411 H   0  0  0  0  0  0  0  0  0  0  0  0 
    0.4543    0.6890    0.7354 H   0  0  0  0  0  0  0  0  0  0  0  0 
    2.6623   -1.2921    1.8820 H   0  0  0  0  0  0  0  0  0  0  0  0 
    2.5835    0.4414    2.1985 H   0  0  0  0  0  0  0  0  0  0  0  0 
    4.0494   -0.2740    1.4774 H   0  0  0  0  0  0  0  0  0  0  0  0 
    2.9383    2.2416   -2.3070 H   0  0  0  0  0  0  0  0  0  0  0  0 
    1.3003    1.9000   -1.7138 H   0  0  0  0  0  0  0  0  0  0  0  0 
    2.2607    0.6222   -2.4929 H   0  0  0  0  0  0  0  0  0  0  0  0 
    3.4894    3.0981   -0.2554 H   0  0  0  0  0  0  0  0  0  0  0  0 
    3.6606    2.0915    1.1816 H   0  0  0  0  0  0  0  0  0  0  0  0 
    2.0462    2.6514    0.6737 H   0  0  0  0  0  0  0  0  0  0  0  0 
    2.3490   -1.3397   -1.7499 H   0  0  0  0  0  0  0  0  0  0  0  0 
    2.6789   -2.2592   -0.2801 H   0  0  0  0  0  0  0  0  0  0  0  0 
    4.4454   -0.2636   -1.0581 H   0  0  0  0  0  0  0  0  0  0  0  0 
  1  9  1  0  0  0  0 
  1 11  1  0  0  0  0 
  2 12  1  0  0  0  0 
  2 13  1  0  0  0  0 
  3 16  1  0  0  0  0 
  3  7  1  0  0  0  0 
  4 20  1  0  0  0  0 
  4 19  1  0  0  0  0 
  5 22  1  0  0  0  0 
  5  6  1  0  0  0  0 
  6  1  1  0  0  0  0 
  6  2  1  0  0  0  0 
  7  6  1  0  0  0  0 
  7  4  1  0  0  0  0 
  8  5  1  0  0  0  0 
 10  1  1  0  0  0  0 
 14  2  1  0  0  0  0 
 15  3  1  0  0  0  0 
 17  3  1  0  0  0  0 
 18  4  1  0  0  0  0 
 21  5  1  0  0  0  0 
 23  8  1  0  0  0  0 
M  END 
>  <HBA> 
2 
 
>  <HBD> 
1 
 
>  <TPSA> 
23.47 
 
>  <cid> 
23435 
 
>  <dipole> 
2.65 
 
>  <excitation_energy_1> 
5.446 
 
>  <excitation_energy_2> 
5.908 
 
>  <excitation_energy_3> 
5.979 
 
>  <excitation_energy_4> 
6.065 
 
>  <homo_energy> 
-6.0 
 
>  <homo_lumo_gap> 
7.935 
 
>  <logP> 
0.319 
 
>  <lumo_energy> 
1.935 
 
>  <melting_point> 
5.71 
 
>  <molecular_refractivity> 
35.05 
 
>  <oscillator_strength_1> 
0.0078 
 
>  <oscillator_strength_2> 
0.0112 
 
>  <oscillator_strength_3> 
0.0046 
 
>  <oscillator_strength_4> 
0.037 
 
>  <open_babel_can_smiles> 
OCC(N(C)C)(C)C 
 
>  <mulliken_charges> 
23 
1   -0.460526 
2   -0.462594 
3   -0.309795 
4   -0.299209 
5   -0.008246 
6   0.184718 
7   -0.42034 
8   -0.636878 
9   0.146545 
10   0.146198 
11   0.14713 
12   0.145702 
13   0.143788 
14   0.163855 
15   0.152103 
16   0.131321 
17   0.160998 
18   0.148756 
19   0.161583 
20   0.125055 
21   0.110132 
22   0.132478 
23   0.397225 
 
>  <lowdin_charges> 
23 
1   -0.457978 
2   -0.44721 
3   -0.363092 
4   -0.359988 
5   -0.141725 
6   0.050462 
7   -0.192756 
8   -0.475244 
9   0.155313 
10   0.150683 
11   0.152896 
12   0.154506 
13   0.150246 
14   0.158528 
15   0.152641 
16   0.127895 
17   0.155794 
18   0.152571 
19   0.157075 
20   0.124594 
21   0.119841 
22   0.14241 
23   0.332539 
 
$$$$ 
 
