PCCDB-ID:  10378 
public computational chemistry database (PCCDB) project, http://pccdb.org 
 
 19 19  0  0  0  0  0  0  0  0999 V2000 
   -1.7610   -0.8575    0.2733 C   0  0  0  0  0  0  0  0  0  0  0  0 
   -1.6891    0.4835   -0.1067 C   0  0  0  0  0  0  0  0  0  0  0  0 
   -0.5816   -1.5897    0.4249 C   0  0  0  0  0  0  0  0  0  0  0  0 
   -0.4617    1.1043   -0.3379 C   0  0  0  0  0  0  0  0  0  0  0  0 
    0.6519   -0.9866    0.1977 C   0  0  0  0  0  0  0  0  0  0  0  0 
    0.7192    0.3621   -0.1845 C   0  0  0  0  0  0  0  0  0  0  0  0 
    2.3391    2.1751   -0.7720 C   0  0  0  0  0  0  0  0  0  0  0  0 
    3.8741    2.2919   -0.8770 C   0  0  0  0  0  0  0  0  0  0  0  0 
    2.0003    0.9096   -0.3965 N   0  0  0  0  0  0  0  0  0  0  0  0 
    1.5950    3.1131   -1.0028 O   0  0  0  0  0  0  0  0  0  0  0  0 
    4.2579    3.5171   -1.2446 O   0  0  0  0  0  0  0  0  0  0  0  0 
    4.6348    1.3715   -0.6500 O   0  0  0  0  0  0  0  0  0  0  0  0 
   -2.7242   -1.3269    0.4509 H   0  0  0  0  0  0  0  0  0  0  0  0 
   -2.6007    1.0625   -0.2268 H   0  0  0  0  0  0  0  0  0  0  0  0 
   -0.6184   -2.6348    0.7197 H   0  0  0  0  0  0  0  0  0  0  0  0 
   -0.4062    2.1433   -0.6319 H   0  0  0  0  0  0  0  0  0  0  0  0 
    1.5692   -1.5597    0.3156 H   0  0  0  0  0  0  0  0  0  0  0  0 
    2.7952    0.2929   -0.2618 H   0  0  0  0  0  0  0  0  0  0  0  0 
    5.2331    3.5017   -1.2864 H   0  0  0  0  0  0  0  0  0  0  0  0 
  1  3  1  0  0  0  0 
  1 13  1  0  0  0  0 
  2  1  2  0  0  0  0 
  3 15  1  0  0  0  0 
  4  6  2  0  0  0  0 
  4  2  1  0  0  0  0 
  5 17  1  0  0  0  0 
  5  3  2  0  0  0  0 
  6  5  1  0  0  0  0 
  7  9  1  0  0  0  0 
  8  7  1  0  0  0  0 
  8 12  2  0  0  0  0 
  9 18  1  0  0  0  0 
  9  6  1  0  0  0  0 
 10  7  2  0  0  0  0 
 11  8  1  0  0  0  0 
 14  2  1  0  0  0  0 
 16  4  1  0  0  0  0 
 19 11  1  0  0  0  0 
M  END 
>  <HBA> 
4 
 
>  <HBD> 
2 
 
>  <TPSA> 
66.4 
 
>  <cid> 
10378 
 
>  <dipole> 
1.99 
 
>  <excitation_energy_1> 
3.885 
 
>  <excitation_energy_2> 
3.957 
 
>  <excitation_energy_3> 
4.436 
 
>  <excitation_energy_4> 
5.221 
 
>  <homo_energy> 
-6.221 
 
>  <homo_lumo_gap> 
4.446 
 
>  <logP> 
0.783 
 
>  <lumo_energy> 
-1.774 
 
>  <melting_point> 
135.75 
 
>  <molecular_refractivity> 
42.53 
 
>  <oscillator_strength_1> 
0.0001 
 
>  <oscillator_strength_2> 
0.2471 
 
>  <oscillator_strength_3> 
0.0032 
 
>  <oscillator_strength_4> 
0.033 
 
>  <open_babel_can_smiles> 
O=C(C(=O)O)Nc1ccccc1 
 
>  <mulliken_charges> 
19 
1   -0.124245 
2   -0.144818 
3   -0.134193 
4   -0.161721 
5   -0.191115 
6   0.359488 
7   0.569108 
8   0.534256 
9   -0.722616 
10   -0.486063 
11   -0.531396 
12   -0.473716 
13   0.13223 
14   0.137891 
15   0.135173 
16   0.187295 
17   0.131676 
18   0.362121 
19   0.420644 
 
>  <lowdin_charges> 
19 
1   -0.16461 
2   -0.145365 
3   -0.145777 
4   -0.175208 
5   -0.183405 
6   0.056697 
7   0.128268 
8   0.171323 
9   -0.212251 
10   -0.258188 
11   -0.30377 
12   -0.26643 
13   0.159878 
14   0.162358 
15   0.159594 
16   0.18623 
17   0.158094 
18   0.30424 
19   0.368321 
 
$$$$ 
 
