PCCDB-ID:  33943 
public computational chemistry database (PCCDB) project, http://pccdb.org 
 
 25 25  0  0  0  0  0  0  0  0999 V2000 
    0.6570   -0.1202    0.3823 C   0  0  0  0  0  0  0  0  0  0  0  0 
    2.1140    2.4137   -0.1118 C   0  0  0  0  0  0  0  0  0  0  0  0 
    2.8733   -1.3097    0.1703 C   0  0  0  0  0  0  0  0  0  0  0  0 
    4.2531   -1.3341   -0.0411 C   0  0  0  0  0  0  0  0  0  0  0  0 
    6.4597   -0.1476   -0.4414 C   0  0  0  0  0  0  0  0  0  0  0  0 
    7.1998   -0.0966    0.9100 C   0  0  0  0  0  0  0  0  0  0  0  0 
    4.2282    1.0521   -0.2847 C   0  0  0  0  0  0  0  0  0  0  0  0 
    2.1506   -0.1136    0.1567 C   0  0  0  0  0  0  0  0  0  0  0  0 
    2.8465    1.0930   -0.0777 C   0  0  0  0  0  0  0  0  0  0  0  0 
    4.9560   -0.1455   -0.2739 C   0  0  0  0  0  0  0  0  0  0  0  0 
    6.9194   -1.2149    1.7367 O   0  0  0  0  0  0  0  0  0  0  0  0 
    0.2871   -1.1379    0.5397 H   0  0  0  0  0  0  0  0  0  0  0  0 
    0.1138    0.3034   -0.4725 H   0  0  0  0  0  0  0  0  0  0  0  0 
    0.3752    0.4766    1.2598 H   0  0  0  0  0  0  0  0  0  0  0  0 
    2.8039    3.2440   -0.2901 H   0  0  0  0  0  0  0  0  0  0  0  0 
    1.5891    2.6120    0.8319 H   0  0  0  0  0  0  0  0  0  0  0  0 
    1.3537    2.4359   -0.9038 H   0  0  0  0  0  0  0  0  0  0  0  0 
    2.3440   -2.2444    0.3431 H   0  0  0  0  0  0  0  0  0  0  0  0 
    4.7838   -2.2833   -0.0418 H   0  0  0  0  0  0  0  0  0  0  0  0 
    6.7789   -1.0523   -0.9724 H   0  0  0  0  0  0  0  0  0  0  0  0 
    6.7756    0.7144   -1.0432 H   0  0  0  0  0  0  0  0  0  0  0  0 
    6.9605    0.8491    1.4235 H   0  0  0  0  0  0  0  0  0  0  0  0 
    8.2811   -0.1161    0.7389 H   0  0  0  0  0  0  0  0  0  0  0  0 
    4.7569    1.9868   -0.4662 H   0  0  0  0  0  0  0  0  0  0  0  0 
    5.9614   -1.2142    1.8975 H   0  0  0  0  0  0  0  0  0  0  0  0 
  1 12  1  0  0  0  0 
  1 14  1  0  0  0  0 
  2  9  1  0  0  0  0 
  2 16  1  0  0  0  0 
  3 18  1  0  0  0  0 
  4  3  2  0  0  0  0 
  5 10  1  0  0  0  0 
  5  6  1  0  0  0  0 
  6 22  1  0  0  0  0 
  6 11  1  0  0  0  0 
  7 10  2  0  0  0  0 
  7  9  1  0  0  0  0 
  8  3  1  0  0  0  0 
  8  1  1  0  0  0  0 
  9  8  2  0  0  0  0 
 10  4  1  0  0  0  0 
 11 25  1  0  0  0  0 
 13  1  1  0  0  0  0 
 15  2  1  0  0  0  0 
 17  2  1  0  0  0  0 
 19  4  1  0  0  0  0 
 20  5  1  0  0  0  0 
 21  5  1  0  0  0  0 
 23  6  1  0  0  0  0 
 24  7  1  0  0  0  0 
M  END 
>  <HBA> 
1 
 
>  <HBD> 
1 
 
>  <TPSA> 
20.23 
 
>  <cid> 
33943 
 
>  <dipole> 
2.31 
 
>  <excitation_energy_1> 
5.133 
 
>  <excitation_energy_2> 
5.641 
 
>  <excitation_energy_3> 
5.822 
 
>  <excitation_energy_4> 
6.111 
 
>  <homo_energy> 
-6.272 
 
>  <homo_lumo_gap> 
6.242 
 
>  <logP> 
1.838 
 
>  <lumo_energy> 
-0.03 
 
>  <melting_point> 
34.78 
 
>  <molecular_refractivity> 
47.31 
 
>  <oscillator_strength_1> 
0.0025 
 
>  <oscillator_strength_2> 
0.0693 
 
>  <oscillator_strength_3> 
0.0055 
 
>  <oscillator_strength_4> 
0.0105 
 
>  <open_babel_can_smiles> 
OCCc1ccc(c(c1)C)C 
 
>  <mulliken_charges> 
25 
1   -0.53232 
2   -0.533397 
3   -0.182856 
4   -0.20972 
5   -0.355564 
6   -0.023845 
7   -0.245617 
8   0.129807 
9   0.139135 
10   0.158238 
11   -0.619067 
12   0.155454 
13   0.15977 
14   0.159249 
15   0.155631 
16   0.159707 
17   0.160727 
18   0.122846 
19   0.135574 
20   0.152968 
21   0.138061 
22   0.121643 
23   0.144878 
24   0.115497 
25   0.393202 
 
>  <lowdin_charges> 
25 
1   -0.442342 
2   -0.442355 
3   -0.166571 
4   -0.185832 
5   -0.294 
6   -0.128943 
7   -0.178495 
8   -0.010299 
9   -0.005275 
10   -0.012595 
11   -0.467615 
12   0.156824 
13   0.159347 
14   0.158729 
15   0.157935 
16   0.158762 
17   0.159617 
18   0.154613 
19   0.159401 
20   0.155913 
21   0.152675 
22   0.125397 
23   0.144829 
24   0.151041 
25   0.339239 
 
$$$$ 
 
