PCCDB-ID:  20396 
public computational chemistry database (PCCDB) project, http://pccdb.org 
 
 31 32  0  0  1  0  0  0  0  0999 V2000 
    1.5825    0.3537    1.3153 C   0  0  0  0  0  0  0  0  0  0  0  0 
    1.1429    1.8925   -1.8832 C   0  0  0  0  0  0  0  0  0  0  0  0 
    5.1847   -0.3362    0.2896 C   0  0  0  0  0  0  0  0  0  0  0  0 
    5.4308    0.6423   -0.6703 C   0  0  0  0  0  0  0  0  0  0  0  0 
    3.9322   -0.3972    0.8985 C   0  0  0  0  0  0  0  0  0  0  0  0 
    4.4215    1.5455   -0.9980 C   0  0  0  0  0  0  0  0  0  0  0  0 
    4.0502    5.3305   -0.3354 C   0  0  0  0  0  0  0  0  0  0  0  0 
    2.0493    4.1072    0.7552 C   0  0  0  0  0  0  0  0  0  0  0  0 
    2.9019    0.5010    0.5842 C   0  0  0  0  0  0  0  0  0  0  0  0 
    2.6520    4.7511   -0.5011 C   0  0  2  0  0  0  0  0  0  0  0  0 
    3.1630    1.4986   -0.3844 C   0  0  0  0  0  0  0  0  0  0  0  0 
    2.0870    2.4998   -0.8506 C   0  0  2  0  0  0  0  0  0  0  0  0 
    4.5631    5.8122   -1.5655 O   0  0  0  0  0  0  0  0  0  0  0  0 
    1.3199    3.0028    0.2350 O   0  0  0  0  0  0  0  0  0  0  0  0 
    2.6988    3.6607   -1.4406 O   0  0  0  0  0  0  0  0  0  0  0  0 
    1.5495   -0.6084    1.8364 H   0  0  0  0  0  0  0  0  0  0  0  0 
    0.7184    0.4036    0.6467 H   0  0  0  0  0  0  0  0  0  0  0  0 
    1.4405    1.1456    2.0574 H   0  0  0  0  0  0  0  0  0  0  0  0 
    0.6630    0.9901   -1.4955 H   0  0  0  0  0  0  0  0  0  0  0  0 
    1.7083    1.6240   -2.7799 H   0  0  0  0  0  0  0  0  0  0  0  0 
    0.3738    2.6241   -2.1468 H   0  0  0  0  0  0  0  0  0  0  0  0 
    5.9570   -1.0510    0.5612 H   0  0  0  0  0  0  0  0  0  0  0  0 
    6.3976    0.7055   -1.1626 H   0  0  0  0  0  0  0  0  0  0  0  0 
    3.7407   -1.1651    1.6448 H   0  0  0  0  0  0  0  0  0  0  0  0 
    4.6046    2.3092   -1.7455 H   0  0  0  0  0  0  0  0  0  0  0  0 
    4.7070    4.5636    0.1047 H   0  0  0  0  0  0  0  0  0  0  0  0 
    4.0227    6.1880    0.3473 H   0  0  0  0  0  0  0  0  0  0  0  0 
    1.3490    4.7546    1.2878 H   0  0  0  0  0  0  0  0  0  0  0  0 
    2.8333    3.7697    1.4501 H   0  0  0  0  0  0  0  0  0  0  0  0 
    1.9871    5.5205   -0.9146 H   0  0  0  0  0  0  0  0  0  0  0  0 
    4.4716    5.0818   -2.1994 H   0  0  0  0  0  0  0  0  0  0  0  0 
  1 16  1  0  0  0  0 
  1 18  1  0  0  0  0 
  2 19  1  0  0  0  0 
  3 22  1  0  0  0  0 
  3  5  2  0  0  0  0 
  4  3  1  0  0  0  0 
  5 24  1  0  0  0  0 
  6  4  2  0  0  0  0 
  6 11  1  0  0  0  0 
  7 26  1  0  0  0  0 
  7 27  1  0  0  0  0 
  8 28  1  0  0  0  0 
  8 29  1  0  0  0  0 
  9  5  1  0  0  0  0 
  9  1  1  0  0  0  0 
 10 30  1  6  0  0  0 
 10  7  1  0  0  0  0 
 10  8  1  0  0  0  0 
 11  9  2  0  0  0  0 
 12  2  1  6  0  0  0 
 12 11  1  0  0  0  0 
 12 14  1  0  0  0  0 
 13  7  1  0  0  0  0 
 14  8  1  0  0  0  0 
 15 12  1  0  0  0  0 
 15 10  1  0  0  0  0 
 17  1  1  0  0  0  0 
 20  2  1  0  0  0  0 
 21  2  1  0  0  0  0 
 23  4  1  0  0  0  0 
 25  6  1  0  0  0  0 
 31 13  1  0  0  0  0 
M  END 
>  <HBA> 
3 
 
>  <HBD> 
1 
 
>  <TPSA> 
38.69 
 
>  <cid> 
20396 
 
>  <dipole> 
1.63 
 
>  <excitation_energy_1> 
5.223 
 
>  <excitation_energy_2> 
5.814 
 
>  <excitation_energy_3> 
5.932 
 
>  <excitation_energy_4> 
6.07 
 
>  <homo_energy> 
-6.512 
 
>  <homo_lumo_gap> 
6.365 
 
>  <logP> 
1.575 
 
>  <lumo_energy> 
-0.147 
 
>  <melting_point> 
39.58 
 
>  <molecular_refractivity> 
56.7 
 
>  <oscillator_strength_1> 
0.0029 
 
>  <oscillator_strength_2> 
0.0155 
 
>  <oscillator_strength_3> 
0.0081 
 
>  <oscillator_strength_4> 
0.0046 
 
>  <open_babel_can_smiles> 
OC[C@@H]1CO[C@](O1)(C)c1ccccc1C 
 
>  <mulliken_charges> 
31 
1   -0.51431 
2   -0.450563 
3   -0.119237 
4   -0.13524 
5   -0.190401 
6   -0.173007 
7   -0.036601 
8   -0.071104 
9   0.128358 
10   0.110666 
11   0.054456 
12   0.465889 
13   -0.621523 
14   -0.497057 
15   -0.549816 
16   0.144972 
17   0.161709 
18   0.170875 
19   0.157525 
20   0.161085 
21   0.160974 
22   0.128847 
23   0.128948 
24   0.122793 
25   0.134019 
26   0.13215 
27   0.142969 
28   0.1602 
29   0.143443 
30   0.145523 
31   0.403458 
 
>  <lowdin_charges> 
31 
1   -0.444121 
2   -0.446647 
3   -0.155877 
4   -0.162079 
5   -0.166977 
6   -0.16433 
7   -0.148207 
8   -0.150342 
9   0.001834 
10   -0.027883 
11   -0.047734 
12   0.222068 
13   -0.464142 
14   -0.247798 
15   -0.277849 
16   0.151218 
17   0.159723 
18   0.166498 
19   0.161211 
20   0.165677 
21   0.163789 
22   0.158619 
23   0.157105 
24   0.154732 
25   0.160505 
26   0.135748 
27   0.150118 
28   0.16166 
29   0.140356 
30   0.146746 
31   0.346379 
 
$$$$ 
 
