PCCDB-ID:  34916 
public computational chemistry database (PCCDB) project, http://pccdb.org 
 
 25 25  0  0  1  0  0  0  0  0999 V2000 
    1.0421   -0.0350    0.2386 C   0  0  0  0  0  0  0  0  0  0  0  0 
    3.1549    0.1514    1.6248 C   0  0  0  0  0  0  0  0  0  0  0  0 
    3.1499   -1.1687   -0.5619 C   0  0  0  0  0  0  0  0  0  0  0  0 
    2.5748    0.0484    0.2078 C   0  0  0  0  0  0  0  0  0  0  0  0 
    4.6429   -1.1263   -0.7636 C   0  0  2  0  0  0  0  0  0  0  0  0 
    6.8023   -1.8526   -0.3328 C   0  0  0  0  0  0  0  0  0  0  0  0 
    6.4710    0.0110   -1.9304 C   0  0  0  0  0  0  0  0  0  0  0  0 
    7.6698   -2.5985    0.2351 N   0  0  0  0  0  0  0  0  0  0  0  0 
    6.9864    0.8651   -2.7292 N   0  0  0  0  0  0  0  0  0  0  0  0 
    5.4161   -1.9386   -0.1245 N   0  0  0  0  0  0  0  0  0  0  0  0 
    5.1065   -0.1671   -1.6430 N   0  0  0  0  0  0  0  0  0  0  0  0 
    7.2548   -0.8750   -1.2288 N   0  0  0  0  0  0  0  0  0  0  0  0 
    0.6151    0.8307    0.7572 H   0  0  0  0  0  0  0  0  0  0  0  0 
    0.7110   -0.9371    0.7681 H   0  0  0  0  0  0  0  0  0  0  0  0 
    0.6180   -0.0653   -0.7722 H   0  0  0  0  0  0  0  0  0  0  0  0 
    2.7568    1.0320    2.1413 H   0  0  0  0  0  0  0  0  0  0  0  0 
    4.2468    0.2292    1.6161 H   0  0  0  0  0  0  0  0  0  0  0  0 
    2.8927   -0.7340    2.2169 H   0  0  0  0  0  0  0  0  0  0  0  0 
    2.6603   -1.2380   -1.5440 H   0  0  0  0  0  0  0  0  0  0  0  0 
    2.9280   -2.0905   -0.0169 H   0  0  0  0  0  0  0  0  0  0  0  0 
    2.8495    0.9633   -0.3401 H   0  0  0  0  0  0  0  0  0  0  0  0 
    7.1780   -3.2496    0.8493 H   0  0  0  0  0  0  0  0  0  0  0  0 
    6.2755    1.4481   -3.1714 H   0  0  0  0  0  0  0  0  0  0  0  0 
    4.4481    0.4309   -2.1219 H   0  0  0  0  0  0  0  0  0  0  0  0 
    8.2536   -0.8122   -1.3789 H   0  0  0  0  0  0  0  0  0  0  0  0 
  1 13  1  0  0  0  0 
  1 14  1  0  0  0  0 
  2 16  1  0  0  0  0 
  2 18  1  0  0  0  0 
  3 20  1  0  0  0  0 
  3  4  1  0  0  0  0 
  4  1  1  0  0  0  0 
  4  2  1  0  0  0  0 
  5  3  1  1  0  0  0 
  5 10  1  0  0  0  0 
  6 10  2  0  0  0  0 
  6  8  1  0  0  0  0 
  7 11  1  0  0  0  0 
  7 12  1  0  0  0  0 
  8 22  1  0  0  0  0 
  9  7  2  0  0  0  0 
 11  5  1  0  0  0  0 
 12  6  1  0  0  0  0 
 15  1  1  0  0  0  0 
 17  2  1  0  0  0  0 
 19  3  1  0  0  0  0 
 21  4  1  0  0  0  0 
 23  9  1  0  0  0  0 
 24 11  1  0  0  0  0 
 25 12  1  0  0  0  0 
M  RAD  2   5   2   8   2 
M  END 
>  <HBA> 
5 
 
>  <HBD> 
2 
 
>  <TPSA> 
90.71 
 
>  <cid> 
34916 
 
>  <dipole> 
5.88 
 
>  <excitation_energy_1> 
4.817 
 
>  <excitation_energy_2> 
5.129 
 
>  <excitation_energy_3> 
5.298 
 
>  <excitation_energy_4> 
5.346 
 
>  <homo_energy> 
-6.28 
 
>  <homo_lumo_gap> 
5.467 
 
>  <logP> 
1.397 
 
>  <lumo_energy> 
-0.814 
 
>  <melting_point> 
151.99 
 
>  <molecular_refractivity> 
48.02 
 
>  <oscillator_strength_1> 
0.0279 
 
>  <oscillator_strength_2> 
0.0792 
 
>  <oscillator_strength_3> 
0.0065 
 
>  <oscillator_strength_4> 
0.0014 
 
>  <open_babel_can_smiles> 
CC(C[C]1NC(=N)NC(=N1)[NH])C 
 
>  <mulliken_charges> 
25 
1   -0.441188 
2   -0.442671 
3   -0.345093 
4   -0.082572 
5   0.526243 
6   0.602556 
7   0.68947 
8   -0.647367 
9   -0.646474 
10   -0.506537 
11   -0.682765 
12   -0.643854 
13   0.15167 
14   0.150531 
15   0.141582 
16   0.147091 
17   0.161099 
18   0.152089 
19   0.149682 
20   0.181485 
21   0.118698 
22   0.295485 
23   0.274588 
24   0.337894 
25   0.358358 
 
>  <lowdin_charges> 
25 
1   -0.444111 
2   -0.444788 
3   -0.285239 
4   -0.117667 
5   0.124412 
6   0.117411 
7   0.139353 
8   -0.426801 
9   -0.457852 
10   -0.225462 
11   -0.255278 
12   -0.231827 
13   0.155537 
14   0.152354 
15   0.14775 
16   0.153303 
17   0.156064 
18   0.15408 
19   0.15539 
20   0.174981 
21   0.131615 
22   0.264881 
23   0.255061 
24   0.296642 
25   0.31019 
 
$$$$ 
 
