PCCDB-ID:  7336 
public computational chemistry database (PCCDB) project, http://pccdb.org 
 
 35 35  0  0  1  0  0  0  0  0999 V2000 
    5.3167   -1.9029    0.8123 C   0  0  0  0  0  0  0  0  0  0  0  0 
    7.1885    3.4414   -3.1378 C   0  0  0  0  0  0  0  0  0  0  0  0 
    6.2759    5.3627   -4.3953 C   0  0  0  0  0  0  0  0  0  0  0  0 
    3.0704    0.5120   -4.2827 C   0  0  0  0  0  0  0  0  0  0  0  0 
    4.3084   -1.1263   -0.0320 C   0  0  0  0  0  0  0  0  0  0  0  0 
    3.1348    3.0014   -4.0673 C   0  0  0  0  0  0  0  0  0  0  0  0 
    3.5657    4.3167   -3.4681 C   0  0  0  0  0  0  0  0  0  0  0  0 
    4.6720    2.9645   -1.6885 C   0  0  0  0  0  0  0  0  0  0  0  0 
    6.1508    4.2533   -3.3741 C   0  0  0  0  0  0  0  0  0  0  0  0 
    3.5196    1.7947   -3.6316 C   0  0  0  0  0  0  0  0  0  0  0  0 
    4.8376    4.1996   -2.5907 C   0  0  1  0  0  0  0  0  0  0  0  0 
    4.5045    1.6715   -2.4915 C   0  0  2  0  0  0  0  0  0  0  0  0 
    4.9564   -0.0606   -0.8972 C   0  0  0  0  0  0  0  0  0  0  0  0 
    6.1491    0.1561   -0.9611 O   0  0  0  0  0  0  0  0  0  0  0  0 
    4.0207    0.6200   -1.5970 O   0  0  0  0  0  0  0  0  0  0  0  0 
    4.8069   -2.6650    1.4108 H   0  0  0  0  0  0  0  0  0  0  0  0 
    5.8585   -1.2365    1.4901 H   0  0  0  0  0  0  0  0  0  0  0  0 
    6.0588   -2.3987    0.1796 H   0  0  0  0  0  0  0  0  0  0  0  0 
    8.1236    3.5649   -3.6790 H   0  0  0  0  0  0  0  0  0  0  0  0 
    7.1683    2.6361   -2.4104 H   0  0  0  0  0  0  0  0  0  0  0  0 
    7.3093    5.4646   -4.7397 H   0  0  0  0  0  0  0  0  0  0  0  0 
    5.9594    6.3290   -3.9788 H   0  0  0  0  0  0  0  0  0  0  0  0 
    5.6501    5.1804   -5.2784 H   0  0  0  0  0  0  0  0  0  0  0  0 
    2.4275    0.7108   -5.1457 H   0  0  0  0  0  0  0  0  0  0  0  0 
    2.5193   -0.1193   -3.5764 H   0  0  0  0  0  0  0  0  0  0  0  0 
    3.9311   -0.0783   -4.6273 H   0  0  0  0  0  0  0  0  0  0  0  0 
    3.5549   -0.6331    0.5954 H   0  0  0  0  0  0  0  0  0  0  0  0 
    3.7432   -1.7939   -0.6955 H   0  0  0  0  0  0  0  0  0  0  0  0 
    2.4491    3.0552   -4.9130 H   0  0  0  0  0  0  0  0  0  0  0  0 
    2.7470    4.7114   -2.8460 H   0  0  0  0  0  0  0  0  0  0  0  0 
    3.7016    5.0585   -4.2628 H   0  0  0  0  0  0  0  0  0  0  0  0 
    3.7657    3.0976   -1.0842 H   0  0  0  0  0  0  0  0  0  0  0  0 
    5.5095    2.8590   -0.9930 H   0  0  0  0  0  0  0  0  0  0  0  0 
    4.8500    5.0862   -1.9364 H   0  0  0  0  0  0  0  0  0  0  0  0 
    5.4678    1.3276   -2.8782 H   0  0  0  0  0  0  0  0  0  0  0  0 
  1 16  1  0  0  0  0 
  1 17  1  0  0  0  0 
  2 20  1  0  0  0  0 
  3 22  1  0  0  0  0 
  3  9  1  0  0  0  0 
  4 10  1  0  0  0  0 
  4 25  1  0  0  0  0 
  5 27  1  0  0  0  0 
  5  1  1  0  0  0  0 
  6 10  2  0  0  0  0 
  6  7  1  0  0  0  0 
  7 30  1  0  0  0  0 
  7 11  1  0  0  0  0 
  8 32  1  0  0  0  0 
  8 33  1  0  0  0  0 
  9  2  2  0  0  0  0 
  9 11  1  0  0  0  0 
 10 12  1  0  0  0  0 
 11 34  1  1  0  0  0 
 11  8  1  0  0  0  0 
 12 35  1  6  0  0  0 
 12  8  1  0  0  0  0 
 12 15  1  0  0  0  0 
 13  5  1  0  0  0  0 
 14 13  2  0  0  0  0 
 15 13  1  0  0  0  0 
 18  1  1  0  0  0  0 
 19  2  1  0  0  0  0 
 21  3  1  0  0  0  0 
 23  3  1  0  0  0  0 
 24  4  1  0  0  0  0 
 26  4  1  0  0  0  0 
 28  5  1  0  0  0  0 
 29  6  1  0  0  0  0 
 31  7  1  0  0  0  0 
M  END 
>  <HBA> 
2 
 
>  <HBD> 
0 
 
>  <TPSA> 
26.3 
 
>  <cid> 
7336 
 
>  <dipole> 
1.95 
 
>  <excitation_energy_1> 
5.703 
 
>  <excitation_energy_2> 
5.757 
 
>  <excitation_energy_3> 
5.872 
 
>  <excitation_energy_4> 
5.916 
 
>  <homo_energy> 
-6.4 
 
>  <homo_lumo_gap> 
6.86 
 
>  <logP> 
3.241 
 
>  <lumo_energy> 
0.46 
 
>  <melting_point> 
-0.16 
 
>  <molecular_refractivity> 
62.83 
 
>  <oscillator_strength_1> 
0.0021 
 
>  <oscillator_strength_2> 
0.0135 
 
>  <oscillator_strength_3> 
0.0198 
 
>  <oscillator_strength_4> 
0.0121 
 
>  <open_babel_can_smiles> 
CCC(=O)O[C@@H]1C[C@H](CC=C1C)C(=C)C 
 
>  <mulliken_charges> 
35 
1   -0.434732 
2   -0.424677 
3   -0.520681 
4   -0.514653 
5   -0.356885 
6   -0.171401 
7   -0.310362 
8   -0.313443 
9   0.238219 
10   0.173114 
11   -0.167174 
12   0.075834 
13   0.632595 
14   -0.480243 
15   -0.488367 
16   0.142137 
17   0.161021 
18   0.162757 
19   0.130186 
20   0.163598 
21   0.153962 
22   0.148597 
23   0.159535 
24   0.150102 
25   0.166645 
26   0.15268 
27   0.171629 
28   0.171359 
29   0.117502 
30   0.147471 
31   0.145273 
32   0.143665 
33   0.162606 
34   0.138334 
35   0.173797 
 
>  <lowdin_charges> 
35 
1   -0.44321 
2   -0.367466 
3   -0.442601 
4   -0.441915 
5   -0.302533 
6   -0.182065 
7   -0.280305 
8   -0.28666 
9   0.002388 
10   -0.022792 
11   -0.125097 
12   0.002972 
13   0.19583 
14   -0.27043 
15   -0.194201 
16   0.152723 
17   0.160099 
18   0.160913 
19   0.154036 
20   0.166837 
21   0.156896 
22   0.151884 
23   0.15733 
24   0.155699 
25   0.162854 
26   0.156373 
27   0.169509 
28   0.16953 
29   0.150677 
30   0.152751 
31   0.153127 
32   0.152388 
33   0.160102 
34   0.151624 
35   0.162733 
 
$$$$ 
 
