PCCDB-ID:  34370 
public computational chemistry database (PCCDB) project, http://pccdb.org 
 
 29 29  0  0  1  0  0  0  0  0999 V2000 
    2.4601   -0.6929   -0.1331 C   0  0  0  0  0  0  0  0  0  0  0  0 
    2.7790   -1.8542   -1.0820 C   0  0  0  0  0  0  0  0  0  0  0  0 
    3.9351   -1.5748   -2.0593 C   0  0  0  0  0  0  0  0  0  0  0  0 
    5.3122   -1.3253   -1.4146 C   0  0  0  0  0  0  0  0  0  0  0  0 
    5.8837   -2.4801   -0.5747 C   0  0  0  0  0  0  0  0  0  0  0  0 
    6.1944   -3.7404   -1.3904 C   0  0  0  0  0  0  0  0  0  0  0  0 
    7.6480   -6.0980    1.0376 C   0  0  0  0  0  0  0  0  0  0  0  0 
    7.4521   -7.0240   -0.1927 C   0  0  0  0  0  0  0  0  0  0  0  0 
    6.7959   -4.8588   -0.5825 C   0  0  3  0  0  0  0  0  0  0  0  0 
    7.0144   -4.8161    0.6809 N   0  0  0  0  0  0  0  0  0  0  0  0 
    7.2106   -6.0238   -1.2429 N   0  0  0  0  0  0  0  0  0  0  0  0 
    1.5884   -0.9226    0.4903 H   0  0  0  0  0  0  0  0  0  0  0  0 
    2.2366    0.2242   -0.6929 H   0  0  0  0  0  0  0  0  0  0  0  0 
    3.2957   -0.4737    0.5409 H   0  0  0  0  0  0  0  0  0  0  0  0 
    1.8817   -2.0905   -1.6700 H   0  0  0  0  0  0  0  0  0  0  0  0 
    2.9965   -2.7555   -0.4933 H   0  0  0  0  0  0  0  0  0  0  0  0 
    3.6758   -0.6952   -2.6661 H   0  0  0  0  0  0  0  0  0  0  0  0 
    4.0075   -2.4115   -2.7680 H   0  0  0  0  0  0  0  0  0  0  0  0 
    5.2569   -0.4313   -0.7800 H   0  0  0  0  0  0  0  0  0  0  0  0 
    6.0267   -1.0778   -2.2132 H   0  0  0  0  0  0  0  0  0  0  0  0 
    5.2013   -2.7416    0.2418 H   0  0  0  0  0  0  0  0  0  0  0  0 
    6.8066   -2.1484   -0.0862 H   0  0  0  0  0  0  0  0  0  0  0  0 
    6.8884   -3.5006   -2.2097 H   0  0  0  0  0  0  0  0  0  0  0  0 
    5.2843   -4.1195   -1.8791 H   0  0  0  0  0  0  0  0  0  0  0  0 
    8.7152   -5.9243    1.2345 H   0  0  0  0  0  0  0  0  0  0  0  0 
    7.2095   -6.5080    1.9532 H   0  0  0  0  0  0  0  0  0  0  0  0 
    6.5859   -7.6907   -0.0623 H   0  0  0  0  0  0  0  0  0  0  0  0 
    8.3291   -7.6390   -0.4171 H   0  0  0  0  0  0  0  0  0  0  0  0 
    6.6698   -6.3143   -2.0498 H   0  0  0  0  0  0  0  0  0  0  0  0 
  1 12  1  0  0  0  0 
  1 14  1  0  0  0  0 
  2 16  1  0  0  0  0 
  2  1  1  0  0  0  0 
  3  4  1  0  0  0  0 
  3  2  1  0  0  0  0 
  4 19  1  0  0  0  0 
  4  5  1  0  0  0  0 
  5 22  1  0  0  0  0 
  5 21  1  0  0  0  0 
  6  9  1  0  0  0  0 
  6  5  1  0  0  0  0 
  7 25  1  0  0  0  0 
  7 26  1  0  0  0  0 
  8 27  1  0  0  0  0 
  8  7  1  0  0  0  0 
  9 10  1  0  0  0  0 
 10  7  1  0  0  0  0 
 11  9  1  0  0  0  0 
 11  8  1  0  0  0  0 
 13  1  1  0  0  0  0 
 15  2  1  0  0  0  0 
 17  3  1  0  0  0  0 
 18  3  1  0  0  0  0 
 20  4  1  0  0  0  0 
 23  6  1  0  0  0  0 
 24  6  1  0  0  0  0 
 28  8  1  0  0  0  0 
 29 11  1  0  0  0  0 
M  RAD  2   9   2  10   2 
M  END 
>  <HBA> 
2 
 
>  <HBD> 
1 
 
>  <TPSA> 
24.39 
 
>  <cid> 
34370 
 
>  <dipole> 
2.47 
 
>  <excitation_energy_1> 
5.066 
 
>  <excitation_energy_2> 
5.734 
 
>  <excitation_energy_3> 
5.846 
 
>  <excitation_energy_4> 
6.042 
 
>  <homo_energy> 
-5.788 
 
>  <homo_lumo_gap> 
6.811 
 
>  <logP> 
1.723 
 
>  <lumo_energy> 
1.023 
 
>  <melting_point> 
39.07 
 
>  <molecular_refractivity> 
56.99 
 
>  <oscillator_strength_1> 
0.0018 
 
>  <oscillator_strength_2> 
0.0032 
 
>  <oscillator_strength_3> 
0.0067 
 
>  <oscillator_strength_4> 
0.0324 
 
>  <open_babel_can_smiles> 
CCCCCC[C]1[N]CCN1 
 
>  <mulliken_charges> 
29 
1   -0.443494 
2   -0.250957 
3   -0.255203 
4   -0.264474 
5   -0.248284 
6   -0.348221 
7   -0.156455 
8   -0.148381 
9   0.490615 
10   -0.475217 
11   -0.60475 
12   0.141721 
13   0.13959 
14   0.149432 
15   0.128762 
16   0.135828 
17   0.127047 
18   0.124839 
19   0.134902 
20   0.12431 
21   0.15417 
22   0.151793 
23   0.157765 
24   0.145985 
25   0.149178 
26   0.145685 
27   0.136375 
28   0.14884 
29   0.3086 
 
>  <lowdin_charges> 
29 
1   -0.448513 
2   -0.277295 
3   -0.280999 
4   -0.281639 
5   -0.272398 
6   -0.286164 
7   -0.207655 
8   -0.213701 
9   0.081798 
10   -0.24351 
11   -0.324736 
12   0.15025 
13   0.145571 
14   0.1494 
15   0.14152 
16   0.140581 
17   0.140872 
18   0.137026 
19   0.144051 
20   0.139867 
21   0.152828 
22   0.155851 
23   0.158427 
24   0.151359 
25   0.144264 
26   0.148976 
27   0.133794 
28   0.149554 
29   0.270618 
 
$$$$ 
 
