PCCDB-ID:  20546 
public computational chemistry database (PCCDB) project, http://pccdb.org 
 
 30 30  0  0  1  0  0  0  0  0999 V2000 
    2.6056   -0.4337   -2.8244 C   0  0  0  0  0  0  0  0  0  0  0  0 
    6.6045   -1.2309    0.9862 C   0  0  0  0  0  0  0  0  0  0  0  0 
    2.2485   -1.5343   -1.8182 C   0  0  0  0  0  0  0  0  0  0  0  0 
    5.0755   -1.3026    0.9353 C   0  0  0  0  0  0  0  0  0  0  0  0 
    5.8119   -5.3415   -2.1453 C   0  0  0  0  0  0  0  0  0  0  0  0 
    5.0071   -5.3150   -1.0040 C   0  0  0  0  0  0  0  0  0  0  0  0 
    6.1884   -4.1398   -2.7446 C   0  0  0  0  0  0  0  0  0  0  0  0 
    2.9548   -1.4072   -0.4584 C   0  0  0  0  0  0  0  0  0  0  0  0 
    4.5837   -4.0979   -0.4707 C   0  0  0  0  0  0  0  0  0  0  0  0 
    5.7612   -2.9243   -2.2054 C   0  0  0  0  0  0  0  0  0  0  0  0 
    4.4966   -1.5463   -0.4794 C   0  0  2  0  0  0  0  0  0  0  0  0 
    4.9526   -2.8788   -1.0618 C   0  0  0  0  0  0  0  0  0  0  0  0 
    2.0142   -0.5341   -3.7416 H   0  0  0  0  0  0  0  0  0  0  0  0 
    3.6622   -0.4711   -3.1122 H   0  0  0  0  0  0  0  0  0  0  0  0 
    2.4091    0.5630   -2.4089 H   0  0  0  0  0  0  0  0  0  0  0  0 
    6.9545   -1.0527    2.0094 H   0  0  0  0  0  0  0  0  0  0  0  0 
    6.9831   -0.4140    0.3591 H   0  0  0  0  0  0  0  0  0  0  0  0 
    7.0615   -2.1607    0.6313 H   0  0  0  0  0  0  0  0  0  0  0  0 
    2.4705   -2.5159   -2.2556 H   0  0  0  0  0  0  0  0  0  0  0  0 
    1.1645   -1.5163   -1.6424 H   0  0  0  0  0  0  0  0  0  0  0  0 
    4.6556   -0.3631    1.3204 H   0  0  0  0  0  0  0  0  0  0  0  0 
    4.7213   -2.0934    1.6111 H   0  0  0  0  0  0  0  0  0  0  0  0 
    6.1414   -6.2897   -2.5618 H   0  0  0  0  0  0  0  0  0  0  0  0 
    4.7080   -6.2452   -0.5274 H   0  0  0  0  0  0  0  0  0  0  0  0 
    6.8152   -4.1454   -3.6328 H   0  0  0  0  0  0  0  0  0  0  0  0 
    2.5409   -2.1601    0.2270 H   0  0  0  0  0  0  0  0  0  0  0  0 
    2.7081   -0.4301   -0.0179 H   0  0  0  0  0  0  0  0  0  0  0  0 
    3.9587   -4.0979    0.4191 H   0  0  0  0  0  0  0  0  0  0  0  0 
    6.0632   -1.9924   -2.6789 H   0  0  0  0  0  0  0  0  0  0  0  0 
    4.8978   -0.7548   -1.1280 H   0  0  0  0  0  0  0  0  0  0  0  0 
  1 15  1  0  0  0  0 
  1  3  1  0  0  0  0 
  2 16  1  0  0  0  0 
  3 20  1  0  0  0  0 
  3  8  1  0  0  0  0 
  4  2  1  0  0  0  0 
  4 21  1  0  0  0  0 
  4 22  1  0  0  0  0 
  5  6  2  0  0  0  0 
  6 24  1  0  0  0  0 
  6  9  1  0  0  0  0 
  7 10  2  0  0  0  0 
  7  5  1  0  0  0  0 
  8 27  1  0  0  0  0 
  8 26  1  0  0  0  0 
  9 28  1  0  0  0  0 
 10 12  1  0  0  0  0 
 11 30  1  6  0  0  0 
 11  8  1  0  0  0  0 
 11  4  1  0  0  0  0 
 12 11  1  0  0  0  0 
 12  9  2  0  0  0  0 
 13  1  1  0  0  0  0 
 14  1  1  0  0  0  0 
 17  2  1  0  0  0  0 
 18  2  1  0  0  0  0 
 19  3  1  0  0  0  0 
 23  5  1  0  0  0  0 
 25  7  1  0  0  0  0 
 29 10  1  0  0  0  0 
M  END 
>  <HBA> 
0 
 
>  <HBD> 
0 
 
>  <TPSA> 
0.0 
 
>  <cid> 
20546 
 
>  <dipole> 
0.16 
 
>  <excitation_energy_1> 
5.294 
 
>  <excitation_energy_2> 
5.894 
 
>  <excitation_energy_3> 
5.976 
 
>  <excitation_energy_4> 
6.199 
 
>  <homo_energy> 
-6.419 
 
>  <homo_lumo_gap> 
6.482 
 
>  <logP> 
3.98 
 
>  <lumo_energy> 
0.063 
 
>  <melting_point> 
3.83 
 
>  <molecular_refractivity> 
55.44 
 
>  <oscillator_strength_1> 
0.0013 
 
>  <oscillator_strength_2> 
0.0297 
 
>  <oscillator_strength_3> 
0.0006 
 
>  <oscillator_strength_4> 
0.0002 
 
>  <open_babel_can_smiles> 
CCC[C@H](c1ccccc1)CC 
 
>  <mulliken_charges> 
30 
1   -0.444087 
2   -0.447556 
3   -0.252709 
4   -0.250122 
5   -0.132261 
6   -0.12945 
7   -0.125576 
8   -0.256269 
9   -0.186823 
10   -0.195841 
11   -0.165784 
12   0.1822 
13   0.142427 
14   0.144503 
15   0.138099 
16   0.140627 
17   0.137942 
18   0.157029 
19   0.145839 
20   0.128952 
21   0.129914 
22   0.131095 
23   0.126676 
24   0.12699 
25   0.127053 
26   0.127653 
27   0.126153 
28   0.12608 
29   0.122973 
30   0.124272 
 
>  <lowdin_charges> 
30 
1   -0.445436 
2   -0.448346 
3   -0.27437 
4   -0.271078 
5   -0.1631 
6   -0.155818 
7   -0.154946 
8   -0.275239 
9   -0.167238 
10   -0.172303 
11   -0.128909 
12   0.001736 
13   0.150329 
14   0.144634 
15   0.14371 
16   0.148576 
17   0.145707 
18   0.154932 
19   0.147177 
20   0.139733 
21   0.141004 
22   0.140509 
23   0.156458 
24   0.156398 
25   0.156323 
26   0.141432 
27   0.139125 
28   0.153955 
29   0.153544 
30   0.1415 
 
$$$$ 
 
