PCCDB-ID:  14072 
public computational chemistry database (PCCDB) project, http://pccdb.org 
 
 10 10  0  0  1  0  0  0  0  0999 V2000 
    0.9045   -0.0761    0.0733 C   0  0  0  0  0  0  0  0  0  0  0  0 
    3.2093   -0.9118    0.9467 C   0  0  0  0  0  0  0  0  0  0  0  0 
    2.4157   -0.0518    0.0375 C   0  0  2  0  0  0  0  0  0  0  0  0 
    3.3223    0.8782    1.3558 S   0  0  0  0  0  0  0  0  0  0  0  0 
    0.5272   -0.8941   -0.5552 H   0  0  0  0  0  0  0  0  0  0  0  0 
    0.4849    0.8617   -0.3048 H   0  0  0  0  0  0  0  0  0  0  0  0 
    0.5398   -0.2251    1.0944 H   0  0  0  0  0  0  0  0  0  0  0  0 
    4.1271   -1.3627    0.5765 H   0  0  0  0  0  0  0  0  0  0  0  0 
    2.6715   -1.5159    1.6747 H   0  0  0  0  0  0  0  0  0  0  0  0 
    2.8459    0.1133   -0.9494 H   0  0  0  0  0  0  0  0  0  0  0  0 
  1  7  1  0  0  0  0 
  2  4  1  0  0  0  0 
  2  9  1  0  0  0  0 
  3 10  1  6  0  0  0 
  3  1  1  0  0  0  0 
  3  2  1  0  0  0  0 
  3  4  1  0  0  0  0 
  5  1  1  0  0  0  0 
  6  1  1  0  0  0  0 
  8  2  1  0  0  0  0 
M  END 
>  <HBA> 
1 
 
>  <HBD> 
0 
 
>  <TPSA> 
25.3 
 
>  <cid> 
14072 
 
>  <dipole> 
2.31 
 
>  <excitation_energy_1> 
4.657 
 
>  <excitation_energy_2> 
5.485 
 
>  <excitation_energy_3> 
5.774 
 
>  <excitation_energy_4> 
6.225 
 
>  <homo_energy> 
-6.052 
 
>  <homo_lumo_gap> 
6.343 
 
>  <logP> 
1.122 
 
>  <lumo_energy> 
0.291 
 
>  <melting_point> 
6.98 
 
>  <molecular_refractivity> 
22.01 
 
>  <oscillator_strength_1> 
0.0001 
 
>  <oscillator_strength_2> 
0.0083 
 
>  <oscillator_strength_3> 
0.0376 
 
>  <oscillator_strength_4> 
0.0126 
 
>  <open_babel_can_smiles> 
C[C@@H]1CS1 
 
>  <mulliken_charges> 
10 
1   -0.438233 
2   -0.377477 
3   -0.184626 
4   -0.033858 
5   0.153766 
6   0.164216 
7   0.165154 
8   0.186519 
9   0.184637 
10   0.179901 
 
>  <lowdin_charges> 
10 
1   -0.438045 
2   -0.355006 
3   -0.189731 
4   -0.011272 
5   0.157136 
6   0.162008 
7   0.162543 
8   0.173078 
9   0.171995 
10   0.167295 
 
$$$$ 
 
