PCCDB-ID:  62475 
public computational chemistry database (PCCDB) project, http://pccdb.org 
 
 21 22  0  0  1  0  0  0  0  0999 V2000 
   -1.4131   -0.4514   -0.3833 C   0  0  0  0  0  0  0  0  0  0  0  0 
   -0.6181   -1.4406    0.0476 C   0  0  0  0  0  0  0  0  0  0  0  0 
    2.3527    2.2217    0.5030 C   0  0  0  0  0  0  0  0  0  0  0  0 
   -1.0165    1.0123   -0.4110 C   0  0  0  0  0  0  0  0  0  0  0  0 
    0.8139   -1.2441    0.5072 C   0  0  0  0  0  0  0  0  0  0  0  0 
    1.0465    2.4865    0.3791 C   0  0  0  0  0  0  0  0  0  0  0  0 
    2.6144    0.7296    0.6256 C   0  0  0  0  0  0  0  0  0  0  0  0 
    0.2355    1.2101    0.4469 C   0  0  2  0  0  0  0  0  0  0  0  0 
    1.2928    0.1432    0.0870 C   0  0  2  0  0  0  0  0  0  0  0  0 
   -2.4188   -0.6934   -0.7253 H   0  0  0  0  0  0  0  0  0  0  0  0 
   -1.0022   -2.4601    0.0587 H   0  0  0  0  0  0  0  0  0  0  0  0 
    3.1426    2.9666    0.5542 H   0  0  0  0  0  0  0  0  0  0  0  0 
   -1.8502    1.6286   -0.0459 H   0  0  0  0  0  0  0  0  0  0  0  0 
   -0.8327    1.3369   -1.4477 H   0  0  0  0  0  0  0  0  0  0  0  0 
    1.4504   -2.0316    0.0790 H   0  0  0  0  0  0  0  0  0  0  0  0 
    0.8808   -1.3663    1.6005 H   0  0  0  0  0  0  0  0  0  0  0  0 
    0.6078    3.4795    0.3194 H   0  0  0  0  0  0  0  0  0  0  0  0 
    2.7820    0.4519    1.6797 H   0  0  0  0  0  0  0  0  0  0  0  0 
    3.4965    0.3920    0.0674 H   0  0  0  0  0  0  0  0  0  0  0  0 
   -0.0730    1.0535    1.4970 H   0  0  0  0  0  0  0  0  0  0  0  0 
    1.3696    0.1499   -1.0111 H   0  0  0  0  0  0  0  0  0  0  0  0 
  1  2  2  0  0  0  0 
  2 11  1  0  0  0  0 
  2  5  1  0  0  0  0 
  3 12  1  0  0  0  0 
  3  7  1  0  0  0  0 
  4  1  1  0  0  0  0 
  4 13  1  0  0  0  0 
  4  8  1  0  0  0  0 
  5 16  1  0  0  0  0 
  6  8  1  0  0  0  0 
  6  3  2  0  0  0  0 
  7 18  1  0  0  0  0 
  8 20  1  1  0  0  0 
  9 21  1  6  0  0  0 
  9  8  1  0  0  0  0 
  9  5  1  0  0  0  0 
  9  7  1  0  0  0  0 
 10  1  1  0  0  0  0 
 14  4  1  0  0  0  0 
 15  5  1  0  0  0  0 
 17  6  1  0  0  0  0 
 19  7  1  0  0  0  0 
M  END 
>  <HBA> 
0 
 
>  <HBD> 
0 
 
>  <TPSA> 
0.0 
 
>  <cid> 
62475 
 
>  <dipole> 
0.13 
 
>  <excitation_energy_1> 
5.917 
 
>  <excitation_energy_2> 
5.983 
 
>  <excitation_energy_3> 
6.209 
 
>  <excitation_energy_4> 
6.304 
 
>  <homo_energy> 
-6.354 
 
>  <homo_lumo_gap> 
7.061 
 
>  <logP> 
2.529 
 
>  <lumo_energy> 
0.708 
 
>  <melting_point> 
36.18 
 
>  <molecular_refractivity> 
40.2 
 
>  <oscillator_strength_1> 
0.0042 
 
>  <oscillator_strength_2> 
0.0181 
 
>  <oscillator_strength_3> 
0.011 
 
>  <oscillator_strength_4> 
0.0016 
 
>  <open_babel_can_smiles> 
C1=CC[C@H]2[C@H](C1)C=CC2 
 
>  <mulliken_charges> 
21 
1   -0.109626 
2   -0.10972 
3   -0.121673 
4   -0.302175 
5   -0.302787 
6   -0.106974 
7   -0.30866 
8   -0.124131 
9   -0.098615 
10   0.118549 
11   0.118221 
12   0.122791 
13   0.137067 
14   0.144952 
15   0.138253 
16   0.140299 
17   0.120377 
18   0.138563 
19   0.137707 
20   0.13426 
21   0.133323 
 
>  <lowdin_charges> 
21 
1   -0.173576 
2   -0.173094 
3   -0.170029 
4   -0.277057 
5   -0.277059 
6   -0.174609 
7   -0.278772 
8   -0.124816 
9   -0.117915 
10   0.149724 
11   0.149504 
12   0.153136 
13   0.148685 
14   0.14767 
15   0.149374 
16   0.144631 
17   0.152334 
18   0.144041 
19   0.146974 
20   0.140584 
21   0.140272 
 
$$$$ 
 
