PCCDB-ID:  44908 
public computational chemistry database (PCCDB) project, http://pccdb.org 
 
 36 35  0  0  1  0  0  0  0  0999 V2000 
    4.8514   -0.6122   -3.3537 C   0  0  0  0  0  0  0  0  0  0  0  0 
    4.3361    8.4400   -2.1581 C   0  0  0  0  0  0  0  0  0  0  0  0 
    2.7409    3.2334   -1.9014 C   0  0  0  0  0  0  0  0  0  0  0  0 
    3.2626    4.2311   -2.9443 C   0  0  0  0  0  0  0  0  0  0  0  0 
    3.1773    1.7763   -2.1300 C   0  0  0  0  0  0  0  0  0  0  0  0 
    2.7303    5.6578   -2.7264 C   0  0  0  0  0  0  0  0  0  0  0  0 
    4.6877    1.5397   -1.9847 C   0  0  0  0  0  0  0  0  0  0  0  0 
    3.2810    6.7034   -3.7226 C   0  0  0  0  0  0  0  0  0  0  0  0 
    5.1101    0.0612   -2.0031 C   0  0  2  0  0  0  0  0  0  0  0  0 
    4.5706    7.4448   -3.3094 C   0  0  2  0  0  0  0  0  0  0  0  0 
    6.5540   -0.0093   -1.7220 N   0  0  0  0  0  0  0  0  0  0  0  0 
    5.6639    6.4893   -3.0525 N   0  0  0  0  0  0  0  0  0  0  0  0 
    3.7844   -0.6265   -3.5981 H   0  0  0  0  0  0  0  0  0  0  0  0 
    5.2000   -1.6527   -3.3428 H   0  0  0  0  0  0  0  0  0  0  0  0 
    5.3896   -0.0850   -4.1494 H   0  0  0  0  0  0  0  0  0  0  0  0 
    3.5689    9.1813   -2.4147 H   0  0  0  0  0  0  0  0  0  0  0  0 
    5.2602    8.9827   -1.9236 H   0  0  0  0  0  0  0  0  0  0  0  0 
    4.0124    7.9281   -1.2431 H   0  0  0  0  0  0  0  0  0  0  0  0 
    1.6419    3.2734   -1.8915 H   0  0  0  0  0  0  0  0  0  0  0  0 
    3.0625    3.5532   -0.8981 H   0  0  0  0  0  0  0  0  0  0  0  0 
    2.9606    3.8943   -3.9476 H   0  0  0  0  0  0  0  0  0  0  0  0 
    4.3579    4.2416   -2.9549 H   0  0  0  0  0  0  0  0  0  0  0  0 
    2.8427    1.4593   -3.1276 H   0  0  0  0  0  0  0  0  0  0  0  0 
    2.6461    1.1344   -1.4121 H   0  0  0  0  0  0  0  0  0  0  0  0 
    2.9328    5.9724   -1.6917 H   0  0  0  0  0  0  0  0  0  0  0  0 
    1.6349    5.6306   -2.8080 H   0  0  0  0  0  0  0  0  0  0  0  0 
    5.0189    1.9792   -1.0301 H   0  0  0  0  0  0  0  0  0  0  0  0 
    5.2448    2.0629   -2.7717 H   0  0  0  0  0  0  0  0  0  0  0  0 
    2.5141    7.4679   -3.9056 H   0  0  0  0  0  0  0  0  0  0  0  0 
    3.4651    6.2109   -4.6857 H   0  0  0  0  0  0  0  0  0  0  0  0 
    4.5064   -0.4682   -1.2396 H   0  0  0  0  0  0  0  0  0  0  0  0 
    4.8842    8.0268   -4.1870 H   0  0  0  0  0  0  0  0  0  0  0  0 
    6.7416    0.3827   -0.7992 H   0  0  0  0  0  0  0  0  0  0  0  0 
    6.8460   -0.9853   -1.6772 H   0  0  0  0  0  0  0  0  0  0  0  0 
    5.4954    6.0165   -2.1641 H   0  0  0  0  0  0  0  0  0  0  0  0 
    6.5344    7.0049   -2.9213 H   0  0  0  0  0  0  0  0  0  0  0  0 
  1 14  1  0  0  0  0 
  1  9  1  0  0  0  0 
  2 17  1  0  0  0  0 
  2 18  1  0  0  0  0 
  3 19  1  0  0  0  0 
  3 20  1  0  0  0  0 
  4  6  1  0  0  0  0 
  4  3  1  0  0  0  0 
  5  7  1  0  0  0  0 
  5  3  1  0  0  0  0 
  5 24  1  0  0  0  0 
  6 25  1  0  0  0  0 
  7 27  1  0  0  0  0 
  8 10  1  0  0  0  0 
  8  6  1  0  0  0  0 
  9  7  1  0  0  0  0 
  9 11  1  0  0  0  0 
  9 31  1  1  0  0  0 
 10 32  1  6  0  0  0 
 10 12  1  0  0  0  0 
 10  2  1  0  0  0  0 
 11 34  1  0  0  0  0 
 11 33  1  0  0  0  0 
 12 36  1  0  0  0  0 
 12 35  1  0  0  0  0 
 13  1  1  0  0  0  0 
 15  1  1  0  0  0  0 
 16  2  1  0  0  0  0 
 21  4  1  0  0  0  0 
 22  4  1  0  0  0  0 
 23  5  1  0  0  0  0 
 26  6  1  0  0  0  0 
 28  7  1  0  0  0  0 
 29  8  1  0  0  0  0 
 30  8  1  0  0  0  0 
M  END 
>  <HBA> 
2 
 
>  <HBD> 
2 
 
>  <TPSA> 
52.04 
 
>  <cid> 
44908 
 
>  <dipole> 
1.91 
 
>  <excitation_energy_1> 
5.573 
 
>  <excitation_energy_2> 
5.618 
 
>  <excitation_energy_3> 
6.147 
 
>  <excitation_energy_4> 
6.157 
 
>  <homo_energy> 
-6.174 
 
>  <homo_lumo_gap> 
8.082 
 
>  <logP> 
3.422 
 
>  <lumo_energy> 
1.908 
 
>  <melting_point> 
79.28 
 
>  <molecular_refractivity> 
55.6 
 
>  <oscillator_strength_1> 
0.011 
 
>  <oscillator_strength_2> 
0.0364 
 
>  <oscillator_strength_3> 
0.0026 
 
>  <oscillator_strength_4> 
0.0019 
 
>  <open_babel_can_smiles> 
C[C@H](CCCCCC[C@H](N)C)N 
 
>  <mulliken_charges> 
36 
1   -0.441658 
2   -0.450625 
3   -0.255358 
4   -0.266014 
5   -0.262375 
6   -0.271557 
7   -0.248374 
8   -0.242732 
9   0.04116 
10   0.019785 
11   -0.720227 
12   -0.704504 
13   0.143723 
14   0.131638 
15   0.156055 
16   0.139943 
17   0.133835 
18   0.139719 
19   0.123927 
20   0.119672 
21   0.126627 
22   0.161161 
23   0.132985 
24   0.123589 
25   0.122946 
26   0.129691 
27   0.112483 
28   0.153258 
29   0.122923 
30   0.140929 
31   0.098282 
32   0.128223 
33   0.288407 
34   0.2889 
35   0.291362 
36   0.292202 
 
>  <lowdin_charges> 
36 
1   -0.447307 
2   -0.466159 
3   -0.271903 
4   -0.280411 
5   -0.278044 
6   -0.277802 
7   -0.282149 
8   -0.28074 
9   -0.061723 
10   -0.066447 
11   -0.555073 
12   -0.550595 
13   0.148627 
14   0.143487 
15   0.156354 
16   0.149519 
17   0.144928 
18   0.144608 
19   0.135858 
20   0.132461 
21   0.137054 
22   0.148944 
23   0.139551 
24   0.139422 
25   0.132635 
26   0.13925 
27   0.133136 
28   0.152136 
29   0.141855 
30   0.148699 
31   0.112101 
32   0.13994 
33   0.248298 
34   0.248721 
35   0.248504 
36   0.252265 
 
$$$$ 
 
