PCCDB-ID:  39036 
public computational chemistry database (PCCDB) project, http://pccdb.org 
 
 27 28  0  0  1  0  0  0  0  0999 V2000 
    0.8391   -0.0132   -0.2052 C   0  0  0  0  0  0  0  0  0  0  0  0 
    2.9738    1.2498   -0.8153 C   0  0  0  0  0  0  0  0  0  0  0  0 
    2.3641    0.0387   -0.0815 C   0  0  2  0  0  0  0  0  0  0  0  0 
    4.4893    1.2730   -0.8189 C   0  0  0  0  0  0  0  0  0  0  0  0 
    5.1760   -0.0081   -0.8845 C   0  0  0  0  0  0  0  0  0  0  0  0 
    4.4462   -1.2403   -0.8350 C   0  0  0  0  0  0  0  0  0  0  0  0 
    3.0246   -1.2691   -0.5122 C   0  0  0  0  0  0  0  0  0  0  0  0 
    6.5610   -0.0390   -1.0825 C   0  0  0  0  0  0  0  0  0  0  0  0 
    5.1355   -2.4449   -1.0197 C   0  0  0  0  0  0  0  0  0  0  0  0 
    7.2470   -1.2658   -1.2538 C   0  0  0  0  0  0  0  0  0  0  0  0 
    6.5363   -2.4617   -1.2310 C   0  0  0  0  0  0  0  0  0  0  0  0 
    5.1052    2.3531   -0.8252 O   0  0  0  0  0  0  0  0  0  0  0  0 
    2.3782   -2.3314   -0.5175 O   0  0  0  0  0  0  0  0  0  0  0  0 
    7.3336    1.0661   -1.1458 O   0  0  0  0  0  0  0  0  0  0  0  0 
    4.5474   -3.6601   -0.9936 O   0  0  0  0  0  0  0  0  0  0  0  0 
    8.5829   -1.2715   -1.4547 O   0  0  0  0  0  0  0  0  0  0  0  0 
    7.1802   -3.6378   -1.3962 O   0  0  0  0  0  0  0  0  0  0  0  0 
    0.3935    0.9016    0.1996 H   0  0  0  0  0  0  0  0  0  0  0  0 
    0.4349   -0.8707    0.3374 H   0  0  0  0  0  0  0  0  0  0  0  0 
    0.5342   -0.1076   -1.2536 H   0  0  0  0  0  0  0  0  0  0  0  0 
    2.6155    2.1920   -0.3903 H   0  0  0  0  0  0  0  0  0  0  0  0 
    2.6508    1.2353   -1.8677 H   0  0  0  0  0  0  0  0  0  0  0  0 
    2.6234    0.1386    0.9858 H   0  0  0  0  0  0  0  0  0  0  0  0 
    6.7148    1.8402   -1.0208 H   0  0  0  0  0  0  0  0  0  0  0  0 
    3.5764   -3.4902   -0.8361 H   0  0  0  0  0  0  0  0  0  0  0  0 
    8.8731   -0.3405   -1.4449 H   0  0  0  0  0  0  0  0  0  0  0  0 
    6.5050   -4.3392   -1.3390 H   0  0  0  0  0  0  0  0  0  0  0  0 
  1  3  1  0  0  0  0 
  1 18  1  0  0  0  0 
  1 19  1  0  0  0  0 
  2 21  1  0  0  0  0 
  2  3  1  0  0  0  0 
  3 23  1  1  0  0  0 
  4  2  1  0  0  0  0 
  5  6  1  0  0  0  0 
  5  4  1  0  0  0  0 
  6  7  1  0  0  0  0 
  7  3  1  0  0  0  0 
  8  5  2  0  0  0  0 
  9 15  1  0  0  0  0 
  9  6  2  0  0  0  0 
 10 11  2  0  0  0  0 
 10  8  1  0  0  0  0 
 11  9  1  0  0  0  0 
 12  4  2  0  0  0  0 
 13  7  2  0  0  0  0 
 14  8  1  0  0  0  0 
 14 24  1  0  0  0  0 
 15 25  1  0  0  0  0 
 16 26  1  0  0  0  0 
 16 10  1  0  0  0  0 
 17 27  1  0  0  0  0 
 17 11  1  0  0  0  0 
 20  1  1  0  0  0  0 
 22  2  1  0  0  0  0 
M  END 
>  <HBA> 
6 
 
>  <HBD> 
4 
 
>  <TPSA> 
115.06 
 
>  <cid> 
39036 
 
>  <dipole> 
2.08 
 
>  <excitation_energy_1> 
3.373 
 
>  <excitation_energy_2> 
3.671 
 
>  <excitation_energy_3> 
3.777 
 
>  <excitation_energy_4> 
3.961 
 
>  <homo_energy> 
-6.065 
 
>  <homo_lumo_gap> 
3.75 
 
>  <logP> 
0.914 
 
>  <lumo_energy> 
-2.316 
 
>  <melting_point> 
259.93 
 
>  <molecular_refractivity> 
57.62 
 
>  <oscillator_strength_1> 
0.1097 
 
>  <oscillator_strength_2> 
0.1414 
 
>  <oscillator_strength_3> 
0.0003 
 
>  <oscillator_strength_4> 
0.0001 
 
>  <open_babel_can_smiles> 
C[C@@H]1CC(=O)c2c(C1=O)c(O)c(c(c2O)O)O 
 
>  <mulliken_charges> 
27 
1   -0.442936 
2   -0.359357 
3   -0.18679 
4   0.408734 
5   0.002126 
6   0.004369 
7   0.417371 
8   0.250437 
9   0.247676 
10   0.294654 
11   0.294709 
12   -0.54088 
13   -0.548427 
14   -0.687924 
15   -0.688912 
16   -0.628699 
17   -0.628668 
18   0.14782 
19   0.175943 
20   0.152978 
21   0.177641 
22   0.180772 
23   0.175696 
24   0.452676 
25   0.45318 
26   0.437881 
27   0.437931 
 
>  <lowdin_charges> 
27 
1   -0.438941 
2   -0.293675 
3   -0.145126 
4   0.162345 
5   -0.103159 
6   -0.102699 
7   0.163171 
8   0.087589 
9   0.0873 
10   0.071241 
11   0.070483 
12   -0.293193 
13   -0.291431 
14   -0.385862 
15   -0.384503 
16   -0.343948 
17   -0.345417 
18   0.154559 
19   0.169639 
20   0.153977 
21   0.173027 
22   0.172293 
23   0.166915 
24   0.37634 
25   0.374468 
26   0.37117 
27   0.373436 
 
$$$$ 
 
