PCCDB-ID:  65974 
public computational chemistry database (PCCDB) project, http://pccdb.org 
 
 21 22  0  0  1  0  0  0  0  0999 V2000 
    1.0824   -0.1195    0.1534 C   0  0  0  0  0  0  0  0  0  0  0  0 
    6.4058   -0.6944   -1.6913 C   0  0  0  0  0  0  0  0  0  0  0  0 
    6.3436   -2.0841   -2.3361 C   0  0  0  0  0  0  0  0  0  0  0  0 
    3.0548    0.9992   -0.9976 C   0  0  0  0  0  0  0  0  0  0  0  0 
    2.6007   -0.0958   -0.0161 C   0  0  2  0  0  0  0  0  0  0  0  0 
    4.5404    0.9265   -1.3062 C   0  0  0  0  0  0  0  0  0  0  0  0 
    4.2129   -1.4702   -0.9724 C   0  0  0  0  0  0  0  0  0  0  0  0 
    3.0689   -1.4286   -0.4287 N   0  0  0  0  0  0  0  0  0  0  0  0 
    5.0366   -0.3719   -1.2962 N   0  0  0  0  0  0  0  0  0  0  0  0 
    5.2457    1.8807   -1.5843 O   0  0  0  0  0  0  0  0  0  0  0  0 
    5.0353   -2.9961   -1.4122 S   0  0  0  0  0  0  0  0  0  0  0  0 
    0.7153    0.8380    0.5400 H   0  0  0  0  0  0  0  0  0  0  0  0 
    0.7945   -0.9132    0.8491 H   0  0  0  0  0  0  0  0  0  0  0  0 
    0.5919   -0.3177   -0.8065 H   0  0  0  0  0  0  0  0  0  0  0  0 
    6.7650    0.0743   -2.3785 H   0  0  0  0  0  0  0  0  0  0  0  0 
    7.0573   -0.7028   -0.8090 H   0  0  0  0  0  0  0  0  0  0  0  0 
    7.2901   -2.6197   -2.2419 H   0  0  0  0  0  0  0  0  0  0  0  0 
    6.0688   -2.0251   -3.3928 H   0  0  0  0  0  0  0  0  0  0  0  0 
    2.8372    2.0029   -0.6230 H   0  0  0  0  0  0  0  0  0  0  0  0 
    2.5153    0.8815   -1.9494 H   0  0  0  0  0  0  0  0  0  0  0  0 
    3.0551    0.1129    0.9668 H   0  0  0  0  0  0  0  0  0  0  0  0 
  1 12  1  0  0  0  0 
  1 13  1  0  0  0  0 
  2  9  1  0  0  0  0 
  2 16  1  0  0  0  0 
  3 17  1  0  0  0  0 
  3  2  1  0  0  0  0 
  3 11  1  0  0  0  0 
  4 19  1  0  0  0  0 
  4  5  1  0  0  0  0 
  5  1  1  0  0  0  0 
  5 21  1  1  0  0  0 
  6  9  1  0  0  0  0 
  6  4  1  0  0  0  0 
  7  8  2  0  0  0  0 
  8  5  1  0  0  0  0 
  9  7  1  0  0  0  0 
 10  6  2  0  0  0  0 
 11  7  1  0  0  0  0 
 14  1  1  0  0  0  0 
 15  2  1  0  0  0  0 
 18  3  1  0  0  0  0 
 20  4  1  0  0  0  0 
M  END 
>  <HBA> 
4 
 
>  <HBD> 
0 
 
>  <TPSA> 
57.97 
 
>  <cid> 
65974 
 
>  <dipole> 
1.3 
 
>  <excitation_energy_1> 
5.085 
 
>  <excitation_energy_2> 
5.13 
 
>  <excitation_energy_3> 
5.205 
 
>  <excitation_energy_4> 
5.361 
 
>  <homo_energy> 
-6.476 
 
>  <homo_lumo_gap> 
5.94 
 
>  <logP> 
0.083 
 
>  <lumo_energy> 
-0.536 
 
>  <melting_point> 
68.79 
 
>  <molecular_refractivity> 
53.15 
 
>  <oscillator_strength_1> 
0.0104 
 
>  <oscillator_strength_2> 
0.011 
 
>  <oscillator_strength_3> 
0.0468 
 
>  <oscillator_strength_4> 
0.0052 
 
>  <open_babel_can_smiles> 
C[C@@H]1CC(=O)N2C(=N1)SCC2 
 
>  <mulliken_charges> 
21 
1   -0.43812 
2   -0.133142 
3   -0.452248 
4   -0.373472 
5   0.013747 
6   0.587902 
7   0.304436 
8   -0.445862 
9   -0.462834 
10   -0.490231 
11   0.174195 
12   0.139989 
13   0.162816 
14   0.149693 
15   0.197395 
16   0.179072 
17   0.191288 
18   0.196633 
19   0.176959 
20   0.17486 
21   0.146922 
 
>  <lowdin_charges> 
21 
1   -0.443126 
2   -0.191436 
3   -0.375072 
4   -0.310884 
5   -0.056736 
6   0.169951 
7   -0.023904 
8   -0.215957 
9   -0.099919 
10   -0.275638 
11   0.182952 
12   0.149679 
13   0.163288 
14   0.153042 
15   0.179403 
16   0.160674 
17   0.177013 
18   0.166682 
19   0.174758 
20   0.17056 
21   0.144671 
 
$$$$ 
 
