PCCDB-ID:  17376 
public computational chemistry database (PCCDB) project, http://pccdb.org 
 
 20 20  0  0  1  0  0  0  0  0999 V2000 
    1.6636   -0.6903    0.3801 C   0  0  0  0  0  0  0  0  0  0  0  0 
    2.4760   -0.4751    1.4182 C   0  0  0  0  0  0  0  0  0  0  0  0 
    3.3905    0.7177    1.5535 C   0  0  0  0  0  0  0  0  0  0  0  0 
    4.8653    0.4235    1.1096 C   0  0  2  0  0  0  0  0  0  0  0  0 
    5.4827   -0.7494    1.8496 C   0  0  0  0  0  0  0  0  0  0  0  0 
    5.7543    1.6320    1.3370 C   0  0  0  0  0  0  0  0  0  0  0  0 
    6.7670    0.6497    3.1678 C   0  0  0  0  0  0  0  0  0  0  0  0 
    6.3438   -0.6520    2.7807 N   0  0  0  0  0  0  0  0  0  0  0  0 
    6.6133    1.7424    2.2668 N   0  0  0  0  0  0  0  0  0  0  0  0 
    5.0743   -1.9816    1.4811 O   0  0  0  0  0  0  0  0  0  0  0  0 
    5.5812    2.6815    0.5024 O   0  0  0  0  0  0  0  0  0  0  0  0 
    7.2867    0.8234    4.2449 O   0  0  0  0  0  0  0  0  0  0  0  0 
    1.0245   -1.5672    0.3283 H   0  0  0  0  0  0  0  0  0  0  0  0 
    1.5892    0.0123   -0.4483 H   0  0  0  0  0  0  0  0  0  0  0  0 
    2.5027   -1.1982    2.2326 H   0  0  0  0  0  0  0  0  0  0  0  0 
    3.4118    1.0625    2.5935 H   0  0  0  0  0  0  0  0  0  0  0  0 
    3.0140    1.5489    0.9459 H   0  0  0  0  0  0  0  0  0  0  0  0 
    4.8506    0.1843    0.0354 H   0  0  0  0  0  0  0  0  0  0  0  0 
    4.3617   -1.9084    0.8225 H   0  0  0  0  0  0  0  0  0  0  0  0 
    4.9475    2.4527   -0.1963 H   0  0  0  0  0  0  0  0  0  0  0  0 
  1  2  2  0  0  0  0 
  2  3  1  0  0  0  0 
  2 15  1  0  0  0  0 
  3 16  1  0  0  0  0 
  4 18  1  6  0  0  0 
  4  6  1  0  0  0  0 
  4  3  1  0  0  0  0 
  4  5  1  0  0  0  0 
  5  8  2  0  0  0  0 
  6  9  2  0  0  0  0 
  7 12  2  0  0  0  0 
  8  7  2  0  0  0  0 
  9  7  1  0  0  0  0 
 10  5  1  0  0  0  0 
 11  6  1  0  0  0  0 
 13  1  1  0  0  0  0 
 14  1  1  0  0  0  0 
 17  3  1  0  0  0  0 
 19 10  1  0  0  0  0 
 20 11  1  0  0  0  0 
M  END 
>  <HBA> 
5 
 
>  <HBD> 
2 
 
>  <TPSA> 
75.27 
 
>  <cid> 
17376 
 
>  <dipole> 
9.9 
 
>  <excitation_energy_1> 
3.96 
 
>  <excitation_energy_2> 
4.246 
 
>  <excitation_energy_3> 
5.317 
 
>  <excitation_energy_4> 
5.403 
 
>  <homo_energy> 
-7.021 
 
>  <homo_lumo_gap> 
5.32 
 
>  <logP> 
0.202 
 
>  <lumo_energy> 
-1.701 
 
>  <melting_point> 
103.62 
 
>  <molecular_refractivity> 
47.6 
 
>  <oscillator_strength_1> 
0.0009 
 
>  <oscillator_strength_2> 
0.0006 
 
>  <oscillator_strength_3> 
0.0054 
 
>  <oscillator_strength_4> 
0.044 
 
>  <open_babel_can_smiles> 
C=CC[C@H]1C(=N[C](=[N]=C1O)=O)O 
 
>  <mulliken_charges> 
20 
1   -0.334749 
2   -0.100952 
3   -0.296335 
4   -0.330646 
5   0.537004 
6   0.543493 
7   0.607699 
8   -0.446971 
9   -0.446161 
10   -0.57157 
11   -0.56783 
12   -0.423314 
13   0.166765 
14   0.148744 
15   0.173433 
16   0.191163 
17   0.156095 
18   0.165994 
19   0.413858 
20   0.414281 
 
>  <lowdin_charges> 
20 
1   -0.325143 
2   -0.168986 
3   -0.264039 
4   -0.194044 
5   0.142843 
6   0.144257 
7   0.173185 
8   -0.180266 
9   -0.178539 
10   -0.329489 
11   -0.329178 
12   -0.205541 
13   0.172274 
14   0.16001 
15   0.170531 
16   0.173592 
17   0.156856 
18   0.161793 
19   0.358727 
20   0.361158 
 
$$$$ 
 
