PCCDB-ID:  15083 
public computational chemistry database (PCCDB) project, http://pccdb.org 
 
 32 33  0  0  1  0  0  0  0  0999 V2000 
    6.6389    2.1537   -2.6794 C   0  0  0  0  0  0  0  0  0  0  0  0 
    6.2170    0.4436   -1.0500 C   0  0  0  0  0  0  0  0  0  0  0  0 
    5.2604   -5.8427   -6.2179 C   0  0  0  0  0  0  0  0  0  0  0  0 
    4.5290   -6.1418   -5.0650 C   0  0  0  0  0  0  0  0  0  0  0  0 
    5.5964   -4.5208   -6.5069 C   0  0  0  0  0  0  0  0  0  0  0  0 
    4.1510   -5.1206   -4.1944 C   0  0  0  0  0  0  0  0  0  0  0  0 
    3.9954   -0.5528   -2.9055 C   0  0  0  0  0  0  0  0  0  0  0  0 
    4.6181    0.8487   -2.8371 C   0  0  0  0  0  0  0  0  0  0  0  0 
    4.8316   -1.2118   -5.2370 C   0  0  0  0  0  0  0  0  0  0  0  0 
    4.7760   -1.5555   -3.7522 C   0  0  2  0  0  0  0  0  0  0  0  0 
    5.2112   -3.4948   -5.6433 C   0  0  0  0  0  0  0  0  0  0  0  0 
    4.4950   -3.7971   -4.4733 C   0  0  0  0  0  0  0  0  0  0  0  0 
    6.0260    0.8533   -2.4369 N   0  0  0  0  0  0  0  0  0  0  0  0 
    5.5579   -2.2043   -5.9615 O   0  0  0  0  0  0  0  0  0  0  0  0 
    4.1077   -2.8195   -3.5901 O   0  0  0  0  0  0  0  0  0  0  0  0 
    7.7058    2.1077   -2.4363 H   0  0  0  0  0  0  0  0  0  0  0  0 
    6.1873    2.9688   -2.0797 H   0  0  0  0  0  0  0  0  0  0  0  0 
    6.5433    2.4187   -3.7379 H   0  0  0  0  0  0  0  0  0  0  0  0 
    7.2863    0.4455   -0.8147 H   0  0  0  0  0  0  0  0  0  0  0  0 
    5.8454   -0.5731   -0.8932 H   0  0  0  0  0  0  0  0  0  0  0  0 
    5.7054    1.1119   -0.3290 H   0  0  0  0  0  0  0  0  0  0  0  0 
    5.5638   -6.6348   -6.8963 H   0  0  0  0  0  0  0  0  0  0  0  0 
    4.2584   -7.1690   -4.8380 H   0  0  0  0  0  0  0  0  0  0  0  0 
    6.1532   -4.2575   -7.4012 H   0  0  0  0  0  0  0  0  0  0  0  0 
    3.5931   -5.3254   -3.2855 H   0  0  0  0  0  0  0  0  0  0  0  0 
    2.9768   -0.4632   -3.3047 H   0  0  0  0  0  0  0  0  0  0  0  0 
    3.8877   -0.9823   -1.9033 H   0  0  0  0  0  0  0  0  0  0  0  0 
    3.9981    1.4763   -2.1647 H   0  0  0  0  0  0  0  0  0  0  0  0 
    4.5624    1.3174   -3.8272 H   0  0  0  0  0  0  0  0  0  0  0  0 
    5.3614   -0.2723   -5.4068 H   0  0  0  0  0  0  0  0  0  0  0  0 
    3.8100   -1.1296   -5.6374 H   0  0  0  0  0  0  0  0  0  0  0  0 
    5.8049   -1.6478   -3.3826 H   0  0  0  0  0  0  0  0  0  0  0  0 
  1 13  1  0  0  0  0 
  1 16  1  0  0  0  0 
  1 17  1  0  0  0  0 
  2 20  1  0  0  0  0 
  2 19  1  0  0  0  0 
  2 21  1  0  0  0  0 
  3  4  1  0  0  0  0 
  4 23  1  0  0  0  0 
  4  6  2  0  0  0  0 
  5  3  2  0  0  0  0 
  5 11  1  0  0  0  0 
  6 25  1  0  0  0  0 
  7  8  1  0  0  0  0 
  7 27  1  0  0  0  0 
  8 13  1  0  0  0  0 
  8 28  1  0  0  0  0 
  9 10  1  0  0  0  0 
 10 15  1  0  0  0  0 
 10 32  1  1  0  0  0 
 10  7  1  0  0  0  0 
 11 12  2  0  0  0  0 
 12  6  1  0  0  0  0 
 12 15  1  0  0  0  0 
 13  2  1  0  0  0  0 
 14 11  1  0  0  0  0 
 14  9  1  0  0  0  0 
 18  1  1  0  0  0  0 
 22  3  1  0  0  0  0 
 24  5  1  0  0  0  0 
 26  7  1  0  0  0  0 
 29  8  1  0  0  0  0 
 30  9  1  0  0  0  0 
 31  9  1  0  0  0  0 
M  END 
>  <HBA> 
3 
 
>  <HBD> 
0 
 
>  <TPSA> 
21.7 
 
>  <cid> 
15083 
 
>  <dipole> 
2.62 
 
>  <excitation_energy_1> 
4.868 
 
>  <excitation_energy_2> 
5.176 
 
>  <excitation_energy_3> 
5.378 
 
>  <excitation_energy_4> 
5.472 
 
>  <homo_energy> 
-5.489 
 
>  <homo_lumo_gap> 
5.802 
 
>  <logP> 
1.778 
 
>  <lumo_energy> 
0.313 
 
>  <melting_point> 
37.09 
 
>  <molecular_refractivity> 
59.44 
 
>  <oscillator_strength_1> 
0.0524 
 
>  <oscillator_strength_2> 
0.0022 
 
>  <oscillator_strength_3> 
0.0351 
 
>  <oscillator_strength_4> 
0.0008 
 
>  <open_babel_can_smiles> 
CN(CC[C@@H]1COc2c(O1)cccc2)C 
 
>  <mulliken_charges> 
32 
1   -0.294878 
2   -0.304597 
3   -0.138822 
4   -0.1381 
5   -0.191229 
6   -0.19374 
7   -0.311787 
8   -0.124629 
9   -0.052128 
10   0.125863 
11   0.32929 
12   0.334746 
13   -0.369094 
14   -0.529259 
15   -0.549723 
16   0.152523 
17   0.120392 
18   0.148756 
19   0.153496 
20   0.1576 
21   0.120738 
22   0.124818 
23   0.12469 
24   0.136131 
25   0.134274 
26   0.148121 
27   0.160259 
28   0.118269 
29   0.137902 
30   0.160739 
31   0.145214 
32   0.164168 
 
>  <lowdin_charges> 
32 
1   -0.353671 
2   -0.358489 
3   -0.169616 
4   -0.16724 
5   -0.177255 
6   -0.177821 
7   -0.287223 
8   -0.202117 
9   -0.140937 
10   -0.00646 
11   0.060938 
12   0.060276 
13   -0.187175 
14   -0.20728 
15   -0.212502 
16   0.150335 
17   0.122961 
18   0.148014 
19   0.151905 
20   0.151949 
21   0.123741 
22   0.158057 
23   0.155899 
24   0.165997 
25   0.16491 
26   0.154322 
27   0.157177 
28   0.124731 
29   0.142229 
30   0.16177 
31   0.141591 
32   0.150984 
 
$$$$ 
 
