PCCDB-ID:  7992 
public computational chemistry database (PCCDB) project, http://pccdb.org 
 
 19 18  0  0  0  0  0  0  0  0999 V2000 
    2.6211   -0.8947   -0.1649 C   0  0  0  0  0  0  0  0  0  0  0  0 
    4.7945    2.6337    2.6779 C   0  0  0  0  0  0  0  0  0  0  0  0 
    6.6400    2.3066    0.9648 C   0  0  0  0  0  0  0  0  0  0  0  0 
    2.2466    0.2813    0.3493 C   0  0  0  0  0  0  0  0  0  0  0  0 
    4.4414    1.1439    0.6612 C   0  0  0  0  0  0  0  0  0  0  0  0 
    5.1254    2.4008    1.1979 C   0  0  0  0  0  0  0  0  0  0  0  0 
    3.0276    1.3103    0.7649 O   0  0  0  0  0  0  0  0  0  0  0  0 
    1.8576   -1.6101   -0.4477 H   0  0  0  0  0  0  0  0  0  0  0  0 
    3.6544   -1.1823   -0.3190 H   0  0  0  0  0  0  0  0  0  0  0  0 
    5.2383    3.5703    3.0346 H   0  0  0  0  0  0  0  0  0  0  0  0 
    5.1908    1.8192    3.2987 H   0  0  0  0  0  0  0  0  0  0  0  0 
    3.7133    2.6833    2.8355 H   0  0  0  0  0  0  0  0  0  0  0  0 
    7.1446    3.2088    1.3277 H   0  0  0  0  0  0  0  0  0  0  0  0 
    6.8812    2.1923   -0.0988 H   0  0  0  0  0  0  0  0  0  0  0  0 
    7.0699    1.4505    1.5010 H   0  0  0  0  0  0  0  0  0  0  0  0 
    1.2000    0.5389    0.4902 H   0  0  0  0  0  0  0  0  0  0  0  0 
    4.7494    0.2567    1.2360 H   0  0  0  0  0  0  0  0  0  0  0  0 
    4.7097    0.9725   -0.3917 H   0  0  0  0  0  0  0  0  0  0  0  0 
    4.7355    3.2487    0.6171 H   0  0  0  0  0  0  0  0  0  0  0  0 
  1  4  2  0  0  0  0 
  2 12  1  0  0  0  0 
  2 10  1  0  0  0  0 
  2 11  1  0  0  0  0 
  3  6  1  0  0  0  0 
  3 13  1  0  0  0  0 
  3 15  1  0  0  0  0 
  4 16  1  0  0  0  0 
  4  7  1  0  0  0  0 
  5  7  1  0  0  0  0 
  5  6  1  0  0  0  0 
  5 17  1  0  0  0  0 
  6  2  1  0  0  0  0 
  8  1  1  0  0  0  0 
  9  1  1  0  0  0  0 
 14  3  1  0  0  0  0 
 18  5  1  0  0  0  0 
 19  6  1  0  0  0  0 
M  END 
>  <HBA> 
1 
 
>  <HBD> 
0 
 
>  <TPSA> 
9.23 
 
>  <cid> 
7992 
 
>  <dipole> 
0.88 
 
>  <excitation_energy_1> 
5.803 
 
>  <excitation_energy_2> 
6.059 
 
>  <excitation_energy_3> 
6.246 
 
>  <excitation_energy_4> 
6.597 
 
>  <homo_energy> 
-6.071 
 
>  <homo_lumo_gap> 
7.325 
 
>  <logP> 
1.802 
 
>  <lumo_energy> 
1.254 
 
>  <melting_point> 
-56.11 
 
>  <molecular_refractivity> 
31.57 
 
>  <oscillator_strength_1> 
0.0378 
 
>  <oscillator_strength_2> 
0.0027 
 
>  <oscillator_strength_3> 
0.0099 
 
>  <oscillator_strength_4> 
0.0318 
 
>  <open_babel_can_smiles> 
C=COCC(C)C 
 
>  <mulliken_charges> 
19 
1   -0.401655 
2   -0.444525 
3   -0.450893 
4   0.157838 
5   -0.02065 
6   -0.094038 
7   -0.453858 
8   0.14005 
9   0.140633 
10   0.1408 
11   0.136495 
12   0.164765 
13   0.149607 
14   0.143643 
15   0.142394 
16   0.1398 
17   0.133773 
18   0.136479 
19   0.139342 
 
>  <lowdin_charges> 
19 
1   -0.431326 
2   -0.446168 
3   -0.444567 
4   -0.034458 
5   -0.126551 
6   -0.127501 
7   -0.198916 
8   0.16872 
9   0.160054 
10   0.14925 
11   0.145905 
12   0.157942 
13   0.154533 
14   0.147797 
15   0.14797 
16   0.155591 
17   0.137366 
18   0.138073 
19   0.146286 
 
$$$$ 
 
