PCCDB-ID:  8601 
public computational chemistry database (PCCDB) project, http://pccdb.org 
 
 20 21  0  0  0  0  0  0  0  0999 V2000 
   -2.4400    0.6516   -0.0153 C   0  0  0  0  0  0  0  0  0  0  0  0 
   -2.4222   -0.7627   -0.0090 C   0  0  0  0  0  0  0  0  0  0  0  0 
   -1.2624    1.3665   -0.0215 C   0  0  0  0  0  0  0  0  0  0  0  0 
   -1.2201   -1.4371   -0.0080 C   0  0  0  0  0  0  0  0  0  0  0  0 
    1.2224    1.4245   -0.0265 C   0  0  0  0  0  0  0  0  0  0  0  0 
    2.4502   -0.6747   -0.0157 C   0  0  0  0  0  0  0  0  0  0  0  0 
   -0.0038    0.7070   -0.0202 C   0  0  0  0  0  0  0  0  0  0  0  0 
    2.4190    0.7414   -0.0237 C   0  0  0  0  0  0  0  0  0  0  0  0 
    0.0048   -0.7246   -0.0126 C   0  0  0  0  0  0  0  0  0  0  0  0 
    1.2719   -1.3867   -0.0107 C   0  0  0  0  0  0  0  0  0  0  0  0 
    3.6397    1.3582   -0.0277 O   0  0  0  0  0  0  0  0  0  0  0  0 
    1.2418   -2.7527   -0.0021 O   0  0  0  0  0  0  0  0  0  0  0  0 
   -3.3916    1.1771   -0.0159 H   0  0  0  0  0  0  0  0  0  0  0  0 
   -3.3576   -1.3151   -0.0047 H   0  0  0  0  0  0  0  0  0  0  0  0 
   -1.2802    2.4538   -0.0264 H   0  0  0  0  0  0  0  0  0  0  0  0 
   -1.1921   -2.5214   -0.0026 H   0  0  0  0  0  0  0  0  0  0  0  0 
    1.2048    2.5127   -0.0314 H   0  0  0  0  0  0  0  0  0  0  0  0 
    3.4161   -1.1732   -0.0136 H   0  0  0  0  0  0  0  0  0  0  0  0 
    3.5016    2.3183   -0.0343 H   0  0  0  0  0  0  0  0  0  0  0  0 
    2.1526   -3.0857   -0.0090 H   0  0  0  0  0  0  0  0  0  0  0  0 
  1  2  2  0  0  0  0 
  2  4  1  0  0  0  0 
  2 14  1  0  0  0  0 
  3  7  2  0  0  0  0 
  3  1  1  0  0  0  0 
  4 16  1  0  0  0  0 
  5  8  2  0  0  0  0 
  5  7  1  0  0  0  0 
  6 18  1  0  0  0  0 
  6 10  2  0  0  0  0 
  7  9  1  0  0  0  0 
  8  6  1  0  0  0  0 
  9 10  1  0  0  0  0 
  9  4  2  0  0  0  0 
 10 12  1  0  0  0  0 
 11  8  1  0  0  0  0 
 13  1  1  0  0  0  0 
 15  3  1  0  0  0  0 
 17  5  1  0  0  0  0 
 19 11  1  0  0  0  0 
 20 12  1  0  0  0  0 
M  END 
>  <HBA> 
2 
 
>  <HBD> 
2 
 
>  <TPSA> 
40.46 
 
>  <cid> 
8601 
 
>  <dipole> 
1.16 
 
>  <excitation_energy_1> 
4.026 
 
>  <excitation_energy_2> 
4.417 
 
>  <excitation_energy_3> 
4.667 
 
>  <excitation_energy_4> 
4.794 
 
>  <homo_energy> 
-5.306 
 
>  <homo_lumo_gap> 
4.601 
 
>  <logP> 
2.251 
 
>  <lumo_energy> 
-0.705 
 
>  <melting_point> 
129.6 
 
>  <molecular_refractivity> 
47.99 
 
>  <oscillator_strength_1> 
0.0556 
 
>  <oscillator_strength_2> 
0.0181 
 
>  <oscillator_strength_3> 
0.0005 
 
>  <oscillator_strength_4> 
0.0001 
 
>  <open_babel_can_smiles> 
Oc1cc2ccccc2c(c1)O 
 
>  <mulliken_charges> 
20 
1   -0.128672 
2   -0.142746 
3   -0.20445 
4   -0.171597 
5   -0.281259 
6   -0.242758 
7   0.137259 
8   0.359105 
9   0.079876 
10   0.298397 
11   -0.649035 
12   -0.643111 
13   0.126947 
14   0.126416 
15   0.123563 
16   0.149945 
17   0.112134 
18   0.128358 
19   0.409418 
20   0.412211 
 
>  <lowdin_charges> 
20 
1   -0.152875 
2   -0.170039 
3   -0.164576 
4   -0.143391 
5   -0.246988 
6   -0.247345 
7   0.017868 
8   0.111154 
9   -0.037485 
10   0.115422 
11   -0.375215 
12   -0.372208 
13   0.15722 
14   0.157337 
15   0.152718 
16   0.167174 
17   0.150178 
18   0.164066 
19   0.35709 
20   0.359895 
 
$$$$ 
 
