PCCDB-ID:  23880 
public computational chemistry database (PCCDB) project, http://pccdb.org 
 
 36 38  0  0  0  0  0  0  0  0999 V2000 
    0.9324   -0.0401   -0.2651 C   0  0  0  0  0  0  0  0  0  0  0  0 
   11.1044   -0.1632    0.4158 C   0  0  0  0  0  0  0  0  0  0  0  0 
    5.0231    2.4512    1.1650 C   0  0  0  0  0  0  0  0  0  0  0  0 
    7.0683    2.4274   -0.9944 C   0  0  0  0  0  0  0  0  0  0  0  0 
    5.3257   -2.3876   -0.0467 C   0  0  0  0  0  0  0  0  0  0  0  0 
    6.6543   -2.4027    0.2289 C   0  0  0  0  0  0  0  0  0  0  0  0 
    3.0996    1.1372    0.3284 C   0  0  0  0  0  0  0  0  0  0  0  0 
    8.9637    1.0646   -0.1715 C   0  0  0  0  0  0  0  0  0  0  0  0 
    3.1940   -1.1759   -0.2294 C   0  0  0  0  0  0  0  0  0  0  0  0 
    8.8151   -1.2427    0.3981 C   0  0  0  0  0  0  0  0  0  0  0  0 
    2.4303   -0.0308   -0.0784 C   0  0  0  0  0  0  0  0  0  0  0  0 
    9.6062   -0.1178    0.2367 C   0  0  0  0  0  0  0  0  0  0  0  0 
    4.4832    1.2171    0.4661 C   0  0  0  0  0  0  0  0  0  0  0  0 
    7.5816    1.1793   -0.3002 C   0  0  0  0  0  0  0  0  0  0  0  0 
    4.5968   -1.1502   -0.0914 C   0  0  0  0  0  0  0  0  0  0  0  0 
    7.4128   -1.1830    0.2665 C   0  0  0  0  0  0  0  0  0  0  0  0 
    5.2867    0.0877    0.1159 C   0  0  0  0  0  0  0  0  0  0  0  0 
    6.7524    0.0706    0.0571 C   0  0  0  0  0  0  0  0  0  0  0  0 
    0.4215    0.4784    0.5551 H   0  0  0  0  0  0  0  0  0  0  0  0 
    0.5417   -1.0616   -0.3142 H   0  0  0  0  0  0  0  0  0  0  0  0 
    0.6444    0.4687   -1.1946 H   0  0  0  0  0  0  0  0  0  0  0  0 
   11.6224    0.3651   -0.3934 H   0  0  0  0  0  0  0  0  0  0  0  0 
   11.4739   -1.1935    0.4388 H   0  0  0  0  0  0  0  0  0  0  0  0 
   11.4067    0.3167    1.3561 H   0  0  0  0  0  0  0  0  0  0  0  0 
    4.4002    2.6644    2.0413 H   0  0  0  0  0  0  0  0  0  0  0  0 
    4.9998    3.3464    0.5339 H   0  0  0  0  0  0  0  0  0  0  0  0 
    6.0474    2.3119    1.5153 H   0  0  0  0  0  0  0  0  0  0  0  0 
    7.7080    2.6430   -1.8577 H   0  0  0  0  0  0  0  0  0  0  0  0 
    7.0902    3.3155   -0.3537 H   0  0  0  0  0  0  0  0  0  0  0  0 
    6.0480    2.3032   -1.3625 H   0  0  0  0  0  0  0  0  0  0  0  0 
    4.7702   -3.3150   -0.1628 H   0  0  0  0  0  0  0  0  0  0  0  0 
    7.1876   -3.3426    0.3495 H   0  0  0  0  0  0  0  0  0  0  0  0 
    2.5058    2.0089    0.6007 H   0  0  0  0  0  0  0  0  0  0  0  0 
    9.5775    1.9201   -0.4507 H   0  0  0  0  0  0  0  0  0  0  0  0 
    2.7102   -2.1309   -0.4252 H   0  0  0  0  0  0  0  0  0  0  0  0 
    9.2761   -2.2085    0.5962 H   0  0  0  0  0  0  0  0  0  0  0  0 
  1 11  1  0  0  0  0 
  1 19  1  0  0  0  0 
  2 23  1  0  0  0  0 
  2 24  1  0  0  0  0 
  3 27  1  0  0  0  0 
  3 25  1  0  0  0  0 
  4 29  1  0  0  0  0 
  4 14  1  0  0  0  0 
  5  6  2  0  0  0  0 
  6 16  1  0  0  0  0 
  6 32  1  0  0  0  0 
  7 13  1  0  0  0  0 
  7 33  1  0  0  0  0 
  8 12  1  0  0  0  0 
  9 15  2  0  0  0  0 
  9 11  1  0  0  0  0 
 10 36  1  0  0  0  0 
 11  7  2  0  0  0  0 
 12 10  2  0  0  0  0 
 12  2  1  0  0  0  0 
 13  3  1  0  0  0  0 
 14  8  2  0  0  0  0 
 14 18  1  0  0  0  0 
 15  5  1  0  0  0  0 
 15 17  1  0  0  0  0 
 16 10  1  0  0  0  0 
 17 13  2  0  0  0  0 
 18 17  1  0  0  0  0 
 18 16  2  0  0  0  0 
 20  1  1  0  0  0  0 
 21  1  1  0  0  0  0 
 22  2  1  0  0  0  0 
 26  3  1  0  0  0  0 
 28  4  1  0  0  0  0 
 30  4  1  0  0  0  0 
 31  5  1  0  0  0  0 
 34  8  1  0  0  0  0 
 35  9  1  0  0  0  0 
M  END 
>  <HBA> 
0 
 
>  <HBD> 
0 
 
>  <TPSA> 
0.0 
 
>  <cid> 
23880 
 
>  <dipole> 
0.49 
 
>  <excitation_energy_1> 
3.739 
 
>  <excitation_energy_2> 
3.908 
 
>  <excitation_energy_3> 
4.454 
 
>  <excitation_energy_4> 
4.777 
 
>  <homo_energy> 
-5.391 
 
>  <homo_lumo_gap> 
4.427 
 
>  <logP> 
5.227 
 
>  <lumo_energy> 
-0.963 
 
>  <melting_point> 
112.34 
 
>  <molecular_refractivity> 
81.32 
 
>  <oscillator_strength_1> 
0.0015 
 
>  <oscillator_strength_2> 
0.1133 
 
>  <oscillator_strength_3> 
0.1446 
 
>  <oscillator_strength_4> 
0.972 
 
>  <open_babel_can_smiles> 
Cc1cc(C)c2c(c1)ccc1c2c(C)cc(c1)C 
 
>  <mulliken_charges> 
36 
1   -0.532524 
2   -0.532504 
3   -0.526383 
4   -0.526224 
5   -0.188082 
6   -0.188089 
7   -0.246089 
8   -0.246644 
9   -0.277327 
10   -0.277158 
11   0.2009 
12   0.201157 
13   0.118041 
14   0.118555 
15   0.151312 
16   0.150668 
17   -0.018048 
18   -0.01744 
19   0.157566 
20   0.155104 
21   0.163918 
22   0.157269 
23   0.155206 
24   0.164115 
25   0.158581 
26   0.157159 
27   0.167701 
28   0.158057 
29   0.157286 
30   0.167546 
31   0.126556 
32   0.126532 
33   0.112732 
34   0.11271 
35   0.118954 
36   0.118884 
 
>  <lowdin_charges> 
36 
1   -0.441562 
2   -0.441381 
3   -0.444668 
4   -0.44489 
5   -0.160617 
6   -0.160471 
7   -0.179128 
8   -0.17928 
9   -0.17798 
10   -0.177644 
11   0.00109 
12   0.001019 
13   -0.002964 
14   -0.003021 
15   0.002119 
16   0.002079 
17   -0.016291 
18   -0.016398 
19   0.159206 
20   0.15593 
21   0.161448 
22   0.159101 
23   0.155896 
24   0.161427 
25   0.159436 
26   0.157987 
27   0.164028 
28   0.15923 
29   0.158154 
30   0.163999 
31   0.157478 
32   0.157355 
33   0.151733 
34   0.151811 
35   0.152957 
36   0.152809 
 
$$$$ 
 
