PCCDB-ID:  55977 
public computational chemistry database (PCCDB) project, http://pccdb.org 
 
 17 18  0  0  0  0  0  0  0  0999 V2000 
    2.6193   -2.4136   -0.2126 C   0  0  0  0  0  0  0  0  0  0  0  0 
    1.9902   -3.1056   -1.1949 C   0  0  0  0  0  0  0  0  0  0  0  0 
    3.0159   -1.0309   -0.1722 C   0  0  0  0  0  0  0  0  0  0  0  0 
    1.4726   -2.6562   -2.5062 C   0  0  0  0  0  0  0  0  0  0  0  0 
    3.0356   -0.1207   -1.1863 C   0  0  0  0  0  0  0  0  0  0  0  0 
    2.0392   -1.4482   -3.1476 C   0  0  0  0  0  0  0  0  0  0  0  0 
    2.6843   -0.3861   -2.5618 C   0  0  0  0  0  0  0  0  0  0  0  0 
    1.9061   -1.2913   -4.6176 C   0  0  0  0  0  0  0  0  0  0  0  0 
    0.6197   -3.3365   -3.0627 O   0  0  0  0  0  0  0  0  0  0  0  0 
    1.4408   -2.0222   -5.4456 O   0  0  0  0  0  0  0  0  0  0  0  0 
    2.4674   -0.0696   -5.0177 O   0  0  0  0  0  0  0  0  0  0  0  0 
    3.7169    1.5149   -0.8372 S   0  0  0  0  0  0  0  0  0  0  0  0 
    3.1182    0.8380   -3.7458 S   0  0  0  0  0  0  0  0  0  0  0  0 
    2.8242   -2.9602    0.7056 H   0  0  0  0  0  0  0  0  0  0  0  0 
    1.7330   -4.1443   -1.0010 H   0  0  0  0  0  0  0  0  0  0  0  0 
    3.3601   -0.6753    0.7953 H   0  0  0  0  0  0  0  0  0  0  0  0 
    2.5716    2.2170   -0.9985 H   0  0  0  0  0  0  0  0  0  0  0  0 
  1  3  1  0  0  0  0 
  1 14  1  0  0  0  0 
  2 15  1  0  0  0  0 
  2  1  2  0  0  0  0 
  3 16  1  0  0  0  0 
  4  2  1  0  0  0  0 
  5 12  1  0  0  0  0 
  5  3  2  0  0  0  0 
  6  7  2  0  0  0  0 
  6  4  1  0  0  0  0 
  7  5  1  0  0  0  0 
  8  6  1  0  0  0  0 
  9  4  2  0  0  0  0 
 10  8  2  0  0  0  0 
 11  8  1  0  0  0  0 
 11 13  1  0  0  0  0 
 13  7  1  0  0  0  0 
 17 12  1  0  0  0  0 
M  END 
>  <HBA> 
5 
 
>  <HBD> 
1 
 
>  <TPSA> 
114.32 
 
>  <cid> 
55977 
 
>  <dipole> 
7.35 
 
>  <excitation_energy_1> 
2.95 
 
>  <excitation_energy_2> 
3.117 
 
>  <excitation_energy_3> 
3.581 
 
>  <excitation_energy_4> 
3.596 
 
>  <homo_energy> 
-6.836 
 
>  <homo_lumo_gap> 
3.698 
 
>  <logP> 
1.503 
 
>  <lumo_energy> 
-3.137 
 
>  <melting_point> 
142.77 
 
>  <molecular_refractivity> 
53.88 
 
>  <oscillator_strength_1> 
0.0002 
 
>  <oscillator_strength_2> 
0.011 
 
>  <oscillator_strength_3> 
0.0555 
 
>  <oscillator_strength_4> 
0.0136 
 
>  <open_babel_can_smiles> 
Sc1cccc(=O)c2c1soc2=O 
 
>  <mulliken_charges> 
17 
1   -0.117473 
2   -0.165649 
3   -0.117224 
4   0.405108 
5   -0.123757 
6   -0.00551 
7   -0.168544 
8   0.595757 
9   -0.451714 
10   -0.41269 
11   -0.527856 
12   -0.022333 
13   0.454853 
14   0.164188 
15   0.178222 
16   0.179533 
17   0.135088 
 
>  <lowdin_charges> 
17 
1   -0.145513 
2   -0.13178 
3   -0.118533 
4   0.139508 
5   -0.128442 
6   -0.096306 
7   -0.11104 
8   0.198283 
9   -0.225683 
10   -0.192167 
11   -0.330124 
12   0.019767 
13   0.440864 
14   0.176677 
15   0.184883 
16   0.184062 
17   0.135545 
 
$$$$ 
 
