PCCDB-ID:  12209 
public computational chemistry database (PCCDB) project, http://pccdb.org 
 
 23 22  0  0  1  0  0  0  0  0999 V2000 
   -0.6024   -0.9337    0.8575 C   0  0  0  0  0  0  0  0  0  0  0  0 
    1.9798   -2.7281    1.2992 C   0  0  0  0  0  0  0  0  0  0  0  0 
    4.0090    2.5717   -0.3182 C   0  0  0  0  0  0  0  0  0  0  0  0 
    0.6703   -0.9461    0.0030 C   0  0  0  0  0  0  0  0  0  0  0  0 
    3.2057   -1.0427   -0.0736 C   0  0  0  0  0  0  0  0  0  0  0  0 
    1.9568   -1.2810    0.7822 C   0  0  2  0  0  0  0  0  0  0  0  0 
    3.9393    1.1956    0.3034 C   0  0  0  0  0  0  0  0  0  0  0  0 
    4.3975    0.8924    1.3834 O   0  0  0  0  0  0  0  0  0  0  0  0 
    3.3125    0.3275   -0.5272 O   0  0  0  0  0  0  0  0  0  0  0  0 
   -1.4701   -0.6309    0.2604 H   0  0  0  0  0  0  0  0  0  0  0  0 
   -0.5104   -0.2267    1.6913 H   0  0  0  0  0  0  0  0  0  0  0  0 
   -0.8250   -1.9192    1.2812 H   0  0  0  0  0  0  0  0  0  0  0  0 
    1.1413   -2.9244    1.9745 H   0  0  0  0  0  0  0  0  0  0  0  0 
    2.9028   -2.9375    1.8522 H   0  0  0  0  0  0  0  0  0  0  0  0 
    1.9134   -3.4450    0.4701 H   0  0  0  0  0  0  0  0  0  0  0  0 
    4.7316    2.5649   -1.1422 H   0  0  0  0  0  0  0  0  0  0  0  0 
    4.3290    3.2940    0.4337 H   0  0  0  0  0  0  0  0  0  0  0  0 
    3.0394    2.8587   -0.7351 H   0  0  0  0  0  0  0  0  0  0  0  0 
    0.7941    0.0369   -0.4671 H   0  0  0  0  0  0  0  0  0  0  0  0 
    0.5544   -1.6673   -0.8202 H   0  0  0  0  0  0  0  0  0  0  0  0 
    3.1669   -1.6329   -0.9949 H   0  0  0  0  0  0  0  0  0  0  0  0 
    4.1102   -1.2980    0.4841 H   0  0  0  0  0  0  0  0  0  0  0  0 
    2.0278   -0.6062    1.6468 H   0  0  0  0  0  0  0  0  0  0  0  0 
  1 12  1  0  0  0  0 
  1 11  1  0  0  0  0 
  2 14  1  0  0  0  0 
  2 13  1  0  0  0  0 
  3  7  1  0  0  0  0 
  3 17  1  0  0  0  0 
  4  6  1  0  0  0  0 
  4  1  1  0  0  0  0 
  5 22  1  0  0  0  0 
  5  6  1  0  0  0  0 
  6  2  1  0  0  0  0 
  6 23  1  1  0  0  0 
  7  8  2  0  0  0  0 
  9  5  1  0  0  0  0 
  9  7  1  0  0  0  0 
 10  1  1  0  0  0  0 
 15  2  1  0  0  0  0 
 16  3  1  0  0  0  0 
 18  3  1  0  0  0  0 
 19  4  1  0  0  0  0 
 20  4  1  0  0  0  0 
 21  5  1  0  0  0  0 
M  END 
>  <HBA> 
2 
 
>  <HBD> 
0 
 
>  <TPSA> 
26.3 
 
>  <cid> 
12209 
 
>  <dipole> 
1.7 
 
>  <excitation_energy_1> 
5.805 
 
>  <excitation_energy_2> 
6.997 
 
>  <excitation_energy_3> 
7.382 
 
>  <excitation_energy_4> 
7.466 
 
>  <homo_energy> 
-7.293 
 
>  <homo_lumo_gap> 
7.701 
 
>  <logP> 
1.596 
 
>  <lumo_energy> 
0.408 
 
>  <melting_point> 
-14.79 
 
>  <molecular_refractivity> 
37.05 
 
>  <oscillator_strength_1> 
0.0012 
 
>  <oscillator_strength_2> 
0.0269 
 
>  <oscillator_strength_3> 
0.0425 
 
>  <oscillator_strength_4> 
0.0671 
 
>  <open_babel_can_smiles> 
CC[C@H](COC(=O)C)C 
 
>  <mulliken_charges> 
23 
1   -0.449064 
2   -0.460506 
3   -0.523962 
4   -0.24983 
5   -0.044801 
6   -0.09402 
7   0.601441 
8   -0.468759 
9   -0.457428 
10   0.143977 
11   0.144051 
12   0.145406 
13   0.154073 
14   0.150778 
15   0.139775 
16   0.183688 
17   0.181966 
18   0.178328 
19   0.144529 
20   0.124778 
21   0.143446 
22   0.165427 
23   0.146708 
 
>  <lowdin_charges> 
23 
1   -0.446707 
2   -0.447565 
3   -0.465718 
4   -0.277099 
5   -0.134661 
6   -0.13648 
7   0.198003 
8   -0.266905 
9   -0.198654 
10   0.151696 
11   0.148177 
12   0.146683 
13   0.156097 
14   0.153608 
15   0.146468 
16   0.179803 
17   0.176353 
18   0.174728 
19   0.146726 
20   0.137525 
21   0.149407 
22   0.158809 
23   0.149706 
 
$$$$ 
 
