PCCDB-ID:  35417 
public computational chemistry database (PCCDB) project, http://pccdb.org 
 
 26 26  0  0  0  0  0  0  0  0999 V2000 
    4.7957    2.3963    1.0496 C   0  0  0  0  0  0  0  0  0  0  0  0 
   10.2840   -1.1008   -1.9232 C   0  0  0  0  0  0  0  0  0  0  0  0 
   10.0343   -1.2235   -0.5561 C   0  0  0  0  0  0  0  0  0  0  0  0 
    9.2458   -1.3140   -2.8330 C   0  0  0  0  0  0  0  0  0  0  0  0 
    5.2898   -0.9605   -0.6271 C   0  0  0  0  0  0  0  0  0  0  0  0 
    8.7553   -1.5555   -0.1040 C   0  0  0  0  0  0  0  0  0  0  0  0 
    7.9708   -1.6453   -2.3754 C   0  0  0  0  0  0  0  0  0  0  0  0 
    6.3081   -2.1162   -0.5215 C   0  0  0  0  0  0  0  0  0  0  0  0 
    5.5863    0.2183    0.3016 C   0  0  0  0  0  0  0  0  0  0  0  0 
    7.7031   -1.7689   -1.0038 C   0  0  0  0  0  0  0  0  0  0  0  0 
    4.5523    1.2455    0.1877 N   0  0  0  0  0  0  0  0  0  0  0  0 
    4.0276    3.1566    0.8720 H   0  0  0  0  0  0  0  0  0  0  0  0 
    5.7878    2.8681    0.9149 H   0  0  0  0  0  0  0  0  0  0  0  0 
    4.7198    2.0859    2.0989 H   0  0  0  0  0  0  0  0  0  0  0  0 
   11.2791   -0.8459   -2.2779 H   0  0  0  0  0  0  0  0  0  0  0  0 
   10.8352   -1.0637    0.1613 H   0  0  0  0  0  0  0  0  0  0  0  0 
    9.4313   -1.2288   -3.9008 H   0  0  0  0  0  0  0  0  0  0  0  0 
    4.2865   -1.3389   -0.3968 H   0  0  0  0  0  0  0  0  0  0  0  0 
    5.2595   -0.6050   -1.6677 H   0  0  0  0  0  0  0  0  0  0  0  0 
    8.5705   -1.6525    0.9637 H   0  0  0  0  0  0  0  0  0  0  0  0 
    7.1706   -1.8179   -3.0926 H   0  0  0  0  0  0  0  0  0  0  0  0 
    5.9258   -2.9630   -1.1065 H   0  0  0  0  0  0  0  0  0  0  0  0 
    6.3549   -2.4583    0.5207 H   0  0  0  0  0  0  0  0  0  0  0  0 
    6.6024    0.6093    0.1028 H   0  0  0  0  0  0  0  0  0  0  0  0 
    5.5901   -0.1336    1.3436 H   0  0  0  0  0  0  0  0  0  0  0  0 
    4.5136    1.5609   -0.7809 H   0  0  0  0  0  0  0  0  0  0  0  0 
  1 14  1  0  0  0  0 
  2  3  2  0  0  0  0 
  3  6  1  0  0  0  0 
  3 16  1  0  0  0  0 
  4  7  2  0  0  0  0 
  4  2  1  0  0  0  0 
  5  8  1  0  0  0  0 
  5 18  1  0  0  0  0 
  5  9  1  0  0  0  0 
  6 20  1  0  0  0  0 
  7 10  1  0  0  0  0 
  8 23  1  0  0  0  0 
  9 25  1  0  0  0  0 
 10  8  1  0  0  0  0 
 10  6  2  0  0  0  0 
 11  9  1  0  0  0  0 
 11  1  1  0  0  0  0 
 12  1  1  0  0  0  0 
 13  1  1  0  0  0  0 
 15  2  1  0  0  0  0 
 17  4  1  0  0  0  0 
 19  5  1  0  0  0  0 
 21  7  1  0  0  0  0 
 22  8  1  0  0  0  0 
 24  9  1  0  0  0  0 
 26 11  1  0  0  0  0 
M  END 
>  <HBA> 
1 
 
>  <HBD> 
1 
 
>  <TPSA> 
12.03 
 
>  <cid> 
35417 
 
>  <dipole> 
0.78 
 
>  <excitation_energy_1> 
5.12 
 
>  <excitation_energy_2> 
5.198 
 
>  <excitation_energy_3> 
5.342 
 
>  <excitation_energy_4> 
5.394 
 
>  <homo_energy> 
-5.802 
 
>  <homo_lumo_gap> 
5.85 
 
>  <logP> 
2.229 
 
>  <lumo_energy> 
0.049 
 
>  <melting_point> 
32.34 
 
>  <molecular_refractivity> 
48.63 
 
>  <oscillator_strength_1> 
0.0138 
 
>  <oscillator_strength_2> 
0.0035 
 
>  <oscillator_strength_3> 
0.0007 
 
>  <oscillator_strength_4> 
0.0016 
 
>  <open_babel_can_smiles> 
CNCCCc1ccccc1 
 
>  <mulliken_charges> 
26 
1   -0.298171 
2   -0.132577 
3   -0.126656 
4   -0.127593 
5   -0.261219 
6   -0.186102 
7   -0.182256 
8   -0.354671 
9   -0.114016 
10   0.17848 
11   -0.54245 
12   0.146051 
13   0.118894 
14   0.149392 
15   0.126971 
16   0.127512 
17   0.127234 
18   0.148306 
19   0.128286 
20   0.122315 
21   0.12201 
22   0.146183 
23   0.13997 
24   0.122734 
25   0.131102 
26   0.290271 
 
>  <lowdin_charges> 
26 
1   -0.35917 
2   -0.161705 
3   -0.157178 
4   -0.153239 
5   -0.273972 
6   -0.16788 
7   -0.169777 
8   -0.273383 
9   -0.202738 
10   -0.001196 
11   -0.362603 
12   0.150184 
13   0.119557 
14   0.145473 
15   0.15596 
16   0.157575 
17   0.154583 
18   0.149943 
19   0.13677 
20   0.152047 
21   0.154263 
22   0.154296 
23   0.146282 
24   0.121516 
25   0.136003 
26   0.24839 
 
$$$$ 
 
