PCCDB-ID:  14076 
public computational chemistry database (PCCDB) project, http://pccdb.org 
 
 19 19  0  0  0  0  0  0  0  0999 V2000 
    1.0095   -0.2189    0.1415 C   0  0  0  0  0  0  0  0  0  0  0  0 
    0.8694   -1.7049    0.4798 C   0  0  0  0  0  0  0  0  0  0  0  0 
    2.4438    0.3160    0.1592 C   0  0  0  0  0  0  0  0  0  0  0  0 
    4.4696    0.5166    1.5751 C   0  0  0  0  0  0  0  0  0  0  0  0 
    3.8947   -0.8325    1.8338 C   0  0  0  0  0  0  0  0  0  0  0  0 
   -0.5275   -2.1291    0.3057 N   0  0  0  0  0  0  0  0  0  0  0  0 
    3.0272    0.2971    1.5026 N   0  0  0  0  0  0  0  0  0  0  0  0 
    0.4128    0.3725    0.8498 H   0  0  0  0  0  0  0  0  0  0  0  0 
    0.5806   -0.0536   -0.8548 H   0  0  0  0  0  0  0  0  0  0  0  0 
    1.2675   -1.8910    1.4918 H   0  0  0  0  0  0  0  0  0  0  0  0 
    1.4818   -2.2945   -0.2162 H   0  0  0  0  0  0  0  0  0  0  0  0 
    2.4349    1.3616   -0.1735 H   0  0  0  0  0  0  0  0  0  0  0  0 
    3.0657   -0.2447   -0.5664 H   0  0  0  0  0  0  0  0  0  0  0  0 
    5.0144    0.6522    0.6393 H   0  0  0  0  0  0  0  0  0  0  0  0 
    4.8129    1.1430    2.3959 H   0  0  0  0  0  0  0  0  0  0  0  0 
    3.8090   -1.2154    2.8488 H   0  0  0  0  0  0  0  0  0  0  0  0 
    4.0579   -1.5958    1.0714 H   0  0  0  0  0  0  0  0  0  0  0  0 
   -1.1092   -1.6531    0.9956 H   0  0  0  0  0  0  0  0  0  0  0  0 
   -0.6116   -3.1231    0.5147 H   0  0  0  0  0  0  0  0  0  0  0  0 
  1  3  1  0  0  0  0 
  1  2  1  0  0  0  0 
  1  8  1  0  0  0  0 
  2 10  1  0  0  0  0 
  3  7  1  0  0  0  0 
  4  5  1  0  0  0  0 
  4 15  1  0  0  0  0 
  5 16  1  0  0  0  0 
  6  2  1  0  0  0  0 
  6 19  1  0  0  0  0 
  6 18  1  0  0  0  0 
  7  4  1  0  0  0  0 
  7  5  1  0  0  0  0 
  9  1  1  0  0  0  0 
 11  2  1  0  0  0  0 
 12  3  1  0  0  0  0 
 13  3  1  0  0  0  0 
 14  4  1  0  0  0  0 
 17  5  1  0  0  0  0 
M  END 
>  <HBA> 
2 
 
>  <HBD> 
1 
 
>  <TPSA> 
29.03 
 
>  <cid> 
14076 
 
>  <dipole> 
1.38 
 
>  <excitation_energy_1> 
5.585 
 
>  <excitation_energy_2> 
6.001 
 
>  <excitation_energy_3> 
6.078 
 
>  <excitation_energy_4> 
6.29 
 
>  <homo_energy> 
-6.202 
 
>  <homo_lumo_gap> 
8.555 
 
>  <logP> 
0.289 
 
>  <lumo_energy> 
2.354 
 
>  <melting_point> 
39.64 
 
>  <molecular_refractivity> 
33.55 
 
>  <oscillator_strength_1> 
0.0125 
 
>  <oscillator_strength_2> 
0.0054 
 
>  <oscillator_strength_3> 
0.0358 
 
>  <oscillator_strength_4> 
0.0061 
 
>  <open_babel_can_smiles> 
NCCCN1CC1 
 
>  <mulliken_charges> 
19 
1   -0.247545 
2   -0.137818 
3   -0.132562 
4   -0.191345 
5   -0.193135 
6   -0.717407 
7   -0.353225 
8   0.137631 
9   0.145709 
10   0.128213 
11   0.130461 
12   0.142592 
13   0.108192 
14   0.142023 
15   0.155374 
16   0.154562 
17   0.143568 
18   0.291586 
19   0.293126 
 
>  <lowdin_charges> 
19 
1   -0.283346 
2   -0.208301 
3   -0.198602 
4   -0.244164 
5   -0.247618 
6   -0.559377 
7   -0.196514 
8   0.146455 
9   0.15151 
10   0.124018 
11   0.138225 
12   0.145848 
13   0.119717 
14   0.14696 
15   0.158881 
16   0.1561 
17   0.146818 
18   0.252156 
19   0.251232 
 
$$$$ 
 
