PCCDB-ID:  69798 
public computational chemistry database (PCCDB) project, http://pccdb.org 
 
 35 34  0  0  0  0  0  0  0  0999 V2000 
    4.3687   -2.4447    2.9297 C   0  0  0  0  0  0  0  0  0  0  0  0 
    8.7949   -1.9459   -1.7312 C   0  0  0  0  0  0  0  0  0  0  0  0 
    4.8369    1.3658   -2.8234 C   0  0  0  0  0  0  0  0  0  0  0  0 
    2.8989    0.0296   -1.9166 C   0  0  0  0  0  0  0  0  0  0  0  0 
    3.5319    2.2295   -0.8721 C   0  0  0  0  0  0  0  0  0  0  0  0 
    3.3419   -1.8810    1.9603 C   0  0  0  0  0  0  0  0  0  0  0  0 
    7.7418   -2.3317   -0.7040 C   0  0  0  0  0  0  0  0  0  0  0  0 
    5.0877    0.2608   -0.5614 C   0  0  0  0  0  0  0  0  0  0  0  0 
    4.4510   -0.1316    0.7754 C   0  0  0  0  0  0  0  0  0  0  0  0 
    5.8490   -0.9394   -1.1310 C   0  0  0  0  0  0  0  0  0  0  0  0 
    4.0763    0.9522   -1.5456 C   0  0  0  0  0  0  0  0  0  0  0  0 
    4.3647    0.6086    1.7306 O   0  0  0  0  0  0  0  0  0  0  0  0 
    5.5745   -1.5836   -2.1199 O   0  0  0  0  0  0  0  0  0  0  0  0 
    3.9745   -1.3953    0.7491 O   0  0  0  0  0  0  0  0  0  0  0  0 
    6.9195   -1.1945   -0.3432 O   0  0  0  0  0  0  0  0  0  0  0  0 
    3.8594   -2.8796    3.7975 H   0  0  0  0  0  0  0  0  0  0  0  0 
    5.0383   -1.6558    3.2836 H   0  0  0  0  0  0  0  0  0  0  0  0 
    4.9653   -3.2288    2.4522 H   0  0  0  0  0  0  0  0  0  0  0  0 
    9.4479   -2.8027   -1.9333 H   0  0  0  0  0  0  0  0  0  0  0  0 
    9.4137   -1.1209   -1.3635 H   0  0  0  0  0  0  0  0  0  0  0  0 
    8.3234   -1.6450   -2.6709 H   0  0  0  0  0  0  0  0  0  0  0  0 
    5.2039    0.4962   -3.3736 H   0  0  0  0  0  0  0  0  0  0  0  0 
    5.6894    2.0140   -2.5840 H   0  0  0  0  0  0  0  0  0  0  0  0 
    4.1693    1.9303   -3.4848 H   0  0  0  0  0  0  0  0  0  0  0  0 
    2.2372    0.5451   -2.6230 H   0  0  0  0  0  0  0  0  0  0  0  0 
    2.3011   -0.2351   -1.0377 H   0  0  0  0  0  0  0  0  0  0  0  0 
    3.2507   -0.8934   -2.3821 H   0  0  0  0  0  0  0  0  0  0  0  0 
    2.8592    2.7508   -1.5630 H   0  0  0  0  0  0  0  0  0  0  0  0 
    4.3422    2.9192   -0.6074 H   0  0  0  0  0  0  0  0  0  0  0  0 
    2.9743    2.0095    0.0427 H   0  0  0  0  0  0  0  0  0  0  0  0 
    2.7765   -1.0622    2.4114 H   0  0  0  0  0  0  0  0  0  0  0  0 
    2.6519   -2.6523    1.6098 H   0  0  0  0  0  0  0  0  0  0  0  0 
    8.1973   -2.6435    0.2391 H   0  0  0  0  0  0  0  0  0  0  0  0 
    7.0953   -3.1293   -1.0776 H   0  0  0  0  0  0  0  0  0  0  0  0 
    5.8431    1.0065   -0.2913 H   0  0  0  0  0  0  0  0  0  0  0  0 
  1 17  1  0  0  0  0 
  1 16  1  0  0  0  0 
  2 20  1  0  0  0  0 
  2  7  1  0  0  0  0 
  3 23  1  0  0  0  0 
  3 11  1  0  0  0  0 
  4 11  1  0  0  0  0 
  4 26  1  0  0  0  0 
  5 29  1  0  0  0  0 
  5 30  1  0  0  0  0 
  6 31  1  0  0  0  0 
  6  1  1  0  0  0  0 
  7 15  1  0  0  0  0 
  7 33  1  0  0  0  0 
  8 35  1  0  0  0  0 
  8  9  1  0  0  0  0 
  9 12  2  0  0  0  0 
 10  8  1  0  0  0  0 
 10 15  1  0  0  0  0 
 11  5  1  0  0  0  0 
 11  8  1  0  0  0  0 
 13 10  2  0  0  0  0 
 14  9  1  0  0  0  0 
 14  6  1  0  0  0  0 
 18  1  1  0  0  0  0 
 19  2  1  0  0  0  0 
 21  2  1  0  0  0  0 
 22  3  1  0  0  0  0 
 24  3  1  0  0  0  0 
 25  4  1  0  0  0  0 
 27  4  1  0  0  0  0 
 28  5  1  0  0  0  0 
 32  6  1  0  0  0  0 
 34  7  1  0  0  0  0 
M  END 
>  <HBA> 
4 
 
>  <HBD> 
0 
 
>  <TPSA> 
52.6 
 
>  <cid> 
69798 
 
>  <dipole> 
1.72 
 
>  <excitation_energy_1> 
5.502 
 
>  <excitation_energy_2> 
5.704 
 
>  <excitation_energy_3> 
6.549 
 
>  <excitation_energy_4> 
6.83 
 
>  <homo_energy> 
-7.113 
 
>  <homo_lumo_gap> 
7.067 
 
>  <logP> 
1.775 
 
>  <lumo_energy> 
-0.046 
 
>  <melting_point> 
13.69 
 
>  <molecular_refractivity> 
57.3 
 
>  <oscillator_strength_1> 
0.0061 
 
>  <oscillator_strength_2> 
0.0039 
 
>  <oscillator_strength_3> 
0.0001 
 
>  <oscillator_strength_4> 
0.0488 
 
>  <open_babel_can_smiles> 
CCOC(=O)C(C(C)(C)C)C(=O)OCC 
 
>  <mulliken_charges> 
35 
1   -0.461789 
2   -0.462436 
3   -0.461034 
4   -0.456948 
5   -0.447579 
6   -0.048816 
7   -0.044747 
8   -0.250675 
9   0.643718 
10   0.642742 
11   0.084661 
12   -0.485983 
13   -0.482916 
14   -0.457217 
15   -0.465547 
16   0.151801 
17   0.178815 
18   0.158221 
19   0.151309 
20   0.158643 
21   0.176217 
22   0.173241 
23   0.133757 
24   0.141962 
25   0.135208 
26   0.13824 
27   0.180661 
28   0.139916 
29   0.141756 
30   0.1596 
31   0.171765 
32   0.157525 
33   0.154441 
34   0.171492 
35   0.179999 
 
>  <lowdin_charges> 
35 
1   -0.456881 
2   -0.456294 
3   -0.45172 
4   -0.454023 
5   -0.447054 
6   -0.130039 
7   -0.128997 
8   -0.173405 
9   0.204793 
10   0.203352 
11   0.025119 
12   -0.261317 
13   -0.258219 
14   -0.187625 
15   -0.193187 
16   0.160474 
17   0.167792 
18   0.157819 
19   0.159892 
20   0.157688 
21   0.165478 
22   0.164093 
23   0.144884 
24   0.152229 
25   0.148775 
26   0.147063 
27   0.16776 
28   0.150473 
29   0.150002 
30   0.157158 
31   0.160947 
32   0.156162 
33   0.153607 
34   0.160504 
35   0.182697 
 
$$$$ 
 
