PCCDB-ID:  16852 
public computational chemistry database (PCCDB) project, http://pccdb.org 
 
 16 16  0  0  1  0  0  0  0  0999 V2000 
   -0.5881   -1.0320   -0.3496 C   0  0  0  0  0  0  0  0  0  0  0  0 
    0.7701   -0.9669    0.3779 C   0  0  0  0  0  0  0  0  0  0  0  0 
   -1.1822    0.3787   -0.1660 C   0  0  0  0  0  0  0  0  0  0  0  0 
    1.9689    0.4658   -1.2730 C   0  0  0  0  0  0  0  0  0  0  0  0 
    1.3028    0.4481    0.0359 C   0  0  1  0  0  0  0  0  0  0  0  0 
    0.0205    1.3094   -0.0046 C   0  0  0  0  0  0  0  0  0  0  0  0 
    2.4807    0.4537   -2.3154 N   0  0  0  0  0  0  0  0  0  0  0  0 
    0.0734    2.5681    0.1344 N   0  0  0  0  0  0  0  0  0  0  0  0 
   -1.2358   -1.8210    0.0433 H   0  0  0  0  0  0  0  0  0  0  0  0 
   -0.4257   -1.2382   -1.4138 H   0  0  0  0  0  0  0  0  0  0  0  0 
    1.4593   -1.7635    0.0870 H   0  0  0  0  0  0  0  0  0  0  0  0 
    0.6235   -1.0258    1.4634 H   0  0  0  0  0  0  0  0  0  0  0  0 
   -1.7908    0.4344    0.7470 H   0  0  0  0  0  0  0  0  0  0  0  0 
   -1.8220    0.6957   -0.9969 H   0  0  0  0  0  0  0  0  0  0  0  0 
    1.9971    0.8491    0.7806 H   0  0  0  0  0  0  0  0  0  0  0  0 
   -0.8670    2.9789    0.0932 H   0  0  0  0  0  0  0  0  0  0  0  0 
  1  3  1  0  0  0  0 
  1  9  1  0  0  0  0 
  1  2  1  0  0  0  0 
  2 12  1  0  0  0  0 
  3  6  1  0  0  0  0 
  3 13  1  0  0  0  0 
  4  5  1  0  0  0  0 
  5  2  1  0  0  0  0 
  5 15  1  1  0  0  0 
  6  5  1  0  0  0  0 
  6  8  2  0  0  0  0 
  7  4  3  0  0  0  0 
 10  1  1  0  0  0  0 
 11  2  1  0  0  0  0 
 14  3  1  0  0  0  0 
 16  8  1  0  0  0  0 
M  END 
>  <HBA> 
2 
 
>  <HBD> 
1 
 
>  <TPSA> 
47.64 
 
>  <cid> 
16852 
 
>  <dipole> 
5.07 
 
>  <excitation_energy_1> 
5.122 
 
>  <excitation_energy_2> 
6.498 
 
>  <excitation_energy_3> 
6.803 
 
>  <excitation_energy_4> 
6.872 
 
>  <homo_energy> 
-7.336 
 
>  <homo_lumo_gap> 
6.64 
 
>  <logP> 
1.43 
 
>  <lumo_energy> 
-0.697 
 
>  <melting_point> 
61.22 
 
>  <molecular_refractivity> 
32.18 
 
>  <oscillator_strength_1> 
0.0067 
 
>  <oscillator_strength_2> 
0.0241 
 
>  <oscillator_strength_3> 
0.0124 
 
>  <oscillator_strength_4> 
0.007 
 
>  <open_babel_can_smiles> 
N#C[C@@H]1CCCC1=N 
 
>  <mulliken_charges> 
16 
1   -0.289234 
2   -0.283843 
3   -0.335765 
4   0.36423 
5   -0.218714 
6   0.301249 
7   -0.468625 
8   -0.561173 
9   0.153557 
10   0.170359 
11   0.169035 
12   0.157278 
13   0.170841 
14   0.174486 
15   0.206056 
16   0.290263 
 
>  <lowdin_charges> 
16 
1   -0.281093 
2   -0.269122 
3   -0.307349 
4   -0.012517 
5   -0.140197 
6   0.060148 
7   -0.12659 
8   -0.339304 
9   0.157155 
10   0.156738 
11   0.164996 
12   0.151809 
13   0.166276 
14   0.169927 
15   0.193225 
16   0.255896 
 
$$$$ 
 
