PCCDB-ID:  15528 
public computational chemistry database (PCCDB) project, http://pccdb.org 
 
 21 21  0  0  0  0  0  0  0  0999 V2000 
    0.8719    0.2559    0.2022 C   0  0  0  0  0  0  0  0  0  0  0  0 
    2.7918    0.3960   -1.4102 C   0  0  0  0  0  0  0  0  0  0  0  0 
    3.0929    1.1856    0.9535 C   0  0  0  0  0  0  0  0  0  0  0  0 
    3.7095   -3.4599    0.4262 C   0  0  0  0  0  0  0  0  0  0  0  0 
    3.4425   -2.2525   -0.2921 C   0  0  0  0  0  0  0  0  0  0  0  0 
    3.3191   -3.3954    1.7321 C   0  0  0  0  0  0  0  0  0  0  0  0 
    2.8513   -1.2714    0.4621 C   0  0  0  0  0  0  0  0  0  0  0  0 
    2.4073    0.1273    0.0578 C   0  0  0  0  0  0  0  0  0  0  0  0 
    2.6181   -1.8521    2.1059 S   0  0  0  0  0  0  0  0  0  0  0  0 
    0.5418    1.2551   -0.1075 H   0  0  0  0  0  0  0  0  0  0  0  0 
    0.5527    0.1027    1.2389 H   0  0  0  0  0  0  0  0  0  0  0  0 
    0.3570   -0.4840   -0.4204 H   0  0  0  0  0  0  0  0  0  0  0  0 
    2.4814    1.4072   -1.6963 H   0  0  0  0  0  0  0  0  0  0  0  0 
    2.3006   -0.3092   -2.0897 H   0  0  0  0  0  0  0  0  0  0  0  0 
    3.8744    0.3214   -1.5611 H   0  0  0  0  0  0  0  0  0  0  0  0 
    2.7913    2.1949    0.6482 H   0  0  0  0  0  0  0  0  0  0  0  0 
    4.1836    1.1160    0.8789 H   0  0  0  0  0  0  0  0  0  0  0  0 
    2.8192    1.0590    2.0068 H   0  0  0  0  0  0  0  0  0  0  0  0 
    4.1740   -4.3340   -0.0181 H   0  0  0  0  0  0  0  0  0  0  0  0 
    3.6858   -2.1251   -1.3405 H   0  0  0  0  0  0  0  0  0  0  0  0 
    3.4001   -4.1535    2.4996 H   0  0  0  0  0  0  0  0  0  0  0  0 
  1 11  1  0  0  0  0 
  2  8  1  0  0  0  0 
  3 18  1  0  0  0  0 
  4  6  2  0  0  0  0 
  5  4  1  0  0  0  0 
  5  7  2  0  0  0  0 
  6  9  1  0  0  0  0 
  6 21  1  0  0  0  0 
  7  9  1  0  0  0  0 
  8  1  1  0  0  0  0 
  8  7  1  0  0  0  0 
  8  3  1  0  0  0  0 
 10  1  1  0  0  0  0 
 12  1  1  0  0  0  0 
 13  2  1  0  0  0  0 
 14  2  1  0  0  0  0 
 15  2  1  0  0  0  0 
 16  3  1  0  0  0  0 
 17  3  1  0  0  0  0 
 19  4  1  0  0  0  0 
 20  5  1  0  0  0  0 
M  END 
>  <HBA> 
1 
 
>  <HBD> 
0 
 
>  <TPSA> 
28.24 
 
>  <cid> 
15528 
 
>  <dipole> 
0.75 
 
>  <excitation_energy_1> 
5.453 
 
>  <excitation_energy_2> 
5.54 
 
>  <excitation_energy_3> 
5.606 
 
>  <excitation_energy_4> 
5.736 
 
>  <homo_energy> 
-6.003 
 
>  <homo_lumo_gap> 
5.924 
 
>  <logP> 
3.046 
 
>  <lumo_energy> 
-0.079 
 
>  <melting_point> 
11.33 
 
>  <molecular_refractivity> 
43.59 
 
>  <oscillator_strength_1> 
0.1452 
 
>  <oscillator_strength_2> 
0.0024 
 
>  <oscillator_strength_3> 
0.0043 
 
>  <oscillator_strength_4> 
0.0738 
 
>  <open_babel_can_smiles> 
CC(c1cccs1)(C)C 
 
>  <mulliken_charges> 
21 
1   -0.44043 
2   -0.451463 
3   -0.444773 
4   -0.101443 
5   -0.132026 
6   -0.346267 
7   -0.12054 
8   0.050215 
9   0.222421 
10   0.139153 
11   0.152015 
12   0.151083 
13   0.143517 
14   0.147866 
15   0.148724 
16   0.139551 
17   0.152172 
18   0.152749 
19   0.13654 
20   0.132875 
21   0.168062 
 
>  <lowdin_charges> 
21 
1   -0.439889 
2   -0.438629 
3   -0.436145 
4   -0.184189 
5   -0.201594 
6   -0.324403 
7   -0.149366 
8   0.020413 
9   0.286927 
10   0.146963 
11   0.152721 
12   0.15501 
13   0.15095 
14   0.152487 
15   0.150103 
16   0.147053 
17   0.152161 
18   0.152524 
19   0.163847 
20   0.162156 
21   0.180901 
 
$$$$ 
 
