PCCDB-ID:  37873 
public computational chemistry database (PCCDB) project, http://pccdb.org 
 
 10  9  0  0  0  0  0  0  0  0999 V2000 
    1.1744    0.7524    0.5967 C   0  0  0  0  0  0  0  0  0  0  0  0 
    2.0310   -0.1022    0.0343 C   0  0  0  0  0  0  0  0  0  0  0  0 
    2.5350   -1.3199    0.7644 C   0  0  0  0  0  0  0  0  0  0  0  0 
    2.5599   -0.0137   -1.2325 O   0  0  0  0  0  0  0  0  0  0  0  0 
    2.2079   -1.5968    1.8926 O   0  0  0  0  0  0  0  0  0  0  0  0 
    3.3894   -2.0883    0.0564 O   0  0  0  0  0  0  0  0  0  0  0  0 
    0.8347    0.5639    1.6067 H   0  0  0  0  0  0  0  0  0  0  0  0 
    0.8037    1.6324    0.0788 H   0  0  0  0  0  0  0  0  0  0  0  0 
    2.2173    0.7738   -1.6838 H   0  0  0  0  0  0  0  0  0  0  0  0 
    3.5159   -1.6878   -0.8241 H   0  0  0  0  0  0  0  0  0  0  0  0 
  1  7  1  0  0  0  0 
  2  1  2  0  0  0  0 
  2  3  1  0  0  0  0 
  3  5  2  0  0  0  0 
  4  2  1  0  0  0  0 
  6  3  1  0  0  0  0 
  8  1  1  0  0  0  0 
  9  4  1  0  0  0  0 
 10  6  1  0  0  0  0 
M  END 
>  <HBA> 
3 
 
>  <HBD> 
2 
 
>  <TPSA> 
57.53 
 
>  <cid> 
37873 
 
>  <dipole> 
5.09 
 
>  <excitation_energy_1> 
4.814 
 
>  <excitation_energy_2> 
5.568 
 
>  <excitation_energy_3> 
5.711 
 
>  <excitation_energy_4> 
6.577 
 
>  <homo_energy> 
-7.083 
 
>  <homo_lumo_gap> 
5.929 
 
>  <logP> 
0.143 
 
>  <lumo_energy> 
-1.154 
 
>  <melting_point> 
46.7 
 
>  <molecular_refractivity> 
19.4 
 
>  <oscillator_strength_1> 
0.0 
 
>  <oscillator_strength_2> 
0.1883 
 
>  <oscillator_strength_3> 
0.0036 
 
>  <oscillator_strength_4> 
0.0092 
 
>  <open_babel_can_smiles> 
OC(=O)C(=C)O 
 
>  <mulliken_charges> 
10 
1   -0.402076 
2   0.321123 
3   0.578331 
4   -0.664692 
5   -0.451767 
6   -0.578674 
7   0.195424 
8   0.14397 
9   0.422796 
10   0.435565 
 
>  <lowdin_charges> 
10 
1   -0.361073 
2   0.053192 
3   0.184069 
4   -0.396803 
5   -0.235163 
6   -0.343401 
7   0.196463 
8   0.164938 
9   0.370757 
10   0.367022 
 
$$$$ 
 
