PCCDB-ID:  20493 
public computational chemistry database (PCCDB) project, http://pccdb.org 
 
 19 18  0  0  1  0  0  0  0  0999 V2000 
    1.4922   -0.0402   -0.9321 C   0  0  0  0  0  0  0  0  0  0  0  0 
    2.3345   -3.3774   -0.0817 C   0  0  0  0  0  0  0  0  0  0  0  0 
    2.9445   -0.4730   -0.6974 C   0  0  0  0  0  0  0  0  0  0  0  0 
    2.7940   -2.4561    1.0218 C   0  0  0  0  0  0  0  0  0  0  0  0 
    3.2109   -1.0091    0.7168 C   0  0  1  0  0  0  0  0  0  0  0  0 
    4.6948   -0.7917    1.1494 C   0  0  0  0  0  0  0  0  0  0  0  0 
    2.8774   -2.8622    2.1760 O   0  0  0  0  0  0  0  0  0  0  0  0 
    5.4929   -0.2020    0.4633 O   0  0  0  0  0  0  0  0  0  0  0  0 
    5.0066   -1.2544    2.3684 O   0  0  0  0  0  0  0  0  0  0  0  0 
    1.3658    0.3473   -1.9486 H   0  0  0  0  0  0  0  0  0  0  0  0 
    1.2044    0.7575   -0.2365 H   0  0  0  0  0  0  0  0  0  0  0  0 
    0.7757   -0.8601   -0.8027 H   0  0  0  0  0  0  0  0  0  0  0  0 
    3.1479   -3.5259   -0.8033 H   0  0  0  0  0  0  0  0  0  0  0  0 
    1.4906   -2.9556   -0.6364 H   0  0  0  0  0  0  0  0  0  0  0  0 
    2.0539   -4.3392    0.3509 H   0  0  0  0  0  0  0  0  0  0  0  0 
    3.6095    0.3813   -0.8479 H   0  0  0  0  0  0  0  0  0  0  0  0 
    3.2500   -1.2144   -1.4452 H   0  0  0  0  0  0  0  0  0  0  0  0 
    2.6366   -0.4081    1.4399 H   0  0  0  0  0  0  0  0  0  0  0  0 
    4.2524   -1.7902    2.7102 H   0  0  0  0  0  0  0  0  0  0  0  0 
  1 12  1  0  0  0  0 
  1  3  1  0  0  0  0 
  1 11  1  0  0  0  0 
  2 15  1  0  0  0  0 
  2  4  1  0  0  0  0 
  3  5  1  0  0  0  0 
  4  7  2  0  0  0  0 
  5  4  1  0  0  0  0 
  5  6  1  0  0  0  0 
  5 18  1  1  0  0  0 
  6  9  1  0  0  0  0 
  8  6  2  0  0  0  0 
  9 19  1  0  0  0  0 
 10  1  1  0  0  0  0 
 13  2  1  0  0  0  0 
 14  2  1  0  0  0  0 
 16  3  1  0  0  0  0 
 17  3  1  0  0  0  0 
M  END 
>  <HBA> 
3 
 
>  <HBD> 
1 
 
>  <TPSA> 
54.37 
 
>  <cid> 
20493 
 
>  <dipole> 
4.49 
 
>  <excitation_energy_1> 
4.393 
 
>  <excitation_energy_2> 
5.157 
 
>  <excitation_energy_3> 
5.895 
 
>  <excitation_energy_4> 
6.191 
 
>  <homo_energy> 
-7.391 
 
>  <homo_lumo_gap> 
5.962 
 
>  <logP> 
0.686 
 
>  <lumo_energy> 
-1.429 
 
>  <melting_point> 
71.99 
 
>  <molecular_refractivity> 
32.93 
 
>  <oscillator_strength_1> 
0.002 
 
>  <oscillator_strength_2> 
0.0274 
 
>  <oscillator_strength_3> 
0.0103 
 
>  <oscillator_strength_4> 
0.0021 
 
>  <open_babel_can_smiles> 
CC[C@H](C(=O)O)C(=O)C 
 
>  <mulliken_charges> 
19 
1   -0.462339 
2   -0.540393 
3   -0.264643 
4   0.463484 
5   -0.309576 
6   0.604158 
7   -0.462968 
8   -0.440044 
9   -0.577444 
10   0.159434 
11   0.153157 
12   0.142029 
13   0.191966 
14   0.186668 
15   0.191883 
16   0.18593 
17   0.145315 
18   0.197395 
19   0.43599 
 
>  <lowdin_charges> 
19 
1   -0.448784 
2   -0.469032 
3   -0.279848 
4   0.180518 
5   -0.205213 
6   0.194457 
7   -0.252922 
8   -0.241253 
9   -0.351989 
10   0.158181 
11   0.152806 
12   0.143506 
13   0.183921 
14   0.179454 
15   0.180365 
16   0.174495 
17   0.150473 
18   0.187279 
19   0.363585 
 
$$$$ 
 
