PCCDB-ID:  50007 
public computational chemistry database (PCCDB) project, http://pccdb.org 
 
 31 30  0  0  1  0  0  0  0  0999 V2000 
   -0.2944    1.1762   -0.4920 C   0  0  0  0  0  0  0  0  0  0  0  0 
    4.0431   -0.0151    0.2893 C   0  0  0  0  0  0  0  0  0  0  0  0 
    5.2397   -0.7937   -4.3703 C   0  0  0  0  0  0  0  0  0  0  0  0 
    1.2381    1.1540   -0.4885 C   0  0  0  0  0  0  0  0  0  0  0  0 
    1.8125   -0.1966   -0.9415 C   0  0  0  0  0  0  0  0  0  0  0  0 
    3.8367   -1.5897   -1.6618 C   0  0  0  0  0  0  0  0  0  0  0  0 
    3.3476   -1.9414   -3.0783 C   0  0  0  0  0  0  0  0  0  0  0  0 
    3.3492   -0.2511   -1.0626 C   0  0  2  0  0  0  0  0  0  0  0  0 
    3.7197   -0.9537   -4.1980 C   0  0  2  0  0  0  0  0  0  0  0  0 
    3.0292   -1.3853   -5.4266 N   0  0  0  0  0  0  0  0  0  0  0  0 
   -0.6817    2.1502   -0.1711 H   0  0  0  0  0  0  0  0  0  0  0  0 
   -0.7032    0.4163    0.1855 H   0  0  0  0  0  0  0  0  0  0  0  0 
   -0.6918    0.9723   -1.4939 H   0  0  0  0  0  0  0  0  0  0  0  0 
    3.7917    0.9612    0.7164 H   0  0  0  0  0  0  0  0  0  0  0  0 
    5.1338   -0.0578    0.1837 H   0  0  0  0  0  0  0  0  0  0  0  0 
    3.7511   -0.7836    1.0176 H   0  0  0  0  0  0  0  0  0  0  0  0 
    5.7233   -0.3986   -3.4689 H   0  0  0  0  0  0  0  0  0  0  0  0 
    5.4659   -0.1053   -5.1941 H   0  0  0  0  0  0  0  0  0  0  0  0 
    5.7063   -1.7605   -4.6041 H   0  0  0  0  0  0  0  0  0  0  0  0 
    1.5975    1.3994    0.5189 H   0  0  0  0  0  0  0  0  0  0  0  0 
    1.6160    1.9471   -1.1501 H   0  0  0  0  0  0  0  0  0  0  0  0 
    1.3644   -0.4465   -1.9123 H   0  0  0  0  0  0  0  0  0  0  0  0 
    1.4823   -0.9827   -0.2442 H   0  0  0  0  0  0  0  0  0  0  0  0 
    4.9353   -1.5940   -1.6475 H   0  0  0  0  0  0  0  0  0  0  0  0 
    3.5310   -2.4020   -0.9855 H   0  0  0  0  0  0  0  0  0  0  0  0 
    2.2581   -2.0569   -3.0918 H   0  0  0  0  0  0  0  0  0  0  0  0 
    3.7569   -2.9289   -3.3442 H   0  0  0  0  0  0  0  0  0  0  0  0 
    3.6591    0.5614   -1.7382 H   0  0  0  0  0  0  0  0  0  0  0  0 
    3.2985    0.0301   -3.9488 H   0  0  0  0  0  0  0  0  0  0  0  0 
    3.2542   -0.7427   -6.1865 H   0  0  0  0  0  0  0  0  0  0  0  0 
    3.4005   -2.2920   -5.7156 H   0  0  0  0  0  0  0  0  0  0  0  0 
  1  4  1  0  0  0  0 
  1 11  1  0  0  0  0 
  1 12  1  0  0  0  0 
  2 14  1  0  0  0  0 
  2 16  1  0  0  0  0 
  3  9  1  0  0  0  0 
  3 17  1  0  0  0  0 
  4 20  1  0  0  0  0 
  5  4  1  0  0  0  0 
  5 23  1  0  0  0  0 
  6 24  1  0  0  0  0 
  6  8  1  0  0  0  0 
  6 25  1  0  0  0  0 
  7  6  1  0  0  0  0 
  8 28  1  6  0  0  0 
  8  5  1  0  0  0  0 
  8  2  1  0  0  0  0 
  9 29  1  1  0  0  0 
  9  7  1  0  0  0  0 
 10  9  1  0  0  0  0 
 13  1  1  0  0  0  0 
 15  2  1  0  0  0  0 
 18  3  1  0  0  0  0 
 19  3  1  0  0  0  0 
 21  4  1  0  0  0  0 
 22  5  1  0  0  0  0 
 26  7  1  0  0  0  0 
 27  7  1  0  0  0  0 
 30 10  1  0  0  0  0 
 31 10  1  0  0  0  0 
M  END 
>  <HBA> 
1 
 
>  <HBD> 
1 
 
>  <TPSA> 
26.02 
 
>  <cid> 
50007 
 
>  <dipole> 
1.29 
 
>  <excitation_energy_1> 
5.665 
 
>  <excitation_energy_2> 
6.258 
 
>  <excitation_energy_3> 
6.357 
 
>  <excitation_energy_4> 
6.578 
 
>  <homo_energy> 
-6.237 
 
>  <homo_lumo_gap> 
8.283 
 
>  <logP> 
3.25 
 
>  <lumo_energy> 
2.046 
 
>  <melting_point> 
25.69 
 
>  <molecular_refractivity> 
48.08 
 
>  <oscillator_strength_1> 
0.0389 
 
>  <oscillator_strength_2> 
0.0063 
 
>  <oscillator_strength_3> 
0.0085 
 
>  <oscillator_strength_4> 
0.0023 
 
>  <open_babel_can_smiles> 
CCC[C@H](CC[C@H](N)C)C 
 
>  <mulliken_charges> 
31 
1   -0.442575 
2   -0.450848 
3   -0.450751 
4   -0.253125 
5   -0.251809 
6   -0.26212 
7   -0.258619 
8   -0.073571 
9   0.026999 
10   -0.710267 
11   0.13996 
12   0.140923 
13   0.1434 
14   0.144735 
15   0.137051 
16   0.137497 
17   0.145126 
18   0.133686 
19   0.133244 
20   0.13418 
21   0.128003 
22   0.139068 
23   0.121471 
24   0.126828 
25   0.125598 
26   0.1532 
27   0.115989 
28   0.119351 
29   0.132842 
30   0.289347 
31   0.285189 
 
>  <lowdin_charges> 
31 
1   -0.444788 
2   -0.444746 
3   -0.465802 
4   -0.274158 
5   -0.279529 
6   -0.277176 
7   -0.281422 
8   -0.12706 
9   -0.065381 
10   -0.552455 
11   0.148107 
12   0.147139 
13   0.146351 
14   0.14861 
15   0.144548 
16   0.145611 
17   0.150489 
18   0.145628 
19   0.143113 
20   0.139189 
21   0.138715 
22   0.144219 
23   0.136844 
24   0.136793 
25   0.142085 
26   0.14973 
27   0.136256 
28   0.133499 
29   0.136901 
30   0.251052 
31   0.247636 
 
$$$$ 
 
