PCCDB-ID:  69333 
public computational chemistry database (PCCDB) project, http://pccdb.org 
 
 18 18  0  0  0  0  0  0  0  0999 V2000 
    0.9426   -0.0484    0.0080 C   0  0  0  0  0  0  0  0  0  0  0  0 
    3.1468   -1.2797   -0.2565 C   0  0  0  0  0  0  0  0  0  0  0  0 
    3.2050    1.1024   -0.0270 C   0  0  0  0  0  0  0  0  0  0  0  0 
    4.5343   -1.3085   -0.3680 C   0  0  0  0  0  0  0  0  0  0  0  0 
    4.5941    1.0943   -0.1441 C   0  0  0  0  0  0  0  0  0  0  0  0 
    2.4506   -0.0756   -0.0865 C   0  0  0  0  0  0  0  0  0  0  0  0 
    5.2709   -0.1170   -0.3190 C   0  0  0  0  0  0  0  0  0  0  0  0 
    6.6726   -0.1725   -0.5335 N   0  0  0  0  0  0  0  0  0  0  0  0 
    7.3646    0.9146    0.0904 O   0  0  0  0  0  0  0  0  0  0  0  0 
    0.5493   -0.9876    0.4125 H   0  0  0  0  0  0  0  0  0  0  0  0 
    0.4777    0.0996   -0.9765 H   0  0  0  0  0  0  0  0  0  0  0  0 
    0.5952    0.7656    0.6540 H   0  0  0  0  0  0  0  0  0  0  0  0 
    2.5952   -2.2168   -0.2928 H   0  0  0  0  0  0  0  0  0  0  0  0 
    2.6970    2.0537    0.1187 H   0  0  0  0  0  0  0  0  0  0  0  0 
    5.0488   -2.2588   -0.4969 H   0  0  0  0  0  0  0  0  0  0  0  0 
    5.1611    2.0154   -0.0776 H   0  0  0  0  0  0  0  0  0  0  0  0 
    7.0674   -1.0136   -0.1162 H   0  0  0  0  0  0  0  0  0  0  0  0 
    7.7938    1.3503   -0.6637 H   0  0  0  0  0  0  0  0  0  0  0  0 
  1 10  1  0  0  0  0 
  1 12  1  0  0  0  0 
  2  6  2  0  0  0  0 
  3 14  1  0  0  0  0 
  4  7  2  0  0  0  0 
  4  2  1  0  0  0  0 
  5 16  1  0  0  0  0 
  5  3  2  0  0  0  0 
  6  3  1  0  0  0  0 
  6  1  1  0  0  0  0 
  7  5  1  0  0  0  0 
  8  7  1  0  0  0  0 
  8 17  1  0  0  0  0 
  8  9  1  0  0  0  0 
 11  1  1  0  0  0  0 
 13  2  1  0  0  0  0 
 15  4  1  0  0  0  0 
 18  9  1  0  0  0  0 
M  END 
>  <HBA> 
2 
 
>  <HBD> 
2 
 
>  <TPSA> 
32.26 
 
>  <cid> 
69333 
 
>  <dipole> 
0.77 
 
>  <excitation_energy_1> 
4.681 
 
>  <excitation_energy_2> 
4.987 
 
>  <excitation_energy_3> 
5.216 
 
>  <excitation_energy_4> 
5.489 
 
>  <homo_energy> 
-5.48 
 
>  <homo_lumo_gap> 
5.633 
 
>  <logP> 
1.869 
 
>  <lumo_energy> 
0.152 
 
>  <melting_point> 
97.28 
 
>  <molecular_refractivity> 
36.64 
 
>  <oscillator_strength_1> 
0.0194 
 
>  <oscillator_strength_2> 
0.0599 
 
>  <oscillator_strength_3> 
0.0739 
 
>  <oscillator_strength_4> 
0.006 
 
>  <open_babel_can_smiles> 
ONc1ccc(cc1)C 
 
>  <mulliken_charges> 
18 
1   -0.529445 
2   -0.188153 
3   -0.190982 
4   -0.179076 
5   -0.151912 
6   0.179972 
7   0.305389 
8   -0.433881 
9   -0.515299 
10   0.152759 
11   0.161202 
12   0.154369 
13   0.119788 
14   0.119682 
15   0.118538 
16   0.132618 
17   0.327887 
18   0.416544 
 
>  <lowdin_charges> 
18 
1   -0.442419 
2   -0.159024 
3   -0.157379 
4   -0.191662 
5   -0.185645 
6   -0.017333 
7   0.03837 
8   -0.199317 
9   -0.407178 
10   0.155773 
11   0.158094 
12   0.157262 
13   0.153901 
14   0.153556 
15   0.153418 
16   0.163858 
17   0.270562 
18   0.355163 
 
$$$$ 
 
