PCCDB-ID:  16505 
public computational chemistry database (PCCDB) project, http://pccdb.org 
 
 23 23  0  0  0  0  0  0  0  0999 V2000 
    0.9700    0.2189   -0.4904 C   0  0  0  0  0  0  0  0  0  0  0  0 
    2.0539   -2.4782   -0.2235 C   0  0  0  0  0  0  0  0  0  0  0  0 
    4.7916   -3.8694   -0.7024 C   0  0  0  0  0  0  0  0  0  0  0  0 
    4.6068    0.9820    0.3379 C   0  0  0  0  0  0  0  0  0  0  0  0 
    3.2569    1.1240    0.0197 C   0  0  0  0  0  0  0  0  0  0  0  0 
    5.1499   -0.2909    0.4378 C   0  0  0  0  0  0  0  0  0  0  0  0 
    2.4357    0.0096   -0.1790 C   0  0  0  0  0  0  0  0  0  0  0  0 
    2.9831   -1.2899   -0.0794 C   0  0  0  0  0  0  0  0  0  0  0  0 
    5.1141   -2.7342    0.2647 C   0  0  0  0  0  0  0  0  0  0  0  0 
    4.3601   -1.4297    0.2040 C   0  0  0  0  0  0  0  0  0  0  0  0 
    6.0564   -2.8589    1.0318 O   0  0  0  0  0  0  0  0  0  0  0  0 
    0.7527    1.2815   -0.6336 H   0  0  0  0  0  0  0  0  0  0  0  0 
    0.3221   -0.1414    0.3197 H   0  0  0  0  0  0  0  0  0  0  0  0 
    0.6626   -0.3098   -1.4008 H   0  0  0  0  0  0  0  0  0  0  0  0 
    1.0918   -2.2769    0.2581 H   0  0  0  0  0  0  0  0  0  0  0  0 
    2.4564   -3.3815    0.2357 H   0  0  0  0  0  0  0  0  0  0  0  0 
    1.8365   -2.7075   -1.2760 H   0  0  0  0  0  0  0  0  0  0  0  0 
    4.1989   -3.5532   -1.5638 H   0  0  0  0  0  0  0  0  0  0  0  0 
    4.2517   -4.6694   -0.1817 H   0  0  0  0  0  0  0  0  0  0  0  0 
    5.7414   -4.2924   -1.0419 H   0  0  0  0  0  0  0  0  0  0  0  0 
    5.2268    1.8590    0.5020 H   0  0  0  0  0  0  0  0  0  0  0  0 
    2.8245    2.1182   -0.0676 H   0  0  0  0  0  0  0  0  0  0  0  0 
    6.1962   -0.4359    0.6846 H   0  0  0  0  0  0  0  0  0  0  0  0 
  1  7  1  0  0  0  0 
  1 13  1  0  0  0  0 
  2  8  1  0  0  0  0 
  2 16  1  0  0  0  0 
  2 15  1  0  0  0  0 
  3 19  1  0  0  0  0 
  3  9  1  0  0  0  0 
  4  6  1  0  0  0  0 
  4 21  1  0  0  0  0 
  5  4  2  0  0  0  0 
  6 23  1  0  0  0  0 
  7  8  2  0  0  0  0 
  7  5  1  0  0  0  0 
  8 10  1  0  0  0  0 
  9 11  2  0  0  0  0 
 10  9  1  0  0  0  0 
 10  6  2  0  0  0  0 
 12  1  1  0  0  0  0 
 14  1  1  0  0  0  0 
 17  2  1  0  0  0  0 
 18  3  1  0  0  0  0 
 20  3  1  0  0  0  0 
 22  5  1  0  0  0  0 
M  END 
>  <HBA> 
1 
 
>  <HBD> 
0 
 
>  <TPSA> 
17.07 
 
>  <cid> 
16505 
 
>  <dipole> 
3.33 
 
>  <excitation_energy_1> 
3.838 
 
>  <excitation_energy_2> 
4.504 
 
>  <excitation_energy_3> 
4.997 
 
>  <excitation_energy_4> 
5.624 
 
>  <homo_energy> 
-6.46 
 
>  <homo_lumo_gap> 
5.252 
 
>  <logP> 
2.506 
 
>  <lumo_energy> 
-1.208 
 
>  <melting_point> 
47.89 
 
>  <molecular_refractivity> 
46.57 
 
>  <oscillator_strength_1> 
0.0037 
 
>  <oscillator_strength_2> 
0.0276 
 
>  <oscillator_strength_3> 
0.1708 
 
>  <oscillator_strength_4> 
0.0314 
 
>  <open_babel_can_smiles> 
CC(=O)c1cccc(c1C)C 
 
>  <mulliken_charges> 
23 
1   -0.536029 
2   -0.537963 
3   -0.532275 
4   -0.129926 
5   -0.173644 
6   -0.157491 
7   0.125959 
8   0.084662 
9   0.373087 
10   0.018489 
11   -0.444094 
12   0.157582 
13   0.164518 
14   0.16047 
15   0.163486 
16   0.16164 
17   0.163159 
18   0.161636 
19   0.178551 
20   0.182432 
21   0.133171 
22   0.126106 
23   0.156474 
 
>  <lowdin_charges> 
23 
1   -0.44275 
2   -0.446039 
3   -0.477025 
4   -0.161472 
5   -0.154172 
6   -0.135359 
7   -0.0084 
8   -0.003557 
9   0.161418 
10   -0.055103 
11   -0.242636 
12   0.157243 
13   0.160843 
14   0.159186 
15   0.162887 
16   0.162744 
17   0.159393 
18   0.16185 
19   0.175538 
20   0.177604 
21   0.160827 
22   0.155609 
23   0.171369 
 
$$$$ 
 
