PCCDB-ID:  25143 
public computational chemistry database (PCCDB) project, http://pccdb.org 
 
 21 22  0  0  0  0  0  0  0  0999 V2000 
    1.8601   -0.9667   -0.4030 C   0  0  0  0  0  0  0  0  0  0  0  0 
    4.7315   -0.4839    3.4896 C   0  0  0  0  0  0  0  0  0  0  0  0 
    3.5376   -2.1302    1.5007 C   0  0  0  0  0  0  0  0  0  0  0  0 
    5.5500   -3.9596    3.8495 C   0  0  0  0  0  0  0  0  0  0  0  0 
    3.9176    0.0718    2.4791 C   0  0  0  0  0  0  0  0  0  0  0  0 
    3.3101   -0.7344    1.4824 C   0  0  0  0  0  0  0  0  0  0  0  0 
    4.9334   -1.8390    3.4703 C   0  0  0  0  0  0  0  0  0  0  0  0 
    4.3476   -2.6412    2.4934 C   0  0  0  0  0  0  0  0  0  0  0  0 
    3.7432    1.5221    2.5303 N   0  0  0  0  0  0  0  0  0  0  0  0 
    4.0802    2.0905    3.5767 O   0  0  0  0  0  0  0  0  0  0  0  0 
    3.2937    2.1067    1.5465 O   0  0  0  0  0  0  0  0  0  0  0  0 
    2.5145   -0.1524    0.5622 O   0  0  0  0  0  0  0  0  0  0  0  0 
    5.6838   -2.6177    4.3211 O   0  0  0  0  0  0  0  0  0  0  0  0 
    4.6990   -3.9427    2.6865 O   0  0  0  0  0  0  0  0  0  0  0  0 
    1.2733   -0.2762   -1.0097 H   0  0  0  0  0  0  0  0  0  0  0  0 
    1.1918   -1.6960    0.0718 H   0  0  0  0  0  0  0  0  0  0  0  0 
    2.5818   -1.4901   -1.0425 H   0  0  0  0  0  0  0  0  0  0  0  0 
    5.1639    0.1668    4.2371 H   0  0  0  0  0  0  0  0  0  0  0  0 
    3.0936   -2.7882    0.7668 H   0  0  0  0  0  0  0  0  0  0  0  0 
    5.0845   -4.5806    4.6230 H   0  0  0  0  0  0  0  0  0  0  0  0 
    6.5323   -4.3538    3.5667 H   0  0  0  0  0  0  0  0  0  0  0  0 
  1 16  1  0  0  0  0 
  1 12  1  0  0  0  0 
  2 18  1  0  0  0  0 
  3  8  1  0  0  0  0 
  4 13  1  0  0  0  0 
  4 20  1  0  0  0  0 
  5  9  1  0  0  0  0 
  5  2  2  0  0  0  0 
  6  3  2  0  0  0  0 
  6  5  1  0  0  0  0 
  7  2  1  0  0  0  0 
  7 13  1  0  0  0  0 
  8 14  1  0  0  0  0 
  8  7  2  0  0  0  0 
  9 10  2  0  0  0  0 
 11  9  2  0  0  0  0 
 12  6  1  0  0  0  0 
 14  4  1  0  0  0  0 
 15  1  1  0  0  0  0 
 17  1  1  0  0  0  0 
 19  3  1  0  0  0  0 
 21  4  1  0  0  0  0 
M  END 
>  <HBA> 
3 
 
>  <HBD> 
0 
 
>  <TPSA> 
73.51 
 
>  <cid> 
25143 
 
>  <dipole> 
6.51 
 
>  <excitation_energy_1> 
3.466 
 
>  <excitation_energy_2> 
3.658 
 
>  <excitation_energy_3> 
4.3 
 
>  <excitation_energy_4> 
4.531 
 
>  <homo_energy> 
-5.965 
 
>  <homo_lumo_gap> 
4.025 
 
>  <logP> 
1.855 
 
>  <lumo_energy> 
-1.94 
 
>  <melting_point> 
83.68 
 
>  <molecular_refractivity> 
47.82 
 
>  <oscillator_strength_1> 
0.1472 
 
>  <oscillator_strength_2> 
0.0009 
 
>  <oscillator_strength_3> 
0.0034 
 
>  <oscillator_strength_4> 
0.0624 
 
>  <open_babel_can_smiles> 
COc1cc2OCOc2cc1N(=O)=O 
 
>  <mulliken_charges> 
21 
1   -0.222758 
2   -0.226825 
3   -0.278694 
4   0.189826 
5   0.233612 
6   0.369488 
7   0.337731 
8   0.364351 
9   0.357341 
10   -0.408394 
11   -0.389444 
12   -0.47448 
13   -0.532752 
14   -0.527023 
15   0.188459 
16   0.15848 
17   0.159795 
18   0.198468 
19   0.161693 
20   0.170495 
21   0.170631 
 
>  <lowdin_charges> 
21 
1   -0.281136 
2   -0.159213 
3   -0.237864 
4   0.021642 
5   -0.03564 
6   0.119604 
7   0.056117 
8   0.098888 
9   0.310037 
10   -0.272952 
11   -0.241318 
12   -0.159345 
13   -0.200992 
14   -0.190934 
15   0.174745 
16   0.150963 
17   0.151733 
18   0.202264 
19   0.183742 
20   0.155641 
21   0.154017 
 
$$$$ 
 
