PCCDB-ID:  22464 
public computational chemistry database (PCCDB) project, http://pccdb.org 
 
 13 12  0  0  0  0  0  0  0  0999 V2000 
    0.8559   -0.0029   -0.0433 C   0  0  0  0  0  0  0  0  0  0  0  0 
    2.0612   -0.0362    0.0194 C   0  0  0  0  0  0  0  0  0  0  0  0 
    3.5224   -0.0686    0.0715 C   0  0  0  0  0  0  0  0  0  0  0  0 
    4.1610    0.3693   -1.2575 C   0  0  0  0  0  0  0  0  0  0  0  0 
    5.6831    0.3384   -1.1957 C   0  0  0  0  0  0  0  0  0  0  0  0 
    6.3221    0.0314   -0.2215 O   0  0  0  0  0  0  0  0  0  0  0  0 
    6.3190    0.6920   -2.3462 O   0  0  0  0  0  0  0  0  0  0  0  0 
   -0.2092    0.0252   -0.0863 H   0  0  0  0  0  0  0  0  0  0  0  0 
    3.8727   -1.0770    0.3218 H   0  0  0  0  0  0  0  0  0  0  0  0 
    3.8909    0.5802    0.8748 H   0  0  0  0  0  0  0  0  0  0  0  0 
    3.8348    1.3854   -1.5176 H   0  0  0  0  0  0  0  0  0  0  0  0 
    3.8205   -0.2807   -2.0747 H   0  0  0  0  0  0  0  0  0  0  0  0 
    5.6698    0.9128   -3.0349 H   0  0  0  0  0  0  0  0  0  0  0  0 
  1  2  3  0  0  0  0 
  2  3  1  0  0  0  0 
  3  9  1  0  0  0  0 
  3 10  1  0  0  0  0 
  4  5  1  0  0  0  0 
  4  3  1  0  0  0  0 
  5  6  2  0  0  0  0 
  7  5  1  0  0  0  0 
  8  1  1  0  0  0  0 
 11  4  1  0  0  0  0 
 12  4  1  0  0  0  0 
 13  7  1  0  0  0  0 
M  END 
>  <HBA> 
2 
 
>  <HBD> 
1 
 
>  <TPSA> 
37.3 
 
>  <cid> 
22464 
 
>  <dipole> 
3.72 
 
>  <excitation_energy_1> 
5.733 
 
>  <excitation_energy_2> 
6.381 
 
>  <excitation_energy_3> 
6.386 
 
>  <excitation_energy_4> 
6.562 
 
>  <homo_energy> 
-7.295 
 
>  <homo_lumo_gap> 
7.369 
 
>  <logP> 
0.484 
 
>  <lumo_energy> 
0.073 
 
>  <melting_point> 
68.61 
 
>  <molecular_refractivity> 
26.08 
 
>  <oscillator_strength_1> 
0.0003 
 
>  <oscillator_strength_2> 
0.0197 
 
>  <oscillator_strength_3> 
0.0225 
 
>  <oscillator_strength_4> 
0.0011 
 
>  <open_babel_can_smiles> 
C#CCCC(=O)O 
 
>  <mulliken_charges> 
13 
1   -0.519706 
2   0.359173 
3   -0.400067 
4   -0.409139 
5   0.621475 
6   -0.436312 
7   -0.568539 
8   0.190709 
9   0.194055 
10   0.195063 
11   0.182229 
12   0.180354 
13   0.410704 
 
>  <lowdin_charges> 
13 
1   -0.255416 
2   -0.0449 
3   -0.253199 
4   -0.317767 
5   0.197642 
6   -0.235581 
7   -0.356973 
8   0.203519 
9   0.179682 
10   0.18178 
11   0.170107 
12   0.170514 
13   0.360591 
 
$$$$ 
 
