PCCDB-ID:  35874 
public computational chemistry database (PCCDB) project, http://pccdb.org 
 
 39 40  0  0  0  0  0  0  0  0999 V2000 
    0.9682   -1.3347    2.6222 C   0  0  0  0  0  0  0  0  0  0  0  0 
   -0.5375   -1.6103    2.5066 C   0  0  0  0  0  0  0  0  0  0  0  0 
    1.5732   -1.6374    4.0036 C   0  0  0  0  0  0  0  0  0  0  0  0 
   -1.0754   -1.3964    1.0843 C   0  0  0  0  0  0  0  0  0  0  0  0 
   -7.1229   -1.6909    2.0423 C   0  0  0  0  0  0  0  0  0  0  0  0 
   -7.5706   -0.4875    2.6252 C   0  0  0  0  0  0  0  0  0  0  0  0 
    1.0545   -0.7391    5.1363 C   0  0  0  0  0  0  0  0  0  0  0  0 
   -2.5873   -1.6374    0.9316 C   0  0  0  0  0  0  0  0  0  0  0  0 
   -5.7975   -1.8510    1.6577 C   0  0  0  0  0  0  0  0  0  0  0  0 
   -6.7027    0.5785    2.8333 C   0  0  0  0  0  0  0  0  0  0  0  0 
    1.7744   -0.9494    6.4728 C   0  0  0  0  0  0  0  0  0  0  0  0 
   -3.1710    0.6475    2.0100 C   0  0  0  0  0  0  0  0  0  0  0  0 
   -3.4843   -0.6213    1.5897 C   0  0  0  0  0  0  0  0  0  0  0  0 
   -4.8931   -0.7935    1.8582 C   0  0  0  0  0  0  0  0  0  0  0  0 
   -5.3695    0.4119    2.4437 C   0  0  0  0  0  0  0  0  0  0  0  0 
    1.5246   -2.2932    7.0121 N   0  0  0  0  0  0  0  0  0  0  0  0 
   -4.2971    1.2751    2.5182 N   0  0  0  0  0  0  0  0  0  0  0  0 
    1.1667   -0.2830    2.3650 H   0  0  0  0  0  0  0  0  0  0  0  0 
    1.4971   -1.9346    1.8673 H   0  0  0  0  0  0  0  0  0  0  0  0 
   -1.0935   -0.9755    3.2064 H   0  0  0  0  0  0  0  0  0  0  0  0 
   -0.7396   -2.6477    2.8129 H   0  0  0  0  0  0  0  0  0  0  0  0 
    2.6666   -1.5302    3.9395 H   0  0  0  0  0  0  0  0  0  0  0  0 
    1.3771   -2.6904    4.2518 H   0  0  0  0  0  0  0  0  0  0  0  0 
   -0.5473   -2.0743    0.3996 H   0  0  0  0  0  0  0  0  0  0  0  0 
   -0.8292   -0.3802    0.7428 H   0  0  0  0  0  0  0  0  0  0  0  0 
   -7.8292   -2.5027    1.8909 H   0  0  0  0  0  0  0  0  0  0  0  0 
   -8.6132   -0.3901    2.9158 H   0  0  0  0  0  0  0  0  0  0  0  0 
   -0.0172   -0.9093    5.2938 H   0  0  0  0  0  0  0  0  0  0  0  0 
    1.1754    0.3138    4.8410 H   0  0  0  0  0  0  0  0  0  0  0  0 
   -2.8272   -2.6347    1.3288 H   0  0  0  0  0  0  0  0  0  0  0  0 
   -2.8278   -1.6876   -0.1413 H   0  0  0  0  0  0  0  0  0  0  0  0 
   -5.4644   -2.7831    1.2080 H   0  0  0  0  0  0  0  0  0  0  0  0 
   -7.0491    1.5063    3.2819 H   0  0  0  0  0  0  0  0  0  0  0  0 
    1.3837   -0.2288    7.2018 H   0  0  0  0  0  0  0  0  0  0  0  0 
    2.8484   -0.7139    6.3425 H   0  0  0  0  0  0  0  0  0  0  0  0 
   -2.2259    1.1720    1.9877 H   0  0  0  0  0  0  0  0  0  0  0  0 
    2.0198   -2.9857    6.4526 H   0  0  0  0  0  0  0  0  0  0  0  0 
    1.9187   -2.3636    7.9489 H   0  0  0  0  0  0  0  0  0  0  0  0 
   -4.3143    2.1969    2.9246 H   0  0  0  0  0  0  0  0  0  0  0  0 
  1  3  1  0  0  0  0 
  2  1  1  0  0  0  0 
  2 21  1  0  0  0  0 
  2 20  1  0  0  0  0 
  3 23  1  0  0  0  0 
  3  7  1  0  0  0  0 
  4  2  1  0  0  0  0 
  5  6  2  0  0  0  0 
  6 10  1  0  0  0  0 
  6 27  1  0  0  0  0 
  7 28  1  0  0  0  0 
  7 11  1  0  0  0  0 
  8  4  1  0  0  0  0 
  8 30  1  0  0  0  0 
  8 13  1  0  0  0  0 
  9 14  2  0  0  0  0 
  9  5  1  0  0  0  0 
 10 33  1  0  0  0  0 
 11 16  1  0  0  0  0 
 11 34  1  0  0  0  0 
 12 17  1  0  0  0  0 
 13 14  1  0  0  0  0 
 13 12  2  0  0  0  0 
 14 15  1  0  0  0  0 
 15 17  1  0  0  0  0 
 15 10  2  0  0  0  0 
 16 38  1  0  0  0  0 
 17 39  1  0  0  0  0 
 18  1  1  0  0  0  0 
 19  1  1  0  0  0  0 
 22  3  1  0  0  0  0 
 24  4  1  0  0  0  0 
 25  4  1  0  0  0  0 
 26  5  1  0  0  0  0 
 29  7  1  0  0  0  0 
 31  8  1  0  0  0  0 
 32  9  1  0  0  0  0 
 35 11  1  0  0  0  0 
 36 12  1  0  0  0  0 
 37 16  1  0  0  0  0 
M  END 
>  <HBA> 
1 
 
>  <HBD> 
2 
 
>  <TPSA> 
41.81 
 
>  <cid> 
35874 
 
>  <dipole> 
2.88 
 
>  <excitation_energy_1> 
4.524 
 
>  <excitation_energy_2> 
4.627 
 
>  <excitation_energy_3> 
4.811 
 
>  <excitation_energy_4> 
5.098 
 
>  <homo_energy> 
-5.208 
 
>  <homo_lumo_gap> 
5.211 
 
>  <logP> 
4.32 
 
>  <lumo_energy> 
0.003 
 
>  <melting_point> 
150.03 
 
>  <molecular_refractivity> 
74.81 
 
>  <oscillator_strength_1> 
0.0622 
 
>  <oscillator_strength_2> 
0.0006 
 
>  <oscillator_strength_3> 
0.0264 
 
>  <oscillator_strength_4> 
0.0008 
 
>  <open_babel_can_smiles> 
NCCCCCCCc1c[nH]c2c1cccc2 
 
>  <mulliken_charges> 
39 
1   -0.253745 
2   -0.254127 
3   -0.263849 
4   -0.262676 
5   -0.140054 
6   -0.151463 
7   -0.241005 
8   -0.338072 
9   -0.208996 
10   -0.163919 
11   -0.14008 
12   -0.009757 
13   0.087359 
14   0.069605 
15   0.318415 
16   -0.715848 
17   -0.698634 
18   0.121736 
19   0.125351 
20   0.145431 
21   0.129366 
22   0.121239 
23   0.132583 
24   0.128273 
25   0.126801 
26   0.117705 
27   0.120115 
28   0.151446 
29   0.11881 
30   0.140674 
31   0.145346 
32   0.121466 
33   0.117876 
34   0.135171 
35   0.107737 
36   0.14532 
37   0.295837 
38   0.294619 
39   0.323947 
 
>  <lowdin_charges> 
39 
1   -0.273458 
2   -0.280685 
3   -0.275807 
4   -0.273428 
5   -0.179009 
6   -0.163638 
7   -0.278949 
8   -0.266485 
9   -0.163412 
10   -0.18837 
11   -0.203297 
12   -0.143631 
13   -0.059874 
14   -0.036292 
15   0.030606 
16   -0.562572 
17   -0.200604 
18   0.133184 
19   0.140047 
20   0.146937 
21   0.138167 
22   0.134458 
23   0.137922 
24   0.142999 
25   0.135686 
26   0.154167 
27   0.152982 
28   0.148373 
29   0.135991 
30   0.147324 
31   0.149265 
32   0.154998 
33   0.153823 
34   0.143281 
35   0.111762 
36   0.162812 
37   0.252564 
38   0.253417 
39   0.288746 
 
$$$$ 
 
