PCCDB-ID:  61009 
public computational chemistry database (PCCDB) project, http://pccdb.org 
 
 16 16  0  0  0  0  0  0  0  0999 V2000 
   -0.5920    1.2708    0.0189 C   0  0  0  0  0  0  0  0  0  0  0  0 
   -1.4328    0.1858    0.2367 C   0  0  0  0  0  0  0  0  0  0  0  0 
    1.2906   -0.2340   -0.2223 C   0  0  0  0  0  0  0  0  0  0  0  0 
    0.4498   -1.3190   -0.0045 C   0  0  0  0  0  0  0  0  0  0  0  0 
    2.7350    2.4774   -0.6464 C   0  0  0  0  0  0  0  0  0  0  0  0 
   -2.8770   -2.5245    0.6639 C   0  0  0  0  0  0  0  0  0  0  0  0 
    0.7750    1.0706   -0.2120 C   0  0  0  0  0  0  0  0  0  0  0  0 
   -0.9171   -1.1188    0.2267 C   0  0  0  0  0  0  0  0  0  0  0  0 
    1.5808    2.1901   -0.4255 N   0  0  0  0  0  0  0  0  0  0  0  0 
   -1.7227   -2.2383    0.4414 N   0  0  0  0  0  0  0  0  0  0  0  0 
    3.8154    2.8939   -0.8625 O   0  0  0  0  0  0  0  0  0  0  0  0 
   -3.9573   -2.9400    0.8816 O   0  0  0  0  0  0  0  0  0  0  0  0 
   -0.9839    2.2824    0.0252 H   0  0  0  0  0  0  0  0  0  0  0  0 
   -2.4920    0.3456    0.4158 H   0  0  0  0  0  0  0  0  0  0  0  0 
    2.3498   -0.3938   -0.4014 H   0  0  0  0  0  0  0  0  0  0  0  0 
    0.8418   -2.3305   -0.0105 H   0  0  0  0  0  0  0  0  0  0  0  0 
  1 13  1  0  0  0  0 
  1  2  2  0  0  0  0 
  2 14  1  0  0  0  0 
  3  7  2  0  0  0  0 
  3  4  1  0  0  0  0 
  4  8  2  0  0  0  0 
  5  9  2  0  0  0  0 
  6 12  2  0  0  0  0 
  7  1  1  0  0  0  0 
  8  2  1  0  0  0  0 
  8 10  1  0  0  0  0 
  9  7  1  0  0  0  0 
 10  6  2  0  0  0  0 
 11  5  2  0  0  0  0 
 15  3  1  0  0  0  0 
 16  4  1  0  0  0  0 
M  END 
>  <HBA> 
4 
 
>  <HBD> 
0 
 
>  <TPSA> 
58.86 
 
>  <cid> 
61009 
 
>  <dipole> 
0.0 
 
>  <excitation_energy_1> 
4.667 
 
>  <excitation_energy_2> 
4.942 
 
>  <excitation_energy_3> 
4.948 
 
>  <excitation_energy_4> 
5.165 
 
>  <homo_energy> 
-6.34 
 
>  <homo_lumo_gap> 
5.178 
 
>  <logP> 
1.621 
 
>  <lumo_energy> 
-1.162 
 
>  <melting_point> 
120.62 
 
>  <molecular_refractivity> 
42.01 
 
>  <oscillator_strength_1> 
0.1103 
 
>  <oscillator_strength_2> 
0.4756 
 
>  <oscillator_strength_3> 
0.0 
 
>  <oscillator_strength_4> 
0.0001 
 
>  <open_babel_can_smiles> 
O=C=Nc1ccc(cc1)N=C=O 
 
>  <mulliken_charges> 
16 
1   -0.154448 
2   -0.15229 
3   -0.152119 
4   -0.154649 
5   0.602328 
6   0.602489 
7   0.292252 
8   0.292352 
9   -0.501471 
10   -0.501577 
11   -0.391994 
12   -0.391937 
13   0.156678 
14   0.148851 
15   0.14886 
16   0.156676 
 
>  <lowdin_charges> 
16 
1   -0.152462 
2   -0.16176 
3   -0.161737 
4   -0.152475 
5   0.188015 
6   0.188037 
7   0.060377 
8   0.060382 
9   -0.138312 
10   -0.138379 
11   -0.137517 
12   -0.137425 
13   0.174251 
14   0.167373 
15   0.167381 
16   0.174252 
 
$$$$ 
 
