PCCDB-ID:  41053 
public computational chemistry database (PCCDB) project, http://pccdb.org 
 
 31 30  0  0  1  0  0  0  0  0999 V2000 
    1.9384    0.2763   -0.8581 C   0  0  0  0  0  0  0  0  0  0  0  0 
    1.7566    2.4220    0.4593 C   0  0  0  0  0  0  0  0  0  0  0  0 
    4.8066   -3.2314    4.7500 C   0  0  0  0  0  0  0  0  0  0  0  0 
    5.4332   -0.2230    0.8928 C   0  0  0  0  0  0  0  0  0  0  0  0 
    3.0317    0.4846    1.4484 C   0  0  0  0  0  0  0  0  0  0  0  0 
    3.2808   -2.3356    2.9129 C   0  0  0  0  0  0  0  0  0  0  0  0 
    2.6426    1.2078    0.1416 C   0  0  0  0  0  0  0  0  0  0  0  0 
    3.4330   -2.6498    4.4035 C   0  0  2  0  0  0  0  0  0  0  0  0 
    4.0409   -0.6690    1.3289 C   0  0  2  0  0  0  0  0  0  0  0  0 
    3.1588   -1.4733    5.1600 O   0  0  0  0  0  0  0  0  0  0  0  0 
    4.2028   -1.2948    2.6137 O   0  0  0  0  0  0  0  0  0  0  0  0 
    1.6504    0.8225   -1.7639 H   0  0  0  0  0  0  0  0  0  0  0  0 
    1.0238   -0.1439   -0.4193 H   0  0  0  0  0  0  0  0  0  0  0  0 
    2.5746   -0.5604   -1.1666 H   0  0  0  0  0  0  0  0  0  0  0  0 
    1.4951    2.9727   -0.4521 H   0  0  0  0  0  0  0  0  0  0  0  0 
    2.2600    3.1184    1.1402 H   0  0  0  0  0  0  0  0  0  0  0  0 
    0.8202    2.1072    0.9380 H   0  0  0  0  0  0  0  0  0  0  0  0 
    4.9648   -4.1948    4.2498 H   0  0  0  0  0  0  0  0  0  0  0  0 
    4.8826   -3.3831    5.8309 H   0  0  0  0  0  0  0  0  0  0  0  0 
    5.6021   -2.5485    4.4344 H   0  0  0  0  0  0  0  0  0  0  0  0 
    5.4132    0.2344   -0.1016 H   0  0  0  0  0  0  0  0  0  0  0  0 
    6.1119   -1.0810    0.8669 H   0  0  0  0  0  0  0  0  0  0  0  0 
    5.8356    0.5100    1.6014 H   0  0  0  0  0  0  0  0  0  0  0  0 
    2.1162    0.0989    1.9191 H   0  0  0  0  0  0  0  0  0  0  0  0 
    3.4534    1.2149    2.1534 H   0  0  0  0  0  0  0  0  0  0  0  0 
    2.2480   -2.0113    2.7196 H   0  0  0  0  0  0  0  0  0  0  0  0 
    3.4866   -3.2249    2.2952 H   0  0  0  0  0  0  0  0  0  0  0  0 
    3.5614    1.5829   -0.3323 H   0  0  0  0  0  0  0  0  0  0  0  0 
    2.6523   -3.3694    4.6797 H   0  0  0  0  0  0  0  0  0  0  0  0 
    3.6687   -1.4269    0.6238 H   0  0  0  0  0  0  0  0  0  0  0  0 
    3.6798   -0.7737    4.7290 H   0  0  0  0  0  0  0  0  0  0  0  0 
  1 13  1  0  0  0  0 
  1  7  1  0  0  0  0 
  2 17  1  0  0  0  0 
  2 16  1  0  0  0  0 
  3 19  1  0  0  0  0 
  4  9  1  0  0  0  0 
  4 23  1  0  0  0  0 
  5 24  1  0  0  0  0 
  5 25  1  0  0  0  0 
  6  8  1  0  0  0  0 
  7  2  1  0  0  0  0 
  7  5  1  0  0  0  0 
  8 29  1  1  0  0  0 
  8  3  1  0  0  0  0 
  8 10  1  0  0  0  0 
  9 30  1  6  0  0  0 
  9  5  1  0  0  0  0 
  9 11  1  0  0  0  0 
 11  6  1  0  0  0  0 
 12  1  1  0  0  0  0 
 14  1  1  0  0  0  0 
 15  2  1  0  0  0  0 
 18  3  1  0  0  0  0 
 20  3  1  0  0  0  0 
 21  4  1  0  0  0  0 
 22  4  1  0  0  0  0 
 26  6  1  0  0  0  0 
 27  6  1  0  0  0  0 
 28  7  1  0  0  0  0 
 31 10  1  0  0  0  0 
M  END 
>  <HBA> 
2 
 
>  <HBD> 
1 
 
>  <TPSA> 
29.46 
 
>  <cid> 
41053 
 
>  <dipole> 
2.5 
 
>  <excitation_energy_1> 
6.414 
 
>  <excitation_energy_2> 
6.664 
 
>  <excitation_energy_3> 
6.769 
 
>  <excitation_energy_4> 
6.937 
 
>  <homo_energy> 
-6.912 
 
>  <homo_lumo_gap> 
8.958 
 
>  <logP> 
1.818 
 
>  <lumo_energy> 
2.046 
 
>  <melting_point> 
-18.89 
 
>  <molecular_refractivity> 
47.62 
 
>  <oscillator_strength_1> 
0.0043 
 
>  <oscillator_strength_2> 
0.0229 
 
>  <oscillator_strength_3> 
0.0157 
 
>  <oscillator_strength_4> 
0.0077 
 
>  <open_babel_can_smiles> 
C[C@H](CO[C@@H](CC(C)C)C)O 
 
>  <mulliken_charges> 
31 
1   -0.448162 
2   -0.441852 
3   -0.452438 
4   -0.453652 
5   -0.263389 
6   -0.032717 
7   -0.077364 
8   0.125373 
9   0.150476 
10   -0.633631 
11   -0.511476 
12   0.143889 
13   0.140901 
14   0.143514 
15   0.14091 
16   0.14258 
17   0.141756 
18   0.131573 
19   0.15523 
20   0.155732 
21   0.146829 
22   0.154371 
23   0.151252 
24   0.135743 
25   0.13176 
26   0.131739 
27   0.120351 
28   0.126429 
29   0.132023 
30   0.117658 
31   0.394592 
 
>  <lowdin_charges> 
31 
1   -0.449336 
2   -0.444609 
3   -0.460581 
4   -0.450946 
5   -0.291926 
6   -0.14866 
7   -0.123444 
8   -0.005802 
9   0.00566 
10   -0.470645 
11   -0.285337 
12   0.150868 
13   0.146999 
14   0.147452 
15   0.148835 
16   0.150133 
17   0.146993 
18   0.146988 
19   0.155912 
20   0.156413 
21   0.152846 
22   0.158352 
23   0.155465 
24   0.145393 
25   0.145582 
26   0.1332 
27   0.130433 
28   0.137031 
29   0.144164 
30   0.131346 
31   0.341223 
 
$$$$ 
 
