PCCDB-ID:  13855 
public computational chemistry database (PCCDB) project, http://pccdb.org 
 
 19 19  0  0  1  0  0  0  0  0999 V2000 
    1.0084   -0.1783   -0.2570 C   0  0  0  0  0  0  0  0  0  0  0  0 
    4.3606    1.1216    2.7364 C   0  0  0  0  0  0  0  0  0  0  0  0 
    3.0691   -1.2199    0.8801 C   0  0  0  0  0  0  0  0  0  0  0  0 
    2.8039   -0.8938    2.3579 C   0  0  0  0  0  0  0  0  0  0  0  0 
    2.4701   -0.0001    0.1549 C   0  0  2  0  0  0  0  0  0  0  0  0 
    2.9507    0.6394    2.3948 C   0  0  2  0  0  0  0  0  0  0  0  0 
    2.5861    1.0947    1.0799 O   0  0  0  0  0  0  0  0  0  0  0  0 
    0.9167   -0.9245   -1.0558 H   0  0  0  0  0  0  0  0  0  0  0  0 
    0.6029    0.7705   -0.6227 H   0  0  0  0  0  0  0  0  0  0  0  0 
    0.3948   -0.5040    0.5913 H   0  0  0  0  0  0  0  0  0  0  0  0 
    4.6080    0.8955    3.7809 H   0  0  0  0  0  0  0  0  0  0  0  0 
    4.4325    2.2043    2.5915 H   0  0  0  0  0  0  0  0  0  0  0  0 
    5.1095    0.6440    2.0935 H   0  0  0  0  0  0  0  0  0  0  0  0 
    2.6166   -2.1638    0.5597 H   0  0  0  0  0  0  0  0  0  0  0  0 
    4.1463   -1.2850    0.6891 H   0  0  0  0  0  0  0  0  0  0  0  0 
    3.4947   -1.3990    3.0405 H   0  0  0  0  0  0  0  0  0  0  0  0 
    1.7856   -1.1852    2.6392 H   0  0  0  0  0  0  0  0  0  0  0  0 
    3.0597    0.2614   -0.7337 H   0  0  0  0  0  0  0  0  0  0  0  0 
    2.2403    1.0880    3.1018 H   0  0  0  0  0  0  0  0  0  0  0  0 
  1  5  1  0  0  0  0 
  1 10  1  0  0  0  0 
  2 11  1  0  0  0  0 
  3  4  1  0  0  0  0 
  4  6  1  0  0  0  0 
  4 17  1  0  0  0  0 
  4 16  1  0  0  0  0 
  5 18  1  6  0  0  0 
  5  3  1  0  0  0  0 
  5  7  1  0  0  0  0 
  6  2  1  0  0  0  0 
  6 19  1  1  0  0  0 
  7  6  1  0  0  0  0 
  8  1  1  0  0  0  0 
  9  1  1  0  0  0  0 
 12  2  1  0  0  0  0 
 13  2  1  0  0  0  0 
 14  3  1  0  0  0  0 
 15  3  1  0  0  0  0 
M  END 
>  <HBA> 
1 
 
>  <HBD> 
0 
 
>  <TPSA> 
9.23 
 
>  <cid> 
13855 
 
>  <dipole> 
1.53 
 
>  <excitation_energy_1> 
6.024 
 
>  <excitation_energy_2> 
6.462 
 
>  <excitation_energy_3> 
6.663 
 
>  <excitation_energy_4> 
6.781 
 
>  <homo_energy> 
-6.446 
 
>  <homo_lumo_gap> 
8.648 
 
>  <logP> 
1.574 
 
>  <lumo_energy> 
2.201 
 
>  <melting_point> 
-12.93 
 
>  <molecular_refractivity> 
29.93 
 
>  <oscillator_strength_1> 
0.0349 
 
>  <oscillator_strength_2> 
0.0 
 
>  <oscillator_strength_3> 
0.0003 
 
>  <oscillator_strength_4> 
0.0124 
 
>  <open_babel_can_smiles> 
C[C@@H]1CC[C@H](O1)C 
 
>  <mulliken_charges> 
19 
1   -0.450032 
2   -0.449767 
3   -0.306831 
4   -0.307259 
5   0.167715 
6   0.167525 
7   -0.511677 
8   0.134395 
9   0.157075 
10   0.141398 
11   0.134367 
12   0.157154 
13   0.141413 
14   0.143152 
15   0.143902 
16   0.143204 
17   0.143909 
18   0.125157 
19   0.125199 
 
>  <lowdin_charges> 
19 
1   -0.458029 
2   -0.454787 
3   -0.293167 
4   -0.295632 
5   0.005003 
6   0.005437 
7   -0.289161 
8   0.148172 
9   0.158538 
10   0.148724 
11   0.146473 
12   0.156631 
13   0.149135 
14   0.15234 
15   0.145802 
16   0.153628 
17   0.14677 
18   0.136616 
19   0.137507 
 
$$$$ 
 
