PCCDB-ID:  21282 
public computational chemistry database (PCCDB) project, http://pccdb.org 
 
 31 33  0  0  0  0  0  0  0  0999 V2000 
    4.0217   -0.0488    0.4810 C   0  0  0  0  0  0  0  0  0  0  0  0 
    3.2639    1.2831    0.5797 C   0  0  0  0  0  0  0  0  0  0  0  0 
    3.1664   -1.3197    0.5933 C   0  0  0  0  0  0  0  0  0  0  0  0 
   -3.9585    0.6455    0.2108 C   0  0  0  0  0  0  0  0  0  0  0  0 
   -3.9083   -0.7602    0.1969 C   0  0  0  0  0  0  0  0  0  0  0  0 
    2.2225    1.5205   -0.5322 C   0  0  0  0  0  0  0  0  0  0  0  0 
   -2.7892    1.3759    0.0734 C   0  0  0  0  0  0  0  0  0  0  0  0 
    2.1215   -1.4950   -0.5301 C   0  0  0  0  0  0  0  0  0  0  0  0 
   -2.7003   -1.4220    0.0461 C   0  0  0  0  0  0  0  0  0  0  0  0 
    0.9323    0.7462   -0.3846 C   0  0  0  0  0  0  0  0  0  0  0  0 
   -1.5499    0.7317   -0.0810 C   0  0  0  0  0  0  0  0  0  0  0  0 
    0.8949   -0.6228   -0.3868 C   0  0  0  0  0  0  0  0  0  0  0  0 
   -1.5148   -0.6759   -0.0939 C   0  0  0  0  0  0  0  0  0  0  0  0 
   -0.3047    1.5206   -0.2276 C   0  0  0  0  0  0  0  0  0  0  0  0 
   -0.2928   -1.3034   -0.2454 N   0  0  0  0  0  0  0  0  0  0  0  0 
   -0.3257    2.7582   -0.2166 O   0  0  0  0  0  0  0  0  0  0  0  0 
    4.7917   -0.0817    1.2633 H   0  0  0  0  0  0  0  0  0  0  0  0 
    4.5619   -0.0773   -0.4779 H   0  0  0  0  0  0  0  0  0  0  0  0 
    4.0016    2.0958    0.5429 H   0  0  0  0  0  0  0  0  0  0  0  0 
    2.7687    1.3605    1.5573 H   0  0  0  0  0  0  0  0  0  0  0  0 
    2.6561   -1.3467    1.5655 H   0  0  0  0  0  0  0  0  0  0  0  0 
    3.8352   -2.1901    0.5685 H   0  0  0  0  0  0  0  0  0  0  0  0 
   -4.9120    1.1521    0.3286 H   0  0  0  0  0  0  0  0  0  0  0  0 
   -4.8228   -1.3371    0.3053 H   0  0  0  0  0  0  0  0  0  0  0  0 
    2.6886    1.3078   -1.5073 H   0  0  0  0  0  0  0  0  0  0  0  0 
    1.9411    2.5770   -0.5444 H   0  0  0  0  0  0  0  0  0  0  0  0 
   -2.7862    2.4612    0.0795 H   0  0  0  0  0  0  0  0  0  0  0  0 
    1.8099   -2.5475   -0.5662 H   0  0  0  0  0  0  0  0  0  0  0  0 
    2.5984   -1.2878   -1.4984 H   0  0  0  0  0  0  0  0  0  0  0  0 
   -2.6601   -2.5092    0.0365 H   0  0  0  0  0  0  0  0  0  0  0  0 
   -0.2722   -2.3135   -0.2525 H   0  0  0  0  0  0  0  0  0  0  0  0 
  1  2  1  0  0  0  0 
  1  3  1  0  0  0  0 
  1 17  1  0  0  0  0 
  2 20  1  0  0  0  0 
  3 21  1  0  0  0  0 
  4 23  1  0  0  0  0 
  5  4  1  0  0  0  0 
  5 24  1  0  0  0  0 
  6 10  1  0  0  0  0 
  6  2  1  0  0  0  0 
  7 27  1  0  0  0  0 
  7  4  2  0  0  0  0 
  8 12  1  0  0  0  0 
  8  3  1  0  0  0  0 
  9  5  2  0  0  0  0 
 10 14  1  0  0  0  0 
 11  7  1  0  0  0  0 
 12 10  2  0  0  0  0 
 12 15  1  0  0  0  0 
 13 11  2  0  0  0  0 
 13  9  1  0  0  0  0 
 14 16  2  0  0  0  0 
 14 11  1  0  0  0  0 
 15 13  1  0  0  0  0 
 18  1  1  0  0  0  0 
 19  2  1  0  0  0  0 
 22  3  1  0  0  0  0 
 25  6  1  0  0  0  0 
 26  6  1  0  0  0  0 
 28  8  1  0  0  0  0 
 29  8  1  0  0  0  0 
 30  9  1  0  0  0  0 
 31 15  1  0  0  0  0 
M  END 
>  <HBA> 
1 
 
>  <HBD> 
1 
 
>  <TPSA> 
32.86 
 
>  <cid> 
21282 
 
>  <dipole> 
5.69 
 
>  <excitation_energy_1> 
3.796 
 
>  <excitation_energy_2> 
4.018 
 
>  <excitation_energy_3> 
4.52 
 
>  <excitation_energy_4> 
4.618 
 
>  <homo_energy> 
-5.494 
 
>  <homo_lumo_gap> 
4.533 
 
>  <logP> 
2.797 
 
>  <lumo_energy> 
-0.961 
 
>  <melting_point> 
160.63 
 
>  <molecular_refractivity> 
66.81 
 
>  <oscillator_strength_1> 
0.0 
 
>  <oscillator_strength_2> 
0.0835 
 
>  <oscillator_strength_3> 
0.0577 
 
>  <oscillator_strength_4> 
0.0049 
 
>  <open_babel_can_smiles> 
O=c1c2CCCCCc2[nH]c2c1cccc2 
 
>  <mulliken_charges> 
31 
1   -0.259429 
2   -0.248658 
3   -0.249672 
4   -0.13386 
5   -0.133561 
6   -0.355806 
7   -0.184313 
8   -0.357581 
9   -0.178084 
10   0.01746 
11   0.046967 
12   0.335696 
13   0.341223 
14   0.379142 
15   -0.785797 
16   -0.544052 
17   0.134345 
18   0.127567 
19   0.134346 
20   0.138344 
21   0.142126 
22   0.137203 
23   0.133041 
24   0.134221 
25   0.131469 
26   0.183818 
27   0.16449 
28   0.131241 
29   0.168827 
30   0.123872 
31   0.325415 
 
>  <lowdin_charges> 
31 
1   -0.278493 
2   -0.273516 
3   -0.271975 
4   -0.170125 
5   -0.140266 
6   -0.277994 
7   -0.120629 
8   -0.277329 
9   -0.189322 
10   -0.093322 
11   -0.056927 
12   0.0562 
13   0.053906 
14   0.121222 
15   -0.191497 
16   -0.315614 
17   0.146078 
18   0.136694 
19   0.146336 
20   0.143569 
21   0.144996 
22   0.147419 
23   0.160405 
24   0.16123 
25   0.142344 
26   0.174575 
27   0.176916 
28   0.143814 
29   0.162937 
30   0.152807 
31   0.28556 
 
$$$$ 
 
