PCCDB-ID:  61097 
public computational chemistry database (PCCDB) project, http://pccdb.org 
 
 32 31  0  0  0  0  0  0  0  0999 V2000 
    1.5507    0.6644    0.7553 C   0  0  0  0  0  0  0  0  0  0  0  0 
    2.8700    1.0891    0.1734 C   0  0  0  0  0  0  0  0  0  0  0  0 
    3.0159    1.7544   -0.9758 C   0  0  0  0  0  0  0  0  0  0  0  0 
    4.3054    2.2123   -1.6119 C   0  0  0  0  0  0  0  0  0  0  0  0 
    5.5948    1.8506   -0.8650 C   0  0  0  0  0  0  0  0  0  0  0  0 
    6.8819    2.2795   -1.5890 C   0  0  0  0  0  0  0  0  0  0  0  0 
    7.0844    3.7979   -1.7017 C   0  0  0  0  0  0  0  0  0  0  0  0 
    8.4286    4.1777   -2.3366 C   0  0  0  0  0  0  0  0  0  0  0  0 
    8.6424    5.6931   -2.4463 C   0  0  0  0  0  0  0  0  0  0  0  0 
    9.9958    6.0618   -3.0842 C   0  0  0  0  0  0  0  0  0  0  0  0 
   10.2358    7.5540   -3.0837 C   0  0  0  0  0  0  0  0  0  0  0  0 
   10.4622    8.2230   -4.0676 O   0  0  0  0  0  0  0  0  0  0  0  0 
    1.5016   -0.4259    0.8820 H   0  0  0  0  0  0  0  0  0  0  0  0 
    0.7130    0.9678    0.1180 H   0  0  0  0  0  0  0  0  0  0  0  0 
    1.3944    1.1014    1.7511 H   0  0  0  0  0  0  0  0  0  0  0  0 
    3.7514    0.8209    0.7556 H   0  0  0  0  0  0  0  0  0  0  0  0 
    2.1151    2.0120   -1.5378 H   0  0  0  0  0  0  0  0  0  0  0  0 
    4.2487    3.3027   -1.7508 H   0  0  0  0  0  0  0  0  0  0  0  0 
    4.3562    1.8004   -2.6331 H   0  0  0  0  0  0  0  0  0  0  0  0 
    5.6239    0.7634   -0.7134 H   0  0  0  0  0  0  0  0  0  0  0  0 
    5.5757    2.2992    0.1384 H   0  0  0  0  0  0  0  0  0  0  0  0 
    6.8995    1.8353   -2.5953 H   0  0  0  0  0  0  0  0  0  0  0  0 
    7.7412    1.8504   -1.0543 H   0  0  0  0  0  0  0  0  0  0  0  0 
    7.0163    4.2460   -0.6992 H   0  0  0  0  0  0  0  0  0  0  0  0 
    6.2722    4.2449   -2.2910 H   0  0  0  0  0  0  0  0  0  0  0  0 
    8.4999    3.7291   -3.3377 H   0  0  0  0  0  0  0  0  0  0  0  0 
    9.2470    3.7382   -1.7473 H   0  0  0  0  0  0  0  0  0  0  0  0 
    8.5746    6.1444   -1.4460 H   0  0  0  0  0  0  0  0  0  0  0  0 
    7.8313    6.1369   -3.0395 H   0  0  0  0  0  0  0  0  0  0  0  0 
   10.0676    5.6982   -4.1148 H   0  0  0  0  0  0  0  0  0  0  0  0 
   10.8045    5.5936   -2.5010 H   0  0  0  0  0  0  0  0  0  0  0  0 
   10.1818    8.0299   -2.0759 H   0  0  0  0  0  0  0  0  0  0  0  0 
  1 13  1  0  0  0  0 
  1 15  1  0  0  0  0 
  2  1  1  0  0  0  0 
  2 16  1  0  0  0  0 
  3  2  2  0  0  0  0 
  4  3  1  0  0  0  0 
  4  5  1  0  0  0  0 
  5 20  1  0  0  0  0 
  5 21  1  0  0  0  0 
  6 23  1  0  0  0  0 
  6  5  1  0  0  0  0 
  7  6  1  0  0  0  0 
  7 24  1  0  0  0  0 
  8 27  1  0  0  0  0 
  8  7  1  0  0  0  0 
  9  8  1  0  0  0  0 
  9 28  1  0  0  0  0 
 10 11  1  0  0  0  0 
 10 31  1  0  0  0  0 
 10  9  1  0  0  0  0 
 11 32  1  0  0  0  0 
 12 11  2  0  0  0  0 
 14  1  1  0  0  0  0 
 17  3  1  0  0  0  0 
 18  4  1  0  0  0  0 
 19  4  1  0  0  0  0 
 22  6  1  0  0  0  0 
 25  7  1  0  0  0  0 
 26  8  1  0  0  0  0 
 29  9  1  0  0  0  0 
 30 10  1  0  0  0  0 
M  END 
>  <HBA> 
1 
 
>  <HBD> 
0 
 
>  <TPSA> 
17.07 
 
>  <cid> 
61097 
 
>  <dipole> 
2.92 
 
>  <excitation_energy_1> 
4.22 
 
>  <excitation_energy_2> 
5.345 
 
>  <excitation_energy_3> 
6.088 
 
>  <excitation_energy_4> 
6.226 
 
>  <homo_energy> 
-6.446 
 
>  <homo_lumo_gap> 
5.88 
 
>  <logP> 
3.492 
 
>  <lumo_energy> 
-0.566 
 
>  <melting_point> 
11.63 
 
>  <molecular_refractivity> 
54.72 
 
>  <oscillator_strength_1> 
0.0004 
 
>  <oscillator_strength_2> 
0.0 
 
>  <oscillator_strength_3> 
0.0061 
 
>  <oscillator_strength_4> 
0.0005 
 
>  <open_babel_can_smiles> 
O=CCCCCCCC/C=C/C 
 
>  <mulliken_charges> 
32 
1   -0.487727 
2   -0.084262 
3   -0.107882 
4   -0.295247 
5   -0.262116 
6   -0.257723 
7   -0.257246 
8   -0.251639 
9   -0.273628 
10   -0.330412 
11   0.257635 
12   -0.383148 
13   0.152084 
14   0.150159 
15   0.151938 
16   0.120387 
17   0.112188 
18   0.144797 
19   0.139376 
20   0.136681 
21   0.134145 
22   0.129145 
23   0.128598 
24   0.129316 
25   0.136113 
26   0.135821 
27   0.130787 
28   0.137899 
29   0.148792 
30   0.163751 
31   0.154915 
32   0.096506 
 
>  <lowdin_charges> 
32 
1   -0.435989 
2   -0.174938 
3   -0.173879 
4   -0.271142 
5   -0.27303 
6   -0.274384 
7   -0.277699 
8   -0.272945 
9   -0.272659 
10   -0.308502 
11   0.058458 
12   -0.218257 
13   0.152723 
14   0.153785 
15   0.154016 
16   0.148681 
17   0.14537 
18   0.146816 
19   0.146149 
20   0.142813 
21   0.140188 
22   0.138052 
23   0.141908 
24   0.138026 
25   0.141777 
26   0.141442 
27   0.140156 
28   0.141865 
29   0.148431 
30   0.160262 
31   0.162104 
32   0.110403 
 
$$$$ 
 
