PCCDB-ID:  11416 
public computational chemistry database (PCCDB) project, http://pccdb.org 
 
 24 24  0  0  1  0  0  0  0  0999 V2000 
    0.9295    0.0666   -0.1506 C   0  0  0  0  0  0  0  0  0  0  0  0 
    2.4626   -1.4697    2.0349 C   0  0  0  0  0  0  0  0  0  0  0  0 
    4.5924    1.2900    0.4897 C   0  0  0  0  0  0  0  0  0  0  0  0 
    5.1522    0.0385    1.1820 C   0  0  0  0  0  0  0  0  0  0  0  0 
    3.0559    1.3007    0.5046 C   0  0  0  0  0  0  0  0  0  0  0  0 
    4.5532   -1.2438    0.5824 C   0  0  0  0  0  0  0  0  0  0  0  0 
    2.4618    0.0116   -0.0970 C   0  0  1  0  0  0  0  0  0  0  0  0 
    3.0081   -1.2593    0.6111 C   0  0  2  0  0  0  0  0  0  0  0  0 
    0.5927    0.8908   -0.7909 H   0  0  0  0  0  0  0  0  0  0  0  0 
    0.4928    0.2258    0.8425 H   0  0  0  0  0  0  0  0  0  0  0  0 
    0.5093   -0.8628   -0.5551 H   0  0  0  0  0  0  0  0  0  0  0  0 
    2.9037   -2.3695    2.4806 H   0  0  0  0  0  0  0  0  0  0  0  0 
    1.3759   -1.6049    2.0335 H   0  0  0  0  0  0  0  0  0  0  0  0 
    2.6886   -0.6311    2.7029 H   0  0  0  0  0  0  0  0  0  0  0  0 
    4.9412    1.3104   -0.5537 H   0  0  0  0  0  0  0  0  0  0  0  0 
    4.9833    2.1981    0.9667 H   0  0  0  0  0  0  0  0  0  0  0  0 
    4.9295    0.0870    2.2571 H   0  0  0  0  0  0  0  0  0  0  0  0 
    6.2463    0.0140    1.0967 H   0  0  0  0  0  0  0  0  0  0  0  0 
    2.6800    2.1695   -0.0528 H   0  0  0  0  0  0  0  0  0  0  0  0 
    2.6994    1.4247    1.5376 H   0  0  0  0  0  0  0  0  0  0  0  0 
    4.9440   -2.1263    1.1067 H   0  0  0  0  0  0  0  0  0  0  0  0 
    4.8856   -1.3312   -0.4626 H   0  0  0  0  0  0  0  0  0  0  0  0 
    2.8214   -0.0467   -1.1373 H   0  0  0  0  0  0  0  0  0  0  0  0 
    2.6781   -2.1239    0.0155 H   0  0  0  0  0  0  0  0  0  0  0  0 
  1  7  1  0  0  0  0 
  1 10  1  0  0  0  0 
  2 12  1  0  0  0  0 
  2 14  1  0  0  0  0 
  3  5  1  0  0  0  0 
  3 16  1  0  0  0  0 
  3  4  1  0  0  0  0 
  4 17  1  0  0  0  0 
  5 20  1  0  0  0  0 
  6  8  1  0  0  0  0 
  6 21  1  0  0  0  0 
  6  4  1  0  0  0  0 
  7 23  1  6  0  0  0 
  7  5  1  0  0  0  0 
  7  8  1  0  0  0  0 
  8 24  1  6  0  0  0 
  8  2  1  0  0  0  0 
  9  1  1  0  0  0  0 
 11  1  1  0  0  0  0 
 13  2  1  0  0  0  0 
 15  3  1  0  0  0  0 
 18  4  1  0  0  0  0 
 19  5  1  0  0  0  0 
 22  6  1  0  0  0  0 
M  END 
>  <HBA> 
0 
 
>  <HBD> 
0 
 
>  <TPSA> 
0.0 
 
>  <cid> 
11416 
 
>  <dipole> 
0.06 
 
>  <excitation_energy_1> 
7.185 
 
>  <excitation_energy_2> 
7.271 
 
>  <excitation_energy_3> 
7.558 
 
>  <excitation_energy_4> 
7.634 
 
>  <homo_energy> 
-7.728 
 
>  <homo_lumo_gap> 
9.867 
 
>  <logP> 
2.833 
 
>  <lumo_energy> 
2.139 
 
>  <melting_point> 
-5.31 
 
>  <molecular_refractivity> 
38.46 
 
>  <oscillator_strength_1> 
0.0008 
 
>  <oscillator_strength_2> 
0.0058 
 
>  <oscillator_strength_3> 
0.012 
 
>  <oscillator_strength_4> 
0.0104 
 
>  <open_babel_can_smiles> 
C[C@@H]1CCCC[C@@H]1C 
 
>  <mulliken_charges> 
24 
1   -0.45301 
2   -0.458005 
3   -0.258941 
4   -0.259266 
5   -0.258278 
6   -0.262745 
7   -0.067394 
8   -0.069343 
9   0.138389 
10   0.142544 
11   0.13752 
12   0.138869 
13   0.144915 
14   0.143898 
15   0.125544 
16   0.12744 
17   0.130633 
18   0.128493 
19   0.125762 
20   0.126727 
21   0.124622 
22   0.124062 
23   0.113638 
24   0.113926 
 
>  <lowdin_charges> 
24 
1   -0.447109 
2   -0.451186 
3   -0.276844 
4   -0.275755 
5   -0.280002 
6   -0.278987 
7   -0.125584 
8   -0.128302 
9   0.148708 
10   0.146159 
11   0.146949 
12   0.148906 
13   0.14827 
14   0.146248 
15   0.135067 
16   0.142429 
17   0.13637 
18   0.140709 
19   0.142167 
20   0.135792 
21   0.140893 
22   0.136245 
23   0.132214 
24   0.136643 
 
$$$$ 
 
