PCCDB-ID:  12972 
public computational chemistry database (PCCDB) project, http://pccdb.org 
 
 35 34  0  0  0  0  0  0  0  0999 V2000 
    2.1644    0.3960    2.1292 C   0  0  0  0  0  0  0  0  0  0  0  0 
    3.6145    0.1638    1.6923 C   0  0  0  0  0  0  0  0  0  0  0  0 
    3.7350   -0.6622    0.4052 C   0  0  0  0  0  0  0  0  0  0  0  0 
    5.1848   -0.8916   -0.0410 C   0  0  0  0  0  0  0  0  0  0  0  0 
    5.3095   -1.7178   -1.3275 C   0  0  0  0  0  0  0  0  0  0  0  0 
    6.7609   -1.9236   -1.7816 C   0  0  0  0  0  0  0  0  0  0  0  0 
    6.8767   -2.7660   -3.0592 C   0  0  0  0  0  0  0  0  0  0  0  0 
    8.2963   -2.9551   -3.6216 C   0  0  0  0  0  0  0  0  0  0  0  0 
    9.2442   -3.7548   -2.7095 C   0  0  0  0  0  0  0  0  0  0  0  0 
   10.1429   -4.7577   -3.5104 C   0  0  0  0  0  0  0  0  0  0  0  0 
   10.1025   -2.9613   -1.7377 C   0  0  0  0  0  0  0  0  0  0  0  0 
    9.9587   -4.9966   -4.6774 O   0  0  0  0  0  0  0  0  0  0  0  0 
   11.0806   -5.3945   -2.7958 O   0  0  0  0  0  0  0  0  0  0  0  0 
   10.8498   -3.4877   -0.9245 O   0  0  0  0  0  0  0  0  0  0  0  0 
    9.9969   -1.6293   -1.8350 O   0  0  0  0  0  0  0  0  0  0  0  0 
    2.1139    0.9893    3.0491 H   0  0  0  0  0  0  0  0  0  0  0  0 
    1.6503   -0.5548    2.3167 H   0  0  0  0  0  0  0  0  0  0  0  0 
    1.5980    0.9306    1.3566 H   0  0  0  0  0  0  0  0  0  0  0  0 
    4.1633   -0.3421    2.4995 H   0  0  0  0  0  0  0  0  0  0  0  0 
    4.1131    1.1329    1.5476 H   0  0  0  0  0  0  0  0  0  0  0  0 
    3.1815   -0.1591   -0.4017 H   0  0  0  0  0  0  0  0  0  0  0  0 
    3.2401   -1.6341    0.5507 H   0  0  0  0  0  0  0  0  0  0  0  0 
    5.7376   -1.3932    0.7674 H   0  0  0  0  0  0  0  0  0  0  0  0 
    5.6773    0.0815   -0.1865 H   0  0  0  0  0  0  0  0  0  0  0  0 
    4.7455   -1.2248   -2.1330 H   0  0  0  0  0  0  0  0  0  0  0  0 
    4.8300   -2.6969   -1.1790 H   0  0  0  0  0  0  0  0  0  0  0  0 
    7.3232   -2.3985   -0.9637 H   0  0  0  0  0  0  0  0  0  0  0  0 
    7.2354   -0.9465   -1.9461 H   0  0  0  0  0  0  0  0  0  0  0  0 
    6.2665   -2.3004   -3.8452 H   0  0  0  0  0  0  0  0  0  0  0  0 
    6.4278   -3.7555   -2.8824 H   0  0  0  0  0  0  0  0  0  0  0  0 
    8.7432   -1.9837   -3.8561 H   0  0  0  0  0  0  0  0  0  0  0  0 
    8.2329   -3.5050   -4.5641 H   0  0  0  0  0  0  0  0  0  0  0  0 
    8.6509   -4.4158   -2.0578 H   0  0  0  0  0  0  0  0  0  0  0  0 
   11.1332   -4.9993   -1.8949 H   0  0  0  0  0  0  0  0  0  0  0  0 
   10.6021   -1.2542   -1.1658 H   0  0  0  0  0  0  0  0  0  0  0  0 
  1 17  1  0  0  0  0 
  1 16  1  0  0  0  0 
  2  1  1  0  0  0  0 
  2 19  1  0  0  0  0 
  3 22  1  0  0  0  0 
  3  2  1  0  0  0  0 
  4  3  1  0  0  0  0 
  4 23  1  0  0  0  0 
  5 26  1  0  0  0  0 
  5  4  1  0  0  0  0 
  6  5  1  0  0  0  0 
  6 27  1  0  0  0  0 
  7 30  1  0  0  0  0 
  7  6  1  0  0  0  0 
  8  7  1  0  0  0  0 
  8  9  1  0  0  0  0 
  9 33  1  0  0  0  0 
  9 11  1  0  0  0  0 
 10 13  1  0  0  0  0 
 10  9  1  0  0  0  0 
 11 14  2  0  0  0  0 
 12 10  2  0  0  0  0 
 13 34  1  0  0  0  0 
 15 11  1  0  0  0  0 
 15 35  1  0  0  0  0 
 18  1  1  0  0  0  0 
 20  2  1  0  0  0  0 
 21  3  1  0  0  0  0 
 24  4  1  0  0  0  0 
 25  5  1  0  0  0  0 
 28  6  1  0  0  0  0 
 29  7  1  0  0  0  0 
 31  8  1  0  0  0  0 
 32  8  1  0  0  0  0 
M  END 
>  <HBA> 
4 
 
>  <HBD> 
2 
 
>  <TPSA> 
74.6 
 
>  <cid> 
12972 
 
>  <dipole> 
4.57 
 
>  <excitation_energy_1> 
5.547 
 
>  <excitation_energy_2> 
5.741 
 
>  <excitation_energy_3> 
6.136 
 
>  <excitation_energy_4> 
6.557 
 
>  <homo_energy> 
-7.508 
 
>  <homo_lumo_gap> 
6.689 
 
>  <logP> 
2.522 
 
>  <lumo_energy> 
-0.819 
 
>  <melting_point> 
124.43 
 
>  <molecular_refractivity> 
58.53 
 
>  <oscillator_strength_1> 
0.012 
 
>  <oscillator_strength_2> 
0.0012 
 
>  <oscillator_strength_3> 
0.0336 
 
>  <oscillator_strength_4> 
0.0018 
 
>  <open_babel_can_smiles> 
CCCCCCCCC(C(=O)O)C(=O)O 
 
>  <mulliken_charges> 
35 
1   -0.441391 
2   -0.247131 
3   -0.246012 
4   -0.25317 
5   -0.253441 
6   -0.253113 
7   -0.273293 
8   -0.277576 
9   -0.313355 
10   0.603085 
11   0.60476 
12   -0.43497 
13   -0.576909 
14   -0.494061 
15   -0.54236 
16   0.142178 
17   0.1418 
18   0.141728 
19   0.129781 
20   0.129647 
21   0.127538 
22   0.127366 
23   0.125594 
24   0.126417 
25   0.130449 
26   0.128376 
27   0.117478 
28   0.137308 
29   0.140596 
30   0.132532 
31   0.161519 
32   0.18712 
33   0.208822 
34   0.440174 
35   0.422511 
 
>  <lowdin_charges> 
35 
1   -0.445778 
2   -0.273038 
3   -0.275481 
4   -0.275179 
5   -0.27524 
6   -0.279912 
7   -0.274958 
8   -0.283245 
9   -0.194539 
10   0.190044 
11   0.205328 
12   -0.23341 
13   -0.347486 
14   -0.291875 
15   -0.321019 
16   0.149621 
17   0.146552 
18   0.147681 
19   0.139643 
20   0.138205 
21   0.138906 
22   0.137455 
23   0.137798 
24   0.136947 
25   0.140314 
26   0.137888 
27   0.132756 
28   0.142229 
29   0.148647 
30   0.138349 
31   0.157474 
32   0.17493 
33   0.192784 
34   0.365027 
35   0.372583 
 
$$$$ 
 
