PCCDB-ID:  18066 
public computational chemistry database (PCCDB) project, http://pccdb.org 
 
 24 25  0  0  1  0  0  0  0  0999 V2000 
    2.4563    0.6955    0.0101 C   0  0  0  0  0  0  0  0  0  0  0  0 
    2.4454   -0.7002   -0.0738 C   0  0  0  0  0  0  0  0  0  0  0  0 
   -2.4899    0.7336   -0.3597 C   0  0  0  0  0  0  0  0  0  0  0  0 
    1.2525    1.3906    0.0637 C   0  0  0  0  0  0  0  0  0  0  0  0 
   -1.2682    1.5215    0.1241 C   0  0  0  0  0  0  0  0  0  0  0  0 
    1.2298   -1.3752   -0.0997 C   0  0  0  0  0  0  0  0  0  0  0  0 
   -2.5118   -0.6412    0.3136 C   0  0  0  0  0  0  0  0  0  0  0  0 
    0.0192    0.7200    0.0438 C   0  0  0  0  0  0  0  0  0  0  0  0 
    0.0106   -0.6837   -0.0327 C   0  0  0  0  0  0  0  0  0  0  0  0 
   -1.2846   -1.4884   -0.0870 C   0  0  2  0  0  0  0  0  0  0  0  0 
   -1.3753   -2.1310   -1.4132 N   0  0  0  0  0  0  0  0  0  0  0  0 
    3.3984    1.2375    0.0267 H   0  0  0  0  0  0  0  0  0  0  0  0 
    3.3789   -1.2548   -0.1216 H   0  0  0  0  0  0  0  0  0  0  0  0 
   -2.4466    0.6113   -1.4516 H   0  0  0  0  0  0  0  0  0  0  0  0 
   -3.4095    1.2903   -0.1444 H   0  0  0  0  0  0  0  0  0  0  0  0 
    1.2592    2.4776    0.1196 H   0  0  0  0  0  0  0  0  0  0  0  0 
   -1.4372    1.8257    1.1690 H   0  0  0  0  0  0  0  0  0  0  0  0 
   -1.1583    2.4536   -0.4446 H   0  0  0  0  0  0  0  0  0  0  0  0 
    1.2069   -2.4584   -0.1855 H   0  0  0  0  0  0  0  0  0  0  0  0 
   -3.4262   -1.1939    0.0600 H   0  0  0  0  0  0  0  0  0  0  0  0 
   -2.5198   -0.5045    1.4050 H   0  0  0  0  0  0  0  0  0  0  0  0 
   -1.1991   -2.3151    0.6321 H   0  0  0  0  0  0  0  0  0  0  0  0 
   -1.3950   -1.4185   -2.1423 H   0  0  0  0  0  0  0  0  0  0  0  0 
   -2.2536   -2.6459   -1.4832 H   0  0  0  0  0  0  0  0  0  0  0  0 
  1 12  1  0  0  0  0 
  1  4  2  0  0  0  0 
  2  1  1  0  0  0  0 
  3 15  1  0  0  0  0 
  3  5  1  0  0  0  0 
  3  7  1  0  0  0  0 
  4 16  1  0  0  0  0 
  5 17  1  0  0  0  0 
  6  2  2  0  0  0  0 
  6  9  1  0  0  0  0 
  7 21  1  0  0  0  0 
  8  4  1  0  0  0  0 
  8  5  1  0  0  0  0 
  9  8  2  0  0  0  0 
 10  9  1  0  0  0  0 
 10  7  1  0  0  0  0 
 10 22  1  1  0  0  0 
 11 10  1  0  0  0  0 
 13  2  1  0  0  0  0 
 14  3  1  0  0  0  0 
 18  5  1  0  0  0  0 
 19  6  1  0  0  0  0 
 20  7  1  0  0  0  0 
 23 11  1  0  0  0  0 
 24 11  1  0  0  0  0 
M  END 
>  <HBA> 
1 
 
>  <HBD> 
1 
 
>  <TPSA> 
26.02 
 
>  <cid> 
18066 
 
>  <dipole> 
1.62 
 
>  <excitation_energy_1> 
5.155 
 
>  <excitation_energy_2> 
5.37 
 
>  <excitation_energy_3> 
5.611 
 
>  <excitation_energy_4> 
5.721 
 
>  <homo_energy> 
-6.147 
 
>  <homo_lumo_gap> 
6.259 
 
>  <logP> 
2.723 
 
>  <lumo_energy> 
0.112 
 
>  <melting_point> 
87.49 
 
>  <molecular_refractivity> 
46.58 
 
>  <oscillator_strength_1> 
0.0006 
 
>  <oscillator_strength_2> 
0.0107 
 
>  <oscillator_strength_3> 
0.0348 
 
>  <oscillator_strength_4> 
0.0045 
 
>  <open_babel_can_smiles> 
N[C@@H]1CCCc2c1cccc2 
 
>  <mulliken_charges> 
24 
1   -0.126414 
2   -0.133993 
3   -0.269407 
4   -0.190348 
5   -0.340165 
6   -0.161384 
7   -0.272611 
8   0.116922 
9   0.101148 
10   -0.053647 
11   -0.707048 
12   0.124235 
13   0.124862 
14   0.126577 
15   0.134876 
16   0.117216 
17   0.150787 
18   0.144166 
19   0.135528 
20   0.122512 
21   0.133241 
22   0.136804 
23   0.295734 
24   0.290409 
 
>  <lowdin_charges> 
24 
1   -0.157653 
2   -0.164023 
3   -0.27671 
4   -0.166063 
5   -0.274739 
6   -0.145457 
7   -0.291768 
8   -0.016201 
9   -0.02425 
10   -0.067245 
11   -0.550206 
12   0.155465 
13   0.155921 
14   0.133482 
15   0.146944 
16   0.149799 
17   0.150223 
18   0.151424 
19   0.160585 
20   0.140114 
21   0.141015 
22   0.146473 
23   0.253151 
24   0.249719 
 
$$$$ 
 
