PCCDB-ID:  19337 
public computational chemistry database (PCCDB) project, http://pccdb.org 
 
 31 33  0  0  1  0  0  0  0  0999 V2000 
    0.9050   -0.2597    0.0772 C   0  0  0  0  0  0  0  0  0  0  0  0 
    8.8929   -0.7734   -1.8303 C   0  0  0  0  0  0  0  0  0  0  0  0 
    9.5390   -0.9030   -0.5834 C   0  0  0  0  0  0  0  0  0  0  0  0 
    7.5277   -0.5294   -1.9090 C   0  0  0  0  0  0  0  0  0  0  0  0 
    8.8309   -0.7909    0.6075 C   0  0  0  0  0  0  0  0  0  0  0  0 
    3.7602    1.5238   -1.4890 C   0  0  0  0  0  0  0  0  0  0  0  0 
    2.3177    1.4583   -0.9399 C   0  0  0  0  0  0  0  0  0  0  0  0 
    5.2745   -0.1582    0.9356 C   0  0  0  0  0  0  0  0  0  0  0  0 
    2.9972   -0.7460   -1.0996 C   0  0  0  0  0  0  0  0  0  0  0  0 
    4.2818    0.0430   -1.4371 C   0  0  2  0  0  0  0  0  0  0  0  0 
    6.7806   -0.4104   -0.7232 C   0  0  0  0  0  0  0  0  0  0  0  0 
    5.3873   -0.1678   -0.4340 C   0  0  0  0  0  0  0  0  0  0  0  0 
    7.4565   -0.5445    0.5229 C   0  0  0  0  0  0  0  0  0  0  0  0 
    6.5110   -0.3860    1.5137 N   0  0  0  0  0  0  0  0  0  0  0  0 
    2.2524    0.1730   -0.2409 N   0  0  0  0  0  0  0  0  0  0  0  0 
    0.4234    0.4743    0.7332 H   0  0  0  0  0  0  0  0  0  0  0  0 
    0.9363   -1.2189    0.6056 H   0  0  0  0  0  0  0  0  0  0  0  0 
    0.2682   -0.3834   -0.8219 H   0  0  0  0  0  0  0  0  0  0  0  0 
    9.4758   -0.8663   -2.7427 H   0  0  0  0  0  0  0  0  0  0  0  0 
   10.6083   -1.0939   -0.5525 H   0  0  0  0  0  0  0  0  0  0  0  0 
    7.0441   -0.4315   -2.8780 H   0  0  0  0  0  0  0  0  0  0  0  0 
    9.3284   -0.8917    1.5691 H   0  0  0  0  0  0  0  0  0  0  0  0 
    4.3950    2.1681   -0.8760 H   0  0  0  0  0  0  0  0  0  0  0  0 
    3.7736    1.9224   -2.5083 H   0  0  0  0  0  0  0  0  0  0  0  0 
    1.5884    1.4953   -1.7745 H   0  0  0  0  0  0  0  0  0  0  0  0 
    2.0730    2.2794   -0.2560 H   0  0  0  0  0  0  0  0  0  0  0  0 
    4.3931   -0.0030    1.5416 H   0  0  0  0  0  0  0  0  0  0  0  0 
    3.1991   -1.6892   -0.5822 H   0  0  0  0  0  0  0  0  0  0  0  0 
    2.4355   -0.9787   -2.0288 H   0  0  0  0  0  0  0  0  0  0  0  0 
    4.6516   -0.2611   -2.4217 H   0  0  0  0  0  0  0  0  0  0  0  0 
    6.6902   -0.4256    2.5046 H   0  0  0  0  0  0  0  0  0  0  0  0 
  1 17  1  0  0  0  0 
  1 16  1  0  0  0  0 
  2  3  1  0  0  0  0 
  3 20  1  0  0  0  0 
  3  5  2  0  0  0  0 
  4  2  2  0  0  0  0 
  4 11  1  0  0  0  0 
  5 22  1  0  0  0  0 
  6 10  1  0  0  0  0 
  6  7  1  0  0  0  0 
  6 23  1  0  0  0  0 
  7 26  1  0  0  0  0 
  7 15  1  0  0  0  0 
  8 14  1  0  0  0  0 
  8 27  1  0  0  0  0 
  9 28  1  0  0  0  0 
  9 15  1  0  0  0  0 
 10 30  1  6  0  0  0 
 10  9  1  0  0  0  0 
 10 12  1  0  0  0  0 
 11 12  1  0  0  0  0 
 11 13  2  0  0  0  0 
 12  8  2  0  0  0  0 
 13  5  1  0  0  0  0 
 13 14  1  0  0  0  0 
 14 31  1  0  0  0  0 
 15  1  1  0  0  0  0 
 18  1  1  0  0  0  0 
 19  2  1  0  0  0  0 
 21  4  1  0  0  0  0 
 24  6  1  0  0  0  0 
 25  7  1  0  0  0  0 
 29  9  1  0  0  0  0 
M  END 
>  <HBA> 
1 
 
>  <HBD> 
1 
 
>  <TPSA> 
19.03 
 
>  <cid> 
19337 
 
>  <dipole> 
1.86 
 
>  <excitation_energy_1> 
4.466 
 
>  <excitation_energy_2> 
4.603 
 
>  <excitation_energy_3> 
4.796 
 
>  <excitation_energy_4> 
4.921 
 
>  <homo_energy> 
-5.113 
 
>  <homo_lumo_gap> 
5.135 
 
>  <logP> 
2.525 
 
>  <lumo_energy> 
0.022 
 
>  <melting_point> 
122.32 
 
>  <molecular_refractivity> 
67.19 
 
>  <oscillator_strength_1> 
0.0551 
 
>  <oscillator_strength_2> 
0.0014 
 
>  <oscillator_strength_3> 
0.0225 
 
>  <oscillator_strength_4> 
0.0032 
 
>  <open_babel_can_smiles> 
CN1CC[C@H](C1)c1c[nH]c2c1cccc2 
 
>  <mulliken_charges> 
31 
1   -0.294195 
2   -0.140892 
3   -0.152357 
4   -0.208329 
5   -0.164089 
6   -0.28197 
7   -0.11718 
8   -0.004348 
9   -0.119566 
10   -0.185541 
11   0.07087 
12   0.066809 
13   0.316905 
14   -0.69392 
15   -0.382185 
16   0.147667 
17   0.148381 
18   0.117082 
19   0.116715 
20   0.11922 
21   0.120677 
22   0.117286 
23   0.154801 
24   0.136782 
25   0.108582 
26   0.138065 
27   0.162122 
28   0.144835 
29   0.104441 
30   0.129529 
31   0.323801 
 
>  <lowdin_charges> 
31 
1   -0.358748 
2   -0.179235 
3   -0.165119 
4   -0.165968 
5   -0.188551 
6   -0.285195 
7   -0.204448 
8   -0.139629 
9   -0.200938 
10   -0.12259 
11   -0.036065 
12   -0.062831 
13   0.028061 
14   -0.196129 
15   -0.18813 
16   0.150917 
17   0.149808 
18   0.121038 
19   0.153259 
20   0.152121 
21   0.152765 
22   0.153288 
23   0.156669 
24   0.146179 
25   0.115353 
26   0.144399 
27   0.172254 
28   0.147888 
29   0.114011 
30   0.147972 
31   0.287593 
 
$$$$ 
 
