PCCDB-ID:  70699 
public computational chemistry database (PCCDB) project, http://pccdb.org 
 
 12 11  0  0  0  0  0  0  0  0999 V2000 
    0.9301   -0.0947    0.1685 C   0  0  0  0  0  0  0  0  0  0  0  0 
    3.0572    0.7632   -0.8873 C   0  0  0  0  0  0  0  0  0  0  0  0 
    2.3629    1.5039   -1.8756 C   0  0  0  0  0  0  0  0  0  0  0  0 
    2.4263    0.0314    0.0724 C   0  0  0  0  0  0  0  0  0  0  0  0 
    1.8037    2.1140   -2.6983 N   0  0  0  0  0  0  0  0  0  0  0  0 
    3.1261   -0.6130    1.0669 N   0  0  0  0  0  0  0  0  0  0  0  0 
    0.4321    0.5045   -0.5947 H   0  0  0  0  0  0  0  0  0  0  0  0 
    0.5834    0.2319    1.1561 H   0  0  0  0  0  0  0  0  0  0  0  0 
    0.6244   -1.1414    0.0392 H   0  0  0  0  0  0  0  0  0  0  0  0 
    4.1432    0.8134   -0.9140 H   0  0  0  0  0  0  0  0  0  0  0  0 
    2.6743   -1.3890    1.5306 H   0  0  0  0  0  0  0  0  0  0  0  0 
    4.1234   -0.7295    0.9449 H   0  0  0  0  0  0  0  0  0  0  0  0 
  1  8  1  0  0  0  0 
  2  4  2  0  0  0  0 
  3  2  1  0  0  0  0 
  4  1  1  0  0  0  0 
  4  6  1  0  0  0  0 
  5  3  3  0  0  0  0 
  6 11  1  0  0  0  0 
  7  1  1  0  0  0  0 
  9  1  1  0  0  0  0 
 10  2  1  0  0  0  0 
 12  6  1  0  0  0  0 
M  END 
>  <HBA> 
2 
 
>  <HBD> 
1 
 
>  <TPSA> 
49.81 
 
>  <cid> 
70699 
 
>  <dipole> 
6.35 
 
>  <excitation_energy_1> 
4.875 
 
>  <excitation_energy_2> 
5.43 
 
>  <excitation_energy_3> 
5.644 
 
>  <excitation_energy_4> 
6.113 
 
>  <homo_energy> 
-6.006 
 
>  <homo_lumo_gap> 
5.646 
 
>  <logP> 
1.073 
 
>  <lumo_energy> 
-0.359 
 
>  <melting_point> 
76.13 
 
>  <molecular_refractivity> 
23.32 
 
>  <oscillator_strength_1> 
0.0118 
 
>  <oscillator_strength_2> 
0.4329 
 
>  <oscillator_strength_3> 
0.0052 
 
>  <oscillator_strength_4> 
0.0041 
 
>  <open_babel_can_smiles> 
C/C(=C\C#N)/N 
 
>  <mulliken_charges> 
12 
1   -0.536992 
2   -0.250086 
3   0.298167 
4   0.377889 
5   -0.509748 
6   -0.753499 
7   0.203293 
8   0.178493 
9   0.166048 
10   0.153707 
11   0.335882 
12   0.336847 
 
>  <lowdin_charges> 
12 
1   -0.448351 
2   -0.280714 
3   -0.019038 
4   0.103544 
5   -0.161999 
6   -0.457928 
7   0.188068 
8   0.170457 
9   0.164094 
10   0.171265 
11   0.287021 
12   0.283583 
 
$$$$ 
 
