PCCDB-ID:  8177 
public computational chemistry database (PCCDB) project, http://pccdb.org 
 
 29 28  0  0  0  0  0  0  0  0999 V2000 
    2.9793    6.9043   -1.1954 C   0  0  0  0  0  0  0  0  0  0  0  0 
    4.4315    6.4271   -1.2933 C   0  0  0  0  0  0  0  0  0  0  0  0 
    4.7306    5.6732   -2.5945 C   0  0  0  0  0  0  0  0  0  0  0  0 
    6.2977   -1.4109   -0.0870 C   0  0  0  0  0  0  0  0  0  0  0  0 
    6.1798    5.1874   -2.6970 C   0  0  0  0  0  0  0  0  0  0  0  0 
    6.8211   -0.0207    0.2387 C   0  0  0  0  0  0  0  0  0  0  0  0 
    6.0889    2.9979   -1.7460 C   0  0  0  0  0  0  0  0  0  0  0  0 
    6.7642    2.1823   -0.6525 C   0  0  0  0  0  0  0  0  0  0  0  0 
    6.6796   -1.8106   -1.3918 O   0  0  0  0  0  0  0  0  0  0  0  0 
    6.5782    4.3205   -1.6403 O   0  0  0  0  0  0  0  0  0  0  0  0 
    6.2622    0.8599   -0.7269 O   0  0  0  0  0  0  0  0  0  0  0  0 
    2.7961    7.4341   -0.2537 H   0  0  0  0  0  0  0  0  0  0  0  0 
    2.2797    6.0606   -1.2434 H   0  0  0  0  0  0  0  0  0  0  0  0 
    2.7279    7.5875   -2.0164 H   0  0  0  0  0  0  0  0  0  0  0  0 
    4.6695    5.7771   -0.4426 H   0  0  0  0  0  0  0  0  0  0  0  0 
    5.1084    7.2900   -1.2147 H   0  0  0  0  0  0  0  0  0  0  0  0 
    4.5356    6.3250   -3.4587 H   0  0  0  0  0  0  0  0  0  0  0  0 
    4.0423    4.8225   -2.6971 H   0  0  0  0  0  0  0  0  0  0  0  0 
    5.2019   -1.4197    0.0321 H   0  0  0  0  0  0  0  0  0  0  0  0 
    6.7195   -2.1415    0.6112 H   0  0  0  0  0  0  0  0  0  0  0  0 
    6.8628    6.0427   -2.6355 H   0  0  0  0  0  0  0  0  0  0  0  0 
    6.3487    4.6929   -3.6678 H   0  0  0  0  0  0  0  0  0  0  0  0 
    7.9206   -0.0069    0.1723 H   0  0  0  0  0  0  0  0  0  0  0  0 
    6.5308    0.2832    1.2581 H   0  0  0  0  0  0  0  0  0  0  0  0 
    4.9975    2.9460   -1.6156 H   0  0  0  0  0  0  0  0  0  0  0  0 
    6.3268    2.5676   -2.7329 H   0  0  0  0  0  0  0  0  0  0  0  0 
    6.5474    2.6298    0.3301 H   0  0  0  0  0  0  0  0  0  0  0  0 
    7.8562    2.1987   -0.7932 H   0  0  0  0  0  0  0  0  0  0  0  0 
    6.4383   -1.0663   -1.9681 H   0  0  0  0  0  0  0  0  0  0  0  0 
  1 12  1  0  0  0  0 
  2 16  1  0  0  0  0 
  2  1  1  0  0  0  0 
  2 15  1  0  0  0  0 
  3  2  1  0  0  0  0 
  4 19  1  0  0  0  0 
  4  6  1  0  0  0  0 
  4 20  1  0  0  0  0 
  5 21  1  0  0  0  0 
  5  3  1  0  0  0  0 
  5 10  1  0  0  0  0 
  6 24  1  0  0  0  0 
  7 10  1  0  0  0  0 
  7 25  1  0  0  0  0 
  7  8  1  0  0  0  0 
  8 27  1  0  0  0  0 
  9  4  1  0  0  0  0 
 11  8  1  0  0  0  0 
 11  6  1  0  0  0  0 
 13  1  1  0  0  0  0 
 14  1  1  0  0  0  0 
 17  3  1  0  0  0  0 
 18  3  1  0  0  0  0 
 22  5  1  0  0  0  0 
 23  6  1  0  0  0  0 
 26  7  1  0  0  0  0 
 28  8  1  0  0  0  0 
 29  9  1  0  0  0  0 
M  END 
>  <HBA> 
3 
 
>  <HBD> 
1 
 
>  <TPSA> 
38.69 
 
>  <cid> 
8177 
 
>  <dipole> 
1.96 
 
>  <excitation_energy_1> 
6.493 
 
>  <excitation_energy_2> 
6.799 
 
>  <excitation_energy_3> 
6.811 
 
>  <excitation_energy_4> 
6.862 
 
>  <homo_energy> 
-6.939 
 
>  <homo_lumo_gap> 
8.999 
 
>  <logP> 
0.812 
 
>  <lumo_energy> 
2.06 
 
>  <melting_point> 
-27.17 
 
>  <molecular_refractivity> 
43.9 
 
>  <oscillator_strength_1> 
0.0207 
 
>  <oscillator_strength_2> 
0.0036 
 
>  <oscillator_strength_3> 
0.006 
 
>  <oscillator_strength_4> 
0.01 
 
>  <open_babel_can_smiles> 
CCCCOCCOCCO 
 
>  <mulliken_charges> 
29 
1   -0.442482 
2   -0.243545 
3   -0.275241 
4   -0.034878 
5   -0.021604 
6   -0.031501 
7   -0.029123 
8   -0.021534 
9   -0.621366 
10   -0.47925 
11   -0.499616 
12   0.143861 
13   0.141099 
14   0.140593 
15   0.147739 
16   0.130192 
17   0.131457 
18   0.135916 
19   0.130065 
20   0.145334 
21   0.142175 
22   0.12088 
23   0.134039 
24   0.123019 
25   0.136063 
26   0.12642 
27   0.13555 
28   0.136966 
29   0.398773 
 
>  <lowdin_charges> 
29 
1   -0.445675 
2   -0.274685 
3   -0.29442 
4   -0.137915 
5   -0.131136 
6   -0.143999 
7   -0.132191 
8   -0.128953 
9   -0.469699 
10   -0.273838 
11   -0.283146 
12   0.150367 
13   0.146611 
14   0.146313 
15   0.147903 
16   0.140111 
17   0.146245 
18   0.141911 
19   0.129713 
20   0.151855 
21   0.146841 
22   0.129016 
23   0.132622 
24   0.131666 
25   0.131361 
26   0.13023 
27   0.135215 
28   0.133573 
29   0.344103 
 
$$$$ 
 
