PCCDB-ID:  21661 
public computational chemistry database (PCCDB) project, http://pccdb.org 
 
 27 28  0  0  1  0  0  0  0  0999 V2000 
    0.7951    1.6052   -0.1844 C   0  0  0  0  0  0  0  0  0  0  0  0 
    4.5399    1.4338    0.5470 C   0  0  0  0  0  0  0  0  0  0  0  0 
    3.2426    1.9267    0.3900 C   0  0  0  0  0  0  0  0  0  0  0  0 
    4.8221    0.0960    0.2795 C   0  0  0  0  0  0  0  0  0  0  0  0 
    5.5620   -4.2388    2.2726 C   0  0  0  0  0  0  0  0  0  0  0  0 
    4.3301   -3.6238    2.9912 C   0  0  0  0  0  0  0  0  0  0  0  0 
    2.5101   -0.2555   -0.3050 C   0  0  0  0  0  0  0  0  0  0  0  0 
    4.1105   -2.2263   -0.4432 C   0  0  0  0  0  0  0  0  0  0  0  0 
    2.2075    1.0873   -0.0360 C   0  0  0  0  0  0  0  0  0  0  0  0 
    3.8041   -0.7649   -0.1546 C   0  0  0  0  0  0  0  0  0  0  0  0 
    4.4938   -2.9948    0.7955 C   0  0  3  0  0  0  0  0  0  0  0  0 
    5.6190   -3.5927    0.9477 N   0  0  0  0  0  0  0  0  0  0  0  0 
    3.5711   -3.1149    1.8387 N   0  0  0  0  0  0  0  0  0  0  0  0 
    0.7839    2.6739   -0.4231 H   0  0  0  0  0  0  0  0  0  0  0  0 
    0.2217    1.4736    0.7432 H   0  0  0  0  0  0  0  0  0  0  0  0 
    0.2544    1.0761   -0.9765 H   0  0  0  0  0  0  0  0  0  0  0  0 
    5.3345    2.0995    0.8742 H   0  0  0  0  0  0  0  0  0  0  0  0 
    3.0334    2.9741    0.5961 H   0  0  0  0  0  0  0  0  0  0  0  0 
    5.8315   -0.2889    0.4025 H   0  0  0  0  0  0  0  0  0  0  0  0 
    5.4383   -5.3221    2.1349 H   0  0  0  0  0  0  0  0  0  0  0  0 
    6.4969   -4.0842    2.8210 H   0  0  0  0  0  0  0  0  0  0  0  0 
    4.6235   -2.8090    3.6704 H   0  0  0  0  0  0  0  0  0  0  0  0 
    3.7515   -4.3562    3.5624 H   0  0  0  0  0  0  0  0  0  0  0  0 
    1.7175   -0.9171   -0.6514 H   0  0  0  0  0  0  0  0  0  0  0  0 
    4.9421   -2.3198   -1.1476 H   0  0  0  0  0  0  0  0  0  0  0  0 
    3.2328   -2.7021   -0.8984 H   0  0  0  0  0  0  0  0  0  0  0  0 
    2.9646   -2.3168    1.9935 H   0  0  0  0  0  0  0  0  0  0  0  0 
  1  9  1  0  0  0  0 
  1 15  1  0  0  0  0 
  2 17  1  0  0  0  0 
  3  2  1  0  0  0  0 
  3 18  1  0  0  0  0 
  4 19  1  0  0  0  0 
  4  2  2  0  0  0  0 
  5 21  1  0  0  0  0 
  5  6  1  0  0  0  0 
  6 23  1  0  0  0  0 
  6 22  1  0  0  0  0 
  7 10  2  0  0  0  0 
  7  9  1  0  0  0  0 
  8 10  1  0  0  0  0 
  8 11  1  0  0  0  0 
  9  3  2  0  0  0  0 
 10  4  1  0  0  0  0 
 11 12  1  0  0  0  0 
 11 13  1  0  0  0  0 
 12  5  1  0  0  0  0 
 13 27  1  0  0  0  0 
 13  6  1  0  0  0  0 
 14  1  1  0  0  0  0 
 16  1  1  0  0  0  0 
 20  5  1  0  0  0  0 
 24  7  1  0  0  0  0 
 25  8  1  0  0  0  0 
 26  8  1  0  0  0  0 
M  RAD  2  11   2  12   2 
M  END 
>  <HBA> 
2 
 
>  <HBD> 
1 
 
>  <TPSA> 
24.39 
 
>  <cid> 
21661 
 
>  <dipole> 
2.91 
 
>  <excitation_energy_1> 
4.961 
 
>  <excitation_energy_2> 
4.98 
 
>  <excitation_energy_3> 
5.18 
 
>  <excitation_energy_4> 
5.297 
 
>  <homo_energy> 
-5.807 
 
>  <homo_lumo_gap> 
5.706 
 
>  <logP> 
1.304 
 
>  <lumo_energy> 
-0.101 
 
>  <melting_point> 
77.62 
 
>  <molecular_refractivity> 
62.41 
 
>  <oscillator_strength_1> 
0.0019 
 
>  <oscillator_strength_2> 
0.0046 
 
>  <oscillator_strength_3> 
0.0033 
 
>  <oscillator_strength_4> 
0.0042 
 
>  <open_babel_can_smiles> 
Cc1cccc(c1)C[C]1[N]CCN1 
 
>  <mulliken_charges> 
27 
1   -0.529436 
2   -0.125578 
3   -0.182659 
4   -0.181266 
5   -0.160507 
6   -0.148346 
7   -0.256596 
8   -0.417235 
9   0.183514 
10   0.154637 
11   0.489642 
12   -0.470589 
13   -0.600596 
14   0.158407 
15   0.164412 
16   0.158612 
17   0.130907 
18   0.122356 
19   0.143093 
20   0.149729 
21   0.146473 
22   0.139561 
23   0.148636 
24   0.119422 
25   0.182292 
26   0.163066 
27   0.318049 
 
>  <lowdin_charges> 
27 
1   -0.441997 
2   -0.152412 
3   -0.168917 
4   -0.167913 
5   -0.208678 
6   -0.21413 
7   -0.187688 
8   -0.279571 
9   0.003128 
10   -0.006396 
11   0.082786 
12   -0.244469 
13   -0.320428 
14   0.157404 
15   0.161461 
16   0.159928 
17   0.159504 
18   0.15332 
19   0.16328 
20   0.144184 
21   0.148977 
22   0.136291 
23   0.150435 
24   0.15344 
25   0.178476 
26   0.164829 
27   0.275156 
 
$$$$ 
 
