PCCDB-ID:  20122 
public computational chemistry database (PCCDB) project, http://pccdb.org 
 
 17 17  0  0  0  0  0  0  0  0999 V2000 
    0.6558    1.3071   -0.3068 C   0  0  0  0  0  0  0  0  0  0  0  0 
   -1.4608    0.0491   -0.3406 C   0  0  0  0  0  0  0  0  0  0  0  0 
    1.3095    0.0856    0.3472 C   0  0  0  0  0  0  0  0  0  0  0  0 
   -0.7156   -1.1184    0.3144 C   0  0  0  0  0  0  0  0  0  0  0  0 
   -0.7870    1.3172   -0.0274 N   0  0  0  0  0  0  0  0  0  0  0  0 
   -1.1907    1.9626    1.1429 N   0  0  0  0  0  0  0  0  0  0  0  0 
   -2.3084    1.6888    1.5789 O   0  0  0  0  0  0  0  0  0  0  0  0 
   -0.4247    2.8017    1.6166 O   0  0  0  0  0  0  0  0  0  0  0  0 
    0.6591   -1.1151   -0.0525 O   0  0  0  0  0  0  0  0  0  0  0  0 
    0.7584    1.2484   -1.3954 H   0  0  0  0  0  0  0  0  0  0  0  0 
    1.0882    2.2430    0.0416 H   0  0  0  0  0  0  0  0  0  0  0  0 
   -2.4978    0.1116   -0.0152 H   0  0  0  0  0  0  0  0  0  0  0  0 
   -1.4336   -0.0543   -1.4305 H   0  0  0  0  0  0  0  0  0  0  0  0 
    1.2796    0.1921    1.4438 H   0  0  0  0  0  0  0  0  0  0  0  0 
    2.3536   -0.0065    0.0341 H   0  0  0  0  0  0  0  0  0  0  0  0 
   -1.1257   -2.0749   -0.0225 H   0  0  0  0  0  0  0  0  0  0  0  0 
   -0.8212   -1.0575    1.4099 H   0  0  0  0  0  0  0  0  0  0  0  0 
  1  5  1  0  0  0  0 
  1 11  1  0  0  0  0 
  1  3  1  0  0  0  0 
  2  5  1  0  0  0  0 
  2 12  1  0  0  0  0 
  2  4  1  0  0  0  0 
  3 14  1  0  0  0  0 
  4 17  1  0  0  0  0 
  5  6  1  0  0  0  0 
  6  7  2  0  0  0  0 
  6  8  2  0  0  0  0 
  9  4  1  0  0  0  0 
  9  3  1  0  0  0  0 
 10  1  1  0  0  0  0 
 13  2  1  0  0  0  0 
 15  3  1  0  0  0  0 
 16  4  1  0  0  0  0 
M  END 
>  <HBA> 
2 
 
>  <HBD> 
0 
 
>  <TPSA> 
58.29 
 
>  <cid> 
20122 
 
>  <dipole> 
3.19 
 
>  <excitation_energy_1> 
4.487 
 
>  <excitation_energy_2> 
4.73 
 
>  <excitation_energy_3> 
5.51 
 
>  <excitation_energy_4> 
6.035 
 
>  <homo_energy> 
-6.887 
 
>  <homo_lumo_gap> 
5.565 
 
>  <logP> 
-0.029 
 
>  <lumo_energy> 
-1.322 
 
>  <melting_point> 
21.79 
 
>  <molecular_refractivity> 
35.23 
 
>  <oscillator_strength_1> 
0.0 
 
>  <oscillator_strength_2> 
0.0862 
 
>  <oscillator_strength_3> 
0.002 
 
>  <oscillator_strength_4> 
0.0501 
 
>  <open_babel_can_smiles> 
O=N(=O)N1CCOCC1 
 
>  <mulliken_charges> 
17 
1   -0.173576 
2   -0.174155 
3   -0.041467 
4   -0.041279 
5   -0.276435 
6   0.637261 
7   -0.420251 
8   -0.420663 
9   -0.461408 
10   0.172361 
11   0.205022 
12   0.20532 
13   0.172365 
14   0.14697 
15   0.161536 
16   0.161566 
17   0.146831 
 
>  <lowdin_charges> 
17 
1   -0.222722 
2   -0.22162 
3   -0.138712 
4   -0.139667 
5   -0.084594 
6   0.334526 
7   -0.271453 
8   -0.273739 
9   -0.271319 
10   0.161458 
11   0.186069 
12   0.184768 
13   0.161382 
14   0.137668 
15   0.159371 
16   0.160951 
17   0.137634 
 
$$$$ 
 
