PCCDB-ID:  41896 
public computational chemistry database (PCCDB) project, http://pccdb.org 
 
 27 28  0  0  1  0  0  0  0  0999 V2000 
   -2.5786   -1.1244   -0.2330 C   0  0  0  0  0  0  0  0  0  0  0  0 
   -2.7818    0.2454   -0.0807 C   0  0  0  0  0  0  0  0  0  0  0  0 
    2.2043   -0.9397   -0.6979 C   0  0  0  0  0  0  0  0  0  0  0  0 
   -1.2935   -1.6480   -0.0856 C   0  0  0  0  0  0  0  0  0  0  0  0 
   -1.6981    1.0706    0.2222 C   0  0  0  0  0  0  0  0  0  0  0  0 
    1.1815   -1.4454    0.3429 C   0  0  0  0  0  0  0  0  0  0  0  0 
    2.8089    0.4359   -0.3836 C   0  0  0  0  0  0  0  0  0  0  0  0 
    0.7320    1.5006    0.7279 C   0  0  0  0  0  0  0  0  0  0  0  0 
   -0.1979   -0.8303    0.2173 C   0  0  0  0  0  0  0  0  0  0  0  0 
   -0.4046    0.5569    0.3808 C   0  0  0  0  0  0  0  0  0  0  0  0 
    1.8370    1.6382   -0.3459 C   0  0  2  0  0  0  0  0  0  0  0  0 
    1.2163    1.9966   -1.6273 N   0  0  0  0  0  0  0  0  0  0  0  0 
   -3.4107   -1.7831   -0.4673 H   0  0  0  0  0  0  0  0  0  0  0  0 
   -3.7746    0.6722   -0.1960 H   0  0  0  0  0  0  0  0  0  0  0  0 
    1.7334   -0.9290   -1.6906 H   0  0  0  0  0  0  0  0  0  0  0  0 
    3.0262   -1.6650   -0.7581 H   0  0  0  0  0  0  0  0  0  0  0  0 
   -1.1332   -2.7172   -0.2084 H   0  0  0  0  0  0  0  0  0  0  0  0 
   -1.8542    2.1403    0.3397 H   0  0  0  0  0  0  0  0  0  0  0  0 
    1.5868   -1.2641    1.3504 H   0  0  0  0  0  0  0  0  0  0  0  0 
    1.0856   -2.5331    0.2457 H   0  0  0  0  0  0  0  0  0  0  0  0 
    3.5901    0.6562   -1.1262 H   0  0  0  0  0  0  0  0  0  0  0  0 
    3.3247    0.3791    0.5873 H   0  0  0  0  0  0  0  0  0  0  0  0 
    1.2058    1.1874    1.6694 H   0  0  0  0  0  0  0  0  0  0  0  0 
    0.3120    2.4967    0.9007 H   0  0  0  0  0  0  0  0  0  0  0  0 
    2.4430    2.5057   -0.0478 H   0  0  0  0  0  0  0  0  0  0  0  0 
    0.5725    1.2633   -1.9208 H   0  0  0  0  0  0  0  0  0  0  0  0 
    1.9299    2.0667   -2.3517 H   0  0  0  0  0  0  0  0  0  0  0  0 
  1  4  2  0  0  0  0 
  1  2  1  0  0  0  0 
  2  5  2  0  0  0  0 
  3  7  1  0  0  0  0 
  3  6  1  0  0  0  0 
  4  9  1  0  0  0  0 
  5 18  1  0  0  0  0 
  5 10  1  0  0  0  0 
  6 19  1  0  0  0  0 
  7 11  1  0  0  0  0 
  7 22  1  0  0  0  0 
  8 24  1  0  0  0  0 
  8 23  1  0  0  0  0 
  9  6  1  0  0  0  0 
  9 10  2  0  0  0  0 
 10  8  1  0  0  0  0 
 11 25  1  1  0  0  0 
 11  8  1  0  0  0  0 
 12 11  1  0  0  0  0 
 13  1  1  0  0  0  0 
 14  2  1  0  0  0  0 
 15  3  1  0  0  0  0 
 16  3  1  0  0  0  0 
 17  4  1  0  0  0  0 
 20  6  1  0  0  0  0 
 21  7  1  0  0  0  0 
 26 12  1  0  0  0  0 
 27 12  1  0  0  0  0 
M  END 
>  <HBA> 
1 
 
>  <HBD> 
1 
 
>  <TPSA> 
26.02 
 
>  <cid> 
41896 
 
>  <dipole> 
1.45 
 
>  <excitation_energy_1> 
5.17 
 
>  <excitation_energy_2> 
5.409 
 
>  <excitation_energy_3> 
5.475 
 
>  <excitation_energy_4> 
5.628 
 
>  <homo_energy> 
-6.065 
 
>  <homo_lumo_gap> 
6.147 
 
>  <logP> 
2.593 
 
>  <lumo_energy> 
0.082 
 
>  <melting_point> 
86.82 
 
>  <molecular_refractivity> 
51.39 
 
>  <oscillator_strength_1> 
0.0039 
 
>  <oscillator_strength_2> 
0.0089 
 
>  <oscillator_strength_3> 
0.0018 
 
>  <oscillator_strength_4> 
0.0094 
 
>  <open_babel_can_smiles> 
N[C@@H]1CCCc2c(C1)cccc2 
 
>  <mulliken_charges> 
27 
1   -0.126909 
2   -0.128703 
3   -0.253841 
4   -0.194189 
5   -0.185375 
6   -0.349481 
7   -0.267796 
8   -0.340073 
9   0.12577 
10   0.103876 
11   0.029894 
12   -0.718851 
13   0.125399 
14   0.126354 
15   0.128662 
16   0.134386 
17   0.120115 
18   0.128801 
19   0.143603 
20   0.139318 
21   0.121832 
22   0.123911 
23   0.13985 
24   0.150172 
25   0.128793 
26   0.303709 
27   0.290772 
 
>  <lowdin_charges> 
27 
1   -0.16174 
2   -0.161174 
3   -0.277754 
4   -0.167733 
5   -0.160692 
6   -0.273721 
7   -0.297179 
8   -0.278529 
9   -0.014381 
10   -0.016719 
11   -0.067064 
12   -0.557502 
13   0.156952 
14   0.156077 
15   0.13806 
16   0.146947 
17   0.150664 
18   0.155392 
19   0.147753 
20   0.147633 
21   0.139336 
22   0.138313 
23   0.149791 
24   0.156538 
25   0.141427 
26   0.256988 
27   0.252319 
 
$$$$ 
 
