PCCDB-ID:  68130 
public computational chemistry database (PCCDB) project, http://pccdb.org 
 
 12 12  0  0  0  0  0  0  0  0999 V2000 
   -1.2220   -0.7002    0.0112 C   0  0  0  0  0  0  0  0  0  0  0  0 
    0.0174   -1.4195    0.0670 C   0  0  0  0  0  0  0  0  0  0  0  0 
   -1.1851    0.6472   -0.0172 C   0  0  0  0  0  0  0  0  0  0  0  0 
    1.1983   -0.7421    0.0903 C   0  0  0  0  0  0  0  0  0  0  0  0 
    1.2330    0.7272    0.0592 C   0  0  0  0  0  0  0  0  0  0  0  0 
    2.4344   -1.2981    0.1423 O   0  0  0  0  0  0  0  0  0  0  0  0 
    2.2206    1.4185    0.0760 O   0  0  0  0  0  0  0  0  0  0  0  0 
   -0.0190    1.3395    0.0052 O   0  0  0  0  0  0  0  0  0  0  0  0 
   -2.1713   -1.2217   -0.0080 H   0  0  0  0  0  0  0  0  0  0  0  0 
    0.0094   -2.5075    0.0906 H   0  0  0  0  0  0  0  0  0  0  0  0 
   -2.0430    1.3071   -0.0594 H   0  0  0  0  0  0  0  0  0  0  0  0 
    2.3442   -2.2645    0.1607 H   0  0  0  0  0  0  0  0  0  0  0  0 
  1  2  1  0  0  0  0 
  2  4  2  0  0  0  0 
  2 10  1  0  0  0  0 
  3  8  1  0  0  0  0 
  3  1  2  0  0  0  0 
  4  6  1  0  0  0  0 
  5  7  2  0  0  0  0 
  5  4  1  0  0  0  0 
  6 12  1  0  0  0  0 
  8  5  1  0  0  0  0 
  9  1  1  0  0  0  0 
 11  3  1  0  0  0  0 
M  END 
>  <HBA> 
3 
 
>  <HBD> 
1 
 
>  <TPSA> 
50.44 
 
>  <cid> 
68130 
 
>  <dipole> 
5.51 
 
>  <excitation_energy_1> 
4.35 
 
>  <excitation_energy_2> 
4.762 
 
>  <excitation_energy_3> 
5.044 
 
>  <excitation_energy_4> 
5.61 
 
>  <homo_energy> 
-6.027 
 
>  <homo_lumo_gap> 
4.68 
 
>  <logP> 
0.345 
 
>  <lumo_energy> 
-1.347 
 
>  <melting_point> 
77.96 
 
>  <molecular_refractivity> 
27.0 
 
>  <oscillator_strength_1> 
0.1792 
 
>  <oscillator_strength_2> 
0.0 
 
>  <oscillator_strength_3> 
0.0 
 
>  <oscillator_strength_4> 
0.0045 
 
>  <open_babel_can_smiles> 
O=c1occcc1O 
 
>  <mulliken_charges> 
12 
1   -0.178971 
2   -0.165087 
3   0.114578 
4   0.258961 
5   0.590506 
6   -0.603941 
7   -0.445973 
8   -0.448506 
9   0.153684 
10   0.141445 
11   0.171032 
12   0.412272 
 
>  <lowdin_charges> 
12 
1   -0.203558 
2   -0.190369 
3   -0.036817 
4   0.057947 
5   0.185005 
6   -0.339707 
7   -0.229067 
8   -0.118615 
9   0.176391 
10   0.161845 
11   0.176314 
12   0.360631 
 
$$$$ 
 
