PCCDB-ID:  34938 
public computational chemistry database (PCCDB) project, http://pccdb.org 
 
 16 16  0  0  0  0  0  0  0  0999 V2000 
    0.8053    0.0450   -0.3314 C   0  0  0  0  0  0  0  0  0  0  0  0 
    0.1528    1.2447    0.1590 C   0  0  0  0  0  0  0  0  0  0  0  0 
    0.1937    3.5294    0.5292 C   0  0  0  0  0  0  0  0  0  0  0  0 
   -1.8183    2.2451    1.1976 C   0  0  0  0  0  0  0  0  0  0  0  0 
    0.7204    4.6933    0.4943 N   0  0  0  0  0  0  0  0  0  0  0  0 
   -2.9846    2.2424    1.7182 N   0  0  0  0  0  0  0  0  0  0  0  0 
   -0.2764   -2.1480   -0.2471 N   0  0  0  0  0  0  0  0  0  0  0  0 
    0.2334   -1.1253   -0.2892 N   0  0  0  0  0  0  0  0  0  0  0  0 
    0.8048    2.3613    0.0649 N   0  0  0  0  0  0  0  0  0  0  0  0 
   -1.1177    1.1324    0.6941 N   0  0  0  0  0  0  0  0  0  0  0  0 
   -1.0940    3.4062    1.0711 N   0  0  0  0  0  0  0  0  0  0  0  0 
    1.7989    0.1008   -0.7532 H   0  0  0  0  0  0  0  0  0  0  0  0 
    1.6481    4.6153    0.0748 H   0  0  0  0  0  0  0  0  0  0  0  0 
   -3.3933    1.3081    1.7395 H   0  0  0  0  0  0  0  0  0  0  0  0 
   -1.5805    0.2365    0.7542 H   0  0  0  0  0  0  0  0  0  0  0  0 
   -1.5331    4.2518    1.4115 H   0  0  0  0  0  0  0  0  0  0  0  0 
  1  8  1  0  0  0  0 
  1  2  2  0  0  0  0 
  2 10  1  0  0  0  0 
  3 11  1  0  0  0  0 
  4  6  2  0  0  0  0 
  5  3  1  0  0  0  0 
  6 14  1  0  0  0  0 
  8  7  1  0  0  0  0 
  9  2  1  0  0  0  0 
  9  3  2  0  0  0  0 
 10 15  1  0  0  0  0 
 10  4  1  0  0  0  0 
 11  4  1  0  0  0  0 
 11 16  1  0  0  0  0 
 12  1  1  0  0  0  0 
 13  5  1  0  0  0  0 
M  RAD  3   5   2   7   3   8   2 
M  END 
>  <HBA> 
5 
 
>  <HBD> 
2 
 
>  <TPSA> 
128.1 
 
>  <cid> 
34938 
 
>  <dipole> 
5.03 
 
>  <excitation_energy_1> 
2.59 
 
>  <excitation_energy_2> 
3.337 
 
>  <excitation_energy_3> 
3.658 
 
>  <excitation_energy_4> 
4.033 
 
>  <homo_energy> 
-6.275 
 
>  <homo_lumo_gap> 
3.616 
 
>  <logP> 
-0.072 
 
>  <lumo_energy> 
-2.659 
 
>  <melting_point> 
203.25 
 
>  <molecular_refractivity> 
37.25 
 
>  <oscillator_strength_1> 
0.0 
 
>  <oscillator_strength_2> 
0.0 
 
>  <oscillator_strength_3> 
0.0 
 
>  <oscillator_strength_4> 
0.0583 
 
>  <open_babel_can_smiles> 
[N][N]/C=c\1/nc([NH])[nH]c(=N)[nH]1 
 
>  <mulliken_charges> 
16 
1   -0.09296 
2   0.587372 
3   0.612153 
4   0.697022 
5   -0.648135 
6   -0.646511 
7   -0.196478 
8   0.117331 
9   -0.549447 
10   -0.730607 
11   -0.647852 
12   0.227732 
13   0.295678 
14   0.276616 
15   0.337997 
16   0.36009 
 
>  <lowdin_charges> 
16 
1   -0.246291 
2   0.129591 
3   0.118564 
4   0.138617 
5   -0.423505 
6   -0.45102 
7   -0.038699 
8   0.158698 
9   -0.23091 
10   -0.261471 
11   -0.23536 
12   0.216744 
13   0.26312 
14   0.254149 
15   0.293955 
16   0.31382 
 
$$$$ 
 
