PCCDB-ID:  10958 
public computational chemistry database (PCCDB) project, http://pccdb.org 
 
 16 15  0  0  0  0  0  0  0  0999 V2000 
    0.8316    0.0320   -0.0616 C   0  0  0  0  0  0  0  0  0  0  0  0 
    2.3079   -0.4141    1.9573 C   0  0  0  0  0  0  0  0  0  0  0  0 
    3.1775   -0.8936   -0.3401 C   0  0  0  0  0  0  0  0  0  0  0  0 
    2.2646    0.0192    0.4843 C   0  0  0  0  0  0  0  0  0  0  0  0 
    2.7796   -1.3765   -2.6141 N   0  0  0  0  0  0  0  0  0  0  0  0 
    2.8712   -0.9833   -3.7241 O   0  0  0  0  0  0  0  0  0  0  0  0 
    3.2971   -0.4206   -1.6947 O   0  0  0  0  0  0  0  0  0  0  0  0 
    0.2016    0.7156    0.5184 H   0  0  0  0  0  0  0  0  0  0  0  0 
    0.3799   -0.9671   -0.0053 H   0  0  0  0  0  0  0  0  0  0  0  0 
    0.8053    0.3567   -1.1065 H   0  0  0  0  0  0  0  0  0  0  0  0 
    1.6944    0.2511    2.5746 H   0  0  0  0  0  0  0  0  0  0  0  0 
    3.3292   -0.3927    2.3560 H   0  0  0  0  0  0  0  0  0  0  0  0 
    1.9193   -1.4330    2.0821 H   0  0  0  0  0  0  0  0  0  0  0  0 
    2.7924   -1.9209   -0.3673 H   0  0  0  0  0  0  0  0  0  0  0  0 
    4.1917   -0.9101    0.0750 H   0  0  0  0  0  0  0  0  0  0  0  0 
    2.6740    1.0366    0.4109 H   0  0  0  0  0  0  0  0  0  0  0  0 
  1  9  1  0  0  0  0 
  1  4  1  0  0  0  0 
  1  8  1  0  0  0  0 
  2 13  1  0  0  0  0 
  2 12  1  0  0  0  0 
  2 11  1  0  0  0  0 
  3 15  1  0  0  0  0 
  3  4  1  0  0  0  0 
  4  2  1  0  0  0  0 
  5  7  1  0  0  0  0 
  6  5  1  0  0  0  0 
  7  3  1  0  0  0  0 
 10  1  1  0  0  0  0 
 14  3  1  0  0  0  0 
 16  4  1  0  0  0  0 
M  RAD  2   5   2   6   2 
M  END 
>  <HBA> 
1 
 
>  <HBD> 
0 
 
>  <TPSA> 
38.66 
 
>  <cid> 
10958 
 
>  <dipole> 
2.65 
 
>  <excitation_energy_1> 
3.405 
 
>  <excitation_energy_2> 
5.381 
 
>  <excitation_energy_3> 
6.034 
 
>  <excitation_energy_4> 
6.234 
 
>  <homo_energy> 
-7.353 
 
>  <homo_lumo_gap> 
5.317 
 
>  <logP> 
1.34 
 
>  <lumo_energy> 
-2.035 
 
>  <melting_point> 
-12.79 
 
>  <molecular_refractivity> 
27.16 
 
>  <oscillator_strength_1> 
0.0009 
 
>  <oscillator_strength_2> 
0.0759 
 
>  <oscillator_strength_3> 
0.0005 
 
>  <oscillator_strength_4> 
0.0014 
 
>  <open_babel_can_smiles> 
[O][N]OCC(C)C 
 
>  <mulliken_charges> 
16 
1   -0.450378 
2   -0.45236 
3   -0.032259 
4   -0.088158 
5   0.279761 
6   -0.238743 
7   -0.359422 
8   0.147994 
9   0.142635 
10   0.158509 
11   0.153355 
12   0.146053 
13   0.145514 
14   0.15163 
15   0.152138 
16   0.143731 
 
>  <lowdin_charges> 
16 
1   -0.448025 
2   -0.444496 
3   -0.144503 
4   -0.130799 
5   0.131122 
6   -0.125708 
7   -0.192451 
8   0.154754 
9   0.147266 
10   0.155041 
11   0.15758 
12   0.149771 
13   0.147982 
14   0.146307 
15   0.150056 
16   0.146102 
 
$$$$ 
 
