PCCDB-ID:  24984 
public computational chemistry database (PCCDB) project, http://pccdb.org 
 
 20 20  0  0  1  0  0  0  0  0999 V2000 
    0.9355   -0.1448   -0.2592 C   0  0  0  0  0  0  0  0  0  0  0  0 
    1.0210    1.4859    2.6313 C   0  0  0  0  0  0  0  0  0  0  0  0 
    3.0161   -1.1568    0.8214 C   0  0  0  0  0  0  0  0  0  0  0  0 
    3.0748   -0.0161    2.8459 C   0  0  0  0  0  0  0  0  0  0  0  0 
    2.4177    0.0444    0.0824 C   0  0  2  0  0  0  0  0  0  0  0  0 
    2.4809    1.2532    2.2271 C   0  0  1  0  0  0  0  0  0  0  0  0 
    2.5950   -1.1784    2.1803 O   0  0  0  0  0  0  0  0  0  0  0  0 
    2.6837    1.2566    0.8052 O   0  0  0  0  0  0  0  0  0  0  0  0 
    0.8297   -0.8995   -1.0483 H   0  0  0  0  0  0  0  0  0  0  0  0 
    0.5107    0.7950   -0.6246 H   0  0  0  0  0  0  0  0  0  0  0  0 
    0.3564   -0.4813    0.6050 H   0  0  0  0  0  0  0  0  0  0  0  0 
    0.9695    1.7692    3.6898 H   0  0  0  0  0  0  0  0  0  0  0  0 
    0.4114    0.5886    2.4955 H   0  0  0  0  0  0  0  0  0  0  0  0 
    0.5910    2.2983    2.0377 H   0  0  0  0  0  0  0  0  0  0  0  0 
    4.1170   -1.1119    0.7772 H   0  0  0  0  0  0  0  0  0  0  0  0 
    2.6860   -2.0991    0.3726 H   0  0  0  0  0  0  0  0  0  0  0  0 
    2.7873   -0.1125    3.8977 H   0  0  0  0  0  0  0  0  0  0  0  0 
    4.1751    0.0172    2.7829 H   0  0  0  0  0  0  0  0  0  0  0  0 
    2.9699    0.1793   -0.8564 H   0  0  0  0  0  0  0  0  0  0  0  0 
    3.0716    2.1114    2.5721 H   0  0  0  0  0  0  0  0  0  0  0  0 
  1  5  1  0  0  0  0 
  1 11  1  0  0  0  0 
  2 12  1  0  0  0  0 
  3  7  1  0  0  0  0 
  4 17  1  0  0  0  0 
  5 19  1  6  0  0  0 
  5  8  1  0  0  0  0 
  5  3  1  0  0  0  0 
  6 20  1  1  0  0  0 
  6  2  1  0  0  0  0 
  6  4  1  0  0  0  0 
  7  4  1  0  0  0  0 
  8  6  1  0  0  0  0 
  9  1  1  0  0  0  0 
 10  1  1  0  0  0  0 
 13  2  1  0  0  0  0 
 14  2  1  0  0  0  0 
 15  3  1  0  0  0  0 
 16  3  1  0  0  0  0 
 18  4  1  0  0  0  0 
M  END 
>  <HBA> 
2 
 
>  <HBD> 
0 
 
>  <TPSA> 
18.46 
 
>  <cid> 
24984 
 
>  <dipole> 
0.14 
 
>  <excitation_energy_1> 
5.947 
 
>  <excitation_energy_2> 
6.335 
 
>  <excitation_energy_3> 
6.47 
 
>  <excitation_energy_4> 
6.721 
 
>  <homo_energy> 
-6.378 
 
>  <homo_lumo_gap> 
8.651 
 
>  <logP> 
0.81 
 
>  <lumo_energy> 
2.272 
 
>  <melting_point> 
-21.88 
 
>  <molecular_refractivity> 
31.01 
 
>  <oscillator_strength_1> 
0.0265 
 
>  <oscillator_strength_2> 
0.0032 
 
>  <oscillator_strength_3> 
0.002 
 
>  <oscillator_strength_4> 
0.0002 
 
>  <open_babel_can_smiles> 
C[C@@H]1COC[C@@H](O1)C 
 
>  <mulliken_charges> 
20 
1   -0.465032 
2   -0.464912 
3   -0.050349 
4   -0.05035 
5   0.139784 
6   0.139783 
7   -0.468824 
8   -0.499974 
9   0.138466 
10   0.156917 
11   0.160835 
12   0.138432 
13   0.160811 
14   0.156885 
15   0.126774 
16   0.145334 
17   0.145356 
18   0.126744 
19   0.131674 
20   0.131647 
 
>  <lowdin_charges> 
20 
1   -0.463702 
2   -0.462077 
3   -0.144322 
4   -0.142833 
5   -0.009046 
6   -0.009119 
7   -0.272132 
8   -0.283792 
9   0.151496 
10   0.158923 
11   0.156456 
12   0.149547 
13   0.156114 
14   0.159659 
15   0.12953 
16   0.152884 
17   0.151052 
18   0.129478 
19   0.145492 
20   0.14639 
 
$$$$ 
 
