PCCDB-ID:  16688 
public computational chemistry database (PCCDB) project, http://pccdb.org 
 
 28 28  0  0  1  0  0  0  0  0999 V2000 
    3.4821   -1.1623    0.0512 C   0  0  0  0  0  0  0  0  0  0  0  0 
    1.1293   -0.4030   -0.2377 C   0  0  0  0  0  0  0  0  0  0  0  0 
    2.5495    0.6222    1.5462 C   0  0  0  0  0  0  0  0  0  0  0  0 
    4.2480    3.4324    0.3373 C   0  0  0  0  0  0  0  0  0  0  0  0 
    2.9785    3.5294   -0.0678 C   0  0  0  0  0  0  0  0  0  0  0  0 
    5.1286    2.2597   -0.0047 C   0  0  0  0  0  0  0  0  0  0  0  0 
    2.2647    2.4852   -0.8934 C   0  0  0  0  0  0  0  0  0  0  0  0 
    4.5196    1.4005   -1.1241 C   0  0  0  0  0  0  0  0  0  0  0  0 
    3.0022    1.1239   -0.9831 C   0  0  1  0  0  0  0  0  0  0  0  0 
    2.5604    0.0742    0.1040 C   0  0  0  0  0  0  0  0  0  0  0  0 
    3.0831   -1.9619    0.6872 H   0  0  0  0  0  0  0  0  0  0  0  0 
    4.4939   -0.9383    0.4061 H   0  0  0  0  0  0  0  0  0  0  0  0 
    3.5628   -1.5601   -0.9684 H   0  0  0  0  0  0  0  0  0  0  0  0 
    0.7907   -1.1527    0.4875 H   0  0  0  0  0  0  0  0  0  0  0  0 
    1.0911   -0.8617   -1.2337 H   0  0  0  0  0  0  0  0  0  0  0  0 
    0.4028    0.4172   -0.2209 H   0  0  0  0  0  0  0  0  0  0  0  0 
    2.1847   -0.1512    2.2340 H   0  0  0  0  0  0  0  0  0  0  0  0 
    1.8915    1.4908    1.6495 H   0  0  0  0  0  0  0  0  0  0  0  0 
    3.5457    0.9191    1.8856 H   0  0  0  0  0  0  0  0  0  0  0  0 
    4.6842    4.2287    0.9396 H   0  0  0  0  0  0  0  0  0  0  0  0 
    2.4000    4.4150    0.1950 H   0  0  0  0  0  0  0  0  0  0  0  0 
    5.3183    1.6578    0.8969 H   0  0  0  0  0  0  0  0  0  0  0  0 
    6.1183    2.6200   -0.3206 H   0  0  0  0  0  0  0  0  0  0  0  0 
    2.1238    2.8837   -1.9106 H   0  0  0  0  0  0  0  0  0  0  0  0 
    1.2475    2.3521   -0.5037 H   0  0  0  0  0  0  0  0  0  0  0  0 
    5.0801    0.4669   -1.2347 H   0  0  0  0  0  0  0  0  0  0  0  0 
    4.6513    1.9451   -2.0695 H   0  0  0  0  0  0  0  0  0  0  0  0 
    2.7030    0.6617   -1.9350 H   0  0  0  0  0  0  0  0  0  0  0  0 
  1 10  1  0  0  0  0 
  1 12  1  0  0  0  0 
  1 11  1  0  0  0  0 
  2 16  1  0  0  0  0 
  2 10  1  0  0  0  0 
  2 14  1  0  0  0  0 
  3 18  1  0  0  0  0 
  3 19  1  0  0  0  0 
  3 17  1  0  0  0  0 
  4 20  1  0  0  0  0 
  5 21  1  0  0  0  0 
  5  4  2  0  0  0  0 
  6  4  1  0  0  0  0 
  6 22  1  0  0  0  0 
  7 25  1  0  0  0  0 
  7  5  1  0  0  0  0 
  8  9  1  0  0  0  0 
  8  6  1  0  0  0  0 
  9 28  1  6  0  0  0 
  9  7  1  0  0  0  0 
  9 10  1  0  0  0  0 
 10  3  1  0  0  0  0 
 13  1  1  0  0  0  0 
 15  2  1  0  0  0  0 
 23  6  1  0  0  0  0 
 24  7  1  0  0  0  0 
 26  8  1  0  0  0  0 
 27  8  1  0  0  0  0 
M  END 
>  <HBA> 
0 
 
>  <HBD> 
0 
 
>  <TPSA> 
0.0 
 
>  <cid> 
16688 
 
>  <dipole> 
0.21 
 
>  <excitation_energy_1> 
5.747 
 
>  <excitation_energy_2> 
6.299 
 
>  <excitation_energy_3> 
6.356 
 
>  <excitation_energy_4> 
6.377 
 
>  <homo_energy> 
-6.327 
 
>  <homo_lumo_gap> 
7.249 
 
>  <logP> 
3.389 
 
>  <lumo_energy> 
0.922 
 
>  <melting_point> 
21.84 
 
>  <molecular_refractivity> 
47.34 
 
>  <oscillator_strength_1> 
0.0045 
 
>  <oscillator_strength_2> 
0.0139 
 
>  <oscillator_strength_3> 
0.0061 
 
>  <oscillator_strength_4> 
0.0006 
 
>  <open_babel_can_smiles> 
CC([C@@H]1CCC=CC1)(C)C 
 
>  <mulliken_charges> 
28 
1   -0.451707 
2   -0.449654 
3   -0.446778 
4   -0.102612 
5   -0.103159 
6   -0.301378 
7   -0.319729 
8   -0.282103 
9   -0.075186 
10   0.101699 
11   0.136406 
12   0.141963 
13   0.136281 
14   0.137168 
15   0.136151 
16   0.140888 
17   0.131571 
18   0.144726 
19   0.145134 
20   0.116441 
21   0.115784 
22   0.14518 
23   0.137675 
24   0.143164 
25   0.141138 
26   0.133753 
27   0.133903 
28   0.11328 
 
>  <lowdin_charges> 
28 
1   -0.442952 
2   -0.445645 
3   -0.446087 
4   -0.178992 
5   -0.176372 
6   -0.27841 
7   -0.279893 
8   -0.278939 
9   -0.127861 
10   0.01383 
11   0.147973 
12   0.146048 
13   0.144514 
14   0.147252 
15   0.144103 
16   0.14623 
17   0.145227 
18   0.151419 
19   0.149295 
20   0.150138 
21   0.149658 
22   0.145166 
23   0.14798 
24   0.150109 
25   0.147553 
26   0.145705 
27   0.144251 
28   0.1387 
 
$$$$ 
 
