PCCDB-ID:  11897 
public computational chemistry database (PCCDB) project, http://pccdb.org 
 
 21 21  0  0  0  0  0  0  0  0999 V2000 
    0.9327    0.1108    0.1627 C   0  0  0  0  0  0  0  0  0  0  0  0 
    5.1475   -2.5850   -0.3987 C   0  0  0  0  0  0  0  0  0  0  0  0 
    3.1834    1.2604   -0.0401 C   0  0  0  0  0  0  0  0  0  0  0  0 
    4.5659    1.2060   -0.1894 C   0  0  0  0  0  0  0  0  0  0  0  0 
    3.1168   -1.1386   -0.0957 C   0  0  0  0  0  0  0  0  0  0  0  0 
    2.4351    0.0808    0.0144 C   0  0  0  0  0  0  0  0  0  0  0  0 
    4.5015   -1.2257   -0.2662 C   0  0  0  0  0  0  0  0  0  0  0  0 
    5.2404   -0.0195   -0.2977 C   0  0  0  0  0  0  0  0  0  0  0  0 
    6.7263   -0.0325   -0.4882 C   0  0  0  0  0  0  0  0  0  0  0  0 
    7.3328   -0.8602   -1.1275 O   0  0  0  0  0  0  0  0  0  0  0  0 
    7.4124    0.9875    0.1063 O   0  0  0  0  0  0  0  0  0  0  0  0 
    0.5819    1.0937    0.4919 H   0  0  0  0  0  0  0  0  0  0  0  0 
    0.5875   -0.6346    0.8879 H   0  0  0  0  0  0  0  0  0  0  0  0 
    0.4384   -0.1146   -0.7912 H   0  0  0  0  0  0  0  0  0  0  0  0 
    4.4251   -3.3733   -0.1656 H   0  0  0  0  0  0  0  0  0  0  0  0 
    6.0111   -2.6953    0.2641 H   0  0  0  0  0  0  0  0  0  0  0  0 
    5.5240   -2.7420   -1.4140 H   0  0  0  0  0  0  0  0  0  0  0  0 
    2.6850    2.2238    0.0301 H   0  0  0  0  0  0  0  0  0  0  0  0 
    5.1222    2.1379   -0.2626 H   0  0  0  0  0  0  0  0  0  0  0  0 
    2.5448   -2.0633   -0.0491 H   0  0  0  0  0  0  0  0  0  0  0  0 
    6.8213    1.4681    0.7085 H   0  0  0  0  0  0  0  0  0  0  0  0 
  1 12  1  0  0  0  0 
  1 13  1  0  0  0  0 
  2  7  1  0  0  0  0 
  2 15  1  0  0  0  0 
  2 16  1  0  0  0  0 
  3  6  1  0  0  0  0 
  3 18  1  0  0  0  0 
  4  3  2  0  0  0  0 
  5 20  1  0  0  0  0 
  5  6  2  0  0  0  0 
  6  1  1  0  0  0  0 
  7  5  1  0  0  0  0 
  8  7  2  0  0  0  0 
  8  4  1  0  0  0  0 
  9  8  1  0  0  0  0 
  9 11  1  0  0  0  0 
 10  9  2  0  0  0  0 
 11 21  1  0  0  0  0 
 14  1  1  0  0  0  0 
 17  2  1  0  0  0  0 
 19  4  1  0  0  0  0 
M  END 
>  <HBA> 
2 
 
>  <HBD> 
1 
 
>  <TPSA> 
37.3 
 
>  <cid> 
11897 
 
>  <dipole> 
4.82 
 
>  <excitation_energy_1> 
4.774 
 
>  <excitation_energy_2> 
4.842 
 
>  <excitation_energy_3> 
5.316 
 
>  <excitation_energy_4> 
5.897 
 
>  <homo_energy> 
-6.822 
 
>  <homo_lumo_gap> 
5.652 
 
>  <logP> 
2.002 
 
>  <lumo_energy> 
-1.17 
 
>  <melting_point> 
104.32 
 
>  <molecular_refractivity> 
43.33 
 
>  <oscillator_strength_1> 
0.0301 
 
>  <oscillator_strength_2> 
0.0172 
 
>  <oscillator_strength_3> 
0.1507 
 
>  <oscillator_strength_4> 
0.0797 
 
>  <open_babel_can_smiles> 
Cc1ccc(c(c1)C)C(=O)O 
 
>  <mulliken_charges> 
21 
1   -0.532383 
2   -0.511217 
3   -0.187739 
4   -0.198026 
5   -0.243751 
6   0.195588 
7   0.149393 
8   0.001723 
9   0.540674 
10   -0.449106 
11   -0.572216 
12   0.159631 
13   0.165726 
14   0.173245 
15   0.144067 
16   0.170628 
17   0.191261 
18   0.130693 
19   0.13858 
20   0.12577 
21   0.407456 
 
>  <lowdin_charges> 
21 
1   -0.442988 
2   -0.441119 
3   -0.171787 
4   -0.163281 
5   -0.173286 
6   0.018457 
7   0.02902 
8   -0.071289 
9   0.195624 
10   -0.239941 
11   -0.362577 
12   0.159362 
13   0.16432 
14   0.167086 
15   0.152455 
16   0.168654 
17   0.177775 
18   0.159037 
19   0.159351 
20   0.157141 
21   0.357988 
 
$$$$ 
 
