PCCDB-ID:  21347 
public computational chemistry database (PCCDB) project, http://pccdb.org 
 
 34 36  0  0  1  0  0  0  0  0999 V2000 
    0.9991    0.8616    2.2499 C   0  0  0  0  0  0  0  0  0  0  0  0 
    1.2920    1.9663    1.4240 C   0  0  0  0  0  0  0  0  0  0  0  0 
    0.8889   -5.0654   -1.0556 C   0  0  0  0  0  0  0  0  0  0  0  0 
   -0.0592   -3.8606   -1.1576 C   0  0  0  0  0  0  0  0  0  0  0  0 
    0.2147   -0.1889    1.7903 C   0  0  0  0  0  0  0  0  0  0  0  0 
    0.8037    2.0428    0.1246 C   0  0  0  0  0  0  0  0  0  0  0  0 
    0.1881   -6.2546   -0.3774 C   0  0  0  0  0  0  0  0  0  0  0  0 
   -1.6948   -2.3515    0.1267 C   0  0  0  0  0  0  0  0  0  0  0  0 
   -1.3042   -4.7645    0.8351 C   0  0  0  0  0  0  0  0  0  0  0  0 
   -1.2897   -0.4167   -1.5212 C   0  0  0  0  0  0  0  0  0  0  0  0 
   -0.6676   -3.5048    0.2104 C   0  0  1  0  0  0  0  0  0  0  0  0 
   -1.1273   -1.0277   -0.3029 C   0  0  0  0  0  0  0  0  0  0  0  0 
   -0.2927   -0.1448    0.4796 C   0  0  0  0  0  0  0  0  0  0  0  0 
    0.0134    0.9830   -0.3326 C   0  0  0  0  0  0  0  0  0  0  0  0 
   -0.4157   -5.9281    0.9198 N   0  0  0  0  0  0  0  0  0  0  0  0 
   -0.6059    0.7866   -1.5493 N   0  0  0  0  0  0  0  0  0  0  0  0 
    1.3945    0.8352    3.2617 H   0  0  0  0  0  0  0  0  0  0  0  0 
    1.9086    2.7733    1.8103 H   0  0  0  0  0  0  0  0  0  0  0  0 
    1.7751   -4.7865   -0.4660 H   0  0  0  0  0  0  0  0  0  0  0  0 
    1.2525   -5.3550   -2.0510 H   0  0  0  0  0  0  0  0  0  0  0  0 
   -0.8771   -4.1040   -1.8546 H   0  0  0  0  0  0  0  0  0  0  0  0 
    0.4604   -2.9922   -1.5793 H   0  0  0  0  0  0  0  0  0  0  0  0 
   -0.0056   -1.0337    2.4381 H   0  0  0  0  0  0  0  0  0  0  0  0 
    1.0266    2.8968   -0.5103 H   0  0  0  0  0  0  0  0  0  0  0  0 
    0.8840   -7.0895   -0.2327 H   0  0  0  0  0  0  0  0  0  0  0  0 
   -0.6169   -6.6225   -1.0306 H   0  0  0  0  0  0  0  0  0  0  0  0 
   -2.1714   -2.2408    1.1123 H   0  0  0  0  0  0  0  0  0  0  0  0 
   -2.4968   -2.6445   -0.5654 H   0  0  0  0  0  0  0  0  0  0  0  0 
   -2.1768   -5.0599    0.2320 H   0  0  0  0  0  0  0  0  0  0  0  0 
   -1.6797   -4.5444    1.8427 H   0  0  0  0  0  0  0  0  0  0  0  0 
   -1.8534   -0.7454   -2.3841 H   0  0  0  0  0  0  0  0  0  0  0  0 
    0.1527   -3.1837    0.8719 H   0  0  0  0  0  0  0  0  0  0  0  0 
    0.3309   -5.7209    1.5838 H   0  0  0  0  0  0  0  0  0  0  0  0 
   -0.5898    1.4298   -2.3248 H   0  0  0  0  0  0  0  0  0  0  0  0 
  1 17  1  0  0  0  0 
  2 18  1  0  0  0  0 
  2  1  2  0  0  0  0 
  3 19  1  0  0  0  0 
  3  7  1  0  0  0  0 
  4  3  1  0  0  0  0 
  4 11  1  0  0  0  0 
  5  1  1  0  0  0  0 
  5 23  1  0  0  0  0 
  6  2  1  0  0  0  0 
  7 25  1  0  0  0  0 
  7 15  1  0  0  0  0 
  8 11  1  0  0  0  0 
  8 27  1  0  0  0  0 
  9 15  1  0  0  0  0 
  9 30  1  0  0  0  0 
 10 12  2  0  0  0  0 
 11  9  1  0  0  0  0 
 11 32  1  1  0  0  0 
 12  8  1  0  0  0  0 
 12 13  1  0  0  0  0 
 13  5  2  0  0  0  0 
 14  6  2  0  0  0  0 
 14 13  1  0  0  0  0 
 15 33  1  0  0  0  0 
 16 10  1  0  0  0  0 
 16 14  1  0  0  0  0 
 20  3  1  0  0  0  0 
 21  4  1  0  0  0  0 
 22  4  1  0  0  0  0 
 24  6  1  0  0  0  0 
 26  7  1  0  0  0  0 
 28  8  1  0  0  0  0 
 29  9  1  0  0  0  0 
 31 10  1  0  0  0  0 
 34 16  1  0  0  0  0 
M  END 
>  <HBA> 
1 
 
>  <HBD> 
2 
 
>  <TPSA> 
27.82 
 
>  <cid> 
21347 
 
>  <dipole> 
2.71 
 
>  <excitation_energy_1> 
4.505 
 
>  <excitation_energy_2> 
4.676 
 
>  <excitation_energy_3> 
4.81 
 
>  <excitation_energy_4> 
4.913 
 
>  <homo_energy> 
-5.287 
 
>  <homo_lumo_gap> 
5.187 
 
>  <logP> 
3.039 
 
>  <lumo_energy> 
-0.101 
 
>  <melting_point> 
146.2 
 
>  <molecular_refractivity> 
71.9 
 
>  <oscillator_strength_1> 
0.0621 
 
>  <oscillator_strength_2> 
0.0009 
 
>  <oscillator_strength_3> 
0.0224 
 
>  <oscillator_strength_4> 
0.0032 
 
>  <open_babel_can_smiles> 
C1CC[C@H](CN1)Cc1c[nH]c2c1cccc2 
 
>  <mulliken_charges> 
34 
1   -0.140725 
2   -0.151434 
3   -0.264682 
4   -0.260505 
5   -0.210381 
6   -0.163314 
7   -0.144816 
8   -0.352586 
9   -0.146739 
10   -0.007538 
11   -0.082327 
12   0.08278 
13   0.078828 
14   0.312764 
15   -0.529371 
16   -0.691604 
17   0.118841 
18   0.121526 
19   0.124664 
20   0.12662 
21   0.116953 
22   0.142831 
23   0.122286 
24   0.11933 
25   0.135187 
26   0.135209 
27   0.138306 
28   0.131388 
29   0.131837 
30   0.132332 
31   0.145136 
32   0.118664 
33   0.285399 
34   0.325139 
 
>  <lowdin_charges> 
34 
1   -0.176343 
2   -0.165502 
3   -0.294066 
4   -0.283178 
5   -0.165808 
6   -0.189626 
7   -0.212081 
8   -0.268364 
9   -0.212054 
10   -0.139937 
11   -0.145857 
12   -0.058305 
13   -0.035527 
14   0.032568 
15   -0.360075 
16   -0.204225 
17   0.152874 
18   0.155929 
19   0.136543 
20   0.142736 
21   0.133569 
22   0.150145 
23   0.155148 
24   0.155079 
25   0.144572 
26   0.139512 
27   0.147913 
28   0.146813 
29   0.13779 
30   0.141641 
31   0.163404 
32   0.135158 
33   0.24849 
34   0.291063 
 
$$$$ 
 
