PCCDB-ID:  42478 
public computational chemistry database (PCCDB) project, http://pccdb.org 
 
 27 26  0  0  0  0  0  0  0  0999 V2000 
    8.6163    0.3548    0.6025 C   0  0  0  0  0  0  0  0  0  0  0  0 
    7.0367   -2.6411   -5.6961 C   0  0  0  0  0  0  0  0  0  0  0  0 
    7.3343   -0.4757    0.4842 C   0  0  0  0  0  0  0  0  0  0  0  0 
    6.6978   -0.4123   -0.9105 C   0  0  0  0  0  0  0  0  0  0  0  0 
    5.4151   -1.2474   -1.0252 C   0  0  0  0  0  0  0  0  0  0  0  0 
    4.6896   -1.1418   -2.3853 C   0  0  0  0  0  0  0  0  0  0  0  0 
    5.4808   -1.6768   -3.5452 C   0  0  0  0  0  0  0  0  0  0  0  0 
    5.2650   -4.3509   -5.8072 C   0  0  0  0  0  0  0  0  0  0  0  0 
    5.0721   -2.7251   -4.1596 N   0  0  0  0  0  0  0  0  0  0  0  0 
    5.7966   -3.2231   -5.2109 N   0  0  0  0  0  0  0  0  0  0  0  0 
    5.7644   -4.9329   -6.7510 O   0  0  0  0  0  0  0  0  0  0  0  0 
    9.0430    0.2892    1.6097 H   0  0  0  0  0  0  0  0  0  0  0  0 
    8.4240    1.4139    0.3909 H   0  0  0  0  0  0  0  0  0  0  0  0 
    9.3801    0.0094   -0.1052 H   0  0  0  0  0  0  0  0  0  0  0  0 
    7.3678   -3.2595   -6.5304 H   0  0  0  0  0  0  0  0  0  0  0  0 
    7.8006   -2.6398   -4.9091 H   0  0  0  0  0  0  0  0  0  0  0  0 
    6.8764   -1.6117   -6.0387 H   0  0  0  0  0  0  0  0  0  0  0  0 
    6.6040   -0.1307    1.2297 H   0  0  0  0  0  0  0  0  0  0  0  0 
    7.5519   -1.5236    0.7344 H   0  0  0  0  0  0  0  0  0  0  0  0 
    7.4352   -0.7503   -1.6529 H   0  0  0  0  0  0  0  0  0  0  0  0 
    6.4733    0.6363   -1.1586 H   0  0  0  0  0  0  0  0  0  0  0  0 
    4.7123   -0.9292   -0.2430 H   0  0  0  0  0  0  0  0  0  0  0  0 
    5.6429   -2.3032   -0.8248 H   0  0  0  0  0  0  0  0  0  0  0  0 
    4.4476   -0.0852   -2.5757 H   0  0  0  0  0  0  0  0  0  0  0  0 
    3.7433   -1.6909   -2.3414 H   0  0  0  0  0  0  0  0  0  0  0  0 
    6.3977   -1.1515   -3.8243 H   0  0  0  0  0  0  0  0  0  0  0  0 
    4.3276   -4.6489   -5.3102 H   0  0  0  0  0  0  0  0  0  0  0  0 
  1 12  1  0  0  0  0 
  2 10  1  0  0  0  0 
  2 16  1  0  0  0  0 
  3  1  1  0  0  0  0 
  3 19  1  0  0  0  0 
  3 18  1  0  0  0  0 
  4  3  1  0  0  0  0 
  5  4  1  0  0  0  0 
  5 23  1  0  0  0  0 
  5 22  1  0  0  0  0 
  6 25  1  0  0  0  0 
  6  5  1  0  0  0  0 
  7  6  1  0  0  0  0 
  8 27  1  0  0  0  0 
  8 10  1  0  0  0  0 
  9  7  2  0  0  0  0 
 10  9  1  0  0  0  0 
 11  8  2  0  0  0  0 
 13  1  1  0  0  0  0 
 14  1  1  0  0  0  0 
 15  2  1  0  0  0  0 
 17  2  1  0  0  0  0 
 20  4  1  0  0  0  0 
 21  4  1  0  0  0  0 
 24  6  1  0  0  0  0 
 26  7  1  0  0  0  0 
M  END 
>  <HBA> 
3 
 
>  <HBD> 
0 
 
>  <TPSA> 
32.67 
 
>  <cid> 
42478 
 
>  <dipole> 
4.17 
 
>  <excitation_energy_1> 
5.297 
 
>  <excitation_energy_2> 
5.592 
 
>  <excitation_energy_3> 
5.86 
 
>  <excitation_energy_4> 
5.932 
 
>  <homo_energy> 
-6.433 
 
>  <homo_lumo_gap> 
6.033 
 
>  <logP> 
2.277 
 
>  <lumo_energy> 
-0.4 
 
>  <melting_point> 
14.0 
 
>  <molecular_refractivity> 
47.74 
 
>  <oscillator_strength_1> 
0.0007 
 
>  <oscillator_strength_2> 
0.5785 
 
>  <oscillator_strength_3> 
0.0215 
 
>  <oscillator_strength_4> 
0.0017 
 
>  <open_babel_can_smiles> 
CN(/N=C/CCCCC)C=O 
 
>  <mulliken_charges> 
27 
1   -0.442516 
2   -0.340751 
3   -0.247515 
4   -0.250976 
5   -0.259336 
6   -0.310145 
7   0.070453 
8   0.371453 
9   -0.243313 
10   -0.244342 
11   -0.458014 
12   0.145221 
13   0.142294 
14   0.141401 
15   0.210591 
16   0.167119 
17   0.16818 
18   0.133212 
19   0.134121 
20   0.126701 
21   0.127923 
22   0.137613 
23   0.143128 
24   0.144147 
25   0.161836 
26   0.133881 
27   0.137634 
 
>  <lowdin_charges> 
27 
1   -0.443201 
2   -0.370128 
3   -0.271307 
4   -0.278576 
5   -0.272256 
6   -0.275833 
7   -0.121482 
8   0.050577 
9   -0.094101 
10   -0.031794 
11   -0.279275 
12   0.15056 
13   0.145293 
14   0.147194 
15   0.191705 
16   0.157855 
17   0.156795 
18   0.14123 
19   0.139575 
20   0.136959 
21   0.136248 
22   0.14635 
23   0.144015 
24   0.14959 
25   0.162579 
26   0.140423 
27   0.141005 
 
$$$$ 
 
