PCCDB-ID:  32176 
public computational chemistry database (PCCDB) project, http://pccdb.org 
 
 28 29  0  0  0  0  0  0  0  0999 V2000 
    1.7468    1.7735   -0.7085 C   0  0  0  0  0  0  0  0  0  0  0  0 
    5.4520   -0.4143    5.1445 C   0  0  0  0  0  0  0  0  0  0  0  0 
    4.8162   -0.6932    3.9600 C   0  0  0  0  0  0  0  0  0  0  0  0 
    3.6742    2.7133    2.9221 C   0  0  0  0  0  0  0  0  0  0  0  0 
    3.0323    2.4451    1.7320 C   0  0  0  0  0  0  0  0  0  0  0  0 
    4.9426    1.9351    4.9163 C   0  0  0  0  0  0  0  0  0  0  0  0 
    6.2061    1.1889    6.9715 C   0  0  0  0  0  0  0  0  0  0  0  0 
    3.5432    0.0832    1.9713 C   0  0  0  0  0  0  0  0  0  0  0  0 
    5.5284    0.9184    5.6470 C   0  0  0  0  0  0  0  0  0  0  0  0 
    4.2749    1.6833    3.6865 C   0  0  0  0  0  0  0  0  0  0  0  0 
    4.2048    0.3399    3.1922 C   0  0  0  0  0  0  0  0  0  0  0  0 
    2.9638    1.1121    1.2479 C   0  0  0  0  0  0  0  0  0  0  0  0 
    5.3431    0.9236    8.2180 C   0  0  0  0  0  0  0  0  0  0  0  0 
    5.8116    0.6401    9.2917 O   0  0  0  0  0  0  0  0  0  0  0  0 
    4.0077    1.0792    8.0582 O   0  0  0  0  0  0  0  0  0  0  0  0 
    2.3464    0.7595    0.0840 O   0  0  0  0  0  0  0  0  0  0  0  0 
    1.3304    1.2621   -1.5780 H   0  0  0  0  0  0  0  0  0  0  0  0 
    2.4837    2.5147   -1.0445 H   0  0  0  0  0  0  0  0  0  0  0  0 
    0.9383    2.2849   -0.1698 H   0  0  0  0  0  0  0  0  0  0  0  0 
    5.9125   -1.2183    5.7137 H   0  0  0  0  0  0  0  0  0  0  0  0 
    4.7717   -1.7149    3.5913 H   0  0  0  0  0  0  0  0  0  0  0  0 
    3.7230    3.7366    3.2867 H   0  0  0  0  0  0  0  0  0  0  0  0 
    2.5829    3.2578    1.1733 H   0  0  0  0  0  0  0  0  0  0  0  0 
    5.0039    2.9631    5.2709 H   0  0  0  0  0  0  0  0  0  0  0  0 
    6.5119    2.2419    7.0309 H   0  0  0  0  0  0  0  0  0  0  0  0 
    7.1138    0.5913    7.0929 H   0  0  0  0  0  0  0  0  0  0  0  0 
    3.4806   -0.9291    1.5832 H   0  0  0  0  0  0  0  0  0  0  0  0 
    3.8178    1.2538    7.1173 H   0  0  0  0  0  0  0  0  0  0  0  0 
  1 19  1  0  0  0  0 
  1 16  1  0  0  0  0 
  2  9  1  0  0  0  0 
  2 20  1  0  0  0  0 
  3  2  2  0  0  0  0 
  4 22  1  0  0  0  0 
  4 10  2  0  0  0  0 
  5  4  1  0  0  0  0 
  6 24  1  0  0  0  0 
  6  9  2  0  0  0  0 
  7 25  1  0  0  0  0 
  7 26  1  0  0  0  0 
  7 13  1  0  0  0  0 
  8 11  2  0  0  0  0 
  9  7  1  0  0  0  0 
 10  6  1  0  0  0  0 
 11 10  1  0  0  0  0 
 11  3  1  0  0  0  0 
 12  5  2  0  0  0  0 
 12  8  1  0  0  0  0 
 13 14  2  0  0  0  0 
 15 13  1  0  0  0  0 
 16 12  1  0  0  0  0 
 17  1  1  0  0  0  0 
 18  1  1  0  0  0  0 
 21  3  1  0  0  0  0 
 23  5  1  0  0  0  0 
 27  8  1  0  0  0  0 
 28 15  1  0  0  0  0 
M  END 
>  <HBA> 
3 
 
>  <HBD> 
1 
 
>  <TPSA> 
46.53 
 
>  <cid> 
32176 
 
>  <dipole> 
6.54 
 
>  <excitation_energy_1> 
3.911 
 
>  <excitation_energy_2> 
4.382 
 
>  <excitation_energy_3> 
5.136 
 
>  <excitation_energy_4> 
5.169 
 
>  <homo_energy> 
-5.84 
 
>  <homo_lumo_gap> 
4.427 
 
>  <logP> 
2.475 
 
>  <lumo_energy> 
-1.412 
 
>  <melting_point> 
135.09 
 
>  <molecular_refractivity> 
61.98 
 
>  <oscillator_strength_1> 
0.0547 
 
>  <oscillator_strength_2> 
0.0125 
 
>  <oscillator_strength_3> 
0.0481 
 
>  <oscillator_strength_4> 
0.0231 
 
>  <open_babel_can_smiles> 
COc1ccc2c(c1)ccc(c2)CC(=O)O 
 
>  <mulliken_charges> 
28 
1   -0.217867 
2   -0.169446 
3   -0.188727 
4   -0.202349 
5   -0.192964 
6   -0.27994 
7   -0.455457 
8   -0.260314 
9   0.104072 
10   0.152986 
11   0.142021 
12   0.38491 
13   0.592057 
14   -0.443111 
15   -0.565528 
16   -0.507585 
17   0.175079 
18   0.154641 
19   0.154719 
20   0.141338 
21   0.139767 
22   0.137154 
23   0.139031 
24   0.133724 
25   0.187936 
26   0.18846 
27   0.141836 
28   0.413556 
 
>  <lowdin_charges> 
28 
1   -0.281423 
2   -0.163479 
3   -0.149898 
4   -0.144805 
5   -0.201568 
6   -0.176915 
7   -0.312962 
8   -0.189486 
9   -0.034188 
10   -0.013478 
11   0.009065 
12   0.105777 
13   0.191437 
14   -0.244338 
15   -0.355157 
16   -0.195421 
17   0.166554 
18   0.147776 
19   0.147624 
20   0.16501 
21   0.162042 
22   0.160084 
23   0.16773 
24   0.156703 
25   0.17724 
26   0.180658 
27   0.168323 
28   0.357096 
 
$$$$ 
 
