PCCDB-ID:  15100 
public computational chemistry database (PCCDB) project, http://pccdb.org 
 
 20 20  0  0  0  0  0  0  0  0999 V2000 
    0.8980   -0.0387   -0.0423 C   0  0  0  0  0  0  0  0  0  0  0  0 
    6.6586   -0.1313    0.4616 C   0  0  0  0  0  0  0  0  0  0  0  0 
    2.4694   -2.5409    0.3562 C   0  0  0  0  0  0  0  0  0  0  0  0 
    3.1151    1.1842    0.0229 C   0  0  0  0  0  0  0  0  0  0  0  0 
    4.5040    1.1800    0.1418 C   0  0  0  0  0  0  0  0  0  0  0  0 
    2.4009   -0.0115    0.0866 C   0  0  0  0  0  0  0  0  0  0  0  0 
    5.1584   -0.0394    0.3252 C   0  0  0  0  0  0  0  0  0  0  0  0 
    3.1491   -1.1951    0.2742 C   0  0  0  0  0  0  0  0  0  0  0  0 
    4.4831   -1.2002    0.3894 N   0  0  0  0  0  0  0  0  0  0  0  0 
    0.4981    0.9693   -0.1917 H   0  0  0  0  0  0  0  0  0  0  0  0 
    0.4196   -0.4580    0.8523 H   0  0  0  0  0  0  0  0  0  0  0  0 
    0.5734   -0.6554   -0.8903 H   0  0  0  0  0  0  0  0  0  0  0  0 
    7.1329    0.8526    0.3950 H   0  0  0  0  0  0  0  0  0  0  0  0 
    7.0765   -0.7742   -0.3215 H   0  0  0  0  0  0  0  0  0  0  0  0 
    6.9292   -0.5834    1.4228 H   0  0  0  0  0  0  0  0  0  0  0  0 
    1.7519   -2.5819    1.1861 H   0  0  0  0  0  0  0  0  0  0  0  0 
    3.2225   -3.3172    0.5045 H   0  0  0  0  0  0  0  0  0  0  0  0 
    1.9068   -2.7662   -0.5594 H   0  0  0  0  0  0  0  0  0  0  0  0 
    2.5826    2.1224   -0.1200 H   0  0  0  0  0  0  0  0  0  0  0  0 
    5.0687    2.1067    0.0919 H   0  0  0  0  0  0  0  0  0  0  0  0 
  1  6  1  0  0  0  0 
  1 11  1  0  0  0  0 
  2 15  1  0  0  0  0 
  3 17  1  0  0  0  0 
  3 16  1  0  0  0  0 
  4  6  2  0  0  0  0 
  4  5  1  0  0  0  0 
  5  7  2  0  0  0  0 
  6  8  1  0  0  0  0 
  7  9  1  0  0  0  0 
  7  2  1  0  0  0  0 
  8  3  1  0  0  0  0 
  8  9  2  0  0  0  0 
 10  1  1  0  0  0  0 
 12  1  1  0  0  0  0 
 13  2  1  0  0  0  0 
 14  2  1  0  0  0  0 
 18  3  1  0  0  0  0 
 19  4  1  0  0  0  0 
 20  5  1  0  0  0  0 
M  END 
>  <HBA> 
1 
 
>  <HBD> 
0 
 
>  <TPSA> 
12.89 
 
>  <cid> 
15100 
 
>  <dipole> 
1.65 
 
>  <excitation_energy_1> 
4.896 
 
>  <excitation_energy_2> 
5.18 
 
>  <excitation_energy_3> 
5.234 
 
>  <excitation_energy_4> 
5.917 
 
>  <homo_energy> 
-6.329 
 
>  <homo_lumo_gap> 
6.049 
 
>  <logP> 
2.007 
 
>  <lumo_energy> 
-0.28 
 
>  <melting_point> 
32.33 
 
>  <molecular_refractivity> 
39.13 
 
>  <oscillator_strength_1> 
0.0042 
 
>  <oscillator_strength_2> 
0.0795 
 
>  <oscillator_strength_3> 
0.0 
 
>  <oscillator_strength_4> 
0.0043 
 
>  <open_babel_can_smiles> 
Cc1ccc(c(n1)C)C 
 
>  <mulliken_charges> 
20 
1   -0.533888 
2   -0.502828 
3   -0.519755 
4   -0.150504 
5   -0.173186 
6   0.136921 
7   0.301698 
8   0.257177 
9   -0.517369 
10   0.15449 
11   0.162502 
12   0.162475 
13   0.144835 
14   0.16831 
15   0.168238 
16   0.15564 
17   0.175344 
18   0.155717 
19   0.128526 
20   0.125656 
 
>  <lowdin_charges> 
20 
1   -0.441435 
2   -0.445124 
3   -0.449649 
4   -0.140772 
5   -0.192669 
6   -0.03008 
7   0.053016 
8   0.048292 
9   -0.169449 
10   0.156616 
11   0.160661 
12   0.160818 
13   0.151398 
14   0.16767 
15   0.166471 
16   0.158707 
17   0.171193 
18   0.158549 
19   0.156778 
20   0.159009 
 
$$$$ 
 
