PCCDB-ID:  12246 
public computational chemistry database (PCCDB) project, http://pccdb.org 
 
 19 18  0  0  1  0  0  0  0  0999 V2000 
    1.2550    0.4272   -0.2818 C   0  0  0  0  0  0  0  0  0  0  0  0 
    5.6365   -1.6481    1.2723 C   0  0  0  0  0  0  0  0  0  0  0  0 
    2.7827    0.5388   -0.3069 C   0  0  0  0  0  0  0  0  0  0  0  0 
    3.4783   -0.6220    0.4142 C   0  0  0  0  0  0  0  0  0  0  0  0 
    5.0142   -0.5612    0.3795 C   0  0  2  0  0  0  0  0  0  0  0  0 
    5.4741   -0.6086   -1.0198 N   0  0  0  0  0  0  0  0  0  0  0  0 
    0.7843    1.2712   -0.7993 H   0  0  0  0  0  0  0  0  0  0  0  0 
    0.8706    0.4117    0.7461 H   0  0  0  0  0  0  0  0  0  0  0  0 
    0.9158   -0.4934   -0.7733 H   0  0  0  0  0  0  0  0  0  0  0  0 
    5.3239   -1.5427    2.3189 H   0  0  0  0  0  0  0  0  0  0  0  0 
    6.7323   -1.5999    1.2443 H   0  0  0  0  0  0  0  0  0  0  0  0 
    5.3362   -2.6487    0.9329 H   0  0  0  0  0  0  0  0  0  0  0  0 
    3.0888    1.4853    0.1616 H   0  0  0  0  0  0  0  0  0  0  0  0 
    3.1441    0.5800   -1.3401 H   0  0  0  0  0  0  0  0  0  0  0  0 
    3.1552   -1.5773   -0.0310 H   0  0  0  0  0  0  0  0  0  0  0  0 
    3.1516   -0.6535    1.4634 H   0  0  0  0  0  0  0  0  0  0  0  0 
    5.3225    0.4201    0.7690 H   0  0  0  0  0  0  0  0  0  0  0  0 
    5.2586   -1.5287   -1.4077 H   0  0  0  0  0  0  0  0  0  0  0  0 
    6.4905   -0.5285   -1.0472 H   0  0  0  0  0  0  0  0  0  0  0  0 
  1  8  1  0  0  0  0 
  2 10  1  0  0  0  0 
  3  1  1  0  0  0  0 
  3 13  1  0  0  0  0 
  3  4  1  0  0  0  0 
  4 16  1  0  0  0  0 
  5  4  1  0  0  0  0 
  5 17  1  1  0  0  0 
  5  2  1  0  0  0  0 
  6  5  1  0  0  0  0 
  7  1  1  0  0  0  0 
  9  1  1  0  0  0  0 
 11  2  1  0  0  0  0 
 12  2  1  0  0  0  0 
 14  3  1  0  0  0  0 
 15  4  1  0  0  0  0 
 18  6  1  0  0  0  0 
 19  6  1  0  0  0  0 
M  END 
>  <HBA> 
1 
 
>  <HBD> 
1 
 
>  <TPSA> 
26.02 
 
>  <cid> 
12246 
 
>  <dipole> 
1.35 
 
>  <excitation_energy_1> 
5.719 
 
>  <excitation_energy_2> 
6.396 
 
>  <excitation_energy_3> 
6.593 
 
>  <excitation_energy_4> 
6.642 
 
>  <homo_energy> 
-6.237 
 
>  <homo_lumo_gap> 
8.327 
 
>  <logP> 
1.834 
 
>  <lumo_energy> 
2.09 
 
>  <melting_point> 
28.35 
 
>  <molecular_refractivity> 
28.86 
 
>  <oscillator_strength_1> 
0.0394 
 
>  <oscillator_strength_2> 
0.0081 
 
>  <oscillator_strength_3> 
0.0065 
 
>  <oscillator_strength_4> 
0.0049 
 
>  <open_babel_can_smiles> 
CCC[C@H](N)C 
 
>  <mulliken_charges> 
19 
1   -0.443005 
2   -0.446804 
3   -0.243213 
4   -0.240771 
5   0.026847 
6   -0.705233 
7   0.140518 
8   0.136421 
9   0.137758 
10   0.139982 
11   0.133274 
12   0.133825 
13   0.124088 
14   0.159333 
15   0.11615 
16   0.12522 
17   0.128023 
18   0.285623 
19   0.291965 
 
>  <lowdin_charges> 
19 
1   -0.44541 
2   -0.457502 
3   -0.272438 
4   -0.276336 
5   -0.06425 
6   -0.547102 
7   0.149411 
8   0.142245 
9   0.144458 
10   0.147694 
11   0.142122 
12   0.142778 
13   0.137251 
14   0.152734 
15   0.133244 
16   0.138477 
17   0.136255 
18   0.246849 
19   0.249521 
 
$$$$ 
 
