PCCDB-ID:  47615 
public computational chemistry database (PCCDB) project, http://pccdb.org 
 
 26 26  0  0  0  0  0  0  0  0999 V2000 
    1.1431   -0.2691   -1.0018 C   0  0  0  0  0  0  0  0  0  0  0  0 
    3.1339    4.0602    0.4804 C   0  0  0  0  0  0  0  0  0  0  0  0 
    3.6545    5.1375    1.4513 C   0  0  0  0  0  0  0  0  0  0  0  0 
    2.7143   -1.9205    0.0676 C   0  0  0  0  0  0  0  0  0  0  0  0 
    4.1829   -1.9235    0.4855 C   0  0  0  0  0  0  0  0  0  0  0  0 
    3.5285    2.6327    0.8193 C   0  0  0  0  0  0  0  0  0  0  0  0 
    5.1199    5.5417    1.2568 C   0  0  0  0  0  0  0  0  0  0  0  0 
    3.1166    0.4221    0.2928 C   0  0  0  0  0  0  0  0  0  0  0  0 
    2.7808    1.6820    0.1760 N   0  0  0  0  0  0  0  0  0  0  0  0 
    2.4002   -0.5487   -0.3231 N   0  0  0  0  0  0  0  0  0  0  0  0 
    4.4416    2.3808    1.6234 O   0  0  0  0  0  0  0  0  0  0  0  0 
    5.4499    6.6634    0.9444 O   0  0  0  0  0  0  0  0  0  0  0  0 
    6.0317    4.5748    1.4614 O   0  0  0  0  0  0  0  0  0  0  0  0 
    4.4953   -0.2504    1.2065 S   0  0  0  0  0  0  0  0  0  0  0  0 
    1.0782   -0.8741   -1.9119 H   0  0  0  0  0  0  0  0  0  0  0  0 
    1.1156    0.7899   -1.2539 H   0  0  0  0  0  0  0  0  0  0  0  0 
    0.2873   -0.5075   -0.3554 H   0  0  0  0  0  0  0  0  0  0  0  0 
    3.4667    4.2652   -0.5471 H   0  0  0  0  0  0  0  0  0  0  0  0 
    2.0395    4.0910    0.4401 H   0  0  0  0  0  0  0  0  0  0  0  0 
    3.5146    4.7909    2.4833 H   0  0  0  0  0  0  0  0  0  0  0  0 
    3.0694    6.0501    1.3216 H   0  0  0  0  0  0  0  0  0  0  0  0 
    2.0609   -2.2305    0.8977 H   0  0  0  0  0  0  0  0  0  0  0  0 
    2.5317   -2.5911   -0.7785 H   0  0  0  0  0  0  0  0  0  0  0  0 
    4.8446   -2.0700   -0.3727 H   0  0  0  0  0  0  0  0  0  0  0  0 
    4.3957   -2.6875    1.2353 H   0  0  0  0  0  0  0  0  0  0  0  0 
    5.5728    3.7272    1.6795 H   0  0  0  0  0  0  0  0  0  0  0  0 
  1 17  1  0  0  0  0 
  1 10  1  0  0  0  0 
  2  6  1  0  0  0  0 
  2  3  1  0  0  0  0 
  3 20  1  0  0  0  0 
  4  5  1  0  0  0  0 
  4 22  1  0  0  0  0 
  5 14  1  0  0  0  0 
  5 25  1  0  0  0  0 
  6 11  2  0  0  0  0 
  7  3  1  0  0  0  0 
  7 13  1  0  0  0  0 
  8 14  1  0  0  0  0 
  9  8  2  0  0  0  0 
  9  6  1  0  0  0  0 
 10  4  1  0  0  0  0 
 10  8  1  0  0  0  0 
 12  7  2  0  0  0  0 
 13 26  1  0  0  0  0 
 15  1  1  0  0  0  0 
 16  1  1  0  0  0  0 
 18  2  1  0  0  0  0 
 19  2  1  0  0  0  0 
 21  3  1  0  0  0  0 
 23  4  1  0  0  0  0 
 24  5  1  0  0  0  0 
M  END 
>  <HBA> 
6 
 
>  <HBD> 
1 
 
>  <TPSA> 
95.27 
 
>  <cid> 
47615 
 
>  <dipole> 
11.18 
 
>  <excitation_energy_1> 
4.4 
 
>  <excitation_energy_2> 
4.679 
 
>  <excitation_energy_3> 
4.889 
 
>  <excitation_energy_4> 
5.206 
 
>  <homo_energy> 
-6.482 
 
>  <homo_lumo_gap> 
5.083 
 
>  <logP> 
0.35 
 
>  <lumo_energy> 
-1.399 
 
>  <melting_point> 
122.71 
 
>  <molecular_refractivity> 
58.51 
 
>  <oscillator_strength_1> 
0.0004 
 
>  <oscillator_strength_2> 
0.0142 
 
>  <oscillator_strength_3> 
0.0563 
 
>  <oscillator_strength_4> 
0.308 
 
>  <open_babel_can_smiles> 
OC(=O)CCC(=O)/N=C/1\SCCN1C 
 
>  <mulliken_charges> 
26 
1   -0.320487 
2   -0.361816 
3   -0.375118 
4   -0.123761 
5   -0.471915 
6   0.575283 
7   0.573624 
8   0.356088 
9   -0.553401 
10   -0.393201 
11   -0.530076 
12   -0.458198 
13   -0.591933 
14   0.241626 
15   0.165651 
16   0.21452 
17   0.166307 
18   0.190566 
19   0.177887 
20   0.170202 
21   0.172093 
22   0.169541 
23   0.171134 
24   0.19813 
25   0.193315 
26   0.44394 
 
>  <lowdin_charges> 
26 
1   -0.350638 
2   -0.295586 
3   -0.316195 
4   -0.192457 
5   -0.393936 
6   0.17659 
7   0.182871 
8   0.029001 
9   -0.261556 
10   -0.074714 
11   -0.299 
12   -0.264488 
13   -0.371418 
14   0.215156 
15   0.159507 
16   0.188372 
17   0.156892 
18   0.176812 
19   0.172094 
20   0.165145 
21   0.172701 
22   0.152949 
23   0.162451 
24   0.170649 
25   0.178982 
26   0.359815 
 
$$$$ 
 
