PCCDB-ID:  29399 
public computational chemistry database (PCCDB) project, http://pccdb.org 
 
 18 19  0  0  0  0  0  0  0  0999 V2000 
   -2.4238   -0.7895   -0.0275 C   0  0  0  0  0  0  0  0  0  0  0  0 
   -2.4811    0.6120   -0.0215 C   0  0  0  0  0  0  0  0  0  0  0  0 
   -1.1952   -1.4337   -0.0252 C   0  0  0  0  0  0  0  0  0  0  0  0 
   -1.3094    1.3590   -0.0127 C   0  0  0  0  0  0  0  0  0  0  0  0 
    1.2966   -1.3254   -0.0139 C   0  0  0  0  0  0  0  0  0  0  0  0 
   -0.0014   -0.6892   -0.0165 C   0  0  0  0  0  0  0  0  0  0  0  0 
   -0.0594    0.7246   -0.0100 C   0  0  0  0  0  0  0  0  0  0  0  0 
    1.2094    1.4866    0.0001 C   0  0  0  0  0  0  0  0  0  0  0  0 
    1.4189    2.7552    0.0076 N   0  0  0  0  0  0  0  0  0  0  0  0 
    2.4174   -0.6726   -0.0053 N   0  0  0  0  0  0  0  0  0  0  0  0 
    2.3424    0.6699    0.0011 N   0  0  0  0  0  0  0  0  0  0  0  0 
   -3.3422   -1.3698   -0.0339 H   0  0  0  0  0  0  0  0  0  0  0  0 
   -3.4433    1.1159   -0.0241 H   0  0  0  0  0  0  0  0  0  0  0  0 
   -1.1422   -2.5194   -0.0298 H   0  0  0  0  0  0  0  0  0  0  0  0 
   -1.3669    2.4437   -0.0084 H   0  0  0  0  0  0  0  0  0  0  0  0 
    1.3778   -2.4088   -0.0203 H   0  0  0  0  0  0  0  0  0  0  0  0 
    0.5427    3.2763    0.0064 H   0  0  0  0  0  0  0  0  0  0  0  0 
    3.2326    1.1513    0.0079 H   0  0  0  0  0  0  0  0  0  0  0  0 
  1  3  2  0  0  0  0 
  1  2  1  0  0  0  0 
  2  4  2  0  0  0  0 
  3  6  1  0  0  0  0 
  4  7  1  0  0  0  0 
  4 15  1  0  0  0  0 
  5 10  2  0  0  0  0 
  6  5  1  0  0  0  0 
  6  7  2  0  0  0  0 
  7  8  1  0  0  0  0 
  8 11  1  0  0  0  0 
  8  9  2  0  0  0  0 
 10 11  1  0  0  0  0 
 11 18  1  0  0  0  0 
 12  1  1  0  0  0  0 
 13  2  1  0  0  0  0 
 14  3  1  0  0  0  0 
 16  5  1  0  0  0  0 
 17  9  1  0  0  0  0 
M  END 
>  <HBA> 
3 
 
>  <HBD> 
1 
 
>  <TPSA> 
51.8 
 
>  <cid> 
29399 
 
>  <dipole> 
3.47 
 
>  <excitation_energy_1> 
3.697 
 
>  <excitation_energy_2> 
3.936 
 
>  <excitation_energy_3> 
4.802 
 
>  <excitation_energy_4> 
4.945 
 
>  <homo_energy> 
-5.679 
 
>  <homo_lumo_gap> 
4.316 
 
>  <logP> 
1.793 
 
>  <lumo_energy> 
-1.363 
 
>  <melting_point> 
128.82 
 
>  <molecular_refractivity> 
43.94 
 
>  <oscillator_strength_1> 
0.0719 
 
>  <oscillator_strength_2> 
0.0704 
 
>  <oscillator_strength_3> 
0.0012 
 
>  <oscillator_strength_4> 
0.001 
 
>  <open_babel_can_smiles> 
N=c1[nH]ncc2c1cccc2 
 
>  <mulliken_charges> 
18 
1   -0.12344 
2   -0.132124 
3   -0.202454 
4   -0.191315 
5   -0.03342 
6   0.137106 
7   0.092199 
8   0.455193 
9   -0.67718 
10   -0.220014 
11   -0.465509 
12   0.142785 
13   0.142485 
14   0.143208 
15   0.142091 
16   0.152508 
17   0.285216 
18   0.352668 
 
>  <lowdin_charges> 
18 
1   -0.143174 
2   -0.147172 
3   -0.147267 
4   -0.141629 
5   -0.145992 
6   -0.009495 
7   -0.027977 
8   0.079342 
9   -0.447787 
10   -0.076889 
11   -0.160638 
12   0.165075 
13   0.164621 
14   0.162187 
15   0.159885 
16   0.163915 
17   0.25314 
18   0.299854 
 
$$$$ 
 
