PCCDB-ID:  61670 
public computational chemistry database (PCCDB) project, http://pccdb.org 
 
 19 20  0  0  0  0  0  0  0  0999 V2000 
    0.9801   -0.0950   -0.0894 C   0  0  0  0  0  0  0  0  0  0  0  0 
    4.6069    1.1302    0.2239 C   0  0  0  0  0  0  0  0  0  0  0  0 
    3.1944    1.1107    0.1000 C   0  0  0  0  0  0  0  0  0  0  0  0 
    5.3237   -0.0411    0.2915 C   0  0  0  0  0  0  0  0  0  0  0  0 
    4.6633   -3.5605    0.2475 C   0  0  0  0  0  0  0  0  0  0  0  0 
    3.2495   -3.5797    0.1246 C   0  0  0  0  0  0  0  0  0  0  0  0 
    2.4805   -0.0702    0.0423 C   0  0  0  0  0  0  0  0  0  0  0  0 
    4.6373   -1.2808    0.2364 C   0  0  0  0  0  0  0  0  0  0  0  0 
    3.2111   -1.2976    0.1120 C   0  0  0  0  0  0  0  0  0  0  0  0 
    5.3534   -2.4407    0.3033 N   0  0  0  0  0  0  0  0  0  0  0  0 
    2.5306   -2.4786    0.0576 N   0  0  0  0  0  0  0  0  0  0  0  0 
    0.5774    0.9212   -0.1392 H   0  0  0  0  0  0  0  0  0  0  0  0 
    0.5161   -0.6124    0.7576 H   0  0  0  0  0  0  0  0  0  0  0  0 
    0.6703   -0.6373   -0.9894 H   0  0  0  0  0  0  0  0  0  0  0  0 
    5.1207    2.0867    0.2651 H   0  0  0  0  0  0  0  0  0  0  0  0 
    2.6587    2.0554    0.0483 H   0  0  0  0  0  0  0  0  0  0  0  0 
    6.4048   -0.0576    0.3863 H   0  0  0  0  0  0  0  0  0  0  0  0 
    5.2206   -4.4951    0.2992 H   0  0  0  0  0  0  0  0  0  0  0  0 
    2.7169   -4.5291    0.0822 H   0  0  0  0  0  0  0  0  0  0  0  0 
  1  7  1  0  0  0  0 
  1 13  1  0  0  0  0 
  2 15  1  0  0  0  0 
  2  4  2  0  0  0  0 
  3  2  1  0  0  0  0 
  4 17  1  0  0  0  0 
  5 18  1  0  0  0  0 
  5 10  1  0  0  0  0 
  6  5  2  0  0  0  0 
  7  3  2  0  0  0  0 
  7  9  1  0  0  0  0 
  8  4  1  0  0  0  0 
  8 10  2  0  0  0  0 
  9  8  1  0  0  0  0 
 11  9  2  0  0  0  0 
 11  6  1  0  0  0  0 
 12  1  1  0  0  0  0 
 14  1  1  0  0  0  0 
 16  3  1  0  0  0  0 
 19  6  1  0  0  0  0 
M  END 
>  <HBA> 
2 
 
>  <HBD> 
0 
 
>  <TPSA> 
25.78 
 
>  <cid> 
61670 
 
>  <dipole> 
0.68 
 
>  <excitation_energy_1> 
3.55 
 
>  <excitation_energy_2> 
3.898 
 
>  <excitation_energy_3> 
4.392 
 
>  <excitation_energy_4> 
4.781 
 
>  <homo_energy> 
-6.436 
 
>  <homo_lumo_gap> 
4.577 
 
>  <logP> 
1.938 
 
>  <lumo_energy> 
-1.859 
 
>  <melting_point> 
83.5 
 
>  <molecular_refractivity> 
44.5 
 
>  <oscillator_strength_1> 
0.0024 
 
>  <oscillator_strength_2> 
0.0356 
 
>  <oscillator_strength_3> 
0.0516 
 
>  <oscillator_strength_4> 
0.0 
 
>  <open_babel_can_smiles> 
Cc1cccc2c1nccn2 
 
>  <mulliken_charges> 
19 
1   -0.509794 
2   -0.127515 
3   -0.200775 
4   -0.153824 
5   0.031896 
6   0.031689 
7   0.155415 
8   0.282998 
9   0.213367 
10   -0.461982 
11   -0.464923 
12   0.146841 
13   0.172717 
14   0.172991 
15   0.138047 
16   0.130575 
17   0.14659 
18   0.148194 
19   0.147492 
 
>  <lowdin_charges> 
19 
1   -0.437083 
2   -0.146499 
3   -0.163184 
4   -0.155643 
5   -0.106987 
6   -0.106354 
7   0.00481 
8   0.029821 
9   0.018688 
10   -0.121006 
11   -0.123325 
12   0.153114 
13   0.169741 
14   0.169463 
15   0.162736 
16   0.159481 
17   0.168683 
18   0.162059 
19   0.161485 
 
$$$$ 
 
