PCCDB-ID:  70354 
public computational chemistry database (PCCDB) project, http://pccdb.org 
 
 36 36  0  0  0  0  0  0  0  0999 V2000 
    2.2152   -0.6398    0.4391 C   0  0  0  0  0  0  0  0  0  0  0  0 
    2.0389   -1.9631   -0.3395 C   0  0  0  0  0  0  0  0  0  0  0  0 
    2.7661    0.5586   -0.3746 C   0  0  0  0  0  0  0  0  0  0  0  0 
    1.0920   -2.9808    0.3492 C   0  0  0  0  0  0  0  0  0  0  0  0 
    2.1241    1.8982    0.0538 C   0  0  0  0  0  0  0  0  0  0  0  0 
   -0.3993   -2.8753   -0.0551 C   0  0  0  0  0  0  0  0  0  0  0  0 
    0.6792    2.0399   -0.4819 C   0  0  0  0  0  0  0  0  0  0  0  0 
   -0.9384   -1.4480    0.0646 C   0  0  0  0  0  0  0  0  0  0  0  0 
   -0.3210    2.7657    0.4356 C   0  0  0  0  0  0  0  0  0  0  0  0 
   -2.4104   -1.1935   -0.3092 C   0  0  0  0  0  0  0  0  0  0  0  0 
   -1.7789    2.4548    0.0857 C   0  0  0  0  0  0  0  0  0  0  0  0 
   -2.6362    0.2912   -0.5782 C   0  0  0  0  0  0  0  0  0  0  0  0 
   -3.2491    0.7462   -1.5182 O   0  0  0  0  0  0  0  0  0  0  0  0 
   -1.9999    1.0485    0.3520 O   0  0  0  0  0  0  0  0  0  0  0  0 
    2.8655   -0.8212    1.3060 H   0  0  0  0  0  0  0  0  0  0  0  0 
    1.2505   -0.3515    0.8652 H   0  0  0  0  0  0  0  0  0  0  0  0 
    3.0240   -2.4238   -0.4897 H   0  0  0  0  0  0  0  0  0  0  0  0 
    1.6604   -1.7464   -1.3494 H   0  0  0  0  0  0  0  0  0  0  0  0 
    2.5704    0.4052   -1.4456 H   0  0  0  0  0  0  0  0  0  0  0  0 
    3.8575    0.6134   -0.2742 H   0  0  0  0  0  0  0  0  0  0  0  0 
    1.1792   -2.8679    1.4396 H   0  0  0  0  0  0  0  0  0  0  0  0 
    1.4280   -4.0017    0.1270 H   0  0  0  0  0  0  0  0  0  0  0  0 
    2.7383    2.7400   -0.2904 H   0  0  0  0  0  0  0  0  0  0  0  0 
    2.1237    1.9538    1.1519 H   0  0  0  0  0  0  0  0  0  0  0  0 
   -0.9873   -3.5690    0.5621 H   0  0  0  0  0  0  0  0  0  0  0  0 
   -0.5141   -3.2152   -1.0948 H   0  0  0  0  0  0  0  0  0  0  0  0 
    0.2849    1.0360   -0.6569 H   0  0  0  0  0  0  0  0  0  0  0  0 
    0.6974    2.5277   -1.4660 H   0  0  0  0  0  0  0  0  0  0  0  0 
   -0.3287   -0.8221   -0.5919 H   0  0  0  0  0  0  0  0  0  0  0  0 
   -0.7744   -1.0714    1.0796 H   0  0  0  0  0  0  0  0  0  0  0  0 
   -0.1779    3.8542    0.3975 H   0  0  0  0  0  0  0  0  0  0  0  0 
   -0.1521    2.4654    1.4782 H   0  0  0  0  0  0  0  0  0  0  0  0 
   -3.0837   -1.5271    0.4916 H   0  0  0  0  0  0  0  0  0  0  0  0 
   -2.7040   -1.7220   -1.2215 H   0  0  0  0  0  0  0  0  0  0  0  0 
   -2.0160    2.6568   -0.9624 H   0  0  0  0  0  0  0  0  0  0  0  0 
   -2.4710    3.0255    0.7140 H   0  0  0  0  0  0  0  0  0  0  0  0 
  1 16  1  0  0  0  0 
  1 15  1  0  0  0  0 
  2  4  1  0  0  0  0 
  2  1  1  0  0  0  0 
  3 20  1  0  0  0  0 
  3  5  1  0  0  0  0 
  3  1  1  0  0  0  0 
  4 21  1  0  0  0  0 
  5 24  1  0  0  0  0 
  6  8  1  0  0  0  0 
  6  4  1  0  0  0  0 
  6 25  1  0  0  0  0 
  7  5  1  0  0  0  0 
  7  9  1  0  0  0  0 
  8 30  1  0  0  0  0 
  9 32  1  0  0  0  0 
 10  8  1  0  0  0  0 
 10 33  1  0  0  0  0 
 11 14  1  0  0  0  0 
 11  9  1  0  0  0  0 
 11 36  1  0  0  0  0 
 12 10  1  0  0  0  0 
 12 14  1  0  0  0  0 
 13 12  2  0  0  0  0 
 17  2  1  0  0  0  0 
 18  2  1  0  0  0  0 
 19  3  1  0  0  0  0 
 22  4  1  0  0  0  0 
 23  5  1  0  0  0  0 
 26  6  1  0  0  0  0 
 27  7  1  0  0  0  0 
 28  7  1  0  0  0  0 
 29  8  1  0  0  0  0 
 31  9  1  0  0  0  0 
 34 10  1  0  0  0  0 
 35 11  1  0  0  0  0 
M  END 
>  <HBA> 
2 
 
>  <HBD> 
0 
 
>  <TPSA> 
26.3 
 
>  <cid> 
70354 
 
>  <dipole> 
2.29 
 
>  <excitation_energy_1> 
5.712 
 
>  <excitation_energy_2> 
6.935 
 
>  <excitation_energy_3> 
7.166 
 
>  <excitation_energy_4> 
7.282 
 
>  <homo_energy> 
-7.132 
 
>  <homo_lumo_gap> 
7.581 
 
>  <logP> 
3.444 
 
>  <lumo_energy> 
0.449 
 
>  <melting_point> 
4.47 
 
>  <molecular_refractivity> 
58.97 
 
>  <oscillator_strength_1> 
0.0021 
 
>  <oscillator_strength_2> 
0.0144 
 
>  <oscillator_strength_3> 
0.0046 
 
>  <oscillator_strength_4> 
0.0012 
 
>  <open_babel_can_smiles> 
O=C1CCCCCCCCCCCO1 
 
>  <mulliken_charges> 
36 
1   -0.273392 
2   -0.26607 
3   -0.26563 
4   -0.262753 
5   -0.263274 
6   -0.260799 
7   -0.278809 
8   -0.270137 
9   -0.271692 
10   -0.349687 
11   -0.058832 
12   0.59921 
13   -0.469494 
14   -0.456838 
15   0.132523 
16   0.149171 
17   0.133113 
18   0.13231 
19   0.132562 
20   0.131889 
21   0.132344 
22   0.132191 
23   0.13161 
24   0.132135 
25   0.130141 
26   0.131392 
27   0.156621 
28   0.136475 
29   0.156936 
30   0.153744 
31   0.139431 
32   0.146026 
33   0.167208 
34   0.167473 
35   0.172993 
36   0.149911 
 
>  <lowdin_charges> 
36 
1   -0.28746 
2   -0.280374 
3   -0.274904 
4   -0.274584 
5   -0.275432 
6   -0.276961 
7   -0.284819 
8   -0.280087 
9   -0.280126 
10   -0.3004 
11   -0.129055 
12   0.196037 
13   -0.262633 
14   -0.203155 
15   0.141916 
16   0.146517 
17   0.143174 
18   0.136843 
19   0.137406 
20   0.140003 
21   0.138198 
22   0.143565 
23   0.142571 
24   0.136931 
25   0.142609 
26   0.137956 
27   0.146532 
28   0.143251 
29   0.149451 
30   0.149532 
31   0.146794 
32   0.146378 
33   0.167492 
34   0.165981 
35   0.158796 
36   0.152057 
 
$$$$ 
 
