PCCDB-ID:  47954 
public computational chemistry database (PCCDB) project, http://pccdb.org 
 
 36 38  0  0  0  0  0  0  0  0999 V2000 
    0.9494   -0.0049    0.0802 C   0  0  0  0  0  0  0  0  0  0  0  0 
    2.3404   -2.6213    0.0787 C   0  0  0  0  0  0  0  0  0  0  0  0 
    4.6156    3.6095    0.0797 C   0  0  0  0  0  0  0  0  0  0  0  0 
    7.3779   -1.6114    0.0746 C   0  0  0  0  0  0  0  0  0  0  0  0 
    8.9666    3.3752    0.0786 C   0  0  0  0  0  0  0  0  0  0  0  0 
    9.6313    2.1210    0.0778 C   0  0  0  0  0  0  0  0  0  0  0  0 
    7.5996    3.4249    0.0782 C   0  0  0  0  0  0  0  0  0  0  0  0 
    8.9047    0.9620    0.0763 C   0  0  0  0  0  0  0  0  0  0  0  0 
    3.2054    1.0852    0.0789 C   0  0  0  0  0  0  0  0  0  0  0  0 
    4.5041   -1.3603    0.0772 C   0  0  0  0  0  0  0  0  0  0  0  0 
    2.4573   -0.0665    0.0791 C   0  0  0  0  0  0  0  0  0  0  0  0 
    3.1313   -1.3357    0.0784 C   0  0  0  0  0  0  0  0  0  0  0  0 
    5.3748    2.2985    0.0785 C   0  0  0  0  0  0  0  0  0  0  0  0 
    6.7231   -0.2454    0.0758 C   0  0  0  0  0  0  0  0  0  0  0  0 
    6.7871    2.2413    0.0776 C   0  0  0  0  0  0  0  0  0  0  0  0 
    7.4690    0.9547    0.0762 C   0  0  0  0  0  0  0  0  0  0  0  0 
    4.6368    1.0928    0.0779 C   0  0  0  0  0  0  0  0  0  0  0  0 
    5.3115   -0.1789    0.0769 C   0  0  0  0  0  0  0  0  0  0  0  0 
    0.5968    1.0310    0.0791 H   0  0  0  0  0  0  0  0  0  0  0  0 
    0.5224   -0.5022    0.9612 H   0  0  0  0  0  0  0  0  0  0  0  0 
    0.5211   -0.5045   -0.7989 H   0  0  0  0  0  0  0  0  0  0  0  0 
    3.0042   -3.4912    0.0805 H   0  0  0  0  0  0  0  0  0  0  0  0 
    1.6896   -2.6990   -0.8021 H   0  0  0  0  0  0  0  0  0  0  0  0 
    1.6871   -2.6972    0.9578 H   0  0  0  0  0  0  0  0  0  0  0  0 
    5.2638    4.4843    0.0799 H   0  0  0  0  0  0  0  0  0  0  0  0 
    3.9679    3.6911    0.9614 H   0  0  0  0  0  0  0  0  0  0  0  0 
    3.9669    3.6922   -0.8012 H   0  0  0  0  0  0  0  0  0  0  0  0 
    8.4658   -1.5704    0.0742 H   0  0  0  0  0  0  0  0  0  0  0  0 
    7.0792   -2.1919   -0.8070 H   0  0  0  0  0  0  0  0  0  0  0  0 
    7.0801   -2.1929    0.9560 H   0  0  0  0  0  0  0  0  0  0  0  0 
    9.5444    4.2957    0.0781 H   0  0  0  0  0  0  0  0  0  0  0  0 
   10.7174    2.0822    0.0795 H   0  0  0  0  0  0  0  0  0  0  0  0 
    7.1227    4.3970    0.0781 H   0  0  0  0  0  0  0  0  0  0  0  0 
    9.4410    0.0211    0.0747 H   0  0  0  0  0  0  0  0  0  0  0  0 
    2.6792    2.0336    0.0792 H   0  0  0  0  0  0  0  0  0  0  0  0 
    4.9953   -2.3273    0.0765 H   0  0  0  0  0  0  0  0  0  0  0  0 
  1 20  1  0  0  0  0 
  2 22  1  0  0  0  0 
  2 24  1  0  0  0  0 
  3 25  1  0  0  0  0 
  3 26  1  0  0  0  0 
  4 14  1  0  0  0  0 
  4 30  1  0  0  0  0 
  6  5  1  0  0  0  0 
  6 32  1  0  0  0  0 
  7  5  2  0  0  0  0 
  8  6  2  0  0  0  0 
  9 11  1  0  0  0  0 
  9 35  1  0  0  0  0 
 10 12  1  0  0  0  0 
 11  1  1  0  0  0  0 
 12  2  1  0  0  0  0 
 12 11  2  0  0  0  0 
 13  3  1  0  0  0  0 
 14 16  2  0  0  0  0 
 14 18  1  0  0  0  0 
 15  7  1  0  0  0  0 
 15 13  2  0  0  0  0 
 16  8  1  0  0  0  0 
 16 15  1  0  0  0  0 
 17 13  1  0  0  0  0 
 17  9  2  0  0  0  0 
 18 10  2  0  0  0  0 
 18 17  1  0  0  0  0 
 19  1  1  0  0  0  0 
 21  1  1  0  0  0  0 
 23  2  1  0  0  0  0 
 27  3  1  0  0  0  0 
 28  4  1  0  0  0  0 
 29  4  1  0  0  0  0 
 31  5  1  0  0  0  0 
 33  7  1  0  0  0  0 
 34  8  1  0  0  0  0 
 36 10  1  0  0  0  0 
M  END 
>  <HBA> 
0 
 
>  <HBD> 
0 
 
>  <TPSA> 
0.0 
 
>  <cid> 
47954 
 
>  <dipole> 
1.02 
 
>  <excitation_energy_1> 
3.056 
 
>  <excitation_energy_2> 
3.723 
 
>  <excitation_energy_3> 
4.369 
 
>  <excitation_energy_4> 
4.609 
 
>  <homo_energy> 
-4.884 
 
>  <homo_lumo_gap> 
3.434 
 
>  <logP> 
5.227 
 
>  <lumo_energy> 
-1.45 
 
>  <melting_point> 
112.34 
 
>  <molecular_refractivity> 
81.32 
 
>  <oscillator_strength_1> 
0.0854 
 
>  <oscillator_strength_2> 
0.0005 
 
>  <oscillator_strength_3> 
0.0003 
 
>  <oscillator_strength_4> 
0.0 
 
>  <open_babel_can_smiles> 
Cc1c2cc(C)c(cc2c(c2c1cccc2)C)C 
 
>  <mulliken_charges> 
36 
1   -0.536927 
2   -0.536776 
3   -0.540022 
4   -0.540149 
5   -0.137691 
6   -0.137827 
7   -0.201271 
8   -0.200606 
9   -0.285464 
10   -0.285589 
11   0.151553 
12   0.151549 
13   0.031338 
14   0.031232 
15   0.08181 
16   0.081102 
17   0.101336 
18   0.101311 
19   0.155815 
20   0.158694 
21   0.158658 
22   0.155829 
23   0.158666 
24   0.158609 
25   0.161554 
26   0.163933 
27   0.163936 
28   0.161467 
29   0.164111 
30   0.16411 
31   0.12519 
32   0.125193 
33   0.127912 
34   0.127872 
35   0.119727 
36   0.119816 
 
>  <lowdin_charges> 
36 
1   -0.441241 
2   -0.441326 
3   -0.44812 
4   -0.446283 
5   -0.164047 
6   -0.160442 
7   -0.161732 
8   -0.161988 
9   -0.175514 
10   -0.175431 
11   -0.005212 
12   -0.006602 
13   -0.008448 
14   -0.008381 
15   -0.009303 
16   -0.009246 
17   -0.011366 
18   -0.011506 
19   0.156375 
20   0.158571 
21   0.158577 
22   0.157751 
23   0.158264 
24   0.158253 
25   0.158903 
26   0.16086 
27   0.160862 
28   0.156414 
29   0.161137 
30   0.161133 
31   0.156663 
32   0.154125 
33   0.157313 
34   0.157501 
35   0.156735 
36   0.156751 
 
$$$$ 
 
