PCCDB-ID:  34672 
public computational chemistry database (PCCDB) project, http://pccdb.org 
 
 26 25  0  0  0  0  0  0  0  0999 V2000 
    2.4318   -1.5738   -1.1520 C   0  0  0  0  0  0  0  0  0  0  0  0 
    4.8776    6.2848   -1.9856 C   0  0  0  0  0  0  0  0  0  0  0  0 
    2.4627    6.1000   -1.4115 C   0  0  0  0  0  0  0  0  0  0  0  0 
    1.0586    1.0796    0.0005 C   0  0  0  0  0  0  0  0  0  0  0  0 
    3.0003   -0.5817   -0.1188 C   0  0  0  0  0  0  0  0  0  0  0  0 
    3.1050    3.2076   -0.9373 C   0  0  0  0  0  0  0  0  0  0  0  0 
    4.0490    4.0923   -1.3354 C   0  0  0  0  0  0  0  0  0  0  0  0 
    3.3802    1.8044   -0.7002 C   0  0  0  0  0  0  0  0  0  0  0  0 
    3.8444    5.5150   -1.5932 C   0  0  0  0  0  0  0  0  0  0  0  0 
    2.5175    0.8421   -0.2995 C   0  0  0  0  0  0  0  0  0  0  0  0 
    2.8421   -2.5769   -0.9889 H   0  0  0  0  0  0  0  0  0  0  0  0 
    2.6872   -1.2633   -2.1713 H   0  0  0  0  0  0  0  0  0  0  0  0 
    1.3408   -1.6500   -1.0874 H   0  0  0  0  0  0  0  0  0  0  0  0 
    4.7584    7.3461   -2.1841 H   0  0  0  0  0  0  0  0  0  0  0  0 
    5.8747    5.8728   -2.1197 H   0  0  0  0  0  0  0  0  0  0  0  0 
    2.4561    7.1714   -1.6309 H   0  0  0  0  0  0  0  0  0  0  0  0 
    2.1039    5.9613   -0.3838 H   0  0  0  0  0  0  0  0  0  0  0  0 
    1.7346    5.6132   -2.0728 H   0  0  0  0  0  0  0  0  0  0  0  0 
    0.4134    0.4889   -0.6633 H   0  0  0  0  0  0  0  0  0  0  0  0 
    0.7617    2.1258   -0.0990 H   0  0  0  0  0  0  0  0  0  0  0  0 
    0.8222    0.7612    1.0256 H   0  0  0  0  0  0  0  0  0  0  0  0 
    4.0955   -0.6040   -0.1707 H   0  0  0  0  0  0  0  0  0  0  0  0 
    2.7284   -0.9324    0.8888 H   0  0  0  0  0  0  0  0  0  0  0  0 
    2.0869    3.5591   -0.7892 H   0  0  0  0  0  0  0  0  0  0  0  0 
    5.0665    3.7289   -1.4855 H   0  0  0  0  0  0  0  0  0  0  0  0 
    4.4156    1.5053   -0.8711 H   0  0  0  0  0  0  0  0  0  0  0  0 
  1 13  1  0  0  0  0 
  1 11  1  0  0  0  0 
  1  5  1  0  0  0  0 
  2  9  2  0  0  0  0 
  3 17  1  0  0  0  0 
  4 21  1  0  0  0  0 
  5 23  1  0  0  0  0 
  6 24  1  0  0  0  0 
  6  8  1  0  0  0  0 
  7  6  2  0  0  0  0 
  8 10  2  0  0  0  0 
  9  3  1  0  0  0  0 
  9  7  1  0  0  0  0 
 10  5  1  0  0  0  0 
 10  4  1  0  0  0  0 
 12  1  1  0  0  0  0 
 14  2  1  0  0  0  0 
 15  2  1  0  0  0  0 
 16  3  1  0  0  0  0 
 18  3  1  0  0  0  0 
 19  4  1  0  0  0  0 
 20  4  1  0  0  0  0 
 22  5  1  0  0  0  0 
 25  7  1  0  0  0  0 
 26  8  1  0  0  0  0 
M  END 
>  <HBA> 
0 
 
>  <HBD> 
0 
 
>  <TPSA> 
0.0 
 
>  <cid> 
34672 
 
>  <dipole> 
0.95 
 
>  <excitation_energy_1> 
4.372 
 
>  <excitation_energy_2> 
4.97 
 
>  <excitation_energy_3> 
5.247 
 
>  <excitation_energy_4> 
5.309 
 
>  <homo_energy> 
-5.301 
 
>  <homo_lumo_gap> 
4.37 
 
>  <logP> 
3.475 
 
>  <lumo_energy> 
-0.931 
 
>  <melting_point> 
-23.4 
 
>  <molecular_refractivity> 
48.76 
 
>  <oscillator_strength_1> 
1.0948 
 
>  <oscillator_strength_2> 
0.0052 
 
>  <oscillator_strength_3> 
0.0021 
 
>  <oscillator_strength_4> 
0.005 
 
>  <open_babel_can_smiles> 
CC/C(=C/C=C/C(=C)C)/C 
 
>  <mulliken_charges> 
26 
1   -0.441448 
2   -0.414352 
3   -0.527599 
4   -0.520638 
5   -0.322086 
6   -0.118239 
7   -0.173982 
8   -0.177336 
9   0.236829 
10   0.171636 
11   0.145148 
12   0.151036 
13   0.145649 
14   0.134845 
15   0.136985 
16   0.152258 
17   0.158451 
18   0.158646 
19   0.159926 
20   0.157481 
21   0.154662 
22   0.141932 
23   0.137118 
24   0.123235 
25   0.117333 
26   0.112509 
 
>  <lowdin_charges> 
26 
1   -0.440366 
2   -0.350149 
3   -0.441973 
4   -0.444268 
5   -0.266957 
6   -0.161074 
7   -0.163597 
8   -0.182419 
9   0.010965 
10   -0.00066 
11   0.150482 
12   0.150456 
13   0.145601 
14   0.154441 
15   0.155032 
16   0.156193 
17   0.157133 
18   0.159287 
19   0.159868 
20   0.155587 
21   0.156304 
22   0.145484 
23   0.144099 
24   0.152323 
25   0.150179 
26   0.148029 
 
$$$$ 
 
