PCCDB-ID:  10929 
public computational chemistry database (PCCDB) project, http://pccdb.org 
 
 13 12  0  0  0  0  0  0  0  0999 V2000 
    0.9475    0.1046   -0.0185 C   0  0  0  0  0  0  0  0  0  0  0  0 
    2.7433    0.6922    1.6999 C   0  0  0  0  0  0  0  0  0  0  0  0 
    2.4210    0.0234    0.3676 C   0  0  0  0  0  0  0  0  0  0  0  0 
    3.7868   -1.7179   -0.4661 N   0  0  0  0  0  0  0  0  0  0  0  0 
    4.0774   -2.8612   -0.3802 O   0  0  0  0  0  0  0  0  0  0  0  0 
    2.7794   -1.3801    0.4729 O   0  0  0  0  0  0  0  0  0  0  0  0 
    0.6372    1.1509   -0.1157 H   0  0  0  0  0  0  0  0  0  0  0  0 
    0.3212   -0.3712    0.7440 H   0  0  0  0  0  0  0  0  0  0  0  0 
    0.7693   -0.3991   -0.9738 H   0  0  0  0  0  0  0  0  0  0  0  0 
    2.4858    1.7566    1.6627 H   0  0  0  0  0  0  0  0  0  0  0  0 
    3.8094    0.6020    1.9308 H   0  0  0  0  0  0  0  0  0  0  0  0 
    2.1743    0.2281    2.5128 H   0  0  0  0  0  0  0  0  0  0  0  0 
    3.0433    0.4488   -0.4290 H   0  0  0  0  0  0  0  0  0  0  0  0 
  1  3  1  0  0  0  0 
  1  8  1  0  0  0  0 
  2 11  1  0  0  0  0 
  2 12  1  0  0  0  0 
  3  6  1  0  0  0  0 
  3  2  1  0  0  0  0 
  4  5  1  0  0  0  0 
  4  6  1  0  0  0  0 
  7  1  1  0  0  0  0 
  9  1  1  0  0  0  0 
 10  2  1  0  0  0  0 
 13  3  1  0  0  0  0 
M  RAD  2   4   2   5   2 
M  END 
>  <HBA> 
1 
 
>  <HBD> 
0 
 
>  <TPSA> 
38.66 
 
>  <cid> 
10929 
 
>  <dipole> 
2.74 
 
>  <excitation_energy_1> 
3.399 
 
>  <excitation_energy_2> 
5.569 
 
>  <excitation_energy_3> 
6.161 
 
>  <excitation_energy_4> 
6.68 
 
>  <homo_energy> 
-7.285 
 
>  <homo_lumo_gap> 
5.317 
 
>  <logP> 
1.093 
 
>  <lumo_energy> 
-1.967 
 
>  <melting_point> 
-12.12 
 
>  <molecular_refractivity> 
22.36 
 
>  <oscillator_strength_1> 
0.0007 
 
>  <oscillator_strength_2> 
0.0862 
 
>  <oscillator_strength_3> 
0.0 
 
>  <oscillator_strength_4> 
0.0007 
 
>  <open_babel_can_smiles> 
[O][N]OC(C)C 
 
>  <mulliken_charges> 
13 
1   -0.445424 
2   -0.445447 
3   0.124723 
4   0.277909 
5   -0.244851 
6   -0.358601 
7   0.150522 
8   0.160931 
9   0.159646 
10   0.150528 
11   0.159604 
12   0.161092 
13   0.14937 
 
>  <lowdin_charges> 
13 
1   -0.450879 
2   -0.448998 
3   -0.003326 
4   0.127883 
5   -0.130379 
6   -0.192654 
7   0.156632 
8   0.160361 
9   0.159878 
10   0.156361 
11   0.158463 
12   0.160274 
13   0.146386 
 
$$$$ 
 
