PCCDB-ID:  17377 
public computational chemistry database (PCCDB) project, http://pccdb.org 
 
 13 12  0  0  1  0  0  0  0  0999 V2000 
    0.9441    0.1011   -0.0199 C   0  0  0  0  0  0  0  0  0  0  0  0 
    2.9588   -1.2997    0.3396 C   0  0  0  0  0  0  0  0  0  0  0  0 
    3.0471    0.4470   -1.4257 C   0  0  0  0  0  0  0  0  0  0  0  0 
    2.4845    0.0383   -0.0439 C   0  0  1  0  0  0  0  0  0  0  0  0 
    3.3009   -2.3654    0.6470 N   0  0  0  0  0  0  0  0  0  0  0  0 
    4.4565    0.4017   -1.4995 O   0  0  0  0  0  0  0  0  0  0  0  0 
    0.5560   -0.1627    0.9676 H   0  0  0  0  0  0  0  0  0  0  0  0 
    0.5155   -0.5923   -0.7506 H   0  0  0  0  0  0  0  0  0  0  0  0 
    0.6073    1.1142   -0.2641 H   0  0  0  0  0  0  0  0  0  0  0  0 
    2.6516    1.4460   -1.6687 H   0  0  0  0  0  0  0  0  0  0  0  0 
    2.6837   -0.2497   -2.1871 H   0  0  0  0  0  0  0  0  0  0  0  0 
    2.8761    0.7453    0.7026 H   0  0  0  0  0  0  0  0  0  0  0  0 
    4.8171    1.0814   -0.9090 H   0  0  0  0  0  0  0  0  0  0  0  0 
  1  7  1  0  0  0  0 
  2  5  3  0  0  0  0 
  3  4  1  0  0  0  0 
  4  1  1  0  0  0  0 
  4  2  1  0  0  0  0 
  4 12  1  1  0  0  0 
  6  3  1  0  0  0  0 
  6 13  1  0  0  0  0 
  8  1  1  0  0  0  0 
  9  1  1  0  0  0  0 
 10  3  1  0  0  0  0 
 11  3  1  0  0  0  0 
M  END 
>  <HBA> 
2 
 
>  <HBD> 
1 
 
>  <TPSA> 
44.02 
 
>  <cid> 
17377 
 
>  <dipole> 
4.93 
 
>  <excitation_energy_1> 
6.542 
 
>  <excitation_energy_2> 
7.152 
 
>  <excitation_energy_3> 
7.409 
 
>  <excitation_energy_4> 
7.634 
 
>  <homo_energy> 
-7.785 
 
>  <homo_lumo_gap> 
8.534 
 
>  <logP> 
0.138 
 
>  <lumo_energy> 
0.748 
 
>  <melting_point> 
27.28 
 
>  <molecular_refractivity> 
22.25 
 
>  <oscillator_strength_1> 
0.0043 
 
>  <oscillator_strength_2> 
0.0071 
 
>  <oscillator_strength_3> 
0.0026 
 
>  <oscillator_strength_4> 
0.0227 
 
>  <open_babel_can_smiles> 
C[C@@H](C#N)CO 
 
>  <mulliken_charges> 
13 
1   -0.451048 
2   0.36506 
3   -0.022717 
4   -0.201274 
5   -0.466575 
6   -0.595728 
7   0.175752 
8   0.171513 
9   0.158359 
10   0.134171 
11   0.16777 
12   0.171329 
13   0.393389 
 
>  <lowdin_charges> 
13 
1   -0.433959 
2   -0.015934 
3   -0.128904 
4   -0.146051 
5   -0.124838 
6   -0.449237 
7   0.168207 
8   0.165029 
9   0.15735 
10   0.133629 
11   0.160242 
12   0.167566 
13   0.3469 
 
$$$$ 
 
