PCCDB-ID:  37046 
public computational chemistry database (PCCDB) project, http://pccdb.org 
 
 28 28  0  0  0  0  0  0  0  0999 V2000 
   -2.8092    0.3322    0.0282 C   0  0  0  0  0  0  0  0  0  0  0  0 
   -2.1298    0.4577   -1.1838 C   0  0  0  0  0  0  0  0  0  0  0  0 
   -2.1109   -0.0566    1.1737 C   0  0  0  0  0  0  0  0  0  0  0  0 
   -0.7601    0.1934   -1.2483 C   0  0  0  0  0  0  0  0  0  0  0  0 
   -0.7436   -0.3204    1.1042 C   0  0  0  0  0  0  0  0  0  0  0  0 
    1.4311   -0.5073   -0.1911 C   0  0  0  0  0  0  0  0  0  0  0  0 
    1.7662   -2.0126   -0.2591 C   0  0  0  0  0  0  0  0  0  0  0  0 
   -0.0493   -0.2009   -0.1076 C   0  0  0  0  0  0  0  0  0  0  0  0 
    0.0601   -3.5726   -1.2689 C   0  0  0  0  0  0  0  0  0  0  0  0 
   -0.3242   -3.8989   -0.1092 N   0  0  0  0  0  0  0  0  0  0  0  0 
   -0.4632   -3.9338   -2.5294 N   0  0  0  0  0  0  0  0  0  0  0  0 
    1.6761   -2.5500   -2.6646 N   0  0  0  0  0  0  0  0  0  0  0  0 
    1.1627   -2.6846   -1.4202 N   0  0  0  0  0  0  0  0  0  0  0  0 
   -1.3328   -4.9913   -2.7480 N   0  0  0  0  0  0  0  0  0  0  0  0 
    2.6464   -1.8153   -2.7490 O   0  0  0  0  0  0  0  0  0  0  0  0 
   -1.9353   -5.4643   -1.7894 O   0  0  0  0  0  0  0  0  0  0  0  0 
   -1.4341   -5.3302   -3.9195 O   0  0  0  0  0  0  0  0  0  0  0  0 
   -3.8745    0.5396    0.0819 H   0  0  0  0  0  0  0  0  0  0  0  0 
   -2.6631    0.7661   -2.0792 H   0  0  0  0  0  0  0  0  0  0  0  0 
   -2.6313   -0.1516    2.1231 H   0  0  0  0  0  0  0  0  0  0  0  0 
   -0.2336    0.3050   -2.1938 H   0  0  0  0  0  0  0  0  0  0  0  0 
   -0.2079   -0.6214    2.0020 H   0  0  0  0  0  0  0  0  0  0  0  0 
    1.8716   -0.0096   -1.0597 H   0  0  0  0  0  0  0  0  0  0  0  0 
    1.9497   -0.1184    0.6947 H   0  0  0  0  0  0  0  0  0  0  0  0 
    1.3989   -2.5447    0.6169 H   0  0  0  0  0  0  0  0  0  0  0  0 
    2.8478   -2.1473   -0.3479 H   0  0  0  0  0  0  0  0  0  0  0  0 
   -1.1326   -4.5174   -0.1508 H   0  0  0  0  0  0  0  0  0  0  0  0 
    0.0680   -3.7021   -3.3634 H   0  0  0  0  0  0  0  0  0  0  0  0 
  1 18  1  0  0  0  0 
  1  3  2  0  0  0  0 
  2  1  1  0  0  0  0 
  3 20  1  0  0  0  0 
  4  2  2  0  0  0  0 
  4  8  1  0  0  0  0 
  5  3  1  0  0  0  0 
  5 22  1  0  0  0  0 
  6  8  1  0  0  0  0 
  6 24  1  0  0  0  0 
  7  6  1  0  0  0  0 
  7 25  1  0  0  0  0 
  8  5  2  0  0  0  0 
  9 10  2  0  0  0  0 
 11  9  1  0  0  0  0 
 12 13  1  0  0  0  0 
 13  9  1  0  0  0  0 
 13  7  1  0  0  0  0 
 14 11  1  0  0  0  0 
 14 16  2  0  0  0  0 
 15 12  2  0  0  0  0 
 17 14  2  0  0  0  0 
 19  2  1  0  0  0  0 
 21  4  1  0  0  0  0 
 23  6  1  0  0  0  0 
 26  7  1  0  0  0  0 
 27 10  1  0  0  0  0 
 28 11  1  0  0  0  0 
M  END 
>  <HBA> 
5 
 
>  <HBD> 
1 
 
>  <TPSA> 
116.87 
 
>  <cid> 
37046 
 
>  <dipole> 
2.41 
 
>  <excitation_energy_1> 
3.099 
 
>  <excitation_energy_2> 
3.673 
 
>  <excitation_energy_3> 
3.859 
 
>  <excitation_energy_4> 
3.914 
 
>  <homo_energy> 
-6.746 
 
>  <homo_lumo_gap> 
4.384 
 
>  <logP> 
1.942 
 
>  <lumo_energy> 
-2.362 
 
>  <melting_point> 
130.38 
 
>  <molecular_refractivity> 
63.15 
 
>  <oscillator_strength_1> 
0.0007 
 
>  <oscillator_strength_2> 
0.0018 
 
>  <oscillator_strength_3> 
0.0028 
 
>  <oscillator_strength_4> 
0.0022 
 
>  <open_babel_can_smiles> 
O=NN(C(=N)NN(=O)=O)CCc1ccccc1 
 
>  <mulliken_charges> 
28 
1   -0.129829 
2   -0.126966 
3   -0.12763 
4   -0.193743 
5   -0.16705 
6   -0.371116 
7   -0.154083 
8   0.172917 
9   0.748704 
10   -0.622303 
11   -0.515044 
12   0.165145 
13   -0.317331 
14   0.656979 
15   -0.353117 
16   -0.404585 
17   -0.386453 
18   0.132435 
19   0.132725 
20   0.132981 
21   0.129151 
22   0.125981 
23   0.177171 
24   0.16015 
25   0.216341 
26   0.182168 
27   0.347125 
28   0.389277 
 
>  <lowdin_charges> 
28 
1   -0.154397 
2   -0.155381 
3   -0.151936 
4   -0.171612 
5   -0.159961 
6   -0.279422 
7   -0.209263 
8   -0.008982 
9   0.13728 
10   -0.382101 
11   -0.223755 
12   0.051717 
13   -0.016634 
14   0.350708 
15   -0.220119 
16   -0.247463 
17   -0.236198 
18   0.157427 
19   0.15972 
20   0.159418 
21   0.156098 
22   0.156378 
23   0.164868 
24   0.163008 
25   0.189923 
26   0.168946 
27   0.286616 
28   0.315115 
 
$$$$ 
 
