PCCDB-ID:  12169 
public computational chemistry database (PCCDB) project, http://pccdb.org 
 
 17 17  0  0  0  0  0  0  0  0999 V2000 
   -1.5061   -0.0156    0.1038 C   0  0  0  0  0  0  0  0  0  0  0  0 
   -0.1123    0.1836   -0.1264 C   0  0  0  0  0  0  0  0  0  0  0  0 
    1.8598   -1.4611   -0.1399 C   0  0  0  0  0  0  0  0  0  0  0  0 
    2.3213   -2.7222   -0.0231 C   0  0  0  0  0  0  0  0  0  0  0  0 
   -1.6602   -1.3496    0.3416 C   0  0  0  0  0  0  0  0  0  0  0  0 
    0.4899   -1.0468   -0.0120 C   0  0  0  0  0  0  0  0  0  0  0  0 
    3.7519   -3.0800   -0.1599 C   0  0  0  0  0  0  0  0  0  0  0  0 
    4.7755   -2.3761    0.1255 N   0  0  0  0  0  0  0  0  0  0  0  0 
    3.9827   -4.3391   -0.6396 O   0  0  0  0  0  0  0  0  0  0  0  0 
   -0.4637   -1.9924    0.2761 O   0  0  0  0  0  0  0  0  0  0  0  0 
   -2.2877    0.7308    0.0948 H   0  0  0  0  0  0  0  0  0  0  0  0 
    0.3889    1.1155   -0.3492 H   0  0  0  0  0  0  0  0  0  0  0  0 
    2.5575   -0.6557   -0.3625 H   0  0  0  0  0  0  0  0  0  0  0  0 
    1.6182   -3.5318    0.1681 H   0  0  0  0  0  0  0  0  0  0  0  0 
   -2.5141   -1.9714    0.5640 H   0  0  0  0  0  0  0  0  0  0  0  0 
    4.4814   -1.4931    0.5453 H   0  0  0  0  0  0  0  0  0  0  0  0 
    3.1519   -4.7092   -0.9745 H   0  0  0  0  0  0  0  0  0  0  0  0 
  1  5  2  0  0  0  0 
  2  6  2  0  0  0  0 
  2  1  1  0  0  0  0 
  3  4  2  0  0  0  0 
  3  6  1  0  0  0  0 
  4 14  1  0  0  0  0 
  5 15  1  0  0  0  0 
  6 10  1  0  0  0  0 
  7  4  1  0  0  0  0 
  7  8  2  0  0  0  0 
  8 16  1  0  0  0  0 
  9  7  1  0  0  0  0 
 10  5  1  0  0  0  0 
 11  1  1  0  0  0  0 
 12  2  1  0  0  0  0 
 13  3  1  0  0  0  0 
 17  9  1  0  0  0  0 
M  END 
>  <HBA> 
3 
 
>  <HBD> 
1 
 
>  <TPSA> 
56.23 
 
>  <cid> 
12169 
 
>  <dipole> 
5.65 
 
>  <excitation_energy_1> 
4.149 
 
>  <excitation_energy_2> 
4.448 
 
>  <excitation_energy_3> 
4.965 
 
>  <excitation_energy_4> 
5.392 
 
>  <homo_energy> 
-6.014 
 
>  <homo_lumo_gap> 
4.324 
 
>  <logP> 
1.478 
 
>  <lumo_energy> 
-1.69 
 
>  <melting_point> 
101.04 
 
>  <molecular_refractivity> 
36.51 
 
>  <oscillator_strength_1> 
0.5885 
 
>  <oscillator_strength_2> 
0.0199 
 
>  <oscillator_strength_3> 
0.0256 
 
>  <oscillator_strength_4> 
0.011 
 
>  <open_babel_can_smiles> 
OC(=N)/C=C/c1ccco1 
 
>  <mulliken_charges> 
17 
1   -0.181356 
2   -0.196958 
3   -0.157054 
4   -0.224965 
5   0.09745 
6   0.339905 
7   0.47738 
8   -0.587006 
9   -0.584745 
10   -0.448226 
11   0.152478 
12   0.1532 
13   0.153107 
14   0.153015 
15   0.16528 
16   0.282981 
17   0.405513 
 
>  <lowdin_charges> 
17 
1   -0.200769 
2   -0.192347 
3   -0.13971 
4   -0.216782 
5   -0.062878 
6   0.064414 
7   0.12838 
8   -0.395888 
9   -0.366942 
10   -0.096051 
11   0.175601 
12   0.174913 
13   0.172577 
14   0.167827 
15   0.177018 
16   0.256138 
17   0.354499 
 
$$$$ 
 
