PCCDB-ID:  60236 
public computational chemistry database (PCCDB) project, http://pccdb.org 
 
 41 40  0  0  0  0  0  0  0  0999 V2000 
   -0.3346   -1.5231    0.1803 C   0  0  0  0  0  0  0  0  0  0  0  0 
    3.6311   -3.6077   -0.6415 C   0  0  0  0  0  0  0  0  0  0  0  0 
    5.0644   -3.1647    4.5199 C   0  0  0  0  0  0  0  0  0  0  0  0 
    1.6804   -1.0577    6.1386 C   0  0  0  0  0  0  0  0  0  0  0  0 
    1.8314   -2.9502    1.9007 C   0  0  0  0  0  0  0  0  0  0  0  0 
    1.0532   -1.9584   -0.3003 C   0  0  0  0  0  0  0  0  0  0  0  0 
    3.5326   -2.2712    0.1068 C   0  0  0  0  0  0  0  0  0  0  0  0 
    4.5328   -1.8664    5.1302 C   0  0  0  0  0  0  0  0  0  0  0  0 
    2.6545   -0.3246    5.2144 C   0  0  0  0  0  0  0  0  0  0  0  0 
    3.9673   -0.5882    3.1659 C   0  0  0  0  0  0  0  0  0  0  0  0 
    2.9012   -0.0515    2.2108 C   0  0  0  0  0  0  0  0  0  0  0  0 
    2.1693   -1.9447    0.7830 C   0  0  0  0  0  0  0  0  0  0  0  0 
    2.2036   -0.5597    1.2834 N   0  0  0  0  0  0  0  0  0  0  0  0 
    3.4377   -1.2438    4.3692 N   0  0  0  0  0  0  0  0  0  0  0  0 
    2.7373    1.2921    2.4433 O   0  0  0  0  0  0  0  0  0  0  0  0 
   -1.0293   -1.4602   -0.6654 H   0  0  0  0  0  0  0  0  0  0  0  0 
   -0.2842   -0.5395    0.6565 H   0  0  0  0  0  0  0  0  0  0  0  0 
   -0.7622   -2.2291    0.9011 H   0  0  0  0  0  0  0  0  0  0  0  0 
    4.6492   -3.7469   -1.0234 H   0  0  0  0  0  0  0  0  0  0  0  0 
    2.9527   -3.6532   -1.4990 H   0  0  0  0  0  0  0  0  0  0  0  0 
    3.4081   -4.4602    0.0099 H   0  0  0  0  0  0  0  0  0  0  0  0 
    5.8436   -3.5867    5.1652 H   0  0  0  0  0  0  0  0  0  0  0  0 
    5.5108   -3.0164    3.5307 H   0  0  0  0  0  0  0  0  0  0  0  0 
    4.2617   -3.9028    4.4229 H   0  0  0  0  0  0  0  0  0  0  0  0 
    1.0935   -0.3327    6.7143 H   0  0  0  0  0  0  0  0  0  0  0  0 
    2.1888   -1.7098    6.8572 H   0  0  0  0  0  0  0  0  0  0  0  0 
    0.9920   -1.6749    5.5523 H   0  0  0  0  0  0  0  0  0  0  0  0 
    1.6846   -3.9540    1.4861 H   0  0  0  0  0  0  0  0  0  0  0  0 
    0.9073   -2.6598    2.4098 H   0  0  0  0  0  0  0  0  0  0  0  0 
    2.6135   -2.9910    2.6617 H   0  0  0  0  0  0  0  0  0  0  0  0 
    1.3722   -1.2909   -1.1121 H   0  0  0  0  0  0  0  0  0  0  0  0 
    0.9849   -2.9659   -0.7282 H   0  0  0  0  0  0  0  0  0  0  0  0 
    3.7618   -1.4508   -0.5858 H   0  0  0  0  0  0  0  0  0  0  0  0 
    4.3177   -2.2537    0.8715 H   0  0  0  0  0  0  0  0  0  0  0  0 
    5.3660   -1.1500    5.2755 H   0  0  0  0  0  0  0  0  0  0  0  0 
    4.1489   -2.0945    6.1286 H   0  0  0  0  0  0  0  0  0  0  0  0 
    3.3202    0.3346    5.8045 H   0  0  0  0  0  0  0  0  0  0  0  0 
    2.0823    0.3347    4.5582 H   0  0  0  0  0  0  0  0  0  0  0  0 
    4.6245    0.2635    3.4193 H   0  0  0  0  0  0  0  0  0  0  0  0 
    4.5771   -1.3150    2.6287 H   0  0  0  0  0  0  0  0  0  0  0  0 
    2.0547    1.5706    1.8029 H   0  0  0  0  0  0  0  0  0  0  0  0 
  1 17  1  0  0  0  0 
  1 18  1  0  0  0  0 
  2 21  1  0  0  0  0 
  2  7  1  0  0  0  0 
  3  8  1  0  0  0  0 
  3 22  1  0  0  0  0 
  4 25  1  0  0  0  0 
  4 26  1  0  0  0  0 
  5 29  1  0  0  0  0 
  5 30  1  0  0  0  0 
  6  1  1  0  0  0  0 
  6 12  1  0  0  0  0 
  7 12  1  0  0  0  0 
  7 34  1  0  0  0  0 
  8 35  1  0  0  0  0 
  8 36  1  0  0  0  0 
  9 37  1  0  0  0  0 
  9  4  1  0  0  0  0 
 10 39  1  0  0  0  0 
 10 14  1  0  0  0  0 
 11 15  1  0  0  0  0 
 11 10  1  0  0  0  0 
 12 13  1  0  0  0  0 
 12  5  1  0  0  0  0 
 13 11  2  0  0  0  0 
 14  8  1  0  0  0  0 
 14  9  1  0  0  0  0 
 16  1  1  0  0  0  0 
 19  2  1  0  0  0  0 
 20  2  1  0  0  0  0 
 23  3  1  0  0  0  0 
 24  3  1  0  0  0  0 
 27  4  1  0  0  0  0 
 28  5  1  0  0  0  0 
 31  6  1  0  0  0  0 
 32  6  1  0  0  0  0 
 33  7  1  0  0  0  0 
 38  9  1  0  0  0  0 
 40 10  1  0  0  0  0 
 41 15  1  0  0  0  0 
M  END 
>  <HBA> 
3 
 
>  <HBD> 
1 
 
>  <TPSA> 
32.34 
 
>  <cid> 
60236 
 
>  <dipole> 
1.16 
 
>  <excitation_energy_1> 
4.998 
 
>  <excitation_energy_2> 
5.398 
 
>  <excitation_energy_3> 
5.438 
 
>  <excitation_energy_4> 
5.635 
 
>  <homo_energy> 
-5.829 
 
>  <homo_lumo_gap> 
6.259 
 
>  <logP> 
2.414 
 
>  <lumo_energy> 
0.43 
 
>  <melting_point> 
31.68 
 
>  <molecular_refractivity> 
65.73 
 
>  <oscillator_strength_1> 
0.0011 
 
>  <oscillator_strength_2> 
0.0176 
 
>  <oscillator_strength_3> 
0.0056 
 
>  <oscillator_strength_4> 
0.0175 
 
>  <open_babel_can_smiles> 
CCN(C/C(=N\C(CC)(CC)C)/O)CC 
 
>  <mulliken_charges> 
41 
1   -0.449759 
2   -0.454781 
3   -0.453286 
4   -0.445433 
5   -0.472817 
6   -0.243614 
7   -0.264711 
8   -0.115466 
9   -0.130445 
10   -0.184285 
11   0.483489 
12   0.201106 
13   -0.474477 
14   -0.382552 
15   -0.590196 
16   0.134449 
17   0.153577 
18   0.138243 
19   0.142018 
20   0.151176 
21   0.147107 
22   0.145012 
23   0.146747 
24   0.161041 
25   0.142185 
26   0.144211 
27   0.157014 
28   0.133946 
29   0.150073 
30   0.169752 
31   0.127568 
32   0.126101 
33   0.138321 
34   0.127825 
35   0.114054 
36   0.144213 
37   0.11406 
38   0.165978 
39   0.143236 
40   0.16314 
41   0.396184 
 
>  <lowdin_charges> 
41 
1   -0.450695 
2   -0.44952 
3   -0.452551 
4   -0.453095 
5   -0.458493 
6   -0.276199 
7   -0.280726 
8   -0.199288 
9   -0.207499 
10   -0.22224 
11   0.135363 
12   0.070085 
13   -0.224695 
14   -0.184336 
15   -0.385492 
16   0.147442 
17   0.151894 
18   0.145237 
19   0.150355 
20   0.150782 
21   0.149089 
22   0.155102 
23   0.146599 
24   0.156828 
25   0.153312 
26   0.14712 
27   0.156433 
28   0.145771 
29   0.154541 
30   0.160462 
31   0.142525 
32   0.138515 
33   0.146434 
34   0.138689 
35   0.119847 
36   0.148728 
37   0.122918 
38   0.160114 
39   0.141155 
40   0.159685 
41   0.349805 
 
$$$$ 
 
