PCCDB-ID:  7631 
public computational chemistry database (PCCDB) project, http://pccdb.org 
 
 18 18  0  0  0  0  0  0  0  0999 V2000 
   -2.0115    0.1184   -0.1091 C   0  0  0  0  0  0  0  0  0  0  0  0 
   -1.2456    1.2808   -0.2333 C   0  0  0  0  0  0  0  0  0  0  0  0 
   -1.3785   -1.1066    0.0992 C   0  0  0  0  0  0  0  0  0  0  0  0 
    0.1441    1.2164   -0.1525 C   0  0  0  0  0  0  0  0  0  0  0  0 
    0.0149   -1.1691    0.1789 C   0  0  0  0  0  0  0  0  0  0  0  0 
    2.3021   -0.0708    0.1343 C   0  0  0  0  0  0  0  0  0  0  0  0 
    0.7917   -0.0109    0.0520 C   0  0  0  0  0  0  0  0  0  0  0  0 
    3.0503    0.3037   -1.1531 C   0  0  0  0  0  0  0  0  0  0  0  0 
    3.9524    1.1036   -1.1769 O   0  0  0  0  0  0  0  0  0  0  0  0 
    2.5897   -0.5546   -2.6857 S   0  0  0  0  0  0  0  0  0  0  0  0 
   -3.0951    0.1701   -0.1704 H   0  0  0  0  0  0  0  0  0  0  0  0 
   -1.7323    2.2389   -0.3939 H   0  0  0  0  0  0  0  0  0  0  0  0 
   -1.9659   -2.0148    0.2037 H   0  0  0  0  0  0  0  0  0  0  0  0 
    0.7349    2.1245   -0.2486 H   0  0  0  0  0  0  0  0  0  0  0  0 
    0.5025   -2.1261    0.3525 H   0  0  0  0  0  0  0  0  0  0  0  0 
    2.6250   -1.0814    0.4147 H   0  0  0  0  0  0  0  0  0  0  0  0 
    2.6861    0.6186    0.8938 H   0  0  0  0  0  0  0  0  0  0  0  0 
    1.5161   -1.2115   -2.1971 H   0  0  0  0  0  0  0  0  0  0  0  0 
  1  3  2  0  0  0  0 
  2  4  2  0  0  0  0 
  2  1  1  0  0  0  0 
  3  5  1  0  0  0  0 
  3 13  1  0  0  0  0 
  4  7  1  0  0  0  0 
  5 15  1  0  0  0  0 
  6 16  1  0  0  0  0 
  6 17  1  0  0  0  0 
  7  6  1  0  0  0  0 
  7  5  2  0  0  0  0 
  8  6  1  0  0  0  0 
  9  8  2  0  0  0  0 
 10 18  1  0  0  0  0 
 10  8  1  0  0  0  0 
 11  1  1  0  0  0  0 
 12  2  1  0  0  0  0 
 14  4  1  0  0  0  0 
M  END 
>  <HBA> 
2 
 
>  <HBD> 
1 
 
>  <TPSA> 
55.87 
 
>  <cid> 
7631 
 
>  <dipole> 
3.84 
 
>  <excitation_energy_1> 
4.607 
 
>  <excitation_energy_2> 
5.162 
 
>  <excitation_energy_3> 
5.469 
 
>  <excitation_energy_4> 
5.558 
 
>  <homo_energy> 
-6.819 
 
>  <homo_lumo_gap> 
6.027 
 
>  <logP> 
1.685 
 
>  <lumo_energy> 
-0.792 
 
>  <melting_point> 
48.14 
 
>  <molecular_refractivity> 
44.34 
 
>  <oscillator_strength_1> 
0.0034 
 
>  <oscillator_strength_2> 
0.0014 
 
>  <oscillator_strength_3> 
0.0309 
 
>  <oscillator_strength_4> 
0.0139 
 
>  <open_babel_can_smiles> 
SC(=O)Cc1ccccc1 
 
>  <mulliken_charges> 
18 
1   -0.127852 
2   -0.126629 
3   -0.124401 
4   -0.166143 
5   -0.192735 
6   -0.423892 
7   0.141302 
8   0.298253 
9   -0.406761 
10   -0.031443 
11   0.137213 
12   0.139547 
13   0.137208 
14   0.144793 
15   0.131796 
16   0.181352 
17   0.192833 
18   0.095559 
 
>  <lowdin_charges> 
18 
1   -0.150104 
2   -0.147452 
3   -0.152575 
4   -0.157834 
5   -0.173567 
6   -0.29831 
7   -0.01236 
8   0.051863 
9   -0.215061 
10   -0.030985 
11   0.159515 
12   0.162556 
13   0.161895 
14   0.164702 
15   0.157218 
16   0.174703 
17   0.181369 
18   0.124426 
 
$$$$ 
 
