PCCDB-ID:  72088 
public computational chemistry database (PCCDB) project, http://pccdb.org 
 
 28 29  0  0  1  0  0  0  0  0999 V2000 
    2.7708    1.2299    0.7469 C   0  0  0  0  0  0  0  0  0  0  0  0 
    1.3678   -3.8203   -3.2882 C   0  0  0  0  0  0  0  0  0  0  0  0 
    0.7432   -2.5814   -3.4448 C   0  0  0  0  0  0  0  0  0  0  0  0 
    2.5114   -3.9220   -2.4946 C   0  0  0  0  0  0  0  0  0  0  0  0 
    1.2609   -1.4535   -2.8073 C   0  0  0  0  0  0  0  0  0  0  0  0 
    3.0275   -2.7919   -1.8588 C   0  0  0  0  0  0  0  0  0  0  0  0 
    2.9421   -0.3218   -1.2888 C   0  0  0  0  0  0  0  0  0  0  0  0 
    1.6243   -2.0383    1.5143 C   0  0  0  0  0  0  0  0  0  0  0  0 
    2.2890   -0.0645    0.0874 C   0  0  1  0  0  0  0  0  0  0  0  0 
    2.4070   -1.5440   -2.0053 C   0  0  0  0  0  0  0  0  0  0  0  0 
    2.3431   -2.9919    2.3084 C   0  0  0  0  0  0  0  0  0  0  0  0 
    2.0979   -4.0076    3.0401 N   0  0  0  0  0  0  0  0  0  0  0  0 
    3.7783   -1.4704    1.3308 N   0  0  0  0  0  0  0  0  0  0  0  0 
    2.5401   -1.2128    0.9955 N   0  0  0  0  0  0  0  0  0  0  0  0 
    3.6842   -2.5778    2.1536 O   0  0  0  0  0  0  0  0  0  0  0  0 
    2.4982    2.0833    0.1178 H   0  0  0  0  0  0  0  0  0  0  0  0 
    3.8564    1.2216    0.8755 H   0  0  0  0  0  0  0  0  0  0  0  0 
    2.3064    1.3625    1.7288 H   0  0  0  0  0  0  0  0  0  0  0  0 
    0.9672   -4.7001   -3.7845 H   0  0  0  0  0  0  0  0  0  0  0  0 
   -0.1428   -2.4917   -4.0677 H   0  0  0  0  0  0  0  0  0  0  0  0 
    3.0051   -4.8817   -2.3690 H   0  0  0  0  0  0  0  0  0  0  0  0 
    0.7743   -0.4889   -2.9413 H   0  0  0  0  0  0  0  0  0  0  0  0 
    3.9168   -2.8768   -1.2397 H   0  0  0  0  0  0  0  0  0  0  0  0 
    4.0243   -0.4002   -1.1438 H   0  0  0  0  0  0  0  0  0  0  0  0 
    2.7612    0.5757   -1.8928 H   0  0  0  0  0  0  0  0  0  0  0  0 
    0.5731   -1.9527    1.2981 H   0  0  0  0  0  0  0  0  0  0  0  0 
    1.2018   -0.0415   -0.0298 H   0  0  0  0  0  0  0  0  0  0  0  0 
    1.0945   -4.1881    3.0613 H   0  0  0  0  0  0  0  0  0  0  0  0 
  1 17  1  0  0  0  0 
  1 18  1  0  0  0  0 
  2  4  1  0  0  0  0 
  3  2  2  0  0  0  0 
  3  5  1  0  0  0  0 
  4 21  1  0  0  0  0 
  4  6  2  0  0  0  0 
  5 10  2  0  0  0  0 
  6 23  1  0  0  0  0 
  7 24  1  0  0  0  0 
  7  9  1  0  0  0  0 
  8 11  1  0  0  0  0 
  9 27  1  6  0  0  0 
  9  1  1  0  0  0  0 
  9 14  1  0  0  0  0 
 10  6  1  0  0  0  0 
 10  7  1  0  0  0  0 
 11 12  2  0  0  0  0 
 12 28  1  0  0  0  0 
 13 15  1  0  0  0  0 
 14 13  1  0  0  0  0 
 14  8  1  0  0  0  0 
 15 11  1  0  0  0  0 
 16  1  1  0  0  0  0 
 19  2  1  0  0  0  0 
 20  3  1  0  0  0  0 
 22  5  1  0  0  0  0 
 25  7  1  0  0  0  0 
 26  8  1  0  0  0  0 
M  RAD  2   8   2  13   2 
M  END 
>  <HBA> 
2 
 
>  <HBD> 
1 
 
>  <TPSA> 
54.81 
 
>  <cid> 
72088 
 
>  <dipole> 
6.79 
 
>  <excitation_energy_1> 
3.808 
 
>  <excitation_energy_2> 
4.152 
 
>  <excitation_energy_3> 
4.226 
 
>  <excitation_energy_4> 
4.463 
 
>  <homo_energy> 
-5.127 
 
>  <homo_lumo_gap> 
4.014 
 
>  <logP> 
1.859 
 
>  <lumo_energy> 
-1.113 
 
>  <melting_point> 
92.06 
 
>  <molecular_refractivity> 
56.38 
 
>  <oscillator_strength_1> 
0.0802 
 
>  <oscillator_strength_2> 
0.0006 
 
>  <oscillator_strength_3> 
0.0006 
 
>  <oscillator_strength_4> 
0.0021 
 
>  <open_babel_can_smiles> 
C[C@H](N1[N]OC(=N)[CH]1)Cc1ccccc1 
 
>  <mulliken_charges> 
28 
1   -0.448951 
2   -0.128734 
3   -0.127852 
4   -0.127168 
5   -0.185964 
6   -0.182094 
7   -0.360492 
8   -0.06212 
9   0.007187 
10   0.157436 
11   0.499426 
12   -0.666702 
13   0.012259 
14   -0.165308 
15   -0.38042 
16   0.159778 
17   0.188707 
18   0.169884 
19   0.134374 
20   0.132301 
21   0.140961 
22   0.120102 
23   0.153432 
24   0.182392 
25   0.157284 
26   0.177627 
27   0.165064 
28   0.277593 
 
>  <lowdin_charges> 
28 
1   -0.443928 
2   -0.156056 
3   -0.153878 
4   -0.149328 
5   -0.171448 
6   -0.160263 
7   -0.275191 
8   -0.242996 
9   -0.045376 
10   -0.014836 
11   0.107 
12   -0.450877 
13   -0.086458 
14   0.117619 
15   -0.105034 
16   0.162598 
17   0.171089 
18   0.165352 
19   0.160854 
20   0.158869 
21   0.163115 
22   0.151758 
23   0.166922 
24   0.168289 
25   0.16122 
26   0.184666 
27   0.159088 
28   0.257228 
 
$$$$ 
 
