PCCDB-ID:  72898 
public computational chemistry database (PCCDB) project, http://pccdb.org 
 
 20 21  0  0  0  0  0  0  0  0999 V2000 
   -1.4727   -0.0998    0.0517 C   0  0  0  0  0  0  0  0  0  0  0  0 
   -0.8650    1.1566    0.0502 C   0  0  0  0  0  0  0  0  0  0  0  0 
   -0.6750   -1.2451   -0.0165 C   0  0  0  0  0  0  0  0  0  0  0  0 
    5.0283   -0.0561   -0.4850 C   0  0  0  0  0  0  0  0  0  0  0  0 
    0.5225    1.2678   -0.0230 C   0  0  0  0  0  0  0  0  0  0  0  0 
    0.7117   -1.1368   -0.0741 C   0  0  0  0  0  0  0  0  0  0  0  0 
    3.7498   -0.6477   -0.6609 C   0  0  0  0  0  0  0  0  0  0  0  0 
    4.8358    1.1611    0.1352 C   0  0  0  0  0  0  0  0  0  0  0  0 
    1.3392    0.1231   -0.0807 C   0  0  0  0  0  0  0  0  0  0  0  0 
    2.7971    0.2228   -0.1482 C   0  0  0  0  0  0  0  0  0  0  0  0 
    3.4858    1.3267    0.3211 N   0  0  0  0  0  0  0  0  0  0  0  0 
   -2.5545   -0.1863    0.1042 H   0  0  0  0  0  0  0  0  0  0  0  0 
   -1.4732    2.0566    0.0909 H   0  0  0  0  0  0  0  0  0  0  0  0 
   -1.1353   -2.2298   -0.0105 H   0  0  0  0  0  0  0  0  0  0  0  0 
    5.9808   -0.4696   -0.7876 H   0  0  0  0  0  0  0  0  0  0  0  0 
    0.9731    2.2565   -0.0685 H   0  0  0  0  0  0  0  0  0  0  0  0 
    1.3243   -2.0334   -0.0957 H   0  0  0  0  0  0  0  0  0  0  0  0 
    3.5376   -1.5887   -1.1501 H   0  0  0  0  0  0  0  0  0  0  0  0 
    5.5402    1.9130    0.4607 H   0  0  0  0  0  0  0  0  0  0  0  0 
    3.0634    2.0773    0.8455 H   0  0  0  0  0  0  0  0  0  0  0  0 
  1 12  1  0  0  0  0 
  2  1  1  0  0  0  0 
  2 13  1  0  0  0  0 
  3 14  1  0  0  0  0 
  3  1  2  0  0  0  0 
  4  8  2  0  0  0  0 
  5  2  2  0  0  0  0 
  6  3  1  0  0  0  0 
  7  4  1  0  0  0  0 
  7 10  2  0  0  0  0 
  8 11  1  0  0  0  0 
  8 19  1  0  0  0  0 
  9  6  2  0  0  0  0 
  9  5  1  0  0  0  0 
 10  9  1  0  0  0  0 
 10 11  1  0  0  0  0 
 11 20  1  0  0  0  0 
 15  4  1  0  0  0  0 
 16  5  1  0  0  0  0 
 17  6  1  0  0  0  0 
 18  7  1  0  0  0  0 
M  END 
>  <HBA> 
0 
 
>  <HBD> 
1 
 
>  <TPSA> 
15.79 
 
>  <cid> 
72898 
 
>  <dipole> 
1.53 
 
>  <excitation_energy_1> 
4.335 
 
>  <excitation_energy_2> 
4.357 
 
>  <excitation_energy_3> 
4.596 
 
>  <excitation_energy_4> 
5.211 
 
>  <homo_energy> 
-5.192 
 
>  <homo_lumo_gap> 
4.789 
 
>  <logP> 
2.682 
 
>  <lumo_energy> 
-0.403 
 
>  <melting_point> 
87.86 
 
>  <molecular_refractivity> 
46.23 
 
>  <oscillator_strength_1> 
0.4329 
 
>  <oscillator_strength_2> 
0.0448 
 
>  <oscillator_strength_3> 
0.0073 
 
>  <oscillator_strength_4> 
0.0072 
 
>  <open_babel_can_smiles> 
c1ccc(cc1)c1ccc[nH]1 
 
>  <mulliken_charges> 
20 
1   -0.130132 
2   -0.131159 
3   -0.135248 
4   -0.185293 
5   -0.192446 
6   -0.175651 
7   -0.20112 
8   0.042999 
9   0.135098 
10   0.242416 
11   -0.625083 
12   0.127623 
13   0.128073 
14   0.129657 
15   0.125217 
16   0.115399 
17   0.132984 
18   0.125858 
19   0.142609 
20   0.328202 
 
>  <lowdin_charges> 
20 
1   -0.16223 
2   -0.153842 
3   -0.152174 
4   -0.209215 
5   -0.176145 
6   -0.160675 
7   -0.214333 
8   -0.150618 
9   -0.000263 
10   0.001543 
11   -0.177584 
12   0.155309 
13   0.157534 
14   0.157491 
15   0.160395 
16   0.149428 
17   0.161008 
18   0.160218 
19   0.164306 
20   0.289847 
 
$$$$ 
 
