PCCDB-ID:  33865 
public computational chemistry database (PCCDB) project, http://pccdb.org 
 
 42 41  0  0  0  0  0  0  0  0999 V2000 
    1.2616   -1.4511   -0.2187 C   0  0  0  0  0  0  0  0  0  0  0  0 
    3.2115   -1.9179   -1.7513 C   0  0  0  0  0  0  0  0  0  0  0  0 
    8.2835   -2.4558    1.5073 C   0  0  0  0  0  0  0  0  0  0  0  0 
    8.2809   -2.7968    0.0082 C   0  0  0  0  0  0  0  0  0  0  0  0 
    7.0388   -2.8801    2.3109 C   0  0  0  0  0  0  0  0  0  0  0  0 
    9.6375   -2.5829   -0.6854 C   0  0  0  0  0  0  0  0  0  0  0  0 
    5.7404   -2.0802    2.0751 C   0  0  0  0  0  0  0  0  0  0  0  0 
   10.0880   -1.1143   -0.7520 C   0  0  0  0  0  0  0  0  0  0  0  0 
    4.8941   -2.4952    0.8612 C   0  0  0  0  0  0  0  0  0  0  0  0 
   11.3478   -0.8698   -1.5974 C   0  0  0  0  0  0  0  0  0  0  0  0 
    3.5707   -1.7202    0.7763 C   0  0  0  0  0  0  0  0  0  0  0  0 
   12.6160   -1.4989   -1.0314 C   0  0  0  0  0  0  0  0  0  0  0  0 
    2.6185   -2.1585   -0.3545 C   0  0  0  0  0  0  0  0  0  0  0  0 
   13.7017   -1.1093   -1.8689 O   0  0  0  0  0  0  0  0  0  0  0  0 
    0.5582   -1.7866   -0.9902 H   0  0  0  0  0  0  0  0  0  0  0  0 
    1.3741   -0.3639   -0.3232 H   0  0  0  0  0  0  0  0  0  0  0  0 
    0.8050   -1.6452    0.7593 H   0  0  0  0  0  0  0  0  0  0  0  0 
    2.5075   -2.2241   -2.5343 H   0  0  0  0  0  0  0  0  0  0  0  0 
    4.1408   -2.4761   -1.9074 H   0  0  0  0  0  0  0  0  0  0  0  0 
    3.4320   -0.8526   -1.9025 H   0  0  0  0  0  0  0  0  0  0  0  0 
    8.4416   -1.3770    1.6448 H   0  0  0  0  0  0  0  0  0  0  0  0 
    9.1568   -2.9470    1.9623 H   0  0  0  0  0  0  0  0  0  0  0  0 
    7.5212   -2.2019   -0.5156 H   0  0  0  0  0  0  0  0  0  0  0  0 
    7.9842   -3.8483   -0.1147 H   0  0  0  0  0  0  0  0  0  0  0  0 
    7.2973   -2.7882    3.3746 H   0  0  0  0  0  0  0  0  0  0  0  0 
    6.8437   -3.9503    2.1441 H   0  0  0  0  0  0  0  0  0  0  0  0 
    9.5770   -2.9773   -1.7101 H   0  0  0  0  0  0  0  0  0  0  0  0 
   10.3982   -3.1877   -0.1713 H   0  0  0  0  0  0  0  0  0  0  0  0 
    5.9823   -1.0088    2.0060 H   0  0  0  0  0  0  0  0  0  0  0  0 
    5.1102   -2.1839    2.9701 H   0  0  0  0  0  0  0  0  0  0  0  0 
   10.2528   -0.7267    0.2629 H   0  0  0  0  0  0  0  0  0  0  0  0 
    9.2676   -0.5165   -1.1737 H   0  0  0  0  0  0  0  0  0  0  0  0 
    4.6781   -3.5723    0.9282 H   0  0  0  0  0  0  0  0  0  0  0  0 
    5.4649   -2.3558   -0.0631 H   0  0  0  0  0  0  0  0  0  0  0  0 
   11.5269    0.2091   -1.6883 H   0  0  0  0  0  0  0  0  0  0  0  0 
   11.1975   -1.2477   -2.6176 H   0  0  0  0  0  0  0  0  0  0  0  0 
    3.7836   -0.6454    0.6652 H   0  0  0  0  0  0  0  0  0  0  0  0 
    3.0429   -1.8252    1.7359 H   0  0  0  0  0  0  0  0  0  0  0  0 
   12.5219   -2.5959   -0.9988 H   0  0  0  0  0  0  0  0  0  0  0  0 
   12.7702   -1.1524    0.0053 H   0  0  0  0  0  0  0  0  0  0  0  0 
    2.4458   -3.2404   -0.2425 H   0  0  0  0  0  0  0  0  0  0  0  0 
   14.5038   -1.5377   -1.5342 H   0  0  0  0  0  0  0  0  0  0  0  0 
  1 17  1  0  0  0  0 
  2 13  1  0  0  0  0 
  3 21  1  0  0  0  0 
  3 22  1  0  0  0  0 
  3  5  1  0  0  0  0 
  4  3  1  0  0  0  0 
  5 25  1  0  0  0  0 
  6 28  1  0  0  0  0 
  6  4  1  0  0  0  0 
  7  5  1  0  0  0  0 
  7 30  1  0  0  0  0 
  8  6  1  0  0  0  0 
  8 31  1  0  0  0  0 
  9 33  1  0  0  0  0 
  9  7  1  0  0  0  0 
 10 12  1  0  0  0  0 
 10  8  1  0  0  0  0 
 11  9  1  0  0  0  0 
 11 38  1  0  0  0  0 
 12 39  1  0  0  0  0 
 12 40  1  0  0  0  0 
 13 41  1  0  0  0  0 
 13  1  1  0  0  0  0 
 13 11  1  0  0  0  0 
 14 42  1  0  0  0  0 
 14 12  1  0  0  0  0 
 15  1  1  0  0  0  0 
 16  1  1  0  0  0  0 
 18  2  1  0  0  0  0 
 19  2  1  0  0  0  0 
 20  2  1  0  0  0  0 
 23  4  1  0  0  0  0 
 24  4  1  0  0  0  0 
 26  5  1  0  0  0  0 
 27  6  1  0  0  0  0 
 29  7  1  0  0  0  0 
 32  8  1  0  0  0  0 
 34  9  1  0  0  0  0 
 35 10  1  0  0  0  0 
 36 10  1  0  0  0  0 
 37 11  1  0  0  0  0 
M  END 
>  <HBA> 
1 
 
>  <HBD> 
1 
 
>  <TPSA> 
20.23 
 
>  <cid> 
33865 
 
>  <dipole> 
1.61 
 
>  <excitation_energy_1> 
6.315 
 
>  <excitation_energy_2> 
7.095 
 
>  <excitation_energy_3> 
7.314 
 
>  <excitation_energy_4> 
7.319 
 
>  <homo_energy> 
-7.086 
 
>  <homo_lumo_gap> 
9.187 
 
>  <logP> 
4.146 
 
>  <lumo_energy> 
2.101 
 
>  <melting_point> 
-12.59 
 
>  <molecular_refractivity> 
65.77 
 
>  <oscillator_strength_1> 
0.0006 
 
>  <oscillator_strength_2> 
0.0049 
 
>  <oscillator_strength_3> 
0.0085 
 
>  <oscillator_strength_4> 
0.007 
 
>  <open_babel_can_smiles> 
OCCCCCCCCCCC(C)C 
 
>  <mulliken_charges> 
42 
1   -0.441634 
2   -0.444687 
3   -0.253842 
4   -0.256825 
5   -0.261156 
6   -0.258449 
7   -0.252655 
8   -0.265563 
9   -0.26512 
10   -0.261688 
11   -0.245936 
12   -0.028266 
13   -0.065513 
14   -0.620976 
15   0.138279 
16   0.137755 
17   0.138568 
18   0.138977 
19   0.144257 
20   0.136795 
21   0.132006 
22   0.124165 
23   0.135931 
24   0.126153 
25   0.127603 
26   0.125942 
27   0.128724 
28   0.128331 
29   0.126136 
30   0.12709 
31   0.133417 
32   0.131984 
33   0.124771 
34   0.142836 
35   0.144491 
36   0.141395 
37   0.122304 
38   0.123373 
39   0.119872 
40   0.113424 
41   0.118644 
42   0.389087 
 
>  <lowdin_charges> 
42 
1   -0.443029 
2   -0.446628 
3   -0.276251 
4   -0.278806 
5   -0.27368 
6   -0.278883 
7   -0.274296 
8   -0.278161 
9   -0.27902 
10   -0.278397 
11   -0.273512 
12   -0.131463 
13   -0.117991 
14   -0.475237 
15   0.147812 
16   0.14301 
17   0.146323 
18   0.148697 
19   0.148277 
20   0.143097 
21   0.137055 
22   0.13897 
23   0.140559 
24   0.138585 
25   0.141449 
26   0.135856 
27   0.139895 
28   0.137433 
29   0.135884 
30   0.140145 
31   0.138719 
32   0.143875 
33   0.134572 
34   0.142345 
35   0.148641 
36   0.145144 
37   0.134106 
38   0.137533 
39   0.122178 
40   0.119986 
41   0.131684 
42   0.343525 
 
$$$$ 
 
