PCCDB-ID:  30235 
public computational chemistry database (PCCDB) project, http://pccdb.org 
 
 31 31  0  0  1  0  0  0  0  0999 V2000 
    2.5639   -2.7524   -2.6655 C   0  0  0  0  0  0  0  0  0  0  0  0 
    2.5589   -0.8667    0.7846 C   0  0  0  0  0  0  0  0  0  0  0  0 
    8.9134   -1.6024   -0.7711 C   0  0  0  0  0  0  0  0  0  0  0  0 
    2.2913   -2.4470   -1.1887 C   0  0  0  0  0  0  0  0  0  0  0  0 
    6.6350   -2.5580   -0.5319 C   0  0  0  0  0  0  0  0  0  0  0  0 
    5.2373   -2.4972   -0.5008 C   0  0  0  0  0  0  0  0  0  0  0  0 
    3.0276   -1.2055   -0.6466 C   0  0  2  0  0  0  0  0  0  0  0  0 
    7.4075   -1.4170   -0.7097 C   0  0  0  0  0  0  0  0  0  0  0  0 
    4.5477   -1.3077   -0.6850 C   0  0  0  0  0  0  0  0  0  0  0  0 
    6.7445   -0.1643   -0.8641 C   0  0  0  0  0  0  0  0  0  0  0  0 
    5.3166   -0.1348   -0.8847 C   0  0  0  0  0  0  0  0  0  0  0  0 
    7.4306    1.1464   -1.0047 C   0  0  0  0  0  0  0  0  0  0  0  0 
    4.6283    1.0024   -1.0794 O   0  0  0  0  0  0  0  0  0  0  0  0 
    6.8651    2.1628   -1.3998 O   0  0  0  0  0  0  0  0  0  0  0  0 
    8.7318    1.2704   -0.6699 O   0  0  0  0  0  0  0  0  0  0  0  0 
    1.9765   -3.6137   -3.0036 H   0  0  0  0  0  0  0  0  0  0  0  0 
    3.6208   -2.9760   -2.8455 H   0  0  0  0  0  0  0  0  0  0  0  0 
    2.2958   -1.8971   -3.2976 H   0  0  0  0  0  0  0  0  0  0  0  0 
    1.4720   -0.7232    0.8110 H   0  0  0  0  0  0  0  0  0  0  0  0 
    3.0311    0.0533    1.1433 H   0  0  0  0  0  0  0  0  0  0  0  0 
    2.8112   -1.6742    1.4831 H   0  0  0  0  0  0  0  0  0  0  0  0 
    9.1484   -2.6614   -0.9075 H   0  0  0  0  0  0  0  0  0  0  0  0 
    9.4223   -1.3110    0.1629 H   0  0  0  0  0  0  0  0  0  0  0  0 
    9.3773   -1.0591   -1.6012 H   0  0  0  0  0  0  0  0  0  0  0  0 
    2.5245   -3.3277   -0.5735 H   0  0  0  0  0  0  0  0  0  0  0  0 
    1.2155   -2.2746   -1.0514 H   0  0  0  0  0  0  0  0  0  0  0  0 
    7.1277   -3.5203   -0.4246 H   0  0  0  0  0  0  0  0  0  0  0  0 
    4.6815   -3.4183   -0.3508 H   0  0  0  0  0  0  0  0  0  0  0  0 
    2.7517   -0.3584   -1.2847 H   0  0  0  0  0  0  0  0  0  0  0  0 
    5.2901    1.7122   -1.2962 H   0  0  0  0  0  0  0  0  0  0  0  0 
    9.0621    0.4587   -0.2570 H   0  0  0  0  0  0  0  0  0  0  0  0 
  1  4  1  0  0  0  0 
  2 19  1  0  0  0  0 
  2 20  1  0  0  0  0 
  2 21  1  0  0  0  0 
  3  8  1  0  0  0  0 
  3 23  1  0  0  0  0 
  4 26  1  0  0  0  0 
  4  7  1  0  0  0  0 
  4 25  1  0  0  0  0 
  5  6  1  0  0  0  0 
  5 27  1  0  0  0  0 
  6 28  1  0  0  0  0 
  7 29  1  6  0  0  0 
  7  2  1  0  0  0  0 
  8  5  2  0  0  0  0 
  9  7  1  0  0  0  0 
  9  6  2  0  0  0  0 
 10  8  1  0  0  0  0 
 11 10  2  0  0  0  0 
 11  9  1  0  0  0  0 
 12 10  1  0  0  0  0 
 12 15  1  0  0  0  0 
 13 11  1  0  0  0  0 
 14 12  2  0  0  0  0 
 15 31  1  0  0  0  0 
 16  1  1  0  0  0  0 
 17  1  1  0  0  0  0 
 18  1  1  0  0  0  0 
 22  3  1  0  0  0  0 
 24  3  1  0  0  0  0 
 30 13  1  0  0  0  0 
M  END 
>  <HBA> 
3 
 
>  <HBD> 
2 
 
>  <TPSA> 
57.53 
 
>  <cid> 
30235 
 
>  <dipole> 
4.26 
 
>  <excitation_energy_1> 
4.041 
 
>  <excitation_energy_2> 
4.968 
 
>  <excitation_energy_3> 
5.122 
 
>  <excitation_energy_4> 
5.439 
 
>  <homo_energy> 
-6.098 
 
>  <homo_lumo_gap> 
4.68 
 
>  <logP> 
2.912 
 
>  <lumo_energy> 
-1.418 
 
>  <melting_point> 
143.3 
 
>  <molecular_refractivity> 
59.78 
 
>  <oscillator_strength_1> 
0.1102 
 
>  <oscillator_strength_2> 
0.026 
 
>  <oscillator_strength_3> 
0.068 
 
>  <oscillator_strength_4> 
0.0005 
 
>  <open_babel_can_smiles> 
CC[C@H](c1ccc(c(c1O)C(=O)O)C)C 
 
>  <mulliken_charges> 
31 
1   -0.4465 
2   -0.444873 
3   -0.611834 
4   -0.259121 
5   -0.194208 
6   -0.191719 
7   -0.140635 
8   0.136796 
9   0.135009 
10   -0.040494 
11   0.249138 
12   0.579109 
13   -0.652151 
14   -0.513689 
15   -0.575773 
16   0.141186 
17   0.149045 
18   0.146977 
19   0.142105 
20   0.16013 
21   0.137922 
22   0.181174 
23   0.166965 
24   0.190246 
25   0.127167 
26   0.135001 
27   0.124457 
28   0.136493 
29   0.15792 
30   0.451102 
31   0.423058 
 
>  <lowdin_charges> 
31 
1   -0.4483 
2   -0.438401 
3   -0.461086 
4   -0.272249 
5   -0.192014 
6   -0.139247 
7   -0.123747 
8   0.005207 
9   -0.029217 
10   -0.13087 
11   0.125584 
12   0.212401 
13   -0.371252 
14   -0.287594 
15   -0.342085 
16   0.150243 
17   0.148937 
18   0.150308 
19   0.1466 
20   0.158045 
21   0.145648 
22   0.171344 
23   0.157527 
24   0.170756 
25   0.13585 
26   0.143736 
27   0.156565 
28   0.163039 
29   0.160279 
30   0.37367 
31   0.360322 
 
$$$$ 
 
