PCCDB-ID:  69713 
public computational chemistry database (PCCDB) project, http://pccdb.org 
 
 18 19  0  0  0  0  0  0  0  0999 V2000 
   -0.3422    2.1858    0.5938 C   0  0  0  0  0  0  0  0  0  0  0  0 
    5.4581    1.2098   -0.3845 C   0  0  0  0  0  0  0  0  0  0  0  0 
    0.9723    1.6472    0.5744 C   0  0  0  0  0  0  0  0  0  0  0  0 
    4.0381    1.1680   -0.4006 C   0  0  0  0  0  0  0  0  0  0  0  0 
   -1.2746    1.3027    0.1097 C   0  0  0  0  0  0  0  0  0  0  0  0 
    6.0121   -0.0071   -0.0747 C   0  0  0  0  0  0  0  0  0  0  0  0 
    1.0253    0.3633    0.0707 C   0  0  0  0  0  0  0  0  0  0  0  0 
    3.5287   -0.0785   -0.0974 C   0  0  0  0  0  0  0  0  0  0  0  0 
    2.1445   -0.5895   -0.0651 C   0  0  0  0  0  0  0  0  0  0  0  0 
    1.9255   -1.7980   -0.1520 O   0  0  0  0  0  0  0  0  0  0  0  0 
   -0.5730   -0.2039   -0.3559 S   0  0  0  0  0  0  0  0  0  0  0  0 
    4.8181   -1.2269    0.1813 S   0  0  0  0  0  0  0  0  0  0  0  0 
   -0.5845    3.1791    0.9551 H   0  0  0  0  0  0  0  0  0  0  0  0 
    6.0403    2.0993   -0.5988 H   0  0  0  0  0  0  0  0  0  0  0  0 
    1.8405    2.1703    0.9561 H   0  0  0  0  0  0  0  0  0  0  0  0 
    3.4160    2.0139   -0.6660 H   0  0  0  0  0  0  0  0  0  0  0  0 
   -2.3407    1.4582    0.0058 H   0  0  0  0  0  0  0  0  0  0  0  0 
    7.0629   -0.2519    0.0118 H   0  0  0  0  0  0  0  0  0  0  0  0 
  1 13  1  0  0  0  0 
  2  6  2  0  0  0  0 
  3  1  1  0  0  0  0 
  3 15  1  0  0  0  0 
  4  2  1  0  0  0  0 
  4  8  2  0  0  0  0 
  5  1  2  0  0  0  0 
  6 18  1  0  0  0  0 
  6 12  1  0  0  0  0 
  7  3  2  0  0  0  0 
  8  9  1  0  0  0  0 
  8 12  1  0  0  0  0 
  9  7  1  0  0  0  0 
 10  9  2  0  0  0  0 
 11  7  1  0  0  0  0 
 11  5  1  0  0  0  0 
 14  2  1  0  0  0  0 
 16  4  1  0  0  0  0 
 17  5  1  0  0  0  0 
M  END 
>  <HBA> 
3 
 
>  <HBD> 
0 
 
>  <TPSA> 
73.55 
 
>  <cid> 
69713 
 
>  <dipole> 
4.2 
 
>  <excitation_energy_1> 
3.557 
 
>  <excitation_energy_2> 
4.009 
 
>  <excitation_energy_3> 
4.255 
 
>  <excitation_energy_4> 
4.368 
 
>  <homo_energy> 
-6.653 
 
>  <homo_lumo_gap> 
4.593 
 
>  <logP> 
3.041 
 
>  <lumo_energy> 
-2.06 
 
>  <melting_point> 
62.21 
 
>  <molecular_refractivity> 
52.07 
 
>  <oscillator_strength_1> 
0.0002 
 
>  <oscillator_strength_2> 
0.3545 
 
>  <oscillator_strength_3> 
0.0001 
 
>  <oscillator_strength_4> 
0.0047 
 
>  <open_babel_can_smiles> 
O=C(c1cccs1)c1cccs1 
 
>  <mulliken_charges> 
18 
1   -0.108499 
2   -0.108576 
3   -0.114602 
4   -0.114724 
5   -0.334203 
6   -0.334172 
7   -0.220061 
8   -0.219899 
9   0.441911 
10   -0.481414 
11   0.312384 
12   0.31246 
13   0.148544 
14   0.148603 
15   0.155841 
16   0.155975 
17   0.180204 
18   0.180227 
 
>  <lowdin_charges> 
18 
1   -0.183223 
2   -0.184758 
3   -0.168154 
4   -0.168012 
5   -0.300734 
6   -0.301115 
7   -0.189483 
8   -0.189202 
9   0.148052 
10   -0.252766 
11   0.367833 
12   0.367382 
13   0.167855 
14   0.169087 
15   0.173982 
16   0.174147 
17   0.184315 
18   0.184795 
 
$$$$ 
 
