PCCDB-ID:  28649 
public computational chemistry database (PCCDB) project, http://pccdb.org 
 
 27 29  0  0  1  0  0  0  0  0999 V2000 
   -0.9220    0.5773   -2.9480 C   0  0  0  0  0  0  0  0  0  0  0  0 
    6.8556    2.6109    1.6496 C   0  0  0  0  0  0  0  0  0  0  0  0 
   -0.9031    1.2382   -1.7182 C   0  0  0  0  0  0  0  0  0  0  0  0 
    0.1997   -0.1436   -3.3637 C   0  0  0  0  0  0  0  0  0  0  0  0 
    6.2963    1.3678    1.9537 C   0  0  0  0  0  0  0  0  0  0  0  0 
    6.4694    3.2771    0.4847 C   0  0  0  0  0  0  0  0  0  0  0  0 
    0.2328    1.1800   -0.9103 C   0  0  0  0  0  0  0  0  0  0  0  0 
    1.3372   -0.1990   -2.5590 C   0  0  0  0  0  0  0  0  0  0  0  0 
    5.3511    0.7959    1.1035 C   0  0  0  0  0  0  0  0  0  0  0  0 
    5.5265    2.7038   -0.3692 C   0  0  0  0  0  0  0  0  0  0  0  0 
    1.3641    0.4672   -1.3277 C   0  0  0  0  0  0  0  0  0  0  0  0 
    4.9543    1.4627   -0.0625 C   0  0  0  0  0  0  0  0  0  0  0  0 
    2.5829    0.4398   -0.4708 C   0  0  2  0  0  0  0  0  0  0  0  0 
    3.9220    0.8745   -0.9617 C   0  0  2  0  0  0  0  0  0  0  0  0 
    3.6041   -0.5134   -0.7922 O   0  0  0  0  0  0  0  0  0  0  0  0 
   -1.8081    0.6181   -3.5759 H   0  0  0  0  0  0  0  0  0  0  0  0 
    7.5932    3.0545    2.3130 H   0  0  0  0  0  0  0  0  0  0  0  0 
   -1.7749    1.7946   -1.3843 H   0  0  0  0  0  0  0  0  0  0  0  0 
    0.1872   -0.6694   -4.3148 H   0  0  0  0  0  0  0  0  0  0  0  0 
    6.6012    0.8386    2.8528 H   0  0  0  0  0  0  0  0  0  0  0  0 
    6.9066    4.2408    0.2368 H   0  0  0  0  0  0  0  0  0  0  0  0 
    0.2418    1.6902    0.0506 H   0  0  0  0  0  0  0  0  0  0  0  0 
    2.2062   -0.7739   -2.8643 H   0  0  0  0  0  0  0  0  0  0  0  0 
    4.9282   -0.1804    1.3207 H   0  0  0  0  0  0  0  0  0  0  0  0 
    5.2328    3.2226   -1.2793 H   0  0  0  0  0  0  0  0  0  0  0  0 
    2.4072    0.5566    0.6005 H   0  0  0  0  0  0  0  0  0  0  0  0 
    3.9669    1.1946   -2.0045 H   0  0  0  0  0  0  0  0  0  0  0  0 
  1  3  1  0  0  0  0 
  2  5  1  0  0  0  0 
  2 17  1  0  0  0  0 
  3 18  1  0  0  0  0 
  3  7  2  0  0  0  0 
  4  1  2  0  0  0  0 
  4  8  1  0  0  0  0 
  5 20  1  0  0  0  0 
  6  2  2  0  0  0  0 
  7 22  1  0  0  0  0 
  8 11  2  0  0  0  0 
  9 24  1  0  0  0  0 
  9  5  2  0  0  0  0 
 10 12  2  0  0  0  0 
 10  6  1  0  0  0  0 
 11  7  1  0  0  0  0 
 11 13  1  0  0  0  0 
 12  9  1  0  0  0  0 
 13 26  1  1  0  0  0 
 14 27  1  6  0  0  0 
 14 15  1  0  0  0  0 
 14 13  1  0  0  0  0 
 14 12  1  0  0  0  0 
 15 13  1  0  0  0  0 
 16  1  1  0  0  0  0 
 19  4  1  0  0  0  0 
 21  6  1  0  0  0  0 
 23  8  1  0  0  0  0 
 25 10  1  0  0  0  0 
M  END 
>  <HBA> 
1 
 
>  <HBD> 
0 
 
>  <TPSA> 
12.53 
 
>  <cid> 
28649 
 
>  <dipole> 
1.71 
 
>  <excitation_energy_1> 
5.089 
 
>  <excitation_energy_2> 
5.123 
 
>  <excitation_energy_3> 
5.187 
 
>  <excitation_energy_4> 
5.601 
 
>  <homo_energy> 
-6.259 
 
>  <homo_lumo_gap> 
5.717 
 
>  <logP> 
3.499 
 
>  <lumo_energy> 
-0.542 
 
>  <melting_point> 
50.51 
 
>  <molecular_refractivity> 
59.67 
 
>  <oscillator_strength_1> 
0.2724 
 
>  <oscillator_strength_2> 
0.0013 
 
>  <oscillator_strength_3> 
0.2476 
 
>  <oscillator_strength_4> 
0.0014 
 
>  <open_babel_can_smiles> 
O1[C@@H]([C@H]1c1ccccc1)c1ccccc1 
 
>  <mulliken_charges> 
27 
1   -0.126592 
2   -0.126534 
3   -0.135995 
4   -0.129269 
5   -0.129276 
6   -0.135904 
7   -0.182785 
8   -0.189755 
9   -0.191019 
10   -0.184039 
11   0.168689 
12   0.172831 
13   0.003742 
14   0.003452 
15   -0.461586 
16   0.130531 
17   0.130541 
18   0.131728 
19   0.132291 
20   0.132339 
21   0.13175 
22   0.128146 
23   0.151153 
24   0.150958 
25   0.128305 
26   0.148302 
27   0.147996 
 
>  <lowdin_charges> 
27 
1   -0.158166 
2   -0.158324 
3   -0.154485 
4   -0.151148 
5   -0.152446 
6   -0.153341 
7   -0.162 
8   -0.160995 
9   -0.159708 
10   -0.163409 
11   -0.015853 
12   -0.014764 
13   -0.019758 
14   -0.017551 
15   -0.269514 
16   0.158731 
17   0.159472 
18   0.15921 
19   0.158405 
20   0.159164 
21   0.158302 
22   0.15648 
23   0.168894 
24   0.167647 
25   0.157252 
26   0.15362 
27   0.154283 
 
$$$$ 
 
