PCCDB-ID:  28446 
public computational chemistry database (PCCDB) project, http://pccdb.org 
 
 27 28  0  0  0  0  0  0  0  0999 V2000 
    1.7829    0.2369   -1.0530 C   0  0  0  0  0  0  0  0  0  0  0  0 
    1.3694    3.4667    0.2676 C   0  0  0  0  0  0  0  0  0  0  0  0 
    6.9470    1.2312    0.9005 C   0  0  0  0  0  0  0  0  0  0  0  0 
    7.2713    2.5646    0.2028 C   0  0  0  0  0  0  0  0  0  0  0  0 
    5.5918    0.6536    0.4395 C   0  0  0  0  0  0  0  0  0  0  0  0 
    6.2528    3.6628    0.5693 C   0  0  0  0  0  0  0  0  0  0  0  0 
    4.5531    1.7412    0.4154 C   0  0  0  0  0  0  0  0  0  0  0  0 
    4.8560    3.1210    0.4542 C   0  0  0  0  0  0  0  0  0  0  0  0 
    3.1667    1.6956    0.3304 C   0  0  0  0  0  0  0  0  0  0  0  0 
    2.2496    0.6270    0.2869 N   0  0  0  0  0  0  0  0  0  0  0  0 
    3.7616    3.8806    0.3885 N   0  0  0  0  0  0  0  0  0  0  0  0 
    2.7351    2.9939    0.3328 N   0  0  0  0  0  0  0  0  0  0  0  0 
    1.0994   -0.6124   -0.9543 H   0  0  0  0  0  0  0  0  0  0  0  0 
    2.5957   -0.0378   -1.7432 H   0  0  0  0  0  0  0  0  0  0  0  0 
    1.2255    1.0652   -1.5005 H   0  0  0  0  0  0  0  0  0  0  0  0 
    0.7130    2.6840    0.6548 H   0  0  0  0  0  0  0  0  0  0  0  0 
    1.0750    3.7137   -0.7602 H   0  0  0  0  0  0  0  0  0  0  0  0 
    1.2852    4.3651    0.8824 H   0  0  0  0  0  0  0  0  0  0  0  0 
    6.9189    1.3955    1.9870 H   0  0  0  0  0  0  0  0  0  0  0  0 
    7.7429    0.5003    0.7123 H   0  0  0  0  0  0  0  0  0  0  0  0 
    7.2687    2.4110   -0.8858 H   0  0  0  0  0  0  0  0  0  0  0  0 
    8.2829    2.8922    0.4713 H   0  0  0  0  0  0  0  0  0  0  0  0 
    5.2980   -0.1745    1.1005 H   0  0  0  0  0  0  0  0  0  0  0  0 
    5.7123    0.2114   -0.5618 H   0  0  0  0  0  0  0  0  0  0  0  0 
    6.3770    4.5444   -0.0706 H   0  0  0  0  0  0  0  0  0  0  0  0 
    6.4387    4.0011    1.5996 H   0  0  0  0  0  0  0  0  0  0  0  0 
    2.6468   -0.1781    0.7630 H   0  0  0  0  0  0  0  0  0  0  0  0 
  1 13  1  0  0  0  0 
  1 10  1  0  0  0  0 
  2 12  1  0  0  0  0 
  2 16  1  0  0  0  0 
  2 18  1  0  0  0  0 
  3 19  1  0  0  0  0 
  4 22  1  0  0  0  0 
  4  6  1  0  0  0  0 
  4  3  1  0  0  0  0 
  5  3  1  0  0  0  0 
  5 23  1  0  0  0  0 
  6 26  1  0  0  0  0 
  7  5  1  0  0  0  0 
  7  8  1  0  0  0  0 
  8  6  1  0  0  0  0 
  9 12  1  0  0  0  0 
  9  7  2  0  0  0  0 
 10  9  1  0  0  0  0 
 10 27  1  0  0  0  0 
 11  8  2  0  0  0  0 
 12 11  1  0  0  0  0 
 14  1  1  0  0  0  0 
 15  1  1  0  0  0  0 
 17  2  1  0  0  0  0 
 20  3  1  0  0  0  0 
 21  4  1  0  0  0  0 
 24  5  1  0  0  0  0 
 25  6  1  0  0  0  0 
M  END 
>  <HBA> 
3 
 
>  <HBD> 
1 
 
>  <TPSA> 
29.85 
 
>  <cid> 
28446 
 
>  <dipole> 
2.73 
 
>  <excitation_energy_1> 
4.881 
 
>  <excitation_energy_2> 
5.297 
 
>  <excitation_energy_3> 
5.348 
 
>  <excitation_energy_4> 
5.549 
 
>  <homo_energy> 
-5.532 
 
>  <homo_lumo_gap> 
6.403 
 
>  <logP> 
1.414 
 
>  <lumo_energy> 
0.871 
 
>  <melting_point> 
87.47 
 
>  <molecular_refractivity> 
50.23 
 
>  <oscillator_strength_1> 
0.0239 
 
>  <oscillator_strength_2> 
0.0094 
 
>  <oscillator_strength_3> 
0.0396 
 
>  <oscillator_strength_4> 
0.0011 
 
>  <open_babel_can_smiles> 
CNc1n(C)nc2c1CCCC2 
 
>  <mulliken_charges> 
27 
1   -0.309111 
2   -0.314265 
3   -0.265332 
4   -0.268761 
5   -0.34129 
6   -0.324877 
7   0.007096 
8   0.292681 
9   0.422722 
10   -0.633689 
11   -0.39361 
12   -0.275792 
13   0.153485 
14   0.143954 
15   0.162835 
16   0.181453 
17   0.160997 
18   0.181178 
19   0.137605 
20   0.129762 
21   0.136192 
22   0.131062 
23   0.128883 
24   0.14121 
25   0.151274 
26   0.147756 
27   0.316583 
 
>  <lowdin_charges> 
27 
1   -0.355746 
2   -0.352095 
3   -0.272357 
4   -0.272069 
5   -0.272007 
6   -0.274265 
7   -0.115452 
8   -0.011686 
9   0.0322 
10   -0.330201 
11   -0.181701 
12   0.032161 
13   0.153523 
14   0.136788 
15   0.155103 
16   0.172087 
17   0.152263 
18   0.171787 
19   0.139795 
20   0.144132 
21   0.139004 
22   0.143578 
23   0.142601 
24   0.143352 
25   0.157624 
26   0.149671 
27   0.271909 
 
$$$$ 
 
