PCCDB-ID:  42442 
public computational chemistry database (PCCDB) project, http://pccdb.org 
 
 22 23  0  0  1  0  0  0  0  0999 V2000 
    0.8877   -0.3972    0.4723 C   0  0  0  0  0  0  0  0  0  0  0  0 
    5.0676   -1.2056    4.0410 C   0  0  0  0  0  0  0  0  0  0  0  0 
    4.8352   -2.4017    3.3518 C   0  0  0  0  0  0  0  0  0  0  0  0 
    4.6598   -0.0003    3.4788 C   0  0  0  0  0  0  0  0  0  0  0  0 
    4.1881   -2.3998    2.1165 C   0  0  0  0  0  0  0  0  0  0  0  0 
    3.6135    1.2531    1.5700 C   0  0  0  0  0  0  0  0  0  0  0  0 
    2.4668    2.3805   -0.2545 C   0  0  0  0  0  0  0  0  0  0  0  0 
    2.3067   -0.1304   -0.0360 C   0  0  1  0  0  0  0  0  0  0  0  0 
    4.0033    0.0282    2.2378 C   0  0  0  0  0  0  0  0  0  0  0  0 
    2.8500    1.2069    0.4550 C   0  0  0  0  0  0  0  0  0  0  0  0 
    3.7640   -1.1904    1.5664 C   0  0  0  0  0  0  0  0  0  0  0  0 
    2.1263    3.3168   -0.8593 N   0  0  0  0  0  0  0  0  0  0  0  0 
    3.1855   -1.2144    0.3318 O   0  0  0  0  0  0  0  0  0  0  0  0 
    0.2076    0.3853    0.1186 H   0  0  0  0  0  0  0  0  0  0  0  0 
    0.8635   -0.4066    1.5669 H   0  0  0  0  0  0  0  0  0  0  0  0 
    0.5326   -1.3641    0.1018 H   0  0  0  0  0  0  0  0  0  0  0  0 
    5.5703   -1.2168    5.0031 H   0  0  0  0  0  0  0  0  0  0  0  0 
    5.1571   -3.3461    3.7818 H   0  0  0  0  0  0  0  0  0  0  0  0 
    4.8464    0.9382    3.9954 H   0  0  0  0  0  0  0  0  0  0  0  0 
    4.0035   -3.3185    1.5691 H   0  0  0  0  0  0  0  0  0  0  0  0 
    3.9637    2.2039    1.9627 H   0  0  0  0  0  0  0  0  0  0  0  0 
    2.3132   -0.1483   -1.1295 H   0  0  0  0  0  0  0  0  0  0  0  0 
  1 15  1  0  0  0  0 
  2 17  1  0  0  0  0 
  3 18  1  0  0  0  0 
  3  2  2  0  0  0  0 
  4 19  1  0  0  0  0 
  4  2  1  0  0  0  0 
  5  3  1  0  0  0  0 
  6 21  1  0  0  0  0 
  6  9  1  0  0  0  0 
  7 10  1  0  0  0  0 
  8 22  1  6  0  0  0 
  8 13  1  0  0  0  0 
  8 10  1  0  0  0  0 
  8  1  1  0  0  0  0 
  9  4  2  0  0  0  0 
 10  6  2  0  0  0  0 
 11  5  2  0  0  0  0 
 11  9  1  0  0  0  0 
 12  7  3  0  0  0  0 
 13 11  1  0  0  0  0 
 14  1  1  0  0  0  0 
 16  1  1  0  0  0  0 
 20  5  1  0  0  0  0 
M  END 
>  <HBA> 
2 
 
>  <HBD> 
0 
 
>  <TPSA> 
33.02 
 
>  <cid> 
42442 
 
>  <dipole> 
4.21 
 
>  <excitation_energy_1> 
3.597 
 
>  <excitation_energy_2> 
4.413 
 
>  <excitation_energy_3> 
5.206 
 
>  <excitation_energy_4> 
5.515 
 
>  <homo_energy> 
-6.114 
 
>  <homo_lumo_gap> 
4.166 
 
>  <logP> 
2.374 
 
>  <lumo_energy> 
-1.948 
 
>  <melting_point> 
91.52 
 
>  <molecular_refractivity> 
50.27 
 
>  <oscillator_strength_1> 
0.1357 
 
>  <oscillator_strength_2> 
0.2471 
 
>  <oscillator_strength_3> 
0.2169 
 
>  <oscillator_strength_4> 
0.0091 
 
>  <open_babel_can_smiles> 
N#CC1=Cc2ccccc2O[C@H]1C 
 
>  <mulliken_charges> 
22 
1   -0.451395 
2   -0.135917 
3   -0.129365 
4   -0.199172 
5   -0.180013 
6   -0.148909 
7   0.259111 
8   0.078012 
9   0.123007 
10   0.077142 
11   0.326935 
12   -0.482479 
13   -0.533161 
14   0.168687 
15   0.162298 
16   0.166399 
17   0.136763 
18   0.140967 
19   0.139876 
20   0.146923 
21   0.164372 
22   0.169919 
 
>  <lowdin_charges> 
22 
1   -0.453911 
2   -0.171569 
3   -0.134259 
4   -0.142286 
5   -0.1826 
6   -0.10875 
7   -0.018647 
8   0.025269 
9   -0.051631 
10   -0.053543 
11   0.112693 
12   -0.120928 
13   -0.190969 
14   0.168513 
15   0.159367 
16   0.163332 
17   0.162078 
18   0.164337 
19   0.162676 
20   0.171603 
21   0.177106 
22   0.16212 
 
$$$$ 
 
