PCCDB-ID:  68162 
public computational chemistry database (PCCDB) project, http://pccdb.org 
 
 17 17  0  0  0  0  0  0  0  0999 V2000 
   -1.5108    0.6297    0.2165 C   0  0  0  0  0  0  0  0  0  0  0  0 
   -0.3673    1.4965   -0.3347 C   0  0  0  0  0  0  0  0  0  0  0  0 
   -1.5208   -0.7925   -0.3564 C   0  0  0  0  0  0  0  0  0  0  0  0 
    1.0093    1.2187    0.2935 C   0  0  0  0  0  0  0  0  0  0  0  0 
    0.8380   -1.1462   -0.2104 C   0  0  0  0  0  0  0  0  0  0  0  0 
   -0.4520   -1.6239    0.0766 O   0  0  0  0  0  0  0  0  0  0  0  0 
    1.2646   -0.1352    0.6653 O   0  0  0  0  0  0  0  0  0  0  0  0 
   -2.4693    1.0944   -0.0521 H   0  0  0  0  0  0  0  0  0  0  0  0 
   -1.4715    0.5815    1.3115 H   0  0  0  0  0  0  0  0  0  0  0  0 
   -0.5881    2.5598   -0.1733 H   0  0  0  0  0  0  0  0  0  0  0  0 
   -0.3229    1.3642   -1.4244 H   0  0  0  0  0  0  0  0  0  0  0  0 
   -1.5268   -0.7374   -1.4598 H   0  0  0  0  0  0  0  0  0  0  0  0 
   -2.4298   -1.3177   -0.0464 H   0  0  0  0  0  0  0  0  0  0  0  0 
    1.1088    1.7747    1.2317 H   0  0  0  0  0  0  0  0  0  0  0  0 
    1.8011    1.5766   -0.3836 H   0  0  0  0  0  0  0  0  0  0  0  0 
    0.9072   -0.8182   -1.2630 H   0  0  0  0  0  0  0  0  0  0  0  0 
    1.5045   -1.9955   -0.0438 H   0  0  0  0  0  0  0  0  0  0  0  0 
  1  9  1  0  0  0  0 
  2 10  1  0  0  0  0 
  2  1  1  0  0  0  0 
  2  4  1  0  0  0  0 
  3 13  1  0  0  0  0 
  3  6  1  0  0  0  0 
  3  1  1  0  0  0  0 
  4  7  1  0  0  0  0 
  4 14  1  0  0  0  0 
  5 17  1  0  0  0  0 
  5  6  1  0  0  0  0 
  5  7  1  0  0  0  0 
  8  1  1  0  0  0  0 
 11  2  1  0  0  0  0 
 12  3  1  0  0  0  0 
 15  4  1  0  0  0  0 
 16  5  1  0  0  0  0 
M  END 
>  <HBA> 
2 
 
>  <HBD> 
0 
 
>  <TPSA> 
18.46 
 
>  <cid> 
68162 
 
>  <dipole> 
2.4 
 
>  <excitation_energy_1> 
6.495 
 
>  <excitation_energy_2> 
6.899 
 
>  <excitation_energy_3> 
6.933 
 
>  <excitation_energy_4> 
7.061 
 
>  <homo_energy> 
-6.887 
 
>  <homo_lumo_gap> 
9.081 
 
>  <logP> 
0.771 
 
>  <lumo_energy> 
2.193 
 
>  <melting_point> 
-21.22 
 
>  <molecular_refractivity> 
26.2 
 
>  <oscillator_strength_1> 
0.0061 
 
>  <oscillator_strength_2> 
0.027 
 
>  <oscillator_strength_3> 
0.0025 
 
>  <oscillator_strength_4> 
0.0077 
 
>  <open_babel_can_smiles> 
C1CCCOCO1 
 
>  <mulliken_charges> 
17 
1   -0.270395 
2   -0.309888 
3   -0.032052 
4   -0.019397 
5   0.171277 
6   -0.451155 
7   -0.461914 
8   0.135001 
9   0.157367 
10   0.144821 
11   0.138918 
12   0.117515 
13   0.147131 
14   0.14775 
15   0.127668 
16   0.105837 
17   0.151517 
 
>  <lowdin_charges> 
17 
1   -0.290725 
2   -0.298535 
3   -0.133013 
4   -0.135854 
5   -0.025665 
6   -0.262657 
7   -0.270972 
8   0.150607 
9   0.153016 
10   0.153434 
11   0.1387 
12   0.121475 
13   0.151474 
14   0.149072 
15   0.133391 
16   0.112721 
17   0.153534 
 
$$$$ 
 
