PCCDB-ID:  13601 
public computational chemistry database (PCCDB) project, http://pccdb.org 
 
 20 20  0  0  1  0  0  0  0  0999 V2000 
    0.7599    1.2879   -0.2689 C   0  0  0  0  0  0  0  0  0  0  0  0 
    1.4907    0.0313    0.2295 C   0  0  0  0  0  0  0  0  0  0  0  0 
   -0.7030    1.3042    0.2038 C   0  0  0  0  0  0  0  0  0  0  0  0 
    0.7470   -1.2494   -0.1884 C   0  0  0  0  0  0  0  0  0  0  0  0 
   -1.4593    0.0351   -0.2258 C   0  0  1  0  0  0  0  0  0  0  0  0 
   -0.7270   -1.2400    0.2364 C   0  0  2  0  0  0  0  0  0  0  0  0 
   -2.7927    0.0274    0.2593 O   0  0  0  0  0  0  0  0  0  0  0  0 
   -0.8938   -1.3908    1.6586 O   0  0  0  0  0  0  0  0  0  0  0  0 
    0.7884    1.3075   -1.3683 H   0  0  0  0  0  0  0  0  0  0  0  0 
    1.2791    2.1924    0.0710 H   0  0  0  0  0  0  0  0  0  0  0  0 
    1.5836    0.0750    1.3265 H   0  0  0  0  0  0  0  0  0  0  0  0 
    2.5185    0.0032   -0.1515 H   0  0  0  0  0  0  0  0  0  0  0  0 
   -1.2371    2.1813   -0.1778 H   0  0  0  0  0  0  0  0  0  0  0  0 
   -0.7377    1.3802    1.3017 H   0  0  0  0  0  0  0  0  0  0  0  0 
    1.2339   -2.1410    0.2248 H   0  0  0  0  0  0  0  0  0  0  0  0 
    0.7867   -1.3431   -1.2827 H   0  0  0  0  0  0  0  0  0  0  0  0 
   -1.5259    0.0174   -1.3223 H   0  0  0  0  0  0  0  0  0  0  0  0 
   -1.2457   -2.1092   -0.1811 H   0  0  0  0  0  0  0  0  0  0  0  0 
   -2.7261   -0.3438    1.1580 H   0  0  0  0  0  0  0  0  0  0  0  0 
   -0.2990   -0.7623    2.0977 H   0  0  0  0  0  0  0  0  0  0  0  0 
  1 10  1  0  0  0  0 
  1  3  1  0  0  0  0 
  1  2  1  0  0  0  0 
  2 11  1  0  0  0  0 
  3 14  1  0  0  0  0 
  4 15  1  0  0  0  0 
  4  2  1  0  0  0  0 
  4  6  1  0  0  0  0 
  5 17  1  6  0  0  0 
  5  3  1  0  0  0  0 
  5  6  1  0  0  0  0 
  5  7  1  0  0  0  0 
  6 18  1  6  0  0  0 
  6  8  1  0  0  0  0 
  7 19  1  0  0  0  0 
  8 20  1  0  0  0  0 
  9  1  1  0  0  0  0 
 12  2  1  0  0  0  0 
 13  3  1  0  0  0  0 
 16  4  1  0  0  0  0 
M  END 
>  <HBA> 
2 
 
>  <HBD> 
2 
 
>  <TPSA> 
40.46 
 
>  <cid> 
13601 
 
>  <dipole> 
2.76 
 
>  <excitation_energy_1> 
6.184 
 
>  <excitation_energy_2> 
6.6 
 
>  <excitation_energy_3> 
6.863 
 
>  <excitation_energy_4> 
6.913 
 
>  <homo_energy> 
-6.787 
 
>  <homo_lumo_gap> 
8.188 
 
>  <logP> 
0.282 
 
>  <lumo_energy> 
1.401 
 
>  <melting_point> 
33.25 
 
>  <molecular_refractivity> 
31.17 
 
>  <oscillator_strength_1> 
0.001 
 
>  <oscillator_strength_2> 
0.0019 
 
>  <oscillator_strength_3> 
0.0134 
 
>  <oscillator_strength_4> 
0.0244 
 
>  <open_babel_can_smiles> 
O[C@@H]1CCCC[C@@H]1O 
 
>  <mulliken_charges> 
20 
1   -0.264189 
2   -0.278777 
3   -0.283158 
4   -0.285089 
5   0.143327 
6   0.099927 
7   -0.640442 
8   -0.644138 
9   0.134991 
10   0.138379 
11   0.119638 
12   0.144179 
13   0.150942 
14   0.11295 
15   0.148822 
16   0.139046 
17   0.124573 
18   0.146092 
19   0.396505 
20   0.396422 
 
>  <lowdin_charges> 
20 
1   -0.278611 
2   -0.279834 
3   -0.295601 
4   -0.293953 
5   -0.022489 
6   -0.020993 
7   -0.463492 
8   -0.470133 
9   0.139309 
10   0.148344 
11   0.128828 
12   0.150427 
13   0.156527 
14   0.129825 
15   0.153826 
16   0.147453 
17   0.137295 
18   0.152176 
19   0.339929 
20   0.341166 
 
$$$$ 
 
