PCCDB-ID:  47800 
public computational chemistry database (PCCDB) project, http://pccdb.org 
 
 28 29  0  0  1  0  0  0  0  0999 V2000 
   -0.8863   -0.9868    0.2069 C   0  0  0  0  0  0  0  0  0  0  0  0 
    0.6428   -1.2263    0.0274 C   0  0  0  0  0  0  0  0  0  0  0  0 
   -1.0577    0.5434    0.3858 C   0  0  0  0  0  0  0  0  0  0  0  0 
    1.3039    0.1683    0.1494 C   0  0  0  0  0  0  0  0  0  0  0  0 
    1.2152    2.0550   -2.5362 C   0  0  0  0  0  0  0  0  0  0  0  0 
   -0.9265    2.3874   -2.3263 C   0  0  0  0  0  0  0  0  0  0  0  0 
    0.2009    1.1724   -0.2532 C   0  0  0  0  0  0  0  0  0  0  0  0 
    0.0712    1.3303   -1.7688 C   0  0  2  0  0  0  0  0  0  0  0  0 
    0.1255    2.7992   -3.3831 C   0  0  2  0  0  0  0  0  0  0  0  0 
   -0.0901    2.1592   -4.7443 C   0  0  0  0  0  0  0  0  0  0  0  0 
   -1.0115    1.4411   -5.0437 O   0  0  0  0  0  0  0  0  0  0  0  0 
    0.8834    2.4286   -5.6622 O   0  0  0  0  0  0  0  0  0  0  0  0 
   -1.2908   -1.5347    1.0643 H   0  0  0  0  0  0  0  0  0  0  0  0 
   -1.4360   -1.3384   -0.6730 H   0  0  0  0  0  0  0  0  0  0  0  0 
    0.8483   -1.6641   -0.9559 H   0  0  0  0  0  0  0  0  0  0  0  0 
    1.0430   -1.9266    0.7679 H   0  0  0  0  0  0  0  0  0  0  0  0 
   -1.0786    0.7958    1.4536 H   0  0  0  0  0  0  0  0  0  0  0  0 
   -1.9911    0.9192   -0.0485 H   0  0  0  0  0  0  0  0  0  0  0  0 
    2.2126    0.2622   -0.4569 H   0  0  0  0  0  0  0  0  0  0  0  0 
    1.5948    0.3558    1.1909 H   0  0  0  0  0  0  0  0  0  0  0  0 
    1.9408    1.4397   -3.0793 H   0  0  0  0  0  0  0  0  0  0  0  0 
    1.7607    2.7533   -1.8917 H   0  0  0  0  0  0  0  0  0  0  0  0 
   -1.1120    3.1940   -1.6086 H   0  0  0  0  0  0  0  0  0  0  0  0 
   -1.8764    2.0258   -2.7258 H   0  0  0  0  0  0  0  0  0  0  0  0 
    0.4013    2.1667    0.1720 H   0  0  0  0  0  0  0  0  0  0  0  0 
   -0.1294    0.3603   -2.2395 H   0  0  0  0  0  0  0  0  0  0  0  0 
    0.2902    3.8760   -3.5194 H   0  0  0  0  0  0  0  0  0  0  0  0 
    1.5558    3.0077   -5.2658 H   0  0  0  0  0  0  0  0  0  0  0  0 
  1  3  1  0  0  0  0 
  1 13  1  0  0  0  0 
  2  4  1  0  0  0  0 
  2  1  1  0  0  0  0 
  2 16  1  0  0  0  0 
  3 17  1  0  0  0  0 
  4 20  1  0  0  0  0 
  5 22  1  0  0  0  0 
  5  8  1  0  0  0  0 
  6  8  1  0  0  0  0 
  6 23  1  0  0  0  0 
  7  4  1  0  0  0  0 
  7 25  1  0  0  0  0 
  7  3  1  0  0  0  0 
  8 26  1  6  0  0  0 
  8  7  1  0  0  0  0 
  9 27  1  6  0  0  0 
  9  5  1  0  0  0  0 
  9  6  1  0  0  0  0 
 10  9  1  0  0  0  0 
 11 10  2  0  0  0  0 
 12 28  1  0  0  0  0 
 12 10  1  0  0  0  0 
 14  1  1  0  0  0  0 
 15  2  1  0  0  0  0 
 18  3  1  0  0  0  0 
 19  4  1  0  0  0  0 
 21  5  1  0  0  0  0 
 24  6  1  0  0  0  0 
M  END 
>  <HBA> 
2 
 
>  <HBD> 
1 
 
>  <TPSA> 
37.3 
 
>  <cid> 
47800 
 
>  <dipole> 
4.14 
 
>  <excitation_energy_1> 
5.612 
 
>  <excitation_energy_2> 
6.375 
 
>  <excitation_energy_3> 
6.921 
 
>  <excitation_energy_4> 
7.007 
 
>  <homo_energy> 
-7.257 
 
>  <homo_lumo_gap> 
7.513 
 
>  <logP> 
2.287 
 
>  <lumo_energy> 
0.256 
 
>  <melting_point> 
93.1 
 
>  <molecular_refractivity> 
47.73 
 
>  <oscillator_strength_1> 
0.0018 
 
>  <oscillator_strength_2> 
0.0093 
 
>  <oscillator_strength_3> 
0.0044 
 
>  <oscillator_strength_4> 
0.0098 
 
>  <open_babel_can_smiles> 
OC(=O)[C@@H]1C[C@H](C1)C1CCCC1 
 
>  <mulliken_charges> 
28 
1   -0.274552 
2   -0.2746 
3   -0.273692 
4   -0.272456 
5   -0.297868 
6   -0.275206 
7   -0.102631 
8   -0.076154 
9   -0.252652 
10   0.601421 
11   -0.440102 
12   -0.570596 
13   0.137367 
14   0.143702 
15   0.140481 
16   0.137074 
17   0.133083 
18   0.139964 
19   0.132884 
20   0.133322 
21   0.149322 
22   0.144244 
23   0.1343 
24   0.172665 
25   0.107665 
26   0.146511 
27   0.147303 
28   0.409203 
 
>  <lowdin_charges> 
28 
1   -0.289878 
2   -0.288861 
3   -0.282283 
4   -0.282587 
5   -0.290537 
6   -0.282504 
7   -0.132725 
8   -0.127506 
9   -0.176805 
10   0.192997 
11   -0.239699 
12   -0.361439 
13   0.147212 
14   0.146727 
15   0.143646 
16   0.147441 
17   0.141059 
18   0.147059 
19   0.143451 
20   0.141488 
21   0.147889 
22   0.151289 
23   0.148468 
24   0.162997 
25   0.132359 
26   0.151513 
27   0.149873 
28   0.359355 
 
$$$$ 
 
