PCCDB-ID:  69649 
public computational chemistry database (PCCDB) project, http://pccdb.org 
 
 24 23  0  0  0  0  0  0  0  0999 V2000 
    4.7523    0.2723    2.0383 C   0  0  0  0  0  0  0  0  0  0  0  0 
    4.2937   -3.6893   -1.7674 C   0  0  0  0  0  0  0  0  0  0  0  0 
    4.2926   -1.9396   -3.5755 C   0  0  0  0  0  0  0  0  0  0  0  0 
    6.3622   -2.3254   -2.1993 C   0  0  0  0  0  0  0  0  0  0  0  0 
    4.3424    0.5288    0.5779 C   0  0  0  0  0  0  0  0  0  0  0  0 
    4.9647   -0.4490   -0.3840 C   0  0  0  0  0  0  0  0  0  0  0  0 
    4.2813   -1.2748   -1.1812 C   0  0  0  0  0  0  0  0  0  0  0  0 
    4.8255   -2.2931   -2.1673 C   0  0  0  0  0  0  0  0  0  0  0  0 
    4.3080    1.0163    2.7095 H   0  0  0  0  0  0  0  0  0  0  0  0 
    5.8415    0.3227    2.1578 H   0  0  0  0  0  0  0  0  0  0  0  0 
    4.4279   -0.7212    2.3675 H   0  0  0  0  0  0  0  0  0  0  0  0 
    4.6126   -4.4490   -2.4920 H   0  0  0  0  0  0  0  0  0  0  0  0 
    3.1976   -3.7005   -1.7310 H   0  0  0  0  0  0  0  0  0  0  0  0 
    4.6649   -3.9823   -0.7788 H   0  0  0  0  0  0  0  0  0  0  0  0 
    4.6090   -2.6900   -4.3108 H   0  0  0  0  0  0  0  0  0  0  0  0 
    4.6651   -0.9622   -3.9027 H   0  0  0  0  0  0  0  0  0  0  0  0 
    3.1965   -1.9013   -3.5867 H   0  0  0  0  0  0  0  0  0  0  0  0 
    6.7118   -3.0724   -2.9217 H   0  0  0  0  0  0  0  0  0  0  0  0 
    6.7784   -2.5884   -1.2200 H   0  0  0  0  0  0  0  0  0  0  0  0 
    6.7778   -1.3553   -2.4954 H   0  0  0  0  0  0  0  0  0  0  0  0 
    4.6426    1.5522    0.3054 H   0  0  0  0  0  0  0  0  0  0  0  0 
    3.2493    0.4913    0.4874 H   0  0  0  0  0  0  0  0  0  0  0  0 
    6.0552   -0.4662   -0.3931 H   0  0  0  0  0  0  0  0  0  0  0  0 
    3.1889   -1.2350   -1.1438 H   0  0  0  0  0  0  0  0  0  0  0  0 
  1 10  1  0  0  0  0 
  1 11  1  0  0  0  0 
  1  9  1  0  0  0  0 
  2 13  1  0  0  0  0 
  2 14  1  0  0  0  0 
  3  8  1  0  0  0  0 
  4  8  1  0  0  0  0 
  4 19  1  0  0  0  0 
  5  1  1  0  0  0  0 
  6  5  1  0  0  0  0 
  7 24  1  0  0  0  0 
  7  6  2  0  0  0  0 
  8  2  1  0  0  0  0 
  8  7  1  0  0  0  0 
 12  2  1  0  0  0  0 
 15  3  1  0  0  0  0 
 16  3  1  0  0  0  0 
 17  3  1  0  0  0  0 
 18  4  1  0  0  0  0 
 20  4  1  0  0  0  0 
 21  5  1  0  0  0  0 
 22  5  1  0  0  0  0 
 23  6  1  0  0  0  0 
M  END 
>  <HBA> 
0 
 
>  <HBD> 
0 
 
>  <TPSA> 
0.0 
 
>  <cid> 
69649 
 
>  <dipole> 
0.02 
 
>  <excitation_energy_1> 
6.034 
 
>  <excitation_energy_2> 
6.354 
 
>  <excitation_energy_3> 
6.451 
 
>  <excitation_energy_4> 
6.728 
 
>  <homo_energy> 
-6.408 
 
>  <homo_lumo_gap> 
7.287 
 
>  <logP> 
2.999 
 
>  <lumo_energy> 
0.879 
 
>  <melting_point> 
0.59 
 
>  <molecular_refractivity> 
39.84 
 
>  <oscillator_strength_1> 
0.0407 
 
>  <oscillator_strength_2> 
0.0583 
 
>  <oscillator_strength_3> 
0.0535 
 
>  <oscillator_strength_4> 
0.1943 
 
>  <open_babel_can_smiles> 
CC/C=C/C(C)(C)C 
 
>  <mulliken_charges> 
24 
1   -0.438981 
2   -0.439535 
3   -0.43982 
4   -0.452939 
5   -0.295999 
6   -0.094026 
7   -0.10352 
8   0.0685 
9   0.141852 
10   0.142057 
11   0.148669 
12   0.137179 
13   0.137487 
14   0.145123 
15   0.137137 
16   0.145392 
17   0.137565 
18   0.13738 
19   0.14309 
20   0.143086 
21   0.13964 
22   0.136935 
23   0.116976 
24   0.10675 
 
>  <lowdin_charges> 
24 
1   -0.442095 
2   -0.438103 
3   -0.438284 
4   -0.443778 
5   -0.264438 
6   -0.172897 
7   -0.165084 
8   0.017272 
9   0.14999 
10   0.144802 
11   0.14939 
12   0.146924 
13   0.144488 
14   0.149808 
15   0.146893 
16   0.150075 
17   0.144527 
18   0.14946 
19   0.14877 
20   0.148897 
21   0.14516 
22   0.14239 
23   0.145464 
24   0.140371 
 
$$$$ 
 
