PCCDB-ID:  7261 
public computational chemistry database (PCCDB) project, http://pccdb.org 
 
 19 19  0  0  0  0  0  0  0  0999 V2000 
    1.0163   -0.0641    0.1519 C   0  0  0  0  0  0  0  0  0  0  0  0 
    3.2503   -1.2511   -0.0433 C   0  0  0  0  0  0  0  0  0  0  0  0 
    4.6397   -1.2749   -0.1408 C   0  0  0  0  0  0  0  0  0  0  0  0 
    4.6383    1.1386   -0.1049 C   0  0  0  0  0  0  0  0  0  0  0  0 
    2.5199   -0.0635    0.0282 C   0  0  0  0  0  0  0  0  0  0  0  0 
    5.3509   -0.0660   -0.1666 C   0  0  0  0  0  0  0  0  0  0  0  0 
    3.2415    1.1516   -0.0036 C   0  0  0  0  0  0  0  0  0  0  0  0 
    6.7533   -0.0599   -0.2006 N   0  0  0  0  0  0  0  0  0  0  0  0 
    2.5619    2.3716    0.1236 N   0  0  0  0  0  0  0  0  0  0  0  0 
    0.6304   -1.0868    0.2051 H   0  0  0  0  0  0  0  0  0  0  0  0 
    0.5218    0.4185   -0.7062 H   0  0  0  0  0  0  0  0  0  0  0  0 
    0.6800    0.4681    1.0522 H   0  0  0  0  0  0  0  0  0  0  0  0 
    2.7090   -2.1950   -0.0223 H   0  0  0  0  0  0  0  0  0  0  0  0 
    5.1722   -2.2217   -0.1855 H   0  0  0  0  0  0  0  0  0  0  0  0 
    5.1806    2.0832   -0.1178 H   0  0  0  0  0  0  0  0  0  0  0  0 
    7.1595   -0.8879   -0.6199 H   0  0  0  0  0  0  0  0  0  0  0  0 
    7.1577    0.7790   -0.5995 H   0  0  0  0  0  0  0  0  0  0  0  0 
    3.0852    3.1755   -0.2022 H   0  0  0  0  0  0  0  0  0  0  0  0 
    1.6220    2.3753   -0.2529 H   0  0  0  0  0  0  0  0  0  0  0  0 
  1 10  1  0  0  0  0 
  1 12  1  0  0  0  0 
  2 13  1  0  0  0  0 
  2  5  2  0  0  0  0 
  3  2  1  0  0  0  0 
  4  7  2  0  0  0  0 
  5  1  1  0  0  0  0 
  6  3  2  0  0  0  0 
  6  4  1  0  0  0  0 
  7  5  1  0  0  0  0 
  7  9  1  0  0  0  0 
  8  6  1  0  0  0  0 
 11  1  1  0  0  0  0 
 14  3  1  0  0  0  0 
 15  4  1  0  0  0  0 
 16  8  1  0  0  0  0 
 17  8  1  0  0  0  0 
 18  9  1  0  0  0  0 
 19  9  1  0  0  0  0 
M  END 
>  <HBA> 
2 
 
>  <HBD> 
2 
 
>  <TPSA> 
52.04 
 
>  <cid> 
7261 
 
>  <dipole> 
2.54 
 
>  <excitation_energy_1> 
4.367 
 
>  <excitation_energy_2> 
4.582 
 
>  <excitation_energy_3> 
4.617 
 
>  <excitation_energy_4> 
4.975 
 
>  <homo_energy> 
-4.906 
 
>  <homo_lumo_gap> 
5.562 
 
>  <logP> 
2.322 
 
>  <lumo_energy> 
0.656 
 
>  <melting_point> 
107.47 
 
>  <molecular_refractivity> 
40.22 
 
>  <oscillator_strength_1> 
0.0112 
 
>  <oscillator_strength_2> 
0.0388 
 
>  <oscillator_strength_3> 
0.0087 
 
>  <oscillator_strength_4> 
0.0024 
 
>  <open_babel_can_smiles> 
Nc1ccc(c(c1)N)C 
 
>  <mulliken_charges> 
19 
1   -0.551871 
2   -0.2069 
3   -0.178627 
4   -0.22564 
5   0.161843 
6   0.304131 
7   0.240403 
8   -0.789309 
9   -0.792739 
10   0.155219 
11   0.139746 
12   0.163482 
13   0.113004 
14   0.105636 
15   0.098608 
16   0.315459 
17   0.313264 
18   0.314504 
19   0.319788 
 
>  <lowdin_charges> 
19 
1   -0.444729 
2   -0.14991 
3   -0.230393 
4   -0.246612 
5   -0.063263 
6   0.066758 
7   0.059609 
8   -0.495598 
9   -0.491652 
10   0.157723 
11   0.144704 
12   0.157356 
13   0.151085 
14   0.149271 
15   0.144891 
16   0.273197 
17   0.271735 
18   0.272336 
19   0.27349 
 
$$$$ 
 
