PCCDB-ID:  10359 
public computational chemistry database (PCCDB) project, http://pccdb.org 
 
 21 21  0  0  0  0  0  0  0  0999 V2000 
   -1.3332    0.0215   -0.2935 C   0  0  0  0  0  0  0  0  0  0  0  0 
   -0.7574    1.2913   -0.3010 C   0  0  0  0  0  0  0  0  0  0  0  0 
    0.8436   -0.9262    0.1746 C   0  0  0  0  0  0  0  0  0  0  0  0 
   -2.5220   -2.7770   -0.4156 C   0  0  0  0  0  0  0  0  0  0  0  0 
   -0.5344   -1.1042   -0.0558 C   0  0  0  0  0  0  0  0  0  0  0  0 
    0.6091    1.4636   -0.0761 C   0  0  0  0  0  0  0  0  0  0  0  0 
    1.4212    0.3328    0.1675 C   0  0  0  0  0  0  0  0  0  0  0  0 
   -1.0541   -2.4981   -0.0610 C   0  0  0  0  0  0  0  0  0  0  0  0 
   -3.4552   -2.1087    0.5025 N   0  0  0  0  0  0  0  0  0  0  0  0 
    1.2217    2.6783   -0.0724 O   0  0  0  0  0  0  0  0  0  0  0  0 
    2.7513    0.5610    0.3802 O   0  0  0  0  0  0  0  0  0  0  0  0 
   -0.3188   -3.4486    0.1801 O   0  0  0  0  0  0  0  0  0  0  0  0 
   -2.4021   -0.0905   -0.4272 H   0  0  0  0  0  0  0  0  0  0  0  0 
   -1.3771    2.1692   -0.4769 H   0  0  0  0  0  0  0  0  0  0  0  0 
    1.4508   -1.8103    0.3535 H   0  0  0  0  0  0  0  0  0  0  0  0 
   -2.6126   -3.8725   -0.4517 H   0  0  0  0  0  0  0  0  0  0  0  0 
   -2.7143   -2.3916   -1.4260 H   0  0  0  0  0  0  0  0  0  0  0  0 
   -3.3364   -2.4868    1.4415 H   0  0  0  0  0  0  0  0  0  0  0  0 
   -4.4110   -2.3304    0.2281 H   0  0  0  0  0  0  0  0  0  0  0  0 
    0.5567    3.3610   -0.2540 H   0  0  0  0  0  0  0  0  0  0  0  0 
    3.1835   -0.2924    0.5410 H   0  0  0  0  0  0  0  0  0  0  0  0 
  1  5  1  0  0  0  0 
  2  1  2  0  0  0  0 
  2  6  1  0  0  0  0 
  3 15  1  0  0  0  0 
  4  8  1  0  0  0  0 
  4  9  1  0  0  0  0 
  5  3  2  0  0  0  0 
  6 10  1  0  0  0  0 
  6  7  2  0  0  0  0 
  7  3  1  0  0  0  0 
  7 11  1  0  0  0  0 
  8  5  1  0  0  0  0 
  8 12  2  0  0  0  0 
  9 18  1  0  0  0  0 
 11 21  1  0  0  0  0 
 13  1  1  0  0  0  0 
 14  2  1  0  0  0  0 
 16  4  1  0  0  0  0 
 17  4  1  0  0  0  0 
 19  9  1  0  0  0  0 
 20 10  1  0  0  0  0 
M  END 
>  <HBA> 
4 
 
>  <HBD> 
3 
 
>  <TPSA> 
83.55 
 
>  <cid> 
10359 
 
>  <dipole> 
2.94 
 
>  <excitation_energy_1> 
3.77 
 
>  <excitation_energy_2> 
4.032 
 
>  <excitation_energy_3> 
4.52 
 
>  <excitation_energy_4> 
4.665 
 
>  <homo_energy> 
-5.78 
 
>  <homo_lumo_gap> 
4.514 
 
>  <logP> 
0.94 
 
>  <lumo_energy> 
-1.265 
 
>  <melting_point> 
174.41 
 
>  <molecular_refractivity> 
43.39 
 
>  <oscillator_strength_1> 
0.0006 
 
>  <oscillator_strength_2> 
0.1285 
 
>  <oscillator_strength_3> 
0.0132 
 
>  <oscillator_strength_4> 
0.1298 
 
>  <open_babel_can_smiles> 
NCC(=O)c1ccc(c(c1)O)O 
 
>  <mulliken_charges> 
21 
1   -0.174711 
2   -0.207683 
3   -0.245995 
4   -0.233295 
5   0.063332 
6   0.333678 
7   0.331442 
8   0.39308 
9   -0.719012 
10   -0.621545 
11   -0.635839 
12   -0.469092 
13   0.166941 
14   0.122774 
15   0.151365 
16   0.150019 
17   0.157281 
18   0.308491 
19   0.306238 
20   0.411239 
21   0.411292 
 
>  <lowdin_charges> 
21 
1   -0.146354 
2   -0.212347 
3   -0.184256 
4   -0.230697 
5   -0.060941 
6   0.093427 
7   0.076758 
8   0.152943 
9   -0.550556 
10   -0.356264 
11   -0.37016 
12   -0.256459 
13   0.177015 
14   0.156323 
15   0.173245 
16   0.140721 
17   0.155635 
18   0.2601 
19   0.259114 
20   0.362016 
21   0.360737 
 
$$$$ 
 
