PCCDB-ID:  10727 
public computational chemistry database (PCCDB) project, http://pccdb.org 
 
 25 25  0  0  0  0  0  0  0  0999 V2000 
    2.6625   -0.5063   -1.3935 C   0  0  0  0  0  0  0  0  0  0  0  0 
    2.4615   -2.7985    2.6241 C   0  0  0  0  0  0  0  0  0  0  0  0 
    2.8379    0.0097    0.0360 C   0  0  0  0  0  0  0  0  0  0  0  0 
    7.2462   -2.0467    1.5097 C   0  0  0  0  0  0  0  0  0  0  0  0 
    6.7255   -0.8854    2.0855 C   0  0  0  0  0  0  0  0  0  0  0  0 
    6.4129   -2.8862    0.7689 C   0  0  0  0  0  0  0  0  0  0  0  0 
    5.3767   -0.5682    1.9267 C   0  0  0  0  0  0  0  0  0  0  0  0 
    5.0649   -2.5655    0.5993 C   0  0  0  0  0  0  0  0  0  0  0  0 
    2.1102   -1.7303    1.5981 C   0  0  0  0  0  0  0  0  0  0  0  0 
    4.5364   -1.4081    1.1841 C   0  0  0  0  0  0  0  0  0  0  0  0 
    3.1602   -1.0566    1.0010 N   0  0  0  0  0  0  0  0  0  0  0  0 
    0.9456   -1.4613    1.3253 O   0  0  0  0  0  0  0  0  0  0  0  0 
    2.4305    0.3244   -2.0704 H   0  0  0  0  0  0  0  0  0  0  0  0 
    1.8376   -1.2236   -1.4359 H   0  0  0  0  0  0  0  0  0  0  0  0 
    3.5744   -0.9941   -1.7560 H   0  0  0  0  0  0  0  0  0  0  0  0 
    3.2350   -2.4653    3.3226 H   0  0  0  0  0  0  0  0  0  0  0  0 
    2.8316   -3.7068    2.1362 H   0  0  0  0  0  0  0  0  0  0  0  0 
    1.5479   -3.0429    3.1679 H   0  0  0  0  0  0  0  0  0  0  0  0 
    1.9154    0.4827    0.3790 H   0  0  0  0  0  0  0  0  0  0  0  0 
    3.6448    0.7483    0.0820 H   0  0  0  0  0  0  0  0  0  0  0  0 
    8.2963   -2.2945    1.6367 H   0  0  0  0  0  0  0  0  0  0  0  0 
    7.3684   -0.2286    2.6651 H   0  0  0  0  0  0  0  0  0  0  0  0 
    6.8125   -3.7882    0.3136 H   0  0  0  0  0  0  0  0  0  0  0  0 
    4.9620    0.3275    2.3808 H   0  0  0  0  0  0  0  0  0  0  0  0 
    4.4149   -3.2063    0.0106 H   0  0  0  0  0  0  0  0  0  0  0  0 
  1  3  1  0  0  0  0 
  2 18  1  0  0  0  0 
  2 16  1  0  0  0  0 
  3 20  1  0  0  0  0 
  3 19  1  0  0  0  0 
  3 11  1  0  0  0  0 
  4 21  1  0  0  0  0 
  4  5  2  0  0  0  0 
  5 22  1  0  0  0  0 
  6  4  1  0  0  0  0 
  7  5  1  0  0  0  0 
  7 24  1  0  0  0  0 
  8  6  2  0  0  0  0 
  8 10  1  0  0  0  0 
  9  2  1  0  0  0  0 
 10  7  2  0  0  0  0 
 11 10  1  0  0  0  0 
 11  9  1  0  0  0  0 
 12  9  2  0  0  0  0 
 13  1  1  0  0  0  0 
 14  1  1  0  0  0  0 
 15  1  1  0  0  0  0 
 17  2  1  0  0  0  0 
 23  6  1  0  0  0  0 
 25  8  1  0  0  0  0 
M  END 
>  <HBA> 
2 
 
>  <HBD> 
0 
 
>  <TPSA> 
20.31 
 
>  <cid> 
10727 
 
>  <dipole> 
3.79 
 
>  <excitation_energy_1> 
4.921 
 
>  <excitation_energy_2> 
5.033 
 
>  <excitation_energy_3> 
5.174 
 
>  <excitation_energy_4> 
5.338 
 
>  <homo_energy> 
-6.368 
 
>  <homo_lumo_gap> 
5.905 
 
>  <logP> 
2.059 
 
>  <lumo_energy> 
-0.463 
 
>  <melting_point> 
32.72 
 
>  <molecular_refractivity> 
50.46 
 
>  <oscillator_strength_1> 
0.0354 
 
>  <oscillator_strength_2> 
0.0028 
 
>  <oscillator_strength_3> 
0.0363 
 
>  <oscillator_strength_4> 
0.0003 
 
>  <open_babel_can_smiles> 
CCN(c1ccccc1)C(=O)C 
 
>  <mulliken_charges> 
25 
1   -0.446885 
2   -0.538261 
3   -0.13671 
4   -0.120624 
5   -0.141378 
6   -0.142607 
7   -0.13855 
8   -0.137471 
9   0.568622 
10   0.239498 
11   -0.498345 
12   -0.50787 
13   0.145309 
14   0.172136 
15   0.145168 
16   0.169252 
17   0.171211 
18   0.181941 
19   0.179815 
20   0.141584 
21   0.135858 
22   0.138067 
23   0.138168 
24   0.141075 
25   0.140996 
 
>  <lowdin_charges> 
25 
1   -0.4547 
2   -0.475162 
3   -0.190805 
4   -0.152552 
5   -0.153309 
6   -0.152106 
7   -0.163995 
8   -0.167863 
9   0.162727 
10   0.041977 
11   -0.100412 
12   -0.31065 
13   0.154488 
14   0.16333 
15   0.149379 
16   0.169256 
17   0.170974 
18   0.17628 
19   0.168464 
20   0.147429 
21   0.159876 
22   0.163306 
23   0.162193 
24   0.165661 
25   0.166213 
 
$$$$ 
 
