PCCDB-ID:  28968 
public computational chemistry database (PCCDB) project, http://pccdb.org 
 
 30 31  0  0  0  0  0  0  0  0999 V2000 
    3.4545    1.0778   -1.7261 C   0  0  0  0  0  0  0  0  0  0  0  0 
    2.2835    0.7514   -0.7804 C   0  0  0  0  0  0  0  0  0  0  0  0 
    3.9568   -0.6245    8.0184 C   0  0  0  0  0  0  0  0  0  0  0  0 
    2.9797   -0.2250    7.1056 C   0  0  0  0  0  0  0  0  0  0  0  0 
    4.9864   -1.4776    7.6094 C   0  0  0  0  0  0  0  0  0  0  0  0 
    3.0399   -0.6598    5.7807 C   0  0  0  0  0  0  0  0  0  0  0  0 
    5.0361   -1.9278    6.2937 C   0  0  0  0  0  0  0  0  0  0  0  0 
    2.7887   -1.3673    0.5234 C   0  0  0  0  0  0  0  0  0  0  0  0 
    3.1399    0.7514    1.6069 C   0  0  0  0  0  0  0  0  0  0  0  0 
    3.2429   -2.0274    1.6589 C   0  0  0  0  0  0  0  0  0  0  0  0 
    3.5789    0.0960    2.7561 C   0  0  0  0  0  0  0  0  0  0  0  0 
    2.7303    0.0344    0.4752 C   0  0  0  0  0  0  0  0  0  0  0  0 
    4.0738   -1.5105    5.3603 C   0  0  0  0  0  0  0  0  0  0  0  0 
    3.6299   -1.3056    2.7996 C   0  0  0  0  0  0  0  0  0  0  0  0 
    4.1556   -2.0768    3.9718 C   0  0  0  0  0  0  0  0  0  0  0  0 
    4.6591   -3.1820    3.7965 O   0  0  0  0  0  0  0  0  0  0  0  0 
    3.0967    1.5917   -2.6255 H   0  0  0  0  0  0  0  0  0  0  0  0 
    3.9730    0.1649   -2.0391 H   0  0  0  0  0  0  0  0  0  0  0  0 
    4.1887    1.7251   -1.2337 H   0  0  0  0  0  0  0  0  0  0  0  0 
    1.5515    0.1325   -1.3142 H   0  0  0  0  0  0  0  0  0  0  0  0 
    1.7695    1.6819   -0.5087 H   0  0  0  0  0  0  0  0  0  0  0  0 
    3.9133   -0.2785    9.0478 H   0  0  0  0  0  0  0  0  0  0  0  0 
    2.1671    0.4224    7.4243 H   0  0  0  0  0  0  0  0  0  0  0  0 
    5.7449   -1.7953    8.3198 H   0  0  0  0  0  0  0  0  0  0  0  0 
    2.2677   -0.3580    5.0803 H   0  0  0  0  0  0  0  0  0  0  0  0 
    5.8139   -2.6093    5.9645 H   0  0  0  0  0  0  0  0  0  0  0  0 
    2.4748   -1.9437   -0.3441 H   0  0  0  0  0  0  0  0  0  0  0  0 
    3.1146    1.8389    1.5885 H   0  0  0  0  0  0  0  0  0  0  0  0 
    3.3046   -3.1106    1.6871 H   0  0  0  0  0  0  0  0  0  0  0  0 
    3.9035    0.6783    3.6126 H   0  0  0  0  0  0  0  0  0  0  0  0 
  1 19  1  0  0  0  0 
  1  2  1  0  0  0  0 
  2 21  1  0  0  0  0 
  2 12  1  0  0  0  0 
  3 22  1  0  0  0  0 
  4 23  1  0  0  0  0 
  4  3  2  0  0  0  0 
  5  3  1  0  0  0  0 
  5 24  1  0  0  0  0 
  6  4  1  0  0  0  0 
  7  5  2  0  0  0  0 
  8 10  1  0  0  0  0 
  9 11  2  0  0  0  0 
 10 29  1  0  0  0  0 
 10 14  2  0  0  0  0 
 11 14  1  0  0  0  0 
 11 30  1  0  0  0  0 
 12  8  2  0  0  0  0 
 12  9  1  0  0  0  0 
 13  6  2  0  0  0  0 
 13  7  1  0  0  0  0 
 14 15  1  0  0  0  0 
 15 13  1  0  0  0  0 
 16 15  2  0  0  0  0 
 17  1  1  0  0  0  0 
 18  1  1  0  0  0  0 
 20  2  1  0  0  0  0 
 25  6  1  0  0  0  0 
 26  7  1  0  0  0  0 
 27  8  1  0  0  0  0 
 28  9  1  0  0  0  0 
M  END 
>  <HBA> 
1 
 
>  <HBD> 
0 
 
>  <TPSA> 
17.07 
 
>  <cid> 
28968 
 
>  <dipole> 
3.19 
 
>  <excitation_energy_1> 
3.578 
 
>  <excitation_energy_2> 
4.488 
 
>  <excitation_energy_3> 
4.506 
 
>  <excitation_energy_4> 
4.586 
 
>  <homo_energy> 
-6.506 
 
>  <homo_lumo_gap> 
4.879 
 
>  <logP> 
3.48 
 
>  <lumo_energy> 
-1.627 
 
>  <melting_point> 
67.93 
 
>  <molecular_refractivity> 
66.09 
 
>  <oscillator_strength_1> 
0.0016 
 
>  <oscillator_strength_2> 
0.1506 
 
>  <oscillator_strength_3> 
0.2125 
 
>  <oscillator_strength_4> 
0.0092 
 
>  <open_babel_can_smiles> 
CCc1ccc(cc1)C(=O)c1ccccc1 
 
>  <mulliken_charges> 
30 
1   -0.435281 
2   -0.342358 
3   -0.119433 
4   -0.137054 
5   -0.135413 
6   -0.176405 
7   -0.150721 
8   -0.187541 
9   -0.190301 
10   -0.150347 
11   -0.176835 
12   0.18455 
13   0.072773 
14   0.070401 
15   0.318512 
16   -0.467543 
17   0.147301 
18   0.153529 
19   0.151672 
20   0.146996 
21   0.146071 
22   0.135897 
23   0.135187 
24   0.137121 
25   0.148277 
26   0.158486 
27   0.129435 
28   0.127463 
29   0.158169 
30   0.147394 
 
>  <lowdin_charges> 
30 
1   -0.441538 
2   -0.273255 
3   -0.141507 
4   -0.158966 
5   -0.15677 
6   -0.153698 
7   -0.130673 
8   -0.16746 
9   -0.16778 
10   -0.125724 
11   -0.150985 
12   0.014578 
13   -0.041397 
14   -0.048282 
15   0.153131 
16   -0.248632 
17   0.151934 
18   0.153274 
19   0.15304 
20   0.152444 
21   0.150905 
22   0.159484 
23   0.160913 
24   0.162279 
25   0.167438 
26   0.174889 
27   0.158432 
28   0.154587 
29   0.172216 
30   0.167124 
 
$$$$ 
 
