PCCDB-ID:  22555 
public computational chemistry database (PCCDB) project, http://pccdb.org 
 
 31 31  0  0  0  0  0  0  0  0999 V2000 
    1.3117   -2.5134    0.7745 C   0  0  0  0  0  0  0  0  0  0  0  0 
    6.7412   -1.9650    3.8597 C   0  0  0  0  0  0  0  0  0  0  0  0 
    2.8122   -2.3382    0.9247 C   0  0  0  0  0  0  0  0  0  0  0  0 
    6.3604   -1.3104    2.5430 C   0  0  0  0  0  0  0  0  0  0  0  0 
    2.5352    3.4528    4.0791 C   0  0  0  0  0  0  0  0  0  0  0  0 
    2.4113    2.0683    4.2119 C   0  0  0  0  0  0  0  0  0  0  0  0 
    3.3108    3.9902    3.0469 C   0  0  0  0  0  0  0  0  0  0  0  0 
    3.0554    1.2155    3.3165 C   0  0  0  0  0  0  0  0  0  0  0  0 
    3.9592    3.1431    2.1547 C   0  0  0  0  0  0  0  0  0  0  0  0 
    3.8357    1.7489    2.2775 C   0  0  0  0  0  0  0  0  0  0  0  0 
    4.5669    0.9037    1.2896 C   0  0  0  0  0  0  0  0  0  0  0  0 
    4.4167   -0.6341    1.3096 C   0  0  0  0  0  0  0  0  0  0  0  0 
    5.3347    1.3866    0.4693 O   0  0  0  0  0  0  0  0  0  0  0  0 
    3.0693   -0.9563    1.2075 O   0  0  0  0  0  0  0  0  0  0  0  0 
    4.9375   -1.1813    2.5112 O   0  0  0  0  0  0  0  0  0  0  0  0 
    1.0738   -3.5585    0.5478 H   0  0  0  0  0  0  0  0  0  0  0  0 
    0.9282   -1.8851   -0.0356 H   0  0  0  0  0  0  0  0  0  0  0  0 
    0.7966   -2.2340    1.6993 H   0  0  0  0  0  0  0  0  0  0  0  0 
    7.8276   -2.0916    3.9200 H   0  0  0  0  0  0  0  0  0  0  0  0 
    6.2704   -2.9492    3.9516 H   0  0  0  0  0  0  0  0  0  0  0  0 
    6.4163   -1.3481    4.7035 H   0  0  0  0  0  0  0  0  0  0  0  0 
    3.3368   -2.6195   -0.0020 H   0  0  0  0  0  0  0  0  0  0  0  0 
    3.2059   -2.9599    1.7376 H   0  0  0  0  0  0  0  0  0  0  0  0 
    6.6954   -1.9194    1.6882 H   0  0  0  0  0  0  0  0  0  0  0  0 
    6.8376   -0.3243    2.4474 H   0  0  0  0  0  0  0  0  0  0  0  0 
    2.0295    4.1132    4.7788 H   0  0  0  0  0  0  0  0  0  0  0  0 
    1.8114    1.6508    5.0159 H   0  0  0  0  0  0  0  0  0  0  0  0 
    3.4083    5.0674    2.9424 H   0  0  0  0  0  0  0  0  0  0  0  0 
    2.9593    0.1423    3.4210 H   0  0  0  0  0  0  0  0  0  0  0  0 
    4.5700    3.5366    1.3487 H   0  0  0  0  0  0  0  0  0  0  0  0 
    4.9912   -1.0186    0.4484 H   0  0  0  0  0  0  0  0  0  0  0  0 
  1  3  1  0  0  0  0 
  1 18  1  0  0  0  0 
  2 19  1  0  0  0  0 
  2 20  1  0  0  0  0 
  2 21  1  0  0  0  0 
  3 14  1  0  0  0  0 
  3 23  1  0  0  0  0 
  4  2  1  0  0  0  0 
  5  6  1  0  0  0  0 
  5 26  1  0  0  0  0 
  6 27  1  0  0  0  0 
  7  5  2  0  0  0  0 
  8 29  1  0  0  0  0 
  8  6  2  0  0  0  0 
  9 10  2  0  0  0  0 
  9  7  1  0  0  0  0 
 10  8  1  0  0  0  0 
 11 12  1  0  0  0  0 
 11 10  1  0  0  0  0 
 12 15  1  0  0  0  0 
 13 11  2  0  0  0  0 
 14 12  1  0  0  0  0 
 15  4  1  0  0  0  0 
 16  1  1  0  0  0  0 
 17  1  1  0  0  0  0 
 22  3  1  0  0  0  0 
 24  4  1  0  0  0  0 
 25  4  1  0  0  0  0 
 28  7  1  0  0  0  0 
 30  9  1  0  0  0  0 
 31 12  1  0  0  0  0 
M  END 
>  <HBA> 
3 
 
>  <HBD> 
0 
 
>  <TPSA> 
35.53 
 
>  <cid> 
22555 
 
>  <dipole> 
2.25 
 
>  <excitation_energy_1> 
3.58 
 
>  <excitation_energy_2> 
4.533 
 
>  <excitation_energy_3> 
4.855 
 
>  <excitation_energy_4> 
5.042 
 
>  <homo_energy> 
-6.479 
 
>  <homo_lumo_gap> 
4.977 
 
>  <logP> 
2.268 
 
>  <lumo_energy> 
-1.502 
 
>  <melting_point> 
17.66 
 
>  <molecular_refractivity> 
58.03 
 
>  <oscillator_strength_1> 
0.0019 
 
>  <oscillator_strength_2> 
0.02 
 
>  <oscillator_strength_3> 
0.1738 
 
>  <oscillator_strength_4> 
0.0872 
 
>  <open_babel_can_smiles> 
CCOC(C(=O)c1ccccc1)OCC 
 
>  <mulliken_charges> 
31 
1   -0.456634 
2   -0.454812 
3   -0.018996 
4   -0.025942 
5   -0.116163 
6   -0.14291 
7   -0.135006 
8   -0.150952 
9   -0.155305 
10   0.061151 
11   0.392278 
12   0.312884 
13   -0.471371 
14   -0.490861 
15   -0.492284 
16   0.146816 
17   0.162484 
18   0.161292 
19   0.148461 
20   0.156861 
21   0.162983 
22   0.127425 
23   0.148813 
24   0.129283 
25   0.146551 
26   0.134678 
27   0.133675 
28   0.135143 
29   0.164446 
30   0.160183 
31   0.125829 
 
>  <lowdin_charges> 
31 
1   -0.447484 
2   -0.445777 
3   -0.126796 
4   -0.125861 
5   -0.139871 
6   -0.161606 
7   -0.15726 
8   -0.131651 
9   -0.12887 
10   -0.046875 
11   0.142645 
12   0.075315 
13   -0.237984 
14   -0.245284 
15   -0.274362 
16   0.15516 
17   0.159985 
18   0.158814 
19   0.155112 
20   0.155681 
21   0.160094 
22   0.132056 
23   0.143218 
24   0.13222 
25   0.138405 
26   0.161309 
27   0.160357 
28   0.158245 
29   0.173999 
30   0.175315 
31   0.13175 
 
$$$$ 
 
