PCCDB-ID:  69600 
public computational chemistry database (PCCDB) project, http://pccdb.org 
 
 19 19  0  0  0  0  0  0  0  0999 V2000 
    3.0103    1.0698   -0.5031 C   0  0  0  0  0  0  0  0  0  0  0  0 
    4.4744   -2.0472   -2.9482 C   0  0  0  0  0  0  0  0  0  0  0  0 
    4.0227   -0.9796   -2.1841 C   0  0  0  0  0  0  0  0  0  0  0  0 
    2.8916   -2.5658   -0.7241 C   0  0  0  0  0  0  0  0  0  0  0  0 
    4.6708   -4.4672   -3.4886 C   0  0  0  0  0  0  0  0  0  0  0  0 
    4.1618   -3.3774   -2.6373 C   0  0  0  0  0  0  0  0  0  0  0  0 
    3.2224   -1.2458   -1.0596 C   0  0  0  0  0  0  0  0  0  0  0  0 
    3.3552   -3.6220   -1.5028 C   0  0  0  0  0  0  0  0  0  0  0  0 
    5.3674   -4.2889   -4.4758 O   0  0  0  0  0  0  0  0  0  0  0  0 
    3.0528   -4.9179   -1.2042 O   0  0  0  0  0  0  0  0  0  0  0  0 
    2.7170   -0.2956   -0.2320 O   0  0  0  0  0  0  0  0  0  0  0  0 
    2.5107    1.6408    0.2810 H   0  0  0  0  0  0  0  0  0  0  0  0 
    2.6208    1.3766   -1.4817 H   0  0  0  0  0  0  0  0  0  0  0  0 
    4.0894    1.2634   -0.4638 H   0  0  0  0  0  0  0  0  0  0  0  0 
    5.0938   -1.8766   -3.8236 H   0  0  0  0  0  0  0  0  0  0  0  0 
    4.2867    0.0345   -2.4578 H   0  0  0  0  0  0  0  0  0  0  0  0 
    2.2712   -2.7400    0.1513 H   0  0  0  0  0  0  0  0  0  0  0  0 
    4.3815   -5.4898   -3.1805 H   0  0  0  0  0  0  0  0  0  0  0  0 
    2.4967   -4.9394   -0.4097 H   0  0  0  0  0  0  0  0  0  0  0  0 
  1 14  1  0  0  0  0 
  1 11  1  0  0  0  0 
  1 12  1  0  0  0  0 
  2  6  2  0  0  0  0 
  2  3  1  0  0  0  0 
  3  7  2  0  0  0  0 
  4 17  1  0  0  0  0 
  5 18  1  0  0  0  0 
  5  6  1  0  0  0  0 
  6  8  1  0  0  0  0 
  7  4  1  0  0  0  0 
  7 11  1  0  0  0  0 
  8 10  1  0  0  0  0 
  8  4  2  0  0  0  0 
  9  5  2  0  0  0  0 
 10 19  1  0  0  0  0 
 13  1  1  0  0  0  0 
 15  2  1  0  0  0  0 
 16  3  1  0  0  0  0 
M  END 
>  <HBA> 
3 
 
>  <HBD> 
1 
 
>  <TPSA> 
46.53 
 
>  <cid> 
69600 
 
>  <dipole> 
5.17 
 
>  <excitation_energy_1> 
3.678 
 
>  <excitation_energy_2> 
4.365 
 
>  <excitation_energy_3> 
4.731 
 
>  <excitation_energy_4> 
5.443 
 
>  <homo_energy> 
-6.229 
 
>  <homo_lumo_gap> 
4.947 
 
>  <logP> 
1.213 
 
>  <lumo_energy> 
-1.282 
 
>  <melting_point> 
84.17 
 
>  <molecular_refractivity> 
40.34 
 
>  <oscillator_strength_1> 
0.0001 
 
>  <oscillator_strength_2> 
0.1074 
 
>  <oscillator_strength_3> 
0.2659 
 
>  <oscillator_strength_4> 
0.0009 
 
>  <open_babel_can_smiles> 
COc1ccc(c(c1)O)C=O 
 
>  <mulliken_charges> 
19 
1   -0.220625 
2   -0.183665 
3   -0.196652 
4   -0.255515 
5   0.194874 
6   0.056896 
7   0.39025 
8   0.310596 
9   -0.426767 
10   -0.640468 
11   -0.504062 
12   0.17562 
13   0.160498 
14   0.160521 
15   0.167648 
16   0.138049 
17   0.132945 
18   0.124052 
19   0.415807 
 
>  <lowdin_charges> 
19 
1   -0.274943 
2   -0.102683 
3   -0.23115 
4   -0.244995 
5   0.042075 
6   -0.103437 
7   0.126747 
8   0.122974 
9   -0.248245 
10   -0.368221 
11   -0.188378 
12   0.167519 
13   0.150039 
14   0.148534 
15   0.178827 
16   0.165499 
17   0.165659 
18   0.130686 
19   0.363495 
 
$$$$ 
 
