PCCDB-ID:  12974 
public computational chemistry database (PCCDB) project, http://pccdb.org 
 
 21 20  0  0  0  0  0  0  0  0999 V2000 
    3.2693    0.9748    1.4999 C   0  0  0  0  0  0  0  0  0  0  0  0 
    0.7950    0.7805    1.0918 C   0  0  0  0  0  0  0  0  0  0  0  0 
    5.8089   -2.5796   -0.7262 C   0  0  0  0  0  0  0  0  0  0  0  0 
    5.6928   -4.7504    0.5390 C   0  0  0  0  0  0  0  0  0  0  0  0 
    2.2043    0.2505    1.1306 C   0  0  0  0  0  0  0  0  0  0  0  0 
    5.2172   -3.3666    0.1825 C   0  0  0  0  0  0  0  0  0  0  0  0 
    2.3398   -1.1794    0.7395 C   0  0  0  0  0  0  0  0  0  0  0  0 
    3.9983   -2.9231    0.9135 C   0  0  0  0  0  0  0  0  0  0  0  0 
    1.4157   -1.9005    0.4637 O   0  0  0  0  0  0  0  0  0  0  0  0 
    3.3841   -3.6076    1.6912 O   0  0  0  0  0  0  0  0  0  0  0  0 
    3.6679   -1.5942    0.6571 O   0  0  0  0  0  0  0  0  0  0  0  0 
    3.1617    2.0144    1.7971 H   0  0  0  0  0  0  0  0  0  0  0  0 
    4.2677    0.5535    1.5207 H   0  0  0  0  0  0  0  0  0  0  0  0 
    0.7645    1.8293    1.3991 H   0  0  0  0  0  0  0  0  0  0  0  0 
    0.1426    0.1984    1.7518 H   0  0  0  0  0  0  0  0  0  0  0  0 
    0.3721    0.6950    0.0844 H   0  0  0  0  0  0  0  0  0  0  0  0 
    6.6910   -2.9149   -1.2651 H   0  0  0  0  0  0  0  0  0  0  0  0 
    5.4307   -1.5909   -0.9590 H   0  0  0  0  0  0  0  0  0  0  0  0 
    6.5846   -5.0161   -0.0350 H   0  0  0  0  0  0  0  0  0  0  0  0 
    4.9110   -5.4924    0.3434 H   0  0  0  0  0  0  0  0  0  0  0  0 
    5.9260   -4.8209    1.6075 H   0  0  0  0  0  0  0  0  0  0  0  0 
  1 13  1  0  0  0  0 
  1 12  1  0  0  0  0 
  2  5  1  0  0  0  0 
  2 14  1  0  0  0  0 
  2 15  1  0  0  0  0 
  3  6  2  0  0  0  0 
  4 21  1  0  0  0  0 
  5  1  2  0  0  0  0 
  6  4  1  0  0  0  0 
  6  8  1  0  0  0  0 
  7  5  1  0  0  0  0 
  8 10  2  0  0  0  0 
  9  7  2  0  0  0  0 
 11  7  1  0  0  0  0 
 11  8  1  0  0  0  0 
 16  2  1  0  0  0  0 
 17  3  1  0  0  0  0 
 18  3  1  0  0  0  0 
 19  4  1  0  0  0  0 
 20  4  1  0  0  0  0 
M  END 
>  <HBA> 
3 
 
>  <HBD> 
0 
 
>  <TPSA> 
43.37 
 
>  <cid> 
12974 
 
>  <dipole> 
3.76 
 
>  <excitation_energy_1> 
4.352 
 
>  <excitation_energy_2> 
4.673 
 
>  <excitation_energy_3> 
5.186 
 
>  <excitation_energy_4> 
5.266 
 
>  <homo_energy> 
-7.418 
 
>  <homo_lumo_gap> 
5.674 
 
>  <logP> 
1.208 
 
>  <lumo_energy> 
-1.744 
 
>  <melting_point> 
-28.42 
 
>  <molecular_refractivity> 
41.11 
 
>  <oscillator_strength_1> 
0.004 
 
>  <oscillator_strength_2> 
0.0015 
 
>  <oscillator_strength_3> 
0.0521 
 
>  <oscillator_strength_4> 
0.0368 
 
>  <open_babel_can_smiles> 
O=C(C(=C)C)OC(=O)C(=C)C 
 
>  <mulliken_charges> 
21 
1   -0.365248 
2   -0.503285 
3   -0.365284 
4   -0.503096 
5   0.122265 
6   0.122134 
7   0.597186 
8   0.5974 
9   -0.4245 
10   -0.425511 
11   -0.524401 
12   0.15557 
13   0.173526 
14   0.151074 
15   0.181645 
16   0.174511 
17   0.155469 
18   0.173576 
19   0.150949 
20   0.181508 
21   0.174512 
 
>  <lowdin_charges> 
21 
1   -0.291456 
2   -0.434504 
3   -0.293042 
4   -0.434643 
5   -0.028607 
6   -0.029059 
7   0.219394 
8   0.218577 
9   -0.210242 
10   -0.210463 
11   -0.189124 
12   0.165556 
13   0.175006 
14   0.156585 
15   0.174559 
16   0.168965 
17   0.167192 
18   0.175089 
19   0.158203 
20   0.173866 
21   0.168145 
 
$$$$ 
 
