PCCDB-ID:  11699 
public computational chemistry database (PCCDB) project, http://pccdb.org 
 
 17 16  0  0  0  0  0  0  0  0999 V2000 
    1.2337   -0.4461    0.0006 C   0  0  0  0  0  0  0  0  0  0  0  0 
    2.8658    1.3180    0.8057 C   0  0  0  0  0  0  0  0  0  0  0  0 
    3.3523   -1.0969    1.0824 C   0  0  0  0  0  0  0  0  0  0  0  0 
    3.4387   -0.0936   -1.2181 C   0  0  0  0  0  0  0  0  0  0  0  0 
    2.7248   -0.0710    0.1516 C   0  0  0  0  0  0  0  0  0  0  0  0 
    4.1800   -1.9280    0.7616 O   0  0  0  0  0  0  0  0  0  0  0  0 
    3.3593   -1.3451   -1.8728 O   0  0  0  0  0  0  0  0  0  0  0  0 
    0.7446   -0.5655    0.9751 H   0  0  0  0  0  0  0  0  0  0  0  0 
    1.1321   -1.3759   -0.5652 H   0  0  0  0  0  0  0  0  0  0  0  0 
    0.7066    0.3466   -0.5429 H   0  0  0  0  0  0  0  0  0  0  0  0 
    2.4048    1.3408    1.8002 H   0  0  0  0  0  0  0  0  0  0  0  0 
    2.3657    2.0747    0.1907 H   0  0  0  0  0  0  0  0  0  0  0  0 
    3.9173    1.6099    0.9130 H   0  0  0  0  0  0  0  0  0  0  0  0 
    2.9874   -1.0572    2.1344 H   0  0  0  0  0  0  0  0  0  0  0  0 
    4.4863    0.2195   -1.0792 H   0  0  0  0  0  0  0  0  0  0  0  0 
    2.9633    0.6381   -1.8813 H   0  0  0  0  0  0  0  0  0  0  0  0 
    3.8621   -1.9586   -1.3088 H   0  0  0  0  0  0  0  0  0  0  0  0 
  1  5  1  0  0  0  0 
  1  8  1  0  0  0  0 
  2 13  1  0  0  0  0 
  2 11  1  0  0  0  0 
  3 14  1  0  0  0  0 
  4 15  1  0  0  0  0 
  4  5  1  0  0  0  0 
  5  2  1  0  0  0  0 
  5  3  1  0  0  0  0 
  6  3  2  0  0  0  0 
  7 17  1  0  0  0  0 
  7  4  1  0  0  0  0 
  9  1  1  0  0  0  0 
 10  1  1  0  0  0  0 
 12  2  1  0  0  0  0 
 16  4  1  0  0  0  0 
M  END 
>  <HBA> 
2 
 
>  <HBD> 
1 
 
>  <TPSA> 
37.3 
 
>  <cid> 
11699 
 
>  <dipole> 
3.0 
 
>  <excitation_energy_1> 
4.218 
 
>  <excitation_energy_2> 
5.134 
 
>  <excitation_energy_3> 
6.547 
 
>  <excitation_energy_4> 
6.73 
 
>  <homo_energy> 
-6.966 
 
>  <homo_lumo_gap> 
5.968 
 
>  <logP> 
0.204 
 
>  <lumo_energy> 
-0.999 
 
>  <melting_point> 
43.13 
 
>  <molecular_refractivity> 
27.25 
 
>  <oscillator_strength_1> 
0.0001 
 
>  <oscillator_strength_2> 
0.0006 
 
>  <oscillator_strength_3> 
0.024 
 
>  <oscillator_strength_4> 
0.0032 
 
>  <open_babel_can_smiles> 
OCC(C=O)(C)C 
 
>  <mulliken_charges> 
17 
1   -0.459471 
2   -0.468814 
3   0.259508 
4   -0.025053 
5   -0.00774 
6   -0.406375 
7   -0.631608 
8   0.143801 
9   0.180804 
10   0.155268 
11   0.15254 
12   0.160065 
13   0.157306 
14   0.113631 
15   0.125442 
16   0.140117 
17   0.410579 
 
>  <lowdin_charges> 
17 
1   -0.441115 
2   -0.440677 
3   0.066757 
4   -0.134296 
5   -0.045103 
6   -0.227304 
7   -0.471678 
8   0.149857 
9   0.168259 
10   0.158824 
11   0.154488 
12   0.160751 
13   0.154212 
14   0.121742 
15   0.130504 
16   0.148285 
17   0.346492 
 
$$$$ 
 
