PCCDB-ID:  8454 
public computational chemistry database (PCCDB) project, http://pccdb.org 
 
 17 17  0  0  0  0  0  0  0  0999 V2000 
    0.9913   -0.0671   -0.0635 C   0  0  0  0  0  0  0  0  0  0  0  0 
    3.0358   -1.5551   -1.9075 C   0  0  0  0  0  0  0  0  0  0  0  0 
    3.1003   -0.0743   -2.3737 C   0  0  0  0  0  0  0  0  0  0  0  0 
    2.9778   -1.4553   -0.3554 C   0  0  0  0  0  0  0  0  0  0  0  0 
    3.0769    0.7362   -1.0458 C   0  0  0  0  0  0  0  0  0  0  0  0 
    2.4525   -0.1215   -0.0278 N   0  0  0  0  0  0  0  0  0  0  0  0 
    0.5874   -0.7330    0.7067 H   0  0  0  0  0  0  0  0  0  0  0  0 
    0.5365   -0.3541   -1.0305 H   0  0  0  0  0  0  0  0  0  0  0  0 
    0.6630    0.9510    0.1717 H   0  0  0  0  0  0  0  0  0  0  0  0 
    3.8997   -2.1390   -2.2411 H   0  0  0  0  0  0  0  0  0  0  0  0 
    2.1429   -2.0507   -2.3031 H   0  0  0  0  0  0  0  0  0  0  0  0 
    2.2382    0.1755   -3.0011 H   0  0  0  0  0  0  0  0  0  0  0  0 
    3.9974    0.1428   -2.9627 H   0  0  0  0  0  0  0  0  0  0  0  0 
    3.9913   -1.5351    0.0598 H   0  0  0  0  0  0  0  0  0  0  0  0 
    2.3690   -2.2354    0.1120 H   0  0  0  0  0  0  0  0  0  0  0  0 
    2.5475    1.6909   -1.1237 H   0  0  0  0  0  0  0  0  0  0  0  0 
    4.1044    0.9542   -0.7254 H   0  0  0  0  0  0  0  0  0  0  0  0 
  1  6  1  0  0  0  0 
  1  9  1  0  0  0  0 
  1  7  1  0  0  0  0 
  2  4  1  0  0  0  0 
  3  2  1  0  0  0  0 
  3  5  1  0  0  0  0 
  4  6  1  0  0  0  0 
  4 14  1  0  0  0  0 
  4 15  1  0  0  0  0 
  5 17  1  0  0  0  0 
  5  6  1  0  0  0  0 
  8  1  1  0  0  0  0 
 10  2  1  0  0  0  0 
 11  2  1  0  0  0  0 
 12  3  1  0  0  0  0 
 13  3  1  0  0  0  0 
 16  5  1  0  0  0  0 
M  END 
>  <HBA> 
1 
 
>  <HBD> 
0 
 
>  <TPSA> 
3.24 
 
>  <cid> 
8454 
 
>  <dipole> 
0.96 
 
>  <excitation_energy_1> 
5.143 
 
>  <excitation_energy_2> 
5.676 
 
>  <excitation_energy_3> 
5.801 
 
>  <excitation_energy_4> 
5.861 
 
>  <homo_energy> 
-5.595 
 
>  <homo_lumo_gap> 
7.627 
 
>  <logP> 
0.65 
 
>  <lumo_energy> 
2.033 
 
>  <melting_point> 
-0.68 
 
>  <molecular_refractivity> 
30.85 
 
>  <oscillator_strength_1> 
0.0155 
 
>  <oscillator_strength_2> 
0.0021 
 
>  <oscillator_strength_3> 
0.0003 
 
>  <oscillator_strength_4> 
0.0262 
 
>  <open_babel_can_smiles> 
CN1CCCC1 
 
>  <mulliken_charges> 
17 
1   -0.304267 
2   -0.285568 
3   -0.285411 
4   -0.144365 
5   -0.144465 
6   -0.362954 
7   0.148873 
8   0.118821 
9   0.148833 
10   0.137678 
11   0.140186 
12   0.140171 
13   0.137611 
14   0.141211 
15   0.136222 
16   0.136268 
17   0.141154 
 
>  <lowdin_charges> 
17 
1   -0.36059 
2   -0.304701 
3   -0.30427 
4   -0.211351 
5   -0.209369 
6   -0.189484 
7   0.150647 
8   0.120247 
9   0.148758 
10   0.148162 
11   0.145401 
12   0.145372 
13   0.147846 
14   0.140588 
15   0.146909 
16   0.145447 
17   0.140388 
 
$$$$ 
 
