PCCDB-ID:  32803 
public computational chemistry database (PCCDB) project, http://pccdb.org 
 
 20 20  0  0  1  0  0  0  0  0999 V2000 
    0.8699   -0.0016   -0.0419 C   0  0  0  0  0  0  0  0  0  0  0  0 
    2.6511   -0.0284    4.3590 C   0  0  0  0  0  0  0  0  0  0  0  0 
    2.9577   -1.1550    0.8772 C   0  0  0  0  0  0  0  0  0  0  0  0 
    2.5212    1.2811    2.1818 C   0  0  0  0  0  0  0  0  0  0  0  0 
    2.3904    0.0561    0.1294 C   0  0  2  0  0  0  0  0  0  0  0  0 
    3.0690    0.0465    2.8990 C   0  0  2  0  0  0  0  0  0  0  0  0 
    2.8209    1.2562    0.7895 O   0  0  0  0  0  0  0  0  0  0  0  0 
    2.5802   -1.1317    2.2490 O   0  0  0  0  0  0  0  0  0  0  0  0 
    0.5979   -0.8156   -0.7241 H   0  0  0  0  0  0  0  0  0  0  0  0 
    0.5030    0.9390   -0.4648 H   0  0  0  0  0  0  0  0  0  0  0  0 
    0.3633   -0.1833    0.9104 H   0  0  0  0  0  0  0  0  0  0  0  0 
    3.0363    0.8314    4.9184 H   0  0  0  0  0  0  0  0  0  0  0  0 
    3.0405   -0.9432    4.8158 H   0  0  0  0  0  0  0  0  0  0  0  0 
    1.5591   -0.0417    4.4461 H   0  0  0  0  0  0  0  0  0  0  0  0 
    4.0567   -1.1535    0.7914 H   0  0  0  0  0  0  0  0  0  0  0  0 
    2.5753   -2.0939    0.4633 H   0  0  0  0  0  0  0  0  0  0  0  0 
    2.9854    2.1938    2.5703 H   0  0  0  0  0  0  0  0  0  0  0  0 
    1.4352    1.3490    2.3525 H   0  0  0  0  0  0  0  0  0  0  0  0 
    2.8617    0.1101   -0.8593 H   0  0  0  0  0  0  0  0  0  0  0  0 
    4.1702    0.0609    2.8189 H   0  0  0  0  0  0  0  0  0  0  0  0 
  1  5  1  0  0  0  0 
  1 11  1  0  0  0  0 
  2 14  1  0  0  0  0 
  2 13  1  0  0  0  0 
  2 12  1  0  0  0  0 
  3  8  1  0  0  0  0 
  4 18  1  0  0  0  0 
  4 17  1  0  0  0  0 
  4  6  1  0  0  0  0 
  5 19  1  6  0  0  0 
  5  7  1  0  0  0  0 
  5  3  1  0  0  0  0 
  6 20  1  6  0  0  0 
  6  2  1  0  0  0  0 
  7  4  1  0  0  0  0 
  8  6  1  0  0  0  0 
  9  1  1  0  0  0  0 
 10  1  1  0  0  0  0 
 15  3  1  0  0  0  0 
 16  3  1  0  0  0  0 
M  END 
>  <HBA> 
2 
 
>  <HBD> 
0 
 
>  <TPSA> 
18.46 
 
>  <cid> 
32803 
 
>  <dipole> 
0.19 
 
>  <excitation_energy_1> 
5.978 
 
>  <excitation_energy_2> 
6.322 
 
>  <excitation_energy_3> 
6.39 
 
>  <excitation_energy_4> 
6.716 
 
>  <homo_energy> 
-6.308 
 
>  <homo_lumo_gap> 
8.759 
 
>  <logP> 
0.81 
 
>  <lumo_energy> 
2.452 
 
>  <melting_point> 
-21.88 
 
>  <molecular_refractivity> 
31.01 
 
>  <oscillator_strength_1> 
0.0113 
 
>  <oscillator_strength_2> 
0.0115 
 
>  <oscillator_strength_3> 
0.0219 
 
>  <oscillator_strength_4> 
0.0099 
 
>  <open_babel_can_smiles> 
C[C@H]1OC[C@H](OC1)C 
 
>  <mulliken_charges> 
20 
1   -0.465392 
2   -0.461534 
3   -0.0397 
4   -0.031834 
5   0.129452 
6   0.133238 
7   -0.488395 
8   -0.484173 
9   0.142116 
10   0.157043 
11   0.159941 
12   0.14496 
13   0.162353 
14   0.154365 
15   0.127599 
16   0.142311 
17   0.141213 
18   0.126086 
19   0.132481 
20   0.117872 
 
>  <lowdin_charges> 
20 
1   -0.463577 
2   -0.446813 
3   -0.144091 
4   -0.147586 
5   -0.011765 
6   -0.007648 
7   -0.278802 
8   -0.276596 
9   0.154515 
10   0.158842 
11   0.156296 
12   0.155605 
13   0.16302 
14   0.153837 
15   0.130521 
16   0.151323 
17   0.152034 
18   0.129673 
19   0.146217 
20   0.124994 
 
$$$$ 
 
