PCCDB-ID:  51459 
public computational chemistry database (PCCDB) project, http://pccdb.org 
 
 30 32  0  0  0  0  0  0  0  0999 V2000 
    0.8542    0.4496    0.3878 C   0  0  0  0  0  0  0  0  0  0  0  0 
    0.9880   -4.8342   -0.1946 C   0  0  0  0  0  0  0  0  0  0  0  0 
    2.2066   -4.6694    0.4682 C   0  0  0  0  0  0  0  0  0  0  0  0 
    0.3912   -3.7419   -0.8255 C   0  0  0  0  0  0  0  0  0  0  0  0 
    6.8690    2.0507   -0.2735 C   0  0  0  0  0  0  0  0  0  0  0  0 
    7.3354    0.7320   -0.4178 C   0  0  0  0  0  0  0  0  0  0  0  0 
    2.8226   -3.4211    0.5028 C   0  0  0  0  0  0  0  0  0  0  0  0 
    1.0017   -2.4889   -0.7868 C   0  0  0  0  0  0  0  0  0  0  0  0 
    5.5133    2.2902   -0.1114 C   0  0  0  0  0  0  0  0  0  0  0  0 
    6.4521   -0.3388   -0.3998 C   0  0  0  0  0  0  0  0  0  0  0  0 
    2.3196    0.2296    0.1165 C   0  0  0  0  0  0  0  0  0  0  0  0 
    2.2203   -2.3102   -0.1131 C   0  0  0  0  0  0  0  0  0  0  0  0 
    4.5996    1.2226   -0.0894 C   0  0  0  0  0  0  0  0  0  0  0  0 
    5.0867   -0.0800   -0.2333 C   0  0  0  0  0  0  0  0  0  0  0  0 
    3.1529    1.4447    0.0939 C   0  0  0  0  0  0  0  0  0  0  0  0 
    2.8948   -0.9932   -0.0715 C   0  0  0  0  0  0  0  0  0  0  0  0 
    2.6744    2.5722    0.2333 O   0  0  0  0  0  0  0  0  0  0  0  0 
    4.2480   -1.1584   -0.2289 O   0  0  0  0  0  0  0  0  0  0  0  0 
    0.7505    1.2815    1.0901 H   0  0  0  0  0  0  0  0  0  0  0  0 
    0.3685   -0.4371    0.8003 H   0  0  0  0  0  0  0  0  0  0  0  0 
    0.3149    0.7481   -0.5206 H   0  0  0  0  0  0  0  0  0  0  0  0 
    0.5103   -5.8096   -0.2240 H   0  0  0  0  0  0  0  0  0  0  0  0 
    2.6797   -5.5162    0.9579 H   0  0  0  0  0  0  0  0  0  0  0  0 
   -0.5476   -3.8649   -1.3584 H   0  0  0  0  0  0  0  0  0  0  0  0 
    7.5725    2.8778   -0.2891 H   0  0  0  0  0  0  0  0  0  0  0  0 
    8.3979    0.5445   -0.5460 H   0  0  0  0  0  0  0  0  0  0  0  0 
    3.7725   -3.2969    1.0123 H   0  0  0  0  0  0  0  0  0  0  0  0 
    0.5448   -1.6518   -1.3034 H   0  0  0  0  0  0  0  0  0  0  0  0 
    5.1160    3.2936    0.0031 H   0  0  0  0  0  0  0  0  0  0  0  0 
    6.7888   -1.3643   -0.5119 H   0  0  0  0  0  0  0  0  0  0  0  0 
  1 20  1  0  0  0  0 
  1 19  1  0  0  0  0 
  2  3  2  0  0  0  0 
  3  7  1  0  0  0  0 
  3 23  1  0  0  0  0 
  4  8  2  0  0  0  0 
  4  2  1  0  0  0  0 
  5  9  2  0  0  0  0 
  6 10  2  0  0  0  0 
  6  5  1  0  0  0  0 
  7 27  1  0  0  0  0 
  8 12  1  0  0  0  0 
  9 13  1  0  0  0  0 
  9 29  1  0  0  0  0 
 10 14  1  0  0  0  0 
 11  1  1  0  0  0  0 
 12 16  1  0  0  0  0 
 12  7  2  0  0  0  0 
 13 15  1  0  0  0  0 
 14 18  1  0  0  0  0 
 14 13  2  0  0  0  0 
 15 11  1  0  0  0  0 
 15 17  2  0  0  0  0 
 16 11  2  0  0  0  0 
 18 16  1  0  0  0  0 
 21  1  1  0  0  0  0 
 22  2  1  0  0  0  0 
 24  4  1  0  0  0  0 
 25  5  1  0  0  0  0 
 26  6  1  0  0  0  0 
 28  8  1  0  0  0  0 
 30 10  1  0  0  0  0 
M  END 
>  <HBA> 
2 
 
>  <HBD> 
0 
 
>  <TPSA> 
30.21 
 
>  <cid> 
51459 
 
>  <dipole> 
3.79 
 
>  <excitation_energy_1> 
3.635 
 
>  <excitation_energy_2> 
4.125 
 
>  <excitation_energy_3> 
4.491 
 
>  <excitation_energy_4> 
4.726 
 
>  <homo_energy> 
-6.191 
 
>  <homo_lumo_gap> 
4.577 
 
>  <logP> 
3.768 
 
>  <lumo_energy> 
-1.614 
 
>  <melting_point> 
125.44 
 
>  <molecular_refractivity> 
72.89 
 
>  <oscillator_strength_1> 
0.004 
 
>  <oscillator_strength_2> 
0.1753 
 
>  <oscillator_strength_3> 
0.2757 
 
>  <oscillator_strength_4> 
0.0047 
 
>  <open_babel_can_smiles> 
O=c1c(C)c(oc2c1cccc2)c1ccccc1 
 
>  <mulliken_charges> 
30 
1   -0.522531 
2   -0.120312 
3   -0.135541 
4   -0.137842 
5   -0.133413 
6   -0.129988 
7   -0.149369 
8   -0.159325 
9   -0.175149 
10   -0.179253 
11   0.038773 
12   0.076555 
13   0.064283 
14   0.301992 
15   0.38112 
16   0.218032 
17   -0.518579 
18   -0.534106 
19   0.184621 
20   0.158959 
21   0.165193 
22   0.137488 
23   0.137743 
24   0.138665 
25   0.138741 
26   0.140912 
27   0.14712 
28   0.150099 
29   0.166854 
30   0.148258 
 
>  <lowdin_charges> 
30 
1   -0.440758 
2   -0.14653 
3   -0.154451 
4   -0.153387 
5   -0.164223 
6   -0.133965 
7   -0.143253 
8   -0.1498 
9   -0.122934 
10   -0.175394 
11   -0.076701 
12   -0.016421 
13   -0.064561 
14   0.102575 
15   0.133058 
16   0.110442 
17   -0.288103 
18   -0.114184 
19   0.17651 
20   0.161685 
21   0.162773 
22   0.161422 
23   0.162739 
24   0.161947 
25   0.163809 
26   0.162387 
27   0.166775 
28   0.169351 
29   0.178906 
30   0.170288 
 
$$$$ 
 
