PCCDB-ID:  37558 
public computational chemistry database (PCCDB) project, http://pccdb.org 
 
 23 24  0  0  0  0  0  0  0  0999 V2000 
   -1.0268    0.6473   -0.3337 C   0  0  0  0  0  0  0  0  0  0  0  0 
    0.4871   -0.6033    1.0648 C   0  0  0  0  0  0  0  0  0  0  0  0 
   -1.8615   -0.4578   -0.4303 C   0  0  0  0  0  0  0  0  0  0  0  0 
   -0.3492   -1.7060    0.9866 C   0  0  0  0  0  0  0  0  0  0  0  0 
    0.1661    0.5952    0.4069 C   0  0  0  0  0  0  0  0  0  0  0  0 
   -1.5375   -1.6566    0.2312 C   0  0  0  0  0  0  0  0  0  0  0  0 
    1.0369    1.7929    0.5175 C   0  0  0  0  0  0  0  0  0  0  0  0 
    3.1168    0.8247    0.1377 C   0  0  0  0  0  0  0  0  0  0  0  0 
   -2.3941   -2.7470    0.1868 N   0  0  0  0  0  0  0  0  0  0  0  0 
    2.3133    1.8714    0.5228 N   0  0  0  0  0  0  0  0  0  0  0  0 
    4.2181    0.4790    0.8156 N   0  0  0  0  0  0  0  0  0  0  0  0 
    2.9780    0.1029   -1.0215 N   0  0  0  0  0  0  0  0  0  0  0  0 
    4.7032   -0.4771    0.0242 N   0  0  0  0  0  0  0  0  0  0  0  0 
    3.9976   -0.7160   -1.0739 N   0  0  0  0  0  0  0  0  0  0  0  0 
    0.3821    2.9743    0.6644 O   0  0  0  0  0  0  0  0  0  0  0  0 
   -1.2848    1.5519   -0.8791 H   0  0  0  0  0  0  0  0  0  0  0  0 
    1.3951   -0.6639    1.6565 H   0  0  0  0  0  0  0  0  0  0  0  0 
   -2.7703   -0.4007   -1.0246 H   0  0  0  0  0  0  0  0  0  0  0  0 
   -0.0905   -2.6195    1.5165 H   0  0  0  0  0  0  0  0  0  0  0  0 
   -3.0330   -2.7800   -0.5969 H   0  0  0  0  0  0  0  0  0  0  0  0 
   -1.9782   -3.6477    0.3852 H   0  0  0  0  0  0  0  0  0  0  0  0 
    5.5652   -0.9648    0.2276 H   0  0  0  0  0  0  0  0  0  0  0  0 
   -0.5469    2.7848    0.8739 H   0  0  0  0  0  0  0  0  0  0  0  0 
  1  5  1  0  0  0  0 
  2 17  1  0  0  0  0 
  3  1  2  0  0  0  0 
  3  6  1  0  0  0  0 
  4  2  1  0  0  0  0 
  4 19  1  0  0  0  0 
  5  7  1  0  0  0  0 
  5  2  2  0  0  0  0 
  6  4  2  0  0  0  0 
  7 10  2  0  0  0  0 
  7 15  1  0  0  0  0 
  8 10  1  0  0  0  0 
  8 11  2  0  0  0  0 
  9  6  1  0  0  0  0 
  9 21  1  0  0  0  0 
 12  8  2  0  0  0  0 
 13 22  1  0  0  0  0 
 13 11  1  0  0  0  0 
 14 12  1  0  0  0  0 
 14 13  1  0  0  0  0 
 15 23  1  0  0  0  0 
 16  1  1  0  0  0  0 
 18  3  1  0  0  0  0 
 20  9  1  0  0  0  0 
M  RAD  1  14   2 
M  END 
>  <HBA> 
6 
 
>  <HBD> 
3 
 
>  <TPSA> 
109.58 
 
>  <cid> 
37558 
 
>  <dipole> 
5.98 
 
>  <excitation_energy_1> 
4.361 
 
>  <excitation_energy_2> 
4.491 
 
>  <excitation_energy_3> 
4.589 
 
>  <excitation_energy_4> 
4.932 
 
>  <homo_energy> 
-5.935 
 
>  <homo_lumo_gap> 
4.928 
 
>  <logP> 
0.688 
 
>  <lumo_energy> 
-1.007 
 
>  <melting_point> 
243.94 
 
>  <molecular_refractivity> 
52.8 
 
>  <oscillator_strength_1> 
0.1972 
 
>  <oscillator_strength_2> 
0.1099 
 
>  <oscillator_strength_3> 
0.0997 
 
>  <oscillator_strength_4> 
0.004 
 
>  <open_babel_can_smiles> 
O/C(=N/[C]1=N[N]NN=1)/c1ccc(cc1)N 
 
>  <mulliken_charges> 
23 
1   -0.195277 
2   -0.156584 
3   -0.173353 
4   -0.176537 
5   0.073498 
6   0.333443 
7   0.42614 
8   0.597967 
9   -0.789916 
10   -0.475377 
11   -0.32183 
12   -0.329185 
13   -0.200005 
14   -0.051139 
15   -0.565527 
16   0.147974 
17   0.159495 
18   0.129258 
19   0.130309 
20   0.329891 
21   0.330434 
22   0.366548 
23   0.409773 
 
>  <lowdin_charges> 
23 
1   -0.148745 
2   -0.12459 
3   -0.195031 
4   -0.192693 
5   -0.072415 
6   0.075838 
7   0.1658 
8   0.055891 
9   -0.472971 
10   -0.171135 
11   -0.153859 
12   -0.159955 
13   -0.075082 
14   -0.073542 
15   -0.340161 
16   0.164804 
17   0.17248 
18   0.15862 
19   0.15953 
20   0.282107 
21   0.281973 
22   0.306266 
23   0.356871 
 
$$$$ 
 
