PCCDB-ID:  61922 
public computational chemistry database (PCCDB) project, http://pccdb.org 
 
 17 16  0  0  0  0  0  0  0  0999 V2000 
    3.4641   -0.6966   -1.4384 C   0  0  0  0  0  0  0  0  0  0  0  0 
    1.1188    1.9026    4.2859 C   0  0  0  0  0  0  0  0  0  0  0  0 
    2.9751    0.4568    0.8262 C   0  0  0  0  0  0  0  0  0  0  0  0 
    1.8890    0.7683    1.8520 C   0  0  0  0  0  0  0  0  0  0  0  0 
    2.4406   -0.2962   -0.3895 C   0  0  0  0  0  0  0  0  0  0  0  0 
    1.2598   -0.5617   -0.5102 O   0  0  0  0  0  0  0  0  0  0  0  0 
    2.6205    1.6722    3.2719 S   0  0  0  0  0  0  0  0  0  0  0  0 
    4.0201    0.1796   -1.7939 H   0  0  0  0  0  0  0  0  0  0  0  0 
    2.9615   -1.1792   -2.2789 H   0  0  0  0  0  0  0  0  0  0  0  0 
    4.1996   -1.3879   -1.0078 H   0  0  0  0  0  0  0  0  0  0  0  0 
    1.4186    2.4497    5.1835 H   0  0  0  0  0  0  0  0  0  0  0  0 
    0.6910    0.9409    4.5853 H   0  0  0  0  0  0  0  0  0  0  0  0 
    0.3660    2.4890    3.7503 H   0  0  0  0  0  0  0  0  0  0  0  0 
    3.7835   -0.1358    1.2778 H   0  0  0  0  0  0  0  0  0  0  0  0 
    3.4542    1.3818    0.4739 H   0  0  0  0  0  0  0  0  0  0  0  0 
    1.4266   -0.1591    2.2042 H   0  0  0  0  0  0  0  0  0  0  0  0 
    1.1029    1.3764    1.3941 H   0  0  0  0  0  0  0  0  0  0  0  0 
  1 10  1  0  0  0  0 
  1  5  1  0  0  0  0 
  2 12  1  0  0  0  0 
  2 11  1  0  0  0  0 
  3 14  1  0  0  0  0 
  3  4  1  0  0  0  0 
  4 16  1  0  0  0  0 
  4  7  1  0  0  0  0 
  5  3  1  0  0  0  0 
  6  5  2  0  0  0  0 
  7  2  1  0  0  0  0 
  8  1  1  0  0  0  0 
  9  1  1  0  0  0  0 
 13  2  1  0  0  0  0 
 15  3  1  0  0  0  0 
 17  4  1  0  0  0  0 
M  END 
>  <HBA> 
2 
 
>  <HBD> 
0 
 
>  <TPSA> 
42.37 
 
>  <cid> 
61922 
 
>  <dipole> 
1.02 
 
>  <excitation_energy_1> 
4.461 
 
>  <excitation_energy_2> 
4.636 
 
>  <excitation_energy_3> 
5.08 
 
>  <excitation_energy_4> 
5.438 
 
>  <homo_energy> 
-5.957 
 
>  <homo_lumo_gap> 
5.502 
 
>  <logP> 
1.329 
 
>  <lumo_energy> 
-0.454 
 
>  <melting_point> 
4.46 
 
>  <molecular_refractivity> 
33.94 
 
>  <oscillator_strength_1> 
0.0001 
 
>  <oscillator_strength_2> 
0.006 
 
>  <oscillator_strength_3> 
0.0004 
 
>  <oscillator_strength_4> 
0.0076 
 
>  <open_babel_can_smiles> 
CSCCC(=O)C 
 
>  <mulliken_charges> 
17 
1   -0.527987 
2   -0.582745 
3   -0.369372 
4   -0.390947 
5   0.451885 
6   -0.432322 
7   0.079703 
8   0.169318 
9   0.182142 
10   0.17187 
11   0.182999 
12   0.177855 
13   0.177931 
14   0.174555 
15   0.176591 
16   0.178435 
17   0.180089 
 
>  <lowdin_charges> 
17 
1   -0.476305 
2   -0.546175 
3   -0.315468 
4   -0.36807 
5   0.165793 
6   -0.233205 
7   0.085316 
8   0.170547 
9   0.175135 
10   0.172864 
11   0.176566 
12   0.162159 
13   0.163539 
14   0.170136 
15   0.170971 
16   0.162184 
17   0.164013 
 
$$$$ 
 
