PCCDB-ID:  58209 
public computational chemistry database (PCCDB) project, http://pccdb.org 
 
 30 31  0  0  1  0  0  0  0  0999 V2000 
    0.9917   -0.7163   -0.2065 C   0  0  0  0  0  0  0  0  0  0  0  0 
    5.5269   -4.6505   -1.7166 C   0  0  0  0  0  0  0  0  0  0  0  0 
    5.4575   -3.8955   -0.5286 C   0  0  0  0  0  0  0  0  0  0  0  0 
    4.7217   -4.3426   -2.8050 C   0  0  0  0  0  0  0  0  0  0  0  0 
    4.5839   -2.8206   -0.4047 C   0  0  0  0  0  0  0  0  0  0  0  0 
    2.8765   -2.6737   -3.6130 C   0  0  0  0  0  0  0  0  0  0  0  0 
    2.2931   -1.6264   -2.9553 C   0  0  0  0  0  0  0  0  0  0  0  0 
    3.6441    2.7262   -1.9586 C   0  0  0  0  0  0  0  0  0  0  0  0 
    3.7937    1.2665   -1.5613 C   0  0  0  0  0  0  0  0  0  0  0  0 
    2.4171   -0.5027   -0.7037 C   0  0  1  0  0  0  0  0  0  0  0  0 
    3.8289   -3.2613   -2.7127 C   0  0  0  0  0  0  0  0  0  0  0  0 
    3.7759   -2.5074   -1.5054 C   0  0  0  0  0  0  0  0  0  0  0  0 
    2.8256   -1.5082   -1.6781 N   0  0  0  0  0  0  0  0  0  0  0  0 
    3.0802    3.4966   -0.9116 O   0  0  0  0  0  0  0  0  0  0  0  0 
    2.4762    0.7950   -1.2598 O   0  0  0  0  0  0  0  0  0  0  0  0 
    0.8942   -1.7120    0.2356 H   0  0  0  0  0  0  0  0  0  0  0  0 
    0.2808   -0.6292   -1.0337 H   0  0  0  0  0  0  0  0  0  0  0  0 
    0.7422    0.0359    0.5478 H   0  0  0  0  0  0  0  0  0  0  0  0 
    6.2202   -5.4849   -1.7769 H   0  0  0  0  0  0  0  0  0  0  0  0 
    6.0966   -4.1588    0.3097 H   0  0  0  0  0  0  0  0  0  0  0  0 
    4.7782   -4.9287   -3.7189 H   0  0  0  0  0  0  0  0  0  0  0  0 
    4.5382   -2.2543    0.5211 H   0  0  0  0  0  0  0  0  0  0  0  0 
    2.6606   -2.9876   -4.6253 H   0  0  0  0  0  0  0  0  0  0  0  0 
    1.5444   -0.9228   -3.2903 H   0  0  0  0  0  0  0  0  0  0  0  0 
    3.0389    2.7892   -2.8776 H   0  0  0  0  0  0  0  0  0  0  0  0 
    4.6295    3.1517   -2.1748 H   0  0  0  0  0  0  0  0  0  0  0  0 
    4.4312    1.1799   -0.6686 H   0  0  0  0  0  0  0  0  0  0  0  0 
    4.2409    0.6774   -2.3734 H   0  0  0  0  0  0  0  0  0  0  0  0 
    3.1255   -0.5818    0.1317 H   0  0  0  0  0  0  0  0  0  0  0  0 
    2.2667    3.0316   -0.6557 H   0  0  0  0  0  0  0  0  0  0  0  0 
  1 16  1  0  0  0  0 
  1 18  1  0  0  0  0 
  2  3  2  0  0  0  0 
  3  5  1  0  0  0  0 
  3 20  1  0  0  0  0 
  4 11  2  0  0  0  0 
  4  2  1  0  0  0  0 
  5 22  1  0  0  0  0 
  6  7  2  0  0  0  0 
  6 11  1  0  0  0  0 
  7 13  1  0  0  0  0 
  8  9  1  0  0  0  0 
  8 14  1  0  0  0  0 
  9 15  1  0  0  0  0 
  9 27  1  0  0  0  0 
 10  1  1  0  0  0  0 
 10 29  1  1  0  0  0 
 11 12  1  0  0  0  0 
 12  5  2  0  0  0  0 
 13 12  1  0  0  0  0 
 13 10  1  0  0  0  0 
 14 30  1  0  0  0  0 
 15 10  1  0  0  0  0 
 17  1  1  0  0  0  0 
 19  2  1  0  0  0  0 
 21  4  1  0  0  0  0 
 23  6  1  0  0  0  0 
 24  7  1  0  0  0  0 
 25  8  1  0  0  0  0 
 26  8  1  0  0  0  0 
 28  9  1  0  0  0  0 
M  END 
>  <HBA> 
3 
 
>  <HBD> 
1 
 
>  <TPSA> 
34.39 
 
>  <cid> 
58209 
 
>  <dipole> 
1.03 
 
>  <excitation_energy_1> 
4.652 
 
>  <excitation_energy_2> 
4.836 
 
>  <excitation_energy_3> 
5.08 
 
>  <excitation_energy_4> 
5.346 
 
>  <homo_energy> 
-5.505 
 
>  <homo_lumo_gap> 
5.295 
 
>  <logP> 
2.169 
 
>  <lumo_energy> 
-0.21 
 
>  <melting_point> 
58.49 
 
>  <molecular_refractivity> 
59.87 
 
>  <oscillator_strength_1> 
0.0824 
 
>  <oscillator_strength_2> 
0.0318 
 
>  <oscillator_strength_3> 
0.0054 
 
>  <oscillator_strength_4> 
0.0015 
 
>  <open_babel_can_smiles> 
OCCO[C@H](n1ccc2c1cccc2)C 
 
>  <mulliken_charges> 
30 
1   -0.45113 
2   -0.136214 
3   -0.153992 
4   -0.208341 
5   -0.16176 
6   -0.233459 
7   0.03089 
8   -0.040039 
9   -0.046784 
10   0.249576 
11   0.106194 
12   0.301197 
13   -0.522406 
14   -0.619063 
15   -0.495484 
16   0.16533 
17   0.164041 
18   0.159914 
19   0.120987 
20   0.123062 
21   0.125156 
22   0.126487 
23   0.130672 
24   0.158053 
25   0.132091 
26   0.150554 
27   0.137186 
28   0.151061 
29   0.138031 
30   0.398192 
 
>  <lowdin_charges> 
30 
1   -0.450467 
2   -0.175369 
3   -0.165559 
4   -0.160726 
5   -0.193973 
6   -0.218956 
7   -0.125319 
8   -0.138608 
9   -0.153536 
10   0.063873 
11   -0.02701 
12   0.025439 
13   -0.043336 
14   -0.46708 
15   -0.274942 
16   0.16493 
17   0.163122 
18   0.162486 
19   0.155143 
20   0.156395 
21   0.15675 
22   0.154648 
23   0.163154 
24   0.169716 
25   0.133203 
26   0.152821 
27   0.138549 
28   0.148493 
29   0.142536 
30   0.343622 
 
$$$$ 
 
