PCCDB-ID:  69223 
public computational chemistry database (PCCDB) project, http://pccdb.org 
 
 12 11  0  0  0  0  0  0  0  0999 V2000 
    1.9756    0.1704   -0.3120 C   0  0  0  0  0  0  0  0  0  0  0  0 
    5.0868    1.4034    0.9232 C   0  0  0  0  0  0  0  0  0  0  0  0 
    2.4269    2.1899    1.6758 O   0  0  0  0  0  0  0  0  0  0  0  0 
    2.1891    1.5214   -0.7634 O   0  0  0  0  0  0  0  0  0  0  0  0 
    4.4363    2.4239    0.1415 O   0  0  0  0  0  0  0  0  0  0  0  0 
    2.7893    2.6460    0.3177 S   0  0  0  0  0  0  0  0  0  0  0  0 
    1.1861   -0.2348   -0.9479 H   0  0  0  0  0  0  0  0  0  0  0  0 
    1.6586    0.1553    0.7341 H   0  0  0  0  0  0  0  0  0  0  0  0 
    2.8887   -0.4218   -0.4363 H   0  0  0  0  0  0  0  0  0  0  0  0 
    6.1191    1.7352    1.0493 H   0  0  0  0  0  0  0  0  0  0  0  0 
    5.0697    0.4476    0.3882 H   0  0  0  0  0  0  0  0  0  0  0  0 
    4.6071    1.2959    1.8997 H   0  0  0  0  0  0  0  0  0  0  0  0 
  1  8  1  0  0  0  0 
  2 10  1  0  0  0  0 
  2 12  1  0  0  0  0 
  4  1  1  0  0  0  0 
  4  6  1  0  0  0  0 
  5  6  1  0  0  0  0 
  5  2  1  0  0  0  0 
  6  3  2  0  0  0  0 
  7  1  1  0  0  0  0 
  9  1  1  0  0  0  0 
 11  2  1  0  0  0  0 
M  END 
>  <HBA> 
3 
 
>  <HBD> 
0 
 
>  <TPSA> 
54.74 
 
>  <cid> 
69223 
 
>  <dipole> 
2.27 
 
>  <excitation_energy_1> 
6.602 
 
>  <excitation_energy_2> 
6.778 
 
>  <excitation_energy_3> 
6.966 
 
>  <excitation_energy_4> 
7.02 
 
>  <homo_energy> 
-7.69 
 
>  <homo_lumo_gap> 
8.014 
 
>  <logP> 
0.724 
 
>  <lumo_energy> 
0.324 
 
>  <melting_point> 
-17.81 
 
>  <molecular_refractivity> 
22.18 
 
>  <oscillator_strength_1> 
0.0361 
 
>  <oscillator_strength_2> 
0.0043 
 
>  <oscillator_strength_3> 
0.023 
 
>  <oscillator_strength_4> 
0.0412 
 
>  <open_babel_can_smiles> 
COS(=O)OC 
 
>  <mulliken_charges> 
12 
1   -0.243831 
2   -0.244443 
3   -0.587274 
4   -0.535923 
5   -0.535227 
6   1.101441 
7   0.177528 
8   0.187994 
9   0.156813 
10   0.177581 
11   0.157502 
12   0.187839 
 
>  <lowdin_charges> 
12 
1   -0.291772 
2   -0.291766 
3   -0.601451 
4   -0.428646 
5   -0.429357 
6   1.081435 
7   0.167921 
8   0.165151 
9   0.148654 
10   0.165608 
11   0.148276 
12   0.165947 
 
$$$$ 
 
