PCCDB-ID:  40924 
public computational chemistry database (PCCDB) project, http://pccdb.org 
 
 23 23  0  0  1  0  0  0  0  0999 V2000 
    2.5353    1.6200   -0.0798 C   0  0  0  0  0  0  0  0  0  0  0  0 
    5.9740   -2.6144   -2.0584 C   0  0  0  0  0  0  0  0  0  0  0  0 
    2.6122    0.0902   -0.0625 C   0  0  0  0  0  0  0  0  0  0  0  0 
    4.8131   -0.5199   -2.9516 C   0  0  0  0  0  0  0  0  0  0  0  0 
    3.0510   -2.0366   -1.3940 C   0  0  0  0  0  0  0  0  0  0  0  0 
    4.8671   -2.0508   -2.9541 C   0  0  2  0  0  0  0  0  0  0  0  0 
    3.0401   -0.5076   -1.3997 C   0  0  2  0  0  0  0  0  0  0  0  0 
    3.5710   -2.5643   -2.6109 O   0  0  0  0  0  0  0  0  0  0  0  0 
    4.3575   -0.0298   -1.6961 O   0  0  0  0  0  0  0  0  0  0  0  0 
    2.2530    2.0097    0.9044 H   0  0  0  0  0  0  0  0  0  0  0  0 
    1.7905    1.9703   -0.8049 H   0  0  0  0  0  0  0  0  0  0  0  0 
    3.5020    2.0507   -0.3560 H   0  0  0  0  0  0  0  0  0  0  0  0 
    6.9580   -2.3674   -2.4739 H   0  0  0  0  0  0  0  0  0  0  0  0 
    5.8896   -3.7039   -1.9965 H   0  0  0  0  0  0  0  0  0  0  0  0 
    5.9260   -2.1981   -1.0477 H   0  0  0  0  0  0  0  0  0  0  0  0 
    1.6346   -0.3331    0.2063 H   0  0  0  0  0  0  0  0  0  0  0  0 
    3.3237   -0.2392    0.7061 H   0  0  0  0  0  0  0  0  0  0  0  0 
    4.1397   -0.1774   -3.7541 H   0  0  0  0  0  0  0  0  0  0  0  0 
    5.8047   -0.0854   -3.1162 H   0  0  0  0  0  0  0  0  0  0  0  0 
    2.0325   -2.4304   -1.3102 H   0  0  0  0  0  0  0  0  0  0  0  0 
    3.6297   -2.3963   -0.5288 H   0  0  0  0  0  0  0  0  0  0  0  0 
    5.0279   -2.3955   -3.9828 H   0  0  0  0  0  0  0  0  0  0  0  0 
    2.3564   -0.1686   -2.1990 H   0  0  0  0  0  0  0  0  0  0  0  0 
  1  3  1  0  0  0  0 
  1 10  1  0  0  0  0 
  2 14  1  0  0  0  0 
  2 15  1  0  0  0  0 
  3 16  1  0  0  0  0 
  3 17  1  0  0  0  0 
  4  9  1  0  0  0  0 
  5 20  1  0  0  0  0 
  5 21  1  0  0  0  0 
  6 22  1  6  0  0  0 
  6  4  1  0  0  0  0 
  6  8  1  0  0  0  0 
  6  2  1  0  0  0  0 
  7 23  1  6  0  0  0 
  7  5  1  0  0  0  0 
  7  3  1  0  0  0  0 
  8  5  1  0  0  0  0 
  9  7  1  0  0  0  0 
 11  1  1  0  0  0  0 
 12  1  1  0  0  0  0 
 13  2  1  0  0  0  0 
 18  4  1  0  0  0  0 
 19  4  1  0  0  0  0 
M  END 
>  <HBA> 
2 
 
>  <HBD> 
0 
 
>  <TPSA> 
18.46 
 
>  <cid> 
40924 
 
>  <dipole> 
0.24 
 
>  <excitation_energy_1> 
5.97 
 
>  <excitation_energy_2> 
6.304 
 
>  <excitation_energy_3> 
6.348 
 
>  <excitation_energy_4> 
6.626 
 
>  <homo_energy> 
-6.299 
 
>  <homo_lumo_gap> 
8.705 
 
>  <logP> 
1.2 
 
>  <lumo_energy> 
2.406 
 
>  <melting_point> 
-22.55 
 
>  <molecular_refractivity> 
35.82 
 
>  <oscillator_strength_1> 
0.0114 
 
>  <oscillator_strength_2> 
0.0252 
 
>  <oscillator_strength_3> 
0.0121 
 
>  <oscillator_strength_4> 
0.0074 
 
>  <open_babel_can_smiles> 
CC[C@@H]1CO[C@@H](CO1)C 
 
>  <mulliken_charges> 
23 
1   -0.446044 
2   -0.465628 
3   -0.270891 
4   -0.038765 
5   -0.035766 
6   0.129533 
7   0.136069 
8   -0.489594 
9   -0.488586 
10   0.141594 
11   0.139533 
12   0.168215 
13   0.142021 
14   0.157151 
15   0.159984 
16   0.133637 
17   0.142398 
18   0.128252 
19   0.142037 
20   0.141364 
21   0.126719 
22   0.132426 
23   0.114342 
 
>  <lowdin_charges> 
23 
1   -0.44495 
2   -0.459551 
3   -0.278707 
4   -0.146611 
5   -0.149141 
6   -0.010795 
7   -0.013601 
8   -0.27847 
9   -0.276353 
10   0.149591 
11   0.147204 
12   0.159841 
13   0.153369 
14   0.156778 
15   0.155526 
16   0.145952 
17   0.148836 
18   0.134334 
19   0.150332 
20   0.15054 
21   0.132815 
22   0.145557 
23   0.127503 
 
$$$$ 
 
