PCCDB-ID:  70296 
public computational chemistry database (PCCDB) project, http://pccdb.org 
 
 25 25  0  0  0  0  0  0  0  0999 V2000 
    2.6828   -0.5647   -1.1765 C   0  0  0  0  0  0  0  0  0  0  0  0 
    6.9071    3.7863    0.2160 C   0  0  0  0  0  0  0  0  0  0  0  0 
    2.3804   -0.0069    0.2259 C   0  0  0  0  0  0  0  0  0  0  0  0 
    5.9935    3.3678    1.3825 C   0  0  0  0  0  0  0  0  0  0  0  0 
    1.9470    2.4932    0.1239 C   0  0  0  0  0  0  0  0  0  0  0  0 
    2.3683    3.8168    0.2540 C   0  0  0  0  0  0  0  0  0  0  0  0 
    4.1181    1.7497    0.8120 C   0  0  0  0  0  0  0  0  0  0  0  0 
    2.8157    1.4335    0.3996 C   0  0  0  0  0  0  0  0  0  0  0  0 
    4.5758    3.0620    0.9514 C   0  0  0  0  0  0  0  0  0  0  0  0 
    3.6725    4.1004    0.6619 C   0  0  0  0  0  0  0  0  0  0  0  0 
    4.1274    5.3892    0.8088 O   0  0  0  0  0  0  0  0  0  0  0  0 
    2.3574   -1.6081   -1.2642 H   0  0  0  0  0  0  0  0  0  0  0  0 
    3.7567   -0.5244   -1.3914 H   0  0  0  0  0  0  0  0  0  0  0  0 
    2.1688    0.0182   -1.9493 H   0  0  0  0  0  0  0  0  0  0  0  0 
    7.9234    3.9903    0.5734 H   0  0  0  0  0  0  0  0  0  0  0  0 
    6.5280    4.6923   -0.2664 H   0  0  0  0  0  0  0  0  0  0  0  0 
    6.9654    2.9955   -0.5406 H   0  0  0  0  0  0  0  0  0  0  0  0 
    2.8792   -0.6342    0.9760 H   0  0  0  0  0  0  0  0  0  0  0  0 
    1.3035   -0.0907    0.4207 H   0  0  0  0  0  0  0  0  0  0  0  0 
    5.9833    4.1708    2.1293 H   0  0  0  0  0  0  0  0  0  0  0  0 
    6.4134    2.4817    1.8742 H   0  0  0  0  0  0  0  0  0  0  0  0 
    0.9258    2.2884   -0.1904 H   0  0  0  0  0  0  0  0  0  0  0  0 
    1.6789    4.6333    0.0426 H   0  0  0  0  0  0  0  0  0  0  0  0 
    4.8081    0.9389    1.0425 H   0  0  0  0  0  0  0  0  0  0  0  0 
    3.4063    5.9994    0.5904 H   0  0  0  0  0  0  0  0  0  0  0  0 
  1  3  1  0  0  0  0 
  2 15  1  0  0  0  0 
  2  4  1  0  0  0  0 
  3  8  1  0  0  0  0 
  3 19  1  0  0  0  0 
  3 18  1  0  0  0  0 
  4 21  1  0  0  0  0 
  4 20  1  0  0  0  0 
  5  6  2  0  0  0  0 
  5  8  1  0  0  0  0 
  6 10  1  0  0  0  0 
  7  9  1  0  0  0  0 
  7 24  1  0  0  0  0 
  8  7  2  0  0  0  0 
  9  4  1  0  0  0  0 
 10 11  1  0  0  0  0 
 10  9  2  0  0  0  0 
 12  1  1  0  0  0  0 
 13  1  1  0  0  0  0 
 14  1  1  0  0  0  0 
 16  2  1  0  0  0  0 
 17  2  1  0  0  0  0 
 22  5  1  0  0  0  0 
 23  6  1  0  0  0  0 
 25 11  1  0  0  0  0 
M  END 
>  <HBA> 
1 
 
>  <HBD> 
1 
 
>  <TPSA> 
20.23 
 
>  <cid> 
70296 
 
>  <dipole> 
1.2 
 
>  <excitation_energy_1> 
4.89 
 
>  <excitation_energy_2> 
4.965 
 
>  <excitation_energy_3> 
5.384 
 
>  <excitation_energy_4> 
5.606 
 
>  <homo_energy> 
-5.657 
 
>  <homo_lumo_gap> 
5.807 
 
>  <logP> 
2.517 
 
>  <lumo_energy> 
0.15 
 
>  <melting_point> 
51.64 
 
>  <molecular_refractivity> 
48.01 
 
>  <oscillator_strength_1> 
0.0451 
 
>  <oscillator_strength_2> 
0.0022 
 
>  <oscillator_strength_3> 
0.0555 
 
>  <oscillator_strength_4> 
0.011 
 
>  <open_babel_can_smiles> 
CCc1ccc(c(c1)CC)O 
 
>  <mulliken_charges> 
25 
1   -0.431222 
2   -0.439142 
3   -0.340594 
4   -0.32672 
5   -0.197257 
6   -0.184942 
7   -0.261926 
8   0.188738 
9   0.152456 
10   0.287 
11   -0.648945 
12   0.140238 
13   0.147643 
14   0.146669 
15   0.138696 
16   0.162501 
17   0.142308 
18   0.14082 
19   0.138963 
20   0.155262 
21   0.135103 
22   0.120184 
23   0.11298 
24   0.114976 
25   0.406212 
 
>  <lowdin_charges> 
25 
1   -0.439587 
2   -0.442185 
3   -0.269355 
4   -0.268922 
5   -0.160985 
6   -0.213906 
7   -0.168884 
8   -0.018991 
9   -0.027337 
10   0.091705 
11   -0.388001 
12   0.14624 
13   0.148026 
14   0.150419 
15   0.146379 
16   0.156685 
17   0.147407 
18   0.148652 
19   0.144845 
20   0.156745 
21   0.146411 
22   0.152873 
23   0.151462 
24   0.152635 
25   0.357667 
 
$$$$ 
 
