PCCDB-ID:  16488 
public computational chemistry database (PCCDB) project, http://pccdb.org 
 
 23 23  0  0  0  0  0  0  0  0999 V2000 
    3.9960   -0.7299    1.3545 C   0  0  0  0  0  0  0  0  0  0  0  0 
    4.1930   -3.3219   -2.9906 C   0  0  0  0  0  0  0  0  0  0  0  0 
    4.3355   -1.5138   -1.3872 C   0  0  0  0  0  0  0  0  0  0  0  0 
    4.4775   -1.9909   -2.7055 C   0  0  0  0  0  0  0  0  0  0  0  0 
    3.7460   -4.2065   -1.9953 C   0  0  0  0  0  0  0  0  0  0  0  0 
    3.8940   -2.3679   -0.3939 C   0  0  0  0  0  0  0  0  0  0  0  0 
    3.5958   -3.7158   -0.6958 C   0  0  0  0  0  0  0  0  0  0  0  0 
    4.9712   -1.0055   -3.7222 C   0  0  0  0  0  0  0  0  0  0  0  0 
    3.4667   -5.6253   -2.4228 C   0  0  0  0  0  0  0  0  0  0  0  0 
    3.1651   -4.5242    0.3150 O   0  0  0  0  0  0  0  0  0  0  0  0 
    5.4505    0.0630   -3.4172 O   0  0  0  0  0  0  0  0  0  0  0  0 
    4.8612   -1.3488   -5.0294 O   0  0  0  0  0  0  0  0  0  0  0  0 
    3.6120   -5.9755   -3.5733 O   0  0  0  0  0  0  0  0  0  0  0  0 
    3.0466   -6.4981   -1.4885 O   0  0  0  0  0  0  0  0  0  0  0  0 
    3.6957   -2.0567    0.9242 O   0  0  0  0  0  0  0  0  0  0  0  0 
    3.7787   -0.7060    2.4229 H   0  0  0  0  0  0  0  0  0  0  0  0 
    3.3669    0.0011    0.8337 H   0  0  0  0  0  0  0  0  0  0  0  0 
    5.0528   -0.4939    1.1854 H   0  0  0  0  0  0  0  0  0  0  0  0 
    4.3252   -3.7581   -3.9763 H   0  0  0  0  0  0  0  0  0  0  0  0 
    4.5843   -0.4780   -1.1903 H   0  0  0  0  0  0  0  0  0  0  0  0 
    3.1453   -3.9947    1.1345 H   0  0  0  0  0  0  0  0  0  0  0  0 
    4.3570   -2.1726   -5.1287 H   0  0  0  0  0  0  0  0  0  0  0  0 
    2.9793   -6.0695   -0.6133 H   0  0  0  0  0  0  0  0  0  0  0  0 
  1 16  1  0  0  0  0 
  2  4  2  0  0  0  0 
  2  5  1  0  0  0  0 
  3 20  1  0  0  0  0 
  3  6  2  0  0  0  0 
  4  3  1  0  0  0  0 
  5  7  2  0  0  0  0 
  6 15  1  0  0  0  0 
  7  6  1  0  0  0  0 
  7 10  1  0  0  0  0 
  8 11  2  0  0  0  0 
  8  4  1  0  0  0  0 
  9  5  1  0  0  0  0 
  9 14  1  0  0  0  0 
 10 21  1  0  0  0  0 
 12  8  1  0  0  0  0 
 13  9  2  0  0  0  0 
 14 23  1  0  0  0  0 
 15  1  1  0  0  0  0 
 17  1  1  0  0  0  0 
 18  1  1  0  0  0  0 
 19  2  1  0  0  0  0 
 22 12  1  0  0  0  0 
M  END 
>  <HBA> 
6 
 
>  <HBD> 
3 
 
>  <TPSA> 
104.06 
 
>  <cid> 
16488 
 
>  <dipole> 
6.78 
 
>  <excitation_energy_1> 
4.394 
 
>  <excitation_energy_2> 
4.656 
 
>  <excitation_energy_3> 
4.746 
 
>  <excitation_energy_4> 
4.955 
 
>  <homo_energy> 
-6.833 
 
>  <homo_lumo_gap> 
5.089 
 
>  <logP> 
0.797 
 
>  <lumo_energy> 
-1.744 
 
>  <melting_point> 
234.06 
 
>  <molecular_refractivity> 
48.88 
 
>  <oscillator_strength_1> 
0.0458 
 
>  <oscillator_strength_2> 
0.0009 
 
>  <oscillator_strength_3> 
0.0087 
 
>  <oscillator_strength_4> 
0.0584 
 
>  <open_babel_can_smiles> 
COc1cc(cc(c1O)C(=O)O)C(=O)O 
 
>  <mulliken_charges> 
23 
1   -0.224046 
2   -0.265927 
3   -0.23094 
4   0.058633 
5   0.016618 
6   0.38024 
7   0.253215 
8   0.566519 
9   0.589469 
10   -0.689331 
11   -0.456478 
12   -0.575962 
13   -0.460951 
14   -0.596496 
15   -0.561898 
16   0.181447 
17   0.172867 
18   0.175285 
19   0.168976 
20   0.182786 
21   0.448654 
22   0.422527 
23   0.444791 
 
>  <lowdin_charges> 
23 
1   -0.270814 
2   -0.142268 
3   -0.163934 
4   -0.062166 
5   -0.080017 
6   0.065596 
7   0.095533 
8   0.195084 
9   0.19552 
10   -0.371358 
11   -0.247617 
12   -0.3476 
13   -0.253211 
14   -0.350021 
15   -0.217823 
16   0.168087 
17   0.15904 
18   0.157464 
19   0.179009 
20   0.188608 
21   0.377926 
22   0.361892 
23   0.363069 
 
$$$$ 
 
