PCCDB-ID:  13572 
public computational chemistry database (PCCDB) project, http://pccdb.org 
 
 25 24  0  0  0  0  0  0  0  0999 V2000 
    3.2633    1.7359    0.2042 C   0  0  0  0  0  0  0  0  0  0  0  0 
    1.1906    0.3645    0.6497 C   0  0  0  0  0  0  0  0  0  0  0  0 
    6.5498   -3.0753   -3.6054 C   0  0  0  0  0  0  0  0  0  0  0  0 
    4.5116   -0.8788   -1.0331 C   0  0  0  0  0  0  0  0  0  0  0  0 
    3.0197   -0.6051   -0.8022 C   0  0  0  0  0  0  0  0  0  0  0  0 
    4.7600   -1.8634   -2.1774 C   0  0  0  0  0  0  0  0  0  0  0  0 
    2.7043    0.3174    0.3928 C   0  0  0  0  0  0  0  0  0  0  0  0 
    6.2341   -2.1628   -2.4301 C   0  0  0  0  0  0  0  0  0  0  0  0 
    7.1154   -1.6950   -1.7337 O   0  0  0  0  0  0  0  0  0  0  0  0 
    3.0145    2.3712    1.0625 H   0  0  0  0  0  0  0  0  0  0  0  0 
    2.8366    2.2071   -0.6916 H   0  0  0  0  0  0  0  0  0  0  0  0 
    4.3530    1.7394    0.0970 H   0  0  0  0  0  0  0  0  0  0  0  0 
    0.9539    0.9893    1.5191 H   0  0  0  0  0  0  0  0  0  0  0  0 
    0.7845   -0.6371    0.8356 H   0  0  0  0  0  0  0  0  0  0  0  0 
    0.6587    0.7842   -0.2144 H   0  0  0  0  0  0  0  0  0  0  0  0 
    5.9805   -4.0107   -3.5416 H   0  0  0  0  0  0  0  0  0  0  0  0 
    7.6193   -3.2940   -3.6274 H   0  0  0  0  0  0  0  0  0  0  0  0 
    6.2610   -2.5905   -4.5469 H   0  0  0  0  0  0  0  0  0  0  0  0 
    4.9657   -1.2764   -0.1168 H   0  0  0  0  0  0  0  0  0  0  0  0 
    5.0480    0.0518   -1.2499 H   0  0  0  0  0  0  0  0  0  0  0  0 
    2.5029   -1.5641   -0.6473 H   0  0  0  0  0  0  0  0  0  0  0  0 
    2.5794   -0.1691   -1.7130 H   0  0  0  0  0  0  0  0  0  0  0  0 
    4.3194   -1.4948   -3.1167 H   0  0  0  0  0  0  0  0  0  0  0  0 
    4.2517   -2.8215   -1.9858 H   0  0  0  0  0  0  0  0  0  0  0  0 
    3.1828   -0.1185    1.2836 H   0  0  0  0  0  0  0  0  0  0  0  0 
  1  7  1  0  0  0  0 
  1 10  1  0  0  0  0 
  2 14  1  0  0  0  0 
  2 13  1  0  0  0  0 
  3 16  1  0  0  0  0 
  3  8  1  0  0  0  0 
  4  5  1  0  0  0  0 
  4 19  1  0  0  0  0 
  5 21  1  0  0  0  0 
  5  7  1  0  0  0  0 
  6 24  1  0  0  0  0 
  6  4  1  0  0  0  0 
  7  2  1  0  0  0  0 
  7 25  1  0  0  0  0 
  8  6  1  0  0  0  0 
  8  9  2  0  0  0  0 
 11  1  1  0  0  0  0 
 12  1  1  0  0  0  0 
 15  2  1  0  0  0  0 
 17  3  1  0  0  0  0 
 18  3  1  0  0  0  0 
 20  4  1  0  0  0  0 
 22  5  1  0  0  0  0 
 23  6  1  0  0  0  0 
M  END 
>  <HBA> 
1 
 
>  <HBD> 
0 
 
>  <TPSA> 
17.07 
 
>  <cid> 
13572 
 
>  <dipole> 
2.55 
 
>  <excitation_energy_1> 
4.426 
 
>  <excitation_energy_2> 
6.143 
 
>  <excitation_energy_3> 
6.669 
 
>  <excitation_energy_4> 
6.915 
 
>  <homo_energy> 
-6.593 
 
>  <homo_lumo_gap> 
6.338 
 
>  <logP> 
2.402 
 
>  <lumo_energy> 
-0.256 
 
>  <melting_point> 
-6.5 
 
>  <molecular_refractivity> 
40.77 
 
>  <oscillator_strength_1> 
0.0001 
 
>  <oscillator_strength_2> 
0.0322 
 
>  <oscillator_strength_3> 
0.0011 
 
>  <oscillator_strength_4> 
0.0104 
 
>  <open_babel_can_smiles> 
CC(CCCC(=O)C)C 
 
>  <mulliken_charges> 
25 
1   -0.446536 
2   -0.442102 
3   -0.528195 
4   -0.25187 
5   -0.250098 
6   -0.358621 
7   -0.065451 
8   0.454033 
9   -0.436762 
10   0.140188 
11   0.135915 
12   0.150264 
13   0.140065 
14   0.138141 
15   0.137375 
16   0.164061 
17   0.179205 
18   0.168978 
19   0.147645 
20   0.150671 
21   0.12216 
22   0.121048 
23   0.152775 
24   0.154979 
25   0.122132 
 
>  <lowdin_charges> 
25 
1   -0.446341 
2   -0.445313 
3   -0.476062 
4   -0.27356 
5   -0.276402 
6   -0.31094 
7   -0.120185 
8   0.16809 
9   -0.236811 
10   0.149213 
11   0.144661 
12   0.149298 
13   0.148427 
14   0.145871 
15   0.1455 
16   0.166679 
17   0.171009 
18   0.170341 
19   0.150654 
20   0.150983 
21   0.137004 
22   0.13543 
23   0.157603 
24   0.158691 
25   0.136161 
 
$$$$ 
 
