PCCDB-ID:  44240 
public computational chemistry database (PCCDB) project, http://pccdb.org 
 
 39 39  0  0  0  0  0  0  0  0999 V2000 
    1.9952   -1.1753    1.3180 C   0  0  0  0  0  0  0  0  0  0  0  0 
    1.6388   -0.8442   -2.9182 C   0  0  0  0  0  0  0  0  0  0  0  0 
    2.3121   -0.2879    0.1127 C   0  0  0  0  0  0  0  0  0  0  0  0 
    2.9337   -0.3915   -2.2403 C   0  0  0  0  0  0  0  0  0  0  0  0 
    6.0977   -5.3520   -1.2513 C   0  0  0  0  0  0  0  0  0  0  0  0 
    7.0868   -5.4778    0.9364 C   0  0  0  0  0  0  0  0  0  0  0  0 
    5.6990   -6.6797   -1.1526 C   0  0  0  0  0  0  0  0  0  0  0  0 
    6.6828   -6.8025    1.0494 C   0  0  0  0  0  0  0  0  0  0  0  0 
    5.2101   -2.3199   -1.0883 C   0  0  0  0  0  0  0  0  0  0  0  0 
    4.5352   -1.0546   -0.5350 C   0  0  0  0  0  0  0  0  0  0  0  0 
    6.7970   -4.7202   -0.2110 C   0  0  0  0  0  0  0  0  0  0  0  0 
    5.9792   -7.4281    0.0046 C   0  0  0  0  0  0  0  0  0  0  0  0 
    7.2593   -3.3039   -0.3241 C   0  0  0  0  0  0  0  0  0  0  0  0 
    5.5238   -8.7381    0.1348 N   0  0  0  0  0  0  0  0  0  0  0  0 
    8.5484   -3.0983    0.1818 N   0  0  0  0  0  0  0  0  0  0  0  0 
    6.6251   -2.2822   -0.7695 N   0  0  0  0  0  0  0  0  0  0  0  0 
    3.1175   -0.9723   -0.9050 N   0  0  0  0  0  0  0  0  0  0  0  0 
    1.3740   -0.6321    2.0402 H   0  0  0  0  0  0  0  0  0  0  0  0 
    2.9018   -1.4992    1.8407 H   0  0  0  0  0  0  0  0  0  0  0  0 
    1.4560   -2.0724    0.9966 H   0  0  0  0  0  0  0  0  0  0  0  0 
    1.5590   -0.4081   -3.9212 H   0  0  0  0  0  0  0  0  0  0  0  0 
    0.7488   -0.5400   -2.3561 H   0  0  0  0  0  0  0  0  0  0  0  0 
    1.6200   -1.9354   -3.0081 H   0  0  0  0  0  0  0  0  0  0  0  0 
    2.7987    0.6494    0.4484 H   0  0  0  0  0  0  0  0  0  0  0  0 
    1.3661    0.0110   -0.3513 H   0  0  0  0  0  0  0  0  0  0  0  0 
    2.9790    0.7155   -2.2083 H   0  0  0  0  0  0  0  0  0  0  0  0 
    3.7771   -0.7096   -2.8624 H   0  0  0  0  0  0  0  0  0  0  0  0 
    5.8819   -4.8024   -2.1624 H   0  0  0  0  0  0  0  0  0  0  0  0 
    7.6279   -5.0101    1.7535 H   0  0  0  0  0  0  0  0  0  0  0  0 
    5.1621   -7.1465   -1.9755 H   0  0  0  0  0  0  0  0  0  0  0  0 
    6.9032   -7.3619    1.9561 H   0  0  0  0  0  0  0  0  0  0  0  0 
    5.0885   -2.3408   -2.1824 H   0  0  0  0  0  0  0  0  0  0  0  0 
    4.6790   -3.1979   -0.6938 H   0  0  0  0  0  0  0  0  0  0  0  0 
    5.1036   -0.1654   -0.8624 H   0  0  0  0  0  0  0  0  0  0  0  0 
    4.6167   -1.0852    0.5560 H   0  0  0  0  0  0  0  0  0  0  0  0 
    5.3414   -9.2260   -0.7328 H   0  0  0  0  0  0  0  0  0  0  0  0 
    6.0305   -9.3135    0.7953 H   0  0  0  0  0  0  0  0  0  0  0  0 
    9.2220   -3.8221   -0.0413 H   0  0  0  0  0  0  0  0  0  0  0  0 
    8.8855   -2.1628   -0.0211 H   0  0  0  0  0  0  0  0  0  0  0  0 
  1 19  1  0  0  0  0 
  1 18  1  0  0  0  0 
  2 22  1  0  0  0  0 
  2  4  1  0  0  0  0 
  3 24  1  0  0  0  0 
  3  1  1  0  0  0  0 
  4 26  1  0  0  0  0 
  4 17  1  0  0  0  0 
  5  7  2  0  0  0  0 
  5 11  1  0  0  0  0 
  6  8  1  0  0  0  0 
  6 29  1  0  0  0  0 
  7 12  1  0  0  0  0 
  8 31  1  0  0  0  0 
  9 16  1  0  0  0  0 
  9 33  1  0  0  0  0 
  9 10  1  0  0  0  0 
 10 35  1  0  0  0  0 
 11  6  2  0  0  0  0 
 12 14  1  0  0  0  0 
 12  8  2  0  0  0  0 
 13 11  1  0  0  0  0 
 13 15  1  0  0  0  0 
 14 37  1  0  0  0  0 
 16 13  2  0  0  0  0 
 17 10  1  0  0  0  0 
 17  3  1  0  0  0  0 
 20  1  1  0  0  0  0 
 21  2  1  0  0  0  0 
 23  2  1  0  0  0  0 
 25  3  1  0  0  0  0 
 27  4  1  0  0  0  0 
 28  5  1  0  0  0  0 
 30  7  1  0  0  0  0 
 32  9  1  0  0  0  0 
 34 10  1  0  0  0  0 
 36 14  1  0  0  0  0 
 38 15  1  0  0  0  0 
 39 15  1  0  0  0  0 
M  END 
>  <HBA> 
4 
 
>  <HBD> 
2 
 
>  <TPSA> 
67.64 
 
>  <cid> 
44240 
 
>  <dipole> 
4.04 
 
>  <excitation_energy_1> 
4.376 
 
>  <excitation_energy_2> 
4.516 
 
>  <excitation_energy_3> 
4.694 
 
>  <excitation_energy_4> 
4.757 
 
>  <homo_energy> 
-5.249 
 
>  <homo_lumo_gap> 
5.061 
 
>  <logP> 
2.597 
 
>  <lumo_energy> 
-0.188 
 
>  <melting_point> 
128.07 
 
>  <molecular_refractivity> 
73.94 
 
>  <oscillator_strength_1> 
0.0316 
 
>  <oscillator_strength_2> 
0.0091 
 
>  <oscillator_strength_3> 
0.0083 
 
>  <oscillator_strength_4> 
0.0795 
 
>  <open_babel_can_smiles> 
CCN(CC/N=C(\c1ccc(cc1)N)/N)CC 
 
>  <mulliken_charges> 
39 
1   -0.439204 
2   -0.438869 
3   -0.11906 
4   -0.120452 
5   -0.171009 
6   -0.176576 
7   -0.180256 
8   -0.176924 
9   -0.14443 
10   -0.128624 
11   0.076335 
12   0.32339 
13   0.365788 
14   -0.789203 
15   -0.738155 
16   -0.463204 
17   -0.379491 
18   0.134071 
19   0.148475 
20   0.151772 
21   0.134981 
22   0.14401 
23   0.151048 
24   0.11117 
25   0.13336 
26   0.110141 
27   0.138708 
28   0.143233 
29   0.14777 
30   0.120759 
31   0.120069 
32   0.128022 
33   0.139117 
34   0.12239 
35   0.137771 
36   0.323358 
37   0.323194 
38   0.314462 
39   0.322063 
 
>  <lowdin_charges> 
39 
1   -0.451792 
2   -0.447923 
3   -0.196759 
4   -0.194994 
5   -0.138812 
6   -0.1441 
7   -0.202591 
8   -0.202795 
9   -0.208813 
10   -0.204263 
11   -0.061392 
12   0.069414 
13   0.092641 
14   -0.48508 
15   -0.488951 
16   -0.247355 
17   -0.19408 
18   0.148579 
19   0.149274 
20   0.1533 
21   0.147004 
22   0.146799 
23   0.150396 
24   0.117568 
25   0.142563 
26   0.114825 
27   0.145313 
28   0.165572 
29   0.168705 
30   0.155502 
31   0.154427 
32   0.132169 
33   0.137613 
34   0.127086 
35   0.143636 
36   0.277934 
37   0.279262 
38   0.273676 
39   0.276441 
 
$$$$ 
 
