PCCDB-ID:  34733 
public computational chemistry database (PCCDB) project, http://pccdb.org 
 
 32 32  0  0  1  0  0  0  0  0999 V2000 
    0.8402   -0.2606   -0.6019 C   0  0  0  0  0  0  0  0  0  0  0  0 
    3.8296    0.6094   -2.7747 C   0  0  0  0  0  0  0  0  0  0  0  0 
    2.2720    2.4066    2.8709 C   0  0  0  0  0  0  0  0  0  0  0  0 
    3.8240    3.7335    1.3961 C   0  0  0  0  0  0  0  0  0  0  0  0 
    2.3136   -0.3663   -0.1960 C   0  0  0  0  0  0  0  0  0  0  0  0 
    3.1613    1.5157   -1.7340 C   0  0  0  0  0  0  0  0  0  0  0  0 
    4.5063    0.8042    0.3415 C   0  0  0  0  0  0  0  0  0  0  0  0 
    4.2837    1.2438    1.7953 C   0  0  2  0  0  0  0  0  0  0  0  0 
    3.2039    2.3525    1.6607 C   0  0  0  0  0  0  0  0  0  0  0  0 
    3.1119    0.9542   -0.3008 C   0  0  0  0  0  0  0  0  0  0  0  0 
    5.4514    1.6140    2.5085 O   0  0  0  0  0  0  0  0  0  0  0  0 
    2.4315    1.9519    0.5131 O   0  0  0  0  0  0  0  0  0  0  0  0 
    0.3127   -1.1956   -0.3823 H   0  0  0  0  0  0  0  0  0  0  0  0 
    0.7208   -0.0621   -1.6731 H   0  0  0  0  0  0  0  0  0  0  0  0 
    0.3499    0.5476   -0.0512 H   0  0  0  0  0  0  0  0  0  0  0  0 
    3.8789    1.1140   -3.7460 H   0  0  0  0  0  0  0  0  0  0  0  0 
    3.2779   -0.3259   -2.9198 H   0  0  0  0  0  0  0  0  0  0  0  0 
    4.8555    0.3485   -2.4874 H   0  0  0  0  0  0  0  0  0  0  0  0 
    2.8408    2.6378    3.7787 H   0  0  0  0  0  0  0  0  0  0  0  0 
    1.7717    1.4423    3.0087 H   0  0  0  0  0  0  0  0  0  0  0  0 
    1.5019    3.1742    2.7378 H   0  0  0  0  0  0  0  0  0  0  0  0 
    4.3613    4.1038    2.2762 H   0  0  0  0  0  0  0  0  0  0  0  0 
    3.0307    4.4469    1.1523 H   0  0  0  0  0  0  0  0  0  0  0  0 
    4.5165    3.7131    0.5456 H   0  0  0  0  0  0  0  0  0  0  0  0 
    2.8158   -1.1346   -0.7986 H   0  0  0  0  0  0  0  0  0  0  0  0 
    2.3713   -0.7113    0.8447 H   0  0  0  0  0  0  0  0  0  0  0  0 
    2.1380    1.7521   -2.0479 H   0  0  0  0  0  0  0  0  0  0  0  0 
    3.6909    2.4759   -1.6898 H   0  0  0  0  0  0  0  0  0  0  0  0 
    4.9079   -0.2107    0.2698 H   0  0  0  0  0  0  0  0  0  0  0  0 
    5.2304    1.4783   -0.1374 H   0  0  0  0  0  0  0  0  0  0  0  0 
    3.8632    0.4152    2.3748 H   0  0  0  0  0  0  0  0  0  0  0  0 
    5.9131    2.2901    1.9877 H   0  0  0  0  0  0  0  0  0  0  0  0 
  1 13  1  0  0  0  0 
  1  5  1  0  0  0  0 
  1 15  1  0  0  0  0 
  2 18  1  0  0  0  0 
  2  6  1  0  0  0  0 
  3 20  1  0  0  0  0 
  3 19  1  0  0  0  0 
  4  9  1  0  0  0  0 
  4 22  1  0  0  0  0 
  5 26  1  0  0  0  0 
  6 28  1  0  0  0  0 
  6 10  1  0  0  0  0 
  7  8  1  0  0  0  0 
  8 31  1  1  0  0  0 
  8 11  1  0  0  0  0 
  9  8  1  0  0  0  0 
  9  3  1  0  0  0  0 
 10  5  1  0  0  0  0 
 10  7  1  0  0  0  0 
 10 12  1  0  0  0  0 
 12  9  1  0  0  0  0 
 14  1  1  0  0  0  0 
 16  2  1  0  0  0  0 
 17  2  1  0  0  0  0 
 21  3  1  0  0  0  0 
 23  4  1  0  0  0  0 
 24  4  1  0  0  0  0 
 25  5  1  0  0  0  0 
 27  6  1  0  0  0  0 
 29  7  1  0  0  0  0 
 30  7  1  0  0  0  0 
 32 11  1  0  0  0  0 
M  END 
>  <HBA> 
2 
 
>  <HBD> 
1 
 
>  <TPSA> 
29.46 
 
>  <cid> 
34733 
 
>  <dipole> 
1.31 
 
>  <excitation_energy_1> 
5.995 
 
>  <excitation_energy_2> 
6.339 
 
>  <excitation_energy_3> 
6.408 
 
>  <excitation_energy_4> 
6.479 
 
>  <homo_energy> 
-6.512 
 
>  <homo_lumo_gap> 
8.316 
 
>  <logP> 
2.105 
 
>  <lumo_energy> 
1.804 
 
>  <melting_point> 
25.07 
 
>  <molecular_refractivity> 
50.39 
 
>  <oscillator_strength_1> 
0.0217 
 
>  <oscillator_strength_2> 
0.0089 
 
>  <oscillator_strength_3> 
0.0048 
 
>  <oscillator_strength_4> 
0.0111 
 
>  <open_babel_can_smiles> 
CCC1(CC)C[C@H](C(O1)(C)C)O 
 
>  <mulliken_charges> 
32 
1   -0.455484 
2   -0.460376 
3   -0.459668 
4   -0.482752 
5   -0.269859 
6   -0.274459 
7   -0.347701 
8   0.100887 
9   0.342918 
10   0.35892 
11   -0.626757 
12   -0.558751 
13   0.138889 
14   0.142145 
15   0.16737 
16   0.14735 
17   0.150276 
18   0.145485 
19   0.150932 
20   0.145919 
21   0.148916 
22   0.14763 
23   0.160922 
24   0.133396 
25   0.130658 
26   0.13172 
27   0.147849 
28   0.13144 
29   0.154286 
30   0.125627 
31   0.141735 
32   0.390539 
 
>  <lowdin_charges> 
32 
1   -0.449262 
2   -0.448794 
3   -0.448041 
4   -0.465802 
5   -0.284492 
6   -0.280988 
7   -0.307938 
8   -0.018081 
9   0.110853 
10   0.12572 
11   -0.449883 
12   -0.279898 
13   0.149532 
14   0.144192 
15   0.160685 
16   0.153269 
17   0.149446 
18   0.146219 
19   0.156716 
20   0.152354 
21   0.154997 
22   0.1535 
23   0.16335 
24   0.143422 
25   0.143424 
26   0.141262 
27   0.150328 
28   0.143062 
29   0.15745 
30   0.142609 
31   0.148648 
32   0.34214 
 
$$$$ 
 
