PCCDB-ID:  23156 
public computational chemistry database (PCCDB) project, http://pccdb.org 
 
 27 28  0  0  0  0  0  0  0  0999 V2000 
    2.6527    0.5370   -0.4607 C   0  0  0  0  0  0  0  0  0  0  0  0 
    2.6088   -0.8498   -0.2916 C   0  0  0  0  0  0  0  0  0  0  0  0 
    1.4820    1.2816   -0.3528 C   0  0  0  0  0  0  0  0  0  0  0  0 
    1.3963   -1.4735   -0.0138 C   0  0  0  0  0  0  0  0  0  0  0  0 
   -1.0176    1.4720    0.0422 C   0  0  0  0  0  0  0  0  0  0  0  0 
   -2.2335    0.6093   -0.2897 C   0  0  0  0  0  0  0  0  0  0  0  0 
   -2.8808   -3.2550    2.0703 C   0  0  0  0  0  0  0  0  0  0  0  0 
   -4.9307   -2.0726    2.6194 C   0  0  0  0  0  0  0  0  0  0  0  0 
   -3.3427   -0.9347    1.2284 C   0  0  0  0  0  0  0  0  0  0  0  0 
   -1.0655   -1.4742    0.4256 C   0  0  0  0  0  0  0  0  0  0  0  0 
   -3.6680   -2.0719    1.9490 C   0  0  0  0  0  0  0  0  0  0  0  0 
    0.2567    0.6637   -0.0682 C   0  0  0  0  0  0  0  0  0  0  0  0 
    0.2165   -0.7263    0.1033 C   0  0  0  0  0  0  0  0  0  0  0  0 
   -2.2624   -4.2372    2.1790 N   0  0  0  0  0  0  0  0  0  0  0  0 
   -5.9628   -2.0611    3.1599 N   0  0  0  0  0  0  0  0  0  0  0  0 
   -2.2397   -0.6010    0.5417 N   0  0  0  0  0  0  0  0  0  0  0  0 
    3.5937    1.0325   -0.6822 H   0  0  0  0  0  0  0  0  0  0  0  0 
    3.5152   -1.4421   -0.3780 H   0  0  0  0  0  0  0  0  0  0  0  0 
    1.5105    2.3603   -0.4909 H   0  0  0  0  0  0  0  0  0  0  0  0 
    1.3604   -2.5527    0.1190 H   0  0  0  0  0  0  0  0  0  0  0  0 
   -1.1331    1.8776    1.0571 H   0  0  0  0  0  0  0  0  0  0  0  0 
   -0.9856    2.3302   -0.6396 H   0  0  0  0  0  0  0  0  0  0  0  0 
   -2.2112    0.3152   -1.3484 H   0  0  0  0  0  0  0  0  0  0  0  0 
   -3.1655    1.1522   -0.1146 H   0  0  0  0  0  0  0  0  0  0  0  0 
   -4.1107   -0.1664    1.2154 H   0  0  0  0  0  0  0  0  0  0  0  0 
   -0.9438   -2.0049    1.3720 H   0  0  0  0  0  0  0  0  0  0  0  0 
   -1.2549   -2.2410   -0.3401 H   0  0  0  0  0  0  0  0  0  0  0  0 
  1  3  2  0  0  0  0 
  1  2  1  0  0  0  0 
  2  4  2  0  0  0  0 
  3 12  1  0  0  0  0 
  4 13  1  0  0  0  0 
  4 20  1  0  0  0  0 
  5 21  1  0  0  0  0 
  6 24  1  0  0  0  0 
  6  5  1  0  0  0  0 
  6 16  1  0  0  0  0 
  7 14  3  0  0  0  0 
  8 15  3  0  0  0  0 
  9 11  2  0  0  0  0 
 10 16  1  0  0  0  0 
 10 26  1  0  0  0  0 
 11  7  1  0  0  0  0 
 11  8  1  0  0  0  0 
 12  5  1  0  0  0  0 
 12 13  2  0  0  0  0 
 13 10  1  0  0  0  0 
 16  9  1  0  0  0  0 
 17  1  1  0  0  0  0 
 18  2  1  0  0  0  0 
 19  3  1  0  0  0  0 
 22  5  1  0  0  0  0 
 23  6  1  0  0  0  0 
 25  9  1  0  0  0  0 
 27 10  1  0  0  0  0 
M  END 
>  <HBA> 
3 
 
>  <HBD> 
0 
 
>  <TPSA> 
50.82 
 
>  <cid> 
23156 
 
>  <dipole> 
8.95 
 
>  <excitation_energy_1> 
4.627 
 
>  <excitation_energy_2> 
4.964 
 
>  <excitation_energy_3> 
5.01 
 
>  <excitation_energy_4> 
5.049 
 
>  <homo_energy> 
-6.291 
 
>  <homo_lumo_gap> 
4.974 
 
>  <logP> 
1.914 
 
>  <lumo_energy> 
-1.317 
 
>  <melting_point> 
114.9 
 
>  <molecular_refractivity> 
64.13 
 
>  <oscillator_strength_1> 
0.4031 
 
>  <oscillator_strength_2> 
0.003 
 
>  <oscillator_strength_3> 
0.0853 
 
>  <oscillator_strength_4> 
0.0525 
 
>  <open_babel_can_smiles> 
N#CC(=CN1CCc2c(C1)cccc2)C#N 
 
>  <mulliken_charges> 
27 
1   -0.124266 
2   -0.131068 
3   -0.191847 
4   -0.176081 
5   -0.342198 
6   -0.169384 
7   0.290268 
8   0.259479 
9   0.096161 
10   -0.208227 
11   0.061768 
12   0.128898 
13   0.076774 
14   -0.509039 
15   -0.481766 
16   -0.396025 
17   0.138079 
18   0.14073 
19   0.130632 
20   0.144042 
21   0.172029 
22   0.160885 
23   0.173846 
24   0.16848 
25   0.186677 
26   0.212258 
27   0.188893 
 
>  <lowdin_charges> 
27 
1   -0.151613 
2   -0.150622 
3   -0.157226 
4   -0.153298 
5   -0.279317 
6   -0.186084 
7   -0.01581 
8   -0.012741 
9   -0.033199 
10   -0.197448 
11   -0.130315 
12   -0.018964 
13   -0.026001 
14   -0.135521 
15   -0.133432 
16   -0.049725 
17   0.162671 
18   0.164119 
19   0.156468 
20   0.162573 
21   0.162153 
22   0.162862 
23   0.154756 
24   0.162948 
25   0.184804 
26   0.188884 
27   0.169081 
 
$$$$ 
 
