PCCDB-ID:  32832 
public computational chemistry database (PCCDB) project, http://pccdb.org 
 
 14 13  0  0  0  0  0  0  0  0999 V2000 
    1.3626    0.1026   -0.2825 C   0  0  0  0  0  0  0  0  0  0  0  0 
    1.1572    0.8663    1.0216 C   0  0  0  0  0  0  0  0  0  0  0  0 
    2.8137   -0.3735   -0.4177 C   0  0  0  0  0  0  0  0  0  0  0  0 
   -0.1928    1.5378    1.0818 N   0  0  0  0  0  0  0  0  0  0  0  0 
    3.7487    0.6977   -0.3648 O   0  0  0  0  0  0  0  0  0  0  0  0 
   -0.5639    2.1517    0.0839 O   0  0  0  0  0  0  0  0  0  0  0  0 
   -0.8180    1.4470    2.1332 O   0  0  0  0  0  0  0  0  0  0  0  0 
    1.1035    0.7599   -1.1201 H   0  0  0  0  0  0  0  0  0  0  0  0 
    0.6879   -0.7615   -0.3294 H   0  0  0  0  0  0  0  0  0  0  0  0 
    1.8921    1.6714    1.1079 H   0  0  0  0  0  0  0  0  0  0  0  0 
    1.2101    0.2320    1.9066 H   0  0  0  0  0  0  0  0  0  0  0  0 
    2.9218   -0.9568   -1.3442 H   0  0  0  0  0  0  0  0  0  0  0  0 
    3.0814   -1.0338    0.4142 H   0  0  0  0  0  0  0  0  0  0  0  0 
    3.6294    1.2355   -1.1637 H   0  0  0  0  0  0  0  0  0  0  0  0 
  1  2  1  0  0  0  0 
  2  4  1  0  0  0  0 
  2 10  1  0  0  0  0 
  2 11  1  0  0  0  0 
  3  5  1  0  0  0  0 
  3  1  1  0  0  0  0 
  3 13  1  0  0  0  0 
  4  7  2  0  0  0  0 
  6  4  2  0  0  0  0 
  8  1  1  0  0  0  0 
  9  1  1  0  0  0  0 
 12  3  1  0  0  0  0 
 14  5  1  0  0  0  0 
M  END 
>  <HBA> 
1 
 
>  <HBD> 
1 
 
>  <TPSA> 
66.05 
 
>  <cid> 
32832 
 
>  <dipole> 
3.48 
 
>  <excitation_energy_1> 
4.111 
 
>  <excitation_energy_2> 
4.459 
 
>  <excitation_energy_3> 
5.352 
 
>  <excitation_energy_4> 
6.658 
 
>  <homo_energy> 
-7.793 
 
>  <homo_lumo_gap> 
6.019 
 
>  <logP> 
0.169 
 
>  <lumo_energy> 
-1.774 
 
>  <melting_point> 
24.8 
 
>  <molecular_refractivity> 
25.8 
 
>  <oscillator_strength_1> 
0.0002 
 
>  <oscillator_strength_2> 
0.0004 
 
>  <oscillator_strength_3> 
0.0225 
 
>  <oscillator_strength_4> 
0.0258 
 
>  <open_babel_can_smiles> 
OCCCN(=O)=O 
 
>  <mulliken_charges> 
14 
1   -0.305531 
2   -0.158708 
3   -0.044609 
4   0.450294 
5   -0.607177 
6   -0.379729 
7   -0.375193 
8   0.173198 
9   0.157816 
10   0.209275 
11   0.188594 
12   0.140279 
13   0.156468 
14   0.395025 
 
>  <lowdin_charges> 
14 
1   -0.303873 
2   -0.223679 
3   -0.133754 
4   0.296783 
5   -0.463989 
6   -0.251124 
7   -0.240136 
8   0.162731 
9   0.159516 
10   0.186057 
11   0.174524 
12   0.139041 
13   0.151528 
14   0.346376 
 
$$$$ 
 
