PCCDB-ID:  61523 
public computational chemistry database (PCCDB) project, http://pccdb.org 
 
 28 28  0  0  0  0  0  0  0  0999 V2000 
    6.0033    3.8427    0.4309 C   0  0  0  0  0  0  0  0  0  0  0  0 
    4.3550   -1.2317    0.7954 C   0  0  0  0  0  0  0  0  0  0  0  0 
    5.7117    3.3746   -0.8525 C   0  0  0  0  0  0  0  0  0  0  0  0 
    5.3169    3.3165    1.5256 C   0  0  0  0  0  0  0  0  0  0  0  0 
    3.6107   -0.6430   -0.4114 C   0  0  0  0  0  0  0  0  0  0  0  0 
    4.8636   -2.6684    0.5957 C   0  0  0  0  0  0  0  0  0  0  0  0 
    4.7437    2.3873   -1.0343 C   0  0  0  0  0  0  0  0  0  0  0  0 
    4.3482    2.3284    1.3370 C   0  0  0  0  0  0  0  0  0  0  0  0 
    3.0127    0.7589   -0.1559 C   0  0  0  0  0  0  0  0  0  0  0  0 
    5.9730   -2.8040   -0.4414 C   0  0  0  0  0  0  0  0  0  0  0  0 
    4.0479    1.8453    0.0567 C   0  0  0  0  0  0  0  0  0  0  0  0 
    6.3920   -4.1665   -0.4485 O   0  0  0  0  0  0  0  0  0  0  0  0 
    6.7557    4.6135    0.5746 H   0  0  0  0  0  0  0  0  0  0  0  0 
    3.6789   -1.2229    1.6620 H   0  0  0  0  0  0  0  0  0  0  0  0 
    5.1970   -0.5789    1.0630 H   0  0  0  0  0  0  0  0  0  0  0  0 
    6.2341    3.7843   -1.7133 H   0  0  0  0  0  0  0  0  0  0  0  0 
    5.5329    3.6756    2.5287 H   0  0  0  0  0  0  0  0  0  0  0  0 
    2.7942   -1.3218   -0.6959 H   0  0  0  0  0  0  0  0  0  0  0  0 
    4.2804   -0.5860   -1.2798 H   0  0  0  0  0  0  0  0  0  0  0  0 
    4.0347   -3.3293    0.3086 H   0  0  0  0  0  0  0  0  0  0  0  0 
    5.2527   -3.0536    1.5466 H   0  0  0  0  0  0  0  0  0  0  0  0 
    4.5182    2.0342   -2.0388 H   0  0  0  0  0  0  0  0  0  0  0  0 
    3.8134    1.9284    2.1957 H   0  0  0  0  0  0  0  0  0  0  0  0 
    2.3472    0.7093    0.7160 H   0  0  0  0  0  0  0  0  0  0  0  0 
    2.3810    1.0263   -1.0132 H   0  0  0  0  0  0  0  0  0  0  0  0 
    6.8083   -2.1325   -0.1789 H   0  0  0  0  0  0  0  0  0  0  0  0 
    5.6115   -2.5020   -1.4372 H   0  0  0  0  0  0  0  0  0  0  0  0 
    7.0919   -4.2585   -1.1123 H   0  0  0  0  0  0  0  0  0  0  0  0 
  1 13  1  0  0  0  0 
  1  4  2  0  0  0  0 
  2 15  1  0  0  0  0 
  2 14  1  0  0  0  0 
  3  1  1  0  0  0  0 
  4 17  1  0  0  0  0 
  5  9  1  0  0  0  0 
  5  2  1  0  0  0  0 
  6  2  1  0  0  0  0 
  6 21  1  0  0  0  0 
  7  3  2  0  0  0  0 
  7 11  1  0  0  0  0 
  8  4  1  0  0  0  0 
  8 23  1  0  0  0  0 
  9 11  1  0  0  0  0 
  9 24  1  0  0  0  0 
 10 26  1  0  0  0  0 
 10  6  1  0  0  0  0 
 11  8  2  0  0  0  0 
 12 10  1  0  0  0  0 
 16  3  1  0  0  0  0 
 18  5  1  0  0  0  0 
 19  5  1  0  0  0  0 
 20  6  1  0  0  0  0 
 22  7  1  0  0  0  0 
 25  9  1  0  0  0  0 
 27 10  1  0  0  0  0 
 28 12  1  0  0  0  0 
M  END 
>  <HBA> 
1 
 
>  <HBD> 
1 
 
>  <TPSA> 
20.23 
 
>  <cid> 
61523 
 
>  <dipole> 
1.38 
 
>  <excitation_energy_1> 
5.283 
 
>  <excitation_energy_2> 
5.819 
 
>  <excitation_energy_3> 
6.006 
 
>  <excitation_energy_4> 
6.186 
 
>  <homo_energy> 
-6.452 
 
>  <homo_lumo_gap> 
6.498 
 
>  <logP> 
2.392 
 
>  <lumo_energy> 
0.046 
 
>  <melting_point> 
23.11 
 
>  <molecular_refractivity> 
51.8 
 
>  <oscillator_strength_1> 
0.001 
 
>  <oscillator_strength_2> 
0.0488 
 
>  <oscillator_strength_3> 
0.0019 
 
>  <oscillator_strength_4> 
0.0048 
 
>  <open_babel_can_smiles> 
OCCCCCc1ccccc1 
 
>  <mulliken_charges> 
28 
1   -0.132584 
2   -0.266433 
3   -0.127754 
4   -0.127113 
5   -0.252487 
6   -0.261829 
7   -0.18194 
8   -0.185237 
9   -0.352255 
10   -0.028877 
11   0.178188 
12   -0.621196 
13   0.127003 
14   0.129177 
15   0.14346 
16   0.126968 
17   0.127699 
18   0.13209 
19   0.13643 
20   0.140793 
21   0.145268 
22   0.121177 
23   0.122887 
24   0.138973 
25   0.142853 
26   0.11722 
27   0.118323 
28   0.389196 
 
>  <lowdin_charges> 
28 
1   -0.161795 
2   -0.280635 
3   -0.156947 
4   -0.155539 
5   -0.275536 
6   -0.281538 
7   -0.168088 
8   -0.170907 
9   -0.275681 
10   -0.135392 
11   0.000582 
12   -0.475892 
13   0.15678 
14   0.142184 
15   0.146895 
16   0.157067 
17   0.156043 
18   0.142605 
19   0.140535 
20   0.146473 
21   0.151051 
22   0.152353 
23   0.154989 
24   0.147149 
25   0.152153 
26   0.124457 
27   0.123281 
28   0.343353 
 
$$$$ 
 
