PCCDB-ID:  8125 
public computational chemistry database (PCCDB) project, http://pccdb.org 
 
 24 23  0  0  0  0  0  0  0  0999 V2000 
    1.3222   -1.5121   -0.6063 C   0  0  0  0  0  0  0  0  0  0  0  0 
    7.9168   -4.1565    1.5283 C   0  0  0  0  0  0  0  0  0  0  0  0 
    2.4658   -2.1970   -0.5573 C   0  0  0  0  0  0  0  0  0  0  0  0 
    7.3694   -2.8277    2.0634 C   0  0  0  0  0  0  0  0  0  0  0  0 
    3.6573   -1.9518   -1.4449 C   0  0  0  0  0  0  0  0  0  0  0  0 
    6.7760   -1.9023    0.9883 C   0  0  0  0  0  0  0  0  0  0  0  0 
    4.9115   -1.4434   -0.6994 C   0  0  0  0  0  0  0  0  0  0  0  0 
    5.5069   -2.4364    0.3081 C   0  0  0  0  0  0  0  0  0  0  0  0 
    0.4940   -1.7281    0.0636 H   0  0  0  0  0  0  0  0  0  0  0  0 
    1.1681   -0.7078   -1.3236 H   0  0  0  0  0  0  0  0  0  0  0  0 
    8.3777   -4.7440    2.3307 H   0  0  0  0  0  0  0  0  0  0  0  0 
    8.6815   -3.9869    0.7597 H   0  0  0  0  0  0  0  0  0  0  0  0 
    7.1291   -4.7733    1.0815 H   0  0  0  0  0  0  0  0  0  0  0  0 
    2.5649   -2.9967    0.1777 H   0  0  0  0  0  0  0  0  0  0  0  0 
    8.1785   -2.2923    2.5784 H   0  0  0  0  0  0  0  0  0  0  0  0 
    6.6050   -3.0291    2.8278 H   0  0  0  0  0  0  0  0  0  0  0  0 
    3.3837   -1.2248   -2.2203 H   0  0  0  0  0  0  0  0  0  0  0  0 
    3.9180   -2.8847   -1.9687 H   0  0  0  0  0  0  0  0  0  0  0  0 
    7.5406   -1.7016    0.2226 H   0  0  0  0  0  0  0  0  0  0  0  0 
    6.5454   -0.9308    1.4483 H   0  0  0  0  0  0  0  0  0  0  0  0 
    4.6636   -0.5046   -0.1850 H   0  0  0  0  0  0  0  0  0  0  0  0 
    5.6778   -1.1940   -1.4470 H   0  0  0  0  0  0  0  0  0  0  0  0 
    4.7627   -2.6750    1.0810 H   0  0  0  0  0  0  0  0  0  0  0  0 
    5.7272   -3.3807   -0.2097 H   0  0  0  0  0  0  0  0  0  0  0  0 
  1  3  2  0  0  0  0 
  1  9  1  0  0  0  0 
  2  4  1  0  0  0  0 
  2 11  1  0  0  0  0 
  3 14  1  0  0  0  0 
  4 15  1  0  0  0  0 
  4 16  1  0  0  0  0 
  5  7  1  0  0  0  0 
  5  3  1  0  0  0  0 
  6 20  1  0  0  0  0 
  6  4  1  0  0  0  0 
  7 21  1  0  0  0  0 
  7  8  1  0  0  0  0 
  8  6  1  0  0  0  0 
  8 23  1  0  0  0  0 
 10  1  1  0  0  0  0 
 12  2  1  0  0  0  0 
 13  2  1  0  0  0  0 
 17  5  1  0  0  0  0 
 18  5  1  0  0  0  0 
 19  6  1  0  0  0  0 
 22  7  1  0  0  0  0 
 24  8  1  0  0  0  0 
M  END 
>  <HBA> 
0 
 
>  <HBD> 
0 
 
>  <TPSA> 
0.0 
 
>  <cid> 
8125 
 
>  <dipole> 
0.36 
 
>  <excitation_energy_1> 
6.509 
 
>  <excitation_energy_2> 
6.696 
 
>  <excitation_energy_3> 
6.848 
 
>  <excitation_energy_4> 
6.962 
 
>  <homo_energy> 
-6.77 
 
>  <homo_lumo_gap> 
7.429 
 
>  <logP> 
3.143 
 
>  <lumo_energy> 
0.659 
 
>  <melting_point> 
-48.49 
 
>  <molecular_refractivity> 
40.1 
 
>  <oscillator_strength_1> 
0.0675 
 
>  <oscillator_strength_2> 
0.0609 
 
>  <oscillator_strength_3> 
0.0822 
 
>  <oscillator_strength_4> 
0.0613 
 
>  <open_babel_can_smiles> 
CCCCCCC=C 
 
>  <mulliken_charges> 
24 
1   -0.341611 
2   -0.443065 
3   -0.040568 
4   -0.248783 
5   -0.306968 
6   -0.248888 
7   -0.251299 
8   -0.256327 
9   0.136297 
10   0.133079 
11   0.141853 
12   0.140264 
13   0.145518 
14   0.125823 
15   0.130424 
16   0.129418 
17   0.135831 
18   0.138006 
19   0.12565 
20   0.12846 
21   0.135709 
22   0.129127 
23   0.13152 
24   0.130528 
 
>  <lowdin_charges> 
24 
1   -0.34508 
2   -0.450267 
3   -0.146808 
4   -0.274774 
5   -0.27429 
6   -0.275632 
7   -0.273148 
8   -0.280627 
9   0.157183 
10   0.152817 
11   0.150706 
12   0.14622 
13   0.14799 
14   0.149225 
15   0.142769 
16   0.13914 
17   0.148389 
18   0.146567 
19   0.137525 
20   0.14024 
21   0.14196 
22   0.141661 
23   0.139878 
24   0.138357 
 
$$$$ 
 
