PCCDB-ID:  8027 
public computational chemistry database (PCCDB) project, http://pccdb.org 
 
 10 10  0  0  0  0  0  0  0  0999 V2000 
   -1.1841    0.0155    0.0002 C   0  0  0  0  0  0  0  0  0  0  0  0 
   -0.3460   -1.1373    0.0004 C   0  0  0  0  0  0  0  0  0  0  0  0 
   -0.3632    1.1226    0.0001 C   0  0  0  0  0  0  0  0  0  0  0  0 
    0.9604   -0.6981    0.0006 C   0  0  0  0  0  0  0  0  0  0  0  0 
    0.9383    0.6772    0.0009 N   0  0  0  0  0  0  0  0  0  0  0  0 
   -2.2656    0.0304   -0.0004 H   0  0  0  0  0  0  0  0  0  0  0  0 
   -0.6656   -2.1707    0.0010 H   0  0  0  0  0  0  0  0  0  0  0  0 
   -0.5912    2.1788    0.0006 H   0  0  0  0  0  0  0  0  0  0  0  0 
    1.8946   -1.2409    0.0007 H   0  0  0  0  0  0  0  0  0  0  0  0 
    1.7536    1.2699   -0.0017 H   0  0  0  0  0  0  0  0  0  0  0  0 
  1  2  1  0  0  0  0 
  2  4  2  0  0  0  0 
  2  7  1  0  0  0  0 
  3  1  2  0  0  0  0 
  3  8  1  0  0  0  0 
  3  5  1  0  0  0  0 
  4  9  1  0  0  0  0 
  4  5  1  0  0  0  0 
  6  1  1  0  0  0  0 
 10  5  1  0  0  0  0 
M  END 
>  <HBA> 
0 
 
>  <HBD> 
1 
 
>  <TPSA> 
15.79 
 
>  <cid> 
8027 
 
>  <dipole> 
1.91 
 
>  <excitation_energy_1> 
4.899 
 
>  <excitation_energy_2> 
5.729 
 
>  <excitation_energy_3> 
5.798 
 
>  <excitation_energy_4> 
5.909 
 
>  <homo_energy> 
-5.483 
 
>  <homo_lumo_gap> 
6.868 
 
>  <logP> 
1.015 
 
>  <lumo_energy> 
1.385 
 
>  <melting_point> 
49.59 
 
>  <molecular_refractivity> 
20.79 
 
>  <oscillator_strength_1> 
0.0 
 
>  <oscillator_strength_2> 
0.0117 
 
>  <oscillator_strength_3> 
0.0188 
 
>  <oscillator_strength_4> 
0.0 
 
>  <open_babel_can_smiles> 
c1ccc[nH]1 
 
>  <mulliken_charges> 
10 
1   -0.174352 
2   -0.174737 
3   0.02541 
4   0.025555 
5   -0.548315 
6   0.120618 
7   0.120607 
8   0.138292 
9   0.13829 
10   0.328632 
 
>  <lowdin_charges> 
10 
1   -0.212502 
2   -0.213408 
3   -0.158265 
4   -0.160531 
5   -0.177603 
6   0.156292 
7   0.15714 
8   0.159046 
9   0.16087 
10   0.28896 
 
$$$$ 
 
