PCCDB-ID:  10685 
public computational chemistry database (PCCDB) project, http://pccdb.org 
 
 23 24  0  0  0  0  0  0  0  0999 V2000 
    2.2056   -0.5207   -0.1459 C   0  0  0  0  0  0  0  0  0  0  0  0 
    2.1548    0.8883   -0.1255 C   0  0  0  0  0  0  0  0  0  0  0  0 
    1.0446   -1.2830   -0.1090 C   0  0  0  0  0  0  0  0  0  0  0  0 
    0.9413    1.5636   -0.0664 C   0  0  0  0  0  0  0  0  0  0  0  0 
   -2.0702   -2.5043   -0.0031 C   0  0  0  0  0  0  0  0  0  0  0  0 
   -2.0342   -3.1607   -1.3954 C   0  0  0  0  0  0  0  0  0  0  0  0 
   -2.3485    0.0489    0.0685 C   0  0  0  0  0  0  0  0  0  0  0  0 
   -1.5749   -1.0843    0.0133 C   0  0  0  0  0  0  0  0  0  0  0  0 
   -0.2023   -0.6297   -0.0507 C   0  0  0  0  0  0  0  0  0  0  0  0 
   -0.2260    0.7937   -0.0285 C   0  0  0  0  0  0  0  0  0  0  0  0 
   -1.5491    1.1770    0.0364 N   0  0  0  0  0  0  0  0  0  0  0  0 
   -0.7224   -3.2852   -1.9260 O   0  0  0  0  0  0  0  0  0  0  0  0 
    3.1712   -1.0169   -0.1903 H   0  0  0  0  0  0  0  0  0  0  0  0 
    3.0800    1.4571   -0.1553 H   0  0  0  0  0  0  0  0  0  0  0  0 
    1.0922   -2.3678   -0.1356 H   0  0  0  0  0  0  0  0  0  0  0  0 
    0.9023    2.6499   -0.0503 H   0  0  0  0  0  0  0  0  0  0  0  0 
   -1.4730   -3.1214    0.6811 H   0  0  0  0  0  0  0  0  0  0  0  0 
   -3.1056   -2.5359    0.3624 H   0  0  0  0  0  0  0  0  0  0  0  0 
   -2.6877   -2.5980   -2.0818 H   0  0  0  0  0  0  0  0  0  0  0  0 
   -2.4235   -4.1825   -1.3289 H   0  0  0  0  0  0  0  0  0  0  0  0 
   -3.4245    0.1429    0.1324 H   0  0  0  0  0  0  0  0  0  0  0  0 
   -1.8797    2.1267    0.1030 H   0  0  0  0  0  0  0  0  0  0  0  0 
   -0.3670   -2.3881   -2.0321 H   0  0  0  0  0  0  0  0  0  0  0  0 
  1  2  2  0  0  0  0 
  1  3  1  0  0  0  0 
  2  4  1  0  0  0  0 
  3  9  2  0  0  0  0 
  4 16  1  0  0  0  0 
  4 10  2  0  0  0  0 
  5  8  1  0  0  0  0 
  5 18  1  0  0  0  0 
  5 17  1  0  0  0  0 
  6 20  1  0  0  0  0 
  6  5  1  0  0  0  0 
  7 21  1  0  0  0  0 
  8  7  2  0  0  0  0 
  9 10  1  0  0  0  0 
  9  8  1  0  0  0  0 
 10 11  1  0  0  0  0 
 11  7  1  0  0  0  0 
 11 22  1  0  0  0  0 
 12  6  1  0  0  0  0 
 13  1  1  0  0  0  0 
 14  2  1  0  0  0  0 
 15  3  1  0  0  0  0 
 19  6  1  0  0  0  0 
 23 12  1  0  0  0  0 
M  END 
>  <HBA> 
1 
 
>  <HBD> 
2 
 
>  <TPSA> 
36.02 
 
>  <cid> 
10685 
 
>  <dipole> 
3.71 
 
>  <excitation_energy_1> 
4.552 
 
>  <excitation_energy_2> 
4.742 
 
>  <excitation_energy_3> 
4.816 
 
>  <excitation_energy_4> 
5.281 
 
>  <homo_energy> 
-5.423 
 
>  <homo_lumo_gap> 
5.197 
 
>  <logP> 
1.703 
 
>  <lumo_energy> 
-0.226 
 
>  <melting_point> 
117.72 
 
>  <molecular_refractivity> 
49.23 
 
>  <oscillator_strength_1> 
0.0737 
 
>  <oscillator_strength_2> 
0.0015 
 
>  <oscillator_strength_3> 
0.0172 
 
>  <oscillator_strength_4> 
0.0149 
 
>  <open_babel_can_smiles> 
OCCc1c[nH]c2c1cccc2 
 
>  <mulliken_charges> 
23 
1   -0.139876 
2   -0.150812 
3   -0.22827 
4   -0.16317 
5   -0.350273 
6   -0.023499 
7   -0.002908 
8   0.061021 
9   0.052043 
10   0.315938 
11   -0.688074 
12   -0.619774 
13   0.123913 
14   0.12413 
15   0.148638 
16   0.121402 
17   0.153796 
18   0.133152 
19   0.118024 
20   0.140786 
21   0.146907 
22   0.327125 
23   0.399781 
 
>  <lowdin_charges> 
23 
1   -0.176123 
2   -0.163959 
3   -0.170657 
4   -0.184615 
5   -0.288102 
6   -0.131994 
7   -0.135025 
8   -0.068492 
9   -0.045922 
10   0.029869 
11   -0.198377 
12   -0.469496 
13   0.1561 
14   0.156608 
15   0.163199 
16   0.153353 
17   0.156921 
18   0.150551 
19   0.12628 
20   0.143796 
21   0.161752 
22   0.290429 
23   0.343908 
 
$$$$ 
 
