PCCDB-ID:  22068 
public computational chemistry database (PCCDB) project, http://pccdb.org 
 
 31 32  0  0  1  0  0  0  0  0999 V2000 
    0.7039    0.0519   -1.2331 C   0  0  0  0  0  0  0  0  0  0  0  0 
    2.6510    3.8535    1.8710 C   0  0  0  0  0  0  0  0  0  0  0  0 
    1.9427   -4.9308   -1.2446 C   0  0  0  0  0  0  0  0  0  0  0  0 
    1.3765    3.3071    2.0237 C   0  0  0  0  0  0  0  0  0  0  0  0 
    3.6994    3.0402    1.4344 C   0  0  0  0  0  0  0  0  0  0  0  0 
    3.0097   -4.1349   -1.6617 C   0  0  0  0  0  0  0  0  0  0  0  0 
    0.8537   -4.3362   -0.6038 C   0  0  0  0  0  0  0  0  0  0  0  0 
    1.1532    1.9581    1.7400 C   0  0  0  0  0  0  0  0  0  0  0  0 
    3.4704    1.6937    1.1530 C   0  0  0  0  0  0  0  0  0  0  0  0 
    2.9850   -2.7571   -1.4372 C   0  0  0  0  0  0  0  0  0  0  0  0 
    0.8342   -2.9589   -0.3839 C   0  0  0  0  0  0  0  0  0  0  0  0 
    1.9586   -0.3303    0.9740 C   0  0  0  0  0  0  0  0  0  0  0  0 
    1.8956   -0.6422   -0.5505 C   0  0  1  0  0  0  0  0  0  0  0  0 
    2.1935    1.1305    1.2975 C   0  0  0  0  0  0  0  0  0  0  0  0 
    1.9000   -2.1448   -0.7964 C   0  0  0  0  0  0  0  0  0  0  0  0 
    0.7468    1.1358   -1.0850 H   0  0  0  0  0  0  0  0  0  0  0  0 
   -0.2510   -0.3036   -0.8274 H   0  0  0  0  0  0  0  0  0  0  0  0 
    0.7024   -0.1495   -2.3097 H   0  0  0  0  0  0  0  0  0  0  0  0 
    2.8283    4.9021    2.0944 H   0  0  0  0  0  0  0  0  0  0  0  0 
    1.9580   -6.0036   -1.4174 H   0  0  0  0  0  0  0  0  0  0  0  0 
    0.5537    3.9291    2.3670 H   0  0  0  0  0  0  0  0  0  0  0  0 
    4.6982    3.4537    1.3195 H   0  0  0  0  0  0  0  0  0  0  0  0 
    3.8631   -4.5847   -2.1629 H   0  0  0  0  0  0  0  0  0  0  0  0 
    0.0160   -4.9458   -0.2748 H   0  0  0  0  0  0  0  0  0  0  0  0 
    0.1571    1.5396    1.8669 H   0  0  0  0  0  0  0  0  0  0  0  0 
    4.2958    1.0659    0.8230 H   0  0  0  0  0  0  0  0  0  0  0  0 
    3.8220   -2.1448   -1.7666 H   0  0  0  0  0  0  0  0  0  0  0  0 
   -0.0239   -2.5146    0.1146 H   0  0  0  0  0  0  0  0  0  0  0  0 
    2.7638   -0.9345    1.4105 H   0  0  0  0  0  0  0  0  0  0  0  0 
    1.0270   -0.6680    1.4458 H   0  0  0  0  0  0  0  0  0  0  0  0 
    2.8140   -0.2373   -0.9970 H   0  0  0  0  0  0  0  0  0  0  0  0 
  1 16  1  0  0  0  0 
  1 17  1  0  0  0  0 
  1 13  1  0  0  0  0 
  2  4  1  0  0  0  0 
  2 19  1  0  0  0  0 
  3  7  2  0  0  0  0 
  4 21  1  0  0  0  0 
  5  2  2  0  0  0  0 
  6 10  2  0  0  0  0 
  6  3  1  0  0  0  0 
  7 11  1  0  0  0  0 
  7 24  1  0  0  0  0 
  8 25  1  0  0  0  0 
  8  4  2  0  0  0  0 
  9 14  2  0  0  0  0 
  9  5  1  0  0  0  0 
 10 15  1  0  0  0  0 
 11 28  1  0  0  0  0 
 12 14  1  0  0  0  0 
 12 29  1  0  0  0  0 
 12 30  1  0  0  0  0 
 13 31  1  6  0  0  0 
 13 12  1  0  0  0  0 
 14  8  1  0  0  0  0 
 15 13  1  0  0  0  0 
 15 11  2  0  0  0  0 
 18  1  1  0  0  0  0 
 20  3  1  0  0  0  0 
 22  5  1  0  0  0  0 
 23  6  1  0  0  0  0 
 26  9  1  0  0  0  0 
 27 10  1  0  0  0  0 
M  END 
>  <HBA> 
0 
 
>  <HBD> 
0 
 
>  <TPSA> 
0.0 
 
>  <cid> 
22068 
 
>  <dipole> 
0.07 
 
>  <excitation_energy_1> 
5.263 
 
>  <excitation_energy_2> 
5.286 
 
>  <excitation_energy_3> 
5.609 
 
>  <excitation_energy_4> 
5.858 
 
>  <homo_energy> 
-6.31 
 
>  <homo_lumo_gap> 
6.251 
 
>  <logP> 
4.033 
 
>  <lumo_energy> 
-0.06 
 
>  <melting_point> 
36.22 
 
>  <molecular_refractivity> 
65.51 
 
>  <oscillator_strength_1> 
0.0032 
 
>  <oscillator_strength_2> 
0.0013 
 
>  <oscillator_strength_3> 
0.1891 
 
>  <oscillator_strength_4> 
0.0083 
 
>  <open_babel_can_smiles> 
C[C@H](c1ccccc1)Cc1ccccc1 
 
>  <mulliken_charges> 
31 
1   -0.449329 
2   -0.131741 
3   -0.131548 
4   -0.127579 
5   -0.128256 
6   -0.125542 
7   -0.129504 
8   -0.185102 
9   -0.180776 
10   -0.197564 
11   -0.183979 
12   -0.349742 
13   -0.166242 
14   0.177039 
15   0.185916 
16   0.157403 
17   0.139348 
18   0.150044 
19   0.127488 
20   0.127012 
21   0.127847 
22   0.127907 
23   0.127239 
24   0.12726 
25   0.122524 
26   0.122692 
27   0.12204 
28   0.123752 
29   0.151032 
30   0.138851 
31   0.13151 
 
>  <lowdin_charges> 
31 
1   -0.441957 
2   -0.159649 
3   -0.159791 
4   -0.157307 
5   -0.154538 
6   -0.156355 
7   -0.156061 
8   -0.168604 
9   -0.168665 
10   -0.171595 
11   -0.167409 
12   -0.274718 
13   -0.118102 
14   -0.001038 
15   5.9e-05 
16   0.155318 
17   0.145444 
18   0.15213 
19   0.155322 
20   0.154679 
21   0.157851 
22   0.15611 
23   0.15731 
24   0.157178 
25   0.153316 
26   0.15482 
27   0.154068 
28   0.154223 
29   0.156775 
30   0.147592 
31   0.143594 
 
$$$$ 
 
