PCCDB-ID:  54543 
public computational chemistry database (PCCDB) project, http://pccdb.org 
 
 29 31  0  0  0  0  0  0  0  0999 V2000 
    0.9450   -0.0583   -0.0080 C   0  0  0  0  0  0  0  0  0  0  0  0 
    4.6458    6.1115   -0.2032 C   0  0  0  0  0  0  0  0  0  0  0  0 
    3.2202    6.1196   -0.2099 C   0  0  0  0  0  0  0  0  0  0  0  0 
    5.3319    4.9265   -0.1608 C   0  0  0  0  0  0  0  0  0  0  0  0 
    2.5160    4.9440   -0.1740 C   0  0  0  0  0  0  0  0  0  0  0  0 
    3.1684   -1.1953    0.0398 C   0  0  0  0  0  0  0  0  0  0  0  0 
    5.3016    2.4499   -0.0770 C   0  0  0  0  0  0  0  0  0  0  0  0 
    5.3037   -0.0051    0.0064 C   0  0  0  0  0  0  0  0  0  0  0  0 
    2.4968    2.4673   -0.0899 C   0  0  0  0  0  0  0  0  0  0  0  0 
    2.4530   -0.0261   -0.0031 C   0  0  0  0  0  0  0  0  0  0  0  0 
    4.6350    3.6793   -0.1221 C   0  0  0  0  0  0  0  0  0  0  0  0 
    3.1918    3.6864   -0.1288 C   0  0  0  0  0  0  0  0  0  0  0  0 
    4.6057    1.2347   -0.0387 C   0  0  0  0  0  0  0  0  0  0  0  0 
    4.5899   -1.1702    0.0436 C   0  0  0  0  0  0  0  0  0  0  0  0 
    3.1580    1.2355   -0.0445 C   0  0  0  0  0  0  0  0  0  0  0  0 
    5.3166   -2.4454    0.0911 N   0  0  0  0  0  0  0  0  0  0  0  0 
    4.6490   -3.4802    0.1397 O   0  0  0  0  0  0  0  0  0  0  0  0 
    6.5480   -2.4107    0.0801 O   0  0  0  0  0  0  0  0  0  0  0  0 
    0.5780   -1.0874    0.0340 H   0  0  0  0  0  0  0  0  0  0  0  0 
    0.5348    0.4079   -0.9127 H   0  0  0  0  0  0  0  0  0  0  0  0 
    0.5268    0.4823    0.8505 H   0  0  0  0  0  0  0  0  0  0  0  0 
    5.1849    7.0542   -0.2312 H   0  0  0  0  0  0  0  0  0  0  0  0 
    2.6933    7.0691   -0.2430 H   0  0  0  0  0  0  0  0  0  0  0  0 
    6.4191    4.9151   -0.1553 H   0  0  0  0  0  0  0  0  0  0  0  0 
    1.4287    4.9503   -0.1779 H   0  0  0  0  0  0  0  0  0  0  0  0 
    2.6721   -2.1573    0.0722 H   0  0  0  0  0  0  0  0  0  0  0  0 
    6.3893    2.4343   -0.0713 H   0  0  0  0  0  0  0  0  0  0  0  0 
    6.3872   -0.0301    0.0112 H   0  0  0  0  0  0  0  0  0  0  0  0 
    1.4115    2.4957   -0.0958 H   0  0  0  0  0  0  0  0  0  0  0  0 
  1 10  1  0  0  0  0 
  1 19  1  0  0  0  0 
  1 21  1  0  0  0  0 
  2  4  1  0  0  0  0 
  3  2  2  0  0  0  0 
  3  5  1  0  0  0  0 
  4 24  1  0  0  0  0 
  4 11  2  0  0  0  0 
  5 12  2  0  0  0  0 
  6 14  1  0  0  0  0 
  6 26  1  0  0  0  0 
  7 27  1  0  0  0  0 
  7 13  2  0  0  0  0 
  8 28  1  0  0  0  0 
  8 14  2  0  0  0  0 
  9 15  2  0  0  0  0 
 10  6  2  0  0  0  0 
 11  7  1  0  0  0  0 
 12 11  1  0  0  0  0 
 12  9  1  0  0  0  0 
 13  8  1  0  0  0  0 
 14 16  1  0  0  0  0 
 15 13  1  0  0  0  0 
 15 10  1  0  0  0  0 
 16 17  2  0  0  0  0 
 18 16  2  0  0  0  0 
 20  1  1  0  0  0  0 
 22  2  1  0  0  0  0 
 23  3  1  0  0  0  0 
 25  5  1  0  0  0  0 
 29  9  1  0  0  0  0 
M  END 
>  <HBA> 
0 
 
>  <HBD> 
0 
 
>  <TPSA> 
45.82 
 
>  <cid> 
54543 
 
>  <dipole> 
6.01 
 
>  <excitation_energy_1> 
2.716 
 
>  <excitation_energy_2> 
3.462 
 
>  <excitation_energy_3> 
3.683 
 
>  <excitation_energy_4> 
3.986 
 
>  <homo_energy> 
-5.769 
 
>  <homo_lumo_gap> 
3.214 
 
>  <logP> 
4.733 
 
>  <lumo_energy> 
-2.555 
 
>  <melting_point> 
137.63 
 
>  <molecular_refractivity> 
75.24 
 
>  <oscillator_strength_1> 
0.0837 
 
>  <oscillator_strength_2> 
0.0266 
 
>  <oscillator_strength_3> 
0.0001 
 
>  <oscillator_strength_4> 
0.4098 
 
>  <open_babel_can_smiles> 
O=N(=O)c1cc2cc3ccccc3cc2c(c1)C 
 
>  <mulliken_charges> 
29 
1   -0.536971 
2   -0.139103 
3   -0.135031 
4   -0.179483 
5   -0.187709 
6   -0.244438 
7   -0.285392 
8   -0.22851 
9   -0.314254 
10   0.136822 
11   0.141806 
12   0.16494 
13   0.140086 
14   0.281798 
15   0.117835 
16   0.377205 
17   -0.397118 
18   -0.402952 
19   0.168463 
20   0.167935 
21   0.167719 
22   0.138757 
23   0.138546 
24   0.138667 
25   0.136225 
26   0.170994 
27   0.143748 
28   0.181801 
29   0.137613 
 
>  <lowdin_charges> 
29 
1   -0.442221 
2   -0.154308 
3   -0.150273 
4   -0.147408 
5   -0.151353 
6   -0.169313 
7   -0.141597 
8   -0.126225 
9   -0.159433 
10   0.010745 
11   -0.000438 
12   0.007329 
13   -0.001774 
14   -0.001729 
15   -0.004127 
16   0.305593 
17   -0.250545 
18   -0.251547 
19   0.164024 
20   0.163724 
21   0.163878 
22   0.163182 
23   0.163009 
24   0.160115 
25   0.158914 
26   0.183072 
27   0.162014 
28   0.185275 
29   0.161415 
 
$$$$ 
 
