PCCDB-ID:  68282 
public computational chemistry database (PCCDB) project, http://pccdb.org 
 
 21 22  0  0  0  0  0  0  0  0999 V2000 
    1.2377    0.2176    0.0933 C   0  0  0  0  0  0  0  0  0  0  0  0 
   -2.7317   -4.2751   -0.9356 C   0  0  0  0  0  0  0  0  0  0  0  0 
    0.6963   -1.0393   -0.1647 C   0  0  0  0  0  0  0  0  0  0  0  0 
   -2.5731   -2.7910   -0.6993 C   0  0  0  0  0  0  0  0  0  0  0  0 
    0.3814    1.2481    0.4805 C   0  0  0  0  0  0  0  0  0  0  0  0 
   -1.4763   -4.8464   -0.2314 C   0  0  0  0  0  0  0  0  0  0  0  0 
   -1.4460   -0.1216    0.3876 C   0  0  0  0  0  0  0  0  0  0  0  0 
   -0.6863   -1.2309   -0.0265 C   0  0  0  0  0  0  0  0  0  0  0  0 
   -1.3150   -2.5312   -0.2908 C   0  0  0  0  0  0  0  0  0  0  0  0 
   -0.9416    1.0893    0.6293 N   0  0  0  0  0  0  0  0  0  0  0  0 
   -0.5292   -3.7081   -0.2046 N   0  0  0  0  0  0  0  0  0  0  0  0 
    2.3036    0.3988   -0.0107 H   0  0  0  0  0  0  0  0  0  0  0  0 
   -2.7196   -4.5038   -2.0126 H   0  0  0  0  0  0  0  0  0  0  0  0 
   -3.6596   -4.6986   -0.5328 H   0  0  0  0  0  0  0  0  0  0  0  0 
    1.3248   -1.8618   -0.4939 H   0  0  0  0  0  0  0  0  0  0  0  0 
   -3.3059   -2.0462   -0.9824 H   0  0  0  0  0  0  0  0  0  0  0  0 
    0.7699    2.2444    0.6846 H   0  0  0  0  0  0  0  0  0  0  0  0 
   -1.0401   -5.7033   -0.7534 H   0  0  0  0  0  0  0  0  0  0  0  0 
   -1.7311   -5.1614    0.7918 H   0  0  0  0  0  0  0  0  0  0  0  0 
   -2.5176   -0.2344    0.5433 H   0  0  0  0  0  0  0  0  0  0  0  0 
    0.0919   -3.7212    0.6003 H   0  0  0  0  0  0  0  0  0  0  0  0 
  1  5  2  0  0  0  0 
  2  4  1  0  0  0  0 
  2 14  1  0  0  0  0 
  2  6  1  0  0  0  0 
  3  8  2  0  0  0  0 
  3  1  1  0  0  0  0 
  4  9  2  0  0  0  0 
  5 10  1  0  0  0  0 
  5 17  1  0  0  0  0 
  6 11  1  0  0  0  0 
  6 19  1  0  0  0  0 
  7 20  1  0  0  0  0 
  7 10  2  0  0  0  0 
  8  7  1  0  0  0  0 
  9 11  1  0  0  0  0 
  9  8  1  0  0  0  0 
 11 21  1  0  0  0  0 
 12  1  1  0  0  0  0 
 13  2  1  0  0  0  0 
 15  3  1  0  0  0  0 
 16  4  1  0  0  0  0 
 18  6  1  0  0  0  0 
M  END 
>  <HBA> 
2 
 
>  <HBD> 
1 
 
>  <TPSA> 
24.92 
 
>  <cid> 
68282 
 
>  <dipole> 
2.5 
 
>  <excitation_energy_1> 
3.848 
 
>  <excitation_energy_2> 
3.966 
 
>  <excitation_energy_3> 
4.604 
 
>  <excitation_energy_4> 
4.744 
 
>  <homo_energy> 
-5.263 
 
>  <homo_lumo_gap> 
4.416 
 
>  <logP> 
1.745 
 
>  <lumo_energy> 
-0.846 
 
>  <melting_point> 
83.29 
 
>  <molecular_refractivity> 
48.54 
 
>  <oscillator_strength_1> 
0.0968 
 
>  <oscillator_strength_2> 
0.0455 
 
>  <oscillator_strength_3> 
0.001 
 
>  <oscillator_strength_4> 
0.0013 
 
>  <open_babel_can_smiles> 
c1ccc(cn1)C1=CCCN1 
 
>  <mulliken_charges> 
21 
1   -0.141679 
2   -0.311573 
3   -0.151593 
4   -0.207408 
5   0.038846 
6   -0.131085 
7   -0.000917 
8   0.075957 
9   0.264159 
10   -0.413198 
11   -0.622719 
12   0.137823 
13   0.152835 
14   0.145281 
15   0.154757 
16   0.130901 
17   0.141541 
18   0.149144 
19   0.137755 
20   0.145394 
21   0.305777 
 
>  <lowdin_charges> 
21 
1   -0.170883 
2   -0.270999 
3   -0.140651 
4   -0.237501 
5   -0.092427 
6   -0.194028 
7   -0.086731 
8   -0.025437 
9   0.035665 
10   -0.145633 
11   -0.324997 
12   0.162604 
13   0.147048 
14   0.150754 
15   0.16986 
16   0.163058 
17   0.156338 
18   0.148958 
19   0.133915 
20   0.157161 
21   0.263929 
 
$$$$ 
 
