PCCDB-ID:  28296 
public computational chemistry database (PCCDB) project, http://pccdb.org 
 
 27 27  0  0  0  0  0  0  0  0999 V2000 
   10.2123   -1.2519   -1.7820 C   0  0  0  0  0  0  0  0  0  0  0  0 
    5.9229   -3.9044    3.7141 C   0  0  0  0  0  0  0  0  0  0  0  0 
    6.4129   -3.2488    4.8424 C   0  0  0  0  0  0  0  0  0  0  0  0 
    5.4868   -3.1562    2.6179 C   0  0  0  0  0  0  0  0  0  0  0  0 
    6.4680   -1.8547    4.8697 C   0  0  0  0  0  0  0  0  0  0  0  0 
    5.0506   -0.9414    1.4379 C   0  0  0  0  0  0  0  0  0  0  0  0 
    6.1960   -0.3757    0.5801 C   0  0  0  0  0  0  0  0  0  0  0  0 
    8.7160   -1.4115   -1.8573 C   0  0  0  0  0  0  0  0  0  0  0  0 
    5.5256   -1.7588    2.6198 C   0  0  0  0  0  0  0  0  0  0  0  0 
    6.0295   -1.1189    3.7667 C   0  0  0  0  0  0  0  0  0  0  0  0 
    6.8961   -1.4286   -0.2472 C   0  0  0  0  0  0  0  0  0  0  0  0 
    8.0837   -1.8223   -2.7893 O   0  0  0  0  0  0  0  0  0  0  0  0 
    6.0691    0.2555    3.7468 O   0  0  0  0  0  0  0  0  0  0  0  0 
    6.4973   -2.5309   -0.5030 O   0  0  0  0  0  0  0  0  0  0  0  0 
    8.1348   -0.9475   -0.6775 O   0  0  0  0  0  0  0  0  0  0  0  0 
   10.4714   -0.2281   -1.4941 H   0  0  0  0  0  0  0  0  0  0  0  0 
   10.6538   -1.4956   -2.7489 H   0  0  0  0  0  0  0  0  0  0  0  0 
   10.6139   -1.9192   -1.0113 H   0  0  0  0  0  0  0  0  0  0  0  0 
    5.8796   -4.9890    3.6838 H   0  0  0  0  0  0  0  0  0  0  0  0 
    6.7550   -3.8152    5.7044 H   0  0  0  0  0  0  0  0  0  0  0  0 
    5.1137   -3.6608    1.7313 H   0  0  0  0  0  0  0  0  0  0  0  0 
    6.8485   -1.3357    5.7484 H   0  0  0  0  0  0  0  0  0  0  0  0 
    4.4044   -1.5565    0.8045 H   0  0  0  0  0  0  0  0  0  0  0  0 
    4.4542   -0.0952    1.7956 H   0  0  0  0  0  0  0  0  0  0  0  0 
    6.9323    0.1506    1.1951 H   0  0  0  0  0  0  0  0  0  0  0  0 
    5.8100    0.3684   -0.1322 H   0  0  0  0  0  0  0  0  0  0  0  0 
    6.4097    0.5698    4.5987 H   0  0  0  0  0  0  0  0  0  0  0  0 
  1 16  1  0  0  0  0 
  1 18  1  0  0  0  0 
  2  3  2  0  0  0  0 
  3  5  1  0  0  0  0 
  3 20  1  0  0  0  0 
  4  9  2  0  0  0  0 
  4  2  1  0  0  0  0 
  5 22  1  0  0  0  0 
  6 24  1  0  0  0  0 
  6  9  1  0  0  0  0 
  7 25  1  0  0  0  0 
  7  6  1  0  0  0  0 
  8  1  1  0  0  0  0 
  8 15  1  0  0  0  0 
  9 10  1  0  0  0  0 
 10  5  2  0  0  0  0 
 11  7  1  0  0  0  0 
 12  8  2  0  0  0  0 
 13 10  1  0  0  0  0 
 13 27  1  0  0  0  0 
 14 11  2  0  0  0  0 
 15 11  1  0  0  0  0 
 17  1  1  0  0  0  0 
 19  2  1  0  0  0  0 
 21  4  1  0  0  0  0 
 23  6  1  0  0  0  0 
 26  7  1  0  0  0  0 
M  END 
>  <HBA> 
4 
 
>  <HBD> 
1 
 
>  <TPSA> 
63.6 
 
>  <cid> 
28296 
 
>  <dipole> 
4.64 
 
>  <excitation_energy_1> 
4.655 
 
>  <excitation_energy_2> 
5.036 
 
>  <excitation_energy_3> 
5.042 
 
>  <excitation_energy_4> 
5.137 
 
>  <homo_energy> 
-5.989 
 
>  <homo_lumo_gap> 
5.347 
 
>  <logP> 
1.415 
 
>  <lumo_energy> 
-0.642 
 
>  <melting_point> 
79.3 
 
>  <molecular_refractivity> 
54.14 
 
>  <oscillator_strength_1> 
0.0027 
 
>  <oscillator_strength_2> 
0.0237 
 
>  <oscillator_strength_3> 
0.0144 
 
>  <oscillator_strength_4> 
0.0041 
 
>  <open_babel_can_smiles> 
O=C(OC(=O)C)CCc1ccccc1O 
 
>  <mulliken_charges> 
27 
1   -0.525817 
2   -0.131056 
3   -0.137132 
4   -0.191225 
5   -0.187577 
6   -0.336155 
7   -0.366219 
8   0.601738 
9   0.124802 
10   0.293544 
11   0.631153 
12   -0.405766 
13   -0.65214 
14   -0.418661 
15   -0.489086 
16   0.185938 
17   0.187323 
18   0.190393 
19   0.128267 
20   0.129515 
21   0.148248 
22   0.115136 
23   0.164349 
24   0.160886 
25   0.191842 
26   0.179212 
27   0.408488 
 
>  <lowdin_charges> 
27 
1   -0.46413 
2   -0.174974 
3   -0.149217 
4   -0.148674 
5   -0.215697 
6   -0.270052 
7   -0.301378 
8   0.224994 
9   -0.037655 
10   0.094502 
11   0.224211 
12   -0.205536 
13   -0.389607 
14   -0.207883 
15   -0.198681 
16   0.179531 
17   0.178232 
18   0.184031 
19   0.156516 
20   0.159006 
21   0.168015 
22   0.152329 
23   0.164584 
24   0.164048 
25   0.178961 
26   0.176637 
27   0.357889 
 
$$$$ 
 
