PCCDB-ID:  48542 
public computational chemistry database (PCCDB) project, http://pccdb.org 
 
 26 26  0  0  1  0  0  0  0  0999 V2000 
    2.0240   -1.5506    0.1115 C   0  0  0  0  0  0  0  0  0  0  0  0 
    6.5823    1.2783    1.7432 C   0  0  0  0  0  0  0  0  0  0  0  0 
    2.5540   -0.3828    0.4916 C   0  0  0  0  0  0  0  0  0  0  0  0 
    5.1200    0.9756    1.4002 C   0  0  0  0  0  0  0  0  0  0  0  0 
    3.3106    0.5510   -0.4198 C   0  0  0  0  0  0  0  0  0  0  0  0 
    5.3808    1.8952   -0.9350 C   0  0  0  0  0  0  0  0  0  0  0  0 
    5.6053   -0.5281   -0.5765 C   0  0  0  0  0  0  0  0  0  0  0  0 
    6.9178    0.6167   -2.1197 C   0  0  0  0  0  0  0  0  0  0  0  0 
    4.8494    0.7196   -0.1168 C   0  0  1  0  0  0  0  0  0  0  0  0 
    6.2879    1.8566   -1.8244 N   0  0  0  0  0  0  0  0  0  0  0  0 
    6.5271   -0.5724   -1.4549 N   0  0  0  0  0  0  0  0  0  0  0  0 
    4.8356    3.1089   -0.6770 O   0  0  0  0  0  0  0  0  0  0  0  0 
    5.2819   -1.6874    0.0312 O   0  0  0  0  0  0  0  0  0  0  0  0 
    7.7958    0.5792   -2.9514 O   0  0  0  0  0  0  0  0  0  0  0  0 
    1.4586   -2.1710    0.8013 H   0  0  0  0  0  0  0  0  0  0  0  0 
    2.1242   -1.9202   -0.9069 H   0  0  0  0  0  0  0  0  0  0  0  0 
    6.6926    1.4161    2.8236 H   0  0  0  0  0  0  0  0  0  0  0  0 
    6.9339    2.1907    1.2508 H   0  0  0  0  0  0  0  0  0  0  0  0 
    7.2399    0.4567    1.4415 H   0  0  0  0  0  0  0  0  0  0  0  0 
    2.4127   -0.0512    1.5200 H   0  0  0  0  0  0  0  0  0  0  0  0 
    4.4786    1.8017    1.7415 H   0  0  0  0  0  0  0  0  0  0  0  0 
    4.7895    0.0977    1.9653 H   0  0  0  0  0  0  0  0  0  0  0  0 
    2.8396    1.5411   -0.3563 H   0  0  0  0  0  0  0  0  0  0  0  0 
    3.2006    0.2297   -1.4617 H   0  0  0  0  0  0  0  0  0  0  0  0 
    4.2066    3.0480    0.0586 H   0  0  0  0  0  0  0  0  0  0  0  0 
    4.4269   -1.6035    0.4934 H   0  0  0  0  0  0  0  0  0  0  0  0 
  1  3  2  0  0  0  0 
  1 15  1  0  0  0  0 
  2 17  1  0  0  0  0 
  3 20  1  0  0  0  0 
  4 21  1  0  0  0  0 
  4  2  1  0  0  0  0 
  4 22  1  0  0  0  0 
  5 23  1  0  0  0  0 
  5  3  1  0  0  0  0 
  6 12  1  0  0  0  0 
  6  9  1  0  0  0  0 
  7  9  1  0  0  0  0 
  7 13  1  0  0  0  0 
  8 10  2  0  0  0  0 
  8 11  1  0  0  0  0 
  9  5  1  6  0  0  0 
  9  4  1  0  0  0  0 
 10  6  2  0  0  0  0 
 11  7  2  0  0  0  0 
 12 25  1  0  0  0  0 
 13 26  1  0  0  0  0 
 14  8  2  0  0  0  0 
 16  1  1  0  0  0  0 
 18  2  1  0  0  0  0 
 19  2  1  0  0  0  0 
 24  5  1  0  0  0  0 
M  END 
>  <HBA> 
5 
 
>  <HBD> 
2 
 
>  <TPSA> 
75.27 
 
>  <cid> 
48542 
 
>  <dipole> 
10.43 
 
>  <excitation_energy_1> 
3.956 
 
>  <excitation_energy_2> 
4.118 
 
>  <excitation_energy_3> 
5.148 
 
>  <excitation_energy_4> 
5.274 
 
>  <homo_energy> 
-6.838 
 
>  <homo_lumo_gap> 
5.282 
 
>  <logP> 
0.983 
 
>  <lumo_energy> 
-1.557 
 
>  <melting_point> 
120.98 
 
>  <molecular_refractivity> 
56.95 
 
>  <oscillator_strength_1> 
0.0 
 
>  <oscillator_strength_2> 
0.0 
 
>  <oscillator_strength_3> 
0.002 
 
>  <oscillator_strength_4> 
0.0028 
 
>  <open_babel_can_smiles> 
C=CC[C@@]1(CC)C(=N[C](=[N]=C1O)=O)O 
 
>  <mulliken_charges> 
26 
1   -0.32846 
2   -0.469048 
3   -0.109361 
4   -0.279495 
5   -0.324207 
6   0.546557 
7   0.534944 
8   0.618096 
9   -0.133066 
10   -0.46834 
11   -0.466968 
12   -0.57929 
13   -0.587697 
14   -0.432131 
15   0.168555 
16   0.174096 
17   0.160772 
18   0.179707 
19   0.183753 
20   0.153298 
21   0.131383 
22   0.155083 
23   0.154811 
24   0.186207 
25   0.414581 
26   0.416218 
 
>  <lowdin_charges> 
26 
1   -0.313825 
2   -0.451714 
3   -0.170935 
4   -0.274475 
5   -0.272208 
6   0.143894 
7   0.1451 
8   0.168183 
9   -0.059709 
10   -0.181121 
11   -0.186005 
12   -0.333312 
13   -0.336974 
14   -0.208615 
15   0.174059 
16   0.170935 
17   0.160416 
18   0.165896 
19   0.169212 
20   0.159997 
21   0.139851 
22   0.154226 
23   0.157126 
24   0.170493 
25   0.355997 
26   0.353507 
 
$$$$ 
 
