PCCDB-ID:  70911 
public computational chemistry database (PCCDB) project, http://pccdb.org 
 
 31 30  0  0  0  0  0  0  0  0999 V2000 
    5.2412    3.1403   -1.3425 C   0  0  0  0  0  0  0  0  0  0  0  0 
    4.4259    2.5833    0.9677 C   0  0  0  0  0  0  0  0  0  0  0  0 
    5.3313   -4.6893   -3.7515 C   0  0  0  0  0  0  0  0  0  0  0  0 
    7.7090   -4.3658   -4.4961 C   0  0  0  0  0  0  0  0  0  0  0  0 
    6.2081   -1.9695    0.2721 C   0  0  0  0  0  0  0  0  0  0  0  0 
    4.8039   -1.4455   -0.0225 C   0  0  0  0  0  0  0  0  0  0  0  0 
    6.3091   -3.4853    0.1238 C   0  0  0  0  0  0  0  0  0  0  0  0 
    4.9189    2.2329   -0.4127 C   0  0  0  0  0  0  0  0  0  0  0  0 
    6.5976   -4.3496   -3.4801 C   0  0  0  0  0  0  0  0  0  0  0  0 
    5.0685    0.7908   -0.7916 C   0  0  0  0  0  0  0  0  0  0  0  0 
    7.0095   -3.9206   -2.1096 C   0  0  0  0  0  0  0  0  0  0  0  0 
    5.4531    0.3837   -1.8700 O   0  0  0  0  0  0  0  0  0  0  0  0 
    8.1511   -3.6203   -1.8182 O   0  0  0  0  0  0  0  0  0  0  0  0 
    4.7120   -0.0275    0.2312 O   0  0  0  0  0  0  0  0  0  0  0  0 
    5.9846   -3.9066   -1.2184 O   0  0  0  0  0  0  0  0  0  0  0  0 
    5.1605    4.2060   -1.1476 H   0  0  0  0  0  0  0  0  0  0  0  0 
    5.5924    2.8276   -2.3203 H   0  0  0  0  0  0  0  0  0  0  0  0 
    4.3785    3.6688    1.0956 H   0  0  0  0  0  0  0  0  0  0  0  0 
    5.0828    2.1702    1.7415 H   0  0  0  0  0  0  0  0  0  0  0  0 
    3.4283    2.1681    1.1510 H   0  0  0  0  0  0  0  0  0  0  0  0 
    5.0372   -4.9995   -4.7507 H   0  0  0  0  0  0  0  0  0  0  0  0 
    4.5586   -4.6641   -2.9918 H   0  0  0  0  0  0  0  0  0  0  0  0 
    7.3383   -4.6870   -5.4736 H   0  0  0  0  0  0  0  0  0  0  0  0 
    8.5153   -5.0396   -4.1851 H   0  0  0  0  0  0  0  0  0  0  0  0 
    8.1584   -3.3717   -4.5979 H   0  0  0  0  0  0  0  0  0  0  0  0 
    6.4856   -1.7052    1.3007 H   0  0  0  0  0  0  0  0  0  0  0  0 
    6.9288   -1.4912   -0.3981 H   0  0  0  0  0  0  0  0  0  0  0  0 
    4.0657   -1.8941    0.6492 H   0  0  0  0  0  0  0  0  0  0  0  0 
    4.5221   -1.6423   -1.0583 H   0  0  0  0  0  0  0  0  0  0  0  0 
    5.5800   -3.9999    0.7573 H   0  0  0  0  0  0  0  0  0  0  0  0 
    7.3150   -3.8282    0.3744 H   0  0  0  0  0  0  0  0  0  0  0  0 
  1 16  1  0  0  0  0 
  1  8  2  0  0  0  0 
  2 18  1  0  0  0  0 
  2 20  1  0  0  0  0 
  2 19  1  0  0  0  0 
  3  9  2  0  0  0  0 
  3 22  1  0  0  0  0 
  4 24  1  0  0  0  0 
  4  9  1  0  0  0  0 
  5 26  1  0  0  0  0 
  6 14  1  0  0  0  0 
  6  5  1  0  0  0  0 
  6 28  1  0  0  0  0 
  7  5  1  0  0  0  0 
  7 31  1  0  0  0  0 
  7 30  1  0  0  0  0 
  8  2  1  0  0  0  0 
  9 11  1  0  0  0  0 
 10  8  1  0  0  0  0 
 10 14  1  0  0  0  0 
 11 13  2  0  0  0  0 
 11 15  1  0  0  0  0 
 12 10  2  0  0  0  0 
 15  7  1  0  0  0  0 
 17  1  1  0  0  0  0 
 21  3  1  0  0  0  0 
 23  4  1  0  0  0  0 
 25  4  1  0  0  0  0 
 27  5  1  0  0  0  0 
 29  6  1  0  0  0  0 
M  END 
>  <HBA> 
4 
 
>  <HBD> 
0 
 
>  <TPSA> 
52.6 
 
>  <cid> 
70911 
 
>  <dipole> 
2.44 
 
>  <excitation_energy_1> 
4.816 
 
>  <excitation_energy_2> 
4.832 
 
>  <excitation_energy_3> 
5.616 
 
>  <excitation_energy_4> 
5.623 
 
>  <homo_energy> 
-7.225 
 
>  <homo_lumo_gap> 
6.172 
 
>  <logP> 
1.615 
 
>  <lumo_energy> 
-1.053 
 
>  <melting_point> 
-39.36 
 
>  <molecular_refractivity> 
56.61 
 
>  <oscillator_strength_1> 
0.0001 
 
>  <oscillator_strength_2> 
0.0001 
 
>  <oscillator_strength_3> 
0.0095 
 
>  <oscillator_strength_4> 
0.0012 
 
>  <open_babel_can_smiles> 
O=C(C(=C)C)OCCCOC(=O)C(=C)C 
 
>  <mulliken_charges> 
31 
1   -0.357444 
2   -0.503662 
3   -0.366748 
4   -0.501181 
5   -0.305655 
6   -0.040675 
7   -0.059923 
8   0.127341 
9   0.129849 
10   0.588915 
11   0.60269 
12   -0.490994 
13   -0.484783 
14   -0.478908 
15   -0.481347 
16   0.147266 
17   0.178846 
18   0.150235 
19   0.167408 
20   0.167761 
21   0.149019 
22   0.169634 
23   0.147133 
24   0.171719 
25   0.176979 
26   0.149235 
27   0.191311 
28   0.146059 
29   0.182396 
30   0.149242 
31   0.178283 
 
>  <lowdin_charges> 
31 
1   -0.288208 
2   -0.437551 
3   -0.300368 
4   -0.434524 
5   -0.298538 
6   -0.132717 
7   -0.130334 
8   -0.03171 
9   -0.025536 
10   0.193197 
11   0.195831 
12   -0.271489 
13   -0.266041 
14   -0.192317 
15   -0.197772 
16   0.161274 
17   0.179633 
18   0.155082 
19   0.165852 
20   0.164423 
21   0.163129 
22   0.174791 
23   0.155283 
24   0.168879 
25   0.170229 
26   0.155163 
27   0.173221 
28   0.150805 
29   0.16337 
30   0.151915 
31   0.165029 
 
$$$$ 
 
