PCCDB-ID:  16984 
public computational chemistry database (PCCDB) project, http://pccdb.org 
 
 19 20  0  0  0  0  0  0  0  0999 V2000 
    2.1612   -1.3286   -0.4131 C   0  0  0  0  0  0  0  0  0  0  0  0 
    3.1224    4.0563    1.8965 C   0  0  0  0  0  0  0  0  0  0  0  0 
    3.8774    3.9627    3.1083 C   0  0  0  0  0  0  0  0  0  0  0  0 
    2.8242    2.9319    1.1700 C   0  0  0  0  0  0  0  0  0  0  0  0 
    4.3313    2.7609    3.5850 C   0  0  0  0  0  0  0  0  0  0  0  0 
    3.2728    1.6635    1.6364 C   0  0  0  0  0  0  0  0  0  0  0  0 
    4.0401    1.5640    2.8570 C   0  0  0  0  0  0  0  0  0  0  0  0 
    3.0962    0.3875    1.0804 C   0  0  0  0  0  0  0  0  0  0  0  0 
    2.4532    0.0552   -0.0798 N   0  0  0  0  0  0  0  0  0  0  0  0 
    4.4432    0.3490    3.2431 N   0  0  0  0  0  0  0  0  0  0  0  0 
    3.8807   -0.7617    2.1180 S   0  0  0  0  0  0  0  0  0  0  0  0 
    1.6798   -1.3641   -1.3929 H   0  0  0  0  0  0  0  0  0  0  0  0 
    1.5068   -1.8171    0.3253 H   0  0  0  0  0  0  0  0  0  0  0  0 
    3.0957   -1.8979   -0.4752 H   0  0  0  0  0  0  0  0  0  0  0  0 
    2.7885    5.0312    1.5535 H   0  0  0  0  0  0  0  0  0  0  0  0 
    4.0961    4.8745    3.6582 H   0  0  0  0  0  0  0  0  0  0  0  0 
    2.2608    3.0109    0.2424 H   0  0  0  0  0  0  0  0  0  0  0  0 
    4.9081    2.6862    4.5013 H   0  0  0  0  0  0  0  0  0  0  0  0 
    1.7839    0.7400   -0.4068 H   0  0  0  0  0  0  0  0  0  0  0  0 
  1  9  1  0  0  0  0 
  1 13  1  0  0  0  0 
  2  3  1  0  0  0  0 
  3  5  2  0  0  0  0 
  3 16  1  0  0  0  0 
  4  6  1  0  0  0  0 
  4  2  2  0  0  0  0 
  5 18  1  0  0  0  0 
  6  7  1  0  0  0  0 
  7 10  2  0  0  0  0 
  7  5  1  0  0  0  0 
  8  6  2  0  0  0  0 
  8 11  1  0  0  0  0 
  9  8  1  0  0  0  0 
 11 10  1  0  0  0  0 
 12  1  1  0  0  0  0 
 14  1  1  0  0  0  0 
 15  2  1  0  0  0  0 
 17  4  1  0  0  0  0 
 19  9  1  0  0  0  0 
M  END 
>  <HBA> 
3 
 
>  <HBD> 
1 
 
>  <TPSA> 
53.16 
 
>  <cid> 
16984 
 
>  <dipole> 
4.6 
 
>  <excitation_energy_1> 
3.467 
 
>  <excitation_energy_2> 
4.18 
 
>  <excitation_energy_3> 
4.537 
 
>  <excitation_energy_4> 
4.625 
 
>  <homo_energy> 
-5.108 
 
>  <homo_lumo_gap> 
3.875 
 
>  <logP> 
2.411 
 
>  <lumo_energy> 
-1.233 
 
>  <melting_point> 
97.94 
 
>  <molecular_refractivity> 
48.93 
 
>  <oscillator_strength_1> 
0.1186 
 
>  <oscillator_strength_2> 
0.0003 
 
>  <oscillator_strength_3> 
0.0039 
 
>  <oscillator_strength_4> 
0.0552 
 
>  <open_babel_can_smiles> 
CNc1snc2c1cccc2 
 
>  <mulliken_charges> 
19 
1   -0.321267 
2   -0.144273 
3   -0.144156 
4   -0.180931 
5   -0.132217 
6   0.156444 
7   0.223124 
8   -0.008089 
9   -0.587102 
10   -0.610398 
11   0.374297 
12   0.168093 
13   0.168987 
14   0.18567 
15   0.126222 
16   0.130362 
17   0.114943 
18   0.141754 
19   0.338536 
 
>  <lowdin_charges> 
19 
1   -0.353249 
2   -0.175506 
3   -0.152628 
4   -0.156165 
5   -0.159415 
6   -0.086433 
7   0.028911 
8   -0.097697 
9   -0.269662 
10   -0.387738 
11   0.404096 
12   0.164468 
13   0.152104 
14   0.166577 
15   0.157156 
16   0.159408 
17   0.149673 
18   0.168218 
19   0.287881 
 
$$$$ 
 
