PCCDB-ID:  70945 
public computational chemistry database (PCCDB) project, http://pccdb.org 
 
 19 19  0  0  0  0  0  0  0  0999 V2000 
    1.0702    0.0644   -0.2914 C   0  0  0  0  0  0  0  0  0  0  0  0 
    3.2693   -0.3285    2.9716 C   0  0  0  0  0  0  0  0  0  0  0  0 
    2.6923   -1.5150    2.1791 C   0  0  0  0  0  0  0  0  0  0  0  0 
    2.6996    1.0133    2.4773 C   0  0  0  0  0  0  0  0  0  0  0  0 
    2.5777    0.0158    0.0753 C   0  0  0  0  0  0  0  0  0  0  0  0 
    2.9130   -1.3522    0.6807 C   0  0  0  0  0  0  0  0  0  0  0  0 
    2.9229    1.2024    0.9823 C   0  0  0  0  0  0  0  0  0  0  0  0 
    3.3198   -2.2570   -0.0210 O   0  0  0  0  0  0  0  0  0  0  0  0 
    3.3398    2.2420    0.5111 O   0  0  0  0  0  0  0  0  0  0  0  0 
    0.8338   -0.7467   -0.9869 H   0  0  0  0  0  0  0  0  0  0  0  0 
    0.8386    1.0185   -0.7749 H   0  0  0  0  0  0  0  0  0  0  0  0 
    0.4266   -0.0398    0.5890 H   0  0  0  0  0  0  0  0  0  0  0  0 
    4.3629   -0.3201    2.8741 H   0  0  0  0  0  0  0  0  0  0  0  0 
    3.0506   -0.4535    4.0375 H   0  0  0  0  0  0  0  0  0  0  0  0 
    1.6086   -1.5795    2.3616 H   0  0  0  0  0  0  0  0  0  0  0  0 
    3.1332   -2.4679    2.4846 H   0  0  0  0  0  0  0  0  0  0  0  0 
    3.1449    1.8662    2.9967 H   0  0  0  0  0  0  0  0  0  0  0  0 
    1.6158    1.0390    2.6693 H   0  0  0  0  0  0  0  0  0  0  0  0 
    3.1552    0.1226   -0.8480 H   0  0  0  0  0  0  0  0  0  0  0  0 
  1  5  1  0  0  0  0 
  1 12  1  0  0  0  0 
  2 14  1  0  0  0  0 
  3 15  1  0  0  0  0 
  3 16  1  0  0  0  0 
  3  2  1  0  0  0  0 
  4 18  1  0  0  0  0 
  4  2  1  0  0  0  0 
  4 17  1  0  0  0  0 
  5  6  1  0  0  0  0 
  5  7  1  0  0  0  0 
  6  3  1  0  0  0  0 
  7  4  1  0  0  0  0 
  8  6  2  0  0  0  0 
  9  7  2  0  0  0  0 
 10  1  1  0  0  0  0 
 11  1  1  0  0  0  0 
 13  2  1  0  0  0  0 
 19  5  1  0  0  0  0 
M  END 
>  <HBA> 
2 
 
>  <HBD> 
0 
 
>  <TPSA> 
34.14 
 
>  <cid> 
70945 
 
>  <dipole> 
3.41 
 
>  <excitation_energy_1> 
4.064 
 
>  <excitation_energy_2> 
4.298 
 
>  <excitation_energy_3> 
5.188 
 
>  <excitation_energy_4> 
5.602 
 
>  <homo_energy> 
-6.588 
 
>  <homo_lumo_gap> 
5.576 
 
>  <logP> 
0.945 
 
>  <lumo_energy> 
-1.012 
 
>  <melting_point> 
38.13 
 
>  <molecular_refractivity> 
34.05 
 
>  <oscillator_strength_1> 
0.0016 
 
>  <oscillator_strength_2> 
0.0003 
 
>  <oscillator_strength_3> 
0.0012 
 
>  <oscillator_strength_4> 
0.0419 
 
>  <open_babel_can_smiles> 
O=C1CCCC(=O)C1C 
 
>  <mulliken_charges> 
19 
1   -0.468757 
2   -0.289368 
3   -0.354123 
4   -0.353981 
5   -0.24183 
6   0.452754 
7   0.452354 
8   -0.441948 
9   -0.441805 
10   0.17925 
11   0.179148 
12   0.150788 
13   0.161461 
14   0.158016 
15   0.162598 
16   0.174871 
17   0.174786 
18   0.162478 
19   0.183307 
 
>  <lowdin_charges> 
19 
1   -0.431883 
2   -0.269242 
3   -0.307846 
4   -0.308248 
5   -0.182986 
6   0.159029 
7   0.156878 
8   -0.2267 
9   -0.225979 
10   0.168812 
11   0.168002 
12   0.150622 
13   0.15062 
14   0.156855 
15   0.161014 
16   0.170629 
17   0.171452 
18   0.16092 
19   0.17805 
 
$$$$ 
 
