PCCDB-ID:  61312 
public computational chemistry database (PCCDB) project, http://pccdb.org 
 
 24 23  0  0  0  0  0  0  0  0999 V2000 
    2.2873    1.1444    2.1888 C   0  0  0  0  0  0  0  0  0  0  0  0 
    7.8806    1.6994   -4.5569 C   0  0  0  0  0  0  0  0  0  0  0  0 
    1.8479    0.9738    0.7245 C   0  0  0  0  0  0  0  0  0  0  0  0 
    7.7374    2.4274   -3.2287 C   0  0  0  0  0  0  0  0  0  0  0  0 
    2.6441    1.8276   -0.2248 C   0  0  0  0  0  0  0  0  0  0  0  0 
    3.3980    1.3680   -1.2256 C   0  0  0  0  0  0  0  0  0  0  0  0 
    4.1801    2.2392   -2.1679 C   0  0  0  0  0  0  0  0  0  0  0  0 
    5.6183    1.7771   -2.3518 C   0  0  0  0  0  0  0  0  0  0  0  0 
    6.0524    0.6897   -2.0386 O   0  0  0  0  0  0  0  0  0  0  0  0 
    6.3530    2.7453   -2.9465 O   0  0  0  0  0  0  0  0  0  0  0  0 
    1.6709    0.5334    2.8579 H   0  0  0  0  0  0  0  0  0  0  0  0 
    2.1956    2.1888    2.5107 H   0  0  0  0  0  0  0  0  0  0  0  0 
    3.3332    0.8461    2.3198 H   0  0  0  0  0  0  0  0  0  0  0  0 
    8.9415    1.5382   -4.7806 H   0  0  0  0  0  0  0  0  0  0  0  0 
    7.4427    2.2853   -5.3718 H   0  0  0  0  0  0  0  0  0  0  0  0 
    7.3871    0.7242   -4.5164 H   0  0  0  0  0  0  0  0  0  0  0  0 
    0.7819    1.2356    0.6437 H   0  0  0  0  0  0  0  0  0  0  0  0 
    1.9330   -0.0799    0.4308 H   0  0  0  0  0  0  0  0  0  0  0  0 
    8.2388    3.3983   -3.2479 H   0  0  0  0  0  0  0  0  0  0  0  0 
    8.1359    1.8298   -2.4052 H   0  0  0  0  0  0  0  0  0  0  0  0 
    2.5954    2.9055   -0.0500 H   0  0  0  0  0  0  0  0  0  0  0  0 
    3.4724    0.2956   -1.3997 H   0  0  0  0  0  0  0  0  0  0  0  0 
    4.1795    3.2870   -1.8484 H   0  0  0  0  0  0  0  0  0  0  0  0 
    3.7284    2.2334   -3.1733 H   0  0  0  0  0  0  0  0  0  0  0  0 
  1 13  1  0  0  0  0 
  1 12  1  0  0  0  0 
  1 11  1  0  0  0  0 
  2 16  1  0  0  0  0 
  2  4  1  0  0  0  0 
  3  1  1  0  0  0  0 
  4 10  1  0  0  0  0 
  4 20  1  0  0  0  0 
  5 21  1  0  0  0  0 
  5  3  1  0  0  0  0 
  6  5  2  0  0  0  0 
  7 23  1  0  0  0  0 
  7  6  1  0  0  0  0 
  8  7  1  0  0  0  0 
  8  9  2  0  0  0  0 
 10  8  1  0  0  0  0 
 14  2  1  0  0  0  0 
 15  2  1  0  0  0  0 
 17  3  1  0  0  0  0 
 18  3  1  0  0  0  0 
 19  4  1  0  0  0  0 
 22  6  1  0  0  0  0 
 24  7  1  0  0  0  0 
M  END 
>  <HBA> 
2 
 
>  <HBD> 
0 
 
>  <TPSA> 
26.3 
 
>  <cid> 
61312 
 
>  <dipole> 
1.53 
 
>  <excitation_energy_1> 
5.765 
 
>  <excitation_energy_2> 
6.037 
 
>  <excitation_energy_3> 
6.296 
 
>  <excitation_energy_4> 
6.495 
 
>  <homo_energy> 
-6.588 
 
>  <homo_lumo_gap> 
7.037 
 
>  <logP> 
1.906 
 
>  <lumo_energy> 
0.449 
 
>  <melting_point> 
-5.66 
 
>  <molecular_refractivity> 
41.38 
 
>  <oscillator_strength_1> 
0.0007 
 
>  <oscillator_strength_2> 
0.0013 
 
>  <oscillator_strength_3> 
0.0188 
 
>  <oscillator_strength_4> 
0.1386 
 
>  <open_babel_can_smiles> 
CC/C=C/CC(=O)OCC 
 
>  <mulliken_charges> 
24 
1   -0.440275 
2   -0.461861 
3   -0.295314 
4   -0.043914 
5   -0.092187 
6   -0.078885 
7   -0.416417 
8   0.62494 
9   -0.475012 
10   -0.462313 
11   0.143534 
12   0.141976 
13   0.154542 
14   0.150307 
15   0.156222 
16   0.175733 
17   0.141093 
18   0.142522 
19   0.151893 
20   0.170937 
21   0.114326 
22   0.141395 
23   0.174991 
24   0.181766 
 
>  <lowdin_charges> 
24 
1   -0.441779 
2   -0.454335 
3   -0.264825 
4   -0.12787 
5   -0.159221 
6   -0.164709 
7   -0.29436 
8   0.197683 
9   -0.267432 
10   -0.198871 
11   0.151272 
12   0.145644 
13   0.151671 
14   0.157456 
15   0.156458 
16   0.164685 
17   0.145772 
18   0.146474 
19   0.151777 
20   0.159947 
21   0.141911 
22   0.158173 
23   0.169499 
24   0.174982 
 
$$$$ 
 
