PCCDB-ID:  17129 
public computational chemistry database (PCCDB) project, http://pccdb.org 
 
 32 31  0  0  1  0  0  0  0  0999 V2000 
    9.5823   -1.0565    1.1562 C   0  0  0  0  0  0  0  0  0  0  0  0 
    6.4347    4.8839   -1.4732 C   0  0  0  0  0  0  0  0  0  0  0  0 
    6.8629   -0.3914   -0.2611 C   0  0  0  0  0  0  0  0  0  0  0  0 
    3.6917    4.3870    1.3009 C   0  0  0  0  0  0  0  0  0  0  0  0 
    8.3153   -0.5386    1.8465 C   0  0  0  0  0  0  0  0  0  0  0  0 
    5.4469    5.2219   -0.3519 C   0  0  0  0  0  0  0  0  0  0  0  0 
    6.2964    0.9370    1.8183 C   0  0  0  0  0  0  0  0  0  0  0  0 
    7.4230    0.3529    0.9591 C   0  0  2  0  0  0  0  0  0  0  0  0 
    4.7969    3.9905    0.2988 C   0  0  1  0  0  0  0  0  0  0  0  0 
    5.8284    3.1437    1.0341 C   0  0  0  0  0  0  0  0  0  0  0  0 
    6.8351    3.5690    1.5623 O   0  0  0  0  0  0  0  0  0  0  0  0 
    5.4483    1.8436    1.0740 O   0  0  0  0  0  0  0  0  0  0  0  0 
   10.2025   -1.6244    1.8588 H   0  0  0  0  0  0  0  0  0  0  0  0 
   10.1892   -0.2274    0.7724 H   0  0  0  0  0  0  0  0  0  0  0  0 
    9.3504   -1.7179    0.3145 H   0  0  0  0  0  0  0  0  0  0  0  0 
    6.8458    5.7958   -1.9203 H   0  0  0  0  0  0  0  0  0  0  0  0 
    5.9505    4.3103   -2.2736 H   0  0  0  0  0  0  0  0  0  0  0  0 
    7.2749    4.2942   -1.0917 H   0  0  0  0  0  0  0  0  0  0  0  0 
    7.6621   -0.7185   -0.9339 H   0  0  0  0  0  0  0  0  0  0  0  0 
    6.1858    0.2501   -0.8336 H   0  0  0  0  0  0  0  0  0  0  0  0 
    6.3002   -1.2823    0.0487 H   0  0  0  0  0  0  0  0  0  0  0  0 
    2.9121    4.9656    0.7935 H   0  0  0  0  0  0  0  0  0  0  0  0 
    4.1043    5.0045    2.1068 H   0  0  0  0  0  0  0  0  0  0  0  0 
    3.2257    3.5031    1.7480 H   0  0  0  0  0  0  0  0  0  0  0  0 
    8.6080    0.0327    2.7383 H   0  0  0  0  0  0  0  0  0  0  0  0 
    7.7232   -1.3921    2.2097 H   0  0  0  0  0  0  0  0  0  0  0  0 
    4.6449    5.8597   -0.7465 H   0  0  0  0  0  0  0  0  0  0  0  0 
    5.9588    5.7978    0.4279 H   0  0  0  0  0  0  0  0  0  0  0  0 
    6.7041    1.4693    2.6815 H   0  0  0  0  0  0  0  0  0  0  0  0 
    5.6182    0.1490    2.1613 H   0  0  0  0  0  0  0  0  0  0  0  0 
    8.0314    1.1991    0.6106 H   0  0  0  0  0  0  0  0  0  0  0  0 
    4.3457    3.3577   -0.4757 H   0  0  0  0  0  0  0  0  0  0  0  0 
  1  5  1  0  0  0  0 
  1 13  1  0  0  0  0 
  2 18  1  0  0  0  0 
  2  6  1  0  0  0  0 
  3 21  1  0  0  0  0 
  3  8  1  0  0  0  0 
  4 24  1  0  0  0  0 
  4 23  1  0  0  0  0 
  5 26  1  0  0  0  0 
  5 25  1  0  0  0  0 
  6  9  1  0  0  0  0 
  6 28  1  0  0  0  0 
  7 30  1  0  0  0  0 
  7 29  1  0  0  0  0 
  8 31  1  6  0  0  0 
  8  7  1  0  0  0  0 
  8  5  1  0  0  0  0 
  9 32  1  6  0  0  0 
  9 10  1  0  0  0  0 
  9  4  1  0  0  0  0 
 10 12  1  0  0  0  0 
 10 11  2  0  0  0  0 
 12  7  1  0  0  0  0 
 14  1  1  0  0  0  0 
 15  1  1  0  0  0  0 
 16  2  1  0  0  0  0 
 17  2  1  0  0  0  0 
 19  3  1  0  0  0  0 
 20  3  1  0  0  0  0 
 22  4  1  0  0  0  0 
 27  6  1  0  0  0  0 
M  END 
>  <HBA> 
2 
 
>  <HBD> 
0 
 
>  <TPSA> 
26.3 
 
>  <cid> 
17129 
 
>  <dipole> 
1.47 
 
>  <excitation_energy_1> 
5.729 
 
>  <excitation_energy_2> 
6.901 
 
>  <excitation_energy_3> 
7.241 
 
>  <excitation_energy_4> 
7.295 
 
>  <homo_energy> 
-7.195 
 
>  <homo_lumo_gap> 
7.6 
 
>  <logP> 
2.622 
 
>  <lumo_energy> 
0.405 
 
>  <melting_point> 
-16.78 
 
>  <molecular_refractivity> 
51.47 
 
>  <oscillator_strength_1> 
0.0021 
 
>  <oscillator_strength_2> 
0.0036 
 
>  <oscillator_strength_3> 
0.01 
 
>  <oscillator_strength_4> 
0.032 
 
>  <open_babel_can_smiles> 
CC[C@H](COC(=O)[C@H](CC)C)C 
 
>  <mulliken_charges> 
32 
1   -0.447791 
2   -0.456382 
3   -0.453088 
4   -0.457909 
5   -0.256391 
6   -0.244482 
7   -0.045806 
8   -0.093707 
9   -0.156726 
10   0.627996 
11   -0.489207 
12   -0.47294 
13   0.144921 
14   0.14682 
15   0.147966 
16   0.14525 
17   0.137811 
18   0.160874 
19   0.147994 
20   0.156025 
21   0.136267 
22   0.1525 
23   0.159788 
24   0.158503 
25   0.137802 
26   0.128088 
27   0.128805 
28   0.155262 
29   0.164927 
30   0.14359 
31   0.14636 
32   0.146882 
 
>  <lowdin_charges> 
32 
1   -0.447559 
2   -0.450877 
3   -0.45233 
4   -0.440065 
5   -0.274302 
6   -0.272975 
7   -0.138144 
8   -0.136892 
9   -0.148598 
10   0.200791 
11   -0.273059 
12   -0.195 
13   0.153155 
14   0.150229 
15   0.149412 
16   0.152798 
17   0.145129 
18   0.156173 
19   0.152636 
20   0.156988 
21   0.145085 
22   0.155683 
23   0.157105 
24   0.157671 
25   0.144776 
26   0.138882 
27   0.143492 
28   0.155456 
29   0.158624 
30   0.149997 
31   0.149891 
32   0.155829 
 
$$$$ 
 
