PCCDB-ID:  67152 
public computational chemistry database (PCCDB) project, http://pccdb.org 
 
 15 14  0  0  0  0  0  0  0  0999 V2000 
    0.9454   -0.4237    0.2512 C   0  0  0  0  0  0  0  0  0  0  0  0 
    2.4013   -0.0168    0.1553 C   0  0  0  0  0  0  0  0  0  0  0  0 
    4.7804   -3.4288   -0.8029 C   0  0  0  0  0  0  0  0  0  0  0  0 
    6.6937   -1.8734   -0.7822 C   0  0  0  0  0  0  0  0  0  0  0  0 
    4.4742   -1.0553   -0.3279 C   0  0  0  0  0  0  0  0  0  0  0  0 
    5.2910   -2.1043   -0.6314 C   0  0  0  0  0  0  0  0  0  0  0  0 
    4.3680   -4.5073   -0.9426 N   0  0  0  0  0  0  0  0  0  0  0  0 
    7.8339   -1.6742   -0.9028 N   0  0  0  0  0  0  0  0  0  0  0  0 
    3.1681   -1.2032   -0.1783 O   0  0  0  0  0  0  0  0  0  0  0  0 
    0.3365    0.4498    0.5061 H   0  0  0  0  0  0  0  0  0  0  0  0 
    0.8061   -1.1836    1.0255 H   0  0  0  0  0  0  0  0  0  0  0  0 
    0.5927   -0.8283   -0.7019 H   0  0  0  0  0  0  0  0  0  0  0  0 
    2.7742    0.3811    1.1065 H   0  0  0  0  0  0  0  0  0  0  0  0 
    2.5615    0.7326   -0.6290 H   0  0  0  0  0  0  0  0  0  0  0  0 
    4.8927   -0.0574   -0.2019 H   0  0  0  0  0  0  0  0  0  0  0  0 
  1 10  1  0  0  0  0 
  1 11  1  0  0  0  0 
  2  1  1  0  0  0  0 
  2 13  1  0  0  0  0 
  3  6  1  0  0  0  0 
  4  6  1  0  0  0  0 
  5 15  1  0  0  0  0 
  5  9  1  0  0  0  0 
  6  5  2  0  0  0  0 
  7  3  3  0  0  0  0 
  8  4  3  0  0  0  0 
  9  2  1  0  0  0  0 
 12  1  1  0  0  0  0 
 14  2  1  0  0  0  0 
M  END 
>  <HBA> 
3 
 
>  <HBD> 
0 
 
>  <TPSA> 
56.81 
 
>  <cid> 
67152 
 
>  <dipole> 
7.58 
 
>  <excitation_energy_1> 
5.143 
 
>  <excitation_energy_2> 
5.695 
 
>  <excitation_energy_3> 
6.036 
 
>  <excitation_energy_4> 
6.189 
 
>  <homo_energy> 
-7.176 
 
>  <homo_lumo_gap> 
5.252 
 
>  <logP> 
0.954 
 
>  <lumo_energy> 
-1.924 
 
>  <melting_point> 
45.5 
 
>  <molecular_refractivity> 
31.07 
 
>  <oscillator_strength_1> 
0.4309 
 
>  <oscillator_strength_2> 
0.0 
 
>  <oscillator_strength_3> 
0.0 
 
>  <oscillator_strength_4> 
0.0057 
 
>  <open_babel_can_smiles> 
CCOC=C(C#N)C#N 
 
>  <mulliken_charges> 
15 
1   -0.462844 
2   -0.052058 
3   0.31151 
4   0.280264 
5   0.186384 
6   0.046762 
7   -0.468171 
8   -0.466 
9   -0.4163 
10   0.164815 
11   0.180948 
12   0.180473 
13   0.166658 
14   0.165947 
15   0.181611 
 
>  <lowdin_charges> 
15 
1   -0.447111 
2   -0.119729 
3   -0.001614 
4   -0.009948 
5   0.029597 
6   -0.08636 
7   -0.098039 
8   -0.107174 
9   -0.147464 
10   0.167844 
11   0.170254 
12   0.169442 
13   0.153083 
14   0.153503 
15   0.173716 
 
$$$$ 
 
