PCCDB-ID:  12303 
public computational chemistry database (PCCDB) project, http://pccdb.org 
 
 17 16  0  0  0  0  0  0  0  0999 V2000 
    0.8515   -0.2310    0.3746 C   0  0  0  0  0  0  0  0  0  0  0  0 
    2.1562    0.3102   -0.2169 C   0  0  0  0  0  0  0  0  0  0  0  0 
    3.3398   -0.6295    0.0202 C   0  0  0  0  0  0  0  0  0  0  0  0 
    5.7639   -0.7353   -0.4338 C   0  0  0  0  0  0  0  0  0  0  0  0 
    6.1202   -1.6839    0.3466 N   0  0  0  0  0  0  0  0  0  0  0  0 
    4.5585   -0.0825   -0.5556 N   0  0  0  0  0  0  0  0  0  0  0  0 
    6.6709   -0.2022   -1.2987 O   0  0  0  0  0  0  0  0  0  0  0  0 
    0.0205    0.4564    0.1853 H   0  0  0  0  0  0  0  0  0  0  0  0 
    0.9325   -0.3641    1.4600 H   0  0  0  0  0  0  0  0  0  0  0  0 
    0.5880   -1.2016   -0.0620 H   0  0  0  0  0  0  0  0  0  0  0  0 
    2.3907    1.2905    0.2162 H   0  0  0  0  0  0  0  0  0  0  0  0 
    2.0304    0.4657   -1.2983 H   0  0  0  0  0  0  0  0  0  0  0  0 
    3.1135   -1.6302   -0.3857 H   0  0  0  0  0  0  0  0  0  0  0  0 
    3.4929   -0.7515    1.1005 H   0  0  0  0  0  0  0  0  0  0  0  0 
    5.3562   -2.0057    0.9382 H   0  0  0  0  0  0  0  0  0  0  0  0 
    4.4550    0.4356   -1.4192 H   0  0  0  0  0  0  0  0  0  0  0  0 
    7.4922   -0.6956   -1.1280 H   0  0  0  0  0  0  0  0  0  0  0  0 
  1  9  1  0  0  0  0 
  2  3  1  0  0  0  0 
  2 11  1  0  0  0  0 
  2  1  1  0  0  0  0 
  3 14  1  0  0  0  0 
  4  5  2  0  0  0  0 
  5 15  1  0  0  0  0 
  6  4  1  0  0  0  0 
  6  3  1  0  0  0  0 
  7 17  1  0  0  0  0 
  7  4  1  0  0  0  0 
  8  1  1  0  0  0  0 
 10  1  1  0  0  0  0 
 12  2  1  0  0  0  0 
 13  3  1  0  0  0  0 
 16  6  1  0  0  0  0 
M  END 
>  <HBA> 
3 
 
>  <HBD> 
2 
 
>  <TPSA> 
55.12 
 
>  <cid> 
12303 
 
>  <dipole> 
2.77 
 
>  <excitation_energy_1> 
5.736 
 
>  <excitation_energy_2> 
6.129 
 
>  <excitation_energy_3> 
6.208 
 
>  <excitation_energy_4> 
6.668 
 
>  <homo_energy> 
-6.199 
 
>  <homo_lumo_gap> 
8.014 
 
>  <logP> 
1.156 
 
>  <lumo_energy> 
1.815 
 
>  <melting_point> 
87.92 
 
>  <molecular_refractivity> 
27.44 
 
>  <oscillator_strength_1> 
0.0052 
 
>  <oscillator_strength_2> 
0.0224 
 
>  <oscillator_strength_3> 
0.0017 
 
>  <oscillator_strength_4> 
0.0331 
 
>  <open_babel_can_smiles> 
CCCNC(=N)O 
 
>  <mulliken_charges> 
17 
1   -0.446987 
2   -0.280373 
3   -0.106674 
4   0.644056 
5   -0.667496 
6   -0.60174 
7   -0.610742 
8   0.153113 
9   0.1499 
10   0.149178 
11   0.155217 
12   0.136982 
13   0.142333 
14   0.151443 
15   0.282216 
16   0.330701 
17   0.418872 
 
>  <lowdin_charges> 
17 
1   -0.441714 
2   -0.274424 
3   -0.192069 
4   0.160066 
5   -0.498071 
6   -0.302965 
7   -0.386352 
8   0.156784 
9   0.149118 
10   0.150255 
11   0.150857 
12   0.139782 
13   0.133862 
14   0.145077 
15   0.257425 
16   0.285231 
17   0.367139 
 
$$$$ 
 
