PCCDB-ID:  36219 
public computational chemistry database (PCCDB) project, http://pccdb.org 
 
 20 21  0  0  0  0  0  0  0  0999 V2000 
    1.9753    1.0423   -0.1485 C   0  0  0  0  0  0  0  0  0  0  0  0 
    0.6634    1.4986   -0.2354 C   0  0  0  0  0  0  0  0  0  0  0  0 
   -1.4204   -1.5665   -0.0320 C   0  0  0  0  0  0  0  0  0  0  0  0 
   -2.4501   -0.4310    0.1995 C   0  0  0  0  0  0  0  0  0  0  0  0 
    1.1984   -1.2714    0.0580 C   0  0  0  0  0  0  0  0  0  0  0  0 
   -0.1017   -0.8197   -0.0234 C   0  0  0  0  0  0  0  0  0  0  0  0 
    2.2333   -0.3231   -0.0018 C   0  0  0  0  0  0  0  0  0  0  0  0 
   -0.3735    0.5591   -0.1715 C   0  0  0  0  0  0  0  0  0  0  0  0 
   -1.7357    0.7732   -0.2629 N   0  0  0  0  0  0  0  0  0  0  0  0 
    3.6132   -0.7766    0.0947 N   0  0  0  0  0  0  0  0  0  0  0  0 
    4.5098    0.0707    0.0384 O   0  0  0  0  0  0  0  0  0  0  0  0 
    3.8149   -1.9881    0.2278 O   0  0  0  0  0  0  0  0  0  0  0  0 
    2.8108    1.7303   -0.1867 H   0  0  0  0  0  0  0  0  0  0  0  0 
    0.4554    2.5587   -0.3469 H   0  0  0  0  0  0  0  0  0  0  0  0 
   -1.5854   -2.0433   -1.0074 H   0  0  0  0  0  0  0  0  0  0  0  0 
   -1.4903   -2.3483    0.7299 H   0  0  0  0  0  0  0  0  0  0  0  0 
   -2.7056   -0.3516    1.2672 H   0  0  0  0  0  0  0  0  0  0  0  0 
   -3.3765   -0.5728   -0.3640 H   0  0  0  0  0  0  0  0  0  0  0  0 
    1.4449   -2.3203    0.1731 H   0  0  0  0  0  0  0  0  0  0  0  0 
   -2.1038    1.6784    0.0006 H   0  0  0  0  0  0  0  0  0  0  0  0 
  1  7  2  0  0  0  0 
  2  8  2  0  0  0  0 
  2  1  1  0  0  0  0 
  3  6  1  0  0  0  0 
  3  4  1  0  0  0  0 
  3 16  1  0  0  0  0 
  4 17  1  0  0  0  0 
  5 19  1  0  0  0  0 
  6  5  2  0  0  0  0 
  7  5  1  0  0  0  0 
  7 10  1  0  0  0  0 
  8  6  1  0  0  0  0 
  9  8  1  0  0  0  0 
  9 20  1  0  0  0  0 
  9  4  1  0  0  0  0 
 10 12  2  0  0  0  0 
 11 10  2  0  0  0  0 
 13  1  1  0  0  0  0 
 14  2  1  0  0  0  0 
 15  3  1  0  0  0  0 
 18  4  1  0  0  0  0 
M  END 
>  <HBA> 
1 
 
>  <HBD> 
1 
 
>  <TPSA> 
57.85 
 
>  <cid> 
36219 
 
>  <dipole> 
7.29 
 
>  <excitation_energy_1> 
3.633 
 
>  <excitation_energy_2> 
3.768 
 
>  <excitation_energy_3> 
4.325 
 
>  <excitation_energy_4> 
4.345 
 
>  <homo_energy> 
-5.924 
 
>  <homo_lumo_gap> 
4.044 
 
>  <logP> 
2.224 
 
>  <lumo_energy> 
-1.88 
 
>  <melting_point> 
105.08 
 
>  <molecular_refractivity> 
50.36 
 
>  <oscillator_strength_1> 
0.3086 
 
>  <oscillator_strength_2> 
0.0004 
 
>  <oscillator_strength_3> 
0.0028 
 
>  <oscillator_strength_4> 
0.0004 
 
>  <open_babel_can_smiles> 
O=N(=O)c1ccc2c(c1)CCN2 
 
>  <mulliken_charges> 
20 
1   -0.164123 
2   -0.191496 
3   -0.348312 
4   -0.13351 
5   -0.236249 
6   0.100513 
7   0.271061 
8   0.350274 
9   -0.657305 
10   0.368468 
11   -0.415156 
12   -0.41144 
13   0.178977 
14   0.137251 
15   0.174055 
16   0.166938 
17   0.151382 
18   0.160414 
19   0.174937 
20   0.323323 
 
>  <lowdin_charges> 
20 
1   -0.127936 
2   -0.196592 
3   -0.275699 
4   -0.186908 
5   -0.13863 
6   -0.036914 
7   -0.0248 
8   0.069087 
9   -0.289065 
10   0.307283 
11   -0.267707 
12   -0.266312 
13   0.187361 
14   0.162273 
15   0.163136 
16   0.164747 
17   0.138529 
18   0.154478 
19   0.183846 
20   0.279821 
 
$$$$ 
 
