PCCDB-ID:  18849 
public computational chemistry database (PCCDB) project, http://pccdb.org 
 
 21 20  0  0  0  0  0  0  0  0999 V2000 
    0.7251   -0.5034   -0.2606 C   0  0  0  0  0  0  0  0  0  0  0  0 
    3.9572   -2.7088    2.7602 C   0  0  0  0  0  0  0  0  0  0  0  0 
    6.0774   -1.3517    3.0179 C   0  0  0  0  0  0  0  0  0  0  0  0 
    2.1734   -0.7845    0.0235 C   0  0  0  0  0  0  0  0  0  0  0  0 
    2.8549   -0.3347    1.0811 C   0  0  0  0  0  0  0  0  0  0  0  0 
    4.3083   -0.6006    1.3652 C   0  0  0  0  0  0  0  0  0  0  0  0 
    4.5725   -1.3035    2.7187 C   0  0  0  0  0  0  0  0  0  0  0  0 
    0.5997    0.0113   -1.2231 H   0  0  0  0  0  0  0  0  0  0  0  0 
    0.2765    0.1231    0.5181 H   0  0  0  0  0  0  0  0  0  0  0  0 
    0.1427   -1.4327   -0.3255 H   0  0  0  0  0  0  0  0  0  0  0  0 
    4.1059   -3.1765    3.7408 H   0  0  0  0  0  0  0  0  0  0  0  0 
    4.4233   -3.3591    2.0077 H   0  0  0  0  0  0  0  0  0  0  0  0 
    2.8821   -2.6820    2.5542 H   0  0  0  0  0  0  0  0  0  0  0  0 
    6.2747   -1.8178    3.9906 H   0  0  0  0  0  0  0  0  0  0  0  0 
    6.5165   -0.3468    3.0322 H   0  0  0  0  0  0  0  0  0  0  0  0 
    6.6095   -1.9369    2.2563 H   0  0  0  0  0  0  0  0  0  0  0  0 
    2.6943   -1.4035   -0.7100 H   0  0  0  0  0  0  0  0  0  0  0  0 
    2.3332    0.2854    1.8148 H   0  0  0  0  0  0  0  0  0  0  0  0 
    4.8536    0.3562    1.3680 H   0  0  0  0  0  0  0  0  0  0  0  0 
    4.7428   -1.2024    0.5541 H   0  0  0  0  0  0  0  0  0  0  0  0 
    4.0920   -0.6989    3.5038 H   0  0  0  0  0  0  0  0  0  0  0  0 
  1  4  1  0  0  0  0 
  1  9  1  0  0  0  0 
  2 11  1  0  0  0  0 
  3 15  1  0  0  0  0 
  3 14  1  0  0  0  0 
  4  5  2  0  0  0  0 
  5  6  1  0  0  0  0 
  5 18  1  0  0  0  0 
  6 19  1  0  0  0  0 
  6  7  1  0  0  0  0 
  7  2  1  0  0  0  0 
  7  3  1  0  0  0  0 
  7 21  1  0  0  0  0 
  8  1  1  0  0  0  0 
 10  1  1  0  0  0  0 
 12  2  1  0  0  0  0 
 13  2  1  0  0  0  0 
 16  3  1  0  0  0  0 
 17  4  1  0  0  0  0 
 20  6  1  0  0  0  0 
M  END 
>  <HBA> 
0 
 
>  <HBD> 
0 
 
>  <TPSA> 
0.0 
 
>  <cid> 
18849 
 
>  <dipole> 
0.13 
 
>  <excitation_energy_1> 
6.092 
 
>  <excitation_energy_2> 
6.35 
 
>  <excitation_energy_3> 
6.413 
 
>  <excitation_energy_4> 
6.729 
 
>  <homo_energy> 
-6.392 
 
>  <homo_lumo_gap> 
7.285 
 
>  <logP> 
2.609 
 
>  <lumo_energy> 
0.893 
 
>  <melting_point> 
-17.44 
 
>  <molecular_refractivity> 
35.29 
 
>  <oscillator_strength_1> 
0.0083 
 
>  <oscillator_strength_2> 
0.0085 
 
>  <oscillator_strength_3> 
0.0042 
 
>  <oscillator_strength_4> 
0.0091 
 
>  <open_babel_can_smiles> 
C/C=C/CC(C)C 
 
>  <mulliken_charges> 
21 
1   -0.486499 
2   -0.439195 
3   -0.441218 
4   -0.092539 
5   -0.086943 
6   -0.293736 
7   -0.069331 
8   0.153082 
9   0.150559 
10   0.153078 
11   0.137056 
12   0.134769 
13   0.150126 
14   0.140237 
15   0.138325 
16   0.138387 
17   0.11664 
18   0.11177 
19   0.135079 
20   0.12995 
21   0.120403 
 
>  <lowdin_charges> 
21 
1   -0.440315 
2   -0.446169 
3   -0.445241 
4   -0.169216 
5   -0.171101 
6   -0.272667 
7   -0.11997 
8   0.155153 
9   0.154603 
10   0.155437 
11   0.146301 
12   0.144962 
13   0.151668 
14   0.147891 
15   0.14588 
16   0.146503 
17   0.14644 
18   0.144454 
19   0.146474 
20   0.143477 
21   0.135438 
 
$$$$ 
 
