PCCDB-ID:  13076 
public computational chemistry database (PCCDB) project, http://pccdb.org 
 
 30 32  0  0  0  0  0  0  0  0999 V2000 
    1.0244   -0.0670   -0.0397 C   0  0  0  0  0  0  0  0  0  0  0  0 
    6.9316   -0.0592   -0.0381 C   0  0  0  0  0  0  0  0  0  0  0  0 
    3.2630    3.6693   -0.0435 C   0  0  0  0  0  0  0  0  0  0  0  0 
    3.2732   -3.6766   -0.0442 C   0  0  0  0  0  0  0  0  0  0  0  0 
    4.6831    3.6712   -0.0433 C   0  0  0  0  0  0  0  0  0  0  0  0 
    4.6924   -3.6747   -0.0434 C   0  0  0  0  0  0  0  0  0  0  0  0 
    2.5805    2.4843   -0.0447 C   0  0  0  0  0  0  0  0  0  0  0  0 
    2.5854   -2.4912   -0.0431 C   0  0  0  0  0  0  0  0  0  0  0  0 
    5.3687    2.4880   -0.0439 C   0  0  0  0  0  0  0  0  0  0  0  0 
    5.3771   -2.4875   -0.0425 C   0  0  0  0  0  0  0  0  0  0  0  0 
    2.5383   -0.0081   -0.0429 C   0  0  0  0  0  0  0  0  0  0  0  0 
    5.4175   -0.0043   -0.0414 C   0  0  0  0  0  0  0  0  0  0  0  0 
    3.2482    1.2128   -0.0441 C   0  0  0  0  0  0  0  0  0  0  0  0 
    3.2578   -1.2261   -0.0428 C   0  0  0  0  0  0  0  0  0  0  0  0 
    4.7045    1.2147   -0.0434 C   0  0  0  0  0  0  0  0  0  0  0  0 
    4.7013   -1.2242   -0.0423 C   0  0  0  0  0  0  0  0  0  0  0  0 
    0.5533    0.9143   -0.0386 H   0  0  0  0  0  0  0  0  0  0  0  0 
    0.6512   -0.6008    0.8429 H   0  0  0  0  0  0  0  0  0  0  0  0 
    0.6470   -0.6010   -0.9206 H   0  0  0  0  0  0  0  0  0  0  0  0 
    7.4000    0.9234   -0.0303 H   0  0  0  0  0  0  0  0  0  0  0  0 
    7.3108   -0.5866   -0.9222 H   0  0  0  0  0  0  0  0  0  0  0  0 
    7.3059   -0.5976    0.8413 H   0  0  0  0  0  0  0  0  0  0  0  0 
    2.7191    4.6101   -0.0429 H   0  0  0  0  0  0  0  0  0  0  0  0 
    2.7330   -4.6195   -0.0460 H   0  0  0  0  0  0  0  0  0  0  0  0 
    5.2245    4.6134   -0.0434 H   0  0  0  0  0  0  0  0  0  0  0  0 
    5.2351   -4.6162   -0.0424 H   0  0  0  0  0  0  0  0  0  0  0  0 
    1.4982    2.5162   -0.0466 H   0  0  0  0  0  0  0  0  0  0  0  0 
    1.5018   -2.5134   -0.0423 H   0  0  0  0  0  0  0  0  0  0  0  0 
    6.4509    2.5228   -0.0460 H   0  0  0  0  0  0  0  0  0  0  0  0 
    6.4606   -2.5068   -0.0421 H   0  0  0  0  0  0  0  0  0  0  0  0 
  1 17  1  0  0  0  0 
  1 18  1  0  0  0  0 
  2 20  1  0  0  0  0 
  2 22  1  0  0  0  0 
  3  5  2  0  0  0  0 
  3 23  1  0  0  0  0 
  4  6  1  0  0  0  0 
  4  8  2  0  0  0  0 
  6 10  2  0  0  0  0 
  6 26  1  0  0  0  0 
  7 13  2  0  0  0  0 
  7  3  1  0  0  0  0 
  8 14  1  0  0  0  0 
  8 28  1  0  0  0  0 
  9 15  2  0  0  0  0 
  9  5  1  0  0  0  0 
 10 16  1  0  0  0  0 
 10 30  1  0  0  0  0 
 11 14  2  0  0  0  0 
 11  1  1  0  0  0  0 
 12  2  1  0  0  0  0 
 13 15  1  0  0  0  0 
 13 11  1  0  0  0  0 
 14 16  1  0  0  0  0 
 15 12  1  0  0  0  0 
 16 12  2  0  0  0  0 
 19  1  1  0  0  0  0 
 21  2  1  0  0  0  0 
 24  4  1  0  0  0  0 
 25  5  1  0  0  0  0 
 27  7  1  0  0  0  0 
 29  9  1  0  0  0  0 
M  END 
>  <HBA> 
0 
 
>  <HBD> 
0 
 
>  <TPSA> 
0.0 
 
>  <cid> 
13076 
 
>  <dipole> 
0.12 
 
>  <excitation_energy_1> 
3.05 
 
>  <excitation_energy_2> 
3.77 
 
>  <excitation_energy_3> 
4.388 
 
>  <excitation_energy_4> 
4.699 
 
>  <homo_energy> 
-5.007 
 
>  <homo_lumo_gap> 
3.426 
 
>  <logP> 
4.61 
 
>  <lumo_energy> 
-1.581 
 
>  <melting_point> 
102.67 
 
>  <molecular_refractivity> 
71.39 
 
>  <oscillator_strength_1> 
0.0919 
 
>  <oscillator_strength_2> 
0.0003 
 
>  <oscillator_strength_3> 
0.0001 
 
>  <oscillator_strength_4> 
0.0003 
 
>  <open_babel_can_smiles> 
Cc1c2ccccc2c(c2c1cccc2)C 
 
>  <mulliken_charges> 
30 
1   -0.542306 
2   -0.542313 
3   -0.137067 
4   -0.133164 
5   -0.137096 
6   -0.133217 
7   -0.199982 
8   -0.196387 
9   -0.200015 
10   -0.19642 
11   0.034897 
12   0.034888 
13   0.083574 
14   0.084461 
15   0.083614 
16   0.084537 
17   0.162641 
18   0.165646 
19   0.165547 
20   0.162642 
21   0.165594 
22   0.165602 
23   0.127005 
24   0.127323 
25   0.127004 
26   0.127326 
27   0.129514 
28   0.128311 
29   0.129517 
30   0.128323 
 
>  <lowdin_charges> 
30 
1   -0.448641 
2   -0.448637 
3   -0.161884 
4   -0.159041 
5   -0.161865 
6   -0.159062 
7   -0.158479 
8   -0.158668 
9   -0.158481 
10   -0.158668 
11   -0.006212 
12   -0.006214 
13   -0.008639 
14   -0.010704 
15   -0.008639 
16   -0.010701 
17   0.15878 
18   0.162067 
19   0.162022 
20   0.15877 
21   0.16203 
22   0.162063 
23   0.157295 
24   0.157474 
25   0.15728 
26   0.15749 
27   0.15606 
28   0.158571 
29   0.156061 
30   0.158572 
 
$$$$ 
 
