PCCDB-ID:  22195 
public computational chemistry database (PCCDB) project, http://pccdb.org 
 
 25 26  0  0  0  0  0  0  0  0999 V2000 
    1.3908    0.4457    0.5185 C   0  0  0  0  0  0  0  0  0  0  0  0 
    6.7899   -4.7772    1.0495 C   0  0  0  0  0  0  0  0  0  0  0  0 
    5.3792   -4.7493    0.9549 C   0  0  0  0  0  0  0  0  0  0  0  0 
    6.9053    0.0810    0.9144 C   0  0  0  0  0  0  0  0  0  0  0  0 
    7.4997   -3.5980    1.0624 C   0  0  0  0  0  0  0  0  0  0  0  0 
    7.5658   -1.1209    0.9935 C   0  0  0  0  0  0  0  0  0  0  0  0 
    5.4933    0.1189    0.8186 C   0  0  0  0  0  0  0  0  0  0  0  0 
    4.7085   -3.5481    0.8748 C   0  0  0  0  0  0  0  0  0  0  0  0 
    3.2398   -0.9888    0.7011 C   0  0  0  0  0  0  0  0  0  0  0  0 
    6.8401   -2.3427    0.9812 C   0  0  0  0  0  0  0  0  0  0  0  0 
    4.7487   -1.0409    0.8028 C   0  0  0  0  0  0  0  0  0  0  0  0 
    5.4091   -2.3098    0.8848 C   0  0  0  0  0  0  0  0  0  0  0  0 
    2.7944    0.3482    0.6179 O   0  0  0  0  0  0  0  0  0  0  0  0 
    1.1461    1.5090    0.4552 H   0  0  0  0  0  0  0  0  0  0  0  0 
    0.8883    0.0141    1.3993 H   0  0  0  0  0  0  0  0  0  0  0  0 
    1.0096   -0.0643   -0.3810 H   0  0  0  0  0  0  0  0  0  0  0  0 
    7.3092   -5.7297    1.1127 H   0  0  0  0  0  0  0  0  0  0  0  0 
    4.8214   -5.6820    0.9447 H   0  0  0  0  0  0  0  0  0  0  0  0 
    7.4629    1.0138    0.9243 H   0  0  0  0  0  0  0  0  0  0  0  0 
    8.5848   -3.6097    1.1355 H   0  0  0  0  0  0  0  0  0  0  0  0 
    8.6501   -1.1562    1.0671 H   0  0  0  0  0  0  0  0  0  0  0  0 
    4.9797    1.0712    0.7561 H   0  0  0  0  0  0  0  0  0  0  0  0 
    3.6251   -3.5519    0.8025 H   0  0  0  0  0  0  0  0  0  0  0  0 
    2.7838   -1.4838    1.5780 H   0  0  0  0  0  0  0  0  0  0  0  0 
    2.9006   -1.5543   -0.1859 H   0  0  0  0  0  0  0  0  0  0  0  0 
  1 13  1  0  0  0  0 
  1 15  1  0  0  0  0 
  2  5  1  0  0  0  0 
  2 17  1  0  0  0  0 
  3  2  2  0  0  0  0 
  4 19  1  0  0  0  0 
  4  6  2  0  0  0  0 
  5 20  1  0  0  0  0 
  6 21  1  0  0  0  0 
  7  4  1  0  0  0  0 
  8 12  2  0  0  0  0 
  8  3  1  0  0  0  0 
  9 11  1  0  0  0  0 
  9 24  1  0  0  0  0 
 10  6  1  0  0  0  0 
 10  5  2  0  0  0  0 
 11  7  2  0  0  0  0 
 11 12  1  0  0  0  0 
 12 10  1  0  0  0  0 
 13  9  1  0  0  0  0 
 14  1  1  0  0  0  0 
 16  1  1  0  0  0  0 
 18  3  1  0  0  0  0 
 22  7  1  0  0  0  0 
 23  8  1  0  0  0  0 
 25  9  1  0  0  0  0 
M  END 
>  <HBA> 
1 
 
>  <HBD> 
0 
 
>  <TPSA> 
9.23 
 
>  <cid> 
22195 
 
>  <dipole> 
1.23 
 
>  <excitation_energy_1> 
4.27 
 
>  <excitation_energy_2> 
4.416 
 
>  <excitation_energy_3> 
5.299 
 
>  <excitation_energy_4> 
5.389 
 
>  <homo_energy> 
-5.687 
 
>  <homo_lumo_gap> 
4.746 
 
>  <logP> 
2.986 
 
>  <lumo_energy> 
-0.942 
 
>  <melting_point> 
42.88 
 
>  <molecular_refractivity> 
54.81 
 
>  <oscillator_strength_1> 
0.0888 
 
>  <oscillator_strength_2> 
0.0003 
 
>  <oscillator_strength_3> 
0.0393 
 
>  <oscillator_strength_4> 
0.0026 
 
>  <open_babel_can_smiles> 
COCc1cccc2c1cccc2 
 
>  <mulliken_charges> 
25 
1   -0.188674 
2   -0.133615 
3   -0.132897 
4   -0.13514 
5   -0.193997 
6   -0.188622 
7   -0.186347 
8   -0.203357 
9   -0.059931 
10   0.133449 
11   0.059183 
12   0.086559 
13   -0.470843 
14   0.161182 
15   0.131954 
16   0.131891 
17   0.128715 
18   0.127875 
19   0.128724 
20   0.129042 
21   0.12645 
22   0.152893 
23   0.126457 
24   0.134651 
25   0.134397 
 
>  <lowdin_charges> 
25 
1   -0.276635 
2   -0.161156 
3   -0.157286 
4   -0.157142 
5   -0.151768 
6   -0.158034 
7   -0.161814 
8   -0.164372 
9   -0.13015 
10   0.001037 
11   -0.015872 
12   -0.008969 
13   -0.26313 
14   0.155364 
15   0.133736 
16   0.133471 
17   0.158122 
18   0.157835 
19   0.158232 
20   0.155092 
21   0.154341 
22   0.171448 
23   0.155033 
24   0.136393 
25   0.136223 
 
$$$$ 
 
