PCCDB-ID:  12122 
public computational chemistry database (PCCDB) project, http://pccdb.org 
 
 19 19  0  0  0  0  0  0  0  0999 V2000 
   -0.3811    1.6905   -0.4236 C   0  0  0  0  0  0  0  0  0  0  0  0 
   -1.1572    0.5350   -0.4882 C   0  0  0  0  0  0  0  0  0  0  0  0 
    0.9607    1.6306   -0.0449 C   0  0  0  0  0  0  0  0  0  0  0  0 
    0.7571   -0.7723    0.2015 C   0  0  0  0  0  0  0  0  0  0  0  0 
   -1.4332   -1.9659   -0.1944 C   0  0  0  0  0  0  0  0  0  0  0  0 
   -0.5900   -0.7100   -0.1764 C   0  0  0  0  0  0  0  0  0  0  0  0 
    1.5315    0.3933    0.2674 C   0  0  0  0  0  0  0  0  0  0  0  0 
   -2.1473   -2.2998    1.1280 C   0  0  0  0  0  0  0  0  0  0  0  0 
    2.8373    0.2502    0.6370 O   0  0  0  0  0  0  0  0  0  0  0  0 
   -3.1683   -2.9385    1.1717 O   0  0  0  0  0  0  0  0  0  0  0  0 
   -1.5393   -1.8805    2.2622 O   0  0  0  0  0  0  0  0  0  0  0  0 
   -0.8220    2.6527   -0.6688 H   0  0  0  0  0  0  0  0  0  0  0  0 
   -2.2019    0.5941   -0.7803 H   0  0  0  0  0  0  0  0  0  0  0  0 
    1.5613    2.5369    0.0020 H   0  0  0  0  0  0  0  0  0  0  0  0 
    1.2347   -1.7237    0.4217 H   0  0  0  0  0  0  0  0  0  0  0  0 
   -0.8114   -2.8385   -0.4347 H   0  0  0  0  0  0  0  0  0  0  0  0 
   -2.2129   -1.9158   -0.9584 H   0  0  0  0  0  0  0  0  0  0  0  0 
    3.2667    1.1200    0.6357 H   0  0  0  0  0  0  0  0  0  0  0  0 
   -0.7632   -1.3357    2.0345 H   0  0  0  0  0  0  0  0  0  0  0  0 
  1  3  1  0  0  0  0 
  2  1  2  0  0  0  0 
  2  6  1  0  0  0  0 
  3 14  1  0  0  0  0 
  3  7  2  0  0  0  0 
  4  7  1  0  0  0  0 
  4 15  1  0  0  0  0 
  5  6  1  0  0  0  0 
  5  8  1  0  0  0  0 
  6  4  2  0  0  0  0 
  7  9  1  0  0  0  0 
  8 10  2  0  0  0  0 
  8 11  1  0  0  0  0 
 12  1  1  0  0  0  0 
 13  2  1  0  0  0  0 
 16  5  1  0  0  0  0 
 17  5  1  0  0  0  0 
 18  9  1  0  0  0  0 
 19 11  1  0  0  0  0 
M  END 
>  <HBA> 
3 
 
>  <HBD> 
2 
 
>  <TPSA> 
57.53 
 
>  <cid> 
12122 
 
>  <dipole> 
5.96 
 
>  <excitation_energy_1> 
4.924 
 
>  <excitation_energy_2> 
5.426 
 
>  <excitation_energy_3> 
5.469 
 
>  <excitation_energy_4> 
5.616 
 
>  <homo_energy> 
-6.506 
 
>  <homo_lumo_gap> 
5.807 
 
>  <logP> 
1.019 
 
>  <lumo_energy> 
-0.699 
 
>  <melting_point> 
124.62 
 
>  <molecular_refractivity> 
40.01 
 
>  <oscillator_strength_1> 
0.044 
 
>  <oscillator_strength_2> 
0.0006 
 
>  <oscillator_strength_3> 
0.0083 
 
>  <oscillator_strength_4> 
0.0212 
 
>  <open_babel_can_smiles> 
OC(=O)Cc1cccc(c1)O 
 
>  <mulliken_charges> 
19 
1   -0.130524 
2   -0.169813 
3   -0.193172 
4   -0.247131 
5   -0.456621 
6   0.113366 
7   0.36418 
8   0.592997 
9   -0.636442 
10   -0.440878 
11   -0.566474 
12   0.14297 
13   0.139689 
14   0.127664 
15   0.149571 
16   0.191529 
17   0.189965 
18   0.412217 
19   0.416908 
 
>  <lowdin_charges> 
19 
1   -0.134342 
2   -0.181391 
3   -0.213568 
4   -0.216293 
5   -0.31375 
6   -0.010357 
7   0.109726 
8   0.18875 
9   -0.371968 
10   -0.241981 
11   -0.353866 
12   0.164675 
13   0.162159 
14   0.158544 
15   0.169819 
16   0.180922 
17   0.182217 
18   0.360544 
19   0.360161 
 
$$$$ 
 
