PCCDB-ID:  6525 
public computational chemistry database (PCCDB) project, http://pccdb.org 
 
 21 21  0  0  0  0  0  0  0  0999 V2000 
    0.8544    0.0189   -0.1087 C   0  0  0  0  0  0  0  0  0  0  0  0 
    2.0615    0.0447   -0.0538 C   0  0  0  0  0  0  0  0  0  0  0  0 
    4.2852   -0.3286    2.8625 C   0  0  0  0  0  0  0  0  0  0  0  0 
    3.7408   -1.5000    2.0310 C   0  0  0  0  0  0  0  0  0  0  0  0 
    3.7681    1.0187    2.3345 C   0  0  0  0  0  0  0  0  0  0  0  0 
    4.0558   -1.3126    0.5397 C   0  0  0  0  0  0  0  0  0  0  0  0 
    4.0766    1.1994    0.8416 C   0  0  0  0  0  0  0  0  0  0  0  0 
    3.5388    0.0368   -0.0169 C   0  0  0  0  0  0  0  0  0  0  0  0 
    4.0550    0.2601   -1.3373 O   0  0  0  0  0  0  0  0  0  0  0  0 
   -0.2110    0.0141   -0.1566 H   0  0  0  0  0  0  0  0  0  0  0  0 
    5.3845   -0.3367    2.8227 H   0  0  0  0  0  0  0  0  0  0  0  0 
    4.0082   -0.4523    3.9170 H   0  0  0  0  0  0  0  0  0  0  0  0 
    2.6532   -1.5719    2.1656 H   0  0  0  0  0  0  0  0  0  0  0  0 
    4.1654   -2.4494    2.3802 H   0  0  0  0  0  0  0  0  0  0  0  0 
    4.2115    1.8465    2.9014 H   0  0  0  0  0  0  0  0  0  0  0  0 
    2.6822    1.0786    2.4892 H   0  0  0  0  0  0  0  0  0  0  0  0 
    3.6358   -2.1347   -0.0543 H   0  0  0  0  0  0  0  0  0  0  0  0 
    5.1420   -1.3172    0.3799 H   0  0  0  0  0  0  0  0  0  0  0  0 
    5.1617    1.2312    0.6778 H   0  0  0  0  0  0  0  0  0  0  0  0 
    3.6646    2.1400    0.4611 H   0  0  0  0  0  0  0  0  0  0  0  0 
    3.6406   -0.3940   -1.9234 H   0  0  0  0  0  0  0  0  0  0  0  0 
  1  2  3  0  0  0  0 
  2  8  1  0  0  0  0 
  3 12  1  0  0  0  0 
  4 13  1  0  0  0  0 
  4 14  1  0  0  0  0 
  4  3  1  0  0  0  0 
  5 16  1  0  0  0  0 
  5  3  1  0  0  0  0 
  5 15  1  0  0  0  0 
  6  4  1  0  0  0  0 
  7  5  1  0  0  0  0 
  8  6  1  0  0  0  0 
  8  7  1  0  0  0  0 
  9  8  1  0  0  0  0 
 10  1  1  0  0  0  0 
 11  3  1  0  0  0  0 
 17  6  1  0  0  0  0 
 18  6  1  0  0  0  0 
 19  7  1  0  0  0  0 
 20  7  1  0  0  0  0 
 21  9  1  0  0  0  0 
M  END 
>  <HBA> 
1 
 
>  <HBD> 
1 
 
>  <TPSA> 
20.23 
 
>  <cid> 
6525 
 
>  <dipole> 
1.4 
 
>  <excitation_energy_1> 
6.214 
 
>  <excitation_energy_2> 
6.521 
 
>  <excitation_energy_3> 
6.688 
 
>  <excitation_energy_4> 
6.776 
 
>  <homo_energy> 
-7.048 
 
>  <homo_lumo_gap> 
8.022 
 
>  <logP> 
1.315 
 
>  <lumo_energy> 
0.974 
 
>  <melting_point> 
41.68 
 
>  <molecular_refractivity> 
37.82 
 
>  <oscillator_strength_1> 
0.0035 
 
>  <oscillator_strength_2> 
0.019 
 
>  <oscillator_strength_3> 
0.0241 
 
>  <oscillator_strength_4> 
0.0095 
 
>  <open_babel_can_smiles> 
C#CC1(O)CCCCC1 
 
>  <mulliken_charges> 
21 
1   -0.522346 
2   0.339915 
3   -0.25679 
4   -0.268233 
5   -0.270557 
6   -0.274831 
7   -0.266859 
8   0.18104 
9   -0.635962 
10   0.191612 
11   0.129519 
12   0.13257 
13   0.144674 
14   0.134527 
15   0.135647 
16   0.144284 
17   0.128519 
18   0.145279 
19   0.146705 
20   0.151827 
21   0.389457 
 
>  <lowdin_charges> 
21 
1   -0.255902 
2   -0.052259 
3   -0.274014 
4   -0.278934 
5   -0.279411 
6   -0.283938 
7   -0.271011 
8   0.127231 
9   -0.44762 
10   0.204079 
11   0.135835 
12   0.143945 
13   0.145343 
14   0.146828 
15   0.148473 
16   0.14496 
17   0.145806 
18   0.147896 
19   0.149626 
20   0.157317 
21   0.345747 
 
$$$$ 
 
