PCCDB-ID:  46651 
public computational chemistry database (PCCDB) project, http://pccdb.org 
 
 23 22  0  0  0  0  0  0  0  0999 V2000 
    1.5036    1.4140    2.7372 C   0  0  0  0  0  0  0  0  0  0  0  0 
    2.6212    0.7594    1.9187 C   0  0  0  0  0  0  0  0  0  0  0  0 
    2.1690   -0.5284    1.2168 C   0  0  0  0  0  0  0  0  0  0  0  0 
    3.2920   -1.1636    0.4043 C   0  0  0  0  0  0  0  0  0  0  0  0 
    2.3414   -4.6009   -0.5791 C   0  0  0  0  0  0  0  0  0  0  0  0 
    2.8581   -3.5067    0.3423 C   0  0  0  0  0  0  0  0  0  0  0  0 
    1.8715   -6.8516   -0.7594 N   0  0  0  0  0  0  0  0  0  0  0  0 
    3.2382   -3.6528    1.4793 O   0  0  0  0  0  0  0  0  0  0  0  0 
    2.8310   -2.3282   -0.3226 O   0  0  0  0  0  0  0  0  0  0  0  0 
    2.3704   -5.8235    0.1249 O   0  0  0  0  0  0  0  0  0  0  0  0 
    1.8546    2.3278    3.2292 H   0  0  0  0  0  0  0  0  0  0  0  0 
    1.1347    0.7355    3.5157 H   0  0  0  0  0  0  0  0  0  0  0  0 
    0.6517    1.6829    2.1009 H   0  0  0  0  0  0  0  0  0  0  0  0 
    3.4726    0.5355    2.5762 H   0  0  0  0  0  0  0  0  0  0  0  0 
    2.9924    1.4740    1.1701 H   0  0  0  0  0  0  0  0  0  0  0  0 
    1.3232   -0.3148    0.5497 H   0  0  0  0  0  0  0  0  0  0  0  0 
    1.8198   -1.2538    1.9616 H   0  0  0  0  0  0  0  0  0  0  0  0 
    4.1267   -1.4569    1.0467 H   0  0  0  0  0  0  0  0  0  0  0  0 
    3.6547   -0.4843   -0.3724 H   0  0  0  0  0  0  0  0  0  0  0  0 
    2.9692   -4.6346   -1.4813 H   0  0  0  0  0  0  0  0  0  0  0  0 
    1.3239   -4.3423   -0.9058 H   0  0  0  0  0  0  0  0  0  0  0  0 
    1.1201   -7.2765   -0.2109 H   0  0  0  0  0  0  0  0  0  0  0  0 
    2.6266   -7.5415   -0.7541 H   0  0  0  0  0  0  0  0  0  0  0  0 
  1 11  1  0  0  0  0 
  1 12  1  0  0  0  0 
  2 14  1  0  0  0  0 
  2  1  1  0  0  0  0 
  3  2  1  0  0  0  0 
  3 17  1  0  0  0  0 
  4 18  1  0  0  0  0 
  4  3  1  0  0  0  0 
  5 10  1  0  0  0  0 
  5  6  1  0  0  0  0 
  6  8  2  0  0  0  0 
  7 23  1  0  0  0  0 
  7 22  1  0  0  0  0 
  7 10  1  0  0  0  0 
  9  6  1  0  0  0  0 
  9  4  1  0  0  0  0 
 13  1  1  0  0  0  0 
 15  2  1  0  0  0  0 
 16  3  1  0  0  0  0 
 19  4  1  0  0  0  0 
 20  5  1  0  0  0  0 
 21  5  1  0  0  0  0 
M  END 
>  <HBA> 
4 
 
>  <HBD> 
1 
 
>  <TPSA> 
61.55 
 
>  <cid> 
46651 
 
>  <dipole> 
1.29 
 
>  <excitation_energy_1> 
5.814 
 
>  <excitation_energy_2> 
6.49 
 
>  <excitation_energy_3> 
6.637 
 
>  <excitation_energy_4> 
6.697 
 
>  <homo_energy> 
-7.045 
 
>  <homo_lumo_gap> 
7.478 
 
>  <logP> 
0.92 
 
>  <lumo_energy> 
0.433 
 
>  <melting_point> 
33.52 
 
>  <molecular_refractivity> 
36.03 
 
>  <oscillator_strength_1> 
0.0003 
 
>  <oscillator_strength_2> 
0.0337 
 
>  <oscillator_strength_3> 
0.0276 
 
>  <oscillator_strength_4> 
0.0021 
 
>  <open_babel_can_smiles> 
CCCCOC(=O)CON 
 
>  <mulliken_charges> 
23 
1   -0.441121 
2   -0.258838 
3   -0.272191 
4   -0.045297 
5   -0.046131 
6   0.593376 
7   -0.476456 
8   -0.46187 
9   -0.470876 
10   -0.413845 
11   0.145197 
12   0.148058 
13   0.143777 
14   0.141057 
15   0.132449 
16   0.141156 
17   0.160411 
18   0.16816 
19   0.149191 
20   0.161566 
21   0.161498 
22   0.320411 
23   0.320318 
 
>  <lowdin_charges> 
23 
1   -0.444275 
2   -0.273503 
3   -0.289017 
4   -0.133416 
5   -0.15542 
6   0.186834 
7   -0.401767 
8   -0.246602 
9   -0.19808 
10   -0.232425 
11   0.151634 
12   0.150848 
13   0.148285 
14   0.144425 
15   0.140701 
16   0.146414 
17   0.156681 
18   0.158463 
19   0.152335 
20   0.15681 
21   0.156091 
22   0.262806 
23   0.262179 
 
$$$$ 
 
