PCCDB-ID:  56229 
public computational chemistry database (PCCDB) project, http://pccdb.org 
 
 33 32  0  0  0  0  0  0  0  0999 V2000 
    4.7521   -2.4224    5.0353 C   0  0  0  0  0  0  0  0  0  0  0  0 
    4.2687   -4.8913    4.8066 C   0  0  0  0  0  0  0  0  0  0  0  0 
    9.2463    0.3958    1.0635 C   0  0  0  0  0  0  0  0  0  0  0  0 
    8.2390   -0.4424    1.8780 C   0  0  0  0  0  0  0  0  0  0  0  0 
    4.9990   -3.5954    2.7687 C   0  0  0  0  0  0  0  0  0  0  0  0 
    8.7153    0.9917   -0.2560 C   0  0  0  0  0  0  0  0  0  0  0  0 
    8.1910   -1.9375    1.4964 C   0  0  0  0  0  0  0  0  0  0  0  0 
    5.8644   -2.5177    2.1026 C   0  0  0  0  0  0  0  0  0  0  0  0 
    5.1248   -3.7200    4.3014 C   0  0  0  0  0  0  0  0  0  0  0  0 
    8.2992    0.0757   -1.3224 N   0  0  0  0  0  0  0  0  0  0  0  0 
    7.2923   -2.7860    2.2763 N   0  0  0  0  0  0  0  0  0  0  0  0 
    4.8281   -2.5516    6.1215 H   0  0  0  0  0  0  0  0  0  0  0  0 
    3.7192   -2.1274    4.8080 H   0  0  0  0  0  0  0  0  0  0  0  0 
    5.4036   -1.5860    4.7572 H   0  0  0  0  0  0  0  0  0  0  0  0 
    3.2039   -4.7114    4.6079 H   0  0  0  0  0  0  0  0  0  0  0  0 
    4.3855   -5.0335    5.8876 H   0  0  0  0  0  0  0  0  0  0  0  0 
    4.5456   -5.8296    4.3117 H   0  0  0  0  0  0  0  0  0  0  0  0 
   10.1431   -0.2083    0.8545 H   0  0  0  0  0  0  0  0  0  0  0  0 
    9.5920    1.2369    1.6810 H   0  0  0  0  0  0  0  0  0  0  0  0 
    7.2380    0.0037    1.7910 H   0  0  0  0  0  0  0  0  0  0  0  0 
    8.5030   -0.3839    2.9440 H   0  0  0  0  0  0  0  0  0  0  0  0 
    5.2551   -4.5618    2.3158 H   0  0  0  0  0  0  0  0  0  0  0  0 
    3.9465   -3.3932    2.5191 H   0  0  0  0  0  0  0  0  0  0  0  0 
    9.4904    1.6475   -0.6742 H   0  0  0  0  0  0  0  0  0  0  0  0 
    7.8568    1.6398   -0.0340 H   0  0  0  0  0  0  0  0  0  0  0  0 
    9.2045   -2.3524    1.5916 H   0  0  0  0  0  0  0  0  0  0  0  0 
    7.9155   -2.0519    0.4405 H   0  0  0  0  0  0  0  0  0  0  0  0 
    5.5517   -1.5183    2.4560 H   0  0  0  0  0  0  0  0  0  0  0  0 
    5.6630   -2.5328    1.0227 H   0  0  0  0  0  0  0  0  0  0  0  0 
    6.1729   -3.9585    4.5382 H   0  0  0  0  0  0  0  0  0  0  0  0 
    9.0432   -0.5915   -1.5235 H   0  0  0  0  0  0  0  0  0  0  0  0 
    7.4950   -0.4742   -1.0275 H   0  0  0  0  0  0  0  0  0  0  0  0 
    7.5373   -2.7140    3.2626 H   0  0  0  0  0  0  0  0  0  0  0  0 
  1 12  1  0  0  0  0 
  2 16  1  0  0  0  0 
  3 19  1  0  0  0  0 
  3  4  1  0  0  0  0 
  4 21  1  0  0  0  0 
  5  9  1  0  0  0  0 
  6 25  1  0  0  0  0 
  6  3  1  0  0  0  0 
  7 26  1  0  0  0  0 
  7  4  1  0  0  0  0 
  7 11  1  0  0  0  0 
  8 11  1  0  0  0  0 
  8 28  1  0  0  0  0 
  8  5  1  0  0  0  0 
  9 30  1  0  0  0  0 
  9  2  1  0  0  0  0 
  9  1  1  0  0  0  0 
 10 32  1  0  0  0  0 
 10  6  1  0  0  0  0 
 11 33  1  0  0  0  0 
 13  1  1  0  0  0  0 
 14  1  1  0  0  0  0 
 15  2  1  0  0  0  0 
 17  2  1  0  0  0  0 
 18  3  1  0  0  0  0 
 20  4  1  0  0  0  0 
 22  5  1  0  0  0  0 
 23  5  1  0  0  0  0 
 24  6  1  0  0  0  0 
 27  7  1  0  0  0  0 
 29  8  1  0  0  0  0 
 31 10  1  0  0  0  0 
M  END 
>  <HBA> 
2 
 
>  <HBD> 
2 
 
>  <TPSA> 
38.05 
 
>  <cid> 
56229 
 
>  <dipole> 
1.59 
 
>  <excitation_energy_1> 
5.209 
 
>  <excitation_energy_2> 
5.468 
 
>  <excitation_energy_3> 
5.589 
 
>  <excitation_energy_4> 
5.709 
 
>  <homo_energy> 
-5.804 
 
>  <homo_lumo_gap> 
7.638 
 
>  <logP> 
2.452 
 
>  <lumo_energy> 
1.834 
 
>  <melting_point> 
52.87 
 
>  <molecular_refractivity> 
50.89 
 
>  <oscillator_strength_1> 
0.0049 
 
>  <oscillator_strength_2> 
0.0065 
 
>  <oscillator_strength_3> 
0.0307 
 
>  <oscillator_strength_4> 
0.0129 
 
>  <open_babel_can_smiles> 
NCCCCNCCC(C)C 
 
>  <mulliken_charges> 
33 
1   -0.446768 
2   -0.440928 
3   -0.264025 
4   -0.269612 
5   -0.244801 
6   -0.14432 
7   -0.130245 
8   -0.13265 
9   -0.076668 
10   -0.706656 
11   -0.550499 
12   0.140948 
13   0.140108 
14   0.140346 
15   0.138292 
16   0.138597 
17   0.142768 
18   0.123819 
19   0.129972 
20   0.13403 
21   0.124772 
22   0.13899 
23   0.121208 
24   0.140869 
25   0.138833 
26   0.134609 
27   0.12198 
28   0.117505 
29   0.130503 
30   0.123237 
31   0.292509 
32   0.300096 
33   0.293184 
 
>  <lowdin_charges> 
33 
1   -0.446358 
2   -0.439502 
3   -0.296915 
4   -0.297661 
5   -0.278701 
6   -0.209848 
7   -0.207867 
8   -0.202366 
9   -0.122907 
10   -0.556908 
11   -0.362393 
12   0.146992 
13   0.145363 
14   0.146504 
15   0.143514 
16   0.145341 
17   0.1491 
18   0.13641 
19   0.146879 
20   0.139192 
21   0.137349 
22   0.147333 
23   0.138152 
24   0.144278 
25   0.141827 
26   0.139594 
27   0.132175 
28   0.116504 
29   0.138724 
30   0.133075 
31   0.252484 
32   0.25337 
33   0.247265 
 
$$$$ 
 
