PCCDB-ID:  7419 
public computational chemistry database (PCCDB) project, http://pccdb.org 
 
 17 17  0  0  0  0  0  0  0  0999 V2000 
   -0.7408    1.2233   -0.0333 C   0  0  0  0  0  0  0  0  0  0  0  0 
   -1.4083   -0.0017   -0.0559 C   0  0  0  0  0  0  0  0  0  0  0  0 
    0.6491    1.2773   -0.0020 C   0  0  0  0  0  0  0  0  0  0  0  0 
    0.7359   -1.1363    0.0107 C   0  0  0  0  0  0  0  0  0  0  0  0 
   -0.6586   -1.1873   -0.0416 C   0  0  0  0  0  0  0  0  0  0  0  0 
    1.4106    0.0933    0.0257 C   0  0  0  0  0  0  0  0  0  0  0  0 
   -1.2905   -2.5482   -0.0630 C   0  0  0  0  0  0  0  0  0  0  0  0 
    2.7977    0.1421    0.1256 N   0  0  0  0  0  0  0  0  0  0  0  0 
   -0.7323   -3.5526    0.3116 O   0  0  0  0  0  0  0  0  0  0  0  0 
   -2.5629   -2.6200   -0.5434 O   0  0  0  0  0  0  0  0  0  0  0  0 
   -1.3101    2.1487   -0.0344 H   0  0  0  0  0  0  0  0  0  0  0  0 
   -2.4949   -0.0181   -0.0315 H   0  0  0  0  0  0  0  0  0  0  0  0 
    1.1556    2.2396    0.0176 H   0  0  0  0  0  0  0  0  0  0  0  0 
    1.2863   -2.0719    0.0441 H   0  0  0  0  0  0  0  0  0  0  0  0 
    3.2362    0.9864   -0.2186 H   0  0  0  0  0  0  0  0  0  0  0  0 
    3.2883   -0.6923   -0.1687 H   0  0  0  0  0  0  0  0  0  0  0  0 
   -2.8109   -1.7694   -0.9408 H   0  0  0  0  0  0  0  0  0  0  0  0 
  1  3  2  0  0  0  0 
  2  5  2  0  0  0  0 
  2  1  1  0  0  0  0 
  2 12  1  0  0  0  0 
  3 13  1  0  0  0  0 
  3  6  1  0  0  0  0 
  4  6  2  0  0  0  0 
  4 14  1  0  0  0  0 
  5  4  1  0  0  0  0 
  6  8  1  0  0  0  0 
  7  5  1  0  0  0  0 
  7  9  2  0  0  0  0 
 10  7  1  0  0  0  0 
 11  1  1  0  0  0  0 
 15  8  1  0  0  0  0 
 16  8  1  0  0  0  0 
 17 10  1  0  0  0  0 
M  END 
>  <HBA> 
3 
 
>  <HBD> 
2 
 
>  <TPSA> 
63.32 
 
>  <cid> 
7419 
 
>  <dipole> 
5.46 
 
>  <excitation_energy_1> 
4.087 
 
>  <excitation_energy_2> 
4.744 
 
>  <excitation_energy_3> 
5.048 
 
>  <excitation_energy_4> 
5.118 
 
>  <homo_energy> 
-5.948 
 
>  <homo_lumo_gap> 
4.784 
 
>  <logP> 
1.548 
 
>  <lumo_energy> 
-1.165 
 
>  <melting_point> 
144.8 
 
>  <molecular_refractivity> 
37.81 
 
>  <oscillator_strength_1> 
0.0473 
 
>  <oscillator_strength_2> 
0.0074 
 
>  <oscillator_strength_3> 
0.0072 
 
>  <oscillator_strength_4> 
0.0428 
 
>  <open_babel_can_smiles> 
Nc1cccc(c1)C(=O)O 
 
>  <mulliken_charges> 
17 
1   -0.137357 
2   -0.213332 
3   -0.161678 
4   -0.206295 
5   0.053469 
6   0.320322 
7   0.547158 
8   -0.789923 
9   -0.449249 
10   -0.576735 
11   0.137271 
12   0.1277 
13   0.127341 
14   0.156491 
15   0.325033 
16   0.329524 
17   0.41026 
 
>  <lowdin_charges> 
17 
1   -0.141861 
2   -0.196779 
3   -0.185471 
4   -0.175389 
5   -0.047206 
6   0.068039 
7   0.197943 
8   -0.483069 
9   -0.243968 
10   -0.359156 
11   0.162536 
12   0.152925 
13   0.157923 
14   0.174979 
15   0.279884 
16   0.282442 
17   0.356228 
 
$$$$ 
 
