PCCDB-ID:  19893 
public computational chemistry database (PCCDB) project, http://pccdb.org 
 
 30 30  0  0  0  0  0  0  0  0999 V2000 
    1.6871   -0.6921   -2.8174 C   0  0  0  0  0  0  0  0  0  0  0  0 
    7.0539    3.6824    5.3760 C   0  0  0  0  0  0  0  0  0  0  0  0 
    1.9028   -1.5120   -1.5549 C   0  0  0  0  0  0  0  0  0  0  0  0 
    3.6100    2.8852    3.9209 C   0  0  0  0  0  0  0  0  0  0  0  0 
    4.6135    3.4353    4.7237 C   0  0  0  0  0  0  0  0  0  0  0  0 
    3.9179    1.9992    2.8943 C   0  0  0  0  0  0  0  0  0  0  0  0 
    6.2693    2.2136    3.4792 C   0  0  0  0  0  0  0  0  0  0  0  0 
    6.5567   -0.9096   -0.2609 C   0  0  0  0  0  0  0  0  0  0  0  0 
    5.9565    3.1043    4.5126 C   0  0  0  0  0  0  0  0  0  0  0  0 
    5.2614    1.6670    2.6798 C   0  0  0  0  0  0  0  0  0  0  0  0 
    5.1664   -0.6121   -0.0735 C   0  0  0  0  0  0  0  0  0  0  0  0 
    4.1898   -1.2646   -0.9801 C   0  0  0  0  0  0  0  0  0  0  0  0 
    7.7150   -1.0366   -0.2733 N   0  0  0  0  0  0  0  0  0  0  0  0 
    5.6437    0.7772    1.6570 N   0  0  0  0  0  0  0  0  0  0  0  0 
    4.7696    0.2094    0.8662 N   0  0  0  0  0  0  0  0  0  0  0  0 
    4.5400   -2.0276   -1.8599 O   0  0  0  0  0  0  0  0  0  0  0  0 
    2.9201   -0.9181   -0.7096 O   0  0  0  0  0  0  0  0  0  0  0  0 
    0.8606   -1.1176   -3.3982 H   0  0  0  0  0  0  0  0  0  0  0  0 
    2.5849   -0.7017   -3.4419 H   0  0  0  0  0  0  0  0  0  0  0  0 
    1.4367    0.3447   -2.5707 H   0  0  0  0  0  0  0  0  0  0  0  0 
    6.6551    4.4047    6.0944 H   0  0  0  0  0  0  0  0  0  0  0  0 
    7.8119    4.1940    4.7708 H   0  0  0  0  0  0  0  0  0  0  0  0 
    7.5697    2.8977    5.9431 H   0  0  0  0  0  0  0  0  0  0  0  0 
    2.1960   -2.5374   -1.7914 H   0  0  0  0  0  0  0  0  0  0  0  0 
    1.0098   -1.5252   -0.9254 H   0  0  0  0  0  0  0  0  0  0  0  0 
    2.5719    3.1526    4.0977 H   0  0  0  0  0  0  0  0  0  0  0  0 
    4.3510    4.1266    5.5200 H   0  0  0  0  0  0  0  0  0  0  0  0 
    3.1495    1.5655    2.2656 H   0  0  0  0  0  0  0  0  0  0  0  0 
    7.3079    1.9419    3.2973 H   0  0  0  0  0  0  0  0  0  0  0  0 
    6.6399    0.5778    1.5388 H   0  0  0  0  0  0  0  0  0  0  0  0 
  1 20  1  0  0  0  0 
  1  3  1  0  0  0  0 
  2 23  1  0  0  0  0 
  2 21  1  0  0  0  0 
  3 25  1  0  0  0  0 
  3 17  1  0  0  0  0 
  4 26  1  0  0  0  0 
  4  5  2  0  0  0  0 
  5 27  1  0  0  0  0 
  6  4  1  0  0  0  0 
  7  9  2  0  0  0  0 
  8 11  1  0  0  0  0 
  9  5  1  0  0  0  0 
  9  2  1  0  0  0  0 
 10  6  2  0  0  0  0 
 10  7  1  0  0  0  0 
 11 15  2  0  0  0  0 
 12 17  1  0  0  0  0 
 12 11  1  0  0  0  0 
 13  8  3  0  0  0  0 
 14 10  1  0  0  0  0 
 15 14  1  0  0  0  0 
 16 12  2  0  0  0  0 
 18  1  1  0  0  0  0 
 19  1  1  0  0  0  0 
 22  2  1  0  0  0  0 
 24  3  1  0  0  0  0 
 28  6  1  0  0  0  0 
 29  7  1  0  0  0  0 
 30 14  1  0  0  0  0 
M  END 
>  <HBA> 
5 
 
>  <HBD> 
1 
 
>  <TPSA> 
74.48 
 
>  <cid> 
19893 
 
>  <dipole> 
5.24 
 
>  <excitation_energy_1> 
3.584 
 
>  <excitation_energy_2> 
4.076 
 
>  <excitation_energy_3> 
4.364 
 
>  <excitation_energy_4> 
4.92 
 
>  <homo_energy> 
-6.161 
 
>  <homo_lumo_gap> 
3.916 
 
>  <logP> 
1.923 
 
>  <lumo_energy> 
-2.245 
 
>  <melting_point> 
104.26 
 
>  <molecular_refractivity> 
64.66 
 
>  <oscillator_strength_1> 
0.5255 
 
>  <oscillator_strength_2> 
0.0558 
 
>  <oscillator_strength_3> 
0.0004 
 
>  <oscillator_strength_4> 
0.1555 
 
>  <open_babel_can_smiles> 
CCOC(=O)/C(=N/Nc1cccc(c1)C)/C#N 
 
>  <mulliken_charges> 
30 
1   -0.462828 
2   -0.531647 
3   -0.045543 
4   -0.137862 
5   -0.175915 
6   -0.160306 
7   -0.239392 
8   0.33445 
9   0.169492 
10   0.381503 
11   0.168851 
12   0.645003 
13   -0.483958 
14   -0.518897 
15   -0.222265 
16   -0.489564 
17   -0.464024 
18   0.152354 
19   0.178575 
20   0.159556 
21   0.160673 
22   0.167246 
23   0.169129 
24   0.175077 
25   0.155805 
26   0.1397 
27   0.128644 
28   0.168689 
29   0.132051 
30   0.345402 
 
>  <lowdin_charges> 
30 
1   -0.454661 
2   -0.444859 
3   -0.124407 
4   -0.137962 
5   -0.174828 
6   -0.178738 
7   -0.192139 
8   -0.019076 
9   0.01378 
10   0.051449 
11   -0.067191 
12   0.192488 
13   -0.112599 
14   -0.126062 
15   -0.013739 
16   -0.263845 
17   -0.179155 
18   0.16098 
19   0.166843 
20   0.156322 
21   0.161322 
22   0.164904 
23   0.165731 
24   0.159872 
25   0.154524 
26   0.162138 
27   0.159348 
28   0.180548 
29   0.15796 
30   0.28105 
 
$$$$ 
 
