PCCDB-ID:  30001 
public computational chemistry database (PCCDB) project, http://pccdb.org 
 
 26 27  0  0  0  0  0  0  0  0999 V2000 
    1.0808    0.0361    0.1819 C   0  0  0  0  0  0  0  0  0  0  0  0 
    3.1318   -0.0380   -1.3036 C   0  0  0  0  0  0  0  0  0  0  0  0 
    4.6180   -1.4454    2.9702 C   0  0  0  0  0  0  0  0  0  0  0  0 
    3.7503    3.5175    1.5346 C   0  0  0  0  0  0  0  0  0  0  0  0 
    4.5074    3.0342    2.6018 C   0  0  0  0  0  0  0  0  0  0  0  0 
    3.0929    2.6259    0.6720 C   0  0  0  0  0  0  0  0  0  0  0  0 
    4.6308    1.6580    2.8381 C   0  0  0  0  0  0  0  0  0  0  0  0 
    3.2044    1.2617    0.8912 C   0  0  0  0  0  0  0  0  0  0  0  0 
    3.9719    0.7926    1.9714 C   0  0  0  0  0  0  0  0  0  0  0  0 
    3.1718   -1.1169    0.9649 C   0  0  0  0  0  0  0  0  0  0  0  0 
    2.6220    0.0755    0.1476 C   0  0  0  0  0  0  0  0  0  0  0  0 
    3.9430   -0.6101    1.9999 N   0  0  0  0  0  0  0  0  0  0  0  0 
    2.9713   -2.3000    0.7495 O   0  0  0  0  0  0  0  0  0  0  0  0 
    0.6643    0.8532   -0.4176 H   0  0  0  0  0  0  0  0  0  0  0  0 
    0.7024    0.1368    1.2045 H   0  0  0  0  0  0  0  0  0  0  0  0 
    0.7258   -0.9160   -0.2252 H   0  0  0  0  0  0  0  0  0  0  0  0 
    2.7317    0.7791   -1.9141 H   0  0  0  0  0  0  0  0  0  0  0  0 
    2.8098   -0.9911   -1.7354 H   0  0  0  0  0  0  0  0  0  0  0  0 
    4.2250    0.0089   -1.3466 H   0  0  0  0  0  0  0  0  0  0  0  0 
    4.2619   -1.2330    3.9854 H   0  0  0  0  0  0  0  0  0  0  0  0 
    5.7027   -1.2879    2.9360 H   0  0  0  0  0  0  0  0  0  0  0  0 
    4.3935   -2.4827    2.7160 H   0  0  0  0  0  0  0  0  0  0  0  0 
    3.6672    4.5878    1.3699 H   0  0  0  0  0  0  0  0  0  0  0  0 
    5.0122    3.7317    3.2648 H   0  0  0  0  0  0  0  0  0  0  0  0 
    2.5044    3.0059   -0.1597 H   0  0  0  0  0  0  0  0  0  0  0  0 
    5.2208    1.2873    3.6706 H   0  0  0  0  0  0  0  0  0  0  0  0 
  1 15  1  0  0  0  0 
  2 11  1  0  0  0  0 
  3 20  1  0  0  0  0 
  4  5  2  0  0  0  0 
  5  7  1  0  0  0  0 
  5 24  1  0  0  0  0 
  6  8  2  0  0  0  0 
  6  4  1  0  0  0  0 
  7 26  1  0  0  0  0 
  8  9  1  0  0  0  0 
  9 12  1  0  0  0  0 
  9  7  2  0  0  0  0 
 10 12  1  0  0  0  0 
 11  1  1  0  0  0  0 
 11  8  1  0  0  0  0 
 11 10  1  0  0  0  0 
 12  3  1  0  0  0  0 
 13 10  2  0  0  0  0 
 14  1  1  0  0  0  0 
 16  1  1  0  0  0  0 
 17  2  1  0  0  0  0 
 18  2  1  0  0  0  0 
 19  2  1  0  0  0  0 
 21  3  1  0  0  0  0 
 22  3  1  0  0  0  0 
 23  4  1  0  0  0  0 
 25  6  1  0  0  0  0 
M  END 
>  <HBA> 
2 
 
>  <HBD> 
0 
 
>  <TPSA> 
20.31 
 
>  <cid> 
30001 
 
>  <dipole> 
2.46 
 
>  <excitation_energy_1> 
4.694 
 
>  <excitation_energy_2> 
5.036 
 
>  <excitation_energy_3> 
5.24 
 
>  <excitation_energy_4> 
5.307 
 
>  <homo_energy> 
-5.75 
 
>  <homo_lumo_gap> 
5.516 
 
>  <logP> 
2.006 
 
>  <lumo_energy> 
-0.234 
 
>  <melting_point> 
67.09 
 
>  <molecular_refractivity> 
56.13 
 
>  <oscillator_strength_1> 
0.0205 
 
>  <oscillator_strength_2> 
0.1632 
 
>  <oscillator_strength_3> 
0.0039 
 
>  <oscillator_strength_4> 
0.0009 
 
>  <open_babel_can_smiles> 
CN1c2ccccc2C(C1=O)(C)C 
 
>  <mulliken_charges> 
26 
1   -0.440965 
2   -0.441014 
3   -0.334001 
4   -0.136135 
5   -0.1395 
6   -0.211038 
7   -0.185243 
8   0.108626 
9   0.334565 
10   0.605813 
11   -0.09295 
12   -0.540672 
13   -0.520554 
14   0.146773 
15   0.154377 
16   0.17012 
17   0.146829 
18   0.170082 
19   0.154391 
20   0.165093 
21   0.165138 
22   0.202096 
23   0.127201 
24   0.13041 
25   0.128833 
26   0.131726 
 
>  <lowdin_charges> 
26 
1   -0.430212 
2   -0.428926 
3   -0.350271 
4   -0.172152 
5   -0.149291 
6   -0.155471 
7   -0.197924 
8   -0.029052 
9   0.046713 
10   0.158441 
11   -0.009069 
12   -0.068967 
13   -0.288324 
14   0.152978 
15   0.155209 
16   0.16393 
17   0.152952 
18   0.163848 
19   0.154014 
20   0.155961 
21   0.154807 
22   0.183536 
23   0.156154 
24   0.160404 
25   0.158787 
26   0.161925 
 
$$$$ 
 
