PCCDB-ID:  29831 
public computational chemistry database (PCCDB) project, http://pccdb.org 
 
 14 14  0  0  0  0  0  0  0  0999 V2000 
    1.0386    0.0286   -0.1843 C   0  0  0  0  0  0  0  0  0  0  0  0 
    3.2299   -1.2299    0.0775 C   0  0  0  0  0  0  0  0  0  0  0  0 
    4.5543   -0.7452    0.6910 C   0  0  0  0  0  0  0  0  0  0  0  0 
    3.1732    1.0685    0.4586 C   0  0  0  0  0  0  0  0  0  0  0  0 
    2.3986   -0.0636    0.3033 N   0  0  0  0  0  0  0  0  0  0  0  0 
    2.8097    2.2203    0.4615 O   0  0  0  0  0  0  0  0  0  0  0  0 
    4.4811    0.6876    0.6272 O   0  0  0  0  0  0  0  0  0  0  0  0 
    0.3974   -0.6947    0.3315 H   0  0  0  0  0  0  0  0  0  0  0  0 
    0.9818   -0.1605   -1.2668 H   0  0  0  0  0  0  0  0  0  0  0  0 
    0.6796    1.0392    0.0177 H   0  0  0  0  0  0  0  0  0  0  0  0 
    2.8363   -2.1194    0.5817 H   0  0  0  0  0  0  0  0  0  0  0  0 
    3.3246   -1.4572   -0.9970 H   0  0  0  0  0  0  0  0  0  0  0  0 
    5.4385   -1.0727    0.1405 H   0  0  0  0  0  0  0  0  0  0  0  0 
    4.6478   -1.0470    1.7406 H   0  0  0  0  0  0  0  0  0  0  0  0 
  1 10  1  0  0  0  0 
  1  5  1  0  0  0  0 
  1  8  1  0  0  0  0 
  2  5  1  0  0  0  0 
  2 11  1  0  0  0  0 
  2  3  1  0  0  0  0 
  3 14  1  0  0  0  0 
  4  6  2  0  0  0  0 
  4  7  1  0  0  0  0 
  5  4  1  0  0  0  0 
  7  3  1  0  0  0  0 
  9  1  1  0  0  0  0 
 12  2  1  0  0  0  0 
 13  3  1  0  0  0  0 
M  END 
>  <HBA> 
3 
 
>  <HBD> 
0 
 
>  <TPSA> 
29.54 
 
>  <cid> 
29831 
 
>  <dipole> 
4.97 
 
>  <excitation_energy_1> 
6.058 
 
>  <excitation_energy_2> 
6.535 
 
>  <excitation_energy_3> 
6.686 
 
>  <excitation_energy_4> 
6.751 
 
>  <homo_energy> 
-6.768 
 
>  <homo_lumo_gap> 
8.15 
 
>  <logP> 
0.006 
 
>  <lumo_energy> 
1.382 
 
>  <melting_point> 
22.75 
 
>  <molecular_refractivity> 
27.71 
 
>  <oscillator_strength_1> 
0.0182 
 
>  <oscillator_strength_2> 
0.0062 
 
>  <oscillator_strength_3> 
0.0442 
 
>  <oscillator_strength_4> 
0.0095 
 
>  <open_babel_can_smiles> 
O=C1OCCN1C 
 
>  <mulliken_charges> 
14 
1   -0.314286 
2   -0.146802 
3   -0.049459 
4   0.773114 
5   -0.44256 
6   -0.501219 
7   -0.472363 
8   0.158353 
9   0.151713 
10   0.201327 
11   0.161076 
12   0.151747 
13   0.166204 
14   0.163156 
 
>  <lowdin_charges> 
14 
1   -0.346793 
2   -0.202923 
3   -0.124599 
4   0.20063 
5   -0.129675 
6   -0.27836 
7   -0.204283 
8   0.155007 
9   0.143752 
10   0.182949 
11   0.155442 
12   0.138601 
13   0.160202 
14   0.150049 
 
$$$$ 
 
