PCCDB-ID:  6616 
public computational chemistry database (PCCDB) project, http://pccdb.org 
 
 26 27  0  0  1  0  0  0  0  0999 V2000 
    1.1080   -0.0256   -0.0283 C   0  0  0  0  0  0  0  0  0  0  0  0 
    3.1141   -1.5341   -1.9842 C   0  0  0  0  0  0  0  0  0  0  0  0 
    3.2145   -2.4138    0.3471 C   0  0  0  0  0  0  0  0  0  0  0  0 
    4.0011    1.7646   -0.7923 C   0  0  0  0  0  0  0  0  0  0  0  0 
    5.0284    0.6801   -1.2529 C   0  0  0  0  0  0  0  0  0  0  0  0 
    4.5259    0.3137    1.0391 C   0  0  0  0  0  0  0  0  0  0  0  0 
    2.4410   -0.0141   -0.0315 C   0  0  0  0  0  0  0  0  0  0  0  0 
    3.3355    1.1104    0.4553 C   0  0  2  0  0  0  0  0  0  0  0  0 
    4.7763   -0.4839   -0.2629 C   0  0  1  0  0  0  0  0  0  0  0  0 
    3.3756   -1.1433   -0.5172 C   0  0  0  0  0  0  0  0  0  0  0  0 
    0.5318    0.8163    0.3490 H   0  0  0  0  0  0  0  0  0  0  0  0 
    0.5349   -0.8722   -0.4000 H   0  0  0  0  0  0  0  0  0  0  0  0 
    2.1510   -2.0494   -2.0746 H   0  0  0  0  0  0  0  0  0  0  0  0 
    3.8903   -2.2181   -2.3510 H   0  0  0  0  0  0  0  0  0  0  0  0 
    3.0792   -0.6671   -2.6496 H   0  0  0  0  0  0  0  0  0  0  0  0 
    2.1954   -2.8080    0.2646 H   0  0  0  0  0  0  0  0  0  0  0  0 
    3.4071   -2.2256    1.4075 H   0  0  0  0  0  0  0  0  0  0  0  0 
    3.9069   -3.1962    0.0107 H   0  0  0  0  0  0  0  0  0  0  0  0 
    3.2635    2.0095   -1.5629 H   0  0  0  0  0  0  0  0  0  0  0  0 
    4.5044    2.6963   -0.5089 H   0  0  0  0  0  0  0  0  0  0  0  0 
    6.0564    1.0430   -1.1399 H   0  0  0  0  0  0  0  0  0  0  0  0 
    4.9079    0.3938   -2.3008 H   0  0  0  0  0  0  0  0  0  0  0  0 
    4.2554   -0.3019    1.9019 H   0  0  0  0  0  0  0  0  0  0  0  0 
    5.3734    0.9512    1.3172 H   0  0  0  0  0  0  0  0  0  0  0  0 
    2.8387    1.8247    1.1176 H   0  0  0  0  0  0  0  0  0  0  0  0 
    5.5885   -1.2176   -0.2327 H   0  0  0  0  0  0  0  0  0  0  0  0 
  1 11  1  0  0  0  0 
  2 10  1  0  0  0  0 
  3 17  1  0  0  0  0 
  4 20  1  0  0  0  0 
  4  8  1  0  0  0  0 
  5 21  1  0  0  0  0 
  5  4  1  0  0  0  0 
  5  9  1  0  0  0  0 
  6 24  1  0  0  0  0 
  6 23  1  0  0  0  0 
  7  1  2  0  0  0  0 
  7  8  1  0  0  0  0 
  8  6  1  0  0  0  0 
  8 25  1  1  0  0  0 
  9 26  1  1  0  0  0 
  9  6  1  0  0  0  0 
 10  9  1  0  0  0  0 
 10  7  1  0  0  0  0 
 10  3  1  0  0  0  0 
 12  1  1  0  0  0  0 
 13  2  1  0  0  0  0 
 14  2  1  0  0  0  0 
 15  2  1  0  0  0  0 
 16  3  1  0  0  0  0 
 18  3  1  0  0  0  0 
 19  4  1  0  0  0  0 
 22  5  1  0  0  0  0 
M  END 
>  <HBA> 
0 
 
>  <HBD> 
0 
 
>  <TPSA> 
0.0 
 
>  <cid> 
6616 
 
>  <dipole> 
0.56 
 
>  <excitation_energy_1> 
5.943 
 
>  <excitation_energy_2> 
6.227 
 
>  <excitation_energy_3> 
6.377 
 
>  <excitation_energy_4> 
6.506 
 
>  <homo_energy> 
-6.348 
 
>  <homo_lumo_gap> 
7.11 
 
>  <logP> 
2.999 
 
>  <lumo_energy> 
0.762 
 
>  <melting_point> 
17.45 
 
>  <molecular_refractivity> 
45.22 
 
>  <oscillator_strength_1> 
0.034 
 
>  <oscillator_strength_2> 
0.038 
 
>  <oscillator_strength_3> 
0.0197 
 
>  <oscillator_strength_4> 
0.1695 
 
>  <open_babel_can_smiles> 
C=C1[C@@H]2CC[C@H](C1(C)C)C2 
 
>  <mulliken_charges> 
26 
1   -0.446707 
2   -0.452418 
3   -0.446468 
4   -0.269386 
5   -0.278141 
6   -0.28433 
7   0.23998 
8   -0.16701 
9   -0.11806 
10   0.056404 
11   0.131156 
12   0.129828 
13   0.141392 
14   0.13713 
15   0.148321 
16   0.143185 
17   0.146059 
18   0.136624 
19   0.141574 
20   0.13559 
21   0.134345 
22   0.139302 
23   0.141401 
24   0.131054 
25   0.116768 
26   0.112407 
 
>  <lowdin_charges> 
26 
1   -0.374112 
2   -0.441428 
3   -0.436062 
4   -0.284147 
5   -0.285408 
6   -0.285543 
7   0.005265 
8   -0.132264 
9   -0.135983 
10   0.007952 
11   0.156472 
12   0.154027 
13   0.149723 
14   0.147483 
15   0.151608 
16   0.149213 
17   0.148078 
18   0.146427 
19   0.147801 
20   0.145076 
21   0.143607 
22   0.14502 
23   0.1468 
24   0.144284 
25   0.145838 
26   0.140274 
 
$$$$ 
 
