PCCDB-ID:  34707 
public computational chemistry database (PCCDB) project, http://pccdb.org 
 
 26 26  0  0  1  0  0  0  0  0999 V2000 
    3.4718   -0.8201   -0.7986 C   0  0  0  0  0  0  0  0  0  0  0  0 
    2.5983   -1.5063    2.6680 C   0  0  0  0  0  0  0  0  0  0  0  0 
    2.2265   -0.2218   -0.1363 C   0  0  0  0  0  0  0  0  0  0  0  0 
    3.2518   -0.1908    2.2299 C   0  0  0  0  0  0  0  0  0  0  0  0 
    1.1854    1.2580    1.6748 C   0  0  0  0  0  0  0  0  0  0  0  0 
    2.5383    2.8652    0.5904 C   0  0  0  0  0  0  0  0  0  0  0  0 
    1.5083    2.7661    1.7141 C   0  0  2  0  0  0  0  0  0  0  0  0 
    2.4947    0.5950    1.1446 C   0  0  0  0  0  0  0  0  0  0  0  0 
    2.0691    3.1735    2.9585 O   0  0  0  0  0  0  0  0  0  0  0  0 
    3.3625    1.7199    0.8053 O   0  0  0  0  0  0  0  0  0  0  0  0 
    3.2156   -1.2703   -1.7642 H   0  0  0  0  0  0  0  0  0  0  0  0 
    3.9313   -1.6032   -0.1848 H   0  0  0  0  0  0  0  0  0  0  0  0 
    4.2230   -0.0436   -0.9723 H   0  0  0  0  0  0  0  0  0  0  0  0 
    3.1680   -1.9604    3.4861 H   0  0  0  0  0  0  0  0  0  0  0  0 
    2.5587   -2.2356    1.8515 H   0  0  0  0  0  0  0  0  0  0  0  0 
    1.5736   -1.3531    3.0268 H   0  0  0  0  0  0  0  0  0  0  0  0 
    1.5017   -1.0134    0.0967 H   0  0  0  0  0  0  0  0  0  0  0  0 
    1.7236    0.4419   -0.8525 H   0  0  0  0  0  0  0  0  0  0  0  0 
    4.2687   -0.3832    1.8681 H   0  0  0  0  0  0  0  0  0  0  0  0 
    3.3574    0.4678    3.1019 H   0  0  0  0  0  0  0  0  0  0  0  0 
    0.3467    1.0647    0.9956 H   0  0  0  0  0  0  0  0  0  0  0  0 
    0.8987    0.9050    2.6691 H   0  0  0  0  0  0  0  0  0  0  0  0 
    3.1680    3.7566    0.6603 H   0  0  0  0  0  0  0  0  0  0  0  0 
    2.0598    2.8419   -0.4022 H   0  0  0  0  0  0  0  0  0  0  0  0 
    0.6269    3.3944    1.5600 H   0  0  0  0  0  0  0  0  0  0  0  0 
    2.9568    2.7800    3.0003 H   0  0  0  0  0  0  0  0  0  0  0  0 
  1 12  1  0  0  0  0 
  1  3  1  0  0  0  0 
  2 16  1  0  0  0  0 
  2 14  1  0  0  0  0 
  3 17  1  0  0  0  0 
  3  8  1  0  0  0  0 
  4  2  1  0  0  0  0 
  4 20  1  0  0  0  0 
  5  7  1  0  0  0  0 
  5 22  1  0  0  0  0 
  6 23  1  0  0  0  0 
  6 10  1  0  0  0  0 
  6  7  1  0  0  0  0 
  7 25  1  6  0  0  0 
  7  9  1  0  0  0  0 
  8  5  1  0  0  0  0 
  8  4  1  0  0  0  0 
  9 26  1  0  0  0  0 
 10  8  1  0  0  0  0 
 11  1  1  0  0  0  0 
 13  1  1  0  0  0  0 
 15  2  1  0  0  0  0 
 18  3  1  0  0  0  0 
 19  4  1  0  0  0  0 
 21  5  1  0  0  0  0 
 24  6  1  0  0  0  0 
M  END 
>  <HBA> 
2 
 
>  <HBD> 
1 
 
>  <TPSA> 
29.46 
 
>  <cid> 
34707 
 
>  <dipole> 
1.54 
 
>  <excitation_energy_1> 
6.215 
 
>  <excitation_energy_2> 
6.524 
 
>  <excitation_energy_3> 
6.711 
 
>  <excitation_energy_4> 
6.847 
 
>  <homo_energy> 
-6.664 
 
>  <homo_lumo_gap> 
8.542 
 
>  <logP> 
1.326 
 
>  <lumo_energy> 
1.878 
 
>  <melting_point> 
15.38 
 
>  <molecular_refractivity> 
40.74 
 
>  <oscillator_strength_1> 
0.0119 
 
>  <oscillator_strength_2> 
0.0082 
 
>  <oscillator_strength_3> 
0.0012 
 
>  <oscillator_strength_4> 
0.0052 
 
>  <open_babel_can_smiles> 
CCC1(CC)OC[C@@H](C1)O 
 
>  <mulliken_charges> 
26 
1   -0.456462 
2   -0.460117 
3   -0.27605 
4   -0.27677 
5   -0.34385 
6   -0.060652 
7   0.12119 
8   0.344054 
9   -0.631929 
10   -0.520467 
11   0.141081 
12   0.144492 
13   0.165698 
14   0.149854 
15   0.151661 
16   0.148022 
17   0.135808 
18   0.131532 
19   0.151404 
20   0.126323 
21   0.140451 
22   0.160441 
23   0.155187 
24   0.124644 
25   0.137334 
26   0.397121 
 
>  <lowdin_charges> 
26 
1   -0.452078 
2   -0.449607 
3   -0.287006 
4   -0.280151 
5   -0.313676 
6   -0.154449 
7   -0.013988 
8   0.118395 
9   -0.462311 
10   -0.288304 
11   0.150492 
12   0.147989 
13   0.159472 
14   0.156071 
15   0.150787 
16   0.14754 
17   0.145714 
18   0.144839 
19   0.152057 
20   0.141485 
21   0.152065 
22   0.160499 
23   0.154832 
24   0.130346 
25   0.148384 
26   0.340605 
 
$$$$ 
 
