PCCDB-ID:  12019 
public computational chemistry database (PCCDB) project, http://pccdb.org 
 
 19 18  0  0  0  0  0  0  0  0999 V2000 
    2.9182    1.0314    0.7772 C   0  0  0  0  0  0  0  0  0  0  0  0 
    3.0680   -3.9147   -0.6419 C   0  0  0  0  0  0  0  0  0  0  0  0 
    2.6906   -0.0154   -0.3167 C   0  0  0  0  0  0  0  0  0  0  0  0 
    2.7224   -2.4643   -0.9955 C   0  0  0  0  0  0  0  0  0  0  0  0 
    3.1559   -1.4308    0.0674 C   0  0  0  0  0  0  0  0  0  0  0  0 
    4.6022   -1.4029    0.3437 N   0  0  0  0  0  0  0  0  0  0  0  0 
    2.6019    2.0265    0.4436 H   0  0  0  0  0  0  0  0  0  0  0  0 
    3.9746    1.0737    1.0560 H   0  0  0  0  0  0  0  0  0  0  0  0 
    2.3457    0.7852    1.6803 H   0  0  0  0  0  0  0  0  0  0  0  0 
    2.7090   -4.6068   -1.4116 H   0  0  0  0  0  0  0  0  0  0  0  0 
    2.6095   -4.2105    0.3103 H   0  0  0  0  0  0  0  0  0  0  0  0 
    4.1507   -4.0626   -0.5503 H   0  0  0  0  0  0  0  0  0  0  0  0 
    3.2169    0.2872   -1.2354 H   0  0  0  0  0  0  0  0  0  0  0  0 
    1.6246   -0.0561   -0.5783 H   0  0  0  0  0  0  0  0  0  0  0  0 
    1.6372   -2.3808   -1.1485 H   0  0  0  0  0  0  0  0  0  0  0  0 
    3.1885   -2.1981   -1.9567 H   0  0  0  0  0  0  0  0  0  0  0  0 
    2.6700   -1.6999    1.0181 H   0  0  0  0  0  0  0  0  0  0  0  0 
    5.1087   -1.2495   -0.5298 H   0  0  0  0  0  0  0  0  0  0  0  0 
    4.9114   -2.3076    0.6944 H   0  0  0  0  0  0  0  0  0  0  0  0 
  1  8  1  0  0  0  0 
  1  9  1  0  0  0  0 
  2 12  1  0  0  0  0 
  2 11  1  0  0  0  0 
  3  5  1  0  0  0  0 
  3  1  1  0  0  0  0 
  4  2  1  0  0  0  0 
  4  5  1  0  0  0  0 
  5  6  1  0  0  0  0 
  5 17  1  0  0  0  0 
  6 19  1  0  0  0  0 
  7  1  1  0  0  0  0 
 10  2  1  0  0  0  0 
 13  3  1  0  0  0  0 
 14  3  1  0  0  0  0 
 15  4  1  0  0  0  0 
 16  4  1  0  0  0  0 
 18  6  1  0  0  0  0 
M  END 
>  <HBA> 
1 
 
>  <HBD> 
1 
 
>  <TPSA> 
26.02 
 
>  <cid> 
12019 
 
>  <dipole> 
1.39 
 
>  <excitation_energy_1> 
5.735 
 
>  <excitation_energy_2> 
6.346 
 
>  <excitation_energy_3> 
6.452 
 
>  <excitation_energy_4> 
6.605 
 
>  <homo_energy> 
-6.218 
 
>  <homo_lumo_gap> 
8.24 
 
>  <logP> 
1.834 
 
>  <lumo_energy> 
2.022 
 
>  <melting_point> 
28.35 
 
>  <molecular_refractivity> 
28.86 
 
>  <oscillator_strength_1> 
0.0276 
 
>  <oscillator_strength_2> 
0.0086 
 
>  <oscillator_strength_3> 
0.0032 
 
>  <oscillator_strength_4> 
0.0028 
 
>  <open_babel_can_smiles> 
CCC(CC)N 
 
>  <mulliken_charges> 
19 
1   -0.438201 
2   -0.449517 
3   -0.243361 
4   -0.249552 
5   0.031028 
6   -0.711497 
7   0.13271 
8   0.168941 
9   0.134442 
10   0.14651 
11   0.142935 
12   0.131052 
13   0.119969 
14   0.127396 
15   0.129 
16   0.121168 
17   0.122733 
18   0.286139 
19   0.298105 
 
>  <lowdin_charges> 
19 
1   -0.443976 
2   -0.449051 
3   -0.273843 
4   -0.288116 
5   -0.067467 
6   -0.550498 
7   0.144426 
8   0.159136 
9   0.144182 
10   0.153615 
11   0.146725 
12   0.138798 
13   0.135253 
14   0.138903 
15   0.140204 
16   0.135246 
17   0.13461 
18   0.248395 
19   0.253455 
 
$$$$ 
 
