PCCDB-ID:  70303 
public computational chemistry database (PCCDB) project, http://pccdb.org 
 
 25 25  0  0  0  0  0  0  0  0999 V2000 
    0.8807    0.0641   -0.0455 C   0  0  0  0  0  0  0  0  0  0  0  0 
    2.4089    0.1664   -0.0562 C   0  0  0  0  0  0  0  0  0  0  0  0 
    9.2096    2.0160   -1.7627 C   0  0  0  0  0  0  0  0  0  0  0  0 
    8.4322    0.8631   -1.6324 C   0  0  0  0  0  0  0  0  0  0  0  0 
    8.5855    3.2602   -1.8642 C   0  0  0  0  0  0  0  0  0  0  0  0 
    7.0403    0.9512   -1.6123 C   0  0  0  0  0  0  0  0  0  0  0  0 
    7.1927    3.3474   -1.8352 C   0  0  0  0  0  0  0  0  0  0  0  0 
    2.9132    1.2719   -0.9753 C   0  0  0  0  0  0  0  0  0  0  0  0 
    4.8994    2.2962   -1.7449 C   0  0  0  0  0  0  0  0  0  0  0  0 
    6.4075    2.1959   -1.7140 C   0  0  0  0  0  0  0  0  0  0  0  0 
    4.3291    1.2984   -0.9191 O   0  0  0  0  0  0  0  0  0  0  0  0 
    0.5459   -0.7368    0.6221 H   0  0  0  0  0  0  0  0  0  0  0  0 
    0.4862   -0.1516   -1.0461 H   0  0  0  0  0  0  0  0  0  0  0  0 
    0.4192    0.9976    0.2991 H   0  0  0  0  0  0  0  0  0  0  0  0 
    2.8514   -0.7838   -0.3805 H   0  0  0  0  0  0  0  0  0  0  0  0 
    2.7850    0.3587    0.9561 H   0  0  0  0  0  0  0  0  0  0  0  0 
   10.2940    1.9454   -1.7809 H   0  0  0  0  0  0  0  0  0  0  0  0 
    8.9114   -0.1090   -1.5474 H   0  0  0  0  0  0  0  0  0  0  0  0 
    9.1816    4.1643   -1.9574 H   0  0  0  0  0  0  0  0  0  0  0  0 
    6.4330    0.0588   -1.5013 H   0  0  0  0  0  0  0  0  0  0  0  0 
    6.7118    4.3212   -1.9039 H   0  0  0  0  0  0  0  0  0  0  0  0 
    2.5015    2.2481   -0.6633 H   0  0  0  0  0  0  0  0  0  0  0  0 
    2.5759    1.0960   -2.0125 H   0  0  0  0  0  0  0  0  0  0  0  0 
    4.5346    2.1723   -2.7815 H   0  0  0  0  0  0  0  0  0  0  0  0 
    4.5797    3.3005   -1.4183 H   0  0  0  0  0  0  0  0  0  0  0  0 
  1 14  1  0  0  0  0 
  1 12  1  0  0  0  0 
  2  1  1  0  0  0  0 
  2 16  1  0  0  0  0 
  3  4  2  0  0  0  0 
  4  6  1  0  0  0  0 
  4 18  1  0  0  0  0 
  5  7  2  0  0  0  0 
  5  3  1  0  0  0  0 
  6 20  1  0  0  0  0 
  7 10  1  0  0  0  0 
  8 11  1  0  0  0  0 
  8 22  1  0  0  0  0 
  8  2  1  0  0  0  0 
  9 10  1  0  0  0  0 
  9 25  1  0  0  0  0 
  9 11  1  0  0  0  0 
 10  6  2  0  0  0  0 
 13  1  1  0  0  0  0 
 15  2  1  0  0  0  0 
 17  3  1  0  0  0  0 
 19  5  1  0  0  0  0 
 21  7  1  0  0  0  0 
 23  8  1  0  0  0  0 
 24  9  1  0  0  0  0 
M  END 
>  <HBA> 
1 
 
>  <HBD> 
0 
 
>  <TPSA> 
9.23 
 
>  <cid> 
70303 
 
>  <dipole> 
1.12 
 
>  <excitation_energy_1> 
5.286 
 
>  <excitation_energy_2> 
5.818 
 
>  <excitation_energy_3> 
6.087 
 
>  <excitation_energy_4> 
6.132 
 
>  <homo_energy> 
-6.414 
 
>  <homo_lumo_gap> 
6.512 
 
>  <logP> 
2.613 
 
>  <lumo_energy> 
0.098 
 
>  <melting_point> 
-3.79 
 
>  <molecular_refractivity> 
46.91 
 
>  <oscillator_strength_1> 
0.0002 
 
>  <oscillator_strength_2> 
0.0406 
 
>  <oscillator_strength_3> 
0.0086 
 
>  <oscillator_strength_4> 
0.0105 
 
>  <open_babel_can_smiles> 
CCCOCc1ccccc1 
 
>  <mulliken_charges> 
25 
1   -0.452368 
2   -0.266311 
3   -0.128063 
4   -0.132619 
5   -0.129501 
6   -0.161405 
7   -0.180941 
8   0.005706 
9   -0.072447 
10   0.128393 
11   -0.479835 
12   0.150626 
13   0.144486 
14   0.144853 
15   0.146126 
16   0.149478 
17   0.126599 
18   0.127862 
19   0.127182 
20   0.141969 
21   0.120582 
22   0.115304 
23   0.115332 
24   0.133124 
25   0.12587 
 
>  <lowdin_charges> 
25 
1   -0.445662 
2   -0.277196 
3   -0.157341 
4   -0.154768 
5   -0.157196 
6   -0.156861 
7   -0.167083 
8   -0.125823 
9   -0.122704 
10   -0.011659 
11   -0.269631 
12   0.155512 
13   0.147156 
14   0.148099 
15   0.148531 
16   0.149518 
17   0.154235 
18   0.15639 
19   0.156957 
20   0.165764 
21   0.153125 
22   0.123711 
23   0.122453 
24   0.133231 
25   0.131242 
 
$$$$ 
 
