PCCDB-ID:  7225 
public computational chemistry database (PCCDB) project, http://pccdb.org 
 
 17 18  0  0  0  0  0  0  0  0999 V2000 
    0.9587   -0.0987    0.0167 C   0  0  0  0  0  0  0  0  0  0  0  0 
    6.8528    0.6315    0.0184 C   0  0  0  0  0  0  0  0  0  0  0  0 
    6.8299   -0.7751    0.0165 C   0  0  0  0  0  0  0  0  0  0  0  0 
    5.6767    1.3820    0.0193 C   0  0  0  0  0  0  0  0  0  0  0  0 
    5.6276   -1.4879    0.0149 C   0  0  0  0  0  0  0  0  0  0  0  0 
    2.4391    0.0391    0.0169 C   0  0  0  0  0  0  0  0  0  0  0  0 
    4.4684    0.6818    0.0183 C   0  0  0  0  0  0  0  0  0  0  0  0 
    4.4738   -0.7193    0.0155 C   0  0  0  0  0  0  0  0  0  0  0  0 
    3.1420    1.1254    0.0191 N   0  0  0  0  0  0  0  0  0  0  0  0 
    3.1638   -1.1356    0.0145 O   0  0  0  0  0  0  0  0  0  0  0  0 
    0.5072    0.8944    0.0158 H   0  0  0  0  0  0  0  0  0  0  0  0 
    0.6183   -0.6498    0.9009 H   0  0  0  0  0  0  0  0  0  0  0  0 
    0.6188   -0.6514   -0.8666 H   0  0  0  0  0  0  0  0  0  0  0  0 
    7.8111    1.1432    0.0186 H   0  0  0  0  0  0  0  0  0  0  0  0 
    7.7683   -1.3222    0.0174 H   0  0  0  0  0  0  0  0  0  0  0  0 
    5.6904    2.4672    0.0202 H   0  0  0  0  0  0  0  0  0  0  0  0 
    5.5979   -2.5723    0.0128 H   0  0  0  0  0  0  0  0  0  0  0  0 
  1  6  1  0  0  0  0 
  1 12  1  0  0  0  0 
  2 14  1  0  0  0  0 
  2  4  1  0  0  0  0 
  3 15  1  0  0  0  0 
  3  2  2  0  0  0  0 
  4 16  1  0  0  0  0 
  5  8  2  0  0  0  0 
  5  3  1  0  0  0  0 
  6  9  2  0  0  0  0 
  7  9  1  0  0  0  0 
  7  4  2  0  0  0  0 
  8  7  1  0  0  0  0 
 10  8  1  0  0  0  0 
 10  6  1  0  0  0  0 
 11  1  1  0  0  0  0 
 13  1  1  0  0  0  0 
 17  5  1  0  0  0  0 
M  END 
>  <HBA> 
2 
 
>  <HBD> 
0 
 
>  <TPSA> 
26.03 
 
>  <cid> 
7225 
 
>  <dipole> 
1.17 
 
>  <excitation_energy_1> 
5.045 
 
>  <excitation_energy_2> 
5.401 
 
>  <excitation_energy_3> 
5.976 
 
>  <excitation_energy_4> 
6.004 
 
>  <homo_energy> 
-6.316 
 
>  <homo_lumo_gap> 
5.723 
 
>  <logP> 
2.136 
 
>  <lumo_energy> 
-0.593 
 
>  <melting_point> 
67.22 
 
>  <molecular_refractivity> 
38.98 
 
>  <oscillator_strength_1> 
0.0689 
 
>  <oscillator_strength_2> 
0.1871 
 
>  <oscillator_strength_3> 
0.0007 
 
>  <oscillator_strength_4> 
0.0015 
 
>  <open_babel_can_smiles> 
Cc1nc2c(o1)cccc2 
 
>  <mulliken_charges> 
17 
1   -0.532316 
2   -0.143834 
3   -0.144933 
4   -0.172405 
5   -0.185194 
6   0.508374 
7   0.232192 
8   0.328682 
9   -0.504835 
10   -0.500443 
11   0.193186 
12   0.182323 
13   0.182283 
14   0.131978 
15   0.133687 
16   0.145069 
17   0.146185 
 
>  <lowdin_charges> 
17 
1   -0.444104 
2   -0.164195 
3   -0.157247 
4   -0.153727 
5   -0.173352 
6   0.133484 
7   0.006607 
8   0.070068 
9   -0.181645 
10   -0.128228 
11   0.183227 
12   0.176551 
13   0.176543 
14   0.160063 
15   0.16107 
16   0.16694 
17   0.167944 
 
$$$$ 
 
