PCCDB-ID:  39541 
public computational chemistry database (PCCDB) project, http://pccdb.org 
 
 24 25  0  0  1  0  0  0  0  0999 V2000 
    1.0150    0.0705   -0.1203 C   0  0  0  0  0  0  0  0  0  0  0  0 
    2.7985   -2.3906   -0.2471 C   0  0  0  0  0  0  0  0  0  0  0  0 
    4.1109    1.5865   -1.9552 C   0  0  0  0  0  0  0  0  0  0  0  0 
    4.1199    0.1237   -2.4992 C   0  0  0  0  0  0  0  0  0  0  0  0 
    3.1588    1.2560    0.3998 C   0  0  0  0  0  0  0  0  0  0  0  0 
    5.2783    0.1719   -0.3887 C   0  0  0  0  0  0  0  0  0  0  0  0 
    2.3537    0.0508   -0.0649 C   0  0  0  0  0  0  0  0  0  0  0  0 
    3.1526   -1.1256   -0.5093 C   0  0  0  0  0  0  0  0  0  0  0  0 
    4.4371    1.4609   -0.4444 C   0  0  1  0  0  0  0  0  0  0  0  0 
    4.4242   -0.7736   -1.2644 C   0  0  1  0  0  0  0  0  0  0  0  0 
    0.4460    0.9402    0.2001 H   0  0  0  0  0  0  0  0  0  0  0  0 
    0.4470   -0.7785   -0.4901 H   0  0  0  0  0  0  0  0  0  0  0  0 
    1.9162   -2.6277    0.3409 H   0  0  0  0  0  0  0  0  0  0  0  0 
    3.3894   -3.2300   -0.6059 H   0  0  0  0  0  0  0  0  0  0  0  0 
    3.1490    2.0835   -2.1215 H   0  0  0  0  0  0  0  0  0  0  0  0 
    4.8744    2.1897   -2.4593 H   0  0  0  0  0  0  0  0  0  0  0  0 
    4.9103   -0.0048   -3.2475 H   0  0  0  0  0  0  0  0  0  0  0  0 
    3.1747   -0.1521   -2.9766 H   0  0  0  0  0  0  0  0  0  0  0  0 
    3.4611    1.1063    1.4478 H   0  0  0  0  0  0  0  0  0  0  0  0 
    2.5310    2.1548    0.3758 H   0  0  0  0  0  0  0  0  0  0  0  0 
    5.4310   -0.2043    0.6296 H   0  0  0  0  0  0  0  0  0  0  0  0 
    6.2649    0.3263   -0.8452 H   0  0  0  0  0  0  0  0  0  0  0  0 
    4.9792    2.3352   -0.0661 H   0  0  0  0  0  0  0  0  0  0  0  0 
    4.9532   -1.6909   -1.5427 H   0  0  0  0  0  0  0  0  0  0  0  0 
  1  7  2  0  0  0  0 
  1 11  1  0  0  0  0 
  2 13  1  0  0  0  0 
  3  9  1  0  0  0  0 
  4  3  1  0  0  0  0 
  4 10  1  0  0  0  0 
  5 19  1  0  0  0  0 
  6 21  1  0  0  0  0 
  7  5  1  0  0  0  0 
  8  2  2  0  0  0  0 
  8  7  1  0  0  0  0 
  9  6  1  0  0  0  0 
  9 23  1  1  0  0  0 
  9  5  1  0  0  0  0 
 10 24  1  6  0  0  0 
 10  8  1  0  0  0  0 
 10  6  1  0  0  0  0 
 12  1  1  0  0  0  0 
 14  2  1  0  0  0  0 
 15  3  1  0  0  0  0 
 16  3  1  0  0  0  0 
 17  4  1  0  0  0  0 
 18  4  1  0  0  0  0 
 20  5  1  0  0  0  0 
 22  6  1  0  0  0  0 
M  END 
>  <HBA> 
0 
 
>  <HBD> 
0 
 
>  <TPSA> 
0.0 
 
>  <cid> 
39541 
 
>  <dipole> 
0.76 
 
>  <excitation_energy_1> 
5.21 
 
>  <excitation_energy_2> 
5.694 
 
>  <excitation_energy_3> 
5.934 
 
>  <excitation_energy_4> 
6.076 
 
>  <homo_energy> 
-6.085 
 
>  <homo_lumo_gap> 
5.87 
 
>  <logP> 
2.919 
 
>  <lumo_energy> 
-0.215 
 
>  <melting_point> 
-18.42 
 
>  <molecular_refractivity> 
45.01 
 
>  <oscillator_strength_1> 
0.1692 
 
>  <oscillator_strength_2> 
0.0084 
 
>  <oscillator_strength_3> 
0.033 
 
>  <oscillator_strength_4> 
0.0041 
 
>  <open_babel_can_smiles> 
C=C1C(=C)C[C@H]2C[C@@H]1CC2 
 
>  <mulliken_charges> 
24 
1   -0.404415 
2   -0.421518 
3   -0.271642 
4   -0.272801 
5   -0.328393 
6   -0.27047 
7   0.156513 
8   0.190634 
9   -0.100881 
10   -0.175445 
11   0.132752 
12   0.141603 
13   0.140194 
14   0.1329 
15   0.140716 
16   0.134237 
17   0.135689 
18   0.146865 
19   0.14629 
20   0.137716 
21   0.137604 
22   0.133082 
23   0.119654 
24   0.119113 
 
>  <lowdin_charges> 
24 
1   -0.350745 
2   -0.355414 
3   -0.289586 
4   -0.285849 
5   -0.27392 
6   -0.28008 
7   0.000864 
8   0.002624 
9   -0.133877 
10   -0.129588 
11   0.155325 
12   0.160386 
13   0.158941 
14   0.155465 
15   0.14738 
16   0.146511 
17   0.146427 
18   0.151078 
19   0.149989 
20   0.148366 
21   0.144388 
22   0.143767 
23   0.14246 
24   0.14509 
 
$$$$ 
 
