PCCDB-ID:  9989 
public computational chemistry database (PCCDB) project, http://pccdb.org 
 
 28 27  0  0  0  0  0  0  0  0999 V2000 
    1.5145   -2.4196   -2.0064 C   0  0  0  0  0  0  0  0  0  0  0  0 
    3.9838   -2.9734   -1.8299 C   0  0  0  0  0  0  0  0  0  0  0  0 
    4.0741    3.3513   -2.2776 C   0  0  0  0  0  0  0  0  0  0  0  0 
    4.4919    0.1325   -1.8030 C   0  0  0  0  0  0  0  0  0  0  0  0 
    3.1670   -0.5754   -1.8901 C   0  0  0  0  0  0  0  0  0  0  0  0 
    4.8001    1.0225   -3.0413 C   0  0  0  0  0  0  0  0  0  0  0  0 
    2.8919    2.1345   -4.1651 C   0  0  0  0  0  0  0  0  0  0  0  0 
    2.9285   -1.8967   -1.9074 C   0  0  0  0  0  0  0  0  0  0  0  0 
    3.8571    2.1943   -3.2264 C   0  0  0  0  0  0  0  0  0  0  0  0 
    1.8208    3.1266   -4.4625 C   0  0  0  0  0  0  0  0  0  0  0  0 
    0.6948    2.8027   -4.7567 O   0  0  0  0  0  0  0  0  0  0  0  0 
    2.1524    4.4529   -4.4163 O   0  0  0  0  0  0  0  0  0  0  0  0 
    1.3896   -3.0540   -2.8953 H   0  0  0  0  0  0  0  0  0  0  0  0 
    0.7815   -1.6093   -2.0633 H   0  0  0  0  0  0  0  0  0  0  0  0 
    1.2636   -3.0477   -1.1399 H   0  0  0  0  0  0  0  0  0  0  0  0 
    3.8135   -3.6175   -0.9560 H   0  0  0  0  0  0  0  0  0  0  0  0 
    5.0025   -2.5846   -1.7626 H   0  0  0  0  0  0  0  0  0  0  0  0 
    3.9320   -3.6288   -2.7104 H   0  0  0  0  0  0  0  0  0  0  0  0 
    4.2126    2.9818   -1.2549 H   0  0  0  0  0  0  0  0  0  0  0  0 
    3.2445    4.0610   -2.2616 H   0  0  0  0  0  0  0  0  0  0  0  0 
    4.9969    3.8937   -2.5306 H   0  0  0  0  0  0  0  0  0  0  0  0 
    5.3167   -0.5782   -1.6932 H   0  0  0  0  0  0  0  0  0  0  0  0 
    4.5131    0.7606   -0.8998 H   0  0  0  0  0  0  0  0  0  0  0  0 
    2.3026    0.0859   -1.9530 H   0  0  0  0  0  0  0  0  0  0  0  0 
    4.7856    0.3907   -3.9360 H   0  0  0  0  0  0  0  0  0  0  0  0 
    5.8237    1.4099   -2.9341 H   0  0  0  0  0  0  0  0  0  0  0  0 
    2.7757    1.2182   -4.7385 H   0  0  0  0  0  0  0  0  0  0  0  0 
    3.1152    4.5383   -4.3273 H   0  0  0  0  0  0  0  0  0  0  0  0 
  1  8  1  0  0  0  0 
  1 15  1  0  0  0  0 
  2 17  1  0  0  0  0 
  2 16  1  0  0  0  0 
  3 20  1  0  0  0  0 
  3 19  1  0  0  0  0 
  4 22  1  0  0  0  0 
  4 23  1  0  0  0  0 
  5  4  1  0  0  0  0 
  6 26  1  0  0  0  0 
  6  4  1  0  0  0  0 
  7  9  2  0  0  0  0 
  8  5  2  0  0  0  0 
  8  2  1  0  0  0  0 
  9  6  1  0  0  0  0 
  9  3  1  0  0  0  0 
 10 12  1  0  0  0  0 
 10  7  1  0  0  0  0 
 11 10  2  0  0  0  0 
 12 28  1  0  0  0  0 
 13  1  1  0  0  0  0 
 14  1  1  0  0  0  0 
 18  2  1  0  0  0  0 
 21  3  1  0  0  0  0 
 24  5  1  0  0  0  0 
 25  6  1  0  0  0  0 
 27  7  1  0  0  0  0 
M  END 
>  <HBA> 
2 
 
>  <HBD> 
1 
 
>  <TPSA> 
37.3 
 
>  <cid> 
9989 
 
>  <dipole> 
5.22 
 
>  <excitation_energy_1> 
4.597 
 
>  <excitation_energy_2> 
4.866 
 
>  <excitation_energy_3> 
5.6 
 
>  <excitation_energy_4> 
5.911 
 
>  <homo_energy> 
-6.378 
 
>  <homo_lumo_gap> 
5.412 
 
>  <logP> 
2.764 
 
>  <lumo_energy> 
-0.966 
 
>  <melting_point> 
74.36 
 
>  <molecular_refractivity> 
51.01 
 
>  <oscillator_strength_1> 
0.045 
 
>  <oscillator_strength_2> 
0.0093 
 
>  <oscillator_strength_3> 
0.0345 
 
>  <oscillator_strength_4> 
0.2719 
 
>  <open_babel_can_smiles> 
CC(=CCC/C(=C/C(=O)O)/C)C 
 
>  <mulliken_charges> 
28 
1   -0.50694 
2   -0.513677 
3   -0.559043 
4   -0.315342 
5   -0.162045 
6   -0.323956 
7   -0.276252 
8   0.186032 
9   0.195638 
10   0.567252 
11   -0.444225 
12   -0.572868 
13   0.151308 
14   0.15988 
15   0.149879 
16   0.155263 
17   0.15163 
18   0.154443 
19   0.175741 
20   0.17751 
21   0.163877 
22   0.145623 
23   0.14466 
24   0.127732 
25   0.155857 
26   0.141418 
27   0.160622 
28   0.409981 
 
>  <lowdin_charges> 
28 
1   -0.440681 
2   -0.444721 
3   -0.462554 
4   -0.271933 
5   -0.20035 
6   -0.271058 
7   -0.237901 
8   -0.004888 
9   0.022734 
10   0.190027 
11   -0.238373 
12   -0.36251 
13   0.154349 
14   0.159323 
15   0.1538 
16   0.157512 
17   0.152593 
18   0.156932 
19   0.167741 
20   0.167615 
21   0.162405 
22   0.152087 
23   0.147128 
24   0.153817 
25   0.155881 
26   0.149408 
27   0.177049 
28   0.354569 
 
$$$$ 
 
