PCCDB-ID:  16006 
public computational chemistry database (PCCDB) project, http://pccdb.org 
 
 28 29  0  0  0  0  0  0  0  0999 V2000 
    1.0819    0.4526   -3.6238 C   0  0  0  0  0  0  0  0  0  0  0  0 
   -5.8805   -4.9646   -0.1687 C   0  0  0  0  0  0  0  0  0  0  0  0 
   -5.5289   -3.7146   -0.7301 C   0  0  0  0  0  0  0  0  0  0  0  0 
   -1.2426   -6.3924   -0.4291 C   0  0  0  0  0  0  0  0  0  0  0  0 
   -4.9177   -5.9267    0.0420 C   0  0  0  0  0  0  0  0  0  0  0  0 
   -2.5446   -6.6644   -0.0885 C   0  0  0  0  0  0  0  0  0  0  0  0 
   -4.2209   -3.4467   -1.0722 C   0  0  0  0  0  0  0  0  0  0  0  0 
   -0.8772   -5.1436   -0.9928 C   0  0  0  0  0  0  0  0  0  0  0  0 
   -0.2931   -2.6125   -2.1178 C   0  0  0  0  0  0  0  0  0  0  0  0 
   -3.5592   -5.6884   -0.2967 C   0  0  0  0  0  0  0  0  0  0  0  0 
   -3.2121   -4.4223   -0.8644 C   0  0  0  0  0  0  0  0  0  0  0  0 
   -1.8423   -4.1802   -1.2059 C   0  0  0  0  0  0  0  0  0  0  0  0 
   -0.3118   -1.1989   -2.6839 C   0  0  0  0  0  0  0  0  0  0  0  0 
   -1.2762   -0.4819   -2.7822 O   0  0  0  0  0  0  0  0  0  0  0  0 
    0.9400   -0.8655   -3.0645 O   0  0  0  0  0  0  0  0  0  0  0  0 
   -1.6049   -2.9452   -1.7421 O   0  0  0  0  0  0  0  0  0  0  0  0 
    0.4706    0.5530   -4.5243 H   0  0  0  0  0  0  0  0  0  0  0  0 
    2.1401    0.5551   -3.8644 H   0  0  0  0  0  0  0  0  0  0  0  0 
    0.7763    1.2108   -2.8983 H   0  0  0  0  0  0  0  0  0  0  0  0 
   -6.9155   -5.1639    0.0965 H   0  0  0  0  0  0  0  0  0  0  0  0 
   -6.2960   -2.9621   -0.8918 H   0  0  0  0  0  0  0  0  0  0  0  0 
   -0.4686   -7.1381   -0.2687 H   0  0  0  0  0  0  0  0  0  0  0  0 
   -5.1851   -6.8886    0.4731 H   0  0  0  0  0  0  0  0  0  0  0  0 
   -2.8166   -7.6243    0.3426 H   0  0  0  0  0  0  0  0  0  0  0  0 
   -3.9420   -2.4919   -1.5043 H   0  0  0  0  0  0  0  0  0  0  0  0 
    0.1609   -4.9634   -1.2479 H   0  0  0  0  0  0  0  0  0  0  0  0 
    0.3975   -2.6436   -1.2624 H   0  0  0  0  0  0  0  0  0  0  0  0 
    0.0996   -3.2978   -2.8830 H   0  0  0  0  0  0  0  0  0  0  0  0 
  1 15  1  0  0  0  0 
  1 19  1  0  0  0  0 
  2  5  1  0  0  0  0 
  2 20  1  0  0  0  0 
  3  2  2  0  0  0  0 
  4 22  1  0  0  0  0 
  4  6  2  0  0  0  0 
  5 23  1  0  0  0  0 
  6 24  1  0  0  0  0 
  7 11  2  0  0  0  0 
  7  3  1  0  0  0  0 
  8  4  1  0  0  0  0 
  9 16  1  0  0  0  0 
  9 27  1  0  0  0  0 
 10  6  1  0  0  0  0 
 10  5  2  0  0  0  0 
 11 10  1  0  0  0  0 
 12  8  2  0  0  0  0 
 12 11  1  0  0  0  0 
 13  9  1  0  0  0  0 
 14 13  2  0  0  0  0 
 15 13  1  0  0  0  0 
 16 12  1  0  0  0  0 
 17  1  1  0  0  0  0 
 18  1  1  0  0  0  0 
 21  3  1  0  0  0  0 
 25  7  1  0  0  0  0 
 26  8  1  0  0  0  0 
 28  9  1  0  0  0  0 
M  END 
>  <HBA> 
3 
 
>  <HBD> 
0 
 
>  <TPSA> 
35.53 
 
>  <cid> 
16006 
 
>  <dipole> 
2.68 
 
>  <excitation_energy_1> 
4.199 
 
>  <excitation_energy_2> 
4.367 
 
>  <excitation_energy_3> 
4.851 
 
>  <excitation_energy_4> 
5.061 
 
>  <homo_energy> 
-5.456 
 
>  <homo_lumo_gap> 
4.697 
 
>  <logP> 
2.392 
 
>  <lumo_energy> 
-0.759 
 
>  <melting_point> 
64.87 
 
>  <molecular_refractivity> 
61.34 
 
>  <oscillator_strength_1> 
0.1005 
 
>  <oscillator_strength_2> 
0.026 
 
>  <oscillator_strength_3> 
0.0153 
 
>  <oscillator_strength_4> 
0.0013 
 
>  <open_babel_can_smiles> 
COC(=O)COc1cccc2c1cccc2 
 
>  <mulliken_charges> 
28 
1   -0.220194 
2   -0.12725 
3   -0.140351 
4   -0.143692 
5   -0.202817 
6   -0.189604 
7   -0.173748 
8   -0.208348 
9   -0.106023 
10   0.138915 
11   0.046262 
12   0.329001 
13   0.597295 
14   -0.451838 
15   -0.453652 
16   -0.503457 
17   0.175056 
18   0.168941 
19   0.175346 
20   0.128168 
21   0.130271 
22   0.129158 
23   0.127802 
24   0.125212 
25   0.16646 
26   0.131796 
27   0.17563 
28   0.175662 
 
>  <lowdin_charges> 
28 
1   -0.27578 
2   -0.154171 
3   -0.160998 
4   -0.151594 
5   -0.159041 
6   -0.175848 
7   -0.148542 
8   -0.225248 
9   -0.155745 
10   0.00572 
11   -0.022443 
12   0.104037 
13   0.18956 
14   -0.236868 
15   -0.196073 
16   -0.176899 
17   0.162042 
18   0.161563 
19   0.163145 
20   0.15654 
21   0.159573 
22   0.159389 
23   0.156458 
24   0.1567 
25   0.175998 
26   0.159887 
27   0.164088 
28   0.164551 
 
$$$$ 
 
