PCCDB-ID:  30613 
public computational chemistry database (PCCDB) project, http://pccdb.org 
 
 32 33  0  0  1  0  0  0  0  0999 V2000 
    2.8760    0.6240   -2.4112 C   0  0  0  0  0  0  0  0  0  0  0  0 
    3.1773   -0.0061   -1.0481 C   0  0  0  0  0  0  0  0  0  0  0  0 
   12.1443    1.3031   -1.2195 C   0  0  0  0  0  0  0  0  0  0  0  0 
   11.1892    1.9375   -0.4204 C   0  0  0  0  0  0  0  0  0  0  0  0 
   11.8003    0.1658   -1.9485 C   0  0  0  0  0  0  0  0  0  0  0  0 
    9.8865    1.4439   -0.3663 C   0  0  0  0  0  0  0  0  0  0  0  0 
    4.2178   -1.1299   -1.1060 C   0  0  0  0  0  0  0  0  0  0  0  0 
    6.5322   -1.6728   -1.6591 C   0  0  0  0  0  0  0  0  0  0  0  0 
    8.9792   -2.0967   -2.2407 C   0  0  0  0  0  0  0  0  0  0  0  0 
    7.8682   -1.0679   -2.0668 C   0  0  2  0  0  0  0  0  0  0  0  0 
   10.5005   -0.3381   -1.8886 C   0  0  0  0  0  0  0  0  0  0  0  0 
    9.5357    0.3115   -1.1018 C   0  0  0  0  0  0  0  0  0  0  0  0 
    5.5123   -0.6375   -1.5744 N   0  0  0  0  0  0  0  0  0  0  0  0 
   10.1992   -1.4610   -2.6211 O   0  0  0  0  0  0  0  0  0  0  0  0 
    8.2419   -0.1489   -1.0253 O   0  0  0  0  0  0  0  0  0  0  0  0 
    2.1394    1.4304   -2.3206 H   0  0  0  0  0  0  0  0  0  0  0  0 
    2.4705   -0.1225   -3.1057 H   0  0  0  0  0  0  0  0  0  0  0  0 
    3.7855    1.0333   -2.8602 H   0  0  0  0  0  0  0  0  0  0  0  0 
    2.2565   -0.4130   -0.6098 H   0  0  0  0  0  0  0  0  0  0  0  0 
    3.5287    0.7680   -0.3498 H   0  0  0  0  0  0  0  0  0  0  0  0 
   13.1590    1.6871   -1.2707 H   0  0  0  0  0  0  0  0  0  0  0  0 
   11.4532    2.8207    0.1540 H   0  0  0  0  0  0  0  0  0  0  0  0 
   12.5245   -0.3543   -2.5683 H   0  0  0  0  0  0  0  0  0  0  0  0 
    9.1207    1.9245    0.2352 H   0  0  0  0  0  0  0  0  0  0  0  0 
    3.8796   -1.9036   -1.8102 H   0  0  0  0  0  0  0  0  0  0  0  0 
    4.2863   -1.6199   -0.1147 H   0  0  0  0  0  0  0  0  0  0  0  0 
    6.6699   -2.2330   -0.7132 H   0  0  0  0  0  0  0  0  0  0  0  0 
    6.2288   -2.4013   -2.4232 H   0  0  0  0  0  0  0  0  0  0  0  0 
    8.7431   -2.8018   -3.0420 H   0  0  0  0  0  0  0  0  0  0  0  0 
    9.1242   -2.6530   -1.3037 H   0  0  0  0  0  0  0  0  0  0  0  0 
    7.7456   -0.5041   -3.0018 H   0  0  0  0  0  0  0  0  0  0  0  0 
    5.8481    0.0851   -0.9386 H   0  0  0  0  0  0  0  0  0  0  0  0 
  1 16  1  0  0  0  0 
  1  2  1  0  0  0  0 
  2 19  1  0  0  0  0 
  2 20  1  0  0  0  0 
  3  4  2  0  0  0  0 
  4  6  1  0  0  0  0 
  4 22  1  0  0  0  0 
  5 11  2  0  0  0  0 
  5  3  1  0  0  0  0 
  6 24  1  0  0  0  0 
  7  2  1  0  0  0  0 
  7 26  1  0  0  0  0 
  8 13  1  0  0  0  0 
  8 27  1  0  0  0  0 
  9 10  1  0  0  0  0 
  9 30  1  0  0  0  0 
 10 31  1  6  0  0  0 
 10  8  1  0  0  0  0 
 10 15  1  0  0  0  0 
 11 12  1  0  0  0  0 
 12 15  1  0  0  0  0 
 12  6  2  0  0  0  0 
 13  7  1  0  0  0  0 
 13 32  1  0  0  0  0 
 14  9  1  0  0  0  0 
 14 11  1  0  0  0  0 
 17  1  1  0  0  0  0 
 18  1  1  0  0  0  0 
 21  3  1  0  0  0  0 
 23  5  1  0  0  0  0 
 25  7  1  0  0  0  0 
 28  8  1  0  0  0  0 
 29  9  1  0  0  0  0 
M  END 
>  <HBA> 
3 
 
>  <HBD> 
1 
 
>  <TPSA> 
30.49 
 
>  <cid> 
30613 
 
>  <dipole> 
1.55 
 
>  <excitation_energy_1> 
4.892 
 
>  <excitation_energy_2> 
5.353 
 
>  <excitation_energy_3> 
5.545 
 
>  <excitation_energy_4> 
5.573 
 
>  <homo_energy> 
-5.665 
 
>  <homo_lumo_gap> 
5.837 
 
>  <logP> 
2.217 
 
>  <lumo_energy> 
0.171 
 
>  <melting_point> 
61.63 
 
>  <molecular_refractivity> 
59.34 
 
>  <oscillator_strength_1> 
0.047 
 
>  <oscillator_strength_2> 
0.01 
 
>  <oscillator_strength_3> 
0.0008 
 
>  <oscillator_strength_4> 
0.005 
 
>  <open_babel_can_smiles> 
CCCNC[C@@H]1COc2c(O1)cccc2 
 
>  <mulliken_charges> 
32 
1   -0.433902 
2   -0.264014 
3   -0.137664 
4   -0.138055 
5   -0.191018 
6   -0.191523 
7   -0.109373 
8   -0.123612 
9   -0.048301 
10   0.097752 
11   0.3298 
12   0.337765 
13   -0.564117 
14   -0.527695 
15   -0.552721 
16   0.13776 
17   0.136964 
18   0.164223 
19   0.133801 
20   0.129639 
21   0.127532 
22   0.127228 
23   0.13872 
24   0.134502 
25   0.133204 
26   0.111146 
27   0.12091 
28   0.142102 
29   0.157257 
30   0.151953 
31   0.159404 
32   0.310332 
 
>  <lowdin_charges> 
32 
1   -0.447897 
2   -0.277889 
3   -0.165013 
4   -0.166455 
5   -0.177622 
6   -0.178689 
7   -0.20061 
8   -0.206161 
9   -0.140608 
10   -0.011991 
11   0.062381 
12   0.06092 
13   -0.362983 
14   -0.206621 
15   -0.217023 
16   0.147793 
17   0.146209 
18   0.158326 
19   0.144997 
20   0.139456 
21   0.157432 
22   0.158397 
23   0.168423 
24   0.166234 
25   0.138862 
26   0.117007 
27   0.124503 
28   0.149233 
29   0.161596 
30   0.146466 
31   0.151425 
32   0.259899 
 
$$$$ 
 
