PCCDB-ID:  16403 
public computational chemistry database (PCCDB) project, http://pccdb.org 
 
 32 32  0  0  0  0  0  0  0  0999 V2000 
    1.7411    0.1519    1.0917 C   0  0  0  0  0  0  0  0  0  0  0  0 
    0.3048    6.0361    2.7071 C   0  0  0  0  0  0  0  0  0  0  0  0 
    2.6831    6.3171    2.5348 C   0  0  0  0  0  0  0  0  0  0  0  0 
    4.6697    0.9938   -2.9705 C   0  0  0  0  0  0  0  0  0  0  0  0 
    4.6085    2.3798   -2.8246 C   0  0  0  0  0  0  0  0  0  0  0  0 
    4.0062    0.1907   -2.0515 C   0  0  0  0  0  0  0  0  0  0  0  0 
    3.8937    2.9495   -1.7730 C   0  0  0  0  0  0  0  0  0  0  0  0 
    1.6290    4.3217    1.6348 C   0  0  0  0  0  0  0  0  0  0  0  0 
    2.4749    4.0693    0.3880 C   0  0  0  0  0  0  0  0  0  0  0  0 
    2.6096   -0.2801   -0.0739 C   0  0  0  0  0  0  0  0  0  0  0  0 
    3.2733    0.7256   -0.9793 C   0  0  0  0  0  0  0  0  0  0  0  0 
    3.2241    2.1362   -0.8461 C   0  0  0  0  0  0  0  0  0  0  0  0 
    1.4925    5.7495    1.9103 N   0  0  0  0  0  0  0  0  0  0  0  0 
    2.7730   -1.4745   -0.2873 O   0  0  0  0  0  0  0  0  0  0  0  0 
    2.5181    2.6543    0.1988 O   0  0  0  0  0  0  0  0  0  0  0  0 
    0.9221    0.7966    0.7583 H   0  0  0  0  0  0  0  0  0  0  0  0 
    2.3193    0.7345    1.8159 H   0  0  0  0  0  0  0  0  0  0  0  0 
    1.3446   -0.7480    1.5664 H   0  0  0  0  0  0  0  0  0  0  0  0 
    0.2055    7.1192    2.8358 H   0  0  0  0  0  0  0  0  0  0  0  0 
    0.3299    5.5751    3.7140 H   0  0  0  0  0  0  0  0  0  0  0  0 
   -0.5881    5.6734    2.1875 H   0  0  0  0  0  0  0  0  0  0  0  0 
    2.5451    7.3950    2.6688 H   0  0  0  0  0  0  0  0  0  0  0  0 
    3.5606    6.1738    1.8971 H   0  0  0  0  0  0  0  0  0  0  0  0 
    2.9040    5.8724    3.5252 H   0  0  0  0  0  0  0  0  0  0  0  0 
    5.2265    0.5476   -3.7891 H   0  0  0  0  0  0  0  0  0  0  0  0 
    5.1179    3.0301   -3.5312 H   0  0  0  0  0  0  0  0  0  0  0  0 
    4.0311   -0.8909   -2.1313 H   0  0  0  0  0  0  0  0  0  0  0  0 
    3.8584    4.0280   -1.6793 H   0  0  0  0  0  0  0  0  0  0  0  0 
    2.0565    3.7618    2.4887 H   0  0  0  0  0  0  0  0  0  0  0  0 
    0.6328    3.9060    1.4498 H   0  0  0  0  0  0  0  0  0  0  0  0 
    3.4949    4.4568    0.5041 H   0  0  0  0  0  0  0  0  0  0  0  0 
    2.0139    4.5627   -0.4766 H   0  0  0  0  0  0  0  0  0  0  0  0 
  1 18  1  0  0  0  0 
  1 17  1  0  0  0  0 
  2 19  1  0  0  0  0 
  2 20  1  0  0  0  0 
  3 22  1  0  0  0  0 
  3 24  1  0  0  0  0 
  4  5  2  0  0  0  0 
  4  6  1  0  0  0  0 
  5  7  1  0  0  0  0 
  6 11  2  0  0  0  0 
  7 28  1  0  0  0  0 
  7 12  2  0  0  0  0 
  8 13  1  0  0  0  0 
  8 29  1  0  0  0  0 
  9 31  1  0  0  0  0 
  9  8  1  0  0  0  0 
 10  1  1  0  0  0  0 
 11 12  1  0  0  0  0 
 11 10  1  0  0  0  0 
 12 15  1  0  0  0  0 
 13  3  1  0  0  0  0 
 13  2  1  0  0  0  0 
 14 10  2  0  0  0  0 
 15  9  1  0  0  0  0 
 16  1  1  0  0  0  0 
 21  2  1  0  0  0  0 
 23  3  1  0  0  0  0 
 25  4  1  0  0  0  0 
 26  5  1  0  0  0  0 
 27  6  1  0  0  0  0 
 30  8  1  0  0  0  0 
 32  9  1  0  0  0  0 
M  END 
>  <HBA> 
3 
 
>  <HBD> 
0 
 
>  <TPSA> 
29.54 
 
>  <cid> 
16403 
 
>  <dipole> 
4.67 
 
>  <excitation_energy_1> 
3.784 
 
>  <excitation_energy_2> 
4.233 
 
>  <excitation_energy_3> 
4.358 
 
>  <excitation_energy_4> 
5.124 
 
>  <homo_energy> 
-6.087 
 
>  <homo_lumo_gap> 
4.857 
 
>  <logP> 
1.83 
 
>  <lumo_energy> 
-1.23 
 
>  <melting_point> 
44.96 
 
>  <molecular_refractivity> 
60.45 
 
>  <oscillator_strength_1> 
0.0001 
 
>  <oscillator_strength_2> 
0.0576 
 
>  <oscillator_strength_3> 
0.041 
 
>  <oscillator_strength_4> 
0.156 
 
>  <open_babel_can_smiles> 
CN(CCOc1ccccc1C(=O)C)C 
 
>  <mulliken_charges> 
32 
1   -0.514953 
2   -0.29714 
3   -0.304545 
4   -0.129257 
5   -0.129513 
6   -0.1723 
7   -0.195912 
8   -0.141306 
9   -0.033712 
10   0.410799 
11   0.024436 
12   0.324083 
13   -0.375301 
14   -0.459984 
15   -0.53296 
16   0.167946 
17   0.170414 
18   0.165657 
19   0.152107 
20   0.123457 
21   0.153558 
22   0.154924 
23   0.150746 
24   0.124456 
25   0.133162 
26   0.136162 
27   0.16838 
28   0.140998 
29   0.129672 
30   0.153346 
31   0.145612 
32   0.156965 
 
>  <lowdin_charges> 
32 
1   -0.473374 
2   -0.352629 
3   -0.356867 
4   -0.177904 
5   -0.132046 
6   -0.116331 
7   -0.214608 
8   -0.206111 
9   -0.130483 
10   0.167064 
11   -0.0828 
12   0.111783 
13   -0.184557 
14   -0.254091 
15   -0.192638 
16   0.170042 
17   0.171973 
18   0.166177 
19   0.149926 
20   0.122697 
21   0.15231 
22   0.151917 
23   0.14931 
24   0.123311 
25   0.16145 
26   0.162165 
27   0.177715 
28   0.163987 
29   0.129112 
30   0.153907 
31   0.14067 
32   0.148919 
 
$$$$ 
 
