PCCDB-ID:  39589 
public computational chemistry database (PCCDB) project, http://pccdb.org 
 
 24 23  0  0  0  0  0  0  0  0999 V2000 
    1.1402    0.1539    1.0324 C   0  0  0  0  0  0  0  0  0  0  0  0 
    2.0083   -2.1319   -2.5927 C   0  0  0  0  0  0  0  0  0  0  0  0 
    6.2677    0.2832   -0.2204 C   0  0  0  0  0  0  0  0  0  0  0  0 
    1.9416    0.2198   -0.2686 C   0  0  0  0  0  0  0  0  0  0  0  0 
    2.1030   -2.1465   -1.0649 C   0  0  0  0  0  0  0  0  0  0  0  0 
    4.1429   -1.0125   -0.5129 C   0  0  0  0  0  0  0  0  0  0  0  0 
    4.3594    0.5977    1.2615 N   0  0  0  0  0  0  0  0  0  0  0  0 
    4.8605    0.0670    0.1169 N   0  0  0  0  0  0  0  0  0  0  0  0 
    2.7826   -0.9635   -0.5086 N   0  0  0  0  0  0  0  0  0  0  0  0 
    4.7910   -1.9196   -1.0202 O   0  0  0  0  0  0  0  0  0  0  0  0 
    5.1404    1.3287    1.8512 O   0  0  0  0  0  0  0  0  0  0  0  0 
    0.4997    1.0393    1.1177 H   0  0  0  0  0  0  0  0  0  0  0  0 
    1.8134    0.1244    1.8918 H   0  0  0  0  0  0  0  0  0  0  0  0 
    0.4924   -0.7292    1.0626 H   0  0  0  0  0  0  0  0  0  0  0  0 
    1.4657   -3.0175   -2.9428 H   0  0  0  0  0  0  0  0  0  0  0  0 
    3.0087   -2.1446   -3.0328 H   0  0  0  0  0  0  0  0  0  0  0  0 
    1.4736   -1.2468   -2.9563 H   0  0  0  0  0  0  0  0  0  0  0  0 
    6.4722   -0.2447   -1.1484 H   0  0  0  0  0  0  0  0  0  0  0  0 
    6.9112   -0.0998    0.5775 H   0  0  0  0  0  0  0  0  0  0  0  0 
    6.4476    1.3553   -0.3252 H   0  0  0  0  0  0  0  0  0  0  0  0 
    2.5722    1.1086   -0.2795 H   0  0  0  0  0  0  0  0  0  0  0  0 
    1.2591    0.3051   -1.1246 H   0  0  0  0  0  0  0  0  0  0  0  0 
    2.6484   -3.0321   -0.7329 H   0  0  0  0  0  0  0  0  0  0  0  0 
    1.1047   -2.1820   -0.6170 H   0  0  0  0  0  0  0  0  0  0  0  0 
  1 14  1  0  0  0  0 
  1 12  1  0  0  0  0 
  1 13  1  0  0  0  0 
  2  5  1  0  0  0  0 
  3  8  1  0  0  0  0 
  3 19  1  0  0  0  0 
  4  1  1  0  0  0  0 
  5 23  1  0  0  0  0 
  5 24  1  0  0  0  0 
  5  9  1  0  0  0  0 
  6  9  1  0  0  0  0 
  6  8  1  0  0  0  0 
  7 11  1  0  0  0  0 
  8  7  1  0  0  0  0 
  9  4  1  0  0  0  0 
 10  6  2  0  0  0  0 
 15  2  1  0  0  0  0 
 16  2  1  0  0  0  0 
 17  2  1  0  0  0  0 
 18  3  1  0  0  0  0 
 20  3  1  0  0  0  0 
 21  4  1  0  0  0  0 
 22  4  1  0  0  0  0 
M  RAD  2   7   2  11   2 
M  END 
>  <HBA> 
5 
 
>  <HBD> 
0 
 
>  <TPSA> 
52.98 
 
>  <cid> 
39589 
 
>  <dipole> 
2.78 
 
>  <excitation_energy_1> 
3.118 
 
>  <excitation_energy_2> 
4.357 
 
>  <excitation_energy_3> 
4.978 
 
>  <excitation_energy_4> 
5.734 
 
>  <homo_energy> 
-6.523 
 
>  <homo_lumo_gap> 
4.953 
 
>  <logP> 
1.061 
 
>  <lumo_energy> 
-1.57 
 
>  <melting_point> 
29.48 
 
>  <molecular_refractivity> 
42.08 
 
>  <oscillator_strength_1> 
0.001 
 
>  <oscillator_strength_2> 
0.0138 
 
>  <oscillator_strength_3> 
0.0331 
 
>  <oscillator_strength_4> 
0.1256 
 
>  <open_babel_can_smiles> 
CCN(C(=O)N([N][O])C)CC 
 
>  <mulliken_charges> 
24 
1   -0.446406 
2   -0.451105 
3   -0.314839 
4   -0.144882 
5   -0.143504 
6   0.767324 
7   0.156939 
8   -0.31961 
9   -0.410144 
10   -0.517128 
11   -0.346604 
12   0.148238 
13   0.184271 
14   0.147181 
15   0.150175 
16   0.180943 
17   0.144749 
18   0.198178 
19   0.185926 
20   0.180521 
21   0.170161 
22   0.150454 
23   0.181424 
24   0.147738 
 
>  <lowdin_charges> 
24 
1   -0.45505 
2   -0.454386 
3   -0.364041 
4   -0.195711 
5   -0.190647 
6   0.184001 
7   0.066626 
8   -0.051203 
9   -0.094543 
10   -0.309671 
11   -0.231989 
12   0.156168 
13   0.167558 
14   0.149399 
15   0.157233 
16   0.166418 
17   0.148133 
18   0.184613 
19   0.171905 
20   0.168024 
21   0.161999 
22   0.147071 
23   0.169658 
24   0.148436 
 
$$$$ 
 
