PCCDB-ID:  13835 
public computational chemistry database (PCCDB) project, http://pccdb.org 
 
 16 15  0  0  0  0  0  0  0  0999 V2000 
    1.6034    0.6142    1.0108 C   0  0  0  0  0  0  0  0  0  0  0  0 
    7.6937   -2.0046    0.6949 C   0  0  0  0  0  0  0  0  0  0  0  0 
    2.5858   -0.2305    1.3229 C   0  0  0  0  0  0  0  0  0  0  0  0 
    6.5565   -1.6875    0.0725 C   0  0  0  0  0  0  0  0  0  0  0  0 
    2.9061   -1.4605    0.5259 C   0  0  0  0  0  0  0  0  0  0  0  0 
    5.2552   -1.7654    0.7845 C   0  0  0  0  0  0  0  0  0  0  0  0 
    5.1014   -2.1047    1.9420 O   0  0  0  0  0  0  0  0  0  0  0  0 
    4.2428   -1.4047   -0.0396 O   0  0  0  0  0  0  0  0  0  0  0  0 
    1.3793    1.4830    1.6238 H   0  0  0  0  0  0  0  0  0  0  0  0 
    0.9782    0.4659    0.1324 H   0  0  0  0  0  0  0  0  0  0  0  0 
    8.6538   -1.9549    0.1903 H   0  0  0  0  0  0  0  0  0  0  0  0 
    7.6813   -2.3232    1.7333 H   0  0  0  0  0  0  0  0  0  0  0  0 
    3.2010   -0.0674    2.2053 H   0  0  0  0  0  0  0  0  0  0  0  0 
    6.5298   -1.3650   -0.9640 H   0  0  0  0  0  0  0  0  0  0  0  0 
    2.2452   -1.5573   -0.3383 H   0  0  0  0  0  0  0  0  0  0  0  0 
    2.8371   -2.3586    1.1476 H   0  0  0  0  0  0  0  0  0  0  0  0 
  1  3  2  0  0  0  0 
  1  9  1  0  0  0  0 
  2 12  1  0  0  0  0 
  3 13  1  0  0  0  0 
  4  2  2  0  0  0  0 
  4  6  1  0  0  0  0 
  5 16  1  0  0  0  0 
  5  3  1  0  0  0  0 
  6  7  2  0  0  0  0 
  8  5  1  0  0  0  0 
  8  6  1  0  0  0  0 
 10  1  1  0  0  0  0 
 11  2  1  0  0  0  0 
 14  4  1  0  0  0  0 
 15  5  1  0  0  0  0 
M  END 
>  <HBA> 
2 
 
>  <HBD> 
0 
 
>  <TPSA> 
26.3 
 
>  <cid> 
13835 
 
>  <dipole> 
1.42 
 
>  <excitation_energy_1> 
4.747 
 
>  <excitation_energy_2> 
5.307 
 
>  <excitation_energy_3> 
6.166 
 
>  <excitation_energy_4> 
6.288 
 
>  <homo_energy> 
-7.268 
 
>  <homo_lumo_gap> 
6.049 
 
>  <logP> 
0.902 
 
>  <lumo_energy> 
-1.219 
 
>  <melting_point> 
-55.32 
 
>  <molecular_refractivity> 
31.29 
 
>  <oscillator_strength_1> 
0.0 
 
>  <oscillator_strength_2> 
0.0058 
 
>  <oscillator_strength_3> 
0.1191 
 
>  <oscillator_strength_4> 
0.4293 
 
>  <open_babel_can_smiles> 
C=CCOC(=O)C=C 
 
>  <mulliken_charges> 
16 
1   -0.330853 
2   -0.302212 
3   -0.06112 
4   -0.132541 
5   -0.09474 
6   0.608123 
7   -0.4954 
8   -0.468834 
9   0.149741 
10   0.142028 
11   0.157768 
12   0.180812 
13   0.159467 
14   0.154993 
15   0.156104 
16   0.176664 
 
>  <lowdin_charges> 
16 
1   -0.32168 
2   -0.263573 
3   -0.157869 
4   -0.18296 
5   -0.127434 
6   0.191792 
7   -0.275712 
8   -0.19079 
9   0.164045 
10   0.157051 
11   0.168924 
12   0.178367 
13   0.167202 
14   0.169522 
15   0.15794 
16   0.165176 
 
$$$$ 
 
