PCCDB-ID:  6944 
public computational chemistry database (PCCDB) project, http://pccdb.org 
 
 17 17  0  0  0  0  0  0  0  0999 V2000 
    0.9590   -0.0638   -0.2363 C   0  0  0  0  0  0  0  0  0  0  0  0 
    4.6115   -1.1441   -0.1357 C   0  0  0  0  0  0  0  0  0  0  0  0 
    5.3094    0.0623   -0.0621 C   0  0  0  0  0  0  0  0  0  0  0  0 
    3.2194   -1.1436   -0.1876 C   0  0  0  0  0  0  0  0  0  0  0  0 
    4.5995    1.2560   -0.0400 C   0  0  0  0  0  0  0  0  0  0  0  0 
    2.4643    0.0397   -0.1801 C   0  0  0  0  0  0  0  0  0  0  0  0 
    3.2031    1.2381   -0.1034 C   0  0  0  0  0  0  0  0  0  0  0  0 
    2.5421    2.5564   -0.0862 N   0  0  0  0  0  0  0  0  0  0  0  0 
    3.2237    3.5351    0.2208 O   0  0  0  0  0  0  0  0  0  0  0  0 
    1.3485    2.6183   -0.3848 O   0  0  0  0  0  0  0  0  0  0  0  0 
    0.6617   -1.1145   -0.1667 H   0  0  0  0  0  0  0  0  0  0  0  0 
    0.5638    0.3524   -1.1673 H   0  0  0  0  0  0  0  0  0  0  0  0 
    0.4795    0.4930    0.5734 H   0  0  0  0  0  0  0  0  0  0  0  0 
    5.1496   -2.0878   -0.1504 H   0  0  0  0  0  0  0  0  0  0  0  0 
    6.3941    0.0754   -0.0210 H   0  0  0  0  0  0  0  0  0  0  0  0 
    2.6875   -2.0899   -0.2358 H   0  0  0  0  0  0  0  0  0  0  0  0 
    5.1015    2.2128    0.0259 H   0  0  0  0  0  0  0  0  0  0  0  0 
  1  6  1  0  0  0  0 
  1 11  1  0  0  0  0 
  1 13  1  0  0  0  0 
  2  3  2  0  0  0  0 
  3  5  1  0  0  0  0 
  3 15  1  0  0  0  0 
  4  6  2  0  0  0  0 
  4  2  1  0  0  0  0 
  5 17  1  0  0  0  0 
  6  7  1  0  0  0  0 
  7  8  1  0  0  0  0 
  7  5  2  0  0  0  0 
  8  9  2  0  0  0  0 
 10  8  2  0  0  0  0 
 12  1  1  0  0  0  0 
 14  2  1  0  0  0  0 
 16  4  1  0  0  0  0 
M  END 
>  <HBA> 
0 
 
>  <HBD> 
0 
 
>  <TPSA> 
45.82 
 
>  <cid> 
6944 
 
>  <dipole> 
4.33 
 
>  <excitation_energy_1> 
3.705 
 
>  <excitation_energy_2> 
4.108 
 
>  <excitation_energy_3> 
4.276 
 
>  <excitation_energy_4> 
4.683 
 
>  <homo_energy> 
-7.279 
 
>  <homo_lumo_gap> 
4.972 
 
>  <logP> 
2.426 
 
>  <lumo_energy> 
-2.308 
 
>  <melting_point> 
46.95 
 
>  <molecular_refractivity> 
40.23 
 
>  <oscillator_strength_1> 
0.0038 
 
>  <oscillator_strength_2> 
0.0291 
 
>  <oscillator_strength_3> 
0.0031 
 
>  <oscillator_strength_4> 
0.1843 
 
>  <open_babel_can_smiles> 
O=N(=O)c1ccccc1C 
 
>  <mulliken_charges> 
17 
1   -0.50179 
2   -0.102394 
3   -0.143317 
4   -0.19744 
5   -0.146121 
6   0.164818 
7   0.211292 
8   0.371233 
9   -0.393413 
10   -0.399662 
11   0.147741 
12   0.188242 
13   0.180943 
14   0.146206 
15   0.148089 
16   0.140674 
17   0.184899 
 
>  <lowdin_charges> 
17 
1   -0.438902 
2   -0.131664 
3   -0.151912 
4   -0.16171 
5   -0.136208 
6   0.026405 
7   -0.00697 
8   0.305511 
9   -0.250937 
10   -0.241699 
11   0.151894 
12   0.177436 
13   0.174694 
14   0.166611 
15   0.165291 
16   0.163964 
17   0.188196 
 
$$$$ 
 
