PCCDB-ID:  45450 
public computational chemistry database (PCCDB) project, http://pccdb.org 
 
 23 23  0  0  1  0  0  0  0  0999 V2000 
   -1.7747   -0.1190    1.0264 C   0  0  0  0  0  0  0  0  0  0  0  0 
   -1.3294    1.0172    0.3478 C   0  0  0  0  0  0  0  0  0  0  0  0 
   -0.8668   -1.1286    1.3515 C   0  0  0  0  0  0  0  0  0  0  0  0 
    0.0160    1.1393   -0.0002 C   0  0  0  0  0  0  0  0  0  0  0  0 
    0.4802   -1.0024    1.0088 C   0  0  0  0  0  0  0  0  0  0  0  0 
    3.1240    1.1427    1.0754 C   0  0  0  0  0  0  0  0  0  0  0  0 
    0.9334    0.1354    0.3323 C   0  0  0  0  0  0  0  0  0  0  0  0 
    2.4027    0.3068   -0.0000 C   0  0  2  0  0  0  0  0  0  0  0  0 
    5.2879    1.8692    1.8210 N   0  0  0  0  0  0  0  0  0  0  0  0 
    4.5598    1.1412    0.7637 N   0  0  0  0  0  0  0  0  0  0  0  0 
    3.0360   -0.9574   -0.1054 O   0  0  0  0  0  0  0  0  0  0  0  0 
   -2.8235   -0.2195    1.2930 H   0  0  0  0  0  0  0  0  0  0  0  0 
   -2.0304    1.8040    0.0813 H   0  0  0  0  0  0  0  0  0  0  0  0 
   -1.2085   -2.0200    1.8717 H   0  0  0  0  0  0  0  0  0  0  0  0 
    0.3559    2.0208   -0.5407 H   0  0  0  0  0  0  0  0  0  0  0  0 
    1.1903   -1.7880    1.2440 H   0  0  0  0  0  0  0  0  0  0  0  0 
    2.9903    0.6415    2.0428 H   0  0  0  0  0  0  0  0  0  0  0  0 
    2.6943    2.1526    1.1560 H   0  0  0  0  0  0  0  0  0  0  0  0 
    2.4798    0.8505   -0.9606 H   0  0  0  0  0  0  0  0  0  0  0  0 
    6.2688    1.6331    1.6489 H   0  0  0  0  0  0  0  0  0  0  0  0 
    5.0695    1.3485    2.6748 H   0  0  0  0  0  0  0  0  0  0  0  0 
    4.6783    1.7423   -0.0550 H   0  0  0  0  0  0  0  0  0  0  0  0 
    3.9793   -0.7696    0.0702 H   0  0  0  0  0  0  0  0  0  0  0  0 
  1 12  1  0  0  0  0 
  1  3  1  0  0  0  0 
  2  1  2  0  0  0  0 
  3 14  1  0  0  0  0 
  4  7  2  0  0  0  0 
  4  2  1  0  0  0  0 
  5 16  1  0  0  0  0 
  5  3  2  0  0  0  0 
  6 18  1  0  0  0  0 
  6 17  1  0  0  0  0 
  7  5  1  0  0  0  0 
  8 19  1  6  0  0  0 
  8  7  1  0  0  0  0 
  8  6  1  0  0  0  0 
  9 21  1  0  0  0  0 
 10  6  1  0  0  0  0 
 10  9  1  0  0  0  0 
 11  8  1  0  0  0  0 
 11 23  1  0  0  0  0 
 13  2  1  0  0  0  0 
 15  4  1  0  0  0  0 
 20  9  1  0  0  0  0 
 22 10  1  0  0  0  0 
M  END 
>  <HBA> 
3 
 
>  <HBD> 
3 
 
>  <TPSA> 
58.28 
 
>  <cid> 
45450 
 
>  <dipole> 
1.88 
 
>  <excitation_energy_1> 
5.029 
 
>  <excitation_energy_2> 
5.225 
 
>  <excitation_energy_3> 
5.317 
 
>  <excitation_energy_4> 
5.395 
 
>  <homo_energy> 
-5.84 
 
>  <homo_lumo_gap> 
5.927 
 
>  <logP> 
1.274 
 
>  <lumo_energy> 
0.087 
 
>  <melting_point> 
106.53 
 
>  <molecular_refractivity> 
42.89 
 
>  <oscillator_strength_1> 
0.0032 
 
>  <oscillator_strength_2> 
0.0079 
 
>  <oscillator_strength_3> 
0.0009 
 
>  <oscillator_strength_4> 
0.0037 
 
>  <open_babel_can_smiles> 
NNC[C@H](c1ccccc1)O 
 
>  <mulliken_charges> 
23 
1   -0.12718 
2   -0.132537 
3   -0.132943 
4   -0.178758 
5   -0.168666 
6   -0.146068 
7   0.13538 
8   0.078958 
9   -0.583502 
10   -0.496641 
11   -0.647421 
12   0.126608 
13   0.127226 
14   0.127943 
15   0.119151 
16   0.149161 
17   0.149875 
18   0.144411 
19   0.114665 
20   0.310407 
21   0.308549 
22   0.318073 
23   0.40331 
 
>  <lowdin_charges> 
23 
1   -0.158278 
2   -0.15809 
3   -0.15525 
4   -0.168294 
5   -0.158834 
6   -0.226892 
7   -0.011771 
8   -0.001196 
9   -0.487317 
10   -0.323463 
11   -0.465272 
12   0.154849 
13   0.157435 
14   0.15693 
15   0.152767 
16   0.169873 
17   0.14739 
18   0.140109 
19   0.126185 
20   0.255962 
21   0.256483 
22   0.259142 
23   0.33753 
 
$$$$ 
 
