PCCDB-ID:  35368 
public computational chemistry database (PCCDB) project, http://pccdb.org 
 
 24 24  0  0  1  0  0  0  0  0999 V2000 
    1.3363    0.1665   -0.7708 C   0  0  0  0  0  0  0  0  0  0  0  0 
    4.4110    1.3451    3.1536 C   0  0  0  0  0  0  0  0  0  0  0  0 
    4.2455    1.8794    0.2374 C   0  0  0  0  0  0  0  0  0  0  0  0 
    2.4522   -1.2130    1.1045 C   0  0  0  0  0  0  0  0  0  0  0  0 
    3.4844   -0.8620    2.1818 C   0  0  0  0  0  0  0  0  0  0  0  0 
    2.5893   -0.0684    0.0761 C   0  0  2  0  0  0  0  0  0  0  0  0 
    3.3012    0.6580    2.3544 C   0  0  2  0  0  0  0  0  0  0  0  0 
    3.0470    1.1850    0.8986 C   0  0  1  0  0  0  0  0  0  0  0  0 
    1.0607   -0.7321   -1.3366 H   0  0  0  0  0  0  0  0  0  0  0  0 
    1.4856    0.9788   -1.4928 H   0  0  0  0  0  0  0  0  0  0  0  0 
    0.4808    0.4366   -0.1382 H   0  0  0  0  0  0  0  0  0  0  0  0 
    4.4697    0.9265    4.1656 H   0  0  0  0  0  0  0  0  0  0  0  0 
    4.2327    2.4227    3.2534 H   0  0  0  0  0  0  0  0  0  0  0  0 
    5.3931    1.2116    2.6858 H   0  0  0  0  0  0  0  0  0  0  0  0 
    4.0055    2.1472   -0.7992 H   0  0  0  0  0  0  0  0  0  0  0  0 
    5.1272    1.2268    0.2090 H   0  0  0  0  0  0  0  0  0  0  0  0 
    4.5282    2.8009    0.7585 H   0  0  0  0  0  0  0  0  0  0  0  0 
    1.4439   -1.2069    1.5436 H   0  0  0  0  0  0  0  0  0  0  0  0 
    2.6013   -2.2015    0.6545 H   0  0  0  0  0  0  0  0  0  0  0  0 
    4.4998   -1.0821    1.8203 H   0  0  0  0  0  0  0  0  0  0  0  0 
    3.3472   -1.4146    3.1189 H   0  0  0  0  0  0  0  0  0  0  0  0 
    3.4120   -0.3344   -0.6041 H   0  0  0  0  0  0  0  0  0  0  0  0 
    2.3618    0.7988    2.9093 H   0  0  0  0  0  0  0  0  0  0  0  0 
    2.2252    1.9136    0.9313 H   0  0  0  0  0  0  0  0  0  0  0  0 
  1 11  1  0  0  0  0 
  1  6  1  0  0  0  0 
  2 13  1  0  0  0  0 
  2 12  1  0  0  0  0 
  3 17  1  0  0  0  0 
  3  8  1  0  0  0  0 
  4 18  1  0  0  0  0 
  4  5  1  0  0  0  0 
  5  7  1  0  0  0  0 
  5 21  1  0  0  0  0 
  6 22  1  6  0  0  0 
  6  8  1  0  0  0  0 
  6  4  1  0  0  0  0 
  7 23  1  1  0  0  0 
  7  2  1  0  0  0  0 
  8 24  1  1  0  0  0 
  8  7  1  0  0  0  0 
  9  1  1  0  0  0  0 
 10  1  1  0  0  0  0 
 14  2  1  0  0  0  0 
 15  3  1  0  0  0  0 
 16  3  1  0  0  0  0 
 19  4  1  0  0  0  0 
 20  5  1  0  0  0  0 
M  END 
>  <HBA> 
0 
 
>  <HBD> 
0 
 
>  <TPSA> 
0.0 
 
>  <cid> 
35368 
 
>  <dipole> 
0.04 
 
>  <excitation_energy_1> 
7.475 
 
>  <excitation_energy_2> 
7.593 
 
>  <excitation_energy_3> 
7.707 
 
>  <excitation_energy_4> 
7.785 
 
>  <homo_energy> 
-7.946 
 
>  <homo_lumo_gap> 
10.191 
 
>  <logP> 
2.688 
 
>  <lumo_energy> 
2.245 
 
>  <melting_point> 
-5.31 
 
>  <molecular_refractivity> 
38.46 
 
>  <oscillator_strength_1> 
0.0015 
 
>  <oscillator_strength_2> 
0.0145 
 
>  <oscillator_strength_3> 
0.0212 
 
>  <oscillator_strength_4> 
0.0041 
 
>  <open_babel_can_smiles> 
C[C@@H]1[C@H](C)CC[C@H]1C 
 
>  <mulliken_charges> 
24 
1   -0.453933 
2   -0.451509 
3   -0.457798 
4   -0.270961 
5   -0.267721 
6   -0.07317 
7   -0.077421 
8   -0.075052 
9   0.139547 
10   0.140225 
11   0.138326 
12   0.139059 
13   0.139957 
14   0.141811 
15   0.140479 
16   0.139978 
17   0.141444 
18   0.126029 
19   0.128828 
20   0.126024 
21   0.128581 
22   0.121294 
23   0.118549 
24   0.117433 
 
>  <lowdin_charges> 
24 
1   -0.445165 
2   -0.4419 
3   -0.44533 
4   -0.280689 
5   -0.28166 
6   -0.127772 
7   -0.129322 
8   -0.134025 
9   0.147836 
10   0.147372 
11   0.14474 
12   0.148052 
13   0.145608 
14   0.146428 
15   0.146928 
16   0.144022 
17   0.147631 
18   0.136628 
19   0.142288 
20   0.135979 
21   0.142263 
22   0.137371 
23   0.135658 
24   0.137058 
 
$$$$ 
 
