PCCDB-ID:  32241 
public computational chemistry database (PCCDB) project, http://pccdb.org 
 
 36 37  0  0  0  0  0  0  0  0999 V2000 
    0.9360    0.4828   -0.0360 C   0  0  0  0  0  0  0  0  0  0  0  0 
    2.9858    0.4314    1.4618 C   0  0  0  0  0  0  0  0  0  0  0  0 
    3.3089   -7.7239   -3.4781 C   0  0  0  0  0  0  0  0  0  0  0  0 
    5.2771   -7.8153   -1.8761 C   0  0  0  0  0  0  0  0  0  0  0  0 
    3.6765   -1.2790   -1.6332 C   0  0  0  0  0  0  0  0  0  0  0  0 
    2.5411   -6.0328   -0.3586 C   0  0  0  0  0  0  0  0  0  0  0  0 
    4.0294   -2.5066   -2.1452 C   0  0  0  0  0  0  0  0  0  0  0  0 
    2.1891   -4.8052    0.1541 C   0  0  0  0  0  0  0  0  0  0  0  0 
    2.3345   -2.3206    0.0705 C   0  0  0  0  0  0  0  0  0  0  0  0 
    3.8837   -4.9912   -2.0618 C   0  0  0  0  0  0  0  0  0  0  0  0 
    2.4515    0.2175    0.0327 C   0  0  0  0  0  0  0  0  0  0  0  0 
    3.7703   -7.5293   -2.0217 C   0  0  0  0  0  0  0  0  0  0  0  0 
    2.8162   -1.1608   -0.5070 C   0  0  0  0  0  0  0  0  0  0  0  0 
    3.4014   -6.1509   -1.4849 C   0  0  0  0  0  0  0  0  0  0  0  0 
    2.6756   -3.6050   -0.4281 C   0  0  0  0  0  0  0  0  0  0  0  0 
    3.5432   -3.7068   -1.5628 C   0  0  0  0  0  0  0  0  0  0  0  0 
    0.7070    1.5030    0.2945 H   0  0  0  0  0  0  0  0  0  0  0  0 
    0.3821   -0.2083    0.6105 H   0  0  0  0  0  0  0  0  0  0  0  0 
    0.5577    0.3600   -1.0566 H   0  0  0  0  0  0  0  0  0  0  0  0 
    2.7657    1.4479    1.8098 H   0  0  0  0  0  0  0  0  0  0  0  0 
    4.0700    0.2817    1.5065 H   0  0  0  0  0  0  0  0  0  0  0  0 
    2.5234   -0.2702    2.1663 H   0  0  0  0  0  0  0  0  0  0  0  0 
    3.5283   -8.7425   -3.8204 H   0  0  0  0  0  0  0  0  0  0  0  0 
    3.8209   -7.0285   -4.1537 H   0  0  0  0  0  0  0  0  0  0  0  0 
    2.2315   -7.5536   -3.5791 H   0  0  0  0  0  0  0  0  0  0  0  0 
    5.5134   -8.8307   -2.2168 H   0  0  0  0  0  0  0  0  0  0  0  0 
    5.5998   -7.7201   -0.8337 H   0  0  0  0  0  0  0  0  0  0  0  0 
    5.8725   -7.1153   -2.4743 H   0  0  0  0  0  0  0  0  0  0  0  0 
    4.0621   -0.3728   -2.0955 H   0  0  0  0  0  0  0  0  0  0  0  0 
    2.1553   -6.9390    0.1035 H   0  0  0  0  0  0  0  0  0  0  0  0 
    4.6889   -2.5706   -3.0080 H   0  0  0  0  0  0  0  0  0  0  0  0 
    1.5296   -4.7413    1.0169 H   0  0  0  0  0  0  0  0  0  0  0  0 
    1.6737   -2.2679    0.9337 H   0  0  0  0  0  0  0  0  0  0  0  0 
    4.5456   -5.0439   -2.9241 H   0  0  0  0  0  0  0  0  0  0  0  0 
    2.9430    0.9569   -0.6146 H   0  0  0  0  0  0  0  0  0  0  0  0 
    3.2361   -8.2674   -1.4077 H   0  0  0  0  0  0  0  0  0  0  0  0 
  1 11  1  0  0  0  0 
  1 17  1  0  0  0  0 
  1 18  1  0  0  0  0 
  2 21  1  0  0  0  0 
  2 20  1  0  0  0  0 
  2 22  1  0  0  0  0 
  3 12  1  0  0  0  0 
  4 27  1  0  0  0  0 
  5 13  1  0  0  0  0 
  6 30  1  0  0  0  0 
  6  8  1  0  0  0  0 
  7  5  2  0  0  0  0 
  7 16  1  0  0  0  0 
  8 32  1  0  0  0  0 
  9 33  1  0  0  0  0 
 10 16  2  0  0  0  0 
 10 14  1  0  0  0  0 
 11  2  1  0  0  0  0 
 12  4  1  0  0  0  0 
 12 14  1  0  0  0  0 
 12 36  1  0  0  0  0 
 13 11  1  0  0  0  0 
 13  9  2  0  0  0  0 
 14  6  2  0  0  0  0 
 15  9  1  0  0  0  0 
 15  8  2  0  0  0  0 
 16 15  1  0  0  0  0 
 19  1  1  0  0  0  0 
 23  3  1  0  0  0  0 
 24  3  1  0  0  0  0 
 25  3  1  0  0  0  0 
 26  4  1  0  0  0  0 
 28  4  1  0  0  0  0 
 29  5  1  0  0  0  0 
 31  7  1  0  0  0  0 
 34 10  1  0  0  0  0 
 35 11  1  0  0  0  0 
M  END 
>  <HBA> 
0 
 
>  <HBD> 
0 
 
>  <TPSA> 
0.0 
 
>  <cid> 
32241 
 
>  <dipole> 
0.0 
 
>  <excitation_energy_1> 
4.187 
 
>  <excitation_energy_2> 
4.39 
 
>  <excitation_energy_3> 
5.197 
 
>  <excitation_energy_4> 
5.366 
 
>  <homo_energy> 
-5.551 
 
>  <homo_lumo_gap> 
4.656 
 
>  <logP> 
5.087 
 
>  <lumo_energy> 
-0.895 
 
>  <melting_point> 
54.67 
 
>  <molecular_refractivity> 
73.11 
 
>  <oscillator_strength_1> 
0.0359 
 
>  <oscillator_strength_2> 
0.0067 
 
>  <oscillator_strength_3> 
0.0002 
 
>  <oscillator_strength_4> 
0.0 
 
>  <open_babel_can_smiles> 
CC(c1ccc2c(c1)ccc(c2)C(C)C)C 
 
>  <mulliken_charges> 
36 
1   -0.437471 
2   -0.436606 
3   -0.437568 
4   -0.436605 
5   -0.200146 
6   -0.200139 
7   -0.190004 
8   -0.189963 
9   -0.267657 
10   -0.267622 
11   -0.158724 
12   -0.158502 
13   0.184684 
14   0.184593 
15   0.143285 
16   0.143301 
17   0.140032 
18   0.143502 
19   0.149654 
20   0.139875 
21   0.14937 
22   0.143628 
23   0.13995 
24   0.143534 
25   0.149643 
26   0.139908 
27   0.149269 
28   0.143704 
29   0.121654 
30   0.121644 
31   0.125668 
32   0.125667 
33   0.121958 
34   0.121973 
35   0.127266 
36   0.127245 
 
>  <lowdin_charges> 
36 
1   -0.441096 
2   -0.439655 
3   -0.440052 
4   -0.440657 
5   -0.170031 
6   -0.170027 
7   -0.15756 
8   -0.157563 
9   -0.167122 
10   -0.167126 
11   -0.119149 
12   -0.119155 
13   -0.003588 
14   -0.003577 
15   -0.001803 
16   -0.001808 
17   0.146956 
18   0.148696 
19   0.152056 
20   0.146777 
21   0.150853 
22   0.148754 
23   0.146928 
24   0.14862 
25   0.1511 
26   0.146807 
27   0.151572 
28   0.148974 
29   0.154784 
30   0.154784 
31   0.155914 
32   0.155914 
33   0.152828 
34   0.152827 
35   0.142393 
36   0.142431 
 
$$$$ 
 
