PCCDB-ID:  66193 
public computational chemistry database (PCCDB) project, http://pccdb.org 
 
 26 25  0  0  1  0  0  0  0  0999 V2000 
    1.1504    0.0953   -0.1029 C   0  0  0  0  0  0  0  0  0  0  0  0 
    2.7491    2.1783   -1.9369 C   0  0  0  0  0  0  0  0  0  0  0  0 
    3.8638    1.9613    2.9170 C   0  0  0  0  0  0  0  0  0  0  0  0 
    6.7466    0.3298   -2.4169 C   0  0  0  0  0  0  0  0  0  0  0  0 
    2.6622    0.2882   -0.1761 C   0  0  1  0  0  0  0  0  0  0  0  0 
    3.1590    0.7637   -1.5409 C   0  0  2  0  0  0  0  0  0  0  0  0 
    3.4013    0.8220    2.0386 C   0  0  0  0  0  0  0  0  0  0  0  0 
    5.2542    0.4016   -2.6433 C   0  0  0  0  0  0  0  0  0  0  0  0 
    3.3365   -0.3401    2.3745 O   0  0  0  0  0  0  0  0  0  0  0  0 
    4.6970    0.2296   -3.7057 O   0  0  0  0  0  0  0  0  0  0  0  0 
    3.0741    1.2755    0.8043 O   0  0  0  0  0  0  0  0  0  0  0  0 
    4.6094    0.6794   -1.4844 O   0  0  0  0  0  0  0  0  0  0  0  0 
    0.8149   -0.6108   -0.8707 H   0  0  0  0  0  0  0  0  0  0  0  0 
    0.6195    1.0419   -0.2447 H   0  0  0  0  0  0  0  0  0  0  0  0 
    0.8808   -0.3116    0.8755 H   0  0  0  0  0  0  0  0  0  0  0  0 
    1.6589    2.2648   -1.9932 H   0  0  0  0  0  0  0  0  0  0  0  0 
    3.1560    2.4135   -2.9238 H   0  0  0  0  0  0  0  0  0  0  0  0 
    3.1207    2.9046   -1.2093 H   0  0  0  0  0  0  0  0  0  0  0  0 
    3.9910    1.6035    3.9392 H   0  0  0  0  0  0  0  0  0  0  0  0 
    3.1423    2.7834    2.8903 H   0  0  0  0  0  0  0  0  0  0  0  0 
    4.8176    2.3502    2.5437 H   0  0  0  0  0  0  0  0  0  0  0  0 
    7.2509    0.1657   -3.3696 H   0  0  0  0  0  0  0  0  0  0  0  0 
    6.9805   -0.4891   -1.7282 H   0  0  0  0  0  0  0  0  0  0  0  0 
    7.1049    1.2557   -1.9561 H   0  0  0  0  0  0  0  0  0  0  0  0 
    3.1650   -0.6510    0.0678 H   0  0  0  0  0  0  0  0  0  0  0  0 
    2.8145    0.0520   -2.2976 H   0  0  0  0  0  0  0  0  0  0  0  0 
  1 15  1  0  0  0  0 
  2  6  1  0  0  0  0 
  2 18  1  0  0  0  0 
  3 19  1  0  0  0  0 
  4 24  1  0  0  0  0 
  4 23  1  0  0  0  0 
  5  1  1  0  0  0  0 
  5 25  1  1  0  0  0 
  5 11  1  0  0  0  0 
  6 26  1  6  0  0  0 
  6 12  1  0  0  0  0 
  6  5  1  0  0  0  0 
  7  9  2  0  0  0  0 
  7  3  1  0  0  0  0 
  8  4  1  0  0  0  0 
  8 12  1  0  0  0  0 
 10  8  2  0  0  0  0 
 11  7  1  0  0  0  0 
 13  1  1  0  0  0  0 
 14  1  1  0  0  0  0 
 16  2  1  0  0  0  0 
 17  2  1  0  0  0  0 
 20  3  1  0  0  0  0 
 21  3  1  0  0  0  0 
 22  4  1  0  0  0  0 
M  END 
>  <HBA> 
4 
 
>  <HBD> 
0 
 
>  <TPSA> 
52.6 
 
>  <cid> 
66193 
 
>  <dipole> 
2.02 
 
>  <excitation_energy_1> 
5.818 
 
>  <excitation_energy_2> 
5.822 
 
>  <excitation_energy_3> 
6.988 
 
>  <excitation_energy_4> 
7.027 
 
>  <homo_energy> 
-7.38 
 
>  <homo_lumo_gap> 
7.674 
 
>  <logP> 
0.89 
 
>  <lumo_energy> 
0.294 
 
>  <melting_point> 
-3.01 
 
>  <molecular_refractivity> 
43.14 
 
>  <oscillator_strength_1> 
0.0013 
 
>  <oscillator_strength_2> 
0.0008 
 
>  <oscillator_strength_3> 
0.032 
 
>  <oscillator_strength_4> 
0.031 
 
>  <open_babel_can_smiles> 
C[C@H]([C@@H](OC(=O)C)C)OC(=O)C 
 
>  <mulliken_charges> 
26 
1   -0.473168 
2   -0.471049 
3   -0.525368 
4   -0.524129 
5   0.111123 
6   0.121393 
7   0.610861 
8   0.604854 
9   -0.469032 
10   -0.469727 
11   -0.465168 
12   -0.468126 
13   0.154445 
14   0.158399 
15   0.177303 
16   0.150885 
17   0.172878 
18   0.169305 
19   0.182791 
20   0.179192 
21   0.184921 
22   0.182744 
23   0.184457 
24   0.180775 
25   0.173742 
26   0.165697 
 
>  <lowdin_charges> 
26 
1   -0.455168 
2   -0.454772 
3   -0.463413 
4   -0.465567 
5   -0.00242 
6   -0.000228 
7   0.203107 
8   0.201795 
9   -0.265481 
10   -0.267846 
11   -0.196371 
12   -0.198235 
13   0.160948 
14   0.156758 
15   0.169607 
16   0.156051 
17   0.166922 
18   0.16356 
19   0.17499 
20   0.176354 
21   0.179844 
22   0.175803 
23   0.180061 
24   0.177352 
25   0.164441 
26   0.161908 
 
$$$$ 
 
