PCCDB-ID:  11162 
public computational chemistry database (PCCDB) project, http://pccdb.org 
 
 20 20  0  0  1  0  0  0  0  0999 V2000 
    0.7200    1.2616   -0.2403 C   0  0  0  0  0  0  0  0  0  0  0  0 
    1.4547   -0.0025    0.2345 C   0  0  0  0  0  0  0  0  0  0  0  0 
   -1.4681   -0.0070   -0.2372 C   0  0  0  0  0  0  0  0  0  0  0  0 
   -0.7334   -1.2712    0.2376 C   0  0  0  0  0  0  0  0  0  0  0  0 
   -0.7478    1.2727    0.2103 C   0  0  2  0  0  0  0  0  0  0  0  0 
    0.7344   -1.2822   -0.2130 C   0  0  2  0  0  0  0  0  0  0  0  0 
   -1.4300    2.4488   -0.2199 O   0  0  0  0  0  0  0  0  0  0  0  0 
    1.4166   -2.4583    0.2172 O   0  0  0  0  0  0  0  0  0  0  0  0 
    0.7470    1.3066   -1.3411 H   0  0  0  0  0  0  0  0  0  0  0  0 
    1.2200    2.1665    0.1235 H   0  0  0  0  0  0  0  0  0  0  0  0 
    1.5114   -0.0004    1.3351 H   0  0  0  0  0  0  0  0  0  0  0  0 
    2.4870   -0.0177   -0.1330 H   0  0  0  0  0  0  0  0  0  0  0  0 
   -2.5004    0.0081    0.1303 H   0  0  0  0  0  0  0  0  0  0  0  0 
   -1.5248   -0.0091   -1.3378 H   0  0  0  0  0  0  0  0  0  0  0  0 
   -1.2333   -2.1760   -0.1262 H   0  0  0  0  0  0  0  0  0  0  0  0 
   -0.7604   -1.3161    1.3384 H   0  0  0  0  0  0  0  0  0  0  0  0 
   -0.7791    1.3285    1.3066 H   0  0  0  0  0  0  0  0  0  0  0  0 
    0.7657   -1.3381   -1.3093 H   0  0  0  0  0  0  0  0  0  0  0  0 
   -1.4284    2.4433   -1.1910 H   0  0  0  0  0  0  0  0  0  0  0  0 
    1.4149   -2.4529    1.1883 H   0  0  0  0  0  0  0  0  0  0  0  0 
  1 10  1  0  0  0  0 
  1  5  1  0  0  0  0 
  1  2  1  0  0  0  0 
  2 11  1  0  0  0  0 
  3 13  1  0  0  0  0 
  3  5  1  0  0  0  0 
  3  4  1  0  0  0  0 
  4 16  1  0  0  0  0 
  5 17  1  1  0  0  0 
  6 18  1  6  0  0  0 
  6  8  1  0  0  0  0 
  6  2  1  0  0  0  0 
  6  4  1  0  0  0  0 
  7  5  1  0  0  0  0 
  8 20  1  0  0  0  0 
  9  1  1  0  0  0  0 
 12  2  1  0  0  0  0 
 14  3  1  0  0  0  0 
 15  4  1  0  0  0  0 
 19  7  1  0  0  0  0 
M  END 
>  <HBA> 
2 
 
>  <HBD> 
2 
 
>  <TPSA> 
40.46 
 
>  <cid> 
11162 
 
>  <dipole> 
0.0 
 
>  <excitation_energy_1> 
6.409 
 
>  <excitation_energy_2> 
6.44 
 
>  <excitation_energy_3> 
6.794 
 
>  <excitation_energy_4> 
6.841 
 
>  <homo_energy> 
-7.059 
 
>  <homo_lumo_gap> 
8.792 
 
>  <logP> 
0.282 
 
>  <lumo_energy> 
1.733 
 
>  <melting_point> 
33.25 
 
>  <molecular_refractivity> 
31.17 
 
>  <oscillator_strength_1> 
0.0236 
 
>  <oscillator_strength_2> 
0.0 
 
>  <oscillator_strength_3> 
0.0 
 
>  <oscillator_strength_4> 
0.0068 
 
>  <open_babel_can_smiles> 
O[C@@H]1CC[C@H](CC1)O 
 
>  <mulliken_charges> 
20 
1   -0.283504 
2   -0.28392 
3   -0.283896 
4   -0.283611 
5   0.145962 
6   0.145985 
7   -0.62663 
8   -0.626628 
9   0.11856 
10   0.149228 
11   0.118691 
12   0.149284 
13   0.149289 
14   0.118694 
15   0.149238 
16   0.118569 
17   0.130973 
18   0.130973 
19   0.381373 
20   0.381372 
 
>  <lowdin_charges> 
20 
1   -0.292797 
2   -0.291138 
3   -0.291136 
4   -0.292809 
5   -0.00413 
6   -0.004128 
7   -0.456638 
8   -0.456637 
9   0.132525 
10   0.154411 
11   0.132569 
12   0.152843 
13   0.152844 
14   0.132569 
15   0.154413 
16   0.132526 
17   0.137391 
18   0.137391 
19   0.334966 
20   0.334966 
 
$$$$ 
 
