PCCDB-ID:  10362 
public computational chemistry database (PCCDB) project, http://pccdb.org 
 
 29 29  0  0  1  0  0  0  0  0999 V2000 
    2.9853    0.9587   -1.1609 C   0  0  0  0  0  0  0  0  0  0  0  0 
    2.8219   -1.3854   -0.2815 C   0  0  0  0  0  0  0  0  0  0  0  0 
    2.7799    2.1988    5.5343 C   0  0  0  0  0  0  0  0  0  0  0  0 
    2.7413    0.2136    3.9093 C   0  0  0  0  0  0  0  0  0  0  0  0 
    2.3155   -0.2925    2.5242 C   0  0  0  0  0  0  0  0  0  0  0  0 
    2.4854    2.0547    1.6201 C   0  0  0  0  0  0  0  0  0  0  0  0 
    2.4287    0.0805   -0.0266 C   0  0  0  0  0  0  0  0  0  0  0  0 
    2.3274    1.6807    4.1699 C   0  0  2  0  0  0  0  0  0  0  0  0 
    2.8737    0.5731    1.3767 C   0  0  2  0  0  0  0  0  0  0  0  0 
    2.8426    2.5417    3.0189 C   0  0  0  0  0  0  0  0  0  0  0  0 
    3.5073    3.5464    3.1969 O   0  0  0  0  0  0  0  0  0  0  0  0 
    2.6885    0.5567   -2.1364 H   0  0  0  0  0  0  0  0  0  0  0  0 
    4.0827    0.9846   -1.1345 H   0  0  0  0  0  0  0  0  0  0  0  0 
    2.6249    1.9904   -1.1103 H   0  0  0  0  0  0  0  0  0  0  0  0 
    2.5304   -1.6891   -1.2935 H   0  0  0  0  0  0  0  0  0  0  0  0 
    2.3426   -2.0781    0.4167 H   0  0  0  0  0  0  0  0  0  0  0  0 
    3.9085   -1.5204   -0.1977 H   0  0  0  0  0  0  0  0  0  0  0  0 
    2.3621    1.5823    6.3383 H   0  0  0  0  0  0  0  0  0  0  0  0 
    2.4619    3.2338    5.6883 H   0  0  0  0  0  0  0  0  0  0  0  0 
    3.8718    2.1781    5.6161 H   0  0  0  0  0  0  0  0  0  0  0  0 
    3.8339    0.1329    4.0077 H   0  0  0  0  0  0  0  0  0  0  0  0 
    2.3128   -0.4253    4.6918 H   0  0  0  0  0  0  0  0  0  0  0  0 
    1.2162   -0.3089    2.4611 H   0  0  0  0  0  0  0  0  0  0  0  0 
    2.6489   -1.3295    2.4122 H   0  0  0  0  0  0  0  0  0  0  0  0 
    1.3954    2.1551    1.4927 H   0  0  0  0  0  0  0  0  0  0  0  0 
    2.9673    2.7295    0.9094 H   0  0  0  0  0  0  0  0  0  0  0  0 
    1.3290    0.1446   -0.0601 H   0  0  0  0  0  0  0  0  0  0  0  0 
    1.2264    1.7206    4.1119 H   0  0  0  0  0  0  0  0  0  0  0  0 
    3.9739    0.5089    1.4139 H   0  0  0  0  0  0  0  0  0  0  0  0 
  1 13  1  0  0  0  0 
  1 14  1  0  0  0  0 
  1  7  1  0  0  0  0 
  2 17  1  0  0  0  0 
  2  7  1  0  0  0  0 
  2 16  1  0  0  0  0 
  3 20  1  0  0  0  0 
  3 19  1  0  0  0  0 
  3 18  1  0  0  0  0 
  4 21  1  0  0  0  0 
  4  8  1  0  0  0  0 
  4 22  1  0  0  0  0 
  5  4  1  0  0  0  0 
  6 10  1  0  0  0  0 
  7  9  1  0  0  0  0 
  8 28  1  6  0  0  0 
  8  3  1  0  0  0  0 
  9 29  1  1  0  0  0 
  9  6  1  0  0  0  0 
  9  5  1  0  0  0  0 
 10 11  2  0  0  0  0 
 10  8  1  0  0  0  0 
 12  1  1  0  0  0  0 
 15  2  1  0  0  0  0 
 23  5  1  0  0  0  0 
 24  5  1  0  0  0  0 
 25  6  1  0  0  0  0 
 26  6  1  0  0  0  0 
 27  7  1  0  0  0  0 
M  END 
>  <HBA> 
1 
 
>  <HBD> 
0 
 
>  <TPSA> 
17.07 
 
>  <cid> 
10362 
 
>  <dipole> 
3.0 
 
>  <excitation_energy_1> 
4.225 
 
>  <excitation_energy_2> 
6.019 
 
>  <excitation_energy_3> 
6.286 
 
>  <excitation_energy_4> 
6.357 
 
>  <homo_energy> 
-6.343 
 
>  <homo_lumo_gap> 
6.071 
 
>  <logP> 
2.648 
 
>  <lumo_energy> 
-0.272 
 
>  <melting_point> 
14.75 
 
>  <molecular_refractivity> 
48.27 
 
>  <oscillator_strength_1> 
0.0001 
 
>  <oscillator_strength_2> 
0.0015 
 
>  <oscillator_strength_3> 
0.0009 
 
>  <oscillator_strength_4> 
0.0081 
 
>  <open_babel_can_smiles> 
CC([C@@H]1CC[C@H](C(=O)C1)C)C 
 
>  <mulliken_charges> 
29 
1   -0.453168 
2   -0.453695 
3   -0.438017 
4   -0.270996 
5   -0.277335 
6   -0.356628 
7   -0.063876 
8   -0.163863 
9   -0.076633 
10   0.447642 
11   -0.452004 
12   0.142227 
13   0.142754 
14   0.149999 
15   0.143136 
16   0.146905 
17   0.141079 
18   0.13485 
19   0.159105 
20   0.153853 
21   0.139737 
22   0.140321 
23   0.12768 
24   0.143127 
25   0.145858 
26   0.165951 
27   0.117809 
28   0.140037 
29   0.124143 
 
>  <lowdin_charges> 
29 
1   -0.44357 
2   -0.446298 
3   -0.437975 
4   -0.272857 
5   -0.278422 
6   -0.307589 
7   -0.118283 
8   -0.155631 
9   -0.123232 
10   0.155173 
11   -0.236117 
12   0.149768 
13   0.145759 
14   0.149954 
15   0.149875 
16   0.150686 
17   0.145116 
18   0.148251 
19   0.159463 
20   0.153896 
21   0.141573 
22   0.149809 
23   0.135989 
24   0.149501 
25   0.153943 
26   0.165712 
27   0.131612 
28   0.148824 
29   0.13507 
 
$$$$ 
 
