PCCDB-ID:  10815 
public computational chemistry database (PCCDB) project, http://pccdb.org 
 
 21 21  0  0  0  0  0  0  0  0999 V2000 
    3.5414   -1.2295    0.0428 C   0  0  0  0  0  0  0  0  0  0  0  0 
    1.8486    0.2445   -3.4986 C   0  0  0  0  0  0  0  0  0  0  0  0 
    1.2946    0.7665   -4.6670 C   0  0  0  0  0  0  0  0  0  0  0  0 
    2.4527    2.4943   -2.8190 C   0  0  0  0  0  0  0  0  0  0  0  0 
    2.4320    1.1137   -2.5704 C   0  0  0  0  0  0  0  0  0  0  0  0 
    1.8981    3.0307   -3.9801 C   0  0  0  0  0  0  0  0  0  0  0  0 
    1.3176    2.1375   -4.9094 C   0  0  0  0  0  0  0  0  0  0  0  0 
    3.0484    0.6366   -1.3069 C   0  0  0  0  0  0  0  0  0  0  0  0 
    1.8459    4.4020   -4.2284 N   0  0  0  0  0  0  0  0  0  0  0  0 
    0.8020    2.7124   -6.0436 O   0  0  0  0  0  0  0  0  0  0  0  0 
    3.5785    1.3531   -0.4780 O   0  0  0  0  0  0  0  0  0  0  0  0 
    2.9620   -0.7098   -1.1610 O   0  0  0  0  0  0  0  0  0  0  0  0 
    3.3868   -2.3085    0.0001 H   0  0  0  0  0  0  0  0  0  0  0  0 
    3.0494   -0.8059    0.9227 H   0  0  0  0  0  0  0  0  0  0  0  0 
    4.6087   -0.9964    0.0902 H   0  0  0  0  0  0  0  0  0  0  0  0 
    1.8302   -0.8221   -3.3116 H   0  0  0  0  0  0  0  0  0  0  0  0 
    0.8431    0.1027   -5.4025 H   0  0  0  0  0  0  0  0  0  0  0  0 
    2.9075    3.1468   -2.0797 H   0  0  0  0  0  0  0  0  0  0  0  0 
    2.5724    4.9425   -3.7766 H   0  0  0  0  0  0  0  0  0  0  0  0 
    1.7345    4.6427   -5.2052 H   0  0  0  0  0  0  0  0  0  0  0  0 
    0.4462    2.0173   -6.6181 H   0  0  0  0  0  0  0  0  0  0  0  0 
  1 15  1  0  0  0  0 
  1 14  1  0  0  0  0 
  2 16  1  0  0  0  0 
  2  5  2  0  0  0  0 
  3  2  1  0  0  0  0 
  4  5  1  0  0  0  0 
  4 18  1  0  0  0  0 
  5  8  1  0  0  0  0 
  6  4  2  0  0  0  0 
  7  3  2  0  0  0  0 
  7  6  1  0  0  0  0 
  8 12  1  0  0  0  0 
  8 11  2  0  0  0  0 
  9  6  1  0  0  0  0 
  9 19  1  0  0  0  0 
 10  7  1  0  0  0  0 
 12  1  1  0  0  0  0 
 13  1  1  0  0  0  0 
 17  3  1  0  0  0  0 
 20  9  1  0  0  0  0 
 21 10  1  0  0  0  0 
M  END 
>  <HBA> 
4 
 
>  <HBD> 
2 
 
>  <TPSA> 
72.55 
 
>  <cid> 
10815 
 
>  <dipole> 
3.06 
 
>  <excitation_energy_1> 
4.079 
 
>  <excitation_energy_2> 
4.594 
 
>  <excitation_energy_3> 
4.871 
 
>  <excitation_energy_4> 
5.019 
 
>  <homo_energy> 
-5.407 
 
>  <homo_lumo_gap> 
4.65 
 
>  <logP> 
1.342 
 
>  <lumo_energy> 
-0.756 
 
>  <melting_point> 
120.4 
 
>  <molecular_refractivity> 
44.15 
 
>  <oscillator_strength_1> 
0.0814 
 
>  <oscillator_strength_2> 
0.003 
 
>  <oscillator_strength_3> 
0.0556 
 
>  <oscillator_strength_4> 
0.0002 
 
>  <open_babel_can_smiles> 
COC(=O)c1ccc(c(c1)N)O 
 
>  <mulliken_charges> 
21 
1   -0.21318 
2   -0.177805 
3   -0.201429 
4   -0.224224 
5   0.049901 
6   0.286294 
7   0.325175 
8   0.586938 
9   -0.793539 
10   -0.659556 
11   -0.499951 
12   -0.471656 
13   0.159602 
14   0.168924 
15   0.168076 
16   0.149688 
17   0.120359 
18   0.151617 
19   0.322858 
20   0.338042 
21   0.413865 
 
>  <lowdin_charges> 
21 
1   -0.274403 
2   -0.155767 
3   -0.208714 
4   -0.172245 
5   -0.055094 
6   0.034837 
7   0.082809 
8   0.199979 
9   -0.485111 
10   -0.385977 
11   -0.279893 
12   -0.197564 
13   0.155568 
14   0.159081 
15   0.156208 
16   0.169371 
17   0.155935 
18   0.17503 
19   0.2794 
20   0.282811 
21   0.363741 
 
$$$$ 
 
