PCCDB-ID:  18273 
public computational chemistry database (PCCDB) project, http://pccdb.org 
 
 21 22  0  0  1  0  0  0  0  0999 V2000 
    2.0309   -0.5934   -1.2268 C   0  0  0  0  0  0  0  0  0  0  0  0 
    2.5864   -0.2410   -0.0661 C   0  0  0  0  0  0  0  0  0  0  0  0 
    3.2853    3.9345    0.7830 C   0  0  0  0  0  0  0  0  0  0  0  0 
    3.9230    3.3794   -0.2563 C   0  0  0  0  0  0  0  0  0  0  0  0 
    2.3766    1.7555    1.5292 C   0  0  0  0  0  0  0  0  0  0  0  0 
    1.6483    2.8116   -0.4871 C   0  0  0  0  0  0  0  0  0  0  0  0 
    1.9838    3.1680    0.9807 C   0  0  2  0  0  0  0  0  0  0  0  0 
    3.1493    1.1050    0.3198 C   0  0  2  0  0  0  0  0  0  0  0  0 
    3.0572    2.2355   -0.7695 C   0  0  2  0  0  0  0  0  0  0  0  0 
    1.6615   -1.6022   -1.3905 H   0  0  0  0  0  0  0  0  0  0  0  0 
    1.9191    0.0991   -2.0568 H   0  0  0  0  0  0  0  0  0  0  0  0 
    2.6584   -0.9958    0.7201 H   0  0  0  0  0  0  0  0  0  0  0  0 
    3.6562    4.7093    1.4471 H   0  0  0  0  0  0  0  0  0  0  0  0 
    4.9228    3.6052   -0.6146 H   0  0  0  0  0  0  0  0  0  0  0  0 
    1.4765    1.1790    1.7714 H   0  0  0  0  0  0  0  0  0  0  0  0 
    2.9882    1.8176    2.4343 H   0  0  0  0  0  0  0  0  0  0  0  0 
    1.4209    3.6916   -1.0969 H   0  0  0  0  0  0  0  0  0  0  0  0 
    0.8446    2.0735   -0.5850 H   0  0  0  0  0  0  0  0  0  0  0  0 
    1.2079    3.6719    1.5627 H   0  0  0  0  0  0  0  0  0  0  0  0 
    4.1999    0.9506    0.5994 H   0  0  0  0  0  0  0  0  0  0  0  0 
    3.2725    1.8974   -1.7854 H   0  0  0  0  0  0  0  0  0  0  0  0 
  1  2  2  0  0  0  0 
  2  8  1  0  0  0  0 
  2 12  1  0  0  0  0 
  3  7  1  0  0  0  0 
  3 13  1  0  0  0  0 
  4  3  2  0  0  0  0 
  5 15  1  0  0  0  0 
  5 16  1  0  0  0  0 
  6  7  1  0  0  0  0 
  7  5  1  0  0  0  0 
  7 19  1  1  0  0  0 
  8 20  1  1  0  0  0 
  8  5  1  0  0  0  0 
  9 21  1  6  0  0  0 
  9  6  1  0  0  0  0 
  9  4  1  0  0  0  0 
  9  8  1  0  0  0  0 
 10  1  1  0  0  0  0 
 11  1  1  0  0  0  0 
 14  4  1  0  0  0  0 
 17  6  1  0  0  0  0 
 18  6  1  0  0  0  0 
M  END 
>  <HBA> 
0 
 
>  <HBD> 
0 
 
>  <TPSA> 
0.0 
 
>  <cid> 
18273 
 
>  <dipole> 
0.4 
 
>  <excitation_energy_1> 
5.825 
 
>  <excitation_energy_2> 
5.996 
 
>  <excitation_energy_3> 
6.142 
 
>  <excitation_energy_4> 
6.308 
 
>  <homo_energy> 
-6.308 
 
>  <homo_lumo_gap> 
6.925 
 
>  <logP> 
2.385 
 
>  <lumo_energy> 
0.618 
 
>  <melting_point> 
5.79 
 
>  <molecular_refractivity> 
40.2 
 
>  <oscillator_strength_1> 
0.0217 
 
>  <oscillator_strength_2> 
0.0168 
 
>  <oscillator_strength_3> 
0.0352 
 
>  <oscillator_strength_4> 
0.0721 
 
>  <open_babel_can_smiles> 
C=C[C@@H]1C[C@@H]2C[C@H]1C=C2 
 
>  <mulliken_charges> 
21 
1   -0.344256 
2   -0.063183 
3   -0.104047 
4   -0.110302 
5   -0.274355 
6   -0.262835 
7   -0.148171 
8   -0.116752 
9   -0.157095 
10   0.135562 
11   0.138888 
12   0.1243 
13   0.124842 
14   0.125055 
15   0.142357 
16   0.136572 
17   0.138709 
18   0.138061 
19   0.118395 
20   0.136929 
21   0.121328 
 
>  <lowdin_charges> 
21 
1   -0.353192 
2   -0.146984 
3   -0.174829 
4   -0.172697 
5   -0.280353 
6   -0.274817 
7   -0.132877 
8   -0.128724 
9   -0.13351 
10   0.157024 
11   0.155776 
12   0.150487 
13   0.155966 
14   0.154635 
15   0.148151 
16   0.146046 
17   0.148193 
18   0.144838 
19   0.144468 
20   0.148359 
21   0.144042 
 
$$$$ 
 
