PCCDB-ID:  69302 
public computational chemistry database (PCCDB) project, http://pccdb.org 
 
 22 22  0  0  0  0  0  0  0  0999 V2000 
    1.3971    1.0012    1.2482 C   0  0  0  0  0  0  0  0  0  0  0  0 
    2.9263    1.0862    1.2523 C   0  0  0  0  0  0  0  0  0  0  0  0 
    7.0742    2.5873   -0.0447 C   0  0  0  0  0  0  0  0  0  0  0  0 
    3.5240    1.1903   -0.1654 C   0  0  0  0  0  0  0  0  0  0  0  0 
    5.6828    2.5198   -0.0870 C   0  0  0  0  0  0  0  0  0  0  0  0 
    7.8445    1.4244   -0.0812 C   0  0  0  0  0  0  0  0  0  0  0  0 
    5.8092    0.1137   -0.2045 C   0  0  0  0  0  0  0  0  0  0  0  0 
    5.0356    1.2771   -0.1658 C   0  0  0  0  0  0  0  0  0  0  0  0 
    7.2048    0.1837   -0.1610 C   0  0  0  0  0  0  0  0  0  0  0  0 
    7.8929   -0.9998   -0.2058 O   0  0  0  0  0  0  0  0  0  0  0  0 
    1.0004    0.9258    2.2671 H   0  0  0  0  0  0  0  0  0  0  0  0 
    1.0494    0.1235    0.6894 H   0  0  0  0  0  0  0  0  0  0  0  0 
    0.9506    1.8879    0.7813 H   0  0  0  0  0  0  0  0  0  0  0  0 
    3.3474    0.2047    1.7534 H   0  0  0  0  0  0  0  0  0  0  0  0 
    3.2500    1.9546    1.8414 H   0  0  0  0  0  0  0  0  0  0  0  0 
    7.5697    3.5531    0.0121 H   0  0  0  0  0  0  0  0  0  0  0  0 
    3.1044    2.0741   -0.6644 H   0  0  0  0  0  0  0  0  0  0  0  0 
    3.2030    0.3193   -0.7519 H   0  0  0  0  0  0  0  0  0  0  0  0 
    5.0934    3.4330   -0.0626 H   0  0  0  0  0  0  0  0  0  0  0  0 
    8.9314    1.4794   -0.0530 H   0  0  0  0  0  0  0  0  0  0  0  0 
    5.3411   -0.8647   -0.2717 H   0  0  0  0  0  0  0  0  0  0  0  0 
    8.8430   -0.8103   -0.1664 H   0  0  0  0  0  0  0  0  0  0  0  0 
  1  2  1  0  0  0  0 
  1 11  1  0  0  0  0 
  2 14  1  0  0  0  0 
  2 15  1  0  0  0  0 
  3 16  1  0  0  0  0 
  4  2  1  0  0  0  0 
  5 19  1  0  0  0  0 
  5  3  2  0  0  0  0 
  6 20  1  0  0  0  0 
  6  3  1  0  0  0  0 
  7  8  2  0  0  0  0 
  7  9  1  0  0  0  0 
  8  4  1  0  0  0  0 
  8  5  1  0  0  0  0 
  9  6  2  0  0  0  0 
 10 22  1  0  0  0  0 
 10  9  1  0  0  0  0 
 12  1  1  0  0  0  0 
 13  1  1  0  0  0  0 
 17  4  1  0  0  0  0 
 18  4  1  0  0  0  0 
 21  7  1  0  0  0  0 
M  END 
>  <HBA> 
1 
 
>  <HBD> 
1 
 
>  <TPSA> 
20.23 
 
>  <cid> 
69302 
 
>  <dipole> 
1.11 
 
>  <excitation_energy_1> 
5.017 
 
>  <excitation_energy_2> 
5.167 
 
>  <excitation_energy_3> 
5.698 
 
>  <excitation_energy_4> 
5.779 
 
>  <homo_energy> 
-5.861 
 
>  <homo_lumo_gap> 
5.959 
 
>  <logP> 
2.345 
 
>  <lumo_energy> 
0.098 
 
>  <melting_point> 
46.8 
 
>  <molecular_refractivity> 
43.05 
 
>  <oscillator_strength_1> 
0.0363 
 
>  <oscillator_strength_2> 
0.0001 
 
>  <oscillator_strength_3> 
0.0117 
 
>  <oscillator_strength_4> 
0.0058 
 
>  <open_babel_can_smiles> 
CCCc1cccc(c1)O 
 
>  <mulliken_charges> 
22 
1   -0.44146 
2   -0.242787 
3   -0.132667 
4   -0.341813 
5   -0.185846 
6   -0.19809 
7   -0.216587 
8   0.169472 
9   0.353085 
10   -0.644869 
11   0.144558 
12   0.142501 
13   0.141668 
14   0.139944 
15   0.137969 
16   0.128097 
17   0.13811 
18   0.140155 
19   0.117804 
20   0.114397 
21   0.13062 
22   0.405738 
 
>  <lowdin_charges> 
22 
1   -0.446035 
2   -0.270419 
3   -0.144754 
4   -0.273881 
5   -0.192472 
6   -0.218267 
7   -0.198031 
8   0.012764 
9   0.10261 
10   -0.379073 
11   0.150313 
12   0.147422 
13   0.147025 
14   0.144745 
15   0.1438 
16   0.157279 
17   0.147529 
18   0.148314 
19   0.153939 
20   0.149463 
21   0.162945 
22   0.354785 
 
$$$$ 
 
