PCCDB-ID:  16029 
public computational chemistry database (PCCDB) project, http://pccdb.org 
 
 22 21  0  0  0  0  0  0  0  0999 V2000 
    2.6903   -1.4294   -0.1012 C   0  0  0  0  0  0  0  0  0  0  0  0 
    9.2468   -0.1492   -0.0904 C   0  0  0  0  0  0  0  0  0  0  0  0 
    2.3644    0.0551    0.0764 C   0  0  0  0  0  0  0  0  0  0  0  0 
    7.7172   -0.1912   -0.1338 C   0  0  0  0  0  0  0  0  0  0  0  0 
    2.9814    0.9573   -1.0163 C   0  0  0  0  0  0  0  0  0  0  0  0 
    7.1217    0.9747   -0.9517 C   0  0  0  0  0  0  0  0  0  0  0  0 
    4.4471    0.9664   -1.0141 C   0  0  0  0  0  0  0  0  0  0  0  0 
    5.6577    0.9699   -0.9923 C   0  0  0  0  0  0  0  0  0  0  0  0 
    2.2397   -2.0304    0.6968 H   0  0  0  0  0  0  0  0  0  0  0  0 
    3.7726   -1.5975   -0.0834 H   0  0  0  0  0  0  0  0  0  0  0  0 
    2.3093   -1.8058   -1.0588 H   0  0  0  0  0  0  0  0  0  0  0  0 
    9.6503   -0.9878    0.4877 H   0  0  0  0  0  0  0  0  0  0  0  0 
    9.6059    0.7785    0.3723 H   0  0  0  0  0  0  0  0  0  0  0  0 
    9.6744   -0.2025   -1.0992 H   0  0  0  0  0  0  0  0  0  0  0  0 
    2.7160    0.3982    1.0573 H   0  0  0  0  0  0  0  0  0  0  0  0 
    1.2763    0.2020    0.0614 H   0  0  0  0  0  0  0  0  0  0  0  0 
    7.3092   -0.1556    0.8838 H   0  0  0  0  0  0  0  0  0  0  0  0 
    7.3782   -1.1393   -0.5697 H   0  0  0  0  0  0  0  0  0  0  0  0 
    2.6134    1.9843   -0.8825 H   0  0  0  0  0  0  0  0  0  0  0  0 
    2.6154    0.6306   -2.0008 H   0  0  0  0  0  0  0  0  0  0  0  0 
    7.5213    0.9364   -1.9756 H   0  0  0  0  0  0  0  0  0  0  0  0 
    7.4743    1.9269   -0.5281 H   0  0  0  0  0  0  0  0  0  0  0  0 
  1 10  1  0  0  0  0 
  1  3  1  0  0  0  0 
  1  9  1  0  0  0  0 
  2 13  1  0  0  0  0 
  2 12  1  0  0  0  0 
  3 15  1  0  0  0  0 
  4  2  1  0  0  0  0 
  4 17  1  0  0  0  0 
  5  7  1  0  0  0  0 
  5 19  1  0  0  0  0 
  5  3  1  0  0  0  0 
  6 22  1  0  0  0  0 
  6  4  1  0  0  0  0 
  7  8  3  0  0  0  0 
  8  6  1  0  0  0  0 
 11  1  1  0  0  0  0 
 14  2  1  0  0  0  0 
 16  3  1  0  0  0  0 
 18  4  1  0  0  0  0 
 20  5  1  0  0  0  0 
 21  6  1  0  0  0  0 
M  END 
>  <HBA> 
0 
 
>  <HBD> 
0 
 
>  <TPSA> 
0.0 
 
>  <cid> 
16029 
 
>  <dipole> 
0.22 
 
>  <excitation_energy_1> 
6.079 
 
>  <excitation_energy_2> 
6.201 
 
>  <excitation_energy_3> 
6.246 
 
>  <excitation_energy_4> 
6.376 
 
>  <homo_energy> 
-6.482 
 
>  <homo_lumo_gap> 
8.076 
 
>  <logP> 
2.59 
 
>  <lumo_energy> 
1.595 
 
>  <melting_point> 
-10.54 
 
>  <molecular_refractivity> 
38.73 
 
>  <oscillator_strength_1> 
0.0009 
 
>  <oscillator_strength_2> 
0.0326 
 
>  <oscillator_strength_3> 
0.0059 
 
>  <oscillator_strength_4> 
0.0314 
 
>  <open_babel_can_smiles> 
CCCC#CCCC 
 
>  <mulliken_charges> 
22 
1   -0.441644 
2   -0.441354 
3   -0.24434 
4   -0.248546 
5   -0.394285 
6   -0.392975 
7   0.009036 
8   0.073297 
9   0.141708 
10   0.158757 
11   0.139133 
12   0.147144 
13   0.143211 
14   0.143156 
15   0.143295 
16   0.133688 
17   0.145001 
18   0.144858 
19   0.161254 
20   0.159555 
21   0.160104 
22   0.159945 
 
>  <lowdin_charges> 
22 
1   -0.446341 
2   -0.446606 
3   -0.262813 
4   -0.265201 
5   -0.258761 
6   -0.257357 
7   -0.090312 
8   -0.091508 
9   0.150773 
10   0.154115 
11   0.145615 
12   0.153628 
13   0.147688 
14   0.14682 
15   0.146181 
16   0.140214 
17   0.146301 
18   0.146883 
19   0.162029 
20   0.159357 
21   0.159327 
22   0.159968 
 
$$$$ 
 
