PCCDB-ID:  61895 
public computational chemistry database (PCCDB) project, http://pccdb.org 
 
 36 35  0  0  0  0  0  0  0  0999 V2000 
    1.2935   -2.1384   -4.4281 C   0  0  0  0  0  0  0  0  0  0  0  0 
   11.8151   -3.4811   -2.9590 C   0  0  0  0  0  0  0  0  0  0  0  0 
    1.8518   -1.6625   -3.0758 C   0  0  0  0  0  0  0  0  0  0  0  0 
   10.6128   -2.5599   -3.1914 C   0  0  0  0  0  0  0  0  0  0  0  0 
    2.5188   -0.3162   -3.1608 C   0  0  0  0  0  0  0  0  0  0  0  0 
   10.9654   -1.0729   -3.0461 C   0  0  0  0  0  0  0  0  0  0  0  0 
    3.7999   -0.0680   -2.8750 C   0  0  0  0  0  0  0  0  0  0  0  0 
    9.8099   -0.1025   -3.3375 C   0  0  0  0  0  0  0  0  0  0  0  0 
    4.4607    1.2806   -2.9746 C   0  0  0  0  0  0  0  0  0  0  0  0 
    8.6580   -0.1802   -2.3114 C   0  0  0  0  0  0  0  0  0  0  0  0 
    5.6600    1.3078   -3.9280 C   0  0  0  0  0  0  0  0  0  0  0  0 
    7.5974    0.8582   -2.6090 C   0  0  0  0  0  0  0  0  0  0  0  0 
    7.5714    1.9799   -2.1484 O   0  0  0  0  0  0  0  0  0  0  0  0 
    6.6974    0.3895   -3.5095 O   0  0  0  0  0  0  0  0  0  0  0  0 
    0.7878   -3.1055   -4.3272 H   0  0  0  0  0  0  0  0  0  0  0  0 
    2.0958   -2.2479   -5.1661 H   0  0  0  0  0  0  0  0  0  0  0  0 
    0.5669   -1.4222   -4.8306 H   0  0  0  0  0  0  0  0  0  0  0  0 
   11.5395   -4.5353   -3.0758 H   0  0  0  0  0  0  0  0  0  0  0  0 
   12.2234   -3.3537   -1.9488 H   0  0  0  0  0  0  0  0  0  0  0  0 
   12.6221   -3.2664   -3.6703 H   0  0  0  0  0  0  0  0  0  0  0  0 
    2.5633   -2.4021   -2.6868 H   0  0  0  0  0  0  0  0  0  0  0  0 
    1.0247   -1.6151   -2.3513 H   0  0  0  0  0  0  0  0  0  0  0  0 
    9.8136   -2.8275   -2.4874 H   0  0  0  0  0  0  0  0  0  0  0  0 
   10.2054   -2.7360   -4.1973 H   0  0  0  0  0  0  0  0  0  0  0  0 
    1.8839    0.5081   -3.4960 H   0  0  0  0  0  0  0  0  0  0  0  0 
   11.7921   -0.8389   -3.7317 H   0  0  0  0  0  0  0  0  0  0  0  0 
   11.3502   -0.8860   -2.0326 H   0  0  0  0  0  0  0  0  0  0  0  0 
    4.4379   -0.8896   -2.5468 H   0  0  0  0  0  0  0  0  0  0  0  0 
    9.4075   -0.2967   -4.3406 H   0  0  0  0  0  0  0  0  0  0  0  0 
   10.1955    0.9247   -3.3450 H   0  0  0  0  0  0  0  0  0  0  0  0 
    4.8110    1.6156   -1.9890 H   0  0  0  0  0  0  0  0  0  0  0  0 
    3.7375    2.0288   -3.3254 H   0  0  0  0  0  0  0  0  0  0  0  0 
    9.0417    0.0206   -1.3060 H   0  0  0  0  0  0  0  0  0  0  0  0 
    8.2026   -1.1749   -2.3233 H   0  0  0  0  0  0  0  0  0  0  0  0 
    6.0826    2.3138   -3.9872 H   0  0  0  0  0  0  0  0  0  0  0  0 
    5.3753    0.9631   -4.9253 H   0  0  0  0  0  0  0  0  0  0  0  0 
  1 15  1  0  0  0  0 
  1  3  1  0  0  0  0 
  2 19  1  0  0  0  0 
  3 21  1  0  0  0  0 
  3 22  1  0  0  0  0 
  4  6  1  0  0  0  0 
  4  2  1  0  0  0  0 
  4 23  1  0  0  0  0 
  5  3  1  0  0  0  0 
  5  7  2  0  0  0  0 
  6 27  1  0  0  0  0 
  7 28  1  0  0  0  0 
  8  6  1  0  0  0  0 
  8 10  1  0  0  0  0 
  9  7  1  0  0  0  0 
  9 31  1  0  0  0  0 
 10 33  1  0  0  0  0 
 11 14  1  0  0  0  0 
 11  9  1  0  0  0  0 
 12 10  1  0  0  0  0 
 12 13  2  0  0  0  0 
 14 12  1  0  0  0  0 
 16  1  1  0  0  0  0 
 17  1  1  0  0  0  0 
 18  2  1  0  0  0  0 
 20  2  1  0  0  0  0 
 24  4  1  0  0  0  0 
 25  5  1  0  0  0  0 
 26  6  1  0  0  0  0 
 29  8  1  0  0  0  0 
 30  8  1  0  0  0  0 
 32  9  1  0  0  0  0 
 34 10  1  0  0  0  0 
 35 11  1  0  0  0  0 
 36 11  1  0  0  0  0 
M  END 
>  <HBA> 
2 
 
>  <HBD> 
0 
 
>  <TPSA> 
26.3 
 
>  <cid> 
61895 
 
>  <dipole> 
1.86 
 
>  <excitation_energy_1> 
5.705 
 
>  <excitation_energy_2> 
6.075 
 
>  <excitation_energy_3> 
6.251 
 
>  <excitation_energy_4> 
6.39 
 
>  <homo_energy> 
-6.528 
 
>  <homo_lumo_gap> 
6.928 
 
>  <logP> 
3.466 
 
>  <lumo_energy> 
0.4 
 
>  <melting_point> 
-8.32 
 
>  <molecular_refractivity> 
60.61 
 
>  <oscillator_strength_1> 
0.002 
 
>  <oscillator_strength_2> 
0.0105 
 
>  <oscillator_strength_3> 
0.0219 
 
>  <oscillator_strength_4> 
0.0335 
 
>  <open_babel_can_smiles> 
CCCCCC(=O)OCC/C=C/CC 
 
>  <mulliken_charges> 
36 
1   -0.439537 
2   -0.442021 
3   -0.29523 
4   -0.251281 
5   -0.090083 
6   -0.248998 
7   -0.091764 
8   -0.27174 
9   -0.334927 
10   -0.331545 
11   -0.047556 
12   0.601812 
13   -0.478126 
14   -0.458377 
15   0.143525 
16   0.149368 
17   0.142912 
18   0.143611 
19   0.143041 
20   0.142813 
21   0.139085 
22   0.142323 
23   0.135217 
24   0.133351 
25   0.113596 
26   0.133724 
27   0.13173 
28   0.125986 
29   0.146497 
30   0.151061 
31   0.172032 
32   0.143279 
33   0.1631 
34   0.161838 
35   0.168061 
36   0.153224 
 
>  <lowdin_charges> 
36 
1   -0.444215 
2   -0.442369 
3   -0.269767 
4   -0.275246 
5   -0.167159 
6   -0.274884 
7   -0.17471 
8   -0.267748 
9   -0.283296 
10   -0.295851 
11   -0.130253 
12   0.197069 
13   -0.270515 
14   -0.19897 
15   0.149527 
16   0.15087 
17   0.148308 
18   0.148928 
19   0.146491 
20   0.147543 
21   0.14718 
22   0.148385 
23   0.140493 
24   0.13963 
25   0.144485 
26   0.144815 
27   0.139272 
28   0.151105 
29   0.146318 
30   0.150792 
31   0.163351 
32   0.155452 
33   0.163202 
34   0.160911 
35   0.158469 
36   0.152385 
 
$$$$ 
 
