PCCDB-ID:  7958 
public computational chemistry database (PCCDB) project, http://pccdb.org 
 
 28 27  0  0  0  0  0  0  0  0999 V2000 
    2.0346    2.0066    1.8308 C   0  0  0  0  0  0  0  0  0  0  0  0 
    1.3093    0.2415    3.4943 C   0  0  0  0  0  0  0  0  0  0  0  0 
    5.5970   -3.1169   -0.8314 C   0  0  0  0  0  0  0  0  0  0  0  0 
    6.2738   -2.4141    1.5046 C   0  0  0  0  0  0  0  0  0  0  0  0 
    3.0871   -0.3041    1.7837 C   0  0  0  0  0  0  0  0  0  0  0  0 
    4.9354   -0.8305    0.0221 C   0  0  0  0  0  0  0  0  0  0  0  0 
    2.4770    0.7966    2.6666 C   0  0  0  0  0  0  0  0  0  0  0  0 
    5.2011   -2.3062    0.4108 C   0  0  0  0  0  0  0  0  0  0  0  0 
    4.4412    0.0465    1.1678 C   0  0  0  0  0  0  0  0  0  0  0  0 
    5.1131    0.9735    1.5854 O   0  0  0  0  0  0  0  0  0  0  0  0 
    1.6337    2.7989    2.4737 H   0  0  0  0  0  0  0  0  0  0  0  0 
    1.2449    1.7257    1.1207 H   0  0  0  0  0  0  0  0  0  0  0  0 
    2.8729    2.4263    1.2668 H   0  0  0  0  0  0  0  0  0  0  0  0 
    0.8831    1.0178    4.1405 H   0  0  0  0  0  0  0  0  0  0  0  0 
    1.6281   -0.5893    4.1358 H   0  0  0  0  0  0  0  0  0  0  0  0 
    0.5028   -0.1280    2.8470 H   0  0  0  0  0  0  0  0  0  0  0  0 
    5.7729   -4.1681   -0.5746 H   0  0  0  0  0  0  0  0  0  0  0  0 
    6.5197   -2.7241   -1.2770 H   0  0  0  0  0  0  0  0  0  0  0  0 
    4.8144   -3.0840   -1.5986 H   0  0  0  0  0  0  0  0  0  0  0  0 
    6.4323   -3.4593    1.7944 H   0  0  0  0  0  0  0  0  0  0  0  0 
    6.0010   -1.8527    2.4054 H   0  0  0  0  0  0  0  0  0  0  0  0 
    7.2322   -2.0155    1.1493 H   0  0  0  0  0  0  0  0  0  0  0  0 
    2.3897   -0.5980    0.9853 H   0  0  0  0  0  0  0  0  0  0  0  0 
    3.2415   -1.2173    2.3803 H   0  0  0  0  0  0  0  0  0  0  0  0 
    4.1852   -0.8055   -0.7816 H   0  0  0  0  0  0  0  0  0  0  0  0 
    5.8560   -0.3763   -0.3615 H   0  0  0  0  0  0  0  0  0  0  0  0 
    3.2650    1.1318    3.3524 H   0  0  0  0  0  0  0  0  0  0  0  0 
    4.2654   -2.7312    0.8022 H   0  0  0  0  0  0  0  0  0  0  0  0 
  1 11  1  0  0  0  0 
  1  7  1  0  0  0  0 
  2 15  1  0  0  0  0 
  2 14  1  0  0  0  0 
  3 17  1  0  0  0  0 
  3  8  1  0  0  0  0 
  4 20  1  0  0  0  0 
  4 21  1  0  0  0  0 
  5 24  1  0  0  0  0 
  5  7  1  0  0  0  0 
  6  8  1  0  0  0  0 
  6  9  1  0  0  0  0 
  7 27  1  0  0  0  0 
  7  2  1  0  0  0  0 
  8 28  1  0  0  0  0 
  8  4  1  0  0  0  0 
  9 10  2  0  0  0  0 
  9  5  1  0  0  0  0 
 12  1  1  0  0  0  0 
 13  1  1  0  0  0  0 
 16  2  1  0  0  0  0 
 18  3  1  0  0  0  0 
 19  3  1  0  0  0  0 
 22  4  1  0  0  0  0 
 23  5  1  0  0  0  0 
 25  6  1  0  0  0  0 
 26  6  1  0  0  0  0 
M  END 
>  <HBA> 
1 
 
>  <HBD> 
0 
 
>  <TPSA> 
17.07 
 
>  <cid> 
7958 
 
>  <dipole> 
2.6 
 
>  <excitation_energy_1> 
4.278 
 
>  <excitation_energy_2> 
5.98 
 
>  <excitation_energy_3> 
6.562 
 
>  <excitation_energy_4> 
6.627 
 
>  <homo_energy> 
-6.474 
 
>  <homo_lumo_gap> 
6.158 
 
>  <logP> 
2.648 
 
>  <lumo_energy> 
-0.316 
 
>  <melting_point> 
-7.16 
 
>  <molecular_refractivity> 
45.58 
 
>  <oscillator_strength_1> 
0.0003 
 
>  <oscillator_strength_2> 
0.0214 
 
>  <oscillator_strength_3> 
0.0014 
 
>  <oscillator_strength_4> 
0.0018 
 
>  <open_babel_can_smiles> 
CC(CC(=O)CC(C)C)C 
 
>  <mulliken_charges> 
28 
1   -0.451093 
2   -0.446639 
3   -0.439805 
4   -0.445288 
5   -0.35759 
6   -0.33332 
7   -0.058553 
8   -0.086881 
9   0.455075 
10   -0.453101 
11   0.141899 
12   0.130029 
13   0.162243 
14   0.144226 
15   0.137564 
16   0.136346 
17   0.144997 
18   0.145707 
19   0.141639 
20   0.143737 
21   0.152598 
22   0.149804 
23   0.143753 
24   0.16224 
25   0.144619 
26   0.156437 
27   0.149028 
28   0.130329 
 
>  <lowdin_charges> 
28 
1   -0.450015 
2   -0.447021 
3   -0.44236 
4   -0.446188 
5   -0.314351 
6   -0.307582 
7   -0.118858 
8   -0.117771 
9   0.164303 
10   -0.240126 
11   0.150686 
12   0.141217 
13   0.159127 
14   0.151312 
15   0.146542 
16   0.144752 
17   0.149514 
18   0.149456 
19   0.149023 
20   0.14935 
21   0.153145 
22   0.151889 
23   0.153248 
24   0.164656 
25   0.156382 
26   0.159812 
27   0.152101 
28   0.137756 
 
$$$$ 
 
