PCCDB-ID:  50035 
public computational chemistry database (PCCDB) project, http://pccdb.org 
 
 35 35  0  0  0  0  0  0  0  0999 V2000 
    3.7087   -3.6925    2.1103 C   0  0  0  0  0  0  0  0  0  0  0  0 
    2.4344   -2.3770    0.5578 C   0  0  0  0  0  0  0  0  0  0  0  0 
    9.5454    5.9327    2.1862 C   0  0  0  0  0  0  0  0  0  0  0  0 
    5.6721    3.6789    3.8975 C   0  0  0  0  0  0  0  0  0  0  0  0 
    6.2138    2.4222    3.6171 C   0  0  0  0  0  0  0  0  0  0  0  0 
    6.3627    4.8483    3.6020 C   0  0  0  0  0  0  0  0  0  0  0  0 
    4.3285   -1.3822    1.6830 C   0  0  0  0  0  0  0  0  0  0  0  0 
    5.8504   -1.4708    1.7616 C   0  0  0  0  0  0  0  0  0  0  0  0 
    8.1968    3.5144    2.7459 C   0  0  0  0  0  0  0  0  0  0  0  0 
    7.4846    2.3331    3.0284 C   0  0  0  0  0  0  0  0  0  0  0  0 
    7.6363    4.7623    3.0209 C   0  0  0  0  0  0  0  0  0  0  0  0 
    7.6109    0.0339    2.4280 C   0  0  0  0  0  0  0  0  0  0  0  0 
    8.1643    1.1339    2.7479 N   0  0  0  0  0  0  0  0  0  0  0  0 
    3.7534   -2.6080    1.1355 N   0  0  0  0  0  0  0  0  0  0  0  0 
    8.3725   -1.0637    2.2022 O   0  0  0  0  0  0  0  0  0  0  0  0 
    8.2530    5.9574    2.7661 O   0  0  0  0  0  0  0  0  0  0  0  0 
    6.3003   -0.1914    2.2642 O   0  0  0  0  0  0  0  0  0  0  0  0 
    3.3369   -4.6019    1.6266 H   0  0  0  0  0  0  0  0  0  0  0  0 
    3.0520   -3.4697    2.9745 H   0  0  0  0  0  0  0  0  0  0  0  0 
    4.7101   -3.9091    2.4938 H   0  0  0  0  0  0  0  0  0  0  0  0 
    2.0716   -3.3026    0.0978 H   0  0  0  0  0  0  0  0  0  0  0  0 
    2.4991   -1.6125   -0.2232 H   0  0  0  0  0  0  0  0  0  0  0  0 
    1.6811   -2.0497    1.3010 H   0  0  0  0  0  0  0  0  0  0  0  0 
    9.8423    6.9770    2.0694 H   0  0  0  0  0  0  0  0  0  0  0  0 
    9.5390    5.4456    1.2017 H   0  0  0  0  0  0  0  0  0  0  0  0 
   10.2706    5.4204    2.8328 H   0  0  0  0  0  0  0  0  0  0  0  0 
    4.6885    3.7438    4.3562 H   0  0  0  0  0  0  0  0  0  0  0  0 
    5.6607    1.5228    3.8570 H   0  0  0  0  0  0  0  0  0  0  0  0 
    5.9477    5.8284    3.8140 H   0  0  0  0  0  0  0  0  0  0  0  0 
    4.0782   -0.5505    1.0162 H   0  0  0  0  0  0  0  0  0  0  0  0 
    3.9213   -1.1276    2.6805 H   0  0  0  0  0  0  0  0  0  0  0  0 
    6.2738   -1.6526    0.7700 H   0  0  0  0  0  0  0  0  0  0  0  0 
    6.1910   -2.2613    2.4355 H   0  0  0  0  0  0  0  0  0  0  0  0 
    9.1838    3.4135    2.3114 H   0  0  0  0  0  0  0  0  0  0  0  0 
    9.2878   -0.7628    2.3432 H   0  0  0  0  0  0  0  0  0  0  0  0 
  1 20  1  0  0  0  0 
  1 19  1  0  0  0  0 
  2 14  1  0  0  0  0 
  2 23  1  0  0  0  0 
  3 16  1  0  0  0  0 
  3 26  1  0  0  0  0 
  4 27  1  0  0  0  0 
  5 28  1  0  0  0  0 
  5  4  1  0  0  0  0 
  6 29  1  0  0  0  0 
  6  4  2  0  0  0  0 
  7  8  1  0  0  0  0 
  7 31  1  0  0  0  0 
  8 17  1  0  0  0  0 
  8 33  1  0  0  0  0 
  9 11  2  0  0  0  0 
  9 10  1  0  0  0  0 
 10  5  2  0  0  0  0 
 11  6  1  0  0  0  0 
 12 13  2  0  0  0  0 
 13 10  1  0  0  0  0 
 14  7  1  0  0  0  0 
 14  1  1  0  0  0  0 
 15 35  1  0  0  0  0 
 15 12  1  0  0  0  0 
 16 11  1  0  0  0  0 
 17 12  1  0  0  0  0 
 18  1  1  0  0  0  0 
 21  2  1  0  0  0  0 
 22  2  1  0  0  0  0 
 24  3  1  0  0  0  0 
 25  3  1  0  0  0  0 
 30  7  1  0  0  0  0 
 32  8  1  0  0  0  0 
 34  9  1  0  0  0  0 
M  END 
>  <HBA> 
5 
 
>  <HBD> 
1 
 
>  <TPSA> 
50.8 
 
>  <cid> 
50035 
 
>  <dipole> 
2.86 
 
>  <excitation_energy_1> 
4.696 
 
>  <excitation_energy_2> 
4.906 
 
>  <excitation_energy_3> 
5.063 
 
>  <excitation_energy_4> 
5.31 
 
>  <homo_energy> 
-5.339 
 
>  <homo_lumo_gap> 
5.363 
 
>  <logP> 
1.878 
 
>  <lumo_energy> 
0.024 
 
>  <melting_point> 
66.73 
 
>  <molecular_refractivity> 
66.04 
 
>  <oscillator_strength_1> 
0.0893 
 
>  <oscillator_strength_2> 
0.029 
 
>  <oscillator_strength_3> 
0.1669 
 
>  <oscillator_strength_4> 
0.0006 
 
>  <open_babel_can_smiles> 
COc1cccc(c1)/N=C(\OCCN(C)C)/O 
 
>  <mulliken_charges> 
35 
1   -0.304801 
2   -0.29678 
3   -0.210055 
4   -0.146754 
5   -0.157926 
6   -0.172981 
7   -0.142471 
8   -0.029328 
9   -0.238436 
10   0.268776 
11   0.376577 
12   0.737899 
13   -0.590937 
14   -0.374641 
15   -0.601149 
16   -0.512763 
17   -0.477153 
18   0.154567 
19   0.123457 
20   0.151654 
21   0.151407 
22   0.154071 
23   0.122974 
24   0.164099 
25   0.149311 
26   0.150351 
27   0.122915 
28   0.129255 
29   0.128704 
30   0.157946 
31   0.129407 
32   0.169 
33   0.161972 
34   0.126676 
35   0.425156 
 
>  <lowdin_charges> 
35 
1   -0.358868 
2   -0.356761 
3   -0.276733 
4   -0.146319 
5   -0.206008 
6   -0.197118 
7   -0.206616 
8   -0.125705 
9   -0.22581 
10   0.06102 
11   0.101022 
12   0.205159 
13   -0.246567 
14   -0.183811 
15   -0.360977 
16   -0.202786 
17   -0.182908 
18   0.153843 
19   0.123648 
20   0.149234 
21   0.151802 
22   0.152637 
23   0.124409 
24   0.158531 
25   0.142937 
26   0.145506 
27   0.154305 
28   0.160633 
29   0.162621 
30   0.157487 
31   0.127367 
32   0.156474 
33   0.152753 
34   0.163734 
35   0.371864 
 
$$$$ 
 
