PCCDB-ID:  38866 
public computational chemistry database (PCCDB) project, http://pccdb.org 
 
 30 29  0  0  0  0  0  0  0  0999 V2000 
    4.1305   -0.1023   -2.0299 C   0  0  0  0  0  0  0  0  0  0  0  0 
    3.2195   -2.4115   -0.0183 C   0  0  0  0  0  0  0  0  0  0  0  0 
    7.2790   -3.4498    1.0482 C   0  0  0  0  0  0  0  0  0  0  0  0 
    3.4805    0.0567   -0.6432 C   0  0  0  0  0  0  0  0  0  0  0  0 
    5.0286   -1.7676    2.4786 C   0  0  0  0  0  0  0  0  0  0  0  0 
    4.5702   -0.8171    1.4047 C   0  0  0  0  0  0  0  0  0  0  0  0 
    6.5554   -1.6822    2.7443 C   0  0  0  0  0  0  0  0  0  0  0  0 
    8.2602   -1.1133    1.0351 C   0  0  0  0  0  0  0  0  0  0  0  0 
    9.1652   -1.2906   -0.1047 C   0  0  0  0  0  0  0  0  0  0  0  0 
    3.8100   -1.0640    0.3258 C   0  0  0  0  0  0  0  0  0  0  0  0 
    7.4251   -2.0381    1.5587 C   0  0  0  0  0  0  0  0  0  0  0  0 
    9.8812   -0.3994   -0.5324 O   0  0  0  0  0  0  0  0  0  0  0  0 
    3.8743    0.7452   -2.6754 H   0  0  0  0  0  0  0  0  0  0  0  0 
    3.7961   -1.0144   -2.5366 H   0  0  0  0  0  0  0  0  0  0  0  0 
    5.2219   -0.1464   -1.9440 H   0  0  0  0  0  0  0  0  0  0  0  0 
    3.5819   -2.7726   -0.9896 H   0  0  0  0  0  0  0  0  0  0  0  0 
    2.1265   -2.3385   -0.1044 H   0  0  0  0  0  0  0  0  0  0  0  0 
    3.4392   -3.1816    0.7251 H   0  0  0  0  0  0  0  0  0  0  0  0 
    6.2878   -3.5913    0.5988 H   0  0  0  0  0  0  0  0  0  0  0  0 
    7.3510   -4.1626    1.8799 H   0  0  0  0  0  0  0  0  0  0  0  0 
    8.0241   -3.7250    0.3006 H   0  0  0  0  0  0  0  0  0  0  0  0 
    2.3888    0.1170   -0.7706 H   0  0  0  0  0  0  0  0  0  0  0  0 
    3.7963    1.0135   -0.2107 H   0  0  0  0  0  0  0  0  0  0  0  0 
    4.7494   -2.8005    2.2491 H   0  0  0  0  0  0  0  0  0  0  0  0 
    4.5266   -1.5222    3.4266 H   0  0  0  0  0  0  0  0  0  0  0  0 
    4.9166    0.2091    1.5439 H   0  0  0  0  0  0  0  0  0  0  0  0 
    6.7931   -2.3636    3.5750 H   0  0  0  0  0  0  0  0  0  0  0  0 
    6.8019   -0.6699    3.0852 H   0  0  0  0  0  0  0  0  0  0  0  0 
    8.2954   -0.1163    1.4708 H   0  0  0  0  0  0  0  0  0  0  0  0 
    9.1810   -2.2906   -0.5862 H   0  0  0  0  0  0  0  0  0  0  0  0 
  1 15  1  0  0  0  0 
  1  4  1  0  0  0  0 
  2 10  1  0  0  0  0 
  2 18  1  0  0  0  0 
  3 11  1  0  0  0  0 
  3 20  1  0  0  0  0 
  4 23  1  0  0  0  0 
  4 10  1  0  0  0  0 
  5  7  1  0  0  0  0 
  5 25  1  0  0  0  0 
  6 26  1  0  0  0  0 
  6  5  1  0  0  0  0 
  7 28  1  0  0  0  0 
  7 27  1  0  0  0  0 
  8 29  1  0  0  0  0 
  8 11  2  0  0  0  0 
  9  8  1  0  0  0  0 
 10  6  2  0  0  0  0 
 11  7  1  0  0  0  0 
 12  9  2  0  0  0  0 
 13  1  1  0  0  0  0 
 14  1  1  0  0  0  0 
 16  2  1  0  0  0  0 
 17  2  1  0  0  0  0 
 19  3  1  0  0  0  0 
 21  3  1  0  0  0  0 
 22  4  1  0  0  0  0 
 24  5  1  0  0  0  0 
 30  9  1  0  0  0  0 
M  END 
>  <HBA> 
1 
 
>  <HBD> 
0 
 
>  <TPSA> 
17.07 
 
>  <cid> 
38866 
 
>  <dipole> 
4.32 
 
>  <excitation_energy_1> 
3.605 
 
>  <excitation_energy_2> 
4.244 
 
>  <excitation_energy_3> 
5.514 
 
>  <excitation_energy_4> 
5.707 
 
>  <homo_energy> 
-6.403 
 
>  <homo_lumo_gap> 
5.037 
 
>  <logP> 
3.268 
 
>  <lumo_energy> 
-1.366 
 
>  <melting_point> 
28.26 
 
>  <molecular_refractivity> 
54.24 
 
>  <oscillator_strength_1> 
0.0004 
 
>  <oscillator_strength_2> 
0.0017 
 
>  <oscillator_strength_3> 
0.4556 
 
>  <oscillator_strength_4> 
0.0059 
 
>  <open_babel_can_smiles> 
O=C/C=C(/CC/C=C(/CC)\C)\C 
 
>  <mulliken_charges> 
30 
1   -0.443515 
2   -0.523216 
3   -0.531207 
4   -0.318842 
5   -0.309923 
6   -0.158891 
7   -0.341161 
8   -0.234431 
9   0.23237 
10   0.189722 
11   0.224506 
12   -0.422454 
13   0.146561 
14   0.143466 
15   0.154584 
16   0.158385 
17   0.155289 
18   0.15031 
19   0.177559 
20   0.162292 
21   0.168134 
22   0.135024 
23   0.141541 
24   0.141773 
25   0.151967 
26   0.11424 
27   0.147846 
28   0.152107 
29   0.139527 
30   0.096438 
 
>  <lowdin_charges> 
30 
1   -0.443772 
2   -0.446318 
3   -0.449709 
4   -0.266597 
5   -0.272518 
6   -0.193781 
7   -0.274165 
8   -0.226053 
9   0.039782 
10   -0.008775 
11   0.050084 
12   -0.239968 
13   0.152724 
14   0.146765 
15   0.151037 
16   0.156855 
17   0.155631 
18   0.153973 
19   0.169465 
20   0.163136 
21   0.16326 
22   0.14133 
23   0.147711 
24   0.145568 
25   0.15486 
26   0.145932 
27   0.154769 
28   0.151957 
29   0.163563 
30   0.113257 
 
$$$$ 
 
