PCCDB-ID:  8872 
public computational chemistry database (PCCDB) project, http://pccdb.org 
 
 30 29  0  0  0  0  0  0  0  0999 V2000 
    0.6055   -0.2360   -0.5825 C   0  0  0  0  0  0  0  0  0  0  0  0 
    7.9457   -6.8346    2.3230 C   0  0  0  0  0  0  0  0  0  0  0  0 
    8.2951   -6.5245   -0.1450 C   0  0  0  0  0  0  0  0  0  0  0  0 
    2.1254   -0.1807   -0.3957 C   0  0  0  0  0  0  0  0  0  0  0  0 
    2.7743   -1.5668   -0.2960 C   0  0  0  0  0  0  0  0  0  0  0  0 
    4.2968   -1.5126   -0.1116 C   0  0  0  0  0  0  0  0  0  0  0  0 
    4.9454   -2.8992   -0.0069 C   0  0  0  0  0  0  0  0  0  0  0  0 
    6.4573   -2.8076    0.1767 C   0  0  0  0  0  0  0  0  0  0  0  0 
    7.8097   -6.0953    1.2154 C   0  0  0  0  0  0  0  0  0  0  0  0 
    7.1335   -4.7654    1.3606 C   0  0  0  0  0  0  0  0  0  0  0  0 
    6.6932   -4.3105    2.3984 O   0  0  0  0  0  0  0  0  0  0  0  0 
    7.0758   -4.1137    0.1733 O   0  0  0  0  0  0  0  0  0  0  0  0 
    0.1742    0.7695   -0.6459 H   0  0  0  0  0  0  0  0  0  0  0  0 
    0.1217   -0.7539    0.2549 H   0  0  0  0  0  0  0  0  0  0  0  0 
    0.3382   -0.7725   -1.5012 H   0  0  0  0  0  0  0  0  0  0  0  0 
    8.4264   -7.8084    2.2975 H   0  0  0  0  0  0  0  0  0  0  0  0 
    7.5772   -6.4735    3.2775 H   0  0  0  0  0  0  0  0  0  0  0  0 
    8.7457   -7.5204   -0.0975 H   0  0  0  0  0  0  0  0  0  0  0  0 
    9.0403   -5.8238   -0.5387 H   0  0  0  0  0  0  0  0  0  0  0  0 
    7.4747   -6.5471   -0.8708 H   0  0  0  0  0  0  0  0  0  0  0  0 
    2.3629    0.3942    0.5105 H   0  0  0  0  0  0  0  0  0  0  0  0 
    2.5765    0.3714   -1.2327 H   0  0  0  0  0  0  0  0  0  0  0  0 
    2.5367   -2.1449   -1.2013 H   0  0  0  0  0  0  0  0  0  0  0  0 
    2.3268   -2.1193    0.5432 H   0  0  0  0  0  0  0  0  0  0  0  0 
    4.5316   -0.9324    0.7925 H   0  0  0  0  0  0  0  0  0  0  0  0 
    4.7423   -0.9613   -0.9534 H   0  0  0  0  0  0  0  0  0  0  0  0 
    4.7299   -3.4828   -0.9119 H   0  0  0  0  0  0  0  0  0  0  0  0 
    4.5222   -3.4496    0.8420 H   0  0  0  0  0  0  0  0  0  0  0  0 
    6.7090   -2.3000    1.1116 H   0  0  0  0  0  0  0  0  0  0  0  0 
    6.9263   -2.2824   -0.6605 H   0  0  0  0  0  0  0  0  0  0  0  0 
  1  4  1  0  0  0  0 
  1 14  1  0  0  0  0 
  2 17  1  0  0  0  0 
  3 18  1  0  0  0  0 
  3  9  1  0  0  0  0 
  4  5  1  0  0  0  0 
  4 21  1  0  0  0  0 
  5  6  1  0  0  0  0 
  5 24  1  0  0  0  0 
  6  7  1  0  0  0  0 
  6 25  1  0  0  0  0 
  7  8  1  0  0  0  0 
  7 28  1  0  0  0  0 
  8 29  1  0  0  0  0 
  9 10  1  0  0  0  0 
  9  2  2  0  0  0  0 
 10 11  2  0  0  0  0 
 12  8  1  0  0  0  0 
 12 10  1  0  0  0  0 
 13  1  1  0  0  0  0 
 15  1  1  0  0  0  0 
 16  2  1  0  0  0  0 
 19  3  1  0  0  0  0 
 20  3  1  0  0  0  0 
 22  4  1  0  0  0  0 
 23  5  1  0  0  0  0 
 26  6  1  0  0  0  0 
 27  7  1  0  0  0  0 
 30  8  1  0  0  0  0 
M  END 
>  <HBA> 
2 
 
>  <HBD> 
0 
 
>  <TPSA> 
26.3 
 
>  <cid> 
8872 
 
>  <dipole> 
1.71 
 
>  <excitation_energy_1> 
4.807 
 
>  <excitation_energy_2> 
5.847 
 
>  <excitation_energy_3> 
6.167 
 
>  <excitation_energy_4> 
6.793 
 
>  <homo_energy> 
-7.176 
 
>  <homo_lumo_gap> 
6.215 
 
>  <logP> 
2.686 
 
>  <lumo_energy> 
-0.961 
 
>  <melting_point> 
-33.96 
 
>  <molecular_refractivity> 
50.99 
 
>  <oscillator_strength_1> 
0.0001 
 
>  <oscillator_strength_2> 
0.2378 
 
>  <oscillator_strength_3> 
0.1502 
 
>  <oscillator_strength_4> 
0.0066 
 
>  <open_babel_can_smiles> 
CCCCCCOC(=O)C(=C)C 
 
>  <mulliken_charges> 
30 
1   -0.441894 
2   -0.358578 
3   -0.502994 
4   -0.247945 
5   -0.245592 
6   -0.264292 
7   -0.278948 
8   -0.04292 
9   0.127535 
10   0.589346 
11   -0.494579 
12   -0.478323 
13   0.142583 
14   0.142865 
15   0.14147 
16   0.146192 
17   0.177235 
18   0.148967 
19   0.167865 
20   0.167428 
21   0.132216 
22   0.129949 
23   0.128227 
24   0.13261 
25   0.137046 
26   0.128415 
27   0.14008 
28   0.161127 
29   0.167867 
30   0.147041 
 
>  <lowdin_charges> 
30 
1   -0.445155 
2   -0.291484 
3   -0.439724 
4   -0.27336 
5   -0.274361 
6   -0.275402 
7   -0.287422 
8   -0.132847 
9   -0.032574 
10   0.194622 
11   -0.275349 
12   -0.191495 
13   0.149242 
14   0.147974 
15   0.146628 
16   0.16182 
17   0.179199 
18   0.155618 
19   0.166157 
20   0.165419 
21   0.140129 
22   0.139571 
23   0.138551 
24   0.141361 
25   0.142577 
26   0.138869 
27   0.145573 
28   0.156876 
29   0.158119 
30   0.150869 
 
$$$$ 
 
