PCCDB-ID:  7544 
public computational chemistry database (PCCDB) project, http://pccdb.org 
 
 28 29  0  0  0  0  0  0  0  0999 V2000 
    2.5924   -1.8727   -0.4029 C   0  0  0  0  0  0  0  0  0  0  0  0 
    7.6857    2.5975    6.9778 C   0  0  0  0  0  0  0  0  0  0  0  0 
    7.6981    1.3181    6.4201 C   0  0  0  0  0  0  0  0  0  0  0  0 
    6.7985    3.5478    6.4672 C   0  0  0  0  0  0  0  0  0  0  0  0 
    3.8933   -1.8519    3.6189 C   0  0  0  0  0  0  0  0  0  0  0  0 
    6.8427    0.9810    5.3721 C   0  0  0  0  0  0  0  0  0  0  0  0 
    5.9276    3.2191    5.4327 C   0  0  0  0  0  0  0  0  0  0  0  0 
    4.4405   -0.6896    4.1500 C   0  0  0  0  0  0  0  0  0  0  0  0 
    3.4485   -1.9260    2.2959 C   0  0  0  0  0  0  0  0  0  0  0  0 
    4.1272    0.3861    2.0034 C   0  0  0  0  0  0  0  0  0  0  0  0 
    5.9335    1.9291    4.8705 C   0  0  0  0  0  0  0  0  0  0  0  0 
    4.5693    0.4498    3.3309 C   0  0  0  0  0  0  0  0  0  0  0  0 
    3.5624   -0.7860    1.4909 C   0  0  0  0  0  0  0  0  0  0  0  0 
    5.0710    1.6683    3.7999 N   0  0  0  0  0  0  0  0  0  0  0  0 
    3.1628   -0.7154    0.1856 O   0  0  0  0  0  0  0  0  0  0  0  0 
    2.3472   -1.5963   -1.4302 H   0  0  0  0  0  0  0  0  0  0  0  0 
    1.6763   -2.1815    0.1178 H   0  0  0  0  0  0  0  0  0  0  0  0 
    3.2999   -2.7125   -0.4131 H   0  0  0  0  0  0  0  0  0  0  0  0 
    8.3580    2.8515    7.7919 H   0  0  0  0  0  0  0  0  0  0  0  0 
    8.3939    0.5702    6.7920 H   0  0  0  0  0  0  0  0  0  0  0  0 
    6.7751    4.5521    6.8824 H   0  0  0  0  0  0  0  0  0  0  0  0 
    3.7934   -2.7263    4.2571 H   0  0  0  0  0  0  0  0  0  0  0  0 
    6.8960   -0.0051    4.9251 H   0  0  0  0  0  0  0  0  0  0  0  0 
    5.2270    3.9603    5.0534 H   0  0  0  0  0  0  0  0  0  0  0  0 
    4.7334   -0.6502    5.1921 H   0  0  0  0  0  0  0  0  0  0  0  0 
    3.0241   -2.8477    1.9170 H   0  0  0  0  0  0  0  0  0  0  0  0 
    4.2222    1.2444    1.3441 H   0  0  0  0  0  0  0  0  0  0  0  0 
    4.7772    2.4812    3.2775 H   0  0  0  0  0  0  0  0  0  0  0  0 
  1 17  1  0  0  0  0 
  1 15  1  0  0  0  0 
  2 19  1  0  0  0  0 
  3 20  1  0  0  0  0 
  3  2  2  0  0  0  0 
  4 21  1  0  0  0  0 
  4  2  1  0  0  0  0 
  5  8  1  0  0  0  0 
  5 22  1  0  0  0  0 
  6  3  1  0  0  0  0 
  7  4  2  0  0  0  0 
  8 25  1  0  0  0  0 
  9  5  2  0  0  0  0 
 10 12  1  0  0  0  0 
 11  6  2  0  0  0  0 
 11  7  1  0  0  0  0 
 12 14  1  0  0  0  0 
 12  8  2  0  0  0  0 
 13 10  2  0  0  0  0 
 13  9  1  0  0  0  0 
 14 11  1  0  0  0  0 
 15 13  1  0  0  0  0 
 16  1  1  0  0  0  0 
 18  1  1  0  0  0  0 
 23  6  1  0  0  0  0 
 24  7  1  0  0  0  0 
 26  9  1  0  0  0  0 
 27 10  1  0  0  0  0 
 28 14  1  0  0  0  0 
M  END 
>  <HBA> 
1 
 
>  <HBD> 
1 
 
>  <TPSA> 
21.26 
 
>  <cid> 
7544 
 
>  <dipole> 
1.21 
 
>  <excitation_energy_1> 
4.245 
 
>  <excitation_energy_2> 
4.28 
 
>  <excitation_energy_3> 
4.432 
 
>  <excitation_energy_4> 
4.646 
 
>  <homo_energy> 
-5.042 
 
>  <homo_lumo_gap> 
4.982 
 
>  <logP> 
3.512 
 
>  <lumo_energy> 
-0.06 
 
>  <melting_point> 
83.55 
 
>  <molecular_refractivity> 
62.48 
 
>  <oscillator_strength_1> 
0.3704 
 
>  <oscillator_strength_2> 
0.0166 
 
>  <oscillator_strength_3> 
0.0343 
 
>  <oscillator_strength_4> 
0.0916 
 
>  <open_babel_can_smiles> 
COc1cccc(c1)Nc1ccccc1 
 
>  <mulliken_charges> 
28 
1   -0.213021 
2   -0.134839 
3   -0.141085 
4   -0.132616 
5   -0.148117 
6   -0.174956 
7   -0.192252 
8   -0.179512 
9   -0.20418 
10   -0.257327 
11   0.368141 
12   0.377798 
13   0.38202 
14   -0.800309 
15   -0.511706 
16   0.167599 
17   0.151447 
18   0.151713 
19   0.123647 
20   0.128197 
21   0.127514 
22   0.128949 
23   0.144725 
24   0.119381 
25   0.141332 
26   0.125754 
27   0.126728 
28   0.324974 
 
>  <lowdin_charges> 
28 
1   -0.277615 
2   -0.181591 
3   -0.148377 
4   -0.146361 
5   -0.138333 
6   -0.195696 
7   -0.196992 
8   -0.213676 
9   -0.238399 
10   -0.226883 
11   0.061632 
12   0.068476 
13   0.112316 
14   -0.25194 
15   -0.201252 
16   0.160518 
17   0.145068 
18   0.145539 
19   0.156605 
20   0.158266 
21   0.156385 
22   0.15841 
23   0.16595 
24   0.153889 
25   0.164594 
26   0.161161 
27   0.1624 
28   0.285906 
 
$$$$ 
 
