PCCDB-ID:  27589 
public computational chemistry database (PCCDB) project, http://pccdb.org 
 
 30 30  0  0  1  0  0  0  0  0999 V2000 
    2.4667   -0.0650   -1.7410 C   0  0  0  0  0  0  0  0  0  0  0  0 
    0.7314    0.4554    0.0176 C   0  0  0  0  0  0  0  0  0  0  0  0 
    7.5378   -1.4411    1.1703 C   0  0  0  0  0  0  0  0  0  0  0  0 
    2.3558   -2.2888    0.3296 C   0  0  0  0  0  0  0  0  0  0  0  0 
    5.0363   -1.9141    1.6118 C   0  0  0  0  0  0  0  0  0  0  0  0 
    2.2277    0.2236   -0.2493 C   0  0  0  0  0  0  0  0  0  0  0  0 
    6.3413   -1.2581    2.0973 C   0  0  2  0  0  0  0  0  0  0  0  0 
    2.8115   -0.8658    0.7008 C   0  0  2  0  0  0  0  0  0  0  0  0 
    4.3560   -0.7990    0.7988 C   0  0  1  0  0  0  0  0  0  0  0  0 
    4.8989    0.4625    1.4869 C   0  0  0  0  0  0  0  0  0  0  0  0 
    4.4712    1.5898    1.4534 O   0  0  0  0  0  0  0  0  0  0  0  0 
    6.0174    0.1530    2.2008 O   0  0  0  0  0  0  0  0  0  0  0  0 
    2.1419    0.7890   -2.3465 H   0  0  0  0  0  0  0  0  0  0  0  0 
    1.9033   -0.9413   -2.0839 H   0  0  0  0  0  0  0  0  0  0  0  0 
    3.5250   -0.2389   -1.9707 H   0  0  0  0  0  0  0  0  0  0  0  0 
    0.3555    1.2816   -0.5973 H   0  0  0  0  0  0  0  0  0  0  0  0 
    0.5507    0.7157    1.0673 H   0  0  0  0  0  0  0  0  0  0  0  0 
    0.1245   -0.4273   -0.2200 H   0  0  0  0  0  0  0  0  0  0  0  0 
    7.8577   -2.4894    1.1685 H   0  0  0  0  0  0  0  0  0  0  0  0 
    8.3768   -0.8240    1.5057 H   0  0  0  0  0  0  0  0  0  0  0  0 
    7.2936   -1.1550    0.1410 H   0  0  0  0  0  0  0  0  0  0  0  0 
    1.2693   -2.3342    0.2036 H   0  0  0  0  0  0  0  0  0  0  0  0 
    2.6206   -3.0125    1.1076 H   0  0  0  0  0  0  0  0  0  0  0  0 
    2.8123   -2.6284   -0.6077 H   0  0  0  0  0  0  0  0  0  0  0  0 
    4.4132   -2.1810    2.4741 H   0  0  0  0  0  0  0  0  0  0  0  0 
    5.2214   -2.8260    1.0375 H   0  0  0  0  0  0  0  0  0  0  0  0 
    2.7448    1.1549    0.0006 H   0  0  0  0  0  0  0  0  0  0  0  0 
    6.6064   -1.5767    3.1099 H   0  0  0  0  0  0  0  0  0  0  0  0 
    2.4245   -0.6453    1.7070 H   0  0  0  0  0  0  0  0  0  0  0  0 
    4.7737   -0.7934   -0.2191 H   0  0  0  0  0  0  0  0  0  0  0  0 
  1  6  1  0  0  0  0 
  2 17  1  0  0  0  0 
  3 20  1  0  0  0  0 
  3  7  1  0  0  0  0 
  4  8  1  0  0  0  0 
  4 23  1  0  0  0  0 
  5  7  1  0  0  0  0 
  5 25  1  0  0  0  0 
  6 27  1  0  0  0  0 
  6  2  1  0  0  0  0 
  6  8  1  0  0  0  0 
  7 12  1  0  0  0  0 
  7 28  1  1  0  0  0 
  8  9  1  0  0  0  0 
  8 29  1  1  0  0  0 
  9 30  1  6  0  0  0 
  9 10  1  0  0  0  0 
  9  5  1  0  0  0  0 
 10 12  1  0  0  0  0 
 11 10  2  0  0  0  0 
 13  1  1  0  0  0  0 
 14  1  1  0  0  0  0 
 15  1  1  0  0  0  0 
 16  2  1  0  0  0  0 
 18  2  1  0  0  0  0 
 19  3  1  0  0  0  0 
 21  3  1  0  0  0  0 
 22  4  1  0  0  0  0 
 24  4  1  0  0  0  0 
 26  5  1  0  0  0  0 
M  END 
>  <HBA> 
2 
 
>  <HBD> 
0 
 
>  <TPSA> 
26.3 
 
>  <cid> 
27589 
 
>  <dipole> 
4.11 
 
>  <excitation_energy_1> 
5.504 
 
>  <excitation_energy_2> 
6.531 
 
>  <excitation_energy_3> 
6.854 
 
>  <excitation_energy_4> 
6.947 
 
>  <homo_energy> 
-6.999 
 
>  <homo_lumo_gap> 
7.339 
 
>  <logP> 
2.23 
 
>  <lumo_energy> 
0.34 
 
>  <melting_point> 
5.8 
 
>  <molecular_refractivity> 
49.35 
 
>  <oscillator_strength_1> 
0.0003 
 
>  <oscillator_strength_2> 
0.003 
 
>  <oscillator_strength_3> 
0.002 
 
>  <oscillator_strength_4> 
0.0008 
 
>  <open_babel_can_smiles> 
C[C@H]1OC(=O)[C@@H](C1)[C@@H](C(C)C)C 
 
>  <mulliken_charges> 
30 
1   -0.455713 
2   -0.452332 
3   -0.455455 
4   -0.464221 
5   -0.316074 
6   -0.089157 
7   0.126637 
8   -0.068881 
9   -0.218411 
10   0.626048 
11   -0.460621 
12   -0.458103 
13   0.146224 
14   0.14015 
15   0.135299 
16   0.142999 
17   0.144228 
18   0.135573 
19   0.150443 
20   0.170772 
21   0.153195 
22   0.152731 
23   0.143647 
24   0.144031 
25   0.156187 
26   0.155627 
27   0.174433 
28   0.150058 
29   0.126043 
30   0.164645 
 
>  <lowdin_charges> 
30 
1   -0.449109 
2   -0.445175 
3   -0.452558 
4   -0.449204 
5   -0.292429 
6   -0.13415 
7   0.008639 
8   -0.1164 
9   -0.166935 
10   0.191304 
11   -0.240347 
12   -0.190015 
13   0.153267 
14   0.145284 
15   0.140954 
16   0.151307 
17   0.148058 
18   0.142002 
19   0.156177 
20   0.166439 
21   0.153295 
22   0.152483 
23   0.150145 
24   0.147992 
25   0.154823 
26   0.157972 
27   0.163725 
28   0.149734 
29   0.141236 
30   0.161486 
 
$$$$ 
 
