PCCDB-ID:  25187 
public computational chemistry database (PCCDB) project, http://pccdb.org 
 
 29 29  0  0  0  0  0  0  0  0999 V2000 
    1.1586   -1.3211    1.9620 C   0  0  0  0  0  0  0  0  0  0  0  0 
    2.1041   -0.8874   -0.1969 C   0  0  0  0  0  0  0  0  0  0  0  0 
    8.7174   -4.2079   -0.6809 C   0  0  0  0  0  0  0  0  0  0  0  0 
    8.6939   -3.9083    0.6823 C   0  0  0  0  0  0  0  0  0  0  0  0 
    7.5409   -4.1101   -1.4262 C   0  0  0  0  0  0  0  0  0  0  0  0 
    4.8505   -1.4089    1.1439 C   0  0  0  0  0  0  0  0  0  0  0  0 
    7.5026   -3.5122    1.2920 C   0  0  0  0  0  0  0  0  0  0  0  0 
    6.3528   -3.7144   -0.8105 C   0  0  0  0  0  0  0  0  0  0  0  0 
    5.0314   -2.9386    1.2095 C   0  0  0  0  0  0  0  0  0  0  0  0 
    3.5338   -0.9290    1.7681 C   0  0  0  0  0  0  0  0  0  0  0  0 
    6.3137   -3.4078    0.5569 C   0  0  0  0  0  0  0  0  0  0  0  0 
    2.3371   -1.4698    1.1185 N   0  0  0  0  0  0  0  0  0  0  0  0 
    0.2951   -1.7858    1.4733 H   0  0  0  0  0  0  0  0  0  0  0  0 
    0.9000   -0.2640    2.1733 H   0  0  0  0  0  0  0  0  0  0  0  0 
    1.3204   -1.8282    2.9194 H   0  0  0  0  0  0  0  0  0  0  0  0 
    1.2261   -1.3563   -0.6541 H   0  0  0  0  0  0  0  0  0  0  0  0 
    2.9583   -1.0692   -0.8555 H   0  0  0  0  0  0  0  0  0  0  0  0 
    1.9281    0.2069   -0.1599 H   0  0  0  0  0  0  0  0  0  0  0  0 
    9.6433   -4.5191   -1.1574 H   0  0  0  0  0  0  0  0  0  0  0  0 
    9.6030   -3.9871    1.2733 H   0  0  0  0  0  0  0  0  0  0  0  0 
    7.5466   -4.3475   -2.4871 H   0  0  0  0  0  0  0  0  0  0  0  0 
    4.9289   -1.0779    0.1007 H   0  0  0  0  0  0  0  0  0  0  0  0 
    5.6775   -0.9176    1.6735 H   0  0  0  0  0  0  0  0  0  0  0  0 
    7.4918   -3.2866    2.3566 H   0  0  0  0  0  0  0  0  0  0  0  0 
    5.4381   -3.6487   -1.3965 H   0  0  0  0  0  0  0  0  0  0  0  0 
    4.1653   -3.4103    0.7327 H   0  0  0  0  0  0  0  0  0  0  0  0 
    5.0163   -3.2508    2.2626 H   0  0  0  0  0  0  0  0  0  0  0  0 
    3.5177    0.1805    1.7824 H   0  0  0  0  0  0  0  0  0  0  0  0 
    3.5096   -1.2537    2.8164 H   0  0  0  0  0  0  0  0  0  0  0  0 
  1 14  1  0  0  0  0 
  1 15  1  0  0  0  0 
  2 18  1  0  0  0  0 
  2 12  1  0  0  0  0 
  3  4  2  0  0  0  0 
  4 20  1  0  0  0  0 
  4  7  1  0  0  0  0 
  5  8  2  0  0  0  0 
  5  3  1  0  0  0  0 
  6  9  1  0  0  0  0 
  6 23  1  0  0  0  0 
  6 10  1  0  0  0  0 
  7 24  1  0  0  0  0 
  8 11  1  0  0  0  0 
  9 27  1  0  0  0  0 
 10 28  1  0  0  0  0 
 10 29  1  0  0  0  0 
 11  9  1  0  0  0  0 
 11  7  2  0  0  0  0 
 12 10  1  0  0  0  0 
 12  1  1  0  0  0  0 
 13  1  1  0  0  0  0 
 16  2  1  0  0  0  0 
 17  2  1  0  0  0  0 
 19  3  1  0  0  0  0 
 21  5  1  0  0  0  0 
 22  6  1  0  0  0  0 
 25  8  1  0  0  0  0 
 26  9  1  0  0  0  0 
M  END 
>  <HBA> 
1 
 
>  <HBD> 
0 
 
>  <TPSA> 
3.24 
 
>  <cid> 
25187 
 
>  <dipole> 
0.95 
 
>  <excitation_energy_1> 
5.158 
 
>  <excitation_energy_2> 
5.198 
 
>  <excitation_energy_3> 
5.253 
 
>  <excitation_energy_4> 
5.375 
 
>  <homo_energy> 
-5.701 
 
>  <homo_lumo_gap> 
5.899 
 
>  <logP> 
2.181 
 
>  <lumo_energy> 
0.199 
 
>  <melting_point> 
7.13 
 
>  <molecular_refractivity> 
53.53 
 
>  <oscillator_strength_1> 
0.003 
 
>  <oscillator_strength_2> 
0.0389 
 
>  <oscillator_strength_3> 
0.0393 
 
>  <oscillator_strength_4> 
0.0003 
 
>  <open_babel_can_smiles> 
CN(CCCc1ccccc1)C 
 
>  <mulliken_charges> 
29 
1   -0.293064 
2   -0.30126 
3   -0.132388 
4   -0.127781 
5   -0.127927 
6   -0.266003 
7   -0.181561 
8   -0.182826 
9   -0.342962 
10   -0.114893 
11   0.173032 
12   -0.362199 
13   0.14697 
14   0.116339 
15   0.148685 
16   0.148307 
17   0.152427 
18   0.116768 
19   0.125076 
20   0.125477 
21   0.125547 
22   0.140985 
23   0.136148 
24   0.118893 
25   0.121086 
26   0.162258 
27   0.133254 
28   0.109712 
29   0.131899 
 
>  <lowdin_charges> 
29 
1   -0.355168 
2   -0.35753 
3   -0.164175 
4   -0.157096 
5   -0.154017 
6   -0.278757 
7   -0.16698 
8   -0.16972 
9   -0.274684 
10   -0.19591 
11   0.001623 
12   -0.184137 
13   0.149731 
14   0.118254 
15   0.14905 
16   0.150963 
17   0.150897 
18   0.117707 
19   0.155948 
20   0.155924 
21   0.153831 
22   0.142515 
23   0.1479 
24   0.150609 
25   0.15355 
26   0.159036 
27   0.143936 
28   0.11587 
29   0.140833 
 
$$$$ 
 
