PCCDB-ID:  45835 
public computational chemistry database (PCCDB) project, http://pccdb.org 
 
 28 29  0  0  1  0  0  0  0  0999 V2000 
    3.7553   -0.9242    0.4328 C   0  0  0  0  0  0  0  0  0  0  0  0 
    5.0286    3.4244   -3.2327 C   0  0  0  0  0  0  0  0  0  0  0  0 
    3.4552   -0.4827   -3.8268 C   0  0  0  0  0  0  0  0  0  0  0  0 
    2.1456    0.3607   -3.8155 C   0  0  0  0  0  0  0  0  0  0  0  0 
    5.0016    1.1024   -2.5490 C   0  0  0  0  0  0  0  0  0  0  0  0 
    2.9433    2.4120   -2.5177 C   0  0  0  0  0  0  0  0  0  0  0  0 
    2.7729   -0.0055   -0.2841 C   0  0  0  0  0  0  0  0  0  0  0  0 
    4.1224   -0.1611   -2.4662 C   0  0  1  0  0  0  0  0  0  0  0  0 
    2.1705    1.0839   -2.4475 C   0  0  2  0  0  0  0  0  0  0  0  0 
    4.2488    2.2013   -3.1526 N   0  0  0  0  0  0  0  0  0  0  0  0 
    2.9584    0.1533   -1.6308 N   0  0  0  0  0  0  0  0  0  0  0  0 
    1.8456    0.5374    0.3103 O   0  0  0  0  0  0  0  0  0  0  0  0 
    4.7507   -0.4682    0.4947 H   0  0  0  0  0  0  0  0  0  0  0  0 
    3.8610   -1.8897   -0.0741 H   0  0  0  0  0  0  0  0  0  0  0  0 
    3.3811   -1.0871    1.4445 H   0  0  0  0  0  0  0  0  0  0  0  0 
    5.9527    3.2382   -3.7918 H   0  0  0  0  0  0  0  0  0  0  0  0 
    5.3049    3.8330   -2.2407 H   0  0  0  0  0  0  0  0  0  0  0  0 
    4.4564    4.1914   -3.7664 H   0  0  0  0  0  0  0  0  0  0  0  0 
    4.1096   -0.2245   -4.6635 H   0  0  0  0  0  0  0  0  0  0  0  0 
    3.2310   -1.5524   -3.8865 H   0  0  0  0  0  0  0  0  0  0  0  0 
    1.2648   -0.2854   -3.8814 H   0  0  0  0  0  0  0  0  0  0  0  0 
    2.1092    1.0733   -4.6434 H   0  0  0  0  0  0  0  0  0  0  0  0 
    5.8857    0.9074   -3.1703 H   0  0  0  0  0  0  0  0  0  0  0  0 
    5.3635    1.3489   -1.5292 H   0  0  0  0  0  0  0  0  0  0  0  0 
    3.0319    2.8188   -1.4921 H   0  0  0  0  0  0  0  0  0  0  0  0 
    2.3875    3.1444   -3.1173 H   0  0  0  0  0  0  0  0  0  0  0  0 
    4.6973   -0.9951   -2.0579 H   0  0  0  0  0  0  0  0  0  0  0  0 
    1.1912    1.2342   -1.9929 H   0  0  0  0  0  0  0  0  0  0  0  0 
  1 13  1  0  0  0  0 
  1 15  1  0  0  0  0 
  2 10  1  0  0  0  0 
  2 17  1  0  0  0  0 
  3  4  1  0  0  0  0 
  3  8  1  0  0  0  0 
  4  9  1  0  0  0  0 
  5  8  1  0  0  0  0 
  5 24  1  0  0  0  0 
  6  9  1  0  0  0  0 
  6 25  1  0  0  0  0 
  7 12  2  0  0  0  0 
  7  1  1  0  0  0  0 
  8 27  1  1  0  0  0 
  8 11  1  0  0  0  0 
  9 28  1  1  0  0  0 
  9 11  1  0  0  0  0 
 10  5  1  0  0  0  0 
 10  6  1  0  0  0  0 
 11  7  1  0  0  0  0 
 14  1  1  0  0  0  0 
 16  2  1  0  0  0  0 
 18  2  1  0  0  0  0 
 19  3  1  0  0  0  0 
 20  3  1  0  0  0  0 
 21  4  1  0  0  0  0 
 22  4  1  0  0  0  0 
 23  5  1  0  0  0  0 
 26  6  1  0  0  0  0 
M  END 
>  <HBA> 
3 
 
>  <HBD> 
0 
 
>  <TPSA> 
23.55 
 
>  <cid> 
45835 
 
>  <dipole> 
3.57 
 
>  <excitation_energy_1> 
5.206 
 
>  <excitation_energy_2> 
5.5 
 
>  <excitation_energy_3> 
5.59 
 
>  <excitation_energy_4> 
5.703 
 
>  <homo_energy> 
-5.867 
 
>  <homo_lumo_gap> 
6.803 
 
>  <logP> 
0.187 
 
>  <lumo_energy> 
0.936 
 
>  <melting_point> 
43.26 
 
>  <molecular_refractivity> 
54.97 
 
>  <oscillator_strength_1> 
0.0092 
 
>  <oscillator_strength_2> 
0.0087 
 
>  <oscillator_strength_3> 
0.0048 
 
>  <oscillator_strength_4> 
0.0078 
 
>  <open_babel_can_smiles> 
CN1C[C@@H]2CC[C@H](C1)N2C(=O)C 
 
>  <mulliken_charges> 
28 
1   -0.543101 
2   -0.29031 
3   -0.262512 
4   -0.267195 
5   -0.103266 
6   -0.11691 
7   0.563029 
8   -0.018733 
9   -0.007005 
10   -0.396062 
11   -0.404443 
12   -0.514748 
13   0.165837 
14   0.163319 
15   0.184544 
16   0.147288 
17   0.123333 
18   0.150363 
19   0.149287 
20   0.141636 
21   0.145092 
22   0.149217 
23   0.139832 
24   0.113864 
25   0.135161 
26   0.140441 
27   0.141566 
28   0.170476 
 
>  <lowdin_charges> 
28 
1   -0.47349 
2   -0.355378 
3   -0.281658 
4   -0.28356 
5   -0.207464 
6   -0.207421 
7   0.157527 
8   -0.068696 
9   -0.064098 
10   -0.190262 
11   -0.110796 
12   -0.320025 
13   0.164619 
14   0.162709 
15   0.176493 
16   0.149619 
17   0.123217 
18   0.152662 
19   0.15468 
20   0.146994 
21   0.150925 
22   0.15474 
23   0.146608 
24   0.118693 
25   0.130587 
26   0.148243 
27   0.15499 
28   0.169543 
 
$$$$ 
 
