PCCDB-ID:  25139 
public computational chemistry database (PCCDB) project, http://pccdb.org 
 
 33 32  0  0  0  0  0  0  0  0999 V2000 
    0.9748    2.0486    2.1140 C   0  0  0  0  0  0  0  0  0  0  0  0 
    6.9660    1.6101    6.9557 C   0  0  0  0  0  0  0  0  0  0  0  0 
    6.5397   -0.8089    7.5308 C   0  0  0  0  0  0  0  0  0  0  0  0 
    1.7893    2.3588    3.3758 C   0  0  0  0  0  0  0  0  0  0  0  0 
    3.3100    2.1895    3.2152 C   0  0  0  0  0  0  0  0  0  0  0  0 
    3.7682    0.7434    2.9738 C   0  0  0  0  0  0  0  0  0  0  0  0 
    5.2899    0.5766    2.8053 C   0  0  0  0  0  0  0  0  0  0  0  0 
    6.1541    0.9299    4.0291 C   0  0  0  0  0  0  0  0  0  0  0  0 
    5.8848    0.0392    5.2509 C   0  0  0  0  0  0  0  0  0  0  0  0 
    6.8957    0.1763    6.4062 C   0  0  0  0  0  0  0  0  0  0  0  0 
    8.1697   -0.1888    5.8435 O   0  0  0  0  0  0  0  0  0  0  0  0 
    1.3051    2.6673    1.2700 H   0  0  0  0  0  0  0  0  0  0  0  0 
   -0.0909    2.2488    2.2748 H   0  0  0  0  0  0  0  0  0  0  0  0 
    1.0689    0.9996    1.8122 H   0  0  0  0  0  0  0  0  0  0  0  0 
    5.9908    1.9447    7.3287 H   0  0  0  0  0  0  0  0  0  0  0  0 
    7.3009    2.3091    6.1841 H   0  0  0  0  0  0  0  0  0  0  0  0 
    7.6752    1.6655    7.7926 H   0  0  0  0  0  0  0  0  0  0  0  0 
    5.5592   -0.5850    7.9674 H   0  0  0  0  0  0  0  0  0  0  0  0 
    7.2816   -0.7593    8.3389 H   0  0  0  0  0  0  0  0  0  0  0  0 
    6.5233   -1.8343    7.1470 H   0  0  0  0  0  0  0  0  0  0  0  0 
    1.4404    1.7214    4.2012 H   0  0  0  0  0  0  0  0  0  0  0  0 
    1.5829    3.3927    3.6843 H   0  0  0  0  0  0  0  0  0  0  0  0 
    3.7978    2.5808    4.1180 H   0  0  0  0  0  0  0  0  0  0  0  0 
    3.6581    2.8221    2.3843 H   0  0  0  0  0  0  0  0  0  0  0  0 
    3.2833    0.3549    2.0685 H   0  0  0  0  0  0  0  0  0  0  0  0 
    3.4110    0.1098    3.7986 H   0  0  0  0  0  0  0  0  0  0  0  0 
    5.6183    1.1921    1.9554 H   0  0  0  0  0  0  0  0  0  0  0  0 
    5.4974   -0.4650    2.5210 H   0  0  0  0  0  0  0  0  0  0  0  0 
    6.0071    1.9855    4.2916 H   0  0  0  0  0  0  0  0  0  0  0  0 
    7.2096    0.8258    3.7536 H   0  0  0  0  0  0  0  0  0  0  0  0 
    5.8984   -1.0124    4.9326 H   0  0  0  0  0  0  0  0  0  0  0  0 
    4.8817    0.2321    5.6532 H   0  0  0  0  0  0  0  0  0  0  0  0 
    8.8339   -0.0908    6.5442 H   0  0  0  0  0  0  0  0  0  0  0  0 
  1 13  1  0  0  0  0 
  1  4  1  0  0  0  0 
  2 15  1  0  0  0  0 
  2 17  1  0  0  0  0 
  3 18  1  0  0  0  0 
  3 19  1  0  0  0  0 
  4 22  1  0  0  0  0 
  4 21  1  0  0  0  0 
  5  4  1  0  0  0  0 
  5 23  1  0  0  0  0 
  6  5  1  0  0  0  0 
  6 26  1  0  0  0  0 
  7  6  1  0  0  0  0 
  7  8  1  0  0  0  0 
  8 29  1  0  0  0  0 
  8  9  1  0  0  0  0 
  9 32  1  0  0  0  0 
  9 10  1  0  0  0  0 
 10  2  1  0  0  0  0 
 10  3  1  0  0  0  0 
 11 10  1  0  0  0  0 
 11 33  1  0  0  0  0 
 12  1  1  0  0  0  0 
 14  1  1  0  0  0  0 
 16  2  1  0  0  0  0 
 20  3  1  0  0  0  0 
 24  5  1  0  0  0  0 
 25  6  1  0  0  0  0 
 27  7  1  0  0  0  0 
 28  7  1  0  0  0  0 
 30  8  1  0  0  0  0 
 31  9  1  0  0  0  0 
M  END 
>  <HBA> 
1 
 
>  <HBD> 
1 
 
>  <TPSA> 
20.23 
 
>  <cid> 
25139 
 
>  <dipole> 
1.45 
 
>  <excitation_energy_1> 
6.368 
 
>  <excitation_energy_2> 
7.121 
 
>  <excitation_energy_3> 
7.256 
 
>  <excitation_energy_4> 
7.327 
 
>  <homo_energy> 
-7.04 
 
>  <homo_lumo_gap> 
8.762 
 
>  <logP> 
3.118 
 
>  <lumo_energy> 
1.722 
 
>  <melting_point> 
0.42 
 
>  <molecular_refractivity> 
51.38 
 
>  <oscillator_strength_1> 
0.0206 
 
>  <oscillator_strength_2> 
0.0012 
 
>  <oscillator_strength_3> 
0.0012 
 
>  <oscillator_strength_4> 
0.0003 
 
>  <open_babel_can_smiles> 
CCCCCCCC(O)(C)C 
 
>  <mulliken_charges> 
33 
1   -0.442637 
2   -0.462533 
3   -0.45261 
4   -0.248189 
5   -0.250004 
6   -0.257391 
7   -0.262593 
8   -0.268721 
9   -0.253959 
10   0.304889 
11   -0.63688 
12   0.140162 
13   0.140649 
14   0.146403 
15   0.141117 
16   0.160401 
17   0.127403 
18   0.139454 
19   0.126669 
20   0.153489 
21   0.127552 
22   0.128727 
23   0.129762 
24   0.124744 
25   0.131157 
26   0.128492 
27   0.125455 
28   0.128081 
29   0.129296 
30   0.156845 
31   0.135344 
32   0.12715 
33   0.382278 
 
>  <lowdin_charges> 
33 
1   -0.445276 
2   -0.461203 
3   -0.454879 
4   -0.272545 
5   -0.279582 
6   -0.282515 
7   -0.274398 
8   -0.279915 
9   -0.277647 
10   0.124746 
11   -0.467051 
12   0.146284 
13   0.14741 
14   0.145936 
15   0.151671 
16   0.15869 
17   0.14332 
18   0.150199 
19   0.142816 
20   0.154647 
21   0.138418 
22   0.139518 
23   0.140339 
24   0.13738 
25   0.142214 
26   0.137742 
27   0.140174 
28   0.139133 
29   0.135692 
30   0.153991 
31   0.145185 
32   0.14079 
33   0.338717 
 
$$$$ 
 
