PCCDB-ID:  54873 
public computational chemistry database (PCCDB) project, http://pccdb.org 
 
 24 25  0  0  0  0  0  0  0  0999 V2000 
    0.9838    0.4420    0.2428 C   0  0  0  0  0  0  0  0  0  0  0  0 
    4.5520    1.4174   -0.7088 C   0  0  0  0  0  0  0  0  0  0  0  0 
    3.1844    1.4956   -0.4524 C   0  0  0  0  0  0  0  0  0  0  0  0 
    5.2188    0.1982   -0.5853 C   0  0  0  0  0  0  0  0  0  0  0  0 
    4.7421   -4.7419    1.1070 C   0  0  0  0  0  0  0  0  0  0  0  0 
    5.1966   -4.9506   -0.3360 C   0  0  0  0  0  0  0  0  0  0  0  0 
    3.1437   -0.8562    0.0520 C   0  0  0  0  0  0  0  0  0  0  0  0 
    2.4612    0.3580   -0.0659 C   0  0  0  0  0  0  0  0  0  0  0  0 
    4.5169   -0.9510   -0.2042 C   0  0  0  0  0  0  0  0  0  0  0  0 
    5.2566   -2.2649   -0.0896 C   0  0  0  0  0  0  0  0  0  0  0  0 
    5.1697   -3.0262    1.6229 S   0  0  0  0  0  0  0  0  0  0  0  0 
    4.6325   -3.5065   -1.3067 S   0  0  0  0  0  0  0  0  0  0  0  0 
    0.5345    1.3411   -0.1913 H   0  0  0  0  0  0  0  0  0  0  0  0 
    0.8056    0.4758    1.3258 H   0  0  0  0  0  0  0  0  0  0  0  0 
    0.4429   -0.4280   -0.1459 H   0  0  0  0  0  0  0  0  0  0  0  0 
    5.1002    2.3067   -1.0083 H   0  0  0  0  0  0  0  0  0  0  0  0 
    2.6692    2.4483   -0.5522 H   0  0  0  0  0  0  0  0  0  0  0  0 
    6.2853    0.1373   -0.7886 H   0  0  0  0  0  0  0  0  0  0  0  0 
    5.2557   -5.4299    1.7868 H   0  0  0  0  0  0  0  0  0  0  0  0 
    3.6634   -4.8950    1.1975 H   0  0  0  0  0  0  0  0  0  0  0  0 
    4.7400   -5.8441   -0.7749 H   0  0  0  0  0  0  0  0  0  0  0  0 
    6.2852   -5.0479   -0.3962 H   0  0  0  0  0  0  0  0  0  0  0  0 
    2.6023   -1.7497    0.3519 H   0  0  0  0  0  0  0  0  0  0  0  0 
    6.3158   -2.0940   -0.2930 H   0  0  0  0  0  0  0  0  0  0  0  0 
  1 14  1  0  0  0  0 
  2  4  2  0  0  0  0 
  2  3  1  0  0  0  0 
  3  8  2  0  0  0  0 
  4  9  1  0  0  0  0 
  5 20  1  0  0  0  0 
  5 11  1  0  0  0  0 
  5 19  1  0  0  0  0 
  6  5  1  0  0  0  0 
  7 23  1  0  0  0  0 
  8  7  1  0  0  0  0 
  8  1  1  0  0  0  0 
  9 10  1  0  0  0  0 
  9  7  2  0  0  0  0 
 10 11  1  0  0  0  0 
 12  6  1  0  0  0  0 
 12 10  1  0  0  0  0 
 13  1  1  0  0  0  0 
 15  1  1  0  0  0  0 
 16  2  1  0  0  0  0 
 17  3  1  0  0  0  0 
 18  4  1  0  0  0  0 
 21  6  1  0  0  0  0 
 22  6  1  0  0  0  0 
 24 10  1  0  0  0  0 
M  END 
>  <HBA> 
2 
 
>  <HBD> 
0 
 
>  <TPSA> 
50.6 
 
>  <cid> 
54873 
 
>  <dipole> 
0.89 
 
>  <excitation_energy_1> 
4.624 
 
>  <excitation_energy_2> 
4.677 
 
>  <excitation_energy_3> 
4.747 
 
>  <excitation_energy_4> 
4.941 
 
>  <homo_energy> 
-5.989 
 
>  <homo_lumo_gap> 
5.614 
 
>  <logP> 
3.474 
 
>  <lumo_energy> 
-0.376 
 
>  <melting_point> 
51.18 
 
>  <molecular_refractivity> 
59.06 
 
>  <oscillator_strength_1> 
0.0029 
 
>  <oscillator_strength_2> 
0.0084 
 
>  <oscillator_strength_3> 
0.0029 
 
>  <oscillator_strength_4> 
0.0066 
 
>  <open_babel_can_smiles> 
Cc1cccc(c1)C1SCCS1 
 
>  <mulliken_charges> 
24 
1   -0.528619 
2   -0.124313 
3   -0.176795 
4   -0.180643 
5   -0.412999 
6   -0.418326 
7   -0.195244 
8   0.17161 
9   0.168924 
10   -0.496035 
11   0.112078 
12   0.133006 
13   0.154398 
14   0.167698 
15   0.161519 
16   0.130046 
17   0.123148 
18   0.12823 
19   0.182169 
20   0.188556 
21   0.183646 
22   0.186198 
23   0.140707 
24   0.201043 
 
>  <lowdin_charges> 
24 
1   -0.441903 
2   -0.155379 
3   -0.164476 
4   -0.164429 
5   -0.376632 
6   -0.376593 
7   -0.153562 
8   0.004425 
9   -0.017069 
10   -0.309551 
11   0.084815 
12   0.116898 
13   0.157225 
14   0.161429 
15   0.161322 
16   0.159187 
17   0.155184 
18   0.154969 
19   0.172144 
20   0.162553 
21   0.174869 
22   0.161391 
23   0.166259 
24   0.166925 
 
$$$$ 
 
