PCCDB-ID:  53167 
public computational chemistry database (PCCDB) project, http://pccdb.org 
 
 19 19  0  0  0  0  0  0  0  0999 V2000 
    0.9476    0.0301    0.0624 C   0  0  0  0  0  0  0  0  0  0  0  0 
    4.4480   -1.1249    0.8200 C   0  0  0  0  0  0  0  0  0  0  0  0 
    4.4160    1.2837    0.8101 C   0  0  0  0  0  0  0  0  0  0  0  0 
    2.9198   -1.1453    0.8163 C   0  0  0  0  0  0  0  0  0  0  0  0 
    2.8877    1.2637    0.8065 C   0  0  0  0  0  0  0  0  0  0  0  0 
    4.9067    0.0885    1.4973 N   0  0  0  0  0  0  0  0  0  0  0  0 
    2.3979    0.0498    0.1535 N   0  0  0  0  0  0  0  0  0  0  0  0 
    0.6237   -0.8633   -0.4835 H   0  0  0  0  0  0  0  0  0  0  0  0 
    0.6001    0.9107   -0.4900 H   0  0  0  0  0  0  0  0  0  0  0  0 
    0.4452    0.0270    1.0505 H   0  0  0  0  0  0  0  0  0  0  0  0 
    4.8004   -1.1928   -0.2267 H   0  0  0  0  0  0  0  0  0  0  0  0 
    4.8255   -1.9992    1.3630 H   0  0  0  0  0  0  0  0  0  0  0  0 
    4.7702    2.1721    1.3457 H   0  0  0  0  0  0  0  0  0  0  0  0 
    4.7665    1.3522   -0.2372 H   0  0  0  0  0  0  0  0  0  0  0  0 
    2.5593   -1.2245    1.8615 H   0  0  0  0  0  0  0  0  0  0  0  0 
    2.5635   -2.0287    0.2722 H   0  0  0  0  0  0  0  0  0  0  0  0 
    2.5081    2.1329    0.2553 H   0  0  0  0  0  0  0  0  0  0  0  0 
    2.5253    1.3419    1.8511 H   0  0  0  0  0  0  0  0  0  0  0  0 
    5.9237    0.1023    1.5334 H   0  0  0  0  0  0  0  0  0  0  0  0 
  1  7  1  0  0  0  0 
  1 10  1  0  0  0  0 
  2 12  1  0  0  0  0 
  2  6  1  0  0  0  0 
  3 13  1  0  0  0  0 
  3  6  1  0  0  0  0 
  4  2  1  0  0  0  0 
  4 15  1  0  0  0  0 
  5  3  1  0  0  0  0 
  5 18  1  0  0  0  0 
  6 19  1  0  0  0  0 
  7  5  1  0  0  0  0 
  7  4  1  0  0  0  0 
  8  1  1  0  0  0  0 
  9  1  1  0  0  0  0 
 11  2  1  0  0  0  0 
 14  3  1  0  0  0  0 
 16  4  1  0  0  0  0 
 17  5  1  0  0  0  0 
M  END 
>  <HBA> 
2 
 
>  <HBD> 
1 
 
>  <TPSA> 
15.27 
 
>  <cid> 
53167 
 
>  <dipole> 
0.47 
 
>  <excitation_energy_1> 
5.315 
 
>  <excitation_energy_2> 
5.374 
 
>  <excitation_energy_3> 
5.55 
 
>  <excitation_energy_4> 
5.866 
 
>  <homo_energy> 
-5.649 
 
>  <homo_lumo_gap> 
7.929 
 
>  <logP> 
-0.212 
 
>  <lumo_energy> 
2.28 
 
>  <melting_point> 
26.49 
 
>  <molecular_refractivity> 
37.56 
 
>  <oscillator_strength_1> 
0.0011 
 
>  <oscillator_strength_2> 
0.0055 
 
>  <oscillator_strength_3> 
0.0391 
 
>  <oscillator_strength_4> 
0.0044 
 
>  <open_babel_can_smiles> 
CN1CCNCC1 
 
>  <mulliken_charges> 
19 
1   -0.288948 
2   -0.133616 
3   -0.133552 
4   -0.108766 
5   -0.108871 
6   -0.552226 
7   -0.385822 
8   0.145672 
9   0.14567 
10   0.117474 
11   0.119351 
12   0.134547 
13   0.13453 
14   0.119348 
15   0.117233 
16   0.132327 
17   0.132343 
18   0.11724 
19   0.296066 
 
>  <lowdin_charges> 
19 
1   -0.355932 
2   -0.207379 
3   -0.20726 
4   -0.202713 
5   -0.202844 
6   -0.365981 
7   -0.190307 
8   0.149018 
9   0.149134 
10   0.12011 
11   0.119906 
12   0.146697 
13   0.146567 
14   0.119896 
15   0.11944 
16   0.14505 
17   0.145175 
18   0.119446 
19   0.251977 
 
$$$$ 
 
