PCCDB-ID:  30463 
public computational chemistry database (PCCDB) project, http://pccdb.org 
 
 35 36  0  0  0  0  0  0  0  0999 V2000 
    4.6388   -0.3940   -1.3566 C   0  0  0  0  0  0  0  0  0  0  0  0 
   10.1065   -1.4707    5.9285 C   0  0  0  0  0  0  0  0  0  0  0  0 
    8.6749   -3.0939    4.7152 C   0  0  0  0  0  0  0  0  0  0  0  0 
    3.8578    0.8306   -0.8710 C   0  0  0  0  0  0  0  0  0  0  0  0 
    8.7715    0.6584    4.5842 C   0  0  0  0  0  0  0  0  0  0  0  0 
    8.0666    1.7147    4.0158 C   0  0  0  0  0  0  0  0  0  0  0  0 
    3.6817    0.8961    0.6554 C   0  0  0  0  0  0  0  0  0  0  0  0 
    7.3736   -0.9234    3.4233 C   0  0  0  0  0  0  0  0  0  0  0  0 
    5.7490    2.1674    1.3350 C   0  0  0  0  0  0  0  0  0  0  0  0 
    8.4607   -0.6913    4.2857 C   0  0  0  0  0  0  0  0  0  0  0  0 
    6.6657    0.1339    2.8475 C   0  0  0  0  0  0  0  0  0  0  0  0 
    7.0213    1.4583    3.1330 C   0  0  0  0  0  0  0  0  0  0  0  0 
    5.4469   -0.1474    2.0346 C   0  0  0  0  0  0  0  0  0  0  0  0 
    9.2047   -1.7442    4.8228 N   0  0  0  0  0  0  0  0  0  0  0  0 
    4.9304    0.9705    1.4110 N   0  0  0  0  0  0  0  0  0  0  0  0 
    4.9176   -1.2545    1.9763 O   0  0  0  0  0  0  0  0  0  0  0  0 
    6.3159    2.5080    2.5883 O   0  0  0  0  0  0  0  0  0  0  0  0 
    4.6925   -0.4130   -2.4509 H   0  0  0  0  0  0  0  0  0  0  0  0 
    4.1677   -1.3227   -1.0181 H   0  0  0  0  0  0  0  0  0  0  0  0 
    5.6643   -0.3923   -0.9716 H   0  0  0  0  0  0  0  0  0  0  0  0 
   10.6074   -2.3977    6.2157 H   0  0  0  0  0  0  0  0  0  0  0  0 
    9.5944   -1.0654    6.8177 H   0  0  0  0  0  0  0  0  0  0  0  0 
   10.8846   -0.7580    5.6317 H   0  0  0  0  0  0  0  0  0  0  0  0 
    9.3974   -3.7939    5.1408 H   0  0  0  0  0  0  0  0  0  0  0  0 
    8.5294   -3.3699    3.6653 H   0  0  0  0  0  0  0  0  0  0  0  0 
    7.7127   -3.2259    5.2374 H   0  0  0  0  0  0  0  0  0  0  0  0 
    2.8527    0.8316   -1.3146 H   0  0  0  0  0  0  0  0  0  0  0  0 
    4.3454    1.7498   -1.2272 H   0  0  0  0  0  0  0  0  0  0  0  0 
    9.5768    0.8942    5.2692 H   0  0  0  0  0  0  0  0  0  0  0  0 
    8.3232    2.7426    4.2527 H   0  0  0  0  0  0  0  0  0  0  0  0 
    3.1650    0.0018    1.0108 H   0  0  0  0  0  0  0  0  0  0  0  0 
    3.0736    1.7715    0.9210 H   0  0  0  0  0  0  0  0  0  0  0  0 
    7.0268   -1.9220    3.1909 H   0  0  0  0  0  0  0  0  0  0  0  0 
    5.1200    3.0084    1.0357 H   0  0  0  0  0  0  0  0  0  0  0  0 
    6.5662    2.0442    0.6050 H   0  0  0  0  0  0  0  0  0  0  0  0 
  1 19  1  0  0  0  0 
  1 20  1  0  0  0  0 
  1  4  1  0  0  0  0 
  2 21  1  0  0  0  0 
  2 22  1  0  0  0  0 
  3 14  1  0  0  0  0 
  3 24  1  0  0  0  0 
  3 26  1  0  0  0  0 
  4  7  1  0  0  0  0 
  5 29  1  0  0  0  0 
  6 30  1  0  0  0  0 
  6  5  2  0  0  0  0 
  7 32  1  0  0  0  0 
  7 31  1  0  0  0  0 
  7 15  1  0  0  0  0 
  8 10  2  0  0  0  0 
  9 15  1  0  0  0  0 
  9 17  1  0  0  0  0 
 10  5  1  0  0  0  0 
 10 14  1  0  0  0  0 
 11 12  2  0  0  0  0 
 11  8  1  0  0  0  0 
 12  6  1  0  0  0  0 
 13 11  1  0  0  0  0 
 14  2  1  0  0  0  0 
 15 13  1  0  0  0  0 
 16 13  2  0  0  0  0 
 17 12  1  0  0  0  0 
 18  1  1  0  0  0  0 
 23  2  1  0  0  0  0 
 25  3  1  0  0  0  0 
 27  4  1  0  0  0  0 
 28  4  1  0  0  0  0 
 33  8  1  0  0  0  0 
 34  9  1  0  0  0  0 
 35  9  1  0  0  0  0 
M  END 
>  <HBA> 
4 
 
>  <HBD> 
0 
 
>  <TPSA> 
32.78 
 
>  <cid> 
30463 
 
>  <dipole> 
1.93 
 
>  <excitation_energy_1> 
3.515 
 
>  <excitation_energy_2> 
4.528 
 
>  <excitation_energy_3> 
4.593 
 
>  <excitation_energy_4> 
4.787 
 
>  <homo_energy> 
-5.004 
 
>  <homo_lumo_gap> 
4.188 
 
>  <logP> 
1.893 
 
>  <lumo_energy> 
-0.816 
 
>  <melting_point> 
78.56 
 
>  <molecular_refractivity> 
71.65 
 
>  <oscillator_strength_1> 
0.0471 
 
>  <oscillator_strength_2> 
0.026 
 
>  <oscillator_strength_3> 
0.0017 
 
>  <oscillator_strength_4> 
0.0476 
 
>  <open_babel_can_smiles> 
CCCN1COc2c(C1=O)cc(cc2)N(C)C 
 
>  <mulliken_charges> 
35 
1   -0.43882 
2   -0.310936 
3   -0.310061 
4   -0.259012 
5   -0.190707 
6   -0.187062 
7   -0.152008 
8   -0.265628 
9   0.085973 
10   0.37184 
11   0.026341 
12   0.309084 
13   0.597943 
14   -0.478021 
15   -0.464604 
16   -0.538644 
17   -0.521549 
18   0.14014 
19   0.164556 
20   0.149339 
21   0.154976 
22   0.147576 
23   0.161382 
24   0.152234 
25   0.168401 
26   0.152546 
27   0.139975 
28   0.129986 
29   0.130141 
30   0.138751 
31   0.186209 
32   0.142501 
33   0.158771 
34   0.160599 
35   0.147787 
 
>  <lowdin_charges> 
35 
1   -0.442975 
2   -0.35217 
3   -0.350188 
4   -0.281445 
5   -0.182371 
6   -0.173168 
7   -0.200544 
8   -0.175444 
9   -0.059371 
10   0.046255 
11   -0.072528 
12   0.076209 
13   0.160045 
14   -0.12493 
15   -0.120726 
16   -0.312474 
17   -0.202925 
18   0.147042 
19   0.159297 
20   0.150012 
21   0.157755 
22   0.13919 
23   0.153049 
24   0.156958 
25   0.155862 
26   0.141284 
27   0.147386 
28   0.13719 
29   0.163402 
30   0.166528 
31   0.174443 
32   0.146304 
33   0.177971 
34   0.160444 
35   0.134634 
 
$$$$ 
 
