PCCDB-ID:  42145 
public computational chemistry database (PCCDB) project, http://pccdb.org 
 
 36 37  0  0  1  0  0  0  0  0999 V2000 
    2.5034    0.7136   -1.0783 C   0  0  0  0  0  0  0  0  0  0  0  0 
    3.9646    4.7593   -0.2364 C   0  0  0  0  0  0  0  0  0  0  0  0 
    3.6688   -1.1478    6.2430 C   0  0  0  0  0  0  0  0  0  0  0  0 
    4.8104   -1.4404    5.4925 C   0  0  0  0  0  0  0  0  0  0  0  0 
    2.7179   -0.2764    5.7181 C   0  0  0  0  0  0  0  0  0  0  0  0 
    4.9850   -0.8692    4.2347 C   0  0  0  0  0  0  0  0  0  0  0  0 
    2.8994    0.2933    4.4537 C   0  0  0  0  0  0  0  0  0  0  0  0 
    4.3497   -0.4914    1.1889 C   0  0  0  0  0  0  0  0  0  0  0  0 
    2.9373   -0.8888    0.7337 C   0  0  0  0  0  0  0  0  0  0  0  0 
    2.0442    1.2770    1.2714 C   0  0  0  0  0  0  0  0  0  0  0  0 
    4.0324    0.0055    3.6817 C   0  0  0  0  0  0  0  0  0  0  0  0 
    4.3269    0.5963    2.3006 C   0  0  2  0  0  0  0  0  0  0  0  0 
    3.4033    1.7666    1.8750 C   0  0  1  0  0  0  0  0  0  0  0  0 
    4.1384    2.7191    0.9380 C   0  0  0  0  0  0  0  0  0  0  0  0 
    2.1387    0.2419    0.2525 N   0  0  0  0  0  0  0  0  0  0  0  0 
    5.2710    2.5905    0.5198 O   0  0  0  0  0  0  0  0  0  0  0  0 
    3.3625    3.7864    0.6323 O   0  0  0  0  0  0  0  0  0  0  0  0 
    3.5296    1.1079   -1.1773 H   0  0  0  0  0  0  0  0  0  0  0  0 
    1.8088    1.5055   -1.3800 H   0  0  0  0  0  0  0  0  0  0  0  0 
    2.3974   -0.1138   -1.7896 H   0  0  0  0  0  0  0  0  0  0  0  0 
    4.2144    4.3107   -1.2018 H   0  0  0  0  0  0  0  0  0  0  0  0 
    4.8757    5.1640    0.2119 H   0  0  0  0  0  0  0  0  0  0  0  0 
    3.2167    5.5432   -0.3605 H   0  0  0  0  0  0  0  0  0  0  0  0 
    3.5274   -1.5903    7.2253 H   0  0  0  0  0  0  0  0  0  0  0  0 
    5.5691   -2.1097    5.8901 H   0  0  0  0  0  0  0  0  0  0  0  0 
    1.8271   -0.0311    6.2909 H   0  0  0  0  0  0  0  0  0  0  0  0 
    5.8864   -1.0963    3.6694 H   0  0  0  0  0  0  0  0  0  0  0  0 
    2.1395    0.9747    4.0857 H   0  0  0  0  0  0  0  0  0  0  0  0 
    4.9178   -0.0973    0.3387 H   0  0  0  0  0  0  0  0  0  0  0  0 
    4.8869   -1.3775    1.5461 H   0  0  0  0  0  0  0  0  0  0  0  0 
    2.3958   -1.3465    1.5739 H   0  0  0  0  0  0  0  0  0  0  0  0 
    2.9890   -1.6412   -0.0622 H   0  0  0  0  0  0  0  0  0  0  0  0 
    1.4977    2.1337    0.8669 H   0  0  0  0  0  0  0  0  0  0  0  0 
    1.4446    0.8686    2.0936 H   0  0  0  0  0  0  0  0  0  0  0  0 
    5.3431    1.0037    2.3530 H   0  0  0  0  0  0  0  0  0  0  0  0 
    3.1525    2.3791    2.7516 H   0  0  0  0  0  0  0  0  0  0  0  0 
  1 15  1  0  0  0  0 
  2 22  1  0  0  0  0 
  2 17  1  0  0  0  0 
  3 24  1  0  0  0  0 
  4 25  1  0  0  0  0 
  4  3  2  0  0  0  0 
  5  3  1  0  0  0  0 
  5 26  1  0  0  0  0 
  6  4  1  0  0  0  0 
  7  5  2  0  0  0  0 
  8 30  1  0  0  0  0 
  8 12  1  0  0  0  0 
  9  8  1  0  0  0  0 
  9 31  1  0  0  0  0 
 10 13  1  0  0  0  0 
 10 34  1  0  0  0  0 
 11  6  2  0  0  0  0 
 11  7  1  0  0  0  0 
 12 35  1  1  0  0  0 
 12 11  1  0  0  0  0 
 13 12  1  0  0  0  0 
 13 36  1  1  0  0  0 
 14 13  1  0  0  0  0 
 15  9  1  0  0  0  0 
 15 10  1  0  0  0  0 
 16 14  2  0  0  0  0 
 17 14  1  0  0  0  0 
 18  1  1  0  0  0  0 
 19  1  1  0  0  0  0 
 20  1  1  0  0  0  0 
 21  2  1  0  0  0  0 
 23  2  1  0  0  0  0 
 27  6  1  0  0  0  0 
 28  7  1  0  0  0  0 
 29  8  1  0  0  0  0 
 32  9  1  0  0  0  0 
 33 10  1  0  0  0  0 
M  END 
>  <HBA> 
3 
 
>  <HBD> 
0 
 
>  <TPSA> 
29.54 
 
>  <cid> 
42145 
 
>  <dipole> 
1.15 
 
>  <excitation_energy_1> 
4.53 
 
>  <excitation_energy_2> 
4.693 
 
>  <excitation_energy_3> 
4.74 
 
>  <excitation_energy_4> 
4.963 
 
>  <homo_energy> 
-5.415 
 
>  <homo_lumo_gap> 
5.382 
 
>  <logP> 
1.833 
 
>  <lumo_energy> 
-0.033 
 
>  <melting_point> 
40.16 
 
>  <molecular_refractivity> 
71.04 
 
>  <oscillator_strength_1> 
0.008 
 
>  <oscillator_strength_2> 
0.0101 
 
>  <oscillator_strength_3> 
0.0028 
 
>  <oscillator_strength_4> 
0.0018 
 
>  <open_babel_can_smiles> 
COC(=O)[C@H]1CN(C)CC[C@@H]1c1ccccc1 
 
>  <mulliken_charges> 
36 
1   -0.315781 
2   -0.218371 
3   -0.129846 
4   -0.12925 
5   -0.133202 
6   -0.180542 
7   -0.192863 
8   -0.285675 
9   -0.145565 
10   -0.160644 
11   0.161693 
12   -0.173374 
13   -0.213506 
14   0.639445 
15   -0.361593 
16   -0.492283 
17   -0.460777 
18   0.139136 
19   0.147981 
20   0.149361 
21   0.169428 
22   0.171608 
23   0.164421 
24   0.127614 
25   0.128603 
26   0.127815 
27   0.12782 
28   0.124927 
29   0.158327 
30   0.136547 
31   0.144634 
32   0.136022 
33   0.159024 
34   0.150643 
35   0.164785 
36   0.163438 
 
>  <lowdin_charges> 
36 
1   -0.364273 
2   -0.27966 
3   -0.16083 
4   -0.155602 
5   -0.156243 
6   -0.165742 
7   -0.179718 
8   -0.296578 
9   -0.207515 
10   -0.208512 
11   -0.002102 
12   -0.128036 
13   -0.172661 
14   0.193638 
15   -0.183397 
16   -0.267697 
17   -0.193709 
18   0.128424 
19   0.150986 
20   0.150885 
21   0.158297 
22   0.160492 
23   0.161166 
24   0.156381 
25   0.158176 
26   0.157054 
27   0.156026 
28   0.155854 
29   0.153975 
30   0.149609 
31   0.145665 
32   0.146332 
33   0.156479 
34   0.148184 
35   0.165004 
36   0.169647 
 
$$$$ 
 
