PCCDB-ID:  7914 
public computational chemistry database (PCCDB) project, http://pccdb.org 
 
 21 20  0  0  0  0  0  0  0  0999 V2000 
    2.2103    1.2884    0.6854 C   0  0  0  0  0  0  0  0  0  0  0  0 
    3.3313   -0.8238    1.5386 C   0  0  0  0  0  0  0  0  0  0  0  0 
    5.5412   -0.7959   -1.9646 C   0  0  0  0  0  0  0  0  0  0  0  0 
    6.0510    1.4472   -0.8889 C   0  0  0  0  0  0  0  0  0  0  0  0 
    3.5119    0.4980    0.7854 C   0  0  0  0  0  0  0  0  0  0  0  0 
    5.3598    0.0888   -0.7342 C   0  0  0  0  0  0  0  0  0  0  0  0 
    3.9508    0.2590   -0.5547 O   0  0  0  0  0  0  0  0  0  0  0  0 
    1.8036    1.5011    1.6805 H   0  0  0  0  0  0  0  0  0  0  0  0 
    1.4649    0.7155    0.1223 H   0  0  0  0  0  0  0  0  0  0  0  0 
    2.3765    2.2358    0.1633 H   0  0  0  0  0  0  0  0  0  0  0  0 
    3.0079   -0.6456    2.5711 H   0  0  0  0  0  0  0  0  0  0  0  0 
    4.2666   -1.3935    1.5752 H   0  0  0  0  0  0  0  0  0  0  0  0 
    2.5761   -1.4408    1.0389 H   0  0  0  0  0  0  0  0  0  0  0  0 
    6.6035   -0.9665   -2.1719 H   0  0  0  0  0  0  0  0  0  0  0  0 
    5.0902   -0.3175   -2.8414 H   0  0  0  0  0  0  0  0  0  0  0  0 
    5.0521   -1.7637   -1.8161 H   0  0  0  0  0  0  0  0  0  0  0  0 
    7.1336    1.3249   -1.0136 H   0  0  0  0  0  0  0  0  0  0  0  0 
    5.8851    2.0812   -0.0108 H   0  0  0  0  0  0  0  0  0  0  0  0 
    5.6565    1.9712   -1.7666 H   0  0  0  0  0  0  0  0  0  0  0  0 
    4.2594    1.1118    1.3132 H   0  0  0  0  0  0  0  0  0  0  0  0 
    5.7819   -0.4309    0.1409 H   0  0  0  0  0  0  0  0  0  0  0  0 
  1  5  1  0  0  0  0 
  1  8  1  0  0  0  0 
  2 12  1  0  0  0  0 
  2 11  1  0  0  0  0 
  3 16  1  0  0  0  0 
  3  6  1  0  0  0  0 
  4  6  1  0  0  0  0 
  4 18  1  0  0  0  0 
  5 20  1  0  0  0  0 
  5  2  1  0  0  0  0 
  6  7  1  0  0  0  0 
  6 21  1  0  0  0  0 
  7  5  1  0  0  0  0 
  9  1  1  0  0  0  0 
 10  1  1  0  0  0  0 
 13  2  1  0  0  0  0 
 14  3  1  0  0  0  0 
 15  3  1  0  0  0  0 
 17  4  1  0  0  0  0 
 19  4  1  0  0  0  0 
M  END 
>  <HBA> 
1 
 
>  <HBD> 
0 
 
>  <TPSA> 
9.23 
 
>  <cid> 
7914 
 
>  <dipole> 
1.1 
 
>  <excitation_energy_1> 
6.243 
 
>  <excitation_energy_2> 
6.744 
 
>  <excitation_energy_3> 
6.848 
 
>  <excitation_energy_4> 
6.857 
 
>  <homo_energy> 
-6.569 
 
>  <homo_lumo_gap> 
8.787 
 
>  <logP> 
1.82 
 
>  <lumo_energy> 
2.218 
 
>  <melting_point> 
-35.51 
 
>  <molecular_refractivity> 
32.04 
 
>  <oscillator_strength_1> 
0.01 
 
>  <oscillator_strength_2> 
0.0006 
 
>  <oscillator_strength_3> 
0.0068 
 
>  <oscillator_strength_4> 
0.0185 
 
>  <open_babel_can_smiles> 
CC(OC(C)C)C 
 
>  <mulliken_charges> 
21 
1   -0.444964 
2   -0.447857 
3   -0.444933 
4   -0.447312 
5   0.155548 
6   0.155389 
7   -0.491761 
8   0.136871 
9   0.152329 
10   0.150882 
11   0.137429 
12   0.144414 
13   0.150649 
14   0.136854 
15   0.152229 
16   0.150879 
17   0.137272 
18   0.144324 
19   0.150663 
20   0.110484 
21   0.110611 
 
>  <lowdin_charges> 
21 
1   -0.448586 
2   -0.458485 
3   -0.446816 
4   -0.45732 
5   0.008175 
6   0.0096 
7   -0.281209 
8   0.149278 
9   0.155859 
10   0.155126 
11   0.148931 
12   0.149961 
13   0.154658 
14   0.14827 
15   0.155166 
16   0.154921 
17   0.148053 
18   0.150342 
19   0.154135 
20   0.125239 
21   0.124704 
 
$$$$ 
 
