PCCDB-ID:  70801 
public computational chemistry database (PCCDB) project, http://pccdb.org 
 
 24 25  0  0  0  0  0  0  0  0999 V2000 
    0.9985   -0.2758    0.0812 C   0  0  0  0  0  0  0  0  0  0  0  0 
    7.9168   -3.0786   -0.2355 C   0  0  0  0  0  0  0  0  0  0  0  0 
    6.6992   -3.4529   -0.8111 C   0  0  0  0  0  0  0  0  0  0  0  0 
    8.0166   -1.8508    0.4184 C   0  0  0  0  0  0  0  0  0  0  0  0 
    5.5964   -2.6050   -0.7539 C   0  0  0  0  0  0  0  0  0  0  0  0 
    6.9153   -0.9970    0.4986 C   0  0  0  0  0  0  0  0  0  0  0  0 
    3.1700    1.1905   -0.0553 C   0  0  0  0  0  0  0  0  0  0  0  0 
    2.4776   -0.0465    0.0108 C   0  0  0  0  0  0  0  0  0  0  0  0 
    5.7050   -1.3684   -0.1029 C   0  0  0  0  0  0  0  0  0  0  0  0 
    4.5089    0.8508   -0.0999 C   0  0  0  0  0  0  0  0  0  0  0  0 
    5.6450    1.6620   -0.1460 N   0  0  0  0  0  0  0  0  0  0  0  0 
    3.3115   -1.0777    0.0049 N   0  0  0  0  0  0  0  0  0  0  0  0 
    4.5712   -0.5201   -0.0432 N   0  0  0  0  0  0  0  0  0  0  0  0 
    0.5664    0.1739    0.9836 H   0  0  0  0  0  0  0  0  0  0  0  0 
    0.7902   -1.3488    0.0979 H   0  0  0  0  0  0  0  0  0  0  0  0 
    0.4832    0.1648   -0.7812 H   0  0  0  0  0  0  0  0  0  0  0  0 
    8.7754   -3.7418   -0.2893 H   0  0  0  0  0  0  0  0  0  0  0  0 
    6.6077   -4.4116   -1.3147 H   0  0  0  0  0  0  0  0  0  0  0  0 
    8.9513   -1.5564    0.8881 H   0  0  0  0  0  0  0  0  0  0  0  0 
    4.6448   -2.8832   -1.1907 H   0  0  0  0  0  0  0  0  0  0  0  0 
    6.9841   -0.0635    1.0462 H   0  0  0  0  0  0  0  0  0  0  0  0 
    2.7541    2.1884   -0.0771 H   0  0  0  0  0  0  0  0  0  0  0  0 
    5.4163    2.6018   -0.4506 H   0  0  0  0  0  0  0  0  0  0  0  0 
    6.3918    1.2818   -0.7205 H   0  0  0  0  0  0  0  0  0  0  0  0 
  1 15  1  0  0  0  0 
  1 14  1  0  0  0  0 
  2  4  2  0  0  0  0 
  3  5  2  0  0  0  0 
  3  2  1  0  0  0  0 
  4  6  1  0  0  0  0 
  4 19  1  0  0  0  0 
  5  9  1  0  0  0  0 
  6 21  1  0  0  0  0 
  7  8  1  0  0  0  0 
  8  1  1  0  0  0  0 
  9 13  1  0  0  0  0 
  9  6  2  0  0  0  0 
 10  7  2  0  0  0  0 
 10 13  1  0  0  0  0 
 11 10  1  0  0  0  0 
 12  8  2  0  0  0  0 
 13 12  1  0  0  0  0 
 16  1  1  0  0  0  0 
 17  2  1  0  0  0  0 
 18  3  1  0  0  0  0 
 20  5  1  0  0  0  0 
 22  7  1  0  0  0  0 
 23 11  1  0  0  0  0 
 24 11  1  0  0  0  0 
M  END 
>  <HBA> 
3 
 
>  <HBD> 
1 
 
>  <TPSA> 
43.84 
 
>  <cid> 
70801 
 
>  <dipole> 
2.92 
 
>  <excitation_energy_1> 
4.499 
 
>  <excitation_energy_2> 
4.592 
 
>  <excitation_energy_3> 
4.774 
 
>  <excitation_energy_4> 
4.874 
 
>  <homo_energy> 
-5.521 
 
>  <homo_lumo_gap> 
5.244 
 
>  <logP> 
2.344 
 
>  <lumo_energy> 
-0.278 
 
>  <melting_point> 
108.23 
 
>  <molecular_refractivity> 
52.93 
 
>  <oscillator_strength_1> 
0.0349 
 
>  <oscillator_strength_2> 
0.0051 
 
>  <oscillator_strength_3> 
0.0025 
 
>  <oscillator_strength_4> 
0.0092 
 
>  <open_babel_can_smiles> 
Cc1nn(c(c1)N)c1ccccc1 
 
>  <mulliken_charges> 
24 
1   -0.525334 
2   -0.123608 
3   -0.141995 
4   -0.142429 
5   -0.140885 
6   -0.188609 
7   -0.322008 
8   0.345082 
9   0.293017 
10   0.527488 
11   -0.789011 
12   -0.363543 
13   -0.425993 
14   0.159282 
15   0.171901 
16   0.155929 
17   0.129941 
18   0.134621 
19   0.13298 
20   0.163626 
21   0.169023 
22   0.118005 
23   0.331992 
24   0.330529 
 
>  <lowdin_charges> 
24 
1   -0.442722 
2   -0.165329 
3   -0.147886 
4   -0.152439 
5   -0.159601 
6   -0.186971 
7   -0.291762 
8   0.022877 
9   0.045061 
10   0.076089 
11   -0.487923 
12   -0.182105 
13   0.028455 
14   0.160694 
15   0.167463 
16   0.159268 
17   0.159293 
18   0.159939 
19   0.159511 
20   0.178176 
21   0.174068 
22   0.160115 
23   0.28331 
24   0.282419 
 
$$$$ 
 
