PCCDB-ID:  31905 
public computational chemistry database (PCCDB) project, http://pccdb.org 
 
 34 35  0  0  1  0  0  0  0  0999 V2000 
    2.8206    2.6200    2.4183 C   0  0  0  0  0  0  0  0  0  0  0  0 
    7.0642    0.9003   -0.8373 C   0  0  0  0  0  0  0  0  0  0  0  0 
    2.6334    1.3523    2.0458 C   0  0  0  0  0  0  0  0  0  0  0  0 
    2.6020   -2.4920    1.2550 C   0  0  0  0  0  0  0  0  0  0  0  0 
    3.8926   -3.2862    1.5699 C   0  0  0  0  0  0  0  0  0  0  0  0 
    3.6748    0.2676    2.1252 C   0  0  0  0  0  0  0  0  0  0  0  0 
    2.8092   -1.2987    0.2879 C   0  0  0  0  0  0  0  0  0  0  0  0 
    5.1067   -2.3992    1.9395 C   0  0  0  0  0  0  0  0  0  0  0  0 
    4.5647    0.6350   -0.2110 C   0  0  0  0  0  0  0  0  0  0  0  0 
    6.0339    0.7659    0.2765 C   0  0  1  0  0  0  0  0  0  0  0  0 
    3.9846   -0.4211    0.7545 C   0  0  1  0  0  0  0  0  0  0  0  0 
    5.2391   -1.3200    0.8734 C   0  0  2  0  0  0  0  0  0  0  0  0 
    5.4132   -1.9576   -0.4058 O   0  0  0  0  0  0  0  0  0  0  0  0 
    6.3070   -0.4267    1.0794 O   0  0  0  0  0  0  0  0  0  0  0  0 
    2.0256    3.3589    2.3591 H   0  0  0  0  0  0  0  0  0  0  0  0 
    3.7767    2.9660    2.8071 H   0  0  0  0  0  0  0  0  0  0  0  0 
    6.9025    1.8306   -1.3957 H   0  0  0  0  0  0  0  0  0  0  0  0 
    6.9835    0.0598   -1.5336 H   0  0  0  0  0  0  0  0  0  0  0  0 
    8.0796    0.9212   -0.4269 H   0  0  0  0  0  0  0  0  0  0  0  0 
    1.6520    1.0583    1.6711 H   0  0  0  0  0  0  0  0  0  0  0  0 
    2.1587   -2.1321    2.1926 H   0  0  0  0  0  0  0  0  0  0  0  0 
    1.8621   -3.1780    0.8240 H   0  0  0  0  0  0  0  0  0  0  0  0 
    4.1648   -3.8759    0.6885 H   0  0  0  0  0  0  0  0  0  0  0  0 
    3.6950   -3.9976    2.3812 H   0  0  0  0  0  0  0  0  0  0  0  0 
    3.3301   -0.4843    2.8450 H   0  0  0  0  0  0  0  0  0  0  0  0 
    4.5995    0.6819    2.5408 H   0  0  0  0  0  0  0  0  0  0  0  0 
    1.8806   -0.7186    0.2163 H   0  0  0  0  0  0  0  0  0  0  0  0 
    3.0268   -1.6740   -0.7171 H   0  0  0  0  0  0  0  0  0  0  0  0 
    6.0230   -3.0029    1.9789 H   0  0  0  0  0  0  0  0  0  0  0  0 
    4.9878   -1.9442    2.9285 H   0  0  0  0  0  0  0  0  0  0  0  0 
    4.5349    0.2704   -1.2415 H   0  0  0  0  0  0  0  0  0  0  0  0 
    4.0383    1.5921   -0.1632 H   0  0  0  0  0  0  0  0  0  0  0  0 
    6.1336    1.6134    0.9656 H   0  0  0  0  0  0  0  0  0  0  0  0 
    6.3152   -2.3180   -0.3886 H   0  0  0  0  0  0  0  0  0  0  0  0 
  1 16  1  0  0  0  0 
  2 19  1  0  0  0  0 
  2 10  1  0  0  0  0 
  3  6  1  0  0  0  0 
  3  1  2  0  0  0  0 
  4  5  1  0  0  0  0 
  4 21  1  0  0  0  0 
  5  8  1  0  0  0  0 
  5 24  1  0  0  0  0 
  6 26  1  0  0  0  0 
  6 25  1  0  0  0  0 
  7 11  1  0  0  0  0 
  7  4  1  0  0  0  0 
  8 29  1  0  0  0  0 
  8 30  1  0  0  0  0 
  9 32  1  0  0  0  0 
  9 10  1  0  0  0  0 
  9 11  1  0  0  0  0 
 10 33  1  1  0  0  0 
 10 14  1  0  0  0  0 
 11 12  1  0  0  0  0 
 11  6  1  1  0  0  0 
 12 13  1  6  0  0  0 
 12 14  1  0  0  0  0 
 12  8  1  0  0  0  0 
 13 34  1  0  0  0  0 
 15  1  1  0  0  0  0 
 17  2  1  0  0  0  0 
 18  2  1  0  0  0  0 
 20  3  1  0  0  0  0 
 22  4  1  0  0  0  0 
 23  5  1  0  0  0  0 
 27  7  1  0  0  0  0 
 28  7  1  0  0  0  0 
 31  9  1  0  0  0  0 
M  END 
>  <HBA> 
2 
 
>  <HBD> 
1 
 
>  <TPSA> 
29.46 
 
>  <cid> 
31905 
 
>  <dipole> 
0.18 
 
>  <excitation_energy_1> 
6.267 
 
>  <excitation_energy_2> 
6.391 
 
>  <excitation_energy_3> 
6.457 
 
>  <excitation_energy_4> 
6.636 
 
>  <homo_energy> 
-6.784 
 
>  <homo_lumo_gap> 
7.342 
 
>  <logP> 
2.62 
 
>  <lumo_energy> 
0.558 
 
>  <melting_point> 
33.39 
 
>  <molecular_refractivity> 
57.12 
 
>  <oscillator_strength_1> 
0.0154 
 
>  <oscillator_strength_2> 
0.0252 
 
>  <oscillator_strength_3> 
0.0053 
 
>  <oscillator_strength_4> 
0.0863 
 
>  <open_babel_can_smiles> 
C=CC[C@@]12CCCC[C@]2(O)O[C@H](C1)C 
 
>  <mulliken_charges> 
34 
1   -0.345605 
2   -0.456293 
3   -0.041671 
4   -0.279215 
5   -0.253861 
6   -0.340335 
7   -0.281219 
8   -0.302767 
9   -0.324448 
10   0.157479 
11   0.056911 
12   0.521734 
13   -0.643632 
14   -0.544837 
15   0.138447 
16   0.135757 
17   0.140485 
18   0.152136 
19   0.150109 
20   0.128258 
21   0.13261 
22   0.13458 
23   0.147226 
24   0.129429 
25   0.150114 
26   0.157602 
27   0.128558 
28   0.158453 
29   0.129692 
30   0.145755 
31   0.154123 
32   0.148487 
33   0.127987 
34   0.38795 
 
>  <lowdin_charges> 
34 
1   -0.345536 
2   -0.452051 
3   -0.142763 
4   -0.281431 
5   -0.279429 
6   -0.282773 
7   -0.281582 
8   -0.292117 
9   -0.296127 
10   0.010388 
11   -0.008476 
12   0.189747 
13   -0.462067 
14   -0.274937 
15   0.158415 
16   0.153368 
17   0.152186 
18   0.154494 
19   0.153349 
20   0.149258 
21   0.137758 
22   0.148737 
23   0.149643 
24   0.144888 
25   0.154561 
26   0.157736 
27   0.141625 
28   0.156001 
29   0.146904 
30   0.150991 
31   0.154642 
32   0.156006 
33   0.1377 
34   0.340893 
 
$$$$ 
 
