PCCDB-ID:  47744 
public computational chemistry database (PCCDB) project, http://pccdb.org 
 
 26 25  0  0  0  0  0  0  0  0999 V2000 
    5.6115    2.4661   -2.7579 C   0  0  0  0  0  0  0  0  0  0  0  0 
    5.4663    1.9255   -5.8017 C   0  0  0  0  0  0  0  0  0  0  0  0 
    2.0633   -0.1212   -3.0018 C   0  0  0  0  0  0  0  0  0  0  0  0 
    1.3183    2.0709   -4.0689 C   0  0  0  0  0  0  0  0  0  0  0  0 
    2.0808    0.1886   -5.4961 C   0  0  0  0  0  0  0  0  0  0  0  0 
    4.1275    2.1483   -2.9287 C   0  0  0  0  0  0  0  0  0  0  0  0 
    4.7220    0.9107   -4.9541 C   0  0  0  0  0  0  0  0  0  0  0  0 
    2.3037    0.8848   -4.1397 C   0  0  0  0  0  0  0  0  0  0  0  0 
    3.7243    1.4304   -4.0554 N   0  0  0  0  0  0  0  0  0  0  0  0 
    3.3450    2.5028   -2.0580 O   0  0  0  0  0  0  0  0  0  0  0  0 
    4.8776   -0.2811   -5.1092 O   0  0  0  0  0  0  0  0  0  0  0  0 
    6.2898    1.7360   -3.2068 H   0  0  0  0  0  0  0  0  0  0  0  0 
    5.7969    2.5140   -1.6833 H   0  0  0  0  0  0  0  0  0  0  0  0 
    5.8381    3.4540   -3.1744 H   0  0  0  0  0  0  0  0  0  0  0  0 
    6.4609    1.5491   -6.0519 H   0  0  0  0  0  0  0  0  0  0  0  0 
    5.5293    2.9166   -5.3526 H   0  0  0  0  0  0  0  0  0  0  0  0 
    4.9000    2.0271   -6.7373 H   0  0  0  0  0  0  0  0  0  0  0  0 
    1.0473   -0.5262   -3.0745 H   0  0  0  0  0  0  0  0  0  0  0  0 
    2.1737    0.3556   -2.0258 H   0  0  0  0  0  0  0  0  0  0  0  0 
    2.7711   -0.9528   -3.0792 H   0  0  0  0  0  0  0  0  0  0  0  0 
    0.2979    1.6905   -4.1910 H   0  0  0  0  0  0  0  0  0  0  0  0 
    1.5134    2.7788   -4.8829 H   0  0  0  0  0  0  0  0  0  0  0  0 
    1.3879    2.5975   -3.1193 H   0  0  0  0  0  0  0  0  0  0  0  0 
    1.0187   -0.0645   -5.5729 H   0  0  0  0  0  0  0  0  0  0  0  0 
    2.6616   -0.7281   -5.6003 H   0  0  0  0  0  0  0  0  0  0  0  0 
    2.3191    0.8536   -6.3354 H   0  0  0  0  0  0  0  0  0  0  0  0 
  1 13  1  0  0  0  0 
  2 16  1  0  0  0  0 
  2  7  1  0  0  0  0 
  3 19  1  0  0  0  0 
  4 23  1  0  0  0  0 
  5  8  1  0  0  0  0 
  6  1  1  0  0  0  0 
  6 10  2  0  0  0  0 
  7  9  1  0  0  0  0 
  8  4  1  0  0  0  0 
  8  9  1  0  0  0  0 
  8  3  1  0  0  0  0 
  9  6  1  0  0  0  0 
 11  7  2  0  0  0  0 
 12  1  1  0  0  0  0 
 14  1  1  0  0  0  0 
 15  2  1  0  0  0  0 
 17  2  1  0  0  0  0 
 18  3  1  0  0  0  0 
 20  3  1  0  0  0  0 
 21  4  1  0  0  0  0 
 22  4  1  0  0  0  0 
 24  5  1  0  0  0  0 
 25  5  1  0  0  0  0 
 26  5  1  0  0  0  0 
M  END 
>  <HBA> 
3 
 
>  <HBD> 
0 
 
>  <TPSA> 
37.38 
 
>  <cid> 
47744 
 
>  <dipole> 
2.49 
 
>  <excitation_energy_1> 
4.447 
 
>  <excitation_energy_2> 
4.898 
 
>  <excitation_energy_3> 
5.161 
 
>  <excitation_energy_4> 
5.809 
 
>  <homo_energy> 
-6.806 
 
>  <homo_lumo_gap> 
5.831 
 
>  <logP> 
1.18 
 
>  <lumo_energy> 
-0.974 
 
>  <melting_point> 
28.55 
 
>  <molecular_refractivity> 
43.9 
 
>  <oscillator_strength_1> 
0.0038 
 
>  <oscillator_strength_2> 
0.0335 
 
>  <oscillator_strength_3> 
0.0308 
 
>  <oscillator_strength_4> 
0.0037 
 
>  <open_babel_can_smiles> 
CC(=O)N(C(C)(C)C)C(=O)C 
 
>  <mulliken_charges> 
26 
1   -0.551759 
2   -0.509998 
3   -0.452419 
4   -0.450012 
5   -0.480037 
6   0.588814 
7   0.533452 
8   0.216896 
9   -0.495368 
10   -0.49053 
11   -0.421389 
12   0.172177 
13   0.194851 
14   0.181165 
15   0.184557 
16   0.169718 
17   0.189416 
18   0.139086 
19   0.179217 
20   0.158826 
21   0.138166 
22   0.134222 
23   0.196986 
24   0.150775 
25   0.186241 
26   0.136948 
 
>  <lowdin_charges> 
26 
1   -0.474477 
2   -0.468205 
3   -0.451564 
4   -0.451984 
5   -0.453409 
6   0.179826 
7   0.187025 
8   0.0981 
9   -0.125563 
10   -0.289955 
11   -0.224407 
12   0.167806 
13   0.182517 
14   0.174276 
15   0.175847 
16   0.167541 
17   0.183539 
18   0.150567 
19   0.167669 
20   0.158653 
21   0.149281 
22   0.147443 
23   0.176085 
24   0.156682 
25   0.169279 
26   0.147429 
 
$$$$ 
 
