PCCDB-ID:  69204 
public computational chemistry database (PCCDB) project, http://pccdb.org 
 
 16 15  0  0  0  0  0  0  0  0999 V2000 
    2.9552    1.0856   -0.9485 C   0  0  0  0  0  0  0  0  0  0  0  0 
    2.0560   -2.7310    3.8584 C   0  0  0  0  0  0  0  0  0  0  0  0 
    2.9514   -0.3183    1.0766 C   0  0  0  0  0  0  0  0  0  0  0  0 
    2.0601   -1.3271    1.8334 C   0  0  0  0  0  0  0  0  0  0  0  0 
    2.3509    0.1312   -0.0417 N   0  0  0  0  0  0  0  0  0  0  0  0 
    2.6604   -1.7763    2.9519 N   0  0  0  0  0  0  0  0  0  0  0  0 
    4.0650    0.0004    1.4915 O   0  0  0  0  0  0  0  0  0  0  0  0 
    0.9466   -1.6461    1.4183 O   0  0  0  0  0  0  0  0  0  0  0  0 
    2.3403    1.9888   -1.0350 H   0  0  0  0  0  0  0  0  0  0  0  0 
    3.0868    0.6522   -1.9468 H   0  0  0  0  0  0  0  0  0  0  0  0 
    3.9326    1.3550   -0.5443 H   0  0  0  0  0  0  0  0  0  0  0  0 
    1.9258   -2.2981    4.8571 H   0  0  0  0  0  0  0  0  0  0  0  0 
    2.6702   -3.6348    3.9439 H   0  0  0  0  0  0  0  0  0  0  0  0 
    1.0783   -2.9995    3.4545 H   0  0  0  0  0  0  0  0  0  0  0  0 
    1.4295   -0.2553   -0.2157 H   0  0  0  0  0  0  0  0  0  0  0  0 
    3.5819   -1.3901    3.1258 H   0  0  0  0  0  0  0  0  0  0  0  0 
  1 11  1  0  0  0  0 
  1  5  1  0  0  0  0 
  2 13  1  0  0  0  0 
  2 12  1  0  0  0  0 
  3  7  2  0  0  0  0 
  3  4  1  0  0  0  0 
  4  6  1  0  0  0  0 
  5  3  1  0  0  0  0 
  6 16  1  0  0  0  0 
  6  2  1  0  0  0  0 
  8  4  2  0  0  0  0 
  9  1  1  0  0  0  0 
 10  1  1  0  0  0  0 
 14  2  1  0  0  0  0 
 15  5  1  0  0  0  0 
M  END 
>  <HBA> 
4 
 
>  <HBD> 
2 
 
>  <TPSA> 
58.2 
 
>  <cid> 
69204 
 
>  <dipole> 
0.0 
 
>  <excitation_energy_1> 
4.296 
 
>  <excitation_energy_2> 
5.622 
 
>  <excitation_energy_3> 
5.928 
 
>  <excitation_energy_4> 
5.987 
 
>  <homo_energy> 
-6.542 
 
>  <homo_lumo_gap> 
5.793 
 
>  <logP> 
-0.74 
 
>  <lumo_energy> 
-0.748 
 
>  <melting_point> 
71.91 
 
>  <molecular_refractivity> 
27.35 
 
>  <oscillator_strength_1> 
0.0 
 
>  <oscillator_strength_2> 
0.0 
 
>  <oscillator_strength_3> 
0.0 
 
>  <oscillator_strength_4> 
0.2475 
 
>  <open_babel_can_smiles> 
CNC(=O)C(=O)NC 
 
>  <mulliken_charges> 
16 
1   -0.312476 
2   -0.312487 
3   0.548683 
4   0.548563 
5   -0.579159 
6   -0.579129 
7   -0.544476 
8   -0.544461 
9   0.165016 
10   0.165137 
11   0.200179 
12   0.165136 
13   0.165013 
14   0.200192 
15   0.357134 
16   0.357136 
 
>  <lowdin_charges> 
16 
1   -0.351781 
2   -0.351772 
3   0.122736 
4   0.122736 
5   -0.242701 
6   -0.242701 
7   -0.321044 
8   -0.321044 
9   0.156829 
10   0.155931 
11   0.180504 
12   0.155944 
13   0.156799 
14   0.18051 
15   0.299526 
16   0.299528 
 
$$$$ 
 
