PCCDB-ID:  10509 
public computational chemistry database (PCCDB) project, http://pccdb.org 
 
 13 12  0  0  0  0  0  0  0  0999 V2000 
    0.9288    0.0979   -0.1692 C   0  0  0  0  0  0  0  0  0  0  0  0 
    0.2292    0.6907   -1.4032 N   0  0  0  0  0  0  0  0  0  0  0  0 
    0.5886   -1.4011   -0.1496 N   0  0  0  0  0  0  0  0  0  0  0  0 
    0.4474    0.7869    1.1187 N   0  0  0  0  0  0  0  0  0  0  0  0 
    2.4488    0.3168   -0.2413 N   0  0  0  0  0  0  0  0  0  0  0  0 
    0.4158    0.0515   -2.4207 O   0  0  0  0  0  0  0  0  0  0  0  0 
   -0.4143    1.7071   -1.2395 O   0  0  0  0  0  0  0  0  0  0  0  0 
    1.5084   -2.1757    0.0171 O   0  0  0  0  0  0  0  0  0  0  0  0 
   -0.5954   -1.6317   -0.3038 O   0  0  0  0  0  0  0  0  0  0  0  0 
   -0.2851    0.1489    1.8469 O   0  0  0  0  0  0  0  0  0  0  0  0 
    0.8696    1.9197    1.2500 O   0  0  0  0  0  0  0  0  0  0  0  0 
    3.0270    0.0533    0.7955 O   0  0  0  0  0  0  0  0  0  0  0  0 
    2.9011    0.7154   -1.2950 O   0  0  0  0  0  0  0  0  0  0  0  0 
  1  3  1  0  0  0  0 
  1  4  1  0  0  0  0 
  2  7  2  0  0  0  0 
  2  1  1  0  0  0  0 
  3  8  2  0  0  0  0 
  4 11  2  0  0  0  0 
  4 10  2  0  0  0  0 
  5  1  1  0  0  0  0 
  5 12  2  0  0  0  0 
  6  2  2  0  0  0  0 
  9  3  2  0  0  0  0 
 13  5  2  0  0  0  0 
M  END 
>  <HBA> 
0 
 
>  <HBD> 
0 
 
>  <TPSA> 
183.28 
 
>  <cid> 
10509 
 
>  <dipole> 
0.0 
 
>  <excitation_energy_1> 
4.044 
 
>  <excitation_energy_2> 
4.07 
 
>  <excitation_energy_3> 
4.071 
 
>  <excitation_energy_4> 
4.1 
 
>  <homo_energy> 
-9.829 
 
>  <homo_lumo_gap> 
5.66 
 
>  <logP> 
0.797 
 
>  <lumo_energy> 
-4.169 
 
>  <melting_point> 
110.8 
 
>  <molecular_refractivity> 
39.38 
 
>  <oscillator_strength_1> 
0.001 
 
>  <oscillator_strength_2> 
0.0002 
 
>  <oscillator_strength_3> 
0.0002 
 
>  <oscillator_strength_4> 
0.0 
 
>  <open_babel_can_smiles> 
O=N(=O)C(N(=O)=O)(N(=O)=O)N(=O)=O 
 
>  <mulliken_charges> 
13 
1   0.43867 
2   0.508247 
3   0.508325 
4   0.508452 
5   0.507942 
6   -0.301779 
7   -0.316195 
8   -0.316194 
9   -0.301848 
10   -0.316136 
11   -0.301748 
12   -0.30162 
13   -0.316117 
 
>  <lowdin_charges> 
13 
1   0.10881 
2   0.29216 
3   0.29297 
4   0.292603 
5   0.295038 
6   -0.162879 
7   -0.157071 
8   -0.159075 
9   -0.161013 
10   -0.158883 
11   -0.161194 
12   -0.163184 
13   -0.158281 
 
$$$$ 
 
