PCCDB-ID:  12266 
public computational chemistry database (PCCDB) project, http://pccdb.org 
 
 15 15  0  0  0  0  0  0  0  0999 V2000 
    1.0948    0.0618   -0.0323 C   0  0  0  0  0  0  0  0  0  0  0  0 
    5.6900    1.6607   -0.0322 C   0  0  0  0  0  0  0  0  0  0  0  0 
    3.3671   -1.2504   -0.0293 C   0  0  0  0  0  0  0  0  0  0  0  0 
    4.7231   -0.7785   -0.0299 C   0  0  0  0  0  0  0  0  0  0  0  0 
    2.5690   -0.1463   -0.0309 C   0  0  0  0  0  0  0  0  0  0  0  0 
    4.6634    0.5825   -0.0315 C   0  0  0  0  0  0  0  0  0  0  0  0 
    3.3502    0.9825   -0.0322 O   0  0  0  0  0  0  0  0  0  0  0  0 
    0.5838   -0.9051   -0.0188 H   0  0  0  0  0  0  0  0  0  0  0  0 
    0.7634    0.6102   -0.9234 H   0  0  0  0  0  0  0  0  0  0  0  0 
    0.7659    0.6340    0.8444 H   0  0  0  0  0  0  0  0  0  0  0  0 
    6.6908    1.2197   -0.0386 H   0  0  0  0  0  0  0  0  0  0  0  0 
    5.6055    2.3018    0.8546 H   0  0  0  0  0  0  0  0  0  0  0  0 
    5.5968    2.3082   -0.9133 H   0  0  0  0  0  0  0  0  0  0  0  0 
    3.0319   -2.2788   -0.0280 H   0  0  0  0  0  0  0  0  0  0  0  0 
    5.6242   -1.3768   -0.0290 H   0  0  0  0  0  0  0  0  0  0  0  0 
  1  5  1  0  0  0  0 
  1  8  1  0  0  0  0 
  1 10  1  0  0  0  0 
  2  6  1  0  0  0  0 
  2 12  1  0  0  0  0 
  3 14  1  0  0  0  0 
  4  3  1  0  0  0  0 
  4 15  1  0  0  0  0 
  5  3  2  0  0  0  0 
  6  4  2  0  0  0  0 
  7  6  1  0  0  0  0 
  7  5  1  0  0  0  0 
  9  1  1  0  0  0  0 
 11  2  1  0  0  0  0 
 13  2  1  0  0  0  0 
M  END 
>  <HBA> 
1 
 
>  <HBD> 
0 
 
>  <TPSA> 
13.14 
 
>  <cid> 
12266 
 
>  <dipole> 
0.19 
 
>  <excitation_energy_1> 
5.15 
 
>  <excitation_energy_2> 
5.501 
 
>  <excitation_energy_3> 
5.785 
 
>  <excitation_energy_4> 
5.793 
 
>  <homo_energy> 
-5.497 
 
>  <homo_lumo_gap> 
6.212 
 
>  <logP> 
1.896 
 
>  <lumo_energy> 
0.716 
 
>  <melting_point> 
11.22 
 
>  <molecular_refractivity> 
28.64 
 
>  <oscillator_strength_1> 
0.0 
 
>  <oscillator_strength_2> 
0.0001 
 
>  <oscillator_strength_3> 
0.0002 
 
>  <oscillator_strength_4> 
0.2208 
 
>  <open_babel_can_smiles> 
Cc1ccc(o1)C 
 
>  <mulliken_charges> 
15 
1   -0.529204 
2   -0.529182 
3   -0.212581 
4   -0.212944 
5   0.350852 
6   0.350999 
7   -0.470764 
8   0.163167 
9   0.167253 
10   0.167286 
11   0.163184 
12   0.167269 
13   0.167296 
14   0.128669 
15   0.128699 
 
>  <lowdin_charges> 
15 
1   -0.441694 
2   -0.440796 
3   -0.222928 
4   -0.224627 
5   0.066515 
6   0.067129 
7   -0.120629 
8   0.166553 
9   0.164576 
10   0.164803 
11   0.166164 
12   0.164442 
13   0.164558 
14   0.162267 
15   0.163667 
 
$$$$ 
 
