PCCDB-ID:  33808 
public computational chemistry database (PCCDB) project, http://pccdb.org 
 
 25 25  0  0  1  0  0  0  0  0999 V2000 
    2.2639   -0.3855    1.6247 C   0  0  0  0  0  0  0  0  0  0  0  0 
    7.6619   -0.1897    0.1500 C   0  0  0  0  0  0  0  0  0  0  0  0 
    7.8010    4.8805   -0.3346 C   0  0  0  0  0  0  0  0  0  0  0  0 
    2.5426   -0.0312    0.1572 C   0  0  0  0  0  0  0  0  0  0  0  0 
    6.6853    0.9493    0.0425 C   0  0  2  0  0  0  0  0  0  0  0  0 
    6.1611    3.1952   -0.1704 C   0  0  0  0  0  0  0  0  0  0  0  0 
    4.3139    1.5411   -0.0083 C   0  0  0  0  0  0  0  0  0  0  0  0 
    6.4212    4.4380   -0.2885 N   0  0  0  0  0  0  0  0  0  0  0  0 
    3.0571    1.3185    0.0092 N   0  0  0  0  0  0  0  0  0  0  0  0 
    7.1056    2.1612   -0.0758 N   0  0  0  0  0  0  0  0  0  0  0  0 
    5.3510    0.5962    0.0848 N   0  0  0  0  0  0  0  0  0  0  0  0 
    4.8065    2.8213   -0.1326 N   0  0  0  0  0  0  0  0  0  0  0  0 
    1.7930   -1.3722    1.7066 H   0  0  0  0  0  0  0  0  0  0  0  0 
    1.5941    0.3573    2.0692 H   0  0  0  0  0  0  0  0  0  0  0  0 
    3.1879   -0.3955    2.2153 H   0  0  0  0  0  0  0  0  0  0  0  0 
    8.6765    0.2065    0.1081 H   0  0  0  0  0  0  0  0  0  0  0  0 
    7.5213   -0.9048   -0.6700 H   0  0  0  0  0  0  0  0  0  0  0  0 
    7.5274   -0.7323    1.0940 H   0  0  0  0  0  0  0  0  0  0  0  0 
    7.9756    5.5942    0.4815 H   0  0  0  0  0  0  0  0  0  0  0  0 
    7.9702    5.4285   -1.2710 H   0  0  0  0  0  0  0  0  0  0  0  0 
    8.5374    4.0717   -0.2600 H   0  0  0  0  0  0  0  0  0  0  0  0 
    1.6024   -0.0852   -0.4044 H   0  0  0  0  0  0  0  0  0  0  0  0 
    3.1927   -0.8063   -0.2929 H   0  0  0  0  0  0  0  0  0  0  0  0 
    5.0965   -0.3746    0.1885 H   0  0  0  0  0  0  0  0  0  0  0  0 
    4.1231    3.5632   -0.2081 H   0  0  0  0  0  0  0  0  0  0  0  0 
  1 13  1  0  0  0  0 
  1 14  1  0  0  0  0 
  1 15  1  0  0  0  0 
  2 18  1  0  0  0  0 
  3  8  1  0  0  0  0 
  3 21  1  0  0  0  0 
  3 19  1  0  0  0  0 
  4  1  1  0  0  0  0 
  5 11  1  0  0  0  0 
  5  2  1  1  0  0  0 
  6 12  1  0  0  0  0 
  6 10  2  0  0  0  0 
  7  9  2  0  0  0  0 
  7 11  1  0  0  0  0 
  8  6  1  0  0  0  0 
  9  4  1  0  0  0  0 
 10  5  1  0  0  0  0 
 11 24  1  0  0  0  0 
 12  7  1  0  0  0  0 
 16  2  1  0  0  0  0 
 17  2  1  0  0  0  0 
 20  3  1  0  0  0  0 
 22  4  1  0  0  0  0 
 23  4  1  0  0  0  0 
 25 12  1  0  0  0  0 
M  RAD  2   5   2   8   2 
M  END 
>  <HBA> 
5 
 
>  <HBD> 
2 
 
>  <TPSA> 
62.73 
 
>  <cid> 
33808 
 
>  <dipole> 
4.77 
 
>  <excitation_energy_1> 
4.423 
 
>  <excitation_energy_2> 
4.686 
 
>  <excitation_energy_3> 
4.905 
 
>  <excitation_energy_4> 
5.0 
 
>  <homo_energy> 
-5.826 
 
>  <homo_lumo_gap> 
5.119 
 
>  <logP> 
0.799 
 
>  <lumo_energy> 
-0.708 
 
>  <melting_point> 
124.12 
 
>  <molecular_refractivity> 
48.21 
 
>  <oscillator_strength_1> 
0.0263 
 
>  <oscillator_strength_2> 
0.003 
 
>  <oscillator_strength_3> 
0.0532 
 
>  <oscillator_strength_4> 
0.0697 
 
>  <open_babel_can_smiles> 
CC/N=C\1/NC(=N[C](N1)C)[N]C 
 
>  <mulliken_charges> 
25 
1   -0.43589 
2   -0.538234 
3   -0.32009 
4   -0.157925 
5   0.52242 
6   0.653397 
7   0.743172 
8   -0.489571 
9   -0.483644 
10   -0.506272 
11   -0.697645 
12   -0.684661 
13   0.140827 
14   0.167 
15   0.135286 
16   0.203118 
17   0.175206 
18   0.174571 
19   0.146285 
20   0.146314 
21   0.15678 
22   0.15511 
23   0.097391 
24   0.347148 
25   0.349906 
 
>  <lowdin_charges> 
25 
1   -0.451792 
2   -0.451139 
3   -0.35968 
4   -0.198747 
5   0.125326 
6   0.113482 
7   0.132305 
8   -0.233077 
9   -0.26385 
10   -0.216017 
11   -0.251918 
12   -0.236789 
13   0.149463 
14   0.161784 
15   0.142944 
16   0.186517 
17   0.170712 
18   0.169871 
19   0.148506 
20   0.14799 
21   0.146103 
22   0.151442 
23   0.111679 
24   0.296354 
25   0.308531 
 
$$$$ 
 
