PCCDB-ID:  61199 
public computational chemistry database (PCCDB) project, http://pccdb.org 
 
 20 20  0  0  1  0  0  0  0  0999 V2000 
    2.7453   -1.3582    0.0183 C   0  0  0  0  0  0  0  0  0  0  0  0 
    1.2792    2.9210   -1.2740 C   0  0  0  0  0  0  0  0  0  0  0  0 
    2.3053    0.1086    0.0395 C   0  0  0  0  0  0  0  0  0  0  0  0 
    2.6651    2.4361   -0.9876 C   0  0  0  0  0  0  0  0  0  0  0  0 
    3.0456    0.9735   -0.9861 C   0  0  1  0  0  0  0  0  0  0  0  0 
    3.7725    3.1433   -0.7088 C   0  0  0  0  0  0  0  0  0  0  0  0 
    4.9282    2.2276   -0.5190 C   0  0  0  0  0  0  0  0  0  0  0  0 
    3.9988    4.4704   -0.5854 O   0  0  0  0  0  0  0  0  0  0  0  0 
    6.0744    2.4866   -0.2603 O   0  0  0  0  0  0  0  0  0  0  0  0 
    4.4610    0.9517   -0.6976 O   0  0  0  0  0  0  0  0  0  0  0  0 
    2.1982   -1.9381    0.7691 H   0  0  0  0  0  0  0  0  0  0  0  0 
    3.8149   -1.4460    0.2301 H   0  0  0  0  0  0  0  0  0  0  0  0 
    2.5562   -1.8149   -0.9609 H   0  0  0  0  0  0  0  0  0  0  0  0 
    0.9063    2.5240   -2.2273 H   0  0  0  0  0  0  0  0  0  0  0  0 
    1.2323    4.0148   -1.3395 H   0  0  0  0  0  0  0  0  0  0  0  0 
    0.5688    2.6103   -0.4969 H   0  0  0  0  0  0  0  0  0  0  0  0 
    2.4677    0.5442    1.0335 H   0  0  0  0  0  0  0  0  0  0  0  0 
    1.2292    0.1797   -0.1694 H   0  0  0  0  0  0  0  0  0  0  0  0 
    2.9213    0.5345   -1.9877 H   0  0  0  0  0  0  0  0  0  0  0  0 
    3.1647    4.9497   -0.7151 H   0  0  0  0  0  0  0  0  0  0  0  0 
  1  3  1  0  0  0  0 
  1 12  1  0  0  0  0 
  1 11  1  0  0  0  0 
  2  4  1  0  0  0  0 
  2 16  1  0  0  0  0 
  3 17  1  0  0  0  0 
  4  5  1  0  0  0  0 
  4  6  2  0  0  0  0 
  5 19  1  6  0  0  0 
  5 10  1  0  0  0  0 
  5  3  1  0  0  0  0 
  6  8  1  0  0  0  0 
  6  7  1  0  0  0  0 
  7  9  2  0  0  0  0 
 10  7  1  0  0  0  0 
 13  1  1  0  0  0  0 
 14  2  1  0  0  0  0 
 15  2  1  0  0  0  0 
 18  3  1  0  0  0  0 
 20  8  1  0  0  0  0 
M  END 
>  <HBA> 
3 
 
>  <HBD> 
1 
 
>  <TPSA> 
46.53 
 
>  <cid> 
61199 
 
>  <dipole> 
6.26 
 
>  <excitation_energy_1> 
4.985 
 
>  <excitation_energy_2> 
5.274 
 
>  <excitation_energy_3> 
5.523 
 
>  <excitation_energy_4> 
6.264 
 
>  <homo_energy> 
-6.599 
 
>  <homo_lumo_gap> 
5.831 
 
>  <logP> 
1.154 
 
>  <lumo_energy> 
-0.767 
 
>  <melting_point> 
35.71 
 
>  <molecular_refractivity> 
36.03 
 
>  <oscillator_strength_1> 
0.0001 
 
>  <oscillator_strength_2> 
0.0188 
 
>  <oscillator_strength_3> 
0.2252 
 
>  <oscillator_strength_4> 
0.004 
 
>  <open_babel_can_smiles> 
CC[C@@H]1OC(=O)C(=C1C)O 
 
>  <mulliken_charges> 
20 
1   -0.45079 
2   -0.531873 
3   -0.258367 
4   0.118654 
5   0.069145 
6   0.178388 
7   0.612655 
8   -0.619009 
9   -0.456762 
10   -0.481303 
11   0.148924 
12   0.178078 
13   0.143635 
14   0.175244 
15   0.144939 
16   0.179142 
17   0.149913 
18   0.136619 
19   0.150166 
20   0.412605 
 
>  <lowdin_charges> 
20 
1   -0.445196 
2   -0.438478 
3   -0.276906 
4   -0.070667 
5   0.016814 
6   0.033914 
7   0.180411 
8   -0.346869 
9   -0.225961 
10   -0.191161 
11   0.155596 
12   0.163186 
13   0.148191 
14   0.168136 
15   0.150754 
16   0.169372 
17   0.152243 
18   0.145309 
19   0.149188 
20   0.362123 
 
$$$$ 
 
