PCCDB-ID:  9220 
public computational chemistry database (PCCDB) project, http://pccdb.org 
 
 15 16  0  0  0  0  0  0  0  0999 V2000 
   -1.6264    1.1394    0.0516 C   0  0  0  0  0  0  0  0  0  0  0  0 
    0.9395   -1.4265   -0.0383 C   0  0  0  0  0  0  0  0  0  0  0  0 
    2.1032   -0.6674   -0.0598 C   0  0  0  0  0  0  0  0  0  0  0  0 
   -2.3939    0.0072    0.0588 C   0  0  0  0  0  0  0  0  0  0  0  0 
    0.9957    1.3508   -0.0104 C   0  0  0  0  0  0  0  0  0  0  0  0 
   -0.2545    0.7117    0.0138 C   0  0  0  0  0  0  0  0  0  0  0  0 
   -0.2598   -0.7094   -0.0007 C   0  0  0  0  0  0  0  0  0  0  0  0 
    2.1468    0.6840   -0.0463 N   0  0  0  0  0  0  0  0  0  0  0  0 
   -1.5738   -1.1122    0.0278 N   0  0  0  0  0  0  0  0  0  0  0  0 
   -1.9922    2.1565    0.0705 H   0  0  0  0  0  0  0  0  0  0  0  0 
    0.9739   -2.5122   -0.0508 H   0  0  0  0  0  0  0  0  0  0  0  0 
    3.0698   -1.1665   -0.0900 H   0  0  0  0  0  0  0  0  0  0  0  0 
   -3.4686   -0.1071    0.0832 H   0  0  0  0  0  0  0  0  0  0  0  0 
    1.0639    2.4384    0.0000 H   0  0  0  0  0  0  0  0  0  0  0  0 
   -1.8942   -2.0681    0.0264 H   0  0  0  0  0  0  0  0  0  0  0  0 
  1  4  2  0  0  0  0 
  1 10  1  0  0  0  0 
  2  7  2  0  0  0  0 
  3  8  2  0  0  0  0 
  3  2  1  0  0  0  0 
  4 13  1  0  0  0  0 
  5 14  1  0  0  0  0 
  5  6  2  0  0  0  0 
  6  1  1  0  0  0  0 
  7  6  1  0  0  0  0 
  7  9  1  0  0  0  0 
  8  5  1  0  0  0  0 
  9  4  1  0  0  0  0 
 11  2  1  0  0  0  0 
 12  3  1  0  0  0  0 
 15  9  1  0  0  0  0 
M  END 
>  <HBA> 
1 
 
>  <HBD> 
1 
 
>  <TPSA> 
28.68 
 
>  <cid> 
9220 
 
>  <dipole> 
4.41 
 
>  <excitation_energy_1> 
4.781 
 
>  <excitation_energy_2> 
4.814 
 
>  <excitation_energy_3> 
5.018 
 
>  <excitation_energy_4> 
5.107 
 
>  <homo_energy> 
-5.78 
 
>  <homo_lumo_gap> 
5.374 
 
>  <logP> 
1.563 
 
>  <lumo_energy> 
-0.405 
 
>  <melting_point> 
110.43 
 
>  <molecular_refractivity> 
36.09 
 
>  <oscillator_strength_1> 
0.0799 
 
>  <oscillator_strength_2> 
0.0012 
 
>  <oscillator_strength_3> 
0.0028 
 
>  <oscillator_strength_4> 
0.0038 
 
>  <open_babel_can_smiles> 
c1ncc2c(c1)[nH]cc2 
 
>  <mulliken_charges> 
15 
1   -0.226175 
2   -0.172165 
3   0.016651 
4   0.051396 
5   -0.020834 
6   0.095478 
7   0.338648 
8   -0.428588 
9   -0.67578 
10   0.138329 
11   0.126679 
12   0.133724 
13   0.156034 
14   0.135052 
15   0.331553 
 
>  <lowdin_charges> 
15 
1   -0.21348 
2   -0.203067 
3   -0.102373 
4   -0.115315 
5   -0.087626 
6   -0.048511 
7   0.043069 
8   -0.169169 
9   -0.19443 
10   0.167449 
11   0.158755 
12   0.154241 
13   0.166214 
14   0.151676 
15   0.292567 
 
$$$$ 
 
