PCCDB-ID:  40664 
public computational chemistry database (PCCDB) project, http://pccdb.org 
 
 34 34  0  0  1  0  0  0  0  0999 V2000 
    2.7813    0.3283   -1.4845 C   0  0  0  0  0  0  0  0  0  0  0  0 
    1.7071   -3.8839   -0.7077 C   0  0  0  0  0  0  0  0  0  0  0  0 
    1.0017   -2.9068    1.3639 C   0  0  0  0  0  0  0  0  0  0  0  0 
    2.3488    0.2447   -0.0169 C   0  0  0  0  0  0  0  0  0  0  0  0 
    5.8984    2.7975    3.6424 C   0  0  0  0  0  0  0  0  0  0  0  0 
    6.7926    2.2056    2.7452 C   0  0  0  0  0  0  0  0  0  0  0  0 
    4.5667    2.3812    3.6730 C   0  0  0  0  0  0  0  0  0  0  0  0 
    6.3542    1.2042    1.8851 C   0  0  0  0  0  0  0  0  0  0  0  0 
    4.1275    1.3761    2.8109 C   0  0  0  0  0  0  0  0  0  0  0  0 
    3.0887   -2.2052    0.3302 C   0  0  0  0  0  0  0  0  0  0  0  0 
    3.1593   -0.7581    0.8542 C   0  0  1  0  0  0  0  0  0  0  0  0 
    5.0163    0.7754    1.9054 C   0  0  0  0  0  0  0  0  0  0  0  0 
    4.6218   -0.3155    0.9471 C   0  0  0  0  0  0  0  0  0  0  0  0 
    1.7220   -2.6819    0.1172 N   0  0  0  0  0  0  0  0  0  0  0  0 
    5.4696   -0.8196    0.2214 O   0  0  0  0  0  0  0  0  0  0  0  0 
    2.1935    1.0914   -2.0072 H   0  0  0  0  0  0  0  0  0  0  0  0 
    2.6185   -0.6226   -2.0018 H   0  0  0  0  0  0  0  0  0  0  0  0 
    3.8399    0.5899   -1.5879 H   0  0  0  0  0  0  0  0  0  0  0  0 
    0.6712   -4.1777   -0.9109 H   0  0  0  0  0  0  0  0  0  0  0  0 
    2.2197   -4.7458   -0.2361 H   0  0  0  0  0  0  0  0  0  0  0  0 
    2.1976   -3.6817   -1.6656 H   0  0  0  0  0  0  0  0  0  0  0  0 
   -0.0140   -3.2518    1.1426 H   0  0  0  0  0  0  0  0  0  0  0  0 
    0.9164   -1.9767    1.9344 H   0  0  0  0  0  0  0  0  0  0  0  0 
    1.4864   -3.6635    2.0133 H   0  0  0  0  0  0  0  0  0  0  0  0 
    1.2981   -0.0602    0.0305 H   0  0  0  0  0  0  0  0  0  0  0  0 
    2.4158    1.2400    0.4403 H   0  0  0  0  0  0  0  0  0  0  0  0 
    6.2391    3.5801    4.3152 H   0  0  0  0  0  0  0  0  0  0  0  0 
    7.8305    2.5266    2.7196 H   0  0  0  0  0  0  0  0  0  0  0  0 
    3.8684    2.8384    4.3687 H   0  0  0  0  0  0  0  0  0  0  0  0 
    7.0309    0.7304    1.1818 H   0  0  0  0  0  0  0  0  0  0  0  0 
    3.0883    1.0670    2.8512 H   0  0  0  0  0  0  0  0  0  0  0  0 
    3.6466   -2.8643    1.0250 H   0  0  0  0  0  0  0  0  0  0  0  0 
    3.6211   -2.2525   -0.6224 H   0  0  0  0  0  0  0  0  0  0  0  0 
    2.7311   -0.7260    1.8632 H   0  0  0  0  0  0  0  0  0  0  0  0 
  1  4  1  0  0  0  0 
  2 20  1  0  0  0  0 
  2 14  1  0  0  0  0 
  3 23  1  0  0  0  0 
  3 24  1  0  0  0  0 
  4 25  1  0  0  0  0 
  4 26  1  0  0  0  0 
  4 11  1  0  0  0  0 
  5  7  1  0  0  0  0 
  5 27  1  0  0  0  0 
  6  5  2  0  0  0  0 
  7 29  1  0  0  0  0 
  8 12  2  0  0  0  0 
  8  6  1  0  0  0  0 
  9 31  1  0  0  0  0 
  9  7  2  0  0  0  0 
 10 11  1  0  0  0  0 
 10 32  1  0  0  0  0 
 11 13  1  0  0  0  0 
 11 34  1  1  0  0  0 
 12  9  1  0  0  0  0 
 13 12  1  0  0  0  0 
 14 10  1  0  0  0  0 
 14  3  1  0  0  0  0 
 15 13  2  0  0  0  0 
 16  1  1  0  0  0  0 
 17  1  1  0  0  0  0 
 18  1  1  0  0  0  0 
 19  2  1  0  0  0  0 
 21  2  1  0  0  0  0 
 22  3  1  0  0  0  0 
 28  6  1  0  0  0  0 
 30  8  1  0  0  0  0 
 33 10  1  0  0  0  0 
M  END 
>  <HBA> 
2 
 
>  <HBD> 
0 
 
>  <TPSA> 
20.31 
 
>  <cid> 
40664 
 
>  <dipole> 
2.56 
 
>  <excitation_energy_1> 
3.539 
 
>  <excitation_energy_2> 
3.643 
 
>  <excitation_energy_3> 
4.706 
 
>  <excitation_energy_4> 
4.888 
 
>  <homo_energy> 
-5.731 
 
>  <homo_lumo_gap> 
4.25 
 
>  <logP> 
2.457 
 
>  <lumo_energy> 
-1.48 
 
>  <melting_point> 
37.53 
 
>  <molecular_refractivity> 
63.57 
 
>  <oscillator_strength_1> 
0.0019 
 
>  <oscillator_strength_2> 
0.0006 
 
>  <oscillator_strength_3> 
0.0193 
 
>  <oscillator_strength_4> 
0.0009 
 
>  <open_babel_can_smiles> 
CC[C@H](C(=O)c1ccccc1)CN(C)C 
 
>  <mulliken_charges> 
34 
1   -0.45211 
2   -0.293797 
3   -0.300925 
4   -0.256283 
5   -0.118315 
6   -0.133552 
7   -0.136943 
8   -0.153234 
9   -0.180505 
10   -0.115424 
11   -0.199943 
12   0.078106 
13   0.411145 
14   -0.375127 
15   -0.483189 
16   0.14113 
17   0.155893 
18   0.15766 
19   0.145835 
20   0.11909 
21   0.151699 
22   0.14866 
23   0.148294 
24   0.118605 
25   0.159199 
26   0.133798 
27   0.137393 
28   0.138128 
29   0.135818 
30   0.163974 
31   0.140439 
32   0.114961 
33   0.165248 
34   0.13427 
 
>  <lowdin_charges> 
34 
1   -0.448226 
2   -0.354384 
3   -0.359618 
4   -0.269463 
5   -0.139774 
6   -0.154072 
7   -0.159785 
8   -0.129107 
9   -0.149051 
10   -0.202467 
11   -0.164146 
12   -0.049977 
13   0.164935 
14   -0.183906 
15   -0.247244 
16   0.1522 
17   0.153532 
18   0.152298 
19   0.147347 
20   0.121934 
21   0.150683 
22   0.149667 
23   0.147206 
24   0.122127 
25   0.154831 
26   0.14151 
27   0.162067 
28   0.160308 
29   0.161844 
30   0.178251 
31   0.160919 
32   0.124522 
33   0.159073 
34   0.145968 
 
$$$$ 
 
