PCCDB-ID:  20984 
public computational chemistry database (PCCDB) project, http://pccdb.org 
 
 23 22  0  0  0  0  0  0  0  0999 V2000 
    1.0368    0.1178    0.2273 C   0  0  0  0  0  0  0  0  0  0  0  0 
    2.7822   -1.5808    0.8597 C   0  0  0  0  0  0  0  0  0  0  0  0 
    3.2561    0.0350   -1.0050 C   0  0  0  0  0  0  0  0  0  0  0  0 
    3.0986    0.8729    1.4326 C   0  0  0  0  0  0  0  0  0  0  0  0 
    3.1082    1.4294   -1.6173 C   0  0  0  0  0  0  0  0  0  0  0  0 
    4.5974    0.7642    1.6507 C   0  0  0  0  0  0  0  0  0  0  0  0 
    2.5489   -0.1372    0.3730 C   0  0  0  0  0  0  0  0  0  0  0  0 
    2.2232    1.7114   -2.3931 O   0  0  0  0  0  0  0  0  0  0  0  0 
    4.0022    2.3576   -1.2199 O   0  0  0  0  0  0  0  0  0  0  0  0 
    5.4230    1.2143    0.8777 O   0  0  0  0  0  0  0  0  0  0  0  0 
    5.0284    0.0946    2.7393 O   0  0  0  0  0  0  0  0  0  0  0  0 
    0.5982   -0.5902   -0.4843 H   0  0  0  0  0  0  0  0  0  0  0  0 
    0.8292    1.1252   -0.1449 H   0  0  0  0  0  0  0  0  0  0  0  0 
    0.5251   -0.0105    1.1889 H   0  0  0  0  0  0  0  0  0  0  0  0 
    2.3732   -2.2992    0.1411 H   0  0  0  0  0  0  0  0  0  0  0  0 
    2.2797   -1.7581    1.8197 H   0  0  0  0  0  0  0  0  0  0  0  0 
    3.8476   -1.8078    0.9836 H   0  0  0  0  0  0  0  0  0  0  0  0 
    4.3155   -0.2275   -0.9132 H   0  0  0  0  0  0  0  0  0  0  0  0 
    2.7978   -0.6647   -1.7092 H   0  0  0  0  0  0  0  0  0  0  0  0 
    2.8942    1.8952    1.1006 H   0  0  0  0  0  0  0  0  0  0  0  0 
    2.5561    0.7230    2.3745 H   0  0  0  0  0  0  0  0  0  0  0  0 
    4.6428    1.9806   -0.5710 H   0  0  0  0  0  0  0  0  0  0  0  0 
    4.2722   -0.2128    3.2654 H   0  0  0  0  0  0  0  0  0  0  0  0 
  1  7  1  0  0  0  0 
  1 14  1  0  0  0  0 
  2 17  1  0  0  0  0 
  2 16  1  0  0  0  0 
  3 18  1  0  0  0  0 
  3  7  1  0  0  0  0 
  4  6  1  0  0  0  0 
  4 21  1  0  0  0  0 
  5  9  1  0  0  0  0 
  5  3  1  0  0  0  0 
  6 11  1  0  0  0  0 
  7  2  1  0  0  0  0 
  7  4  1  0  0  0  0 
  8  5  2  0  0  0  0 
  9 22  1  0  0  0  0 
 10  6  2  0  0  0  0 
 11 23  1  0  0  0  0 
 12  1  1  0  0  0  0 
 13  1  1  0  0  0  0 
 15  2  1  0  0  0  0 
 19  3  1  0  0  0  0 
 20  4  1  0  0  0  0 
M  END 
>  <HBA> 
4 
 
>  <HBD> 
2 
 
>  <TPSA> 
74.6 
 
>  <cid> 
20984 
 
>  <dipole> 
6.47 
 
>  <excitation_energy_1> 
5.494 
 
>  <excitation_energy_2> 
5.506 
 
>  <excitation_energy_3> 
5.73 
 
>  <excitation_energy_4> 
6.019 
 
>  <homo_energy> 
-6.958 
 
>  <homo_lumo_gap> 
6.199 
 
>  <logP> 
0.962 
 
>  <lumo_energy> 
-0.759 
 
>  <melting_point> 
145.78 
 
>  <molecular_refractivity> 
39.05 
 
>  <oscillator_strength_1> 
0.0012 
 
>  <oscillator_strength_2> 
0.0004 
 
>  <oscillator_strength_3> 
0.0016 
 
>  <oscillator_strength_4> 
0.0048 
 
>  <open_babel_can_smiles> 
OC(=O)CC(CC(=O)O)(C)C 
 
>  <mulliken_charges> 
23 
1   -0.448611 
2   -0.46804 
3   -0.369426 
4   -0.397834 
5   0.579521 
6   0.617258 
7   0.074618 
8   -0.458239 
9   -0.598964 
10   -0.465383 
11   -0.546789 
12   0.159444 
13   0.179121 
14   0.137574 
15   0.164059 
16   0.137506 
17   0.158176 
18   0.163351 
19   0.172776 
20   0.2012 
21   0.141597 
22   0.446795 
23   0.420287 
 
>  <lowdin_charges> 
23 
1   -0.443922 
2   -0.45026 
3   -0.32069 
4   -0.323862 
5   0.184535 
6   0.213701 
7   0.024554 
8   -0.259004 
9   -0.368899 
10   -0.258801 
11   -0.33083 
12   0.161414 
13   0.16703 
14   0.147095 
15   0.162764 
16   0.146021 
17   0.152641 
18   0.160302 
19   0.173523 
20   0.183519 
21   0.153135 
22   0.359549 
23   0.366487 
 
$$$$ 
 
