PCCDB-ID:  12632 
public computational chemistry database (PCCDB) project, http://pccdb.org 
 
 19 20  0  0  0  0  0  0  0  0999 V2000 
    0.9024    0.1096    0.0869 C   0  0  0  0  0  0  0  0  0  0  0  0 
    4.5903   -1.0408    0.0950 C   0  0  0  0  0  0  0  0  0  0  0  0 
    3.1817   -1.0526    0.0927 C   0  0  0  0  0  0  0  0  0  0  0  0 
    5.2820    0.1636    0.0911 C   0  0  0  0  0  0  0  0  0  0  0  0 
    3.5957    3.5277    0.0751 C   0  0  0  0  0  0  0  0  0  0  0  0 
    2.4084    0.1115    0.0878 C   0  0  0  0  0  0  0  0  0  0  0  0 
    4.5332    1.3457    0.0849 C   0  0  0  0  0  0  0  0  0  0  0  0 
    4.9310    2.7570    0.0775 C   0  0  0  0  0  0  0  0  0  0  0  0 
    3.1365    1.3086    0.0839 C   0  0  0  0  0  0  0  0  0  0  0  0 
    6.0379    3.2625    0.0727 O   0  0  0  0  0  0  0  0  0  0  0  0 
    2.5461    2.5395    0.0786 O   0  0  0  0  0  0  0  0  0  0  0  0 
    0.5115   -0.9121    0.0835 H   0  0  0  0  0  0  0  0  0  0  0  0 
    0.5044    0.6322   -0.7913 H   0  0  0  0  0  0  0  0  0  0  0  0 
    0.5034    0.6265    0.9680 H   0  0  0  0  0  0  0  0  0  0  0  0 
    5.1295   -1.9833    0.0994 H   0  0  0  0  0  0  0  0  0  0  0  0 
    2.6664   -2.0106    0.0943 H   0  0  0  0  0  0  0  0  0  0  0  0 
    6.3671    0.2066    0.0934 H   0  0  0  0  0  0  0  0  0  0  0  0 
    3.4954    4.1526   -0.8182 H   0  0  0  0  0  0  0  0  0  0  0  0 
    3.4957    4.1580    0.9648 H   0  0  0  0  0  0  0  0  0  0  0  0 
  1  6  1  0  0  0  0 
  1 14  1  0  0  0  0 
  2 15  1  0  0  0  0 
  3 16  1  0  0  0  0 
  3  2  1  0  0  0  0 
  4 17  1  0  0  0  0 
  4  2  2  0  0  0  0 
  5  8  1  0  0  0  0 
  5 11  1  0  0  0  0 
  5 19  1  0  0  0  0 
  6  3  2  0  0  0  0 
  7  4  1  0  0  0  0 
  8  7  1  0  0  0  0 
  9  7  2  0  0  0  0 
  9  6  1  0  0  0  0 
 10  8  2  0  0  0  0 
 11  9  1  0  0  0  0 
 12  1  1  0  0  0  0 
 13  1  1  0  0  0  0 
 18  5  1  0  0  0  0 
M  END 
>  <HBA> 
2 
 
>  <HBD> 
0 
 
>  <TPSA> 
26.3 
 
>  <cid> 
12632 
 
>  <dipole> 
2.8 
 
>  <excitation_energy_1> 
3.78 
 
>  <excitation_energy_2> 
4.043 
 
>  <excitation_energy_3> 
5.031 
 
>  <excitation_energy_4> 
5.847 
 
>  <homo_energy> 
-6.289 
 
>  <homo_lumo_gap> 
4.702 
 
>  <logP> 
1.57 
 
>  <lumo_energy> 
-1.586 
 
>  <melting_point> 
72.4 
 
>  <molecular_refractivity> 
41.17 
 
>  <oscillator_strength_1> 
0.0001 
 
>  <oscillator_strength_2> 
0.0863 
 
>  <oscillator_strength_3> 
0.1434 
 
>  <oscillator_strength_4> 
0.0011 
 
>  <open_babel_can_smiles> 
O=C1COc2c1cccc2C 
 
>  <mulliken_charges> 
19 
1   -0.51846 
2   -0.136655 
3   -0.185905 
4   -0.180025 
5   -0.12007 
6   0.135262 
7   0.084438 
8   0.347422 
9   0.258335 
10   -0.467612 
11   -0.524653 
12   0.155175 
13   0.172464 
14   0.172435 
15   0.136469 
16   0.133224 
17   0.157409 
18   0.190392 
19   0.190355 
 
>  <lowdin_charges> 
19 
1   -0.437069 
2   -0.172941 
3   -0.138018 
4   -0.121583 
5   -0.155094 
6   -0.027698 
7   -0.090955 
8   0.134158 
9   0.107565 
10   -0.242152 
11   -0.196573 
12   0.158189 
13   0.167548 
14   0.167501 
15   0.162378 
16   0.160854 
17   0.171328 
18   0.176285 
19   0.176277 
 
$$$$ 
 
