PCCDB-ID:  34804 
public computational chemistry database (PCCDB) project, http://pccdb.org 
 
 25 27  0  0  0  0  0  0  0  0999 V2000 
   -3.4624    0.1145    0.0040 C   0  0  0  0  0  0  0  0  0  0  0  0 
   -3.0133   -1.2115   -0.0193 C   0  0  0  0  0  0  0  0  0  0  0  0 
   -2.5517    1.1763    0.0206 C   0  0  0  0  0  0  0  0  0  0  0  0 
   -1.6481   -1.4991   -0.0264 C   0  0  0  0  0  0  0  0  0  0  0  0 
    3.0072   -1.1963   -0.0198 C   0  0  0  0  0  0  0  0  0  0  0  0 
    1.6460   -1.4922   -0.0268 C   0  0  0  0  0  0  0  0  0  0  0  0 
    2.5309    1.1950    0.0219 C   0  0  0  0  0  0  0  0  0  0  0  0 
   -0.0101    1.8472    0.0308 C   0  0  0  0  0  0  0  0  0  0  0  0 
    4.9053    0.4164    0.0097 C   0  0  0  0  0  0  0  0  0  0  0  0 
    3.4560    0.1341    0.0041 C   0  0  0  0  0  0  0  0  0  0  0  0 
   -1.1896    0.8964    0.0136 C   0  0  0  0  0  0  0  0  0  0  0  0 
    1.1782    0.9064    0.0158 C   0  0  0  0  0  0  0  0  0  0  0  0 
   -0.7366   -0.4397   -0.0097 C   0  0  0  0  0  0  0  0  0  0  0  0 
    0.7299   -0.4365   -0.0088 C   0  0  0  0  0  0  0  0  0  0  0  0 
    5.3978    1.5300    0.0297 O   0  0  0  0  0  0  0  0  0  0  0  0 
   -4.5292    0.3206    0.0098 H   0  0  0  0  0  0  0  0  0  0  0  0 
   -3.7351   -2.0236   -0.0317 H   0  0  0  0  0  0  0  0  0  0  0  0 
   -2.9086    2.2033    0.0385 H   0  0  0  0  0  0  0  0  0  0  0  0 
   -1.3043   -2.5301   -0.0448 H   0  0  0  0  0  0  0  0  0  0  0  0 
    3.7389   -2.0015   -0.0327 H   0  0  0  0  0  0  0  0  0  0  0  0 
    1.3074   -2.5246   -0.0464 H   0  0  0  0  0  0  0  0  0  0  0  0 
    2.9092    2.2134    0.0398 H   0  0  0  0  0  0  0  0  0  0  0  0 
   -0.0118    2.4911    0.9211 H   0  0  0  0  0  0  0  0  0  0  0  0 
   -0.0097    2.5204   -0.8375 H   0  0  0  0  0  0  0  0  0  0  0  0 
    5.5535   -0.4886   -0.0063 H   0  0  0  0  0  0  0  0  0  0  0  0 
  1 16  1  0  0  0  0 
  1  3  2  0  0  0  0 
  2  1  1  0  0  0  0 
  3 18  1  0  0  0  0 
  4  2  2  0  0  0  0 
  4 13  1  0  0  0  0 
  5 10  1  0  0  0  0 
  6  5  2  0  0  0  0 
  6 14  1  0  0  0  0 
  7 22  1  0  0  0  0 
  8 23  1  0  0  0  0 
  9 15  2  0  0  0  0 
 10  9  1  0  0  0  0 
 10  7  2  0  0  0  0 
 11  3  1  0  0  0  0 
 11  8  1  0  0  0  0 
 12  7  1  0  0  0  0 
 12  8  1  0  0  0  0 
 13 14  1  0  0  0  0 
 13 11  2  0  0  0  0 
 14 12  2  0  0  0  0 
 17  2  1  0  0  0  0 
 19  4  1  0  0  0  0 
 20  5  1  0  0  0  0 
 21  6  1  0  0  0  0 
 24  8  1  0  0  0  0 
 25  9  1  0  0  0  0 
M  END 
>  <HBA> 
1 
 
>  <HBD> 
0 
 
>  <TPSA> 
17.07 
 
>  <cid> 
34804 
 
>  <dipole> 
3.74 
 
>  <excitation_energy_1> 
3.629 
 
>  <excitation_energy_2> 
4.003 
 
>  <excitation_energy_3> 
4.344 
 
>  <excitation_energy_4> 
4.431 
 
>  <homo_energy> 
-6.158 
 
>  <homo_lumo_gap> 
4.338 
 
>  <logP> 
3.07 
 
>  <lumo_energy> 
-1.82 
 
>  <melting_point> 
108.28 
 
>  <molecular_refractivity> 
60.28 
 
>  <oscillator_strength_1> 
0.0001 
 
>  <oscillator_strength_2> 
0.6186 
 
>  <oscillator_strength_3> 
0.0287 
 
>  <oscillator_strength_4> 
0.0117 
 
>  <open_babel_can_smiles> 
O=Cc1ccc2c(c1)Cc1c2cccc1 
 
>  <mulliken_charges> 
25 
1   -0.126759 
2   -0.137441 
3   -0.200801 
4   -0.186766 
5   -0.194573 
6   -0.191871 
7   -0.242908 
8   -0.418323 
9   0.188628 
10   0.104422 
11   0.106 
12   0.111311 
13   0.08549 
14   0.093769 
15   -0.413198 
16   0.132981 
17   0.133018 
18   0.13078 
19   0.133262 
20   0.138396 
21   0.13715 
22   0.158668 
23   0.179843 
24   0.179841 
25   0.099081 
 
>  <lowdin_charges> 
25 
1   -0.149206 
2   -0.15607 
3   -0.160886 
4   -0.15569 
5   -0.142852 
6   -0.162426 
7   -0.132468 
8   -0.274604 
9   0.04254 
10   -0.057247 
11   -3.7e-05 
12   -0.003752 
13   -0.01524 
14   0.007815 
15   -0.235858 
16   0.158387 
17   0.16077 
18   0.158286 
19   0.158285 
20   0.162374 
21   0.160298 
22   0.17387 
23   0.173452 
24   0.173549 
25   0.11671 
 
$$$$ 
 
