PCCDB-ID:  48226 
public computational chemistry database (PCCDB) project, http://pccdb.org 
 
 23 24  0  0  0  0  0  0  0  0999 V2000 
    3.4752   -0.5126   -1.1121 C   0  0  0  0  0  0  0  0  0  0  0  0 
    2.4871   -0.0918   -0.0086 C   0  0  0  0  0  0  0  0  0  0  0  0 
    4.9139    1.3186    5.5993 C   0  0  0  0  0  0  0  0  0  0  0  0 
    5.0112   -0.0137    6.0296 C   0  0  0  0  0  0  0  0  0  0  0  0 
    4.4007    1.6035    4.3415 C   0  0  0  0  0  0  0  0  0  0  0  0 
    4.5973   -1.0570    5.2078 C   0  0  0  0  0  0  0  0  0  0  0  0 
    3.4334    0.7743    2.1705 C   0  0  0  0  0  0  0  0  0  0  0  0 
    3.0426   -0.2585    1.3833 C   0  0  0  0  0  0  0  0  0  0  0  0 
    3.9752    0.5670    3.4893 C   0  0  0  0  0  0  0  0  0  0  0  0 
    4.0824   -0.7591    3.9451 C   0  0  0  0  0  0  0  0  0  0  0  0 
    3.1605   -1.6369    1.8846 C   0  0  0  0  0  0  0  0  0  0  0  0 
    2.8339   -2.6335    1.2799 O   0  0  0  0  0  0  0  0  0  0  0  0 
    3.6833   -1.8048    3.1630 O   0  0  0  0  0  0  0  0  0  0  0  0 
    3.0211   -0.3794   -2.1002 H   0  0  0  0  0  0  0  0  0  0  0  0 
    3.7483   -1.5655   -1.0010 H   0  0  0  0  0  0  0  0  0  0  0  0 
    4.3894    0.0904   -1.0737 H   0  0  0  0  0  0  0  0  0  0  0  0 
    1.5783   -0.6983   -0.0995 H   0  0  0  0  0  0  0  0  0  0  0  0 
    2.1963    0.9561   -0.1498 H   0  0  0  0  0  0  0  0  0  0  0  0 
    5.2401    2.1247    6.2494 H   0  0  0  0  0  0  0  0  0  0  0  0 
    5.4134   -0.2368    7.0137 H   0  0  0  0  0  0  0  0  0  0  0  0 
    4.3211    2.6316    3.9970 H   0  0  0  0  0  0  0  0  0  0  0  0 
    4.6630   -2.0941    5.5193 H   0  0  0  0  0  0  0  0  0  0  0  0 
    3.3418    1.7965    1.8068 H   0  0  0  0  0  0  0  0  0  0  0  0 
  1 16  1  0  0  0  0 
  1 15  1  0  0  0  0 
  1  2  1  0  0  0  0 
  2  8  1  0  0  0  0 
  3  4  1  0  0  0  0 
  3 19  1  0  0  0  0 
  4 20  1  0  0  0  0 
  5  3  2  0  0  0  0 
  6 22  1  0  0  0  0 
  6  4  2  0  0  0  0 
  7  9  1  0  0  0  0 
  8 11  1  0  0  0  0 
  8  7  2  0  0  0  0 
  9 10  2  0  0  0  0 
  9  5  1  0  0  0  0 
 10  6  1  0  0  0  0 
 11 13  1  0  0  0  0 
 12 11  2  0  0  0  0 
 13 10  1  0  0  0  0 
 14  1  1  0  0  0  0 
 17  2  1  0  0  0  0 
 18  2  1  0  0  0  0 
 21  5  1  0  0  0  0 
 23  7  1  0  0  0  0 
M  END 
>  <HBA> 
2 
 
>  <HBD> 
0 
 
>  <TPSA> 
30.21 
 
>  <cid> 
48226 
 
>  <dipole> 
4.24 
 
>  <excitation_energy_1> 
4.169 
 
>  <excitation_energy_2> 
4.522 
 
>  <excitation_energy_3> 
4.55 
 
>  <excitation_energy_4> 
5.307 
 
>  <homo_energy> 
-6.329 
 
>  <homo_lumo_gap> 
4.61 
 
>  <logP> 
2.355 
 
>  <lumo_energy> 
-1.72 
 
>  <melting_point> 
86.5 
 
>  <molecular_refractivity> 
52.26 
 
>  <oscillator_strength_1> 
0.2098 
 
>  <oscillator_strength_2> 
0.038 
 
>  <oscillator_strength_3> 
0.1287 
 
>  <oscillator_strength_4> 
0.016 
 
>  <open_babel_can_smiles> 
CCc1cc2ccccc2oc1=O 
 
>  <mulliken_charges> 
23 
1   -0.448049 
2   -0.325422 
3   -0.13205 
4   -0.133787 
5   -0.201227 
6   -0.169589 
7   -0.195429 
8   0.072863 
9   0.139601 
10   0.308094 
11   0.566894 
12   -0.465745 
13   -0.51661 
14   0.147707 
15   0.179511 
16   0.142193 
17   0.168886 
18   0.138945 
19   0.138276 
20   0.142858 
21   0.139714 
22   0.156568 
23   0.145797 
 
>  <lowdin_charges> 
23 
1   -0.441549 
2   -0.263178 
3   -0.166335 
4   -0.137797 
5   -0.146707 
6   -0.171524 
7   -0.127157 
8   -0.043418 
9   -0.037169 
10   0.108788 
11   0.196642 
12   -0.247543 
13   -0.12808 
14   0.152435 
15   0.16406 
16   0.147054 
17   0.165354 
18   0.146554 
19   0.164356 
20   0.164681 
21   0.161664 
22   0.174662 
23   0.164207 
 
$$$$ 
 
