PCCDB-ID:  12027 
public computational chemistry database (PCCDB) project, http://pccdb.org 
 
 20 19  0  0  0  0  0  0  0  0999 V2000 
    0.6866   -0.5280   -0.7220 C   0  0  0  0  0  0  0  0  0  0  0  0 
    2.1533   -0.8532   -0.4202 C   0  0  0  0  0  0  0  0  0  0  0  0 
    3.0833    0.3187   -0.7599 C   0  0  0  0  0  0  0  0  0  0  0  0 
    4.5941    0.0719   -0.4487 C   0  0  0  0  0  0  0  0  0  0  0  0 
    4.7781   -0.0701    1.0774 C   0  0  0  0  0  0  0  0  0  0  0  0 
    5.1189   -1.0743   -1.2834 C   0  0  0  0  0  0  0  0  0  0  0  0 
    4.6849    0.9052    1.7842 O   0  0  0  0  0  0  0  0  0  0  0  0 
    4.9764   -1.2971    1.5775 O   0  0  0  0  0  0  0  0  0  0  0  0 
    5.2875   -2.2232   -0.8999 O   0  0  0  0  0  0  0  0  0  0  0  0 
    5.3594   -0.7114   -2.5535 O   0  0  0  0  0  0  0  0  0  0  0  0 
    0.0371   -1.3736   -0.4718 H   0  0  0  0  0  0  0  0  0  0  0  0 
    0.5400   -0.2964   -1.7840 H   0  0  0  0  0  0  0  0  0  0  0  0 
    0.3462    0.3379   -0.1420 H   0  0  0  0  0  0  0  0  0  0  0  0 
    2.4522   -1.7467   -0.9850 H   0  0  0  0  0  0  0  0  0  0  0  0 
    2.2593   -1.1121    0.6410 H   0  0  0  0  0  0  0  0  0  0  0  0 
    2.7957    1.2042   -0.1827 H   0  0  0  0  0  0  0  0  0  0  0  0 
    2.9925    0.5783   -1.8215 H   0  0  0  0  0  0  0  0  0  0  0  0 
    5.1346    0.9771   -0.7401 H   0  0  0  0  0  0  0  0  0  0  0  0 
    5.0718   -1.9398    0.8349 H   0  0  0  0  0  0  0  0  0  0  0  0 
    5.6612   -1.5118   -3.0258 H   0  0  0  0  0  0  0  0  0  0  0  0 
  1 11  1  0  0  0  0 
  1  2  1  0  0  0  0 
  1 13  1  0  0  0  0 
  2 15  1  0  0  0  0 
  3  4  1  0  0  0  0 
  3  2  1  0  0  0  0 
  3 16  1  0  0  0  0 
  4  5  1  0  0  0  0 
  5  8  1  0  0  0  0 
  5  7  2  0  0  0  0 
  6  9  2  0  0  0  0 
  6  4  1  0  0  0  0 
 10  6  1  0  0  0  0 
 12  1  1  0  0  0  0 
 14  2  1  0  0  0  0 
 17  3  1  0  0  0  0 
 18  4  1  0  0  0  0 
 19  8  1  0  0  0  0 
 20 10  1  0  0  0  0 
M  END 
>  <HBA> 
4 
 
>  <HBD> 
2 
 
>  <TPSA> 
74.6 
 
>  <cid> 
12027 
 
>  <dipole> 
4.96 
 
>  <excitation_energy_1> 
5.556 
 
>  <excitation_energy_2> 
5.797 
 
>  <excitation_energy_3> 
5.908 
 
>  <excitation_energy_4> 
6.619 
 
>  <homo_energy> 
-7.317 
 
>  <homo_lumo_gap> 
6.517 
 
>  <logP> 
0.572 
 
>  <lumo_energy> 
-0.8 
 
>  <melting_point> 
127.75 
 
>  <molecular_refractivity> 
34.5 
 
>  <oscillator_strength_1> 
0.0054 
 
>  <oscillator_strength_2> 
0.0059 
 
>  <oscillator_strength_3> 
0.0017 
 
>  <oscillator_strength_4> 
0.0113 
 
>  <open_babel_can_smiles> 
CCCC(C(=O)O)C(=O)O 
 
>  <mulliken_charges> 
20 
1   -0.444353 
2   -0.278045 
3   -0.270424 
4   -0.29337 
5   0.610999 
6   0.611508 
7   -0.458652 
8   -0.585085 
9   -0.496262 
10   -0.551966 
11   0.152224 
12   0.144334 
13   0.152992 
14   0.14238 
15   0.161539 
16   0.180015 
17   0.157354 
18   0.200359 
19   0.442934 
20   0.421518 
 
>  <lowdin_charges> 
20 
1   -0.44201 
2   -0.282541 
3   -0.259911 
4   -0.196222 
5   0.192849 
6   0.207972 
7   -0.252814 
8   -0.354109 
9   -0.282093 
10   -0.330506 
11   0.156173 
12   0.146494 
13   0.153015 
14   0.144028 
15   0.152258 
16   0.167713 
17   0.152107 
18   0.19223 
19   0.364931 
20   0.370435 
 
$$$$ 
 
