PCCDB-ID:  11262 
public computational chemistry database (PCCDB) project, http://pccdb.org 
 
 19 18  0  0  1  0  0  0  0  0999 V2000 
    2.8745   -0.0782   -1.3613 C   0  0  0  0  0  0  0  0  0  0  0  0 
    2.7399    0.4471    2.5288 C   0  0  0  0  0  0  0  0  0  0  0  0 
    5.5238    1.8631    1.2636 C   0  0  0  0  0  0  0  0  0  0  0  0 
    2.5812   -0.3535    0.1172 C   0  0  0  0  0  0  0  0  0  0  0  0 
    3.2207    0.6632    1.0768 C   0  0  2  0  0  0  0  0  0  0  0  0 
    4.7526    0.5693    1.0666 C   0  0  0  0  0  0  0  0  0  0  0  0 
    5.3227   -0.4976    0.9294 O   0  0  0  0  0  0  0  0  0  0  0  0 
    2.3726   -0.8107   -2.0032 H   0  0  0  0  0  0  0  0  0  0  0  0 
    3.9483   -0.1389   -1.5695 H   0  0  0  0  0  0  0  0  0  0  0  0 
    2.5253    0.9183   -1.6606 H   0  0  0  0  0  0  0  0  0  0  0  0 
    1.6499    0.5414    2.5857 H   0  0  0  0  0  0  0  0  0  0  0  0 
    3.1751    1.1784    3.2198 H   0  0  0  0  0  0  0  0  0  0  0  0 
    3.0163   -0.5542    2.8769 H   0  0  0  0  0  0  0  0  0  0  0  0 
    5.1232    2.4423    2.1042 H   0  0  0  0  0  0  0  0  0  0  0  0 
    5.4162    2.4899    0.3682 H   0  0  0  0  0  0  0  0  0  0  0  0 
    6.5822    1.6495    1.4265 H   0  0  0  0  0  0  0  0  0  0  0  0 
    2.9462   -1.3519    0.3839 H   0  0  0  0  0  0  0  0  0  0  0  0 
    1.4958   -0.3527    0.2836 H   0  0  0  0  0  0  0  0  0  0  0  0 
    2.9367    1.6811    0.7719 H   0  0  0  0  0  0  0  0  0  0  0  0 
  1  4  1  0  0  0  0 
  2 11  1  0  0  0  0 
  2 13  1  0  0  0  0 
  2 12  1  0  0  0  0 
  3 16  1  0  0  0  0 
  3 14  1  0  0  0  0 
  4 18  1  0  0  0  0 
  4 17  1  0  0  0  0 
  4  5  1  0  0  0  0 
  5 19  1  6  0  0  0 
  5  2  1  0  0  0  0 
  6  5  1  0  0  0  0 
  6  3  1  0  0  0  0 
  7  6  2  0  0  0  0 
  8  1  1  0  0  0  0 
  9  1  1  0  0  0  0 
 10  1  1  0  0  0  0 
 15  3  1  0  0  0  0 
M  END 
>  <HBA> 
1 
 
>  <HBD> 
0 
 
>  <TPSA> 
17.07 
 
>  <cid> 
11262 
 
>  <dipole> 
2.57 
 
>  <excitation_energy_1> 
4.335 
 
>  <excitation_energy_2> 
6.04 
 
>  <excitation_energy_3> 
6.65 
 
>  <excitation_energy_4> 
6.694 
 
>  <homo_energy> 
-6.528 
 
>  <homo_lumo_gap> 
6.223 
 
>  <logP> 
1.621 
 
>  <lumo_energy> 
-0.305 
 
>  <melting_point> 
-5.17 
 
>  <molecular_refractivity> 
31.16 
 
>  <oscillator_strength_1> 
0.0003 
 
>  <oscillator_strength_2> 
0.0122 
 
>  <oscillator_strength_3> 
0.0368 
 
>  <oscillator_strength_4> 
0.0073 
 
>  <open_babel_can_smiles> 
CC[C@H](C(=O)C)C 
 
>  <mulliken_charges> 
19 
1   -0.45621 
2   -0.458162 
3   -0.533466 
4   -0.244217 
5   -0.150517 
6   0.460776 
7   -0.448674 
8   0.146586 
9   0.158178 
10   0.135504 
11   0.153819 
12   0.14507 
13   0.1656 
14   0.164919 
15   0.172795 
16   0.178257 
17   0.1584 
18   0.127317 
19   0.124026 
 
>  <lowdin_charges> 
19 
1   -0.447481 
2   -0.436486 
3   -0.475321 
4   -0.268404 
5   -0.155794 
6   0.16913 
7   -0.241185 
8   0.154069 
9   0.152294 
10   0.142235 
11   0.153339 
12   0.150612 
13   0.158514 
14   0.166867 
15   0.172793 
16   0.170231 
17   0.154921 
18   0.139355 
19   0.14031 
 
$$$$ 
 
