PCCDB-ID:  68093 
public computational chemistry database (PCCDB) project, http://pccdb.org 
 
 27 27  0  0  0  0  0  0  0  0999 V2000 
    3.7929    2.6850   -1.0193 C   0  0  0  0  0  0  0  0  0  0  0  0 
    7.6403    3.3061    1.9084 C   0  0  0  0  0  0  0  0  0  0  0  0 
    7.1174   -2.0419   -1.6189 C   0  0  0  0  0  0  0  0  0  0  0  0 
    8.2652   -1.9060   -0.8488 C   0  0  0  0  0  0  0  0  0  0  0  0 
    6.0890   -1.1039   -1.5211 C   0  0  0  0  0  0  0  0  0  0  0  0 
    4.6522    1.5512   -1.5128 C   0  0  0  0  0  0  0  0  0  0  0  0 
    7.5245    2.4188    0.6970 C   0  0  0  0  0  0  0  0  0  0  0  0 
    8.4162   -0.8263    0.0357 C   0  0  0  0  0  0  0  0  0  0  0  0 
    6.2224   -0.0322   -0.6422 C   0  0  0  0  0  0  0  0  0  0  0  0 
    7.3755    0.1111    0.1405 C   0  0  0  0  0  0  0  0  0  0  0  0 
    9.7067   -0.7700    0.7838 C   0  0  0  0  0  0  0  0  0  0  0  0 
    4.8397    1.2417   -2.6599 O   0  0  0  0  0  0  0  0  0  0  0  0 
    7.5223    2.7682   -0.4560 O   0  0  0  0  0  0  0  0  0  0  0  0 
   10.4994   -1.6902    0.8164 O   0  0  0  0  0  0  0  0  0  0  0  0 
    9.9629    0.4069    1.4053 O   0  0  0  0  0  0  0  0  0  0  0  0 
    5.2215    0.9028   -0.4333 O   0  0  0  0  0  0  0  0  0  0  0  0 
    7.4280    1.1081    1.0978 O   0  0  0  0  0  0  0  0  0  0  0  0 
    3.1528    3.0360   -1.8294 H   0  0  0  0  0  0  0  0  0  0  0  0 
    4.4470    3.5025   -0.6953 H   0  0  0  0  0  0  0  0  0  0  0  0 
    3.1913    2.3748   -0.1605 H   0  0  0  0  0  0  0  0  0  0  0  0 
    8.5518    3.0484    2.4572 H   0  0  0  0  0  0  0  0  0  0  0  0 
    6.7934    3.1415    2.5822 H   0  0  0  0  0  0  0  0  0  0  0  0 
    7.6747    4.3496    1.5942 H   0  0  0  0  0  0  0  0  0  0  0  0 
    7.0157   -2.8798   -2.3016 H   0  0  0  0  0  0  0  0  0  0  0  0 
    9.0730   -2.6264   -0.9113 H   0  0  0  0  0  0  0  0  0  0  0  0 
    5.1919   -1.1940   -2.1197 H   0  0  0  0  0  0  0  0  0  0  0  0 
   10.8416    0.2854    1.8127 H   0  0  0  0  0  0  0  0  0  0  0  0 
  1 19  1  0  0  0  0 
  1 20  1  0  0  0  0 
  2 21  1  0  0  0  0 
  2 22  1  0  0  0  0 
  3  5  2  0  0  0  0 
  3  4  1  0  0  0  0 
  4  8  2  0  0  0  0 
  5  9  1  0  0  0  0 
  6  1  1  0  0  0  0 
  6 16  1  0  0  0  0 
  7 17  1  0  0  0  0 
  7  2  1  0  0  0  0 
  8 10  1  0  0  0  0 
  8 11  1  0  0  0  0 
  9 16  1  0  0  0  0 
  9 10  2  0  0  0  0 
 10 17  1  0  0  0  0 
 11 14  2  0  0  0  0 
 11 15  1  0  0  0  0 
 12  6  2  0  0  0  0 
 13  7  2  0  0  0  0 
 15 27  1  0  0  0  0 
 18  1  1  0  0  0  0 
 23  2  1  0  0  0  0 
 24  3  1  0  0  0  0 
 25  4  1  0  0  0  0 
 26  5  1  0  0  0  0 
M  END 
>  <HBA> 
6 
 
>  <HBD> 
1 
 
>  <TPSA> 
89.9 
 
>  <cid> 
68093 
 
>  <dipole> 
3.32 
 
>  <excitation_energy_1> 
4.568 
 
>  <excitation_energy_2> 
4.894 
 
>  <excitation_energy_3> 
5.244 
 
>  <excitation_energy_4> 
5.425 
 
>  <homo_energy> 
-6.844 
 
>  <homo_lumo_gap> 
5.355 
 
>  <logP> 
1.235 
 
>  <lumo_energy> 
-1.488 
 
>  <melting_point> 
148.31 
 
>  <molecular_refractivity> 
56.4 
 
>  <oscillator_strength_1> 
0.0502 
 
>  <oscillator_strength_2> 
0.0173 
 
>  <oscillator_strength_3> 
0.0934 
 
>  <oscillator_strength_4> 
0.0021 
 
>  <open_babel_can_smiles> 
CC(=O)Oc1c(cccc1C(=O)O)OC(=O)C 
 
>  <mulliken_charges> 
27 
1   -0.533414 
2   -0.531247 
3   -0.141289 
4   -0.169786 
5   -0.137316 
6   0.61324 
7   0.61399 
8   0.047022 
9   0.345569 
10   0.283521 
11   0.54875 
12   -0.437123 
13   -0.451393 
14   -0.469279 
15   -0.57582 
16   -0.527545 
17   -0.511866 
18   0.187071 
19   0.199211 
20   0.181634 
21   0.194484 
22   0.18619 
23   0.18398 
24   0.147981 
25   0.172869 
26   0.168958 
27   0.411607 
 
>  <lowdin_charges> 
27 
1   -0.465523 
2   -0.461297 
3   -0.152523 
4   -0.12885 
5   -0.141846 
6   0.219625 
7   0.218385 
8   -0.059133 
9   0.088888 
10   0.100791 
11   0.203308 
12   -0.227519 
13   -0.241309 
14   -0.269798 
15   -0.35246 
16   -0.164323 
17   -0.151533 
18   0.17966 
19   0.188721 
20   0.1779 
21   0.185376 
22   0.180989 
23   0.175602 
24   0.168581 
25   0.183528 
26   0.18264 
27   0.36212 
 
$$$$ 
 
