PCCDB-ID:  56227 
public computational chemistry database (PCCDB) project, http://pccdb.org 
 
 21 20  0  0  0  0  0  0  0  0999 V2000 
    1.1334   -1.2682   -1.3587 C   0  0  0  0  0  0  0  0  0  0  0  0 
    0.0706    0.4528    0.1782 C   0  0  0  0  0  0  0  0  0  0  0  0 
    5.2230    0.0546    1.2699 C   0  0  0  0  0  0  0  0  0  0  0  0 
    6.6231   -0.0007    1.6748 C   0  0  0  0  0  0  0  0  0  0  0  0 
    4.9077   -0.0989   -0.0347 C   0  0  0  0  0  0  0  0  0  0  0  0 
    2.5487    0.1207    0.2164 C   0  0  0  0  0  0  0  0  0  0  0  0 
    1.3021    0.0900   -0.6646 C   0  0  0  0  0  0  0  0  0  0  0  0 
    7.0229    0.1252    2.8201 O   0  0  0  0  0  0  0  0  0  0  0  0 
    3.7042   -0.0821   -0.6171 O   0  0  0  0  0  0  0  0  0  0  0  0 
    0.2665   -1.2557   -2.0286 H   0  0  0  0  0  0  0  0  0  0  0  0 
    0.9738   -2.0662   -0.6218 H   0  0  0  0  0  0  0  0  0  0  0  0 
    2.0174   -1.5245   -1.9500 H   0  0  0  0  0  0  0  0  0  0  0  0 
   -0.8320    0.4567   -0.4419 H   0  0  0  0  0  0  0  0  0  0  0  0 
    0.1678    1.4452    0.6341 H   0  0  0  0  0  0  0  0  0  0  0  0 
   -0.0858   -0.2750    0.9847 H   0  0  0  0  0  0  0  0  0  0  0  0 
    4.4850    0.2184    2.0474 H   0  0  0  0  0  0  0  0  0  0  0  0 
    7.3424   -0.1726    0.8397 H   0  0  0  0  0  0  0  0  0  0  0  0 
    5.6847   -0.2610   -0.7797 H   0  0  0  0  0  0  0  0  0  0  0  0 
    2.5146   -0.6711    0.9778 H   0  0  0  0  0  0  0  0  0  0  0  0 
    2.6496    1.0867    0.7283 H   0  0  0  0  0  0  0  0  0  0  0  0 
    1.4361    0.8620   -1.4353 H   0  0  0  0  0  0  0  0  0  0  0  0 
  1  7  1  0  0  0  0 
  1 11  1  0  0  0  0 
  2 14  1  0  0  0  0 
  2 15  1  0  0  0  0 
  3  4  1  0  0  0  0 
  3 16  1  0  0  0  0 
  4  8  2  0  0  0  0 
  5  3  2  0  0  0  0 
  6 20  1  0  0  0  0 
  6 19  1  0  0  0  0 
  7  2  1  0  0  0  0 
  7  6  1  0  0  0  0 
  9  5  1  0  0  0  0 
  9  6  1  0  0  0  0 
 10  1  1  0  0  0  0 
 12  1  1  0  0  0  0 
 13  2  1  0  0  0  0 
 17  4  1  0  0  0  0 
 18  5  1  0  0  0  0 
 21  7  1  0  0  0  0 
M  END 
>  <HBA> 
2 
 
>  <HBD> 
0 
 
>  <TPSA> 
26.3 
 
>  <cid> 
56227 
 
>  <dipole> 
4.53 
 
>  <excitation_energy_1> 
3.96 
 
>  <excitation_energy_2> 
5.688 
 
>  <excitation_energy_3> 
6.347 
 
>  <excitation_energy_4> 
6.354 
 
>  <homo_energy> 
-6.525 
 
>  <homo_lumo_gap> 
5.513 
 
>  <logP> 
1.372 
 
>  <lumo_energy> 
-1.012 
 
>  <melting_point> 
5.34 
 
>  <molecular_refractivity> 
36.57 
 
>  <oscillator_strength_1> 
0.0001 
 
>  <oscillator_strength_2> 
0.5272 
 
>  <oscillator_strength_3> 
0.0179 
 
>  <oscillator_strength_4> 
0.019 
 
>  <open_babel_can_smiles> 
O=C/C=C/OCC(C)C 
 
>  <mulliken_charges> 
21 
1   -0.446641 
2   -0.452988 
3   -0.214425 
4   0.231833 
5   0.143516 
6   -0.034961 
7   -0.098322 
8   -0.436591 
9   -0.440918 
10   0.147725 
11   0.140995 
12   0.164113 
13   0.155366 
14   0.147894 
15   0.146792 
16   0.15059 
17   0.08805 
18   0.160724 
19   0.149936 
20   0.15265 
21   0.144664 
 
>  <lowdin_charges> 
21 
1   -0.448341 
2   -0.444431 
3   -0.274995 
4   0.038253 
5   -0.008276 
6   -0.129056 
7   -0.128173 
8   -0.251366 
9   -0.166477 
10   0.153331 
11   0.147974 
12   0.159748 
13   0.157593 
14   0.151016 
15   0.150245 
16   0.172987 
17   0.108974 
18   0.167629 
19   0.146465 
20   0.148236 
21   0.148665 
 
$$$$ 
 
