PCCDB-ID:  37097 
public computational chemistry database (PCCDB) project, http://pccdb.org 
 
 21 21  0  0  0  0  0  0  0  0999 V2000 
    0.8538   -0.0529    0.0031 C   0  0  0  0  0  0  0  0  0  0  0  0 
    4.6074    3.6287    0.2027 C   0  0  0  0  0  0  0  0  0  0  0  0 
    5.1619   -0.0460   -0.2576 C   0  0  0  0  0  0  0  0  0  0  0  0 
    4.4562   -1.2461   -0.2594 C   0  0  0  0  0  0  0  0  0  0  0  0 
    3.0827    1.1550   -0.0829 C   0  0  0  0  0  0  0  0  0  0  0  0 
    2.3589   -0.0412   -0.0903 C   0  0  0  0  0  0  0  0  0  0  0  0 
    4.4854    1.1812   -0.1719 C   0  0  0  0  0  0  0  0  0  0  0  0 
    3.0630   -1.2506   -0.1798 C   0  0  0  0  0  0  0  0  0  0  0  0 
    5.2130    2.3791   -0.2188 N   0  0  0  0  0  0  0  0  0  0  0  0 
    2.3213   -2.4128   -0.1798 O   0  0  0  0  0  0  0  0  0  0  0  0 
    0.4569    0.9630    0.0915 H   0  0  0  0  0  0  0  0  0  0  0  0 
    0.5131   -0.6336    0.8688 H   0  0  0  0  0  0  0  0  0  0  0  0 
    0.4040   -0.5223   -0.8804 H   0  0  0  0  0  0  0  0  0  0  0  0 
    5.3702    4.4119    0.1793 H   0  0  0  0  0  0  0  0  0  0  0  0 
    4.1719    3.5939    1.2162 H   0  0  0  0  0  0  0  0  0  0  0  0 
    3.8139    3.9227   -0.4938 H   0  0  0  0  0  0  0  0  0  0  0  0 
    6.2474   -0.0600   -0.3292 H   0  0  0  0  0  0  0  0  0  0  0  0 
    4.9983   -2.1887   -0.3236 H   0  0  0  0  0  0  0  0  0  0  0  0 
    2.5287    2.0853   -0.0053 H   0  0  0  0  0  0  0  0  0  0  0  0 
    6.1655    2.2685    0.1045 H   0  0  0  0  0  0  0  0  0  0  0  0 
    2.9284   -3.1651   -0.2497 H   0  0  0  0  0  0  0  0  0  0  0  0 
  1 11  1  0  0  0  0 
  1 12  1  0  0  0  0 
  2 15  1  0  0  0  0 
  3  7  1  0  0  0  0 
  4  3  2  0  0  0  0 
  4  8  1  0  0  0  0 
  5 19  1  0  0  0  0 
  6  5  1  0  0  0  0 
  6  1  1  0  0  0  0 
  7  5  2  0  0  0  0 
  8  6  2  0  0  0  0 
  9  7  1  0  0  0  0 
  9 20  1  0  0  0  0 
  9  2  1  0  0  0  0 
 10  8  1  0  0  0  0 
 13  1  1  0  0  0  0 
 14  2  1  0  0  0  0 
 16  2  1  0  0  0  0 
 17  3  1  0  0  0  0 
 18  4  1  0  0  0  0 
 21 10  1  0  0  0  0 
M  END 
>  <HBA> 
2 
 
>  <HBD> 
2 
 
>  <TPSA> 
32.26 
 
>  <cid> 
37097 
 
>  <dipole> 
1.84 
 
>  <excitation_energy_1> 
4.208 
 
>  <excitation_energy_2> 
4.295 
 
>  <excitation_energy_3> 
4.418 
 
>  <excitation_energy_4> 
4.745 
 
>  <homo_energy> 
-4.751 
 
>  <homo_lumo_gap> 
5.053 
 
>  <logP> 
1.815 
 
>  <lumo_energy> 
0.302 
 
>  <melting_point> 
83.68 
 
>  <molecular_refractivity> 
42.74 
 
>  <oscillator_strength_1> 
0.032 
 
>  <oscillator_strength_2> 
0.0203 
 
>  <oscillator_strength_3> 
0.0105 
 
>  <oscillator_strength_4> 
0.015 
 
>  <open_babel_can_smiles> 
CNc1ccc(c(c1)C)O 
 
>  <mulliken_charges> 
21 
1   -0.514449 
2   -0.303495 
3   -0.20103 
4   -0.191293 
5   -0.255978 
6   0.141512 
7   0.351473 
8   0.282541 
9   -0.638432 
10   -0.654064 
11   0.143434 
12   0.165018 
13   0.165405 
14   0.151475 
15   0.141529 
16   0.163096 
17   0.113489 
18   0.111224 
19   0.116171 
20   0.309722 
21   0.40265 
 
>  <lowdin_charges> 
21 
1   -0.436624 
2   -0.355217 
3   -0.192223 
4   -0.202704 
5   -0.207133 
6   -0.016945 
7   0.041672 
8   0.07011 
9   -0.306574 
10   -0.395415 
11   0.151118 
12   0.163333 
13   0.163554 
14   0.156338 
15   0.133071 
16   0.153596 
17   0.149301 
18   0.150233 
19   0.156138 
20   0.269001 
21   0.35537 
 
$$$$ 
 
