PCCDB-ID:  61130 
public computational chemistry database (PCCDB) project, http://pccdb.org 
 
 25 26  0  0  1  0  0  0  0  0999 V2000 
    1.0074   -0.0163    0.1220 C   0  0  0  0  0  0  0  0  0  0  0  0 
    2.9151    0.0277   -1.4630 C   0  0  0  0  0  0  0  0  0  0  0  0 
    5.3915   -0.0472    0.5343 C   0  0  0  0  0  0  0  0  0  0  0  0 
    4.6813    1.2781    0.6679 C   0  0  0  0  0  0  0  0  0  0  0  0 
    3.0848   -0.0203    2.1155 C   0  0  0  0  0  0  0  0  0  0  0  0 
    5.3384   -2.4960    0.5018 C   0  0  0  0  0  0  0  0  0  0  0  0 
    4.6850   -1.1885    0.6576 C   0  0  0  0  0  0  0  0  0  0  0  0 
    3.1899    1.0540    0.9964 C   0  0  2  0  0  0  0  0  0  0  0  0 
    3.2091   -1.0737    0.9723 C   0  0  2  0  0  0  0  0  0  0  0  0 
    2.5412    0.0002    0.0211 C   0  0  0  0  0  0  0  0  0  0  0  0 
    4.7686   -3.5704    0.5784 O   0  0  0  0  0  0  0  0  0  0  0  0 
    0.5841    0.8669   -0.3733 H   0  0  0  0  0  0  0  0  0  0  0  0 
    0.6363   -0.0249    1.1506 H   0  0  0  0  0  0  0  0  0  0  0  0 
    0.6024   -0.9029   -0.3813 H   0  0  0  0  0  0  0  0  0  0  0  0 
    2.5169    0.9336   -1.9380 H   0  0  0  0  0  0  0  0  0  0  0  0 
    2.4762   -0.8337   -1.9818 H   0  0  0  0  0  0  0  0  0  0  0  0 
    3.9927    0.0015   -1.6418 H   0  0  0  0  0  0  0  0  0  0  0  0 
    6.4610   -0.0623    0.3250 H   0  0  0  0  0  0  0  0  0  0  0  0 
    4.8011    1.8573   -0.2604 H   0  0  0  0  0  0  0  0  0  0  0  0 
    5.1591    1.8809    1.4552 H   0  0  0  0  0  0  0  0  0  0  0  0 
    2.1111   -0.0298    2.6080 H   0  0  0  0  0  0  0  0  0  0  0  0 
    3.8699   -0.0312    2.8787 H   0  0  0  0  0  0  0  0  0  0  0  0 
    6.4325   -2.4451    0.3004 H   0  0  0  0  0  0  0  0  0  0  0  0 
    2.6652    2.0069    1.1340 H   0  0  0  0  0  0  0  0  0  0  0  0 
    2.7362   -2.0530    1.0774 H   0  0  0  0  0  0  0  0  0  0  0  0 
  1 13  1  0  0  0  0 
  2 10  1  0  0  0  0 
  3  7  2  0  0  0  0 
  3  4  1  0  0  0  0 
  4  8  1  0  0  0  0 
  4 20  1  0  0  0  0 
  5 21  1  0  0  0  0 
  5 22  1  0  0  0  0 
  6 11  2  0  0  0  0 
  6  7  1  0  0  0  0 
  7  9  1  0  0  0  0 
  8 24  1  1  0  0  0 
  8  5  1  0  0  0  0 
  9 25  1  1  0  0  0 
  9  5  1  0  0  0  0 
 10  1  1  0  0  0  0 
 10  9  1  0  0  0  0 
 10  8  1  0  0  0  0 
 12  1  1  0  0  0  0 
 14  1  1  0  0  0  0 
 15  2  1  0  0  0  0 
 16  2  1  0  0  0  0 
 17  2  1  0  0  0  0 
 18  3  1  0  0  0  0 
 19  4  1  0  0  0  0 
 23  6  1  0  0  0  0 
M  END 
>  <HBA> 
1 
 
>  <HBD> 
0 
 
>  <TPSA> 
17.07 
 
>  <cid> 
61130 
 
>  <dipole> 
3.53 
 
>  <excitation_energy_1> 
3.692 
 
>  <excitation_energy_2> 
5.042 
 
>  <excitation_energy_3> 
5.384 
 
>  <excitation_energy_4> 
5.727 
 
>  <homo_energy> 
-6.732 
 
>  <homo_lumo_gap> 
5.255 
 
>  <logP> 
2.178 
 
>  <lumo_energy> 
-1.478 
 
>  <melting_point> 
79.56 
 
>  <molecular_refractivity> 
45.42 
 
>  <oscillator_strength_1> 
0.0003 
 
>  <oscillator_strength_2> 
0.1462 
 
>  <oscillator_strength_3> 
0.0421 
 
>  <oscillator_strength_4> 
0.0199 
 
>  <open_babel_can_smiles> 
O=CC1=CC[C@@H]2C[C@H]1C2(C)C 
 
>  <mulliken_charges> 
25 
1   -0.46461 
2   -0.466496 
3   -0.191588 
4   -0.298332 
5   -0.278566 
6   0.183884 
7   0.165605 
8   -0.129343 
9   -0.202941 
10   0.131728 
11   -0.413295 
12   0.141668 
13   0.145212 
14   0.148321 
15   0.139355 
16   0.148354 
17   0.144252 
18   0.14052 
19   0.158066 
20   0.156507 
21   0.145659 
22   0.136301 
23   0.096994 
24   0.118073 
25   0.144673 
 
>  <lowdin_charges> 
25 
1   -0.44184 
2   -0.451864 
3   -0.13058 
4   -0.277951 
5   -0.281002 
6   0.040679 
7   -0.051131 
8   -0.133555 
9   -0.133635 
10   0.014166 
11   -0.235327 
12   0.149439 
13   0.149538 
14   0.152777 
15   0.149517 
16   0.15499 
17   0.150506 
18   0.157774 
19   0.158025 
20   0.160038 
21   0.150245 
22   0.143384 
23   0.112514 
24   0.13763 
25   0.15566 
 
$$$$ 
 
