PCCDB-ID:  7242 
public computational chemistry database (PCCDB) project, http://pccdb.org 
 
 17 17  0  0  0  0  0  0  0  0999 V2000 
    1.0066   -0.0909    0.0393 C   0  0  0  0  0  0  0  0  0  0  0  0 
    4.6283   -1.2979   -0.2253 C   0  0  0  0  0  0  0  0  0  0  0  0 
    5.3187   -0.0862   -0.2468 C   0  0  0  0  0  0  0  0  0  0  0  0 
    3.2351   -1.2821   -0.1393 C   0  0  0  0  0  0  0  0  0  0  0  0 
    4.6212    1.1182   -0.1906 C   0  0  0  0  0  0  0  0  0  0  0  0 
    2.5113   -0.0889   -0.0749 C   0  0  0  0  0  0  0  0  0  0  0  0 
    3.2207    1.1335   -0.1036 C   0  0  0  0  0  0  0  0  0  0  0  0 
    2.5322    2.3494    0.0186 N   0  0  0  0  0  0  0  0  0  0  0  0 
    0.6186   -1.1119    0.1006 H   0  0  0  0  0  0  0  0  0  0  0  0 
    0.5226    0.3862   -0.8270 H   0  0  0  0  0  0  0  0  0  0  0  0 
    0.6699    0.4538    0.9314 H   0  0  0  0  0  0  0  0  0  0  0  0 
    5.1639   -2.2416   -0.2723 H   0  0  0  0  0  0  0  0  0  0  0  0 
    6.4037   -0.0732   -0.3126 H   0  0  0  0  0  0  0  0  0  0  0  0 
    2.6871   -2.2220   -0.1184 H   0  0  0  0  0  0  0  0  0  0  0  0 
    5.1618    2.0628   -0.2079 H   0  0  0  0  0  0  0  0  0  0  0  0 
    3.0608    3.1561   -0.2917 H   0  0  0  0  0  0  0  0  0  0  0  0 
    1.6009    2.3550   -0.3792 H   0  0  0  0  0  0  0  0  0  0  0  0 
  1  9  1  0  0  0  0 
  1 11  1  0  0  0  0 
  2  4  1  0  0  0  0 
  3  2  2  0  0  0  0 
  3  5  1  0  0  0  0 
  4 14  1  0  0  0  0 
  4  6  2  0  0  0  0 
  5  7  2  0  0  0  0 
  6  1  1  0  0  0  0 
  7  6  1  0  0  0  0 
  7  8  1  0  0  0  0 
 10  1  1  0  0  0  0 
 12  2  1  0  0  0  0 
 13  3  1  0  0  0  0 
 15  5  1  0  0  0  0 
 16  8  1  0  0  0  0 
 17  8  1  0  0  0  0 
M  END 
>  <HBA> 
1 
 
>  <HBD> 
1 
 
>  <TPSA> 
26.02 
 
>  <cid> 
7242 
 
>  <dipole> 
1.74 
 
>  <excitation_energy_1> 
4.687 
 
>  <excitation_energy_2> 
4.801 
 
>  <excitation_energy_3> 
5.313 
 
>  <excitation_energy_4> 
5.439 
 
>  <homo_energy> 
-5.325 
 
>  <homo_lumo_gap> 
5.69 
 
>  <logP> 
2.158 
 
>  <lumo_energy> 
0.365 
 
>  <melting_point> 
57.31 
 
>  <molecular_refractivity> 
35.81 
 
>  <oscillator_strength_1> 
0.0161 
 
>  <oscillator_strength_2> 
0.0369 
 
>  <oscillator_strength_3> 
0.0004 
 
>  <oscillator_strength_4> 
0.0314 
 
>  <open_babel_can_smiles> 
Cc1ccccc1N 
 
>  <mulliken_charges> 
17 
1   -0.551033 
2   -0.132746 
3   -0.13927 
4   -0.19875 
5   -0.170606 
6   0.16433 
7   0.240536 
8   -0.789813 
9   0.15854 
10   0.145488 
11   0.168139 
12   0.118317 
13   0.121932 
14   0.115951 
15   0.111799 
16   0.317026 
17   0.32016 
 
>  <lowdin_charges> 
17 
1   -0.445763 
2   -0.18715 
3   -0.149773 
4   -0.160025 
5   -0.201557 
6   -0.037621 
7   0.049071 
8   -0.492251 
9   0.159411 
10   0.148847 
11   0.1609 
12   0.154056 
13   0.152552 
14   0.151868 
15   0.149797 
16   0.273826 
17   0.273813 
 
$$$$ 
 
