PCCDB-ID:  44294 
public computational chemistry database (PCCDB) project, http://pccdb.org 
 
 28 30  0  0  0  0  0  0  0  0999 V2000 
    2.1496   -1.1405    0.8766 C   0  0  0  0  0  0  0  0  0  0  0  0 
    6.1379   -2.4088   -7.1077 C   0  0  0  0  0  0  0  0  0  0  0  0 
    6.1328   -1.0105   -7.0990 C   0  0  0  0  0  0  0  0  0  0  0  0 
    5.6329   -3.1257   -6.0153 C   0  0  0  0  0  0  0  0  0  0  0  0 
    5.6263   -0.3048   -6.0046 C   0  0  0  0  0  0  0  0  0  0  0  0 
    3.7151    0.8585   -1.8856 C   0  0  0  0  0  0  0  0  0  0  0  0 
    4.2961    0.7177   -3.1396 C   0  0  0  0  0  0  0  0  0  0  0  0 
    4.5306   -2.9573   -3.6338 C   0  0  0  0  0  0  0  0  0  0  0  0 
    3.5944   -1.5561   -1.6280 C   0  0  0  0  0  0  0  0  0  0  0  0 
    5.1278   -2.4296   -4.9247 C   0  0  0  0  0  0  0  0  0  0  0  0 
    4.1814   -1.6878   -2.8801 C   0  0  0  0  0  0  0  0  0  0  0  0 
    3.3561   -0.2670   -1.1096 C   0  0  0  0  0  0  0  0  0  0  0  0 
    5.1221   -1.0174   -4.9139 C   0  0  0  0  0  0  0  0  0  0  0  0 
    4.5365   -0.5628   -3.6484 C   0  0  0  0  0  0  0  0  0  0  0  0 
    2.8124   -0.0705    0.1568 N   0  0  0  0  0  0  0  0  0  0  0  0 
    1.7359   -0.7347    1.8034 H   0  0  0  0  0  0  0  0  0  0  0  0 
    2.8682   -1.9215    1.1511 H   0  0  0  0  0  0  0  0  0  0  0  0 
    1.3339   -1.6152    0.3063 H   0  0  0  0  0  0  0  0  0  0  0  0 
    6.5358   -2.9431   -7.9664 H   0  0  0  0  0  0  0  0  0  0  0  0 
    6.5277   -0.4655   -7.9527 H   0  0  0  0  0  0  0  0  0  0  0  0 
    5.6392   -4.2135   -6.0260 H   0  0  0  0  0  0  0  0  0  0  0  0 
    5.6273    0.7825   -6.0069 H   0  0  0  0  0  0  0  0  0  0  0  0 
    3.5365    1.8532   -1.4818 H   0  0  0  0  0  0  0  0  0  0  0  0 
    4.5581    1.6041   -3.7121 H   0  0  0  0  0  0  0  0  0  0  0  0 
    5.2423   -3.5822   -3.0761 H   0  0  0  0  0  0  0  0  0  0  0  0 
    3.6456   -3.5834   -3.8149 H   0  0  0  0  0  0  0  0  0  0  0  0 
    3.3238   -2.4373   -1.0548 H   0  0  0  0  0  0  0  0  0  0  0  0 
    2.3946    0.8411    0.2844 H   0  0  0  0  0  0  0  0  0  0  0  0 
  1 17  1  0  0  0  0 
  1 16  1  0  0  0  0 
  2  3  2  0  0  0  0 
  2  4  1  0  0  0  0 
  3  5  1  0  0  0  0 
  4 10  2  0  0  0  0 
  5 13  2  0  0  0  0 
  6 23  1  0  0  0  0 
  6 12  2  0  0  0  0 
  7  6  1  0  0  0  0 
  8 25  1  0  0  0  0 
  8 11  1  0  0  0  0 
  9 12  1  0  0  0  0 
  9 27  1  0  0  0  0 
 10 13  1  0  0  0  0 
 10  8  1  0  0  0  0 
 11  9  2  0  0  0  0 
 12 15  1  0  0  0  0 
 13 14  1  0  0  0  0 
 14  7  2  0  0  0  0 
 14 11  1  0  0  0  0 
 15 28  1  0  0  0  0 
 15  1  1  0  0  0  0 
 18  1  1  0  0  0  0 
 19  2  1  0  0  0  0 
 20  3  1  0  0  0  0 
 21  4  1  0  0  0  0 
 22  5  1  0  0  0  0 
 24  7  1  0  0  0  0 
 26  8  1  0  0  0  0 
M  END 
>  <HBA> 
1 
 
>  <HBD> 
1 
 
>  <TPSA> 
12.03 
 
>  <cid> 
44294 
 
>  <dipole> 
2.51 
 
>  <excitation_energy_1> 
3.959 
 
>  <excitation_energy_2> 
4.175 
 
>  <excitation_energy_3> 
4.361 
 
>  <excitation_energy_4> 
4.587 
 
>  <homo_energy> 
-4.868 
 
>  <homo_lumo_gap> 
4.553 
 
>  <logP> 
3.373 
 
>  <lumo_energy> 
-0.316 
 
>  <melting_point> 
109.06 
 
>  <molecular_refractivity> 
64.19 
 
>  <oscillator_strength_1> 
0.0371 
 
>  <oscillator_strength_2> 
0.572 
 
>  <oscillator_strength_3> 
0.0031 
 
>  <oscillator_strength_4> 
0.0146 
 
>  <open_babel_can_smiles> 
CNc1ccc2c(c1)Cc1c2cccc1 
 
>  <mulliken_charges> 
28 
1   -0.301386 
2   -0.132712 
3   -0.137449 
4   -0.205356 
5   -0.196411 
6   -0.20106 
7   -0.196437 
8   -0.421288 
9   -0.267993 
10   0.106394 
11   0.101295 
12   0.363686 
13   0.088964 
14   0.079125 
15   -0.643406 
16   0.154913 
17   0.165093 
18   0.147182 
19   0.12154 
20   0.122674 
21   0.119607 
22   0.122865 
23   0.112912 
24   0.126316 
25   0.169123 
26   0.168199 
27   0.118267 
28   0.315344 
 
>  <lowdin_charges> 
28 
1   -0.355882 
2   -0.167297 
3   -0.158658 
4   -0.163232 
5   -0.167426 
6   -0.199728 
7   -0.152058 
8   -0.276737 
9   -0.218603 
10   -0.009498 
11   0.007785 
12   0.062905 
13   -0.007689 
14   -0.03884 
15   -0.296604 
16   0.158175 
17   0.154877 
18   0.139021 
19   0.155556 
20   0.155625 
21   0.151655 
22   0.152327 
23   0.150343 
24   0.157177 
25   0.168442 
26   0.167046 
27   0.157505 
28   0.273811 
 
$$$$ 
 
