PCCDB-ID:  28955 
public computational chemistry database (PCCDB) project, http://pccdb.org 
 
 37 38  0  0  0  0  0  0  0  0999 V2000 
    3.6583   -3.3170    1.2470 C   0  0  0  0  0  0  0  0  0  0  0  0 
    5.6175    4.7795   -5.1670 C   0  0  0  0  0  0  0  0  0  0  0  0 
    4.6489   -2.4386    0.8526 C   0  0  0  0  0  0  0  0  0  0  0  0 
    2.2861   -3.2395    0.9289 C   0  0  0  0  0  0  0  0  0  0  0  0 
    4.8753    5.2372   -3.9013 C   0  0  0  0  0  0  0  0  0  0  0  0 
    5.7645    3.2497   -5.1846 C   0  0  0  0  0  0  0  0  0  0  0  0 
    4.5689   -1.2779    0.0625 C   0  0  0  0  0  0  0  0  0  0  0  0 
    1.5981   -2.3148    0.1762 C   0  0  0  0  0  0  0  0  0  0  0  0 
    4.7903    1.2063   -1.5207 C   0  0  0  0  0  0  0  0  0  0  0  0 
    5.5521    4.6567   -2.6465 C   0  0  0  0  0  0  0  0  0  0  0  0 
    6.3950    2.7475   -3.8716 C   0  0  0  0  0  0  0  0  0  0  0  0 
    4.4732    2.4501   -2.3627 C   0  0  0  0  0  0  0  0  0  0  0  0 
    3.4665   -0.6821   -0.5475 C   0  0  0  0  0  0  0  0  0  0  0  0 
    2.0347   -1.1374   -0.5250 C   0  0  0  0  0  0  0  0  0  0  0  0 
    3.5827    0.4470   -1.2746 N   0  0  0  0  0  0  0  0  0  0  0  0 
    5.6928    3.1961   -2.6609 N   0  0  0  0  0  0  0  0  0  0  0  0 
    1.2189   -0.4338   -1.1542 O   0  0  0  0  0  0  0  0  0  0  0  0 
    3.9642   -4.1556    1.8673 H   0  0  0  0  0  0  0  0  0  0  0  0 
    6.6172    5.2394   -5.1831 H   0  0  0  0  0  0  0  0  0  0  0  0 
    5.0983    5.1275   -6.0685 H   0  0  0  0  0  0  0  0  0  0  0  0 
    5.6536   -2.6717    1.2022 H   0  0  0  0  0  0  0  0  0  0  0  0 
    1.6719   -4.0381    1.3434 H   0  0  0  0  0  0  0  0  0  0  0  0 
    3.8292    4.9015   -3.9437 H   0  0  0  0  0  0  0  0  0  0  0  0 
    4.8528    6.3331   -3.8386 H   0  0  0  0  0  0  0  0  0  0  0  0 
    6.3787    2.9266   -6.0350 H   0  0  0  0  0  0  0  0  0  0  0  0 
    4.7759    2.7893   -5.3212 H   0  0  0  0  0  0  0  0  0  0  0  0 
    5.5172   -0.7697   -0.0918 H   0  0  0  0  0  0  0  0  0  0  0  0 
    0.5267   -2.4646    0.0672 H   0  0  0  0  0  0  0  0  0  0  0  0 
    5.2501    1.5249   -0.5752 H   0  0  0  0  0  0  0  0  0  0  0  0 
    5.5316    0.5811   -2.0402 H   0  0  0  0  0  0  0  0  0  0  0  0 
    5.0113    4.9453   -1.7381 H   0  0  0  0  0  0  0  0  0  0  0  0 
    6.5637    5.0810   -2.5601 H   0  0  0  0  0  0  0  0  0  0  0  0 
    7.4303    3.1130   -3.8077 H   0  0  0  0  0  0  0  0  0  0  0  0 
    6.4501    1.6529   -3.8633 H   0  0  0  0  0  0  0  0  0  0  0  0 
    3.7961    3.0929   -1.7883 H   0  0  0  0  0  0  0  0  0  0  0  0 
    3.9165    2.1382   -3.2643 H   0  0  0  0  0  0  0  0  0  0  0  0 
    2.6839    0.7496   -1.6508 H   0  0  0  0  0  0  0  0  0  0  0  0 
  1 18  1  0  0  0  0 
  2  5  1  0  0  0  0 
  3 21  1  0  0  0  0 
  3  1  2  0  0  0  0 
  4  1  1  0  0  0  0 
  4 22  1  0  0  0  0 
  5 24  1  0  0  0  0 
  5 10  1  0  0  0  0 
  6  2  1  0  0  0  0 
  6 11  1  0  0  0  0 
  7  3  1  0  0  0  0 
  8  4  2  0  0  0  0 
  9 15  1  0  0  0  0 
  9 29  1  0  0  0  0 
 10 32  1  0  0  0  0 
 10 31  1  0  0  0  0 
 11 34  1  0  0  0  0 
 11 33  1  0  0  0  0 
 11 16  1  0  0  0  0 
 12 35  1  0  0  0  0 
 12  9  1  0  0  0  0 
 13 14  1  0  0  0  0 
 13  7  2  0  0  0  0 
 14  8  1  0  0  0  0 
 15 13  1  0  0  0  0 
 16 10  1  0  0  0  0 
 16 12  1  0  0  0  0 
 17 14  2  0  0  0  0 
 19  2  1  0  0  0  0 
 20  2  1  0  0  0  0 
 23  5  1  0  0  0  0 
 25  6  1  0  0  0  0 
 26  6  1  0  0  0  0 
 27  7  1  0  0  0  0 
 28  8  1  0  0  0  0 
 30  9  1  0  0  0  0 
 36 12  1  0  0  0  0 
 37 15  1  0  0  0  0 
M  END 
>  <HBA> 
3 
 
>  <HBD> 
1 
 
>  <TPSA> 
32.34 
 
>  <cid> 
28955 
 
>  <dipole> 
3.25 
 
>  <excitation_energy_1> 
3.61 
 
>  <excitation_energy_2> 
3.78 
 
>  <excitation_energy_3> 
3.91 
 
>  <excitation_energy_4> 
4.054 
 
>  <homo_energy> 
-5.249 
 
>  <homo_lumo_gap> 
3.946 
 
>  <logP> 
1.956 
 
>  <lumo_energy> 
-1.303 
 
>  <melting_point> 
94.54 
 
>  <molecular_refractivity> 
75.56 
 
>  <oscillator_strength_1> 
0.1812 
 
>  <oscillator_strength_2> 
0.0081 
 
>  <oscillator_strength_3> 
0.137 
 
>  <oscillator_strength_4> 
0.0089 
 
>  <open_babel_can_smiles> 
O=c1cccccc1NCCN1CCCCC1 
 
>  <mulliken_charges> 
37 
1   -0.142533 
2   -0.258673 
3   -0.109054 
4   -0.110851 
5   -0.264157 
6   -0.266574 
7   -0.237202 
8   -0.206659 
9   -0.08886 
10   -0.147257 
11   -0.149415 
12   -0.165227 
13   0.32371 
14   0.408476 
15   -0.639782 
16   -0.377113 
17   -0.568676 
18   0.130201 
19   0.129047 
20   0.136357 
21   0.133442 
22   0.137546 
23   0.13485 
24   0.133083 
25   0.133981 
26   0.136637 
27   0.137144 
28   0.144203 
29   0.160504 
30   0.152789 
31   0.139964 
32   0.136887 
33   0.138992 
34   0.138457 
35   0.151907 
36   0.135875 
37   0.357981 
 
>  <lowdin_charges> 
37 
1   -0.192617 
2   -0.27838 
3   -0.122811 
4   -0.125614 
5   -0.291012 
6   -0.294952 
7   -0.22168 
8   -0.197416 
9   -0.202813 
10   -0.203626 
11   -0.202619 
12   -0.208383 
13   0.057372 
14   0.122451 
15   -0.238171 
16   -0.187611 
17   -0.333018 
18   0.159907 
19   0.137247 
20   0.146146 
21   0.160612 
22   0.163857 
23   0.139177 
24   0.1444 
25   0.147907 
26   0.140377 
27   0.163516 
28   0.169365 
29   0.15086 
30   0.146521 
31   0.145943 
32   0.139545 
33   0.140723 
34   0.142273 
35   0.152892 
36   0.130625 
37   0.29901 
 
$$$$ 
 
