PCCDB-ID:  51758 
public computational chemistry database (PCCDB) project, http://pccdb.org 
 
 19 19  0  0  1  0  0  0  0  0999 V2000 
    0.9273    0.0786   -0.0595 C   0  0  0  0  0  0  0  0  0  0  0  0 
    4.6013    1.2547    0.6979 C   0  0  0  0  0  0  0  0  0  0  0  0 
    5.2265    0.0099    1.3450 C   0  0  0  0  0  0  0  0  0  0  0  0 
    3.0643    1.2363    0.7015 C   0  0  0  0  0  0  0  0  0  0  0  0 
    4.8140   -1.2881    0.6467 C   0  0  0  0  0  0  0  0  0  0  0  0 
    2.4566    0.0479   -0.0555 C   0  0  1  0  0  0  0  0  0  0  0  0 
    2.9975   -1.5645    0.6746 S   0  0  0  0  0  0  0  0  0  0  0  0 
    0.5713    0.9994   -0.5373 H   0  0  0  0  0  0  0  0  0  0  0  0 
    0.5318    0.0517    0.9622 H   0  0  0  0  0  0  0  0  0  0  0  0 
    0.5110   -0.7723   -0.6091 H   0  0  0  0  0  0  0  0  0  0  0  0 
    4.9584    1.3399   -0.3395 H   0  0  0  0  0  0  0  0  0  0  0  0 
    4.9537    2.1532    1.2199 H   0  0  0  0  0  0  0  0  0  0  0  0 
    4.9347   -0.0430    2.4017 H   0  0  0  0  0  0  0  0  0  0  0  0 
    6.3220    0.0935    1.3170 H   0  0  0  0  0  0  0  0  0  0  0  0 
    2.6902    2.1636    0.2431 H   0  0  0  0  0  0  0  0  0  0  0  0 
    2.6966    1.2221    1.7367 H   0  0  0  0  0  0  0  0  0  0  0  0 
    5.2517   -2.1608    1.1419 H   0  0  0  0  0  0  0  0  0  0  0  0 
    5.1603   -1.2923   -0.3947 H   0  0  0  0  0  0  0  0  0  0  0  0 
    2.8169    0.0653   -1.0933 H   0  0  0  0  0  0  0  0  0  0  0  0 
  1  6  1  0  0  0  0 
  1  9  1  0  0  0  0 
  2  4  1  0  0  0  0 
  2 12  1  0  0  0  0 
  2  3  1  0  0  0  0 
  3 13  1  0  0  0  0 
  4 16  1  0  0  0  0 
  5  7  1  0  0  0  0 
  5 17  1  0  0  0  0 
  5  3  1  0  0  0  0 
  6 19  1  6  0  0  0 
  6  7  1  0  0  0  0 
  6  4  1  0  0  0  0 
  8  1  1  0  0  0  0 
 10  1  1  0  0  0  0 
 11  2  1  0  0  0  0 
 14  3  1  0  0  0  0 
 15  4  1  0  0  0  0 
 18  5  1  0  0  0  0 
M  END 
>  <HBA> 
1 
 
>  <HBD> 
0 
 
>  <TPSA> 
25.3 
 
>  <cid> 
51758 
 
>  <dipole> 
1.86 
 
>  <excitation_energy_1> 
5.146 
 
>  <excitation_energy_2> 
5.331 
 
>  <excitation_energy_3> 
5.804 
 
>  <excitation_energy_4> 
5.817 
 
>  <homo_energy> 
-5.788 
 
>  <homo_lumo_gap> 
6.972 
 
>  <logP> 
2.292 
 
>  <lumo_energy> 
1.184 
 
>  <melting_point> 
4.99 
 
>  <molecular_refractivity> 
36.43 
 
>  <oscillator_strength_1> 
0.002 
 
>  <oscillator_strength_2> 
0.0218 
 
>  <oscillator_strength_3> 
0.0257 
 
>  <oscillator_strength_4> 
0.0075 
 
>  <open_babel_can_smiles> 
C[C@H]1CCCCS1 
 
>  <mulliken_charges> 
19 
1   -0.453118 
2   -0.260906 
3   -0.251851 
4   -0.247597 
5   -0.414591 
6   -0.224685 
7   0.068118 
8   0.147698 
9   0.159955 
10   0.160891 
11   0.128816 
12   0.136772 
13   0.148643 
14   0.136541 
15   0.133041 
16   0.144862 
17   0.171353 
18   0.162575 
19   0.153483 
 
>  <lowdin_charges> 
19 
1   -0.444901 
2   -0.278215 
3   -0.276665 
4   -0.280297 
5   -0.376163 
6   -0.21471 
7   0.070026 
8   0.153268 
9   0.156248 
10   0.160551 
11   0.136691 
12   0.147706 
13   0.14751 
14   0.144381 
15   0.144919 
16   0.14655 
17   0.168104 
18   0.150009 
19   0.144988 
 
$$$$ 
 
