PCCDB-ID:  28434 
public computational chemistry database (PCCDB) project, http://pccdb.org 
 
 30 30  0  0  0  0  0  0  0  0999 V2000 
   -1.6012   -0.2844    0.5666 C   0  0  0  0  0  0  0  0  0  0  0  0 
   -1.0276    0.9151    0.3228 C   0  0  0  0  0  0  0  0  0  0  0  0 
    2.4206    2.2398   -0.5273 C   0  0  0  0  0  0  0  0  0  0  0  0 
    0.4825    3.4757    0.4594 C   0  0  0  0  0  0  0  0  0  0  0  0 
    3.4379    2.0852    0.6053 C   0  0  0  0  0  0  0  0  0  0  0  0 
   -0.1273    4.3995   -0.5966 C   0  0  0  0  0  0  0  0  0  0  0  0 
   -0.7887   -1.4890    0.6346 C   0  0  0  0  0  0  0  0  0  0  0  0 
    0.4126    1.0055    0.1496 C   0  0  0  0  0  0  0  0  0  0  0  0 
   -2.5760   -2.8150    1.1295 N   0  0  0  0  0  0  0  0  0  0  0  0 
   -1.1430   -2.7146    0.8803 N   0  0  0  0  0  0  0  0  0  0  0  0 
    0.5486   -1.2553    0.3624 N   0  0  0  0  0  0  0  0  0  0  0  0 
    1.1696   -0.0621    0.1773 N   0  0  0  0  0  0  0  0  0  0  0  0 
    1.0106    2.2356   -0.1392 N   0  0  0  0  0  0  0  0  0  0  0  0 
    3.4787    3.3018    1.3548 O   0  0  0  0  0  0  0  0  0  0  0  0 
   -1.1951    3.7816   -1.3032 O   0  0  0  0  0  0  0  0  0  0  0  0 
   -2.6691   -0.4113    0.6912 H   0  0  0  0  0  0  0  0  0  0  0  0 
   -1.6326    1.8074    0.2021 H   0  0  0  0  0  0  0  0  0  0  0  0 
    2.5753    1.4240   -1.2391 H   0  0  0  0  0  0  0  0  0  0  0  0 
    2.6237    3.1849   -1.0448 H   0  0  0  0  0  0  0  0  0  0  0  0 
   -0.2795    3.2207    1.2010 H   0  0  0  0  0  0  0  0  0  0  0  0 
    1.2916    3.9856    0.9912 H   0  0  0  0  0  0  0  0  0  0  0  0 
    4.4224    1.8727    0.1564 H   0  0  0  0  0  0  0  0  0  0  0  0 
    3.1599    1.2318    1.2346 H   0  0  0  0  0  0  0  0  0  0  0  0 
    0.6545    4.7465   -1.2916 H   0  0  0  0  0  0  0  0  0  0  0  0 
   -0.5501    5.2847   -0.1097 H   0  0  0  0  0  0  0  0  0  0  0  0 
   -2.6516   -3.1485    2.0940 H   0  0  0  0  0  0  0  0  0  0  0  0 
   -2.8711   -3.6207    0.5746 H   0  0  0  0  0  0  0  0  0  0  0  0 
    1.1681   -2.0543    0.3805 H   0  0  0  0  0  0  0  0  0  0  0  0 
    3.9910    3.1399    2.1609 H   0  0  0  0  0  0  0  0  0  0  0  0 
   -0.8086    3.0110   -1.7515 H   0  0  0  0  0  0  0  0  0  0  0  0 
  1  7  2  0  0  0  0 
  1 16  1  0  0  0  0 
  2  1  1  0  0  0  0 
  3 13  1  0  0  0  0 
  3  5  1  0  0  0  0 
  4 21  1  0  0  0  0 
  4 20  1  0  0  0  0 
  5 23  1  0  0  0  0 
  5 14  1  0  0  0  0 
  6 25  1  0  0  0  0 
  6  4  1  0  0  0  0 
  7 10  1  0  0  0  0 
  8 12  2  0  0  0  0 
  8  2  1  0  0  0  0 
  9 26  1  0  0  0  0 
 10  9  1  0  0  0  0 
 11 28  1  0  0  0  0 
 11  7  1  0  0  0  0 
 12 11  1  0  0  0  0 
 13  8  1  0  0  0  0 
 13  4  1  0  0  0  0 
 14 29  1  0  0  0  0 
 15  6  1  0  0  0  0 
 17  2  1  0  0  0  0 
 18  3  1  0  0  0  0 
 19  3  1  0  0  0  0 
 22  5  1  0  0  0  0 
 24  6  1  0  0  0  0 
 27  9  1  0  0  0  0 
 30 15  1  0  0  0  0 
M  RAD  2   2   2  10   2 
M  END 
>  <HBA> 
7 
 
>  <HBD> 
4 
 
>  <TPSA> 
107.53 
 
>  <cid> 
28434 
 
>  <dipole> 
2.72 
 
>  <excitation_energy_1> 
3.029 
 
>  <excitation_energy_2> 
3.396 
 
>  <excitation_energy_3> 
4.308 
 
>  <excitation_energy_4> 
4.423 
 
>  <homo_energy> 
-4.822 
 
>  <homo_lumo_gap> 
3.622 
 
>  <logP> 
-0.673 
 
>  <lumo_energy> 
-1.2 
 
>  <melting_point> 
170.05 
 
>  <molecular_refractivity> 
55.38 
 
>  <oscillator_strength_1> 
0.0189 
 
>  <oscillator_strength_2> 
0.0019 
 
>  <oscillator_strength_3> 
0.0035 
 
>  <oscillator_strength_4> 
0.0172 
 
>  <open_babel_can_smiles> 
OCCN(C1=NNC(=C[CH]1)[N]N)CCO 
 
>  <mulliken_charges> 
30 
1   -0.157784 
2   -0.165786 
3   -0.148756 
4   -0.179767 
5   -0.037061 
6   -0.034762 
7   0.587237 
8   0.495804 
9   -0.610136 
10   -0.497929 
11   -0.489825 
12   -0.365294 
13   -0.485546 
14   -0.619827 
15   -0.611701 
16   0.180277 
17   0.175628 
18   0.166203 
19   0.152806 
20   0.156705 
21   0.189516 
22   0.12179 
23   0.154843 
24   0.1277 
25   0.148425 
26   0.303937 
27   0.308035 
28   0.341524 
29   0.396823 
30   0.396921 
 
>  <lowdin_charges> 
30 
1   -0.145856 
2   -0.175609 
3   -0.205129 
4   -0.225287 
5   -0.147122 
6   -0.147209 
7   0.06525 
8   0.053737 
9   -0.484303 
10   -0.261884 
11   -0.158022 
12   -0.157257 
13   -0.131939 
14   -0.477319 
15   -0.46681 
16   0.186833 
17   0.180063 
18   0.165199 
19   0.152976 
20   0.157122 
21   0.171661 
22   0.13065 
23   0.14655 
24   0.130464 
25   0.151157 
26   0.251092 
27   0.255128 
28   0.294465 
29   0.347844 
30   0.343555 
 
$$$$ 
 
