PCCDB-ID:  25403 
public computational chemistry database (PCCDB) project, http://pccdb.org 
 
 21 20  0  0  0  0  0  0  0  0999 V2000 
    2.1918   -0.6720    1.2894 C   0  0  0  0  0  0  0  0  0  0  0  0 
    5.4394   -0.5576   -0.4811 C   0  0  0  0  0  0  0  0  0  0  0  0 
    4.9217   -2.2042   -2.2981 C   0  0  0  0  0  0  0  0  0  0  0  0 
    1.9306   -1.7012   -1.8725 C   0  0  0  0  0  0  0  0  0  0  0  0 
    2.4930   -0.0228   -0.0740 C   0  0  0  0  0  0  0  0  0  0  0  0 
    4.3502   -1.2406   -1.2811 C   0  0  0  0  0  0  0  0  0  0  0  0 
    3.0336   -1.0079   -1.1015 C   0  0  0  0  0  0  0  0  0  0  0  0 
    1.7338    0.0487    1.9774 H   0  0  0  0  0  0  0  0  0  0  0  0 
    3.1092   -1.0505    1.7536 H   0  0  0  0  0  0  0  0  0  0  0  0 
    1.5023   -1.5179    1.1851 H   0  0  0  0  0  0  0  0  0  0  0  0 
    6.0609   -1.3050    0.0324 H   0  0  0  0  0  0  0  0  0  0  0  0 
    5.0682    0.1338    0.2773 H   0  0  0  0  0  0  0  0  0  0  0  0 
    6.1174    0.0003   -1.1430 H   0  0  0  0  0  0  0  0  0  0  0  0 
    5.5963   -1.6754   -2.9867 H   0  0  0  0  0  0  0  0  0  0  0  0 
    4.1707   -2.7142   -2.9032 H   0  0  0  0  0  0  0  0  0  0  0  0 
    5.5318   -2.9739   -1.8039 H   0  0  0  0  0  0  0  0  0  0  0  0 
    1.1617   -2.0798   -1.1853 H   0  0  0  0  0  0  0  0  0  0  0  0 
    2.2676   -2.5447   -2.4774 H   0  0  0  0  0  0  0  0  0  0  0  0 
    1.4211   -0.9929   -2.5421 H   0  0  0  0  0  0  0  0  0  0  0  0 
    3.1794    0.8173    0.0726 H   0  0  0  0  0  0  0  0  0  0  0  0 
    1.5654    0.4169   -0.4661 H   0  0  0  0  0  0  0  0  0  0  0  0 
  1  9  1  0  0  0  0 
  1  8  1  0  0  0  0 
  2 11  1  0  0  0  0 
  2 12  1  0  0  0  0 
  3 16  1  0  0  0  0 
  3  6  1  0  0  0  0 
  4 17  1  0  0  0  0 
  4  7  1  0  0  0  0 
  5 20  1  0  0  0  0 
  5  1  1  0  0  0  0 
  6  7  2  0  0  0  0 
  6  2  1  0  0  0  0 
  7  5  1  0  0  0  0 
 10  1  1  0  0  0  0 
 13  2  1  0  0  0  0 
 14  3  1  0  0  0  0 
 15  3  1  0  0  0  0 
 18  4  1  0  0  0  0 
 19  4  1  0  0  0  0 
 21  5  1  0  0  0  0 
M  END 
>  <HBA> 
0 
 
>  <HBD> 
0 
 
>  <TPSA> 
0.0 
 
>  <cid> 
25403 
 
>  <dipole> 
0.02 
 
>  <excitation_energy_1> 
5.442 
 
>  <excitation_energy_2> 
5.931 
 
>  <excitation_energy_3> 
5.988 
 
>  <excitation_energy_4> 
6.148 
 
>  <homo_energy> 
-5.891 
 
>  <homo_lumo_gap> 
6.852 
 
>  <logP> 
2.753 
 
>  <lumo_energy> 
0.961 
 
>  <melting_point> 
-10.6 
 
>  <molecular_refractivity> 
35.29 
 
>  <oscillator_strength_1> 
0.0169 
 
>  <oscillator_strength_2> 
0.0737 
 
>  <oscillator_strength_3> 
0.0006 
 
>  <oscillator_strength_4> 
0.0104 
 
>  <open_babel_can_smiles> 
CCC(=C(C)C)C 
 
>  <mulliken_charges> 
21 
1   -0.436872 
2   -0.508386 
3   -0.508151 
4   -0.518392 
5   -0.325289 
6   0.120167 
7   0.12287 
8   0.139697 
9   0.14828 
10   0.144413 
11   0.14852 
12   0.152036 
13   0.147411 
14   0.148356 
15   0.150984 
16   0.147522 
17   0.149786 
18   0.150979 
19   0.151298 
20   0.141325 
21   0.133444 
 
>  <lowdin_charges> 
21 
1   -0.443812 
2   -0.447812 
3   -0.447128 
4   -0.446921 
5   -0.275394 
6   -0.029509 
7   -0.032802 
8   0.148447 
9   0.149389 
10   0.147524 
11   0.15408 
12   0.156057 
13   0.153147 
14   0.153824 
15   0.155231 
16   0.152797 
17   0.153056 
18   0.153997 
19   0.154566 
20   0.147383 
21   0.14388 
 
$$$$ 
 
