PCCDB-ID:  10335 
public computational chemistry database (PCCDB) project, http://pccdb.org 
 
 22 22  0  0  0  0  0  0  0  0999 V2000 
    0.8678    0.0530    0.0612 C   0  0  0  0  0  0  0  0  0  0  0  0 
    2.3749   -2.5023   -0.0745 C   0  0  0  0  0  0  0  0  0  0  0  0 
    5.2247    2.6084   -0.3491 C   0  0  0  0  0  0  0  0  0  0  0  0 
    3.0871    1.2413   -0.1471 C   0  0  0  0  0  0  0  0  0  0  0  0 
    4.4794   -1.1294   -0.2697 C   0  0  0  0  0  0  0  0  0  0  0  0 
    2.3724    0.0395   -0.0783 C   0  0  0  0  0  0  0  0  0  0  0  0 
    3.0873   -1.1719   -0.1419 C   0  0  0  0  0  0  0  0  0  0  0  0 
    4.4764    1.3019   -0.2753 C   0  0  0  0  0  0  0  0  0  0  0  0 
    5.1671    0.0831   -0.3355 C   0  0  0  0  0  0  0  0  0  0  0  0 
    6.5336    0.1443   -0.4610 O   0  0  0  0  0  0  0  0  0  0  0  0 
    0.4876    1.0782    0.1077 H   0  0  0  0  0  0  0  0  0  0  0  0 
    0.5343   -0.4648    0.9705 H   0  0  0  0  0  0  0  0  0  0  0  0 
    0.3717   -0.4453   -0.7826 H   0  0  0  0  0  0  0  0  0  0  0  0 
    3.0809   -3.3359   -0.1423 H   0  0  0  0  0  0  0  0  0  0  0  0 
    1.6477   -2.6151   -0.8892 H   0  0  0  0  0  0  0  0  0  0  0  0 
    1.8151   -2.6160    0.8632 H   0  0  0  0  0  0  0  0  0  0  0  0 
    4.5385    3.4566   -0.2612 H   0  0  0  0  0  0  0  0  0  0  0  0 
    5.7691    2.7058   -1.2964 H   0  0  0  0  0  0  0  0  0  0  0  0 
    5.9724    2.6875    0.4492 H   0  0  0  0  0  0  0  0  0  0  0  0 
    2.5357    2.1788   -0.0981 H   0  0  0  0  0  0  0  0  0  0  0  0 
    5.0398   -2.0631   -0.3194 H   0  0  0  0  0  0  0  0  0  0  0  0 
    6.8833   -0.7598   -0.4869 H   0  0  0  0  0  0  0  0  0  0  0  0 
  1 11  1  0  0  0  0 
  1 12  1  0  0  0  0 
  2 16  1  0  0  0  0 
  3  8  1  0  0  0  0 
  3 17  1  0  0  0  0 
  3 19  1  0  0  0  0 
  4 20  1  0  0  0  0 
  4  6  2  0  0  0  0 
  5  7  2  0  0  0  0 
  6  1  1  0  0  0  0 
  7  6  1  0  0  0  0 
  7  2  1  0  0  0  0 
  8  4  1  0  0  0  0 
  9  8  2  0  0  0  0 
  9  5  1  0  0  0  0 
 10  9  1  0  0  0  0 
 13  1  1  0  0  0  0 
 14  2  1  0  0  0  0 
 15  2  1  0  0  0  0 
 18  3  1  0  0  0  0 
 21  5  1  0  0  0  0 
 22 10  1  0  0  0  0 
M  END 
>  <HBA> 
1 
 
>  <HBD> 
1 
 
>  <TPSA> 
20.23 
 
>  <cid> 
10335 
 
>  <dipole> 
1.39 
 
>  <excitation_energy_1> 
4.872 
 
>  <excitation_energy_2> 
4.892 
 
>  <excitation_energy_3> 
5.415 
 
>  <excitation_energy_4> 
5.604 
 
>  <homo_energy> 
-5.519 
 
>  <homo_lumo_gap> 
5.84 
 
>  <logP> 
2.317 
 
>  <lumo_energy> 
0.321 
 
>  <melting_point> 
57.8 
 
>  <molecular_refractivity> 
43.36 
 
>  <oscillator_strength_1> 
0.0004 
 
>  <oscillator_strength_2> 
0.0479 
 
>  <oscillator_strength_3> 
0.0016 
 
>  <oscillator_strength_4> 
0.0028 
 
>  <open_babel_can_smiles> 
Cc1cc(O)c(cc1C)C 
 
>  <mulliken_charges> 
22 
1   -0.534477 
2   -0.533862 
3   -0.51575 
4   -0.262313 
5   -0.256156 
6   0.142072 
7   0.127368 
8   0.154575 
9   0.298937 
10   -0.649391 
11   0.153 
12   0.154402 
13   0.154682 
14   0.150635 
15   0.159372 
16   0.159425 
17   0.145578 
18   0.164041 
19   0.16454 
20   0.112675 
21   0.10524 
22   0.405406 
 
>  <lowdin_charges> 
22 
1   -0.441162 
2   -0.441196 
3   -0.436958 
4   -0.168171 
5   -0.224205 
6   -0.02805 
7   -0.003297 
8   -0.032656 
9   0.092365 
10   -0.386272 
11   0.155095 
12   0.155196 
13   0.155764 
14   0.155009 
15   0.158833 
16   0.158302 
17   0.153555 
18   0.161872 
19   0.162811 
20   0.151068 
21   0.147237 
22   0.354859 
 
$$$$ 
 
