PCCDB-ID:  66240 
public computational chemistry database (PCCDB) project, http://pccdb.org 
 
 22 23  0  0  0  0  0  0  0  0999 V2000 
    4.9665   -0.4140   -0.3797 C   0  0  0  0  0  0  0  0  0  0  0  0 
    4.0083   -0.3431    5.2927 C   0  0  0  0  0  0  0  0  0  0  0  0 
    3.8674   -1.2502    4.2160 C   0  0  0  0  0  0  0  0  0  0  0  0 
    3.3815    3.3970    2.2461 C   0  0  0  0  0  0  0  0  0  0  0  0 
    3.9244    1.0107    5.0637 C   0  0  0  0  0  0  0  0  0  0  0  0 
    3.6011    2.9165    3.5151 C   0  0  0  0  0  0  0  0  0  0  0  0 
    3.6594   -0.7899    2.9344 C   0  0  0  0  0  0  0  0  0  0  0  0 
    3.2800    2.5015    1.1557 C   0  0  0  0  0  0  0  0  0  0  0  0 
    3.7072    1.5205    3.7551 C   0  0  0  0  0  0  0  0  0  0  0  0 
    3.5827    0.6019    2.6577 C   0  0  0  0  0  0  0  0  0  0  0  0 
    3.3837    1.1357    1.3405 C   0  0  0  0  0  0  0  0  0  0  0  0 
    3.2167    0.0683   -0.0978 S   0  0  0  0  0  0  0  0  0  0  0  0 
    4.9704   -1.0753   -1.2508 H   0  0  0  0  0  0  0  0  0  0  0  0 
    5.3733   -0.9521    0.4803 H   0  0  0  0  0  0  0  0  0  0  0  0 
    5.5817    0.4638   -0.5924 H   0  0  0  0  0  0  0  0  0  0  0  0 
    4.1737   -0.7191    6.2986 H   0  0  0  0  0  0  0  0  0  0  0  0 
    3.9183   -2.3193    4.4039 H   0  0  0  0  0  0  0  0  0  0  0  0 
    3.2967    4.4656    2.0691 H   0  0  0  0  0  0  0  0  0  0  0  0 
    4.0196    1.7163    5.8859 H   0  0  0  0  0  0  0  0  0  0  0  0 
    3.6930    3.5989    4.3568 H   0  0  0  0  0  0  0  0  0  0  0  0 
    3.5297   -1.4897    2.1155 H   0  0  0  0  0  0  0  0  0  0  0  0 
    3.1229    2.8885    0.1537 H   0  0  0  0  0  0  0  0  0  0  0  0 
  1 12  1  0  0  0  0 
  1 14  1  0  0  0  0 
  2 16  1  0  0  0  0 
  3 17  1  0  0  0  0 
  3  2  2  0  0  0  0 
  4  6  2  0  0  0  0 
  5  2  1  0  0  0  0 
  5 19  1  0  0  0  0 
  6  9  1  0  0  0  0 
  6 20  1  0  0  0  0 
  7  3  1  0  0  0  0 
  8 11  2  0  0  0  0 
  8  4  1  0  0  0  0 
  9  5  2  0  0  0  0 
 10  7  2  0  0  0  0 
 10  9  1  0  0  0  0 
 11 10  1  0  0  0  0 
 12 11  1  0  0  0  0 
 13  1  1  0  0  0  0 
 15  1  1  0  0  0  0 
 18  4  1  0  0  0  0 
 21  7  1  0  0  0  0 
 22  8  1  0  0  0  0 
M  END 
>  <HBA> 
1 
 
>  <HBD> 
0 
 
>  <TPSA> 
25.3 
 
>  <cid> 
66240 
 
>  <dipole> 
1.77 
 
>  <excitation_energy_1> 
3.879 
 
>  <excitation_energy_2> 
4.266 
 
>  <excitation_energy_3> 
4.384 
 
>  <excitation_energy_4> 
4.868 
 
>  <homo_energy> 
-5.853 
 
>  <homo_lumo_gap> 
4.629 
 
>  <logP> 
3.562 
 
>  <lumo_energy> 
-1.225 
 
>  <melting_point> 
61.47 
 
>  <molecular_refractivity> 
55.67 
 
>  <oscillator_strength_1> 
0.0235 
 
>  <oscillator_strength_2> 
0.0853 
 
>  <oscillator_strength_3> 
0.0004 
 
>  <oscillator_strength_4> 
0.0101 
 
>  <open_babel_can_smiles> 
CSc1cccc2c1cccc2 
 
>  <mulliken_charges> 
22 
1   -0.58385 
2   -0.132463 
3   -0.134055 
4   -0.124437 
5   -0.191894 
6   -0.191945 
7   -0.202028 
8   -0.152616 
9   0.147816 
10   0.120426 
11   -0.163044 
12   0.088416 
13   0.180692 
14   0.184314 
15   0.184286 
16   0.131896 
17   0.132172 
18   0.134548 
19   0.131176 
20   0.133571 
21   0.15828 
22   0.148741 
 
>  <lowdin_charges> 
22 
1   -0.545053 
2   -0.156536 
3   -0.153123 
4   -0.158248 
5   -0.156962 
6   -0.150661 
7   -0.161436 
8   -0.153948 
9   0.001248 
10   -0.003417 
11   -0.130938 
12   0.126397 
13   0.174348 
14   0.16532 
15   0.166448 
16   0.15885 
17   0.157827 
18   0.159527 
19   0.159192 
20   0.160111 
21   0.172665 
22   0.168391 
 
$$$$ 
 
