PCCDB-ID:  49296 
public computational chemistry database (PCCDB) project, http://pccdb.org 
 
 35 35  0  0  1  0  0  0  0  0999 V2000 
    1.4579    3.2511   -0.1790 C   0  0  0  0  0  0  0  0  0  0  0  0 
    3.6848    2.8966    0.9825 C   0  0  0  0  0  0  0  0  0  0  0  0 
    6.4472   -0.9976   -2.7175 C   0  0  0  0  0  0  0  0  0  0  0  0 
    7.3919    1.0003   -3.9218 C   0  0  0  0  0  0  0  0  0  0  0  0 
    3.0873    1.6588   -1.1469 C   0  0  0  0  0  0  0  0  0  0  0  0 
    4.3648    0.8825   -1.3341 C   0  0  0  0  0  0  0  0  0  0  0  0 
    2.7837    2.5293   -0.1712 C   0  0  0  0  0  0  0  0  0  0  0  0 
    6.5533    0.5377   -2.7188 C   0  0  0  0  0  0  0  0  0  0  0  0 
    5.4510    2.8019   -2.5703 C   0  0  0  0  0  0  0  0  0  0  0  0 
    4.3079    1.0664   -3.8671 C   0  0  0  0  0  0  0  0  0  0  0  0 
    4.6522    3.2025   -4.7074 C   0  0  0  0  0  0  0  0  0  0  0  0 
    5.1641    1.2978   -2.6212 C   0  0  2  0  0  0  0  0  0  0  0  0 
    5.2251    3.6506   -3.4903 N   0  0  0  0  0  0  0  0  0  0  0  0 
    4.0833    1.9058   -4.7963 N   0  0  0  0  0  0  0  0  0  0  0  0 
    6.0561    3.2688   -1.4533 O   0  0  0  0  0  0  0  0  0  0  0  0 
    3.7281   -0.1502   -4.0057 O   0  0  0  0  0  0  0  0  0  0  0  0 
    4.6306    3.9359   -5.6699 O   0  0  0  0  0  0  0  0  0  0  0  0 
    1.6090    4.3387   -0.2047 H   0  0  0  0  0  0  0  0  0  0  0  0 
    0.8863    3.0353    0.7340 H   0  0  0  0  0  0  0  0  0  0  0  0 
    0.8451    2.9745   -1.0417 H   0  0  0  0  0  0  0  0  0  0  0  0 
    3.1315    2.8533    1.9291 H   0  0  0  0  0  0  0  0  0  0  0  0 
    4.0468    3.9273    0.8732 H   0  0  0  0  0  0  0  0  0  0  0  0 
    4.5565    2.2440    1.0880 H   0  0  0  0  0  0  0  0  0  0  0  0 
    7.4536   -1.4263   -2.6667 H   0  0  0  0  0  0  0  0  0  0  0  0 
    5.9889   -1.3729   -3.6393 H   0  0  0  0  0  0  0  0  0  0  0  0 
    5.8932   -1.3916   -1.8580 H   0  0  0  0  0  0  0  0  0  0  0  0 
    8.3650    0.4982   -3.9081 H   0  0  0  0  0  0  0  0  0  0  0  0 
    7.5734    2.0787   -3.9115 H   0  0  0  0  0  0  0  0  0  0  0  0 
    6.9015    0.7501   -4.8692 H   0  0  0  0  0  0  0  0  0  0  0  0 
    2.3427    1.4926   -1.9251 H   0  0  0  0  0  0  0  0  0  0  0  0 
    4.1328   -0.1897   -1.3835 H   0  0  0  0  0  0  0  0  0  0  0  0 
    5.0235    0.9682   -0.4618 H   0  0  0  0  0  0  0  0  0  0  0  0 
    7.0978    0.8209   -1.8057 H   0  0  0  0  0  0  0  0  0  0  0  0 
    6.1458    2.5604   -0.7981 H   0  0  0  0  0  0  0  0  0  0  0  0 
    3.9586   -0.7199   -3.2568 H   0  0  0  0  0  0  0  0  0  0  0  0 
  1  7  1  0  0  0  0 
  1 19  1  0  0  0  0 
  2 23  1  0  0  0  0 
  2 21  1  0  0  0  0 
  3 24  1  0  0  0  0 
  3 26  1  0  0  0  0 
  4 28  1  0  0  0  0 
  4 27  1  0  0  0  0 
  4  8  1  0  0  0  0 
  5  7  2  0  0  0  0 
  6  5  1  0  0  0  0 
  6 32  1  0  0  0  0 
  7  2  1  0  0  0  0 
  8  3  1  0  0  0  0 
  8 33  1  0  0  0  0 
  9 15  1  0  0  0  0 
 10 12  1  0  0  0  0 
 11 13  2  0  0  0  0 
 12  8  1  6  0  0  0 
 12  9  1  0  0  0  0 
 12  6  1  0  0  0  0 
 13  9  2  0  0  0  0 
 14 11  1  0  0  0  0 
 14 10  2  0  0  0  0 
 15 34  1  0  0  0  0 
 16 10  1  0  0  0  0 
 16 35  1  0  0  0  0 
 17 11  2  0  0  0  0 
 18  1  1  0  0  0  0 
 20  1  1  0  0  0  0 
 22  2  1  0  0  0  0 
 25  3  1  0  0  0  0 
 29  4  1  0  0  0  0 
 30  5  1  0  0  0  0 
 31  6  1  0  0  0  0 
M  END 
>  <HBA> 
5 
 
>  <HBD> 
2 
 
>  <TPSA> 
75.27 
 
>  <cid> 
49296 
 
>  <dipole> 
9.87 
 
>  <excitation_energy_1> 
4.001 
 
>  <excitation_energy_2> 
4.202 
 
>  <excitation_energy_3> 
4.7 
 
>  <excitation_energy_4> 
5.251 
 
>  <homo_energy> 
-6.784 
 
>  <homo_lumo_gap> 
5.388 
 
>  <logP> 
2.009 
 
>  <lumo_energy> 
-1.396 
 
>  <melting_point> 
152.79 
 
>  <molecular_refractivity> 
71.37 
 
>  <oscillator_strength_1> 
0.0003 
 
>  <oscillator_strength_2> 
0.0001 
 
>  <oscillator_strength_3> 
0.0008 
 
>  <oscillator_strength_4> 
0.0002 
 
>  <open_babel_can_smiles> 
CC(=CC[C@@]1(C(C)C)C(=N[C](=[N]=C1O)=O)O)C 
 
>  <mulliken_charges> 
35 
1   -0.510204 
2   -0.520958 
3   -0.495415 
4   -0.477311 
5   -0.169147 
6   -0.363851 
7   0.199898 
8   -0.068713 
9   0.554049 
10   0.532619 
11   0.617285 
12   -0.126748 
13   -0.471144 
14   -0.465696 
15   -0.580824 
16   -0.580857 
17   -0.433763 
18   0.168342 
19   0.155325 
20   0.164429 
21   0.162321 
22   0.183209 
23   0.13322 
24   0.169829 
25   0.169213 
26   0.147968 
27   0.155539 
28   0.184922 
29   0.176051 
30   0.146252 
31   0.147619 
32   0.134038 
33   0.125989 
34   0.415846 
35   0.420669 
 
>  <lowdin_charges> 
35 
1   -0.437182 
2   -0.446499 
3   -0.463272 
4   -0.45254 
5   -0.214507 
6   -0.275383 
7   0.013948 
8   -0.11563 
9   0.154744 
10   0.148705 
11   0.174992 
12   -0.064347 
13   -0.186725 
14   -0.185344 
15   -0.332496 
16   -0.335238 
17   -0.213978 
18   0.162042 
19   0.157352 
20   0.162203 
21   0.161703 
22   0.170546 
23   0.144164 
24   0.166039 
25   0.159332 
26   0.149221 
27   0.158669 
28   0.167781 
29   0.16437 
30   0.162434 
31   0.147613 
32   0.145659 
33   0.138637 
34   0.355808 
35   0.357179 
 
$$$$ 
 
