PCCDB-ID:  62237 
public computational chemistry database (PCCDB) project, http://pccdb.org 
 
 17 16  0  0  1  0  0  0  0  0999 V2000 
    2.1200    1.2443   -0.5117 C   0  0  0  0  0  0  0  0  0  0  0  0 
    2.7973   -1.6970   -3.4868 C   0  0  0  0  0  0  0  0  0  0  0  0 
    3.4662    0.5221   -0.3718 C   0  0  0  0  0  0  0  0  0  0  0  0 
    3.4617   -0.6029   -2.6756 C   0  0  0  0  0  0  0  0  0  0  0  0 
    3.5148   -0.7946   -1.1524 C   0  0  1  0  0  0  0  0  0  0  0  0 
    3.9461    0.3880   -3.1895 O   0  0  0  0  0  0  0  0  0  0  0  0 
    5.0410   -1.7948   -0.7967 S   0  0  0  0  0  0  0  0  0  0  0  0 
    2.1127    2.1604    0.0889 H   0  0  0  0  0  0  0  0  0  0  0  0 
    1.2893    0.6159   -0.1667 H   0  0  0  0  0  0  0  0  0  0  0  0 
    1.9273    1.5289   -1.5513 H   0  0  0  0  0  0  0  0  0  0  0  0 
    1.7147   -1.6810   -3.3018 H   0  0  0  0  0  0  0  0  0  0  0  0 
    3.1653   -2.6846   -3.1897 H   0  0  0  0  0  0  0  0  0  0  0  0 
    2.9795   -1.5330   -4.5507 H   0  0  0  0  0  0  0  0  0  0  0  0 
    3.6718    0.3080    0.6826 H   0  0  0  0  0  0  0  0  0  0  0  0 
    4.2707    1.1693   -0.7377 H   0  0  0  0  0  0  0  0  0  0  0  0 
    2.7039   -1.4620   -0.8365 H   0  0  0  0  0  0  0  0  0  0  0  0 
    5.9121   -0.8872   -1.2901 H   0  0  0  0  0  0  0  0  0  0  0  0 
  1  3  1  0  0  0  0 
  1  9  1  0  0  0  0 
  1  8  1  0  0  0  0 
  2 11  1  0  0  0  0 
  2 12  1  0  0  0  0 
  2  4  1  0  0  0  0 
  3 14  1  0  0  0  0 
  4  5  1  0  0  0  0 
  5 16  1  1  0  0  0 
  5  7  1  0  0  0  0 
  5  3  1  0  0  0  0 
  6  4  2  0  0  0  0 
 10  1  1  0  0  0  0 
 13  2  1  0  0  0  0 
 15  3  1  0  0  0  0 
 17  7  1  0  0  0  0 
M  END 
>  <HBA> 
2 
 
>  <HBD> 
1 
 
>  <TPSA> 
55.87 
 
>  <cid> 
62237 
 
>  <dipole> 
1.8 
 
>  <excitation_energy_1> 
4.137 
 
>  <excitation_energy_2> 
4.854 
 
>  <excitation_energy_3> 
5.526 
 
>  <excitation_energy_4> 
6.136 
 
>  <homo_energy> 
-6.536 
 
>  <homo_lumo_gap> 
5.668 
 
>  <logP> 
1.284 
 
>  <lumo_energy> 
-0.868 
 
>  <melting_point> 
15.75 
 
>  <molecular_refractivity> 
34.28 
 
>  <oscillator_strength_1> 
0.0075 
 
>  <oscillator_strength_2> 
0.0059 
 
>  <oscillator_strength_3> 
0.009 
 
>  <oscillator_strength_4> 
0.0235 
 
>  <open_babel_can_smiles> 
CC[C@@H](C(=O)C)S 
 
>  <mulliken_charges> 
17 
1   -0.459158 
2   -0.533639 
3   -0.236658 
4   0.470964 
5   -0.333409 
6   -0.440687 
7   -0.069569 
8   0.154769 
9   0.140057 
10   0.16358 
11   0.170976 
12   0.185398 
13   0.182112 
14   0.152969 
15   0.162284 
16   0.17448 
17   0.115531 
 
>  <lowdin_charges> 
17 
1   -0.448659 
2   -0.47006 
3   -0.275587 
4   0.160416 
5   -0.249537 
6   -0.237922 
7   -0.066111 
8   0.157624 
9   0.14611 
10   0.155725 
11   0.170386 
12   0.177241 
13   0.172883 
14   0.153716 
15   0.159438 
16   0.16723 
17   0.127109 
 
$$$$ 
 
