PCCDB-ID:  28717 
public computational chemistry database (PCCDB) project, http://pccdb.org 
 
 24 24  0  0  1  0  0  0  0  0999 V2000 
    1.0288   -0.0563   -0.3455 C   0  0  0  0  0  0  0  0  0  0  0  0 
    5.0319    2.6246    1.1433 C   0  0  0  0  0  0  0  0  0  0  0  0 
    4.5626   -1.2593    0.8795 C   0  0  0  0  0  0  0  0  0  0  0  0 
    3.0459   -1.3035    0.6227 C   0  0  0  0  0  0  0  0  0  0  0  0 
    5.0087    0.0650    1.5247 C   0  0  0  0  0  0  0  0  0  0  0  0 
    2.5391   -0.0464   -0.1164 C   0  0  2  0  0  0  0  0  0  0  0  0 
    4.4853    1.2615    0.7093 C   0  0  1  0  0  0  0  0  0  0  0  0 
    2.1413    1.5875    1.5592 N   0  0  0  0  0  0  0  0  0  0  0  0 
    3.0030    1.1440    0.6328 N   0  0  0  0  0  0  0  0  0  0  0  0 
    2.6016    2.3125    2.4390 O   0  0  0  0  0  0  0  0  0  0  0  0 
    0.7783   -0.8831   -1.0195 H   0  0  0  0  0  0  0  0  0  0  0  0 
    0.6964    0.8793   -0.8052 H   0  0  0  0  0  0  0  0  0  0  0  0 
    0.4778   -0.1870    0.5882 H   0  0  0  0  0  0  0  0  0  0  0  0 
    6.0888    2.6745    0.8524 H   0  0  0  0  0  0  0  0  0  0  0  0 
    4.9512    2.7839    2.2173 H   0  0  0  0  0  0  0  0  0  0  0  0 
    4.5041    3.4390    0.6380 H   0  0  0  0  0  0  0  0  0  0  0  0 
    5.0924   -1.3835   -0.0765 H   0  0  0  0  0  0  0  0  0  0  0  0 
    4.8577   -2.1073    1.5090 H   0  0  0  0  0  0  0  0  0  0  0  0 
    2.5057   -1.3703    1.5773 H   0  0  0  0  0  0  0  0  0  0  0  0 
    2.7851   -2.1978    0.0426 H   0  0  0  0  0  0  0  0  0  0  0  0 
    6.1037    0.1106    1.5816 H   0  0  0  0  0  0  0  0  0  0  0  0 
    4.6279    0.1479    2.5506 H   0  0  0  0  0  0  0  0  0  0  0  0 
    3.0367    0.0114   -1.0944 H   0  0  0  0  0  0  0  0  0  0  0  0 
    4.7994    1.1132   -0.3335 H   0  0  0  0  0  0  0  0  0  0  0  0 
  1  6  1  0  0  0  0 
  1 13  1  0  0  0  0 
  2 15  1  0  0  0  0 
  3 18  1  0  0  0  0 
  3  5  1  0  0  0  0 
  4  3  1  0  0  0  0 
  4 19  1  0  0  0  0 
  5 21  1  0  0  0  0 
  5 22  1  0  0  0  0 
  6 23  1  6  0  0  0 
  6  4  1  0  0  0  0 
  6  9  1  0  0  0  0 
  7 24  1  6  0  0  0 
  7  2  1  0  0  0  0 
  7  5  1  0  0  0  0 
  8 10  2  0  0  0  0 
  9  7  1  0  0  0  0 
  9  8  1  0  0  0  0 
 11  1  1  0  0  0  0 
 12  1  1  0  0  0  0 
 14  2  1  0  0  0  0 
 16  2  1  0  0  0  0 
 17  3  1  0  0  0  0 
 20  4  1  0  0  0  0 
M  END 
>  <HBA> 
3 
 
>  <HBD> 
0 
 
>  <TPSA> 
32.67 
 
>  <cid> 
28717 
 
>  <dipole> 
3.95 
 
>  <excitation_energy_1> 
3.088 
 
>  <excitation_energy_2> 
5.226 
 
>  <excitation_energy_3> 
5.595 
 
>  <excitation_energy_4> 
5.729 
 
>  <homo_energy> 
-5.679 
 
>  <homo_lumo_gap> 
4.936 
 
>  <logP> 
1.869 
 
>  <lumo_energy> 
-0.743 
 
>  <melting_point> 
17.04 
 
>  <molecular_refractivity> 
45.2 
 
>  <oscillator_strength_1> 
0.001 
 
>  <oscillator_strength_2> 
0.0016 
 
>  <oscillator_strength_3> 
0.1201 
 
>  <oscillator_strength_4> 
0.0213 
 
>  <open_babel_can_smiles> 
C[C@@H]1CCC[C@@H](N1N=O)C 
 
>  <mulliken_charges> 
24 
1   -0.446903 
2   -0.444389 
3   -0.277341 
4   -0.256369 
5   -0.25978 
6   0.030941 
7   0.030873 
8   0.146392 
9   -0.232454 
10   -0.386947 
11   0.143409 
12   0.161323 
13   0.173427 
14   0.1339 
15   0.184124 
16   0.157626 
17   0.132017 
18   0.143999 
19   0.14989 
20   0.139595 
21   0.140145 
22   0.159807 
23   0.137649 
24   0.139065 
 
>  <lowdin_charges> 
24 
1   -0.447077 
2   -0.445216 
3   -0.280866 
4   -0.286454 
5   -0.281244 
6   -0.056974 
7   -0.05997 
8   0.049657 
9   -0.056602 
10   -0.271686 
11   0.154004 
12   0.162006 
13   0.164779 
14   0.145469 
15   0.167559 
16   0.16158 
17   0.139338 
18   0.151757 
19   0.149995 
20   0.150612 
21   0.148501 
22   0.153994 
23   0.142213 
24   0.144625 
 
$$$$ 
 
