PCCDB-ID:  16271 
public computational chemistry database (PCCDB) project, http://pccdb.org 
 
 18 18  0  0  0  0  0  0  0  0999 V2000 
    0.9554   -0.2236   -0.2822 C   0  0  0  0  0  0  0  0  0  0  0  0 
    3.2216   -1.2958   -0.3059 C   0  0  0  0  0  0  0  0  0  0  0  0 
    4.6137   -1.3029   -0.2914 C   0  0  0  0  0  0  0  0  0  0  0  0 
    4.6035    1.1001   -0.1601 C   0  0  0  0  0  0  0  0  0  0  0  0 
    2.4617   -0.1182   -0.2598 C   0  0  0  0  0  0  0  0  0  0  0  0 
    5.3151   -0.0957   -0.2191 C   0  0  0  0  0  0  0  0  0  0  0  0 
    3.2098    1.0752   -0.1849 C   0  0  0  0  0  0  0  0  0  0  0  0 
    2.5526    2.3972   -0.1256 N   0  0  0  0  0  0  0  0  0  0  0  0 
    6.6767   -0.0187   -0.2004 O   0  0  0  0  0  0  0  0  0  0  0  0 
    3.2525    3.3751    0.1369 O   0  0  0  0  0  0  0  0  0  0  0  0 
    1.3425    2.4586   -0.3466 O   0  0  0  0  0  0  0  0  0  0  0  0 
    0.6641   -1.2783   -0.2497 H   0  0  0  0  0  0  0  0  0  0  0  0 
    0.5311    0.2289   -1.1829 H   0  0  0  0  0  0  0  0  0  0  0  0 
    0.4943    0.2922    0.5648 H   0  0  0  0  0  0  0  0  0  0  0  0 
    2.6957   -2.2451   -0.3569 H   0  0  0  0  0  0  0  0  0  0  0  0 
    5.1520   -2.2478   -0.3335 H   0  0  0  0  0  0  0  0  0  0  0  0 
    5.1253    2.0454   -0.0944 H   0  0  0  0  0  0  0  0  0  0  0  0 
    7.0492   -0.9132   -0.2426 H   0  0  0  0  0  0  0  0  0  0  0  0 
  1  5  1  0  0  0  0 
  1 12  1  0  0  0  0 
  1 14  1  0  0  0  0 
  2  3  2  0  0  0  0 
  2  5  1  0  0  0  0 
  3  6  1  0  0  0  0 
  4 17  1  0  0  0  0 
  5  7  2  0  0  0  0 
  6  9  1  0  0  0  0 
  6  4  2  0  0  0  0 
  7  4  1  0  0  0  0 
  7  8  1  0  0  0  0 
  8 10  2  0  0  0  0 
 11  8  2  0  0  0  0 
 13  1  1  0  0  0  0 
 15  2  1  0  0  0  0 
 16  3  1  0  0  0  0 
 18  9  1  0  0  0  0 
M  END 
>  <HBA> 
1 
 
>  <HBD> 
1 
 
>  <TPSA> 
66.05 
 
>  <cid> 
16271 
 
>  <dipole> 
5.65 
 
>  <excitation_energy_1> 
3.522 
 
>  <excitation_energy_2> 
3.693 
 
>  <excitation_energy_3> 
4.268 
 
>  <excitation_energy_4> 
4.687 
 
>  <homo_energy> 
-6.544 
 
>  <homo_lumo_gap> 
4.25 
 
>  <logP> 
2.132 
 
>  <lumo_energy> 
-2.294 
 
>  <melting_point> 
87.92 
 
>  <molecular_refractivity> 
42.25 
 
>  <oscillator_strength_1> 
0.0422 
 
>  <oscillator_strength_2> 
0.0027 
 
>  <oscillator_strength_3> 
0.0013 
 
>  <oscillator_strength_4> 
0.1393 
 
>  <open_babel_can_smiles> 
Oc1ccc(c(c1)N(=O)=O)C 
 
>  <mulliken_charges> 
18 
1   -0.500077 
2   -0.202108 
3   -0.166912 
4   -0.19472 
5   0.160964 
6   0.354025 
7   0.212386 
8   0.372658 
9   -0.636582 
10   -0.39096 
11   -0.39898 
12   0.144615 
13   0.184665 
14   0.178596 
15   0.141803 
16   0.133884 
17   0.194067 
18   0.412677 
 
>  <lowdin_charges> 
18 
1   -0.437443 
2   -0.150331 
3   -0.190469 
4   -0.1669 
5   0.004656 
6   0.104233 
7   0.004409 
8   0.305865 
9   -0.368818 
10   -0.247885 
11   -0.239727 
12   0.150113 
13   0.174936 
14   0.172561 
15   0.165017 
16   0.161623 
17   0.19746 
18   0.3607 
 
$$$$ 
 
