PCCDB-ID:  12215 
public computational chemistry database (PCCDB) project, http://pccdb.org 
 
 18 17  0  0  0  0  0  0  0  0999 V2000 
    4.5192   -0.3361    0.7241 C   0  0  0  0  0  0  0  0  0  0  0  0 
   -0.9354    5.0209   -2.8292 C   0  0  0  0  0  0  0  0  0  0  0  0 
    2.4266    2.1818   -0.9160 C   0  0  0  0  0  0  0  0  0  0  0  0 
    1.1571    2.5037   -1.1880 C   0  0  0  0  0  0  0  0  0  0  0  0 
    2.7522    0.9488   -0.1545 C   0  0  0  0  0  0  0  0  0  0  0  0 
    0.8315    3.7371   -1.9487 C   0  0  0  0  0  0  0  0  0  0  0  0 
    1.9444    0.1503    0.2757 O   0  0  0  0  0  0  0  0  0  0  0  0 
    1.6392    4.5360   -2.3782 O   0  0  0  0  0  0  0  0  0  0  0  0 
    4.0888    0.8285    0.0013 O   0  0  0  0  0  0  0  0  0  0  0  0 
   -0.5051    3.8579   -2.1039 O   0  0  0  0  0  0  0  0  0  0  0  0 
    5.6076   -0.2801    0.7474 H   0  0  0  0  0  0  0  0  0  0  0  0 
    4.1898   -1.2459    0.2150 H   0  0  0  0  0  0  0  0  0  0  0  0 
    4.1105   -0.3296    1.7381 H   0  0  0  0  0  0  0  0  0  0  0  0 
   -2.0226    4.9539   -2.8709 H   0  0  0  0  0  0  0  0  0  0  0  0 
   -0.5093    5.0234   -3.8360 H   0  0  0  0  0  0  0  0  0  0  0  0 
   -0.6244    5.9318   -2.3106 H   0  0  0  0  0  0  0  0  0  0  0  0 
    3.2448    2.8140   -1.2465 H   0  0  0  0  0  0  0  0  0  0  0  0 
    0.3389    1.8712   -0.8581 H   0  0  0  0  0  0  0  0  0  0  0  0 
  1 11  1  0  0  0  0 
  1 13  1  0  0  0  0 
  2 16  1  0  0  0  0 
  2 10  1  0  0  0  0 
  3  5  1  0  0  0  0 
  4  3  2  0  0  0  0 
  4 18  1  0  0  0  0 
  5  9  1  0  0  0  0 
  5  7  2  0  0  0  0 
  6  4  1  0  0  0  0 
  8  6  2  0  0  0  0 
  9  1  1  0  0  0  0 
 10  6  1  0  0  0  0 
 12  1  1  0  0  0  0 
 14  2  1  0  0  0  0 
 15  2  1  0  0  0  0 
 17  3  1  0  0  0  0 
M  END 
>  <HBA> 
4 
 
>  <HBD> 
0 
 
>  <TPSA> 
52.6 
 
>  <cid> 
12215 
 
>  <dipole> 
0.01 
 
>  <excitation_energy_1> 
4.177 
 
>  <excitation_energy_2> 
4.316 
 
>  <excitation_energy_3> 
5.495 
 
>  <excitation_energy_4> 
5.607 
 
>  <homo_energy> 
-7.63 
 
>  <homo_lumo_gap> 
5.418 
 
>  <logP> 
-0.111 
 
>  <lumo_energy> 
-2.212 
 
>  <melting_point> 
8.11 
 
>  <molecular_refractivity> 
33.05 
 
>  <oscillator_strength_1> 
0.0002 
 
>  <oscillator_strength_2> 
0.0 
 
>  <oscillator_strength_3> 
0.2761 
 
>  <oscillator_strength_4> 
0.0 
 
>  <open_babel_can_smiles> 
COC(=O)/C=C/C(=O)OC 
 
>  <mulliken_charges> 
18 
1   -0.220521 
2   -0.22055 
3   -0.159981 
4   -0.160086 
5   0.618047 
6   0.618087 
7   -0.483475 
8   -0.483448 
9   -0.459111 
10   -0.459109 
11   0.169026 
12   0.174338 
13   0.174079 
14   0.169031 
15   0.174451 
16   0.173977 
17   0.187622 
18   0.187624 
 
>  <lowdin_charges> 
18 
1   -0.275371 
2   -0.27548 
3   -0.144683 
4   -0.144687 
5   0.194443 
6   0.194417 
7   -0.262576 
8   -0.262538 
9   -0.184786 
10   -0.184778 
11   0.160873 
12   0.162164 
13   0.160641 
14   0.160898 
15   0.160974 
16   0.161911 
17   0.18929 
18   0.189289 
 
$$$$ 
 
