PCCDB-ID:  7191 
public computational chemistry database (PCCDB) project, http://pccdb.org 
 
 27 28  0  0  0  0  0  0  0  0999 V2000 
   -2.0724    3.1243    0.8848 C   0  0  0  0  0  0  0  0  0  0  0  0 
   -1.9667    2.6698   -0.4316 C   0  0  0  0  0  0  0  0  0  0  0  0 
   -1.0382    2.8782    1.7897 C   0  0  0  0  0  0  0  0  0  0  0  0 
    0.8648   -4.5474    0.5306 C   0  0  0  0  0  0  0  0  0  0  0  0 
   -0.8316    1.9717   -0.8436 C   0  0  0  0  0  0  0  0  0  0  0  0 
    0.0969    2.1801    1.3764 C   0  0  0  0  0  0  0  0  0  0  0  0 
    1.0141   -3.1767    0.3415 C   0  0  0  0  0  0  0  0  0  0  0  0 
    0.3817   -5.3184   -0.5287 C   0  0  0  0  0  0  0  0  0  0  0  0 
    0.1941   -3.4999   -1.8960 C   0  0  0  0  0  0  0  0  0  0  0  0 
    1.4391    0.9599   -0.3763 C   0  0  0  0  0  0  0  0  0  0  0  0 
    0.2113    1.7202    0.0587 C   0  0  0  0  0  0  0  0  0  0  0  0 
    0.6721   -2.6336   -0.9020 C   0  0  0  0  0  0  0  0  0  0  0  0 
    0.7919   -1.1832   -1.2217 C   0  0  0  0  0  0  0  0  0  0  0  0 
    0.0484   -4.8167   -1.7260 N   0  0  0  0  0  0  0  0  0  0  0  0 
    0.4879   -0.6980   -2.2949 O   0  0  0  0  0  0  0  0  0  0  0  0 
    1.2867   -0.4764   -0.1818 O   0  0  0  0  0  0  0  0  0  0  0  0 
   -2.9559    3.6710    1.2034 H   0  0  0  0  0  0  0  0  0  0  0  0 
   -2.7680    2.8622   -1.1401 H   0  0  0  0  0  0  0  0  0  0  0  0 
   -1.1134    3.2321    2.8144 H   0  0  0  0  0  0  0  0  0  0  0  0 
    1.1156   -5.0135    1.4787 H   0  0  0  0  0  0  0  0  0  0  0  0 
   -0.7490    1.6094   -1.8639 H   0  0  0  0  0  0  0  0  0  0  0  0 
    0.9034    1.9925    2.0819 H   0  0  0  0  0  0  0  0  0  0  0  0 
    1.3837   -2.5337    1.1326 H   0  0  0  0  0  0  0  0  0  0  0  0 
    0.2553   -6.3936   -0.4120 H   0  0  0  0  0  0  0  0  0  0  0  0 
   -0.0776   -3.0933   -2.8667 H   0  0  0  0  0  0  0  0  0  0  0  0 
    2.3014    1.2176    0.2423 H   0  0  0  0  0  0  0  0  0  0  0  0 
    1.6724    1.1396   -1.4272 H   0  0  0  0  0  0  0  0  0  0  0  0 
  1 17  1  0  0  0  0 
  1  3  2  0  0  0  0 
  2  1  1  0  0  0  0 
  3 19  1  0  0  0  0 
  4 20  1  0  0  0  0 
  5  2  2  0  0  0  0 
  5 11  1  0  0  0  0 
  6  3  1  0  0  0  0 
  6 22  1  0  0  0  0 
  7  4  1  0  0  0  0 
  7 23  1  0  0  0  0 
  8 24  1  0  0  0  0 
  8  4  2  0  0  0  0 
  9 14  2  0  0  0  0 
  9 12  1  0  0  0  0 
 10 16  1  0  0  0  0 
 10 11  1  0  0  0  0 
 10 26  1  0  0  0  0 
 11  6  2  0  0  0  0 
 12  7  2  0  0  0  0 
 13 12  1  0  0  0  0 
 13 16  1  0  0  0  0 
 14  8  1  0  0  0  0 
 15 13  2  0  0  0  0 
 18  2  1  0  0  0  0 
 21  5  1  0  0  0  0 
 25  9  1  0  0  0  0 
 27 10  1  0  0  0  0 
M  END 
>  <HBA> 
3 
 
>  <HBD> 
0 
 
>  <TPSA> 
39.19 
 
>  <cid> 
7191 
 
>  <dipole> 
3.54 
 
>  <excitation_energy_1> 
4.262 
 
>  <excitation_energy_2> 
4.677 
 
>  <excitation_energy_3> 
4.788 
 
>  <excitation_energy_4> 
4.91 
 
>  <homo_energy> 
-6.833 
 
>  <homo_lumo_gap> 
5.312 
 
>  <logP> 
2.439 
 
>  <lumo_energy> 
-1.521 
 
>  <melting_point> 
75.16 
 
>  <molecular_refractivity> 
60.0 
 
>  <oscillator_strength_1> 
0.0004 
 
>  <oscillator_strength_2> 
0.0075 
 
>  <oscillator_strength_3> 
0.0004 
 
>  <oscillator_strength_4> 
0.0032 
 
>  <open_babel_can_smiles> 
O=C(c1cccnc1)OCc1ccccc1 
 
>  <mulliken_charges> 
27 
1   -0.125484 
2   -0.130356 
3   -0.129018 
4   -0.147507 
5   -0.17726 
6   -0.172706 
7   -0.122347 
8   0.050475 
9   0.025836 
10   -0.144894 
11   0.148136 
12   0.027213 
13   0.606269 
14   -0.413416 
15   -0.489908 
16   -0.4766 
17   0.133292 
18   0.135687 
19   0.132417 
20   0.144778 
21   0.162291 
22   0.127854 
23   0.168884 
24   0.149994 
25   0.176279 
26   0.158324 
27   0.181768 
 
>  <lowdin_charges> 
27 
1   -0.150648 
2   -0.155176 
3   -0.154812 
4   -0.175201 
5   -0.152084 
6   -0.158553 
7   -0.113275 
8   -0.071809 
9   -0.064572 
10   -0.12491 
11   -0.024424 
12   -0.061465 
13   0.199748 
14   -0.143766 
15   -0.270657 
16   -0.192287 
17   0.159815 
18   0.161397 
19   0.157939 
20   0.167768 
21   0.171247 
22   0.157241 
23   0.178485 
24   0.15864 
25   0.175403 
26   0.159116 
27   0.166839 
 
$$$$ 
 
