PCCDB-ID:  25980 
public computational chemistry database (PCCDB) project, http://pccdb.org 
 
 27 26  0  0  0  0  0  0  0  0999 V2000 
    0.6800   -0.3326    0.8343 C   0  0  0  0  0  0  0  0  0  0  0  0 
    4.5011   -0.4194    1.5013 C   0  0  0  0  0  0  0  0  0  0  0  0 
    6.1848    0.7210    0.0176 C   0  0  0  0  0  0  0  0  0  0  0  0 
    1.8887    0.1624   -2.4003 C   0  0  0  0  0  0  0  0  0  0  0  0 
    1.9768    1.9001   -0.5951 C   0  0  0  0  0  0  0  0  0  0  0  0 
    1.6418   -0.5610   -0.0623 C   0  0  0  0  0  0  0  0  0  0  0  0 
    3.8962    0.2489   -0.9166 C   0  0  0  0  0  0  0  0  0  0  0  0 
    4.6908    0.5956    0.3632 C   0  0  0  0  0  0  0  0  0  0  0  0 
    2.3491    0.4498   -0.9464 C   0  0  0  0  0  0  0  0  0  0  0  0 
    0.2167   -1.1489    1.3824 H   0  0  0  0  0  0  0  0  0  0  0  0 
    0.3171    0.6653    1.0643 H   0  0  0  0  0  0  0  0  0  0  0  0 
    5.1070   -0.1405    2.3722 H   0  0  0  0  0  0  0  0  0  0  0  0 
    4.8220   -1.4211    1.1843 H   0  0  0  0  0  0  0  0  0  0  0  0 
    3.4590   -0.4880    1.8224 H   0  0  0  0  0  0  0  0  0  0  0  0 
    6.7747    0.9840    0.9037 H   0  0  0  0  0  0  0  0  0  0  0  0 
    6.3594    1.4914   -0.7432 H   0  0  0  0  0  0  0  0  0  0  0  0 
    6.5782   -0.2272   -0.3722 H   0  0  0  0  0  0  0  0  0  0  0  0 
    0.8035    0.2787   -2.4949 H   0  0  0  0  0  0  0  0  0  0  0  0 
    2.1450   -0.8597   -2.7047 H   0  0  0  0  0  0  0  0  0  0  0  0 
    2.3710    0.8525   -3.1038 H   0  0  0  0  0  0  0  0  0  0  0  0 
    0.9078    2.0809   -0.7540 H   0  0  0  0  0  0  0  0  0  0  0  0 
    2.5293    2.6004   -1.2328 H   0  0  0  0  0  0  0  0  0  0  0  0 
    2.2042    2.1433    0.4478 H   0  0  0  0  0  0  0  0  0  0  0  0 
    1.9476   -1.5951   -0.2372 H   0  0  0  0  0  0  0  0  0  0  0  0 
    4.1165   -0.7948   -1.1901 H   0  0  0  0  0  0  0  0  0  0  0  0 
    4.3011    0.8607   -1.7357 H   0  0  0  0  0  0  0  0  0  0  0  0 
    4.3568    1.5785    0.7243 H   0  0  0  0  0  0  0  0  0  0  0  0 
  1 11  1  0  0  0  0 
  1 10  1  0  0  0  0 
  2 14  1  0  0  0  0 
  2 12  1  0  0  0  0 
  3  8  1  0  0  0  0 
  3 15  1  0  0  0  0 
  4  9  1  0  0  0  0 
  5 23  1  0  0  0  0 
  6  1  2  0  0  0  0 
  7  8  1  0  0  0  0 
  8 27  1  0  0  0  0 
  8  2  1  0  0  0  0 
  9  7  1  0  0  0  0 
  9  5  1  0  0  0  0 
  9  6  1  0  0  0  0 
 13  2  1  0  0  0  0 
 16  3  1  0  0  0  0 
 17  3  1  0  0  0  0 
 18  4  1  0  0  0  0 
 19  4  1  0  0  0  0 
 20  4  1  0  0  0  0 
 21  5  1  0  0  0  0 
 22  5  1  0  0  0  0 
 24  6  1  0  0  0  0 
 25  7  1  0  0  0  0 
 26  7  1  0  0  0  0 
M  END 
>  <HBA> 
0 
 
>  <HBD> 
0 
 
>  <TPSA> 
0.0 
 
>  <cid> 
25980 
 
>  <dipole> 
0.31 
 
>  <excitation_energy_1> 
6.294 
 
>  <excitation_energy_2> 
6.656 
 
>  <excitation_energy_3> 
6.735 
 
>  <excitation_energy_4> 
6.792 
 
>  <homo_energy> 
-6.708 
 
>  <homo_lumo_gap> 
7.391 
 
>  <logP> 
3.245 
 
>  <lumo_energy> 
0.683 
 
>  <melting_point> 
-30.47 
 
>  <molecular_refractivity> 
44.64 
 
>  <oscillator_strength_1> 
0.0469 
 
>  <oscillator_strength_2> 
0.0062 
 
>  <oscillator_strength_3> 
0.0903 
 
>  <oscillator_strength_4> 
0.1982 
 
>  <open_babel_can_smiles> 
C=CC(CC(C)C)(C)C 
 
>  <mulliken_charges> 
27 
1   -0.352983 
2   -0.449295 
3   -0.442351 
4   -0.443507 
5   -0.464131 
6   -0.041652 
7   -0.257252 
8   -0.069644 
9   0.062598 
10   0.136085 
11   0.137236 
12   0.134279 
13   0.131427 
14   0.158572 
15   0.138771 
16   0.137477 
17   0.137716 
18   0.147196 
19   0.139476 
20   0.139622 
21   0.144165 
22   0.138546 
23   0.150707 
24   0.118888 
25   0.120115 
26   0.122973 
27   0.124966 
 
>  <lowdin_charges> 
27 
1   -0.356874 
2   -0.451178 
3   -0.445443 
4   -0.436422 
5   -0.4434 
6   -0.136996 
7   -0.273759 
8   -0.121602 
9   0.011559 
10   0.15898 
11   0.155737 
12   0.146024 
13   0.141371 
14   0.157131 
15   0.14766 
16   0.146002 
17   0.144662 
18   0.149605 
19   0.146713 
20   0.148307 
21   0.148987 
22   0.150649 
23   0.150208 
24   0.146955 
25   0.136453 
26   0.141463 
27   0.137205 
 
$$$$ 
 
