PCCDB-ID:  68126 
public computational chemistry database (PCCDB) project, http://pccdb.org 
 
 23 23  0  0  0  0  0  0  0  0999 V2000 
    0.7649    0.0009    0.0644 C   0  0  0  0  0  0  0  0  0  0  0  0 
    6.8990    2.3058   -0.2099 C   0  0  0  0  0  0  0  0  0  0  0  0 
    6.2711   -1.9381    0.3178 C   0  0  0  0  0  0  0  0  0  0  0  0 
    2.7425    1.5888    0.1420 C   0  0  0  0  0  0  0  0  0  0  0  0 
    4.1137    1.8586    0.0598 C   0  0  0  0  0  0  0  0  0  0  0  0 
    3.1649   -0.7266   -0.2983 C   0  0  0  0  0  0  0  0  0  0  0  0 
    2.2429    0.2995   -0.0383 C   0  0  0  0  0  0  0  0  0  0  0  0 
    5.0202    0.8324   -0.2095 C   0  0  0  0  0  0  0  0  0  0  0  0 
    4.5306   -0.4825   -0.3831 C   0  0  0  0  0  0  0  0  0  0  0  0 
    6.3731    0.9952   -0.3350 O   0  0  0  0  0  0  0  0  0  0  0  0 
    5.3686   -1.5234   -0.7087 O   0  0  0  0  0  0  0  0  0  0  0  0 
    0.1719    0.9212    0.0499 H   0  0  0  0  0  0  0  0  0  0  0  0 
    0.5238   -0.5307    0.9946 H   0  0  0  0  0  0  0  0  0  0  0  0 
    0.4234   -0.6306   -0.7643 H   0  0  0  0  0  0  0  0  0  0  0  0 
    7.9763    2.2116   -0.3590 H   0  0  0  0  0  0  0  0  0  0  0  0 
    6.7061    2.7276    0.7858 H   0  0  0  0  0  0  0  0  0  0  0  0 
    6.4849    2.9799   -0.9713 H   0  0  0  0  0  0  0  0  0  0  0  0 
    5.7224   -2.2678    1.2108 H   0  0  0  0  0  0  0  0  0  0  0  0 
    6.9664   -1.1381    0.5900 H   0  0  0  0  0  0  0  0  0  0  0  0 
    6.8288   -2.7828   -0.0939 H   0  0  0  0  0  0  0  0  0  0  0  0 
    2.0577    2.4084    0.3463 H   0  0  0  0  0  0  0  0  0  0  0  0 
    4.4617    2.8764    0.1957 H   0  0  0  0  0  0  0  0  0  0  0  0 
    2.8300   -1.7493   -0.4518 H   0  0  0  0  0  0  0  0  0  0  0  0 
  1 13  1  0  0  0  0 
  2 16  1  0  0  0  0 
  3 19  1  0  0  0  0 
  3 18  1  0  0  0  0 
  4 21  1  0  0  0  0 
  5  4  1  0  0  0  0 
  5 22  1  0  0  0  0 
  6  7  1  0  0  0  0 
  7  1  1  0  0  0  0 
  7  4  2  0  0  0  0 
  8  5  2  0  0  0  0 
  9  6  2  0  0  0  0 
  9  8  1  0  0  0  0 
 10  2  1  0  0  0  0 
 10  8  1  0  0  0  0 
 11  9  1  0  0  0  0 
 11  3  1  0  0  0  0 
 12  1  1  0  0  0  0 
 14  1  1  0  0  0  0 
 15  2  1  0  0  0  0 
 17  2  1  0  0  0  0 
 20  3  1  0  0  0  0 
 23  6  1  0  0  0  0 
M  END 
>  <HBA> 
2 
 
>  <HBD> 
0 
 
>  <TPSA> 
18.46 
 
>  <cid> 
68126 
 
>  <dipole> 
2.04 
 
>  <excitation_energy_1> 
4.892 
 
>  <excitation_energy_2> 
5.248 
 
>  <excitation_energy_3> 
5.454 
 
>  <excitation_energy_4> 
5.631 
 
>  <homo_energy> 
-5.584 
 
>  <homo_lumo_gap> 
5.821 
 
>  <logP> 
2.012 
 
>  <lumo_energy> 
0.237 
 
>  <melting_point> 
19.37 
 
>  <molecular_refractivity> 
44.39 
 
>  <oscillator_strength_1> 
0.0451 
 
>  <oscillator_strength_2> 
0.0057 
 
>  <oscillator_strength_3> 
0.0613 
 
>  <oscillator_strength_4> 
0.0021 
 
>  <open_babel_can_smiles> 
COc1cc(C)ccc1OC 
 
>  <mulliken_charges> 
23 
1   -0.52949 
2   -0.213978 
3   -0.209004 
4   -0.191839 
5   -0.204275 
6   -0.229276 
7   0.176186 
8   0.344055 
9   0.31493 
10   -0.509257 
11   -0.521164 
12   0.152204 
13   0.160457 
14   0.158697 
15   0.168852 
16   0.150073 
17   0.153603 
18   0.136237 
19   0.161202 
20   0.156212 
21   0.118109 
22   0.130495 
23   0.12697 
 
>  <lowdin_charges> 
23 
1   -0.442064 
2   -0.275569 
3   -0.278162 
4   -0.172395 
5   -0.209173 
6   -0.179722 
7   -0.011591 
8   0.07432 
9   0.072303 
10   -0.198326 
11   -0.224254 
12   0.15562 
13   0.158665 
14   0.159273 
15   0.160177 
16   0.143264 
17   0.147418 
18   0.13738 
19   0.149953 
20   0.1556 
21   0.154604 
22   0.160774 
23   0.161902 
 
$$$$ 
 
