PCCDB-ID:  12975 
public computational chemistry database (PCCDB) project, http://pccdb.org 
 
 30 29  0  0  0  0  0  0  0  0999 V2000 
    3.7922   -0.7258   -2.0137 C   0  0  0  0  0  0  0  0  0  0  0  0 
    4.0982   -5.6695    3.8904 C   0  0  0  0  0  0  0  0  0  0  0  0 
    5.1810   -0.9007   -1.3856 C   0  0  0  0  0  0  0  0  0  0  0  0 
    3.8344   -5.8186    2.3886 C   0  0  0  0  0  0  0  0  0  0  0  0 
    5.3788   -2.2236   -0.6263 C   0  0  0  0  0  0  0  0  0  0  0  0 
    4.9048   -5.1411    1.5235 C   0  0  0  0  0  0  0  0  0  0  0  0 
    5.3846   -3.4601   -1.5388 C   0  0  0  0  0  0  0  0  0  0  0  0 
    4.6352   -5.3166    0.0225 C   0  0  0  0  0  0  0  0  0  0  0  0 
    6.8160   -5.4010   -1.0444 C   0  0  0  0  0  0  0  0  0  0  0  0 
    5.6531   -4.7170   -0.8467 N   0  0  0  0  0  0  0  0  0  0  0  0 
    7.1002   -6.4684   -0.5216 O   0  0  0  0  0  0  0  0  0  0  0  0 
    3.6984    0.2582   -2.4864 H   0  0  0  0  0  0  0  0  0  0  0  0 
    3.0035   -0.8059   -1.2552 H   0  0  0  0  0  0  0  0  0  0  0  0 
    3.5885   -1.4776   -2.7847 H   0  0  0  0  0  0  0  0  0  0  0  0 
    3.3227   -6.1673    4.4834 H   0  0  0  0  0  0  0  0  0  0  0  0 
    4.1186   -4.6136    4.1874 H   0  0  0  0  0  0  0  0  0  0  0  0 
    5.0640   -6.1095    4.1663 H   0  0  0  0  0  0  0  0  0  0  0  0 
    5.3618   -0.0730   -0.6879 H   0  0  0  0  0  0  0  0  0  0  0  0 
    5.9507   -0.8112   -2.1658 H   0  0  0  0  0  0  0  0  0  0  0  0 
    2.8463   -5.3996    2.1476 H   0  0  0  0  0  0  0  0  0  0  0  0 
    3.7847   -6.8859    2.1313 H   0  0  0  0  0  0  0  0  0  0  0  0 
    4.5904   -2.3288    0.1313 H   0  0  0  0  0  0  0  0  0  0  0  0 
    6.3320   -2.1967   -0.0829 H   0  0  0  0  0  0  0  0  0  0  0  0 
    5.8880   -5.5712    1.7460 H   0  0  0  0  0  0  0  0  0  0  0  0 
    4.9579   -4.0721    1.7702 H   0  0  0  0  0  0  0  0  0  0  0  0 
    6.1581   -3.3365   -2.3069 H   0  0  0  0  0  0  0  0  0  0  0  0 
    4.4272   -3.5506   -2.0684 H   0  0  0  0  0  0  0  0  0  0  0  0 
    3.6679   -4.8770   -0.2488 H   0  0  0  0  0  0  0  0  0  0  0  0 
    4.5943   -6.3866   -0.2095 H   0  0  0  0  0  0  0  0  0  0  0  0 
    7.4968   -4.8843   -1.7504 H   0  0  0  0  0  0  0  0  0  0  0  0 
  1  3  1  0  0  0  0 
  1 13  1  0  0  0  0 
  2 17  1  0  0  0  0 
  2 16  1  0  0  0  0 
  2 15  1  0  0  0  0 
  3 18  1  0  0  0  0 
  3  5  1  0  0  0  0 
  4  2  1  0  0  0  0 
  5 23  1  0  0  0  0 
  5 22  1  0  0  0  0 
  6 24  1  0  0  0  0 
  6 25  1  0  0  0  0 
  6  4  1  0  0  0  0 
  7 10  1  0  0  0  0 
  7  5  1  0  0  0  0 
  8  6  1  0  0  0  0 
  9 10  1  0  0  0  0 
  9 11  2  0  0  0  0 
 10  8  1  0  0  0  0 
 12  1  1  0  0  0  0 
 14  1  1  0  0  0  0 
 19  3  1  0  0  0  0 
 20  4  1  0  0  0  0 
 21  4  1  0  0  0  0 
 26  7  1  0  0  0  0 
 27  7  1  0  0  0  0 
 28  8  1  0  0  0  0 
 29  8  1  0  0  0  0 
 30  9  1  0  0  0  0 
M  END 
>  <HBA> 
2 
 
>  <HBD> 
0 
 
>  <TPSA> 
20.31 
 
>  <cid> 
12975 
 
>  <dipole> 
3.96 
 
>  <excitation_energy_1> 
5.563 
 
>  <excitation_energy_2> 
5.917 
 
>  <excitation_energy_3> 
6.178 
 
>  <excitation_energy_4> 
6.296 
 
>  <homo_energy> 
-6.403 
 
>  <homo_lumo_gap> 
7.312 
 
>  <logP> 
2.681 
 
>  <lumo_energy> 
0.909 
 
>  <melting_point> 
-4.53 
 
>  <molecular_refractivity> 
48.86 
 
>  <oscillator_strength_1> 
0.0014 
 
>  <oscillator_strength_2> 
0.0268 
 
>  <oscillator_strength_3> 
0.0199 
 
>  <oscillator_strength_4> 
0.0136 
 
>  <open_babel_can_smiles> 
CCCCN(C=O)CCCC 
 
>  <mulliken_charges> 
30 
1   -0.447297 
2   -0.44167 
3   -0.256503 
4   -0.2533 
5   -0.25287 
6   -0.257013 
7   -0.152376 
8   -0.14344 
9   0.344658 
10   -0.361589 
11   -0.478297 
12   0.149279 
13   0.144689 
14   0.146625 
15   0.142804 
16   0.140038 
17   0.148605 
18   0.141157 
19   0.134462 
20   0.126142 
21   0.140094 
22   0.140855 
23   0.142798 
24   0.167326 
25   0.130561 
26   0.149047 
27   0.150651 
28   0.135416 
29   0.170153 
30   0.098993 
 
>  <lowdin_charges> 
30 
1   -0.448964 
2   -0.442804 
3   -0.275036 
4   -0.270035 
5   -0.28804 
6   -0.282824 
7   -0.196929 
8   -0.195247 
9   0.035197 
10   -0.096663 
11   -0.307484 
12   0.15328 
13   0.148428 
14   0.147457 
15   0.151109 
16   0.144303 
17   0.149904 
18   0.148507 
19   0.141448 
20   0.135649 
21   0.141981 
22   0.144452 
23   0.148646 
24   0.158302 
25   0.136833 
26   0.150737 
27   0.144862 
28   0.143711 
29   0.160386 
30   0.118835 
 
$$$$ 
 
