PCCDB-ID:  22538 
public computational chemistry database (PCCDB) project, http://pccdb.org 
 
 25 24  0  0  1  0  0  0  0  0999 V2000 
    1.2321   -0.5414    0.4351 C   0  0  0  0  0  0  0  0  0  0  0  0 
    3.6357    3.9001   -1.8902 C   0  0  0  0  0  0  0  0  0  0  0  0 
    2.6658   -0.0949    0.1305 C   0  0  0  0  0  0  0  0  0  0  0  0 
    2.7403    1.0469   -0.8919 C   0  0  0  0  0  0  0  0  0  0  0  0 
    4.1774    1.4934   -1.1946 C   0  0  0  0  0  0  0  0  0  0  0  0 
    5.7923    2.7976   -2.6335 C   0  0  0  0  0  0  0  0  0  0  0  0 
    4.3096    2.5777   -2.2814 C   0  0  2  0  0  0  0  0  0  0  0  0 
    5.9456    3.6949   -3.7862 N   0  0  0  0  0  0  0  0  0  0  0  0 
    1.2130   -1.3567    1.1674 H   0  0  0  0  0  0  0  0  0  0  0  0 
    0.7261   -0.8960   -0.4715 H   0  0  0  0  0  0  0  0  0  0  0  0 
    0.6375    0.2858    0.8421 H   0  0  0  0  0  0  0  0  0  0  0  0 
    2.5499    3.7926   -1.7944 H   0  0  0  0  0  0  0  0  0  0  0  0 
    3.8432    4.6656   -2.6428 H   0  0  0  0  0  0  0  0  0  0  0  0 
    4.0223    4.2605   -0.9269 H   0  0  0  0  0  0  0  0  0  0  0  0 
    3.2452   -0.9525   -0.2407 H   0  0  0  0  0  0  0  0  0  0  0  0 
    3.1559    0.2212    1.0625 H   0  0  0  0  0  0  0  0  0  0  0  0 
    2.1526    1.8971   -0.5199 H   0  0  0  0  0  0  0  0  0  0  0  0 
    2.2555    0.7268   -1.8268 H   0  0  0  0  0  0  0  0  0  0  0  0 
    4.7598    0.6112   -1.5003 H   0  0  0  0  0  0  0  0  0  0  0  0 
    4.6455    1.8585   -0.2671 H   0  0  0  0  0  0  0  0  0  0  0  0 
    6.2733    1.8121   -2.7756 H   0  0  0  0  0  0  0  0  0  0  0  0 
    6.2965    3.2699   -1.7791 H   0  0  0  0  0  0  0  0  0  0  0  0 
    3.8146    2.1981   -3.1918 H   0  0  0  0  0  0  0  0  0  0  0  0 
    5.6288    3.2192   -4.6307 H   0  0  0  0  0  0  0  0  0  0  0  0 
    6.9317    3.9024   -3.9338 H   0  0  0  0  0  0  0  0  0  0  0  0 
  1 11  1  0  0  0  0 
  1  9  1  0  0  0  0 
  2 12  1  0  0  0  0 
  2 14  1  0  0  0  0 
  3  1  1  0  0  0  0 
  3 16  1  0  0  0  0 
  4 17  1  0  0  0  0 
  4  3  1  0  0  0  0 
  5  4  1  0  0  0  0 
  5 20  1  0  0  0  0 
  6  7  1  0  0  0  0 
  6 22  1  0  0  0  0 
  7 23  1  6  0  0  0 
  7  2  1  0  0  0  0 
  7  5  1  0  0  0  0 
  8  6  1  0  0  0  0 
 10  1  1  0  0  0  0 
 13  2  1  0  0  0  0 
 15  3  1  0  0  0  0 
 18  4  1  0  0  0  0 
 19  5  1  0  0  0  0 
 21  6  1  0  0  0  0 
 24  8  1  0  0  0  0 
 25  8  1  0  0  0  0 
M  END 
>  <HBA> 
1 
 
>  <HBD> 
1 
 
>  <TPSA> 
26.02 
 
>  <cid> 
22538 
 
>  <dipole> 
1.41 
 
>  <excitation_energy_1> 
5.544 
 
>  <excitation_energy_2> 
6.342 
 
>  <excitation_energy_3> 
6.535 
 
>  <excitation_energy_4> 
6.629 
 
>  <homo_energy> 
-6.234 
 
>  <homo_lumo_gap> 
8.466 
 
>  <logP> 
2.472 
 
>  <lumo_energy> 
2.231 
 
>  <melting_point> 
27.02 
 
>  <molecular_refractivity> 
38.47 
 
>  <oscillator_strength_1> 
0.0096 
 
>  <oscillator_strength_2> 
0.0052 
 
>  <oscillator_strength_3> 
0.0191 
 
>  <oscillator_strength_4> 
0.0109 
 
>  <open_babel_can_smiles> 
CCCC[C@H](CN)C 
 
>  <mulliken_charges> 
25 
1   -0.441469 
2   -0.448457 
3   -0.246944 
4   -0.250433 
5   -0.254707 
6   -0.136309 
7   -0.067178 
8   -0.71689 
9   0.140723 
10   0.140556 
11   0.141318 
12   0.137093 
13   0.17153 
14   0.12957 
15   0.128497 
16   0.129975 
17   0.134109 
18   0.124459 
19   0.121269 
20   0.123799 
21   0.10906 
22   0.13346 
23   0.109627 
24   0.291344 
25   0.295998 
 
>  <lowdin_charges> 
25 
1   -0.44654 
2   -0.448765 
3   -0.272883 
4   -0.276775 
5   -0.27642 
6   -0.207654 
7   -0.12712 
8   -0.555676 
9   0.149178 
10   0.146304 
11   0.147115 
12   0.143512 
13   0.164509 
14   0.14154 
15   0.138392 
16   0.138878 
17   0.141467 
18   0.136582 
19   0.136787 
20   0.136829 
21   0.116248 
22   0.140111 
23   0.130081 
24   0.250982 
25   0.25332 
 
$$$$ 
 
