PCCDB-ID:  7959 
public computational chemistry database (PCCDB) project, http://pccdb.org 
 
 26 25  0  0  1  0  0  0  0  0999 V2000 
    1.0888    0.0447    1.3674 C   0  0  0  0  0  0  0  0  0  0  0  0 
    2.9364   -1.1576    2.6016 C   0  0  0  0  0  0  0  0  0  0  0  0 
    5.5027   -0.4000   -1.0730 C   0  0  0  0  0  0  0  0  0  0  0  0 
    6.6012    2.6972    1.8860 C   0  0  0  0  0  0  0  0  0  0  0  0 
    3.3288   -0.2364    0.2461 C   0  0  0  0  0  0  0  0  0  0  0  0 
    2.6052   -0.0464    1.5934 C   0  0  0  0  0  0  0  0  0  0  0  0 
    4.8555   -0.1841    0.2920 C   0  0  2  0  0  0  0  0  0  0  0  0 
    6.3866    1.2665    1.4454 C   0  0  0  0  0  0  0  0  0  0  0  0 
    7.1531    0.3507    1.6545 O   0  0  0  0  0  0  0  0  0  0  0  0 
    5.2130    1.1428    0.7841 O   0  0  0  0  0  0  0  0  0  0  0  0 
    0.5579    0.2182    2.3107 H   0  0  0  0  0  0  0  0  0  0  0  0 
    0.6984   -0.8861    0.9344 H   0  0  0  0  0  0  0  0  0  0  0  0 
    0.8338    0.8625    0.6829 H   0  0  0  0  0  0  0  0  0  0  0  0 
    2.3867   -1.0087    3.5383 H   0  0  0  0  0  0  0  0  0  0  0  0 
    4.0028   -1.1892    2.8503 H   0  0  0  0  0  0  0  0  0  0  0  0 
    2.6548   -2.1429    2.2064 H   0  0  0  0  0  0  0  0  0  0  0  0 
    5.2385   -1.3884   -1.4661 H   0  0  0  0  0  0  0  0  0  0  0  0 
    6.5920   -0.3463   -0.9926 H   0  0  0  0  0  0  0  0  0  0  0  0 
    5.1609    0.3571   -1.7877 H   0  0  0  0  0  0  0  0  0  0  0  0 
    5.7815    3.0189    2.5370 H   0  0  0  0  0  0  0  0  0  0  0  0 
    6.6066    3.3627    1.0165 H   0  0  0  0  0  0  0  0  0  0  0  0 
    7.5501    2.7745    2.4179 H   0  0  0  0  0  0  0  0  0  0  0  0 
    2.9816    0.5300   -0.4608 H   0  0  0  0  0  0  0  0  0  0  0  0 
    3.0439   -1.2082   -0.1838 H   0  0  0  0  0  0  0  0  0  0  0  0 
    2.9424    0.9100    2.0160 H   0  0  0  0  0  0  0  0  0  0  0  0 
    5.2558   -0.9128    1.0016 H   0  0  0  0  0  0  0  0  0  0  0  0 
  1  6  1  0  0  0  0 
  1 11  1  0  0  0  0 
  2 15  1  0  0  0  0 
  2 14  1  0  0  0  0 
  3 18  1  0  0  0  0 
  3  7  1  0  0  0  0 
  4 22  1  0  0  0  0 
  4 20  1  0  0  0  0 
  5  7  1  0  0  0  0 
  5  6  1  0  0  0  0 
  6 25  1  0  0  0  0 
  6  2  1  0  0  0  0 
  7 10  1  0  0  0  0 
  7 26  1  1  0  0  0 
  8  9  2  0  0  0  0 
  8  4  1  0  0  0  0 
 10  8  1  0  0  0  0 
 12  1  1  0  0  0  0 
 13  1  1  0  0  0  0 
 16  2  1  0  0  0  0 
 17  3  1  0  0  0  0 
 19  3  1  0  0  0  0 
 21  4  1  0  0  0  0 
 23  5  1  0  0  0  0 
 24  5  1  0  0  0  0 
M  END 
>  <HBA> 
2 
 
>  <HBD> 
0 
 
>  <TPSA> 
26.3 
 
>  <cid> 
7959 
 
>  <dipole> 
1.89 
 
>  <excitation_energy_1> 
5.795 
 
>  <excitation_energy_2> 
6.931 
 
>  <excitation_energy_3> 
7.412 
 
>  <excitation_energy_4> 
7.489 
 
>  <homo_energy> 
-7.236 
 
>  <homo_lumo_gap> 
7.69 
 
>  <logP> 
1.984 
 
>  <lumo_energy> 
0.454 
 
>  <melting_point> 
-15.45 
 
>  <molecular_refractivity> 
41.85 
 
>  <oscillator_strength_1> 
0.0011 
 
>  <oscillator_strength_2> 
0.0344 
 
>  <oscillator_strength_3> 
0.0241 
 
>  <oscillator_strength_4> 
0.0054 
 
>  <open_babel_can_smiles> 
CC(C[C@H](OC(=O)C)C)C 
 
>  <mulliken_charges> 
26 
1   -0.443687 
2   -0.453442 
3   -0.462335 
4   -0.524107 
5   -0.263379 
6   -0.069824 
7   0.120204 
8   0.606928 
9   -0.472262 
10   -0.466044 
11   0.141405 
12   0.137933 
13   0.140826 
14   0.142581 
15   0.152969 
16   0.137422 
17   0.147769 
18   0.170782 
19   0.149549 
20   0.179577 
21   0.179977 
22   0.181212 
23   0.135998 
24   0.131194 
25   0.135024 
26   0.163733 
 
>  <lowdin_charges> 
26 
1   -0.444764 
2   -0.446575 
3   -0.451304 
4   -0.466757 
5   -0.282594 
6   -0.122496 
7   0.005343 
8   0.20202 
9   -0.270947 
10   -0.202303 
11   0.148836 
12   0.145048 
13   0.148521 
14   0.150085 
15   0.150314 
16   0.144302 
17   0.1563 
18   0.163044 
19   0.153825 
20   0.177072 
21   0.177027 
22   0.174722 
23   0.14783 
24   0.146051 
25   0.141582 
26   0.15582 
 
$$$$ 
 
