PCCDB-ID:  18521 
public computational chemistry database (PCCDB) project, http://pccdb.org 
 
 21 21  0  0  0  0  0  0  0  0999 V2000 
    0.9731   -0.0176    0.0501 C   0  0  0  0  0  0  0  0  0  0  0  0 
    7.4923    1.1846   -1.2662 C   0  0  0  0  0  0  0  0  0  0  0  0 
    3.2123   -0.9193   -0.7101 C   0  0  0  0  0  0  0  0  0  0  0  0 
    3.1884    0.8998    0.8709 C   0  0  0  0  0  0  0  0  0  0  0  0 
    4.6048   -0.9128   -0.7120 C   0  0  0  0  0  0  0  0  0  0  0  0 
    4.5825    0.9218    0.8805 C   0  0  0  0  0  0  0  0  0  0  0  0 
    2.4830   -0.0127    0.0746 C   0  0  0  0  0  0  0  0  0  0  0  0 
    5.2809    0.0171    0.0808 C   0  0  0  0  0  0  0  0  0  0  0  0 
    7.5265    0.6651    1.3344 O   0  0  0  0  0  0  0  0  0  0  0  0 
    7.5520   -1.2925   -0.3217 O   0  0  0  0  0  0  0  0  0  0  0  0 
    7.0792    0.0426    0.0782 S   0  0  0  0  0  0  0  0  0  0  0  0 
    0.5767   -1.0388    0.0463 H   0  0  0  0  0  0  0  0  0  0  0  0 
    0.5922    0.4801   -0.8514 H   0  0  0  0  0  0  0  0  0  0  0  0 
    0.5559    0.5059    0.9157 H   0  0  0  0  0  0  0  0  0  0  0  0 
    7.0717    2.1679   -1.0469 H   0  0  0  0  0  0  0  0  0  0  0  0 
    7.1042    0.7894   -2.2069 H   0  0  0  0  0  0  0  0  0  0  0  0 
    8.5836    1.2376   -1.2986 H   0  0  0  0  0  0  0  0  0  0  0  0 
    2.6814   -1.6478   -1.3183 H   0  0  0  0  0  0  0  0  0  0  0  0 
    2.6397    1.5971    1.4991 H   0  0  0  0  0  0  0  0  0  0  0  0 
    5.1666   -1.6330   -1.2983 H   0  0  0  0  0  0  0  0  0  0  0  0 
    5.1265    1.6133    1.5160 H   0  0  0  0  0  0  0  0  0  0  0  0 
  1  7  1  0  0  0  0 
  1 14  1  0  0  0  0 
  2 15  1  0  0  0  0 
  2 11  1  0  0  0  0 
  3  7  1  0  0  0  0 
  4  6  1  0  0  0  0 
  4 19  1  0  0  0  0 
  5  3  2  0  0  0  0 
  5  8  1  0  0  0  0 
  6 21  1  0  0  0  0 
  7  4  2  0  0  0  0 
  8  6  2  0  0  0  0 
 10 11  2  0  0  0  0 
 11  8  1  0  0  0  0 
 11  9  2  0  0  0  0 
 12  1  1  0  0  0  0 
 13  1  1  0  0  0  0 
 16  2  1  0  0  0  0 
 17  2  1  0  0  0  0 
 18  3  1  0  0  0  0 
 20  5  1  0  0  0  0 
M  END 
>  <HBA> 
2 
 
>  <HBD> 
0 
 
>  <TPSA> 
42.52 
 
>  <cid> 
18521 
 
>  <dipole> 
5.58 
 
>  <excitation_energy_1> 
5.2 
 
>  <excitation_energy_2> 
5.602 
 
>  <excitation_energy_3> 
5.805 
 
>  <excitation_energy_4> 
6.096 
 
>  <homo_energy> 
-7.197 
 
>  <homo_lumo_gap> 
6.191 
 
>  <logP> 
2.479 
 
>  <lumo_energy> 
-1.007 
 
>  <melting_point> 
41.64 
 
>  <molecular_refractivity> 
44.5 
 
>  <oscillator_strength_1> 
0.0046 
 
>  <oscillator_strength_2> 
0.0937 
 
>  <oscillator_strength_3> 
0.06 
 
>  <oscillator_strength_4> 
0.0007 
 
>  <open_babel_can_smiles> 
Cc1ccc(cc1)S(=O)(=O)C 
 
>  <mulliken_charges> 
21 
1   -0.531334 
2   -0.620381 
3   -0.172455 
4   -0.176245 
5   -0.141359 
6   -0.140329 
7   0.180873 
8   -0.162752 
9   -0.540897 
10   -0.540947 
11   1.096035 
12   0.168041 
13   0.172711 
14   0.163494 
15   0.198844 
16   0.198826 
17   0.217273 
18   0.137534 
19   0.137677 
20   0.177361 
21   0.17803 
 
>  <lowdin_charges> 
21 
1   -0.442873 
2   -0.594894 
3   -0.161545 
4   -0.16346 
5   -0.138699 
6   -0.13835 
7   0.019438 
8   -0.200689 
9   -0.602873 
10   -0.602469 
11   1.269013 
12   0.163831 
13   0.167358 
14   0.162394 
15   0.187272 
16   0.187702 
17   0.19551 
18   0.16349 
19   0.163535 
20   0.182913 
21   0.183397 
 
$$$$ 
 
