PCCDB-ID:  34834 
public computational chemistry database (PCCDB) project, http://pccdb.org 
 
 33 33  0  0  0  0  0  0  0  0999 V2000 
   -0.5118    0.4760    0.9713 C   0  0  0  0  0  0  0  0  0  0  0  0 
    1.4953    1.7516    1.6638 C   0  0  0  0  0  0  0  0  0  0  0  0 
    0.7677   -0.1116    3.0928 C   0  0  0  0  0  0  0  0  0  0  0  0 
    1.6065   -3.4738    2.6843 C   0  0  0  0  0  0  0  0  0  0  0  0 
   -0.5364   -2.9783    1.4030 C   0  0  0  0  0  0  0  0  0  0  0  0 
    1.1185   -4.5629    0.5138 C   0  0  0  0  0  0  0  0  0  0  0  0 
    2.7074   -0.0399   -0.0692 C   0  0  0  0  0  0  0  0  0  0  0  0 
    2.6688   -2.4542   -0.3992 C   0  0  0  0  0  0  0  0  0  0  0  0 
    1.7699   -0.6201    0.7530 C   0  0  0  0  0  0  0  0  0  0  0  0 
    1.7533   -2.0880    0.5595 C   0  0  0  0  0  0  0  0  0  0  0  0 
    0.8896    0.3249    1.6159 C   0  0  0  0  0  0  0  0  0  0  0  0 
    0.9844   -3.2253    1.2868 C   0  0  0  0  0  0  0  0  0  0  0  0 
    3.5626   -1.1460   -1.0750 S   0  0  0  0  0  0  0  0  0  0  0  0 
   -1.1328    1.1545    1.5702 H   0  0  0  0  0  0  0  0  0  0  0  0 
   -1.0439   -0.4714    0.8795 H   0  0  0  0  0  0  0  0  0  0  0  0 
   -0.4196    0.9015   -0.0341 H   0  0  0  0  0  0  0  0  0  0  0  0 
    0.8846    2.3779    2.3233 H   0  0  0  0  0  0  0  0  0  0  0  0 
    1.5021    2.2360    0.6820 H   0  0  0  0  0  0  0  0  0  0  0  0 
    2.5176    1.7475    2.0578 H   0  0  0  0  0  0  0  0  0  0  0  0 
    0.2247    0.6554    3.6578 H   0  0  0  0  0  0  0  0  0  0  0  0 
    1.7579   -0.2222    3.5491 H   0  0  0  0  0  0  0  0  0  0  0  0 
    0.2272   -1.0474    3.2255 H   0  0  0  0  0  0  0  0  0  0  0  0 
    1.0832   -4.2947    3.1911 H   0  0  0  0  0  0  0  0  0  0  0  0 
    1.5627   -2.5983    3.3331 H   0  0  0  0  0  0  0  0  0  0  0  0 
    2.6601   -3.7568    2.5825 H   0  0  0  0  0  0  0  0  0  0  0  0 
   -1.0187   -3.8635    1.8345 H   0  0  0  0  0  0  0  0  0  0  0  0 
   -0.9801   -2.8065    0.4156 H   0  0  0  0  0  0  0  0  0  0  0  0 
   -0.7925   -2.1334    2.0404 H   0  0  0  0  0  0  0  0  0  0  0  0 
    0.5220   -5.3301    1.0193 H   0  0  0  0  0  0  0  0  0  0  0  0 
    2.1499   -4.9292    0.4876 H   0  0  0  0  0  0  0  0  0  0  0  0 
    0.7529   -4.4777   -0.5154 H   0  0  0  0  0  0  0  0  0  0  0  0 
    2.9441    1.0083   -0.1545 H   0  0  0  0  0  0  0  0  0  0  0  0 
    2.8865   -3.4501   -0.7496 H   0  0  0  0  0  0  0  0  0  0  0  0 
  1 14  1  0  0  0  0 
  1 11  1  0  0  0  0 
  2 19  1  0  0  0  0 
  2 17  1  0  0  0  0 
  3 22  1  0  0  0  0 
  3 21  1  0  0  0  0 
  3 20  1  0  0  0  0 
  4 23  1  0  0  0  0 
  4 24  1  0  0  0  0 
  5 26  1  0  0  0  0 
  5 28  1  0  0  0  0 
  6 29  1  0  0  0  0 
  6 12  1  0  0  0  0 
  7  9  2  0  0  0  0 
  8 10  2  0  0  0  0 
  9 11  1  0  0  0  0 
 10  9  1  0  0  0  0 
 10 12  1  0  0  0  0 
 11  2  1  0  0  0  0 
 11  3  1  0  0  0  0 
 12  5  1  0  0  0  0 
 12  4  1  0  0  0  0 
 13  8  1  0  0  0  0 
 13  7  1  0  0  0  0 
 15  1  1  0  0  0  0 
 16  1  1  0  0  0  0 
 18  2  1  0  0  0  0 
 25  4  1  0  0  0  0 
 27  5  1  0  0  0  0 
 30  6  1  0  0  0  0 
 31  6  1  0  0  0  0 
 32  7  1  0  0  0  0 
 33  8  1  0  0  0  0 
M  END 
>  <HBA> 
1 
 
>  <HBD> 
0 
 
>  <TPSA> 
28.24 
 
>  <cid> 
34834 
 
>  <dipole> 
1.07 
 
>  <excitation_energy_1> 
5.543 
 
>  <excitation_energy_2> 
5.561 
 
>  <excitation_energy_3> 
5.603 
 
>  <excitation_energy_4> 
5.645 
 
>  <homo_energy> 
-6.038 
 
>  <homo_lumo_gap> 
6.074 
 
>  <logP> 
4.343 
 
>  <lumo_energy> 
0.035 
 
>  <melting_point> 
21.13 
 
>  <molecular_refractivity> 
62.86 
 
>  <oscillator_strength_1> 
0.0137 
 
>  <oscillator_strength_2> 
0.0411 
 
>  <oscillator_strength_3> 
0.0539 
 
>  <oscillator_strength_4> 
0.0496 
 
>  <open_babel_can_smiles> 
CC(c1cscc1C(C)(C)C)(C)C 
 
>  <mulliken_charges> 
33 
1   -0.444447 
2   -0.460126 
3   -0.458091 
4   -0.443856 
5   -0.458224 
6   -0.459954 
7   -0.398295 
8   -0.397984 
9   0.128524 
10   0.128703 
11   0.032011 
12   0.031593 
13   0.243254 
14   0.135047 
15   0.153284 
16   0.145698 
17   0.1408 
18   0.143964 
19   0.148847 
20   0.13792 
21   0.149501 
22   0.155709 
23   0.135048 
24   0.153055 
25   0.145805 
26   0.137895 
27   0.149515 
28   0.155787 
29   0.140792 
30   0.143916 
31   0.148951 
32   0.167734 
33   0.167625 
 
>  <lowdin_charges> 
33 
1   -0.446296 
2   -0.442869 
3   -0.448527 
4   -0.445454 
5   -0.448914 
6   -0.441789 
7   -0.342037 
8   -0.343295 
9   -0.033121 
10   -0.033664 
11   0.02433 
12   0.024607 
13   0.314021 
14   0.146775 
15   0.155255 
16   0.150855 
17   0.150681 
18   0.146972 
19   0.150118 
20   0.149138 
21   0.151594 
22   0.151841 
23   0.146388 
24   0.155442 
25   0.15025 
26   0.148583 
27   0.151564 
28   0.152582 
29   0.150432 
30   0.146315 
31   0.150076 
32   0.178671 
33   0.179477 
 
$$$$ 
 
