PCCDB-ID:  13886 
public computational chemistry database (PCCDB) project, http://pccdb.org 
 
 21 22  0  0  0  0  0  0  0  0999 V2000 
   -1.4433   -0.0781    0.0909 C   0  0  0  0  0  0  0  0  0  0  0  0 
   -0.8086    1.1603   -0.0196 C   0  0  0  0  0  0  0  0  0  0  0  0 
   -0.6774   -1.2453    0.1045 C   0  0  0  0  0  0  0  0  0  0  0  0 
    4.9729   -0.6697   -0.9978 C   0  0  0  0  0  0  0  0  0  0  0  0 
    0.5804    1.2314   -0.1169 C   0  0  0  0  0  0  0  0  0  0  0  0 
    0.7115   -1.1742    0.0097 C   0  0  0  0  0  0  0  0  0  0  0  0 
    3.5873   -0.7910   -0.9409 C   0  0  0  0  0  0  0  0  0  0  0  0 
    5.5796    0.3867   -0.3177 C   0  0  0  0  0  0  0  0  0  0  0  0 
    3.5677    1.1528    0.4487 C   0  0  0  0  0  0  0  0  0  0  0  0 
    1.3640    0.0652   -0.1029 C   0  0  0  0  0  0  0  0  0  0  0  0 
    2.8417    0.1400   -0.2031 C   0  0  0  0  0  0  0  0  0  0  0  0 
    4.8957    1.2876    0.3988 N   0  0  0  0  0  0  0  0  0  0  0  0 
   -2.5259   -0.1334    0.1658 H   0  0  0  0  0  0  0  0  0  0  0  0 
   -1.3960    2.0744   -0.0385 H   0  0  0  0  0  0  0  0  0  0  0  0 
   -1.1612   -2.2140    0.1973 H   0  0  0  0  0  0  0  0  0  0  0  0 
    5.5728   -1.3737   -1.5674 H   0  0  0  0  0  0  0  0  0  0  0  0 
    1.0624    2.1984   -0.2306 H   0  0  0  0  0  0  0  0  0  0  0  0 
    1.3001   -2.0868    0.0492 H   0  0  0  0  0  0  0  0  0  0  0  0 
    3.0814   -1.5862   -1.4818 H   0  0  0  0  0  0  0  0  0  0  0  0 
    6.6600    0.5179   -0.3482 H   0  0  0  0  0  0  0  0  0  0  0  0 
    3.0403    1.8826    1.0610 H   0  0  0  0  0  0  0  0  0  0  0  0 
  1  3  1  0  0  0  0 
  1 13  1  0  0  0  0 
  2  1  2  0  0  0  0 
  3 15  1  0  0  0  0 
  4  7  2  0  0  0  0 
  4  8  1  0  0  0  0 
  5 10  2  0  0  0  0 
  5  2  1  0  0  0  0 
  6 18  1  0  0  0  0 
  6  3  2  0  0  0  0 
  7 11  1  0  0  0  0 
  8 12  2  0  0  0  0 
  9 21  1  0  0  0  0 
 10  6  1  0  0  0  0 
 11 10  1  0  0  0  0 
 11  9  2  0  0  0  0 
 12  9  1  0  0  0  0 
 14  2  1  0  0  0  0 
 16  4  1  0  0  0  0 
 17  5  1  0  0  0  0 
 19  7  1  0  0  0  0 
 20  8  1  0  0  0  0 
M  END 
>  <HBA> 
1 
 
>  <HBD> 
0 
 
>  <TPSA> 
12.89 
 
>  <cid> 
13886 
 
>  <dipole> 
2.31 
 
>  <excitation_energy_1> 
4.66 
 
>  <excitation_energy_2> 
4.828 
 
>  <excitation_energy_3> 
4.899 
 
>  <excitation_energy_4> 
4.947 
 
>  <homo_energy> 
-6.327 
 
>  <homo_lumo_gap> 
5.35 
 
>  <logP> 
2.749 
 
>  <lumo_energy> 
-0.977 
 
>  <melting_point> 
56.09 
 
>  <molecular_refractivity> 
49.67 
 
>  <oscillator_strength_1> 
0.0905 
 
>  <oscillator_strength_2> 
0.0581 
 
>  <oscillator_strength_3> 
0.1868 
 
>  <oscillator_strength_4> 
0.0162 
 
>  <open_babel_can_smiles> 
c1ccc(cc1)c1cccnc1 
 
>  <mulliken_charges> 
21 
1   -0.125273 
2   -0.133725 
3   -0.133045 
4   -0.14433 
5   -0.172243 
6   -0.17268 
7   -0.140252 
8   0.040473 
9   -0.001397 
10   0.086326 
11   0.067085 
12   -0.411604 
13   0.132686 
14   0.134235 
15   0.13309 
16   0.13831 
17   0.137997 
18   0.132533 
19   0.1451 
20   0.142059 
21   0.144654 
 
>  <lowdin_charges> 
21 
1   -0.152154 
2   -0.153319 
3   -0.153161 
4   -0.174813 
5   -0.159585 
6   -0.161691 
7   -0.135968 
8   -0.089459 
9   -0.097442 
10   -0.002687 
11   -0.01902 
12   -0.144791 
13   0.157482 
14   0.16041 
15   0.159303 
16   0.165968 
17   0.161666 
18   0.159526 
19   0.165296 
20   0.154803 
21   0.159636 
 
$$$$ 
 
