PCCDB-ID:  21827 
public computational chemistry database (PCCDB) project, http://pccdb.org 
 
 16 16  0  0  0  0  0  0  0  0999 V2000 
    1.3262    2.8402   -0.9962 C   0  0  0  0  0  0  0  0  0  0  0  0 
    2.6865    2.8921   -0.3199 C   0  0  0  0  0  0  0  0  0  0  0  0 
    5.7729    2.0653   -0.6303 C   0  0  0  0  0  0  0  0  0  0  0  0 
    5.5339    0.5766   -0.4567 C   0  0  0  0  0  0  0  0  0  0  0  0 
    4.5695    1.5576    0.1274 C   0  0  0  0  0  0  0  0  0  0  0  0 
    3.3082    1.6205   -0.4693 O   0  0  0  0  0  0  0  0  0  0  0  0 
    0.8113    3.8018   -0.8941 H   0  0  0  0  0  0  0  0  0  0  0  0 
    0.7025    2.0616   -0.5451 H   0  0  0  0  0  0  0  0  0  0  0  0 
    1.4354    2.6158   -2.0623 H   0  0  0  0  0  0  0  0  0  0  0  0 
    2.5774    3.1335    0.7507 H   0  0  0  0  0  0  0  0  0  0  0  0 
    3.3189    3.6753   -0.7669 H   0  0  0  0  0  0  0  0  0  0  0  0 
    5.5941    2.4801   -1.6185 H   0  0  0  0  0  0  0  0  0  0  0  0 
    6.5824    2.5361   -0.0783 H   0  0  0  0  0  0  0  0  0  0  0  0 
    6.1747    0.0137    0.2163 H   0  0  0  0  0  0  0  0  0  0  0  0 
    5.1922    0.0248   -1.3275 H   0  0  0  0  0  0  0  0  0  0  0  0 
    4.5597    1.6910    1.2123 H   0  0  0  0  0  0  0  0  0  0  0  0 
  1  7  1  0  0  0  0 
  1  8  1  0  0  0  0 
  1  2  1  0  0  0  0 
  2 10  1  0  0  0  0 
  3  4  1  0  0  0  0 
  3 13  1  0  0  0  0 
  3  5  1  0  0  0  0 
  4  5  1  0  0  0  0 
  4 14  1  0  0  0  0 
  5 16  1  0  0  0  0 
  6  2  1  0  0  0  0 
  6  5  1  0  0  0  0 
  9  1  1  0  0  0  0 
 11  2  1  0  0  0  0 
 12  3  1  0  0  0  0 
 15  4  1  0  0  0  0 
M  END 
>  <HBA> 
1 
 
>  <HBD> 
0 
 
>  <TPSA> 
9.23 
 
>  <cid> 
21827 
 
>  <dipole> 
1.09 
 
>  <excitation_energy_1> 
6.351 
 
>  <excitation_energy_2> 
6.653 
 
>  <excitation_energy_3> 
6.801 
 
>  <excitation_energy_4> 
6.833 
 
>  <homo_energy> 
-6.596 
 
>  <homo_lumo_gap> 
9.187 
 
>  <logP> 
1.185 
 
>  <lumo_energy> 
2.591 
 
>  <melting_point> 
-12.27 
 
>  <molecular_refractivity> 
25.12 
 
>  <oscillator_strength_1> 
0.0161 
 
>  <oscillator_strength_2> 
0.0168 
 
>  <oscillator_strength_3> 
0.0222 
 
>  <oscillator_strength_4> 
0.0085 
 
>  <open_babel_can_smiles> 
CCOC1CC1 
 
>  <mulliken_charges> 
16 
1   -0.454179 
2   -0.007101 
3   -0.333556 
4   -0.331274 
5   0.147899 
6   -0.473196 
7   0.142243 
8   0.158542 
9   0.156704 
10   0.118316 
11   0.123885 
12   0.158554 
13   0.148428 
14   0.151217 
15   0.166721 
16   0.126797 
 
>  <lowdin_charges> 
16 
1   -0.448412 
2   -0.122785 
3   -0.33613 
4   -0.319206 
5   -0.026238 
6   -0.254729 
7   0.153458 
8   0.158137 
9   0.154565 
10   0.123786 
11   0.129662 
12   0.163448 
13   0.159114 
14   0.16126 
15   0.169133 
16   0.134938 
 
$$$$ 
 
