PCCDB-ID:  47089 
public computational chemistry database (PCCDB) project, http://pccdb.org 
 
 31 33  0  0  0  0  0  0  0  0999 V2000 
    1.0772   -0.1137    0.0143 C   0  0  0  0  0  0  0  0  0  0  0  0 
    5.2777    3.0417   -0.4802 C   0  0  0  0  0  0  0  0  0  0  0  0 
    4.0193    3.4154    0.3194 C   0  0  0  0  0  0  0  0  0  0  0  0 
    5.7964    1.6435   -0.0941 C   0  0  0  0  0  0  0  0  0  0  0  0 
    2.8458    2.4559    0.0301 C   0  0  0  0  0  0  0  0  0  0  0  0 
    4.0375   -3.4933   -0.0498 C   0  0  0  0  0  0  0  0  0  0  0  0 
    3.0031   -2.5649   -0.0033 C   0  0  0  0  0  0  0  0  0  0  0  0 
    5.7153   -1.7325   -0.0872 C   0  0  0  0  0  0  0  0  0  0  0  0 
    5.3942   -3.0915   -0.0900 C   0  0  0  0  0  0  0  0  0  0  0  0 
    4.6612    0.6599   -0.0441 C   0  0  0  0  0  0  0  0  0  0  0  0 
    4.6872   -0.7770   -0.0485 C   0  0  0  0  0  0  0  0  0  0  0  0 
    3.3399    1.0404    0.0141 C   0  0  0  0  0  0  0  0  0  0  0  0 
    3.3345   -1.2086    0.0018 C   0  0  0  0  0  0  0  0  0  0  0  0 
    6.4030   -4.0734   -0.1982 N   0  0  0  0  0  0  0  0  0  0  0  0 
    2.5223   -0.0829    0.0512 N   0  0  0  0  0  0  0  0  0  0  0  0 
    0.6822    0.8775    0.2448 H   0  0  0  0  0  0  0  0  0  0  0  0 
    0.6926   -0.8162    0.7626 H   0  0  0  0  0  0  0  0  0  0  0  0 
    0.6996   -0.4174   -0.9718 H   0  0  0  0  0  0  0  0  0  0  0  0 
    6.0612    3.7923   -0.3199 H   0  0  0  0  0  0  0  0  0  0  0  0 
    5.0384    3.0555   -1.5528 H   0  0  0  0  0  0  0  0  0  0  0  0 
    3.7132    4.4439    0.0938 H   0  0  0  0  0  0  0  0  0  0  0  0 
    4.2535    3.3816    1.3923 H   0  0  0  0  0  0  0  0  0  0  0  0 
    6.3070    1.6990    0.8810 H   0  0  0  0  0  0  0  0  0  0  0  0 
    6.5609    1.3173   -0.8127 H   0  0  0  0  0  0  0  0  0  0  0  0 
    2.3841    2.7141   -0.9363 H   0  0  0  0  0  0  0  0  0  0  0  0 
    2.0614    2.5974    0.7868 H   0  0  0  0  0  0  0  0  0  0  0  0 
    3.8030   -4.5553   -0.0659 H   0  0  0  0  0  0  0  0  0  0  0  0 
    1.9700   -2.9006    0.0270 H   0  0  0  0  0  0  0  0  0  0  0  0 
    6.7575   -1.4207   -0.1209 H   0  0  0  0  0  0  0  0  0  0  0  0 
    6.1625   -4.9475    0.2562 H   0  0  0  0  0  0  0  0  0  0  0  0 
    7.3072   -3.7543    0.1316 H   0  0  0  0  0  0  0  0  0  0  0  0 
  1 15  1  0  0  0  0 
  1 16  1  0  0  0  0 
  1 17  1  0  0  0  0 
  2 19  1  0  0  0  0 
  2  4  1  0  0  0  0 
  2  3  1  0  0  0  0 
  3 22  1  0  0  0  0 
  4 10  1  0  0  0  0 
  4 23  1  0  0  0  0 
  5  3  1  0  0  0  0 
  5 26  1  0  0  0  0 
  6  7  2  0  0  0  0 
  7 13  1  0  0  0  0 
  7 28  1  0  0  0  0 
  8 11  1  0  0  0  0 
  9  8  2  0  0  0  0 
  9  6  1  0  0  0  0 
 10 12  2  0  0  0  0 
 11 10  1  0  0  0  0 
 11 13  2  0  0  0  0 
 12  5  1  0  0  0  0 
 12 15  1  0  0  0  0 
 13 15  1  0  0  0  0 
 14  9  1  0  0  0  0 
 14 31  1  0  0  0  0 
 14 30  1  0  0  0  0 
 18  1  1  0  0  0  0 
 20  2  1  0  0  0  0 
 21  3  1  0  0  0  0 
 24  4  1  0  0  0  0 
 25  5  1  0  0  0  0 
 27  6  1  0  0  0  0 
 29  8  1  0  0  0  0 
M  END 
>  <HBA> 
2 
 
>  <HBD> 
1 
 
>  <TPSA> 
30.95 
 
>  <cid> 
47089 
 
>  <dipole> 
1.89 
 
>  <excitation_energy_1> 
4.069 
 
>  <excitation_energy_2> 
4.237 
 
>  <excitation_energy_3> 
4.372 
 
>  <excitation_energy_4> 
4.432 
 
>  <homo_energy> 
-4.648 
 
>  <homo_lumo_gap> 
4.795 
 
>  <logP> 
3.22 
 
>  <lumo_energy> 
0.147 
 
>  <melting_point> 
131.9 
 
>  <molecular_refractivity> 
65.04 
 
>  <oscillator_strength_1> 
0.0539 
 
>  <oscillator_strength_2> 
0.0033 
 
>  <oscillator_strength_3> 
0.0016 
 
>  <oscillator_strength_4> 
0.1078 
 
>  <open_babel_can_smiles> 
Nc1ccc2c(c1)c1CCCCc1n2C 
 
>  <mulliken_charges> 
31 
1   -0.32495 
2   -0.2663 
3   -0.264846 
4   -0.333733 
5   -0.344574 
6   -0.194055 
7   -0.182642 
8   -0.272445 
9   0.297576 
10   0.026633 
11   0.066687 
12   0.295422 
13   0.306376 
14   -0.788771 
15   -0.57978 
16   0.166934 
17   0.166077 
18   0.16427 
19   0.12965 
20   0.137185 
21   0.13167 
22   0.14115 
23   0.13746 
24   0.139693 
25   0.148616 
26   0.143633 
27   0.108242 
28   0.118088 
29   0.106778 
30   0.309508 
31   0.310448 
 
>  <lowdin_charges> 
31 
1   -0.34722 
2   -0.272622 
3   -0.268561 
4   -0.270013 
5   -0.279485 
6   -0.202059 
7   -0.180175 
8   -0.213363 
9   0.043588 
10   -0.086382 
11   -0.021289 
12   0.009389 
13   0.008738 
14   -0.501423 
15   -0.040089 
16   0.163979 
17   0.158821 
18   0.152418 
19   0.144167 
20   0.140098 
21   0.143518 
22   0.142177 
23   0.142099 
24   0.149077 
25   0.148791 
26   0.150085 
27   0.148167 
28   0.153158 
29   0.147715 
30   0.268522 
31   0.268173 
 
$$$$ 
 
