PCCDB-ID:  49982 
public computational chemistry database (PCCDB) project, http://pccdb.org 
 
 19 18  0  0  0  0  0  0  0  0999 V2000 
    0.8316    0.5484   -0.0663 C   0  0  0  0  0  0  0  0  0  0  0  0 
    6.6122   -1.1807    0.9154 C   0  0  0  0  0  0  0  0  0  0  0  0 
    2.0876   -0.3089    0.1146 C   0  0  0  0  0  0  0  0  0  0  0  0 
    3.3386    0.4037   -0.4143 C   0  0  0  0  0  0  0  0  0  0  0  0 
    5.3747   -0.3115    0.8773 C   0  0  0  0  0  0  0  0  0  0  0  0 
    4.9366   -1.3102   -1.2267 N   0  0  0  0  0  0  0  0  0  0  0  0 
    4.5547   -0.4081   -0.2738 N   0  0  0  0  0  0  0  0  0  0  0  0 
    5.0576    0.4501    1.7693 O   0  0  0  0  0  0  0  0  0  0  0  0 
    4.1855   -1.3869   -2.1818 O   0  0  0  0  0  0  0  0  0  0  0  0 
   -0.0528    0.0299    0.3185 H   0  0  0  0  0  0  0  0  0  0  0  0 
    0.6518    0.7734   -1.1244 H   0  0  0  0  0  0  0  0  0  0  0  0 
    0.9188    1.5013    0.4694 H   0  0  0  0  0  0  0  0  0  0  0  0 
    7.2695   -0.9724    0.0666 H   0  0  0  0  0  0  0  0  0  0  0  0 
    6.3501   -2.2415    0.8642 H   0  0  0  0  0  0  0  0  0  0  0  0 
    7.1303   -0.9695    1.8517 H   0  0  0  0  0  0  0  0  0  0  0  0 
    1.9708   -1.2628   -0.4124 H   0  0  0  0  0  0  0  0  0  0  0  0 
    2.2364   -0.5389    1.1763 H   0  0  0  0  0  0  0  0  0  0  0  0 
    3.5205    1.3288    0.1352 H   0  0  0  0  0  0  0  0  0  0  0  0 
    3.2354    0.6249   -1.4795 H   0  0  0  0  0  0  0  0  0  0  0  0 
  1  3  1  0  0  0  0 
  1 10  1  0  0  0  0 
  1 12  1  0  0  0  0 
  2 15  1  0  0  0  0 
  3 17  1  0  0  0  0 
  4  7  1  0  0  0  0 
  4  3  1  0  0  0  0 
  4 18  1  0  0  0  0 
  5  2  1  0  0  0  0 
  5  8  2  0  0  0  0 
  6  7  1  0  0  0  0 
  7  5  1  0  0  0  0 
  9  6  1  0  0  0  0 
 11  1  1  0  0  0  0 
 13  2  1  0  0  0  0 
 14  2  1  0  0  0  0 
 16  3  1  0  0  0  0 
 19  4  1  0  0  0  0 
M  RAD  2   6   2   9   2 
M  END 
>  <HBA> 
4 
 
>  <HBD> 
0 
 
>  <TPSA> 
49.74 
 
>  <cid> 
49982 
 
>  <dipole> 
0.38 
 
>  <excitation_energy_1> 
2.924 
 
>  <excitation_energy_2> 
4.368 
 
>  <excitation_energy_3> 
5.446 
 
>  <excitation_energy_4> 
5.85 
 
>  <homo_energy> 
-6.778 
 
>  <homo_lumo_gap> 
4.697 
 
>  <logP> 
0.926 
 
>  <lumo_energy> 
-2.082 
 
>  <melting_point> 
17.18 
 
>  <molecular_refractivity> 
33.98 
 
>  <oscillator_strength_1> 
0.0009 
 
>  <oscillator_strength_2> 
0.0006 
 
>  <oscillator_strength_3> 
0.1966 
 
>  <oscillator_strength_4> 
0.0022 
 
>  <open_babel_can_smiles> 
CCCN(C(=O)C)[N][O] 
 
>  <mulliken_charges> 
19 
1   -0.449374 
2   -0.520431 
3   -0.26082 
4   -0.147623 
5   0.588924 
6   0.178429 
7   -0.297952 
8   -0.453765 
9   -0.33758 
10   0.153966 
11   0.150894 
12   0.151022 
13   0.190598 
14   0.191098 
15   0.185557 
16   0.157105 
17   0.156671 
18   0.185401 
19   0.177881 
 
>  <lowdin_charges> 
19 
1   -0.442365 
2   -0.467967 
3   -0.275563 
4   -0.214246 
5   0.183793 
6   0.072413 
7   -0.039235 
8   -0.246612 
9   -0.214893 
10   0.157577 
11   0.149967 
12   0.151133 
13   0.182926 
14   0.18155 
15   0.178135 
16   0.15238 
17   0.151127 
18   0.174083 
19   0.165799 
 
$$$$ 
 
