PCCDB-ID:  9237 
public computational chemistry database (PCCDB) project, http://pccdb.org 
 
 20 21  0  0  1  0  0  0  0  0999 V2000 
    0.7827    1.3522   -0.2924 C   0  0  0  0  0  0  0  0  0  0  0  0 
   -0.7826    1.3522   -0.2926 C   0  0  0  0  0  0  0  0  0  0  0  0 
    0.7822   -0.4228    1.3175 C   0  0  0  0  0  0  0  0  0  0  0  0 
    0.7828   -0.9293   -1.0247 C   0  0  0  0  0  0  0  0  0  0  0  0 
   -0.7828   -0.4229    1.3171 C   0  0  0  0  0  0  0  0  0  0  0  0 
   -0.7824   -0.9292   -1.0251 C   0  0  0  0  0  0  0  0  0  0  0  0 
    1.2907   -0.0003    0.0004 N   0  0  1  0  0  0  0  0  0  0  0  0 
   -1.2907   -0.0003   -0.0001 N   0  0  2  0  0  0  0  0  0  0  0  0 
    1.1857    2.0373    0.4633 H   0  0  0  0  0  0  0  0  0  0  0  0 
    1.1856    1.6633   -1.2639 H   0  0  0  0  0  0  0  0  0  0  0  0 
   -1.1852    1.6635   -1.2641 H   0  0  0  0  0  0  0  0  0  0  0  0 
   -1.1856    2.0372    0.4632 H   0  0  0  0  0  0  0  0  0  0  0  0 
    1.1853   -1.4197    1.5331 H   0  0  0  0  0  0  0  0  0  0  0  0 
    1.1847    0.2632    2.0726 H   0  0  0  0  0  0  0  0  0  0  0  0 
    1.1859   -0.6170   -1.9956 H   0  0  0  0  0  0  0  0  0  0  0  0 
    1.1855   -1.9263   -0.8089 H   0  0  0  0  0  0  0  0  0  0  0  0 
   -1.1857    0.2628    2.0722 H   0  0  0  0  0  0  0  0  0  0  0  0 
   -1.1858   -1.4200    1.5324 H   0  0  0  0  0  0  0  0  0  0  0  0 
   -1.1854   -1.9262   -0.8097 H   0  0  0  0  0  0  0  0  0  0  0  0 
   -1.1849   -0.6166   -1.9962 H   0  0  0  0  0  0  0  0  0  0  0  0 
  1  7  1  0  0  0  0 
  1  9  1  0  0  0  0 
  2  1  1  0  0  0  0 
  2  8  1  0  0  0  0 
  2 12  1  0  0  0  0 
  3 13  1  0  0  0  0 
  3 14  1  0  0  0  0 
  4 16  1  0  0  0  0 
  5  3  1  0  0  0  0 
  5 18  1  0  0  0  0 
  5 17  1  0  0  0  0 
  6  4  1  0  0  0  0 
  6 19  1  0  0  0  0 
  7  4  1  6  0  0  0 
  7  3  1  0  0  0  0 
  8  6  1  6  0  0  0 
  8  5  1  0  0  0  0 
 10  1  1  0  0  0  0 
 11  2  1  0  0  0  0 
 15  4  1  0  0  0  0 
 20  6  1  0  0  0  0 
M  END 
>  <HBA> 
2 
 
>  <HBD> 
0 
 
>  <TPSA> 
6.48 
 
>  <cid> 
9237 
 
>  <dipole> 
0.0 
 
>  <excitation_energy_1> 
4.558 
 
>  <excitation_energy_2> 
4.96 
 
>  <excitation_energy_3> 
4.961 
 
>  <excitation_energy_4> 
5.183 
 
>  <homo_energy> 
-4.947 
 
>  <homo_lumo_gap> 
6.841 
 
>  <logP> 
-0.507 
 
>  <lumo_energy> 
1.894 
 
>  <melting_point> 
23.87 
 
>  <molecular_refractivity> 
40.35 
 
>  <oscillator_strength_1> 
0.0 
 
>  <oscillator_strength_2> 
0.0457 
 
>  <oscillator_strength_3> 
0.0458 
 
>  <oscillator_strength_4> 
0.0155 
 
>  <open_babel_can_smiles> 
C1CN2CCN1CC2 
 
>  <mulliken_charges> 
20 
1   -0.157323 
2   -0.157444 
3   -0.157135 
4   -0.157307 
5   -0.157184 
6   -0.157344 
7   -0.366942 
8   -0.366914 
9   0.139794 
10   0.139828 
11   0.13984 
12   0.139799 
13   0.13976 
14   0.139793 
15   0.139819 
16   0.139788 
17   0.1398 
18   0.139763 
19   0.139792 
20   0.139817 
 
>  <lowdin_charges> 
20 
1   -0.228944 
2   -0.228957 
3   -0.228666 
4   -0.22779 
5   -0.228672 
6   -0.22779 
7   -0.181971 
8   -0.18197 
9   0.145606 
10   0.144288 
11   0.14429 
12   0.145606 
13   0.143897 
14   0.145583 
15   0.144182 
16   0.143823 
17   0.145585 
18   0.143896 
19   0.143824 
20   0.14418 
 
$$$$ 
 
