PCCDB-ID:  24354 
public computational chemistry database (PCCDB) project, http://pccdb.org 
 
 15 15  0  0  1  0  0  0  0  0999 V2000 
   -0.7205   -1.0419   -0.1039 C   0  0  0  0  0  0  0  0  0  0  0  0 
    0.7951   -1.1770    0.2011 C   0  0  0  0  0  0  0  0  0  0  0  0 
   -0.9724    0.4839   -0.1204 C   0  0  0  0  0  0  0  0  0  0  0  0 
    1.9387    0.6844   -1.0715 C   0  0  0  0  0  0  0  0  0  0  0  0 
    1.2810    0.3007    0.2496 C   0  0  1  0  0  0  0  0  0  0  0  0 
    1.4556    1.4170   -1.9031 O   0  0  0  0  0  0  0  0  0  0  0  0 
    0.1452    1.0787    0.5484 O   0  0  0  0  0  0  0  0  0  0  0  0 
   -1.3110   -1.5327    0.6750 H   0  0  0  0  0  0  0  0  0  0  0  0 
   -0.9903   -1.5002   -1.0598 H   0  0  0  0  0  0  0  0  0  0  0  0 
    1.3273   -1.7701   -0.5506 H   0  0  0  0  0  0  0  0  0  0  0  0 
    0.9614   -1.6547    1.1702 H   0  0  0  0  0  0  0  0  0  0  0  0 
   -1.8702    0.7836    0.4270 H   0  0  0  0  0  0  0  0  0  0  0  0 
   -1.0380    0.8668   -1.1455 H   0  0  0  0  0  0  0  0  0  0  0  0 
    2.9328    0.2016   -1.2346 H   0  0  0  0  0  0  0  0  0  0  0  0 
    2.0214    0.4597    1.0450 H   0  0  0  0  0  0  0  0  0  0  0  0 
  1  2  1  0  0  0  0 
  1  8  1  0  0  0  0 
  2  5  1  0  0  0  0 
  2 11  1  0  0  0  0 
  3  1  1  0  0  0  0 
  3 12  1  0  0  0  0 
  3  7  1  0  0  0  0 
  4  5  1  0  0  0  0 
  5  7  1  0  0  0  0 
  5 15  1  1  0  0  0 
  6  4  2  0  0  0  0 
  9  1  1  0  0  0  0 
 10  2  1  0  0  0  0 
 13  3  1  0  0  0  0 
 14  4  1  0  0  0  0 
M  END 
>  <HBA> 
2 
 
>  <HBD> 
0 
 
>  <TPSA> 
26.3 
 
>  <cid> 
24354 
 
>  <dipole> 
3.13 
 
>  <excitation_energy_1> 
4.07 
 
>  <excitation_energy_2> 
5.515 
 
>  <excitation_energy_3> 
5.977 
 
>  <excitation_energy_4> 
6.564 
 
>  <homo_energy> 
-6.514 
 
>  <homo_lumo_gap> 
5.81 
 
>  <logP> 
0.364 
 
>  <lumo_energy> 
-0.705 
 
>  <melting_point> 
19.45 
 
>  <molecular_refractivity> 
25.32 
 
>  <oscillator_strength_1> 
0.0001 
 
>  <oscillator_strength_2> 
0.0008 
 
>  <oscillator_strength_3> 
0.0137 
 
>  <oscillator_strength_4> 
0.0411 
 
>  <open_babel_can_smiles> 
O=C[C@@H]1CCCO1 
 
>  <mulliken_charges> 
15 
1   -0.303763 
2   -0.312925 
3   -0.032647 
4   0.242481 
5   0.067826 
6   -0.372814 
7   -0.467644 
8   0.155341 
9   0.152995 
10   0.153313 
11   0.161898 
12   0.146847 
13   0.159036 
14   0.096772 
15   0.153284 
 
>  <lowdin_charges> 
15 
1   -0.298132 
2   -0.292589 
3   -0.135057 
4   0.038992 
5   -0.04225 
6   -0.205654 
7   -0.256416 
8   0.155834 
9   0.154698 
10   0.15509 
11   0.158085 
12   0.150562 
13   0.144474 
14   0.112218 
15   0.160144 
 
$$$$ 
 
