PCCDB-ID:  39070 
public computational chemistry database (PCCDB) project, http://pccdb.org 
 
 17 17  0  0  0  0  0  0  0  0999 V2000 
    0.9640   -0.2118   -0.1138 C   0  0  0  0  0  0  0  0  0  0  0  0 
    2.4943   -0.1649   -0.1326 C   0  0  0  0  0  0  0  0  0  0  0  0 
    3.0937    0.1950    1.2400 C   0  0  0  0  0  0  0  0  0  0  0  0 
    5.4221    1.2506    1.4302 C   0  0  0  0  0  0  0  0  0  0  0  0 
    6.5427   -0.8713    1.0762 C   0  0  0  0  0  0  0  0  0  0  0  0 
    4.5979    0.1731    1.2505 C   0  0  0  0  0  0  0  0  0  0  0  0 
    5.2546   -1.0301    1.0486 N   0  0  0  0  0  0  0  0  0  0  0  0 
    7.0867    0.7675    1.3513 S   0  0  0  0  0  0  0  0  0  0  0  0 
    0.5636   -0.4707   -1.1005 H   0  0  0  0  0  0  0  0  0  0  0  0 
    0.5374    0.7572    0.1742 H   0  0  0  0  0  0  0  0  0  0  0  0 
    0.5987   -0.9599    0.6005 H   0  0  0  0  0  0  0  0  0  0  0  0 
    2.8367    0.5670   -0.8763 H   0  0  0  0  0  0  0  0  0  0  0  0 
    2.8966   -1.1361   -0.4446 H   0  0  0  0  0  0  0  0  0  0  0  0 
    2.7260   -0.5219    1.9870 H   0  0  0  0  0  0  0  0  0  0  0  0 
    2.7423    1.1865    1.5520 H   0  0  0  0  0  0  0  0  0  0  0  0 
    5.1474    2.2815    1.6051 H   0  0  0  0  0  0  0  0  0  0  0  0 
    7.2577   -1.6756    0.9451 H   0  0  0  0  0  0  0  0  0  0  0  0 
  1 10  1  0  0  0  0 
  1 11  1  0  0  0  0 
  2  1  1  0  0  0  0 
  2  3  1  0  0  0  0 
  3  6  1  0  0  0  0 
  3 15  1  0  0  0  0 
  3 14  1  0  0  0  0 
  4 16  1  0  0  0  0 
  5  8  1  0  0  0  0 
  6  4  2  0  0  0  0 
  7  5  2  0  0  0  0 
  7  6  1  0  0  0  0 
  8  4  1  0  0  0  0 
  9  1  1  0  0  0  0 
 12  2  1  0  0  0  0 
 13  2  1  0  0  0  0 
 17  5  1  0  0  0  0 
M  END 
>  <HBA> 
2 
 
>  <HBD> 
0 
 
>  <TPSA> 
41.13 
 
>  <cid> 
39070 
 
>  <dipole> 
1.03 
 
>  <excitation_energy_1> 
5.368 
 
>  <excitation_energy_2> 
5.401 
 
>  <excitation_energy_3> 
5.548 
 
>  <excitation_energy_4> 
6.068 
 
>  <homo_energy> 
-6.52 
 
>  <homo_lumo_gap> 
5.924 
 
>  <logP> 
2.096 
 
>  <lumo_energy> 
-0.596 
 
>  <melting_point> 
20.56 
 
>  <molecular_refractivity> 
36.69 
 
>  <oscillator_strength_1> 
0.0084 
 
>  <oscillator_strength_2> 
0.0634 
 
>  <oscillator_strength_3> 
0.0022 
 
>  <oscillator_strength_4> 
0.0018 
 
>  <open_babel_can_smiles> 
CCCc1cscn1 
 
>  <mulliken_charges> 
17 
1   -0.443544 
2   -0.250483 
3   -0.315219 
4   -0.393144 
5   -0.128325 
6   0.308684 
7   -0.385478 
8   0.235989 
9   0.145659 
10   0.140105 
11   0.144463 
12   0.134735 
13   0.158836 
14   0.154473 
15   0.135579 
16   0.175954 
17   0.181717 
 
>  <lowdin_charges> 
17 
1   -0.445604 
2   -0.271218 
3   -0.270656 
4   -0.349839 
5   -0.237948 
6   0.018599 
7   -0.157688 
8   0.299274 
9   0.151427 
10   0.145309 
11   0.148838 
12   0.14305 
13   0.152991 
14   0.158213 
15   0.147233 
16   0.184816 
17   0.183205 
 
$$$$ 
 
