PCCDB-ID:  14126 
public computational chemistry database (PCCDB) project, http://pccdb.org 
 
 39 39  0  0  0  0  0  0  0  0999 V2000 
    9.0095   -2.3088   -2.6971 C   0  0  0  0  0  0  0  0  0  0  0  0 
    9.2641   -1.5680   -1.3786 C   0  0  0  0  0  0  0  0  0  0  0  0 
    8.9394   -2.3828   -0.1144 C   0  0  0  0  0  0  0  0  0  0  0  0 
    7.4462   -2.6825    0.0819 C   0  0  0  0  0  0  0  0  0  0  0  0 
    7.1242   -3.5444    1.3157 C   0  0  0  0  0  0  0  0  0  0  0  0 
    7.4673   -2.9732    2.7062 C   0  0  0  0  0  0  0  0  0  0  0  0 
    6.6788   -1.7213    3.1498 C   0  0  0  0  0  0  0  0  0  0  0  0 
    6.4080    1.2223    7.5876 C   0  0  0  0  0  0  0  0  0  0  0  0 
    7.3065   -0.3743    2.7618 C   0  0  0  0  0  0  0  0  0  0  0  0 
    7.5728    1.5293    6.8802 C   0  0  0  0  0  0  0  0  0  0  0  0 
    5.2740    0.8017    6.8927 C   0  0  0  0  0  0  0  0  0  0  0  0 
    6.5160    0.8538    3.2685 C   0  0  0  0  0  0  0  0  0  0  0  0 
    7.5994    1.4132    5.4908 C   0  0  0  0  0  0  0  0  0  0  0  0 
    5.3070    0.6873    5.5011 C   0  0  0  0  0  0  0  0  0  0  0  0 
    6.4683    0.9880    4.7776 C   0  0  0  0  0  0  0  0  0  0  0  0 
    9.3072   -1.6971   -3.5565 H   0  0  0  0  0  0  0  0  0  0  0  0 
    7.9519   -2.5640   -2.8271 H   0  0  0  0  0  0  0  0  0  0  0  0 
    9.5828   -3.2436   -2.7399 H   0  0  0  0  0  0  0  0  0  0  0  0 
    8.6821   -0.6350   -1.3662 H   0  0  0  0  0  0  0  0  0  0  0  0 
   10.3196   -1.2662   -1.3403 H   0  0  0  0  0  0  0  0  0  0  0  0 
    9.3193   -1.8368    0.7590 H   0  0  0  0  0  0  0  0  0  0  0  0 
    9.4961   -3.3321   -0.1439 H   0  0  0  0  0  0  0  0  0  0  0  0 
    7.0641   -3.2121   -0.8011 H   0  0  0  0  0  0  0  0  0  0  0  0 
    6.8875   -1.7371    0.1244 H   0  0  0  0  0  0  0  0  0  0  0  0 
    7.6476   -4.5058    1.2068 H   0  0  0  0  0  0  0  0  0  0  0  0 
    6.0514   -3.7852    1.3008 H   0  0  0  0  0  0  0  0  0  0  0  0 
    8.5452   -2.7723    2.7801 H   0  0  0  0  0  0  0  0  0  0  0  0 
    7.2713   -3.7747    3.4310 H   0  0  0  0  0  0  0  0  0  0  0  0 
    6.5760   -1.7411    4.2419 H   0  0  0  0  0  0  0  0  0  0  0  0 
    5.6539   -1.7761    2.7518 H   0  0  0  0  0  0  0  0  0  0  0  0 
    6.3849    1.3143    8.6703 H   0  0  0  0  0  0  0  0  0  0  0  0 
    7.3971   -0.2934    1.6719 H   0  0  0  0  0  0  0  0  0  0  0  0 
    8.3304   -0.3284    3.1597 H   0  0  0  0  0  0  0  0  0  0  0  0 
    8.4597    1.8655    7.4114 H   0  0  0  0  0  0  0  0  0  0  0  0 
    4.3608    0.5629    7.4321 H   0  0  0  0  0  0  0  0  0  0  0  0 
    5.4926    0.8073    2.8737 H   0  0  0  0  0  0  0  0  0  0  0  0 
    6.9717    1.7571    2.8412 H   0  0  0  0  0  0  0  0  0  0  0  0 
    8.5093    1.6624    4.9482 H   0  0  0  0  0  0  0  0  0  0  0  0 
    4.4164    0.3636    4.9666 H   0  0  0  0  0  0  0  0  0  0  0  0 
  1  2  1  0  0  0  0 
  2 19  1  0  0  0  0 
  2 20  1  0  0  0  0 
  2  3  1  0  0  0  0 
  3  4  1  0  0  0  0 
  3 21  1  0  0  0  0 
  4 24  1  0  0  0  0 
  4  5  1  0  0  0  0 
  5  6  1  0  0  0  0 
  6 27  1  0  0  0  0 
  6  7  1  0  0  0  0 
  6 28  1  0  0  0  0 
  7 29  1  0  0  0  0 
  8 31  1  0  0  0  0 
  9  7  1  0  0  0  0 
  9 33  1  0  0  0  0 
  9 12  1  0  0  0  0 
 10 34  1  0  0  0  0 
 10  8  2  0  0  0  0 
 11 35  1  0  0  0  0 
 11  8  1  0  0  0  0 
 12 15  1  0  0  0  0 
 13 10  1  0  0  0  0 
 14 11  2  0  0  0  0 
 15 13  2  0  0  0  0 
 15 14  1  0  0  0  0 
 16  1  1  0  0  0  0 
 17  1  1  0  0  0  0 
 18  1  1  0  0  0  0 
 22  3  1  0  0  0  0 
 23  4  1  0  0  0  0 
 25  5  1  0  0  0  0 
 26  5  1  0  0  0  0 
 30  7  1  0  0  0  0 
 32  9  1  0  0  0  0 
 36 12  1  0  0  0  0 
 37 12  1  0  0  0  0 
 38 13  1  0  0  0  0 
 39 14  1  0  0  0  0 
M  END 
>  <HBA> 
0 
 
>  <HBD> 
0 
 
>  <TPSA> 
0.0 
 
>  <cid> 
14126 
 
>  <dipole> 
0.2 
 
>  <excitation_energy_1> 
5.279 
 
>  <excitation_energy_2> 
5.805 
 
>  <excitation_energy_3> 
6.0 
 
>  <excitation_energy_4> 
6.177 
 
>  <homo_energy> 
-6.4 
 
>  <homo_lumo_gap> 
6.493 
 
>  <logP> 
4.98 
 
>  <lumo_energy> 
0.093 
 
>  <melting_point> 
1.84 
 
>  <molecular_refractivity> 
69.86 
 
>  <oscillator_strength_1> 
0.0011 
 
>  <oscillator_strength_2> 
0.0549 
 
>  <oscillator_strength_3> 
0.002 
 
>  <oscillator_strength_4> 
0.0069 
 
>  <open_babel_can_smiles> 
CCCCCCCCCc1ccccc1 
 
>  <mulliken_charges> 
39 
1   -0.442746 
2   -0.249332 
3   -0.251268 
4   -0.256641 
5   -0.257944 
6   -0.261481 
7   -0.255993 
8   -0.132593 
9   -0.259355 
10   -0.127553 
11   -0.126834 
12   -0.35145 
13   -0.181103 
14   -0.185953 
15   0.178405 
16   0.141243 
17   0.145876 
18   0.140375 
19   0.127928 
20   0.129586 
21   0.133245 
22   0.124356 
23   0.13089 
24   0.130635 
25   0.125885 
26   0.125778 
27   0.132016 
28   0.129898 
29   0.144491 
30   0.122758 
31   0.126366 
32   0.140104 
33   0.133165 
34   0.126762 
35   0.126782 
36   0.137598 
37   0.142413 
38   0.121794 
39   0.121897 
 
>  <lowdin_charges> 
39 
1   -0.446551 
2   -0.271008 
3   -0.280152 
4   -0.282026 
5   -0.273516 
6   -0.278648 
7   -0.278328 
8   -0.160172 
9   -0.272146 
10   -0.156305 
11   -0.156915 
12   -0.274682 
13   -0.168064 
14   -0.17057 
15   -0.000104 
16   0.149858 
17   0.145454 
18   0.145593 
19   0.137557 
20   0.139687 
21   0.141705 
22   0.136619 
23   0.142154 
24   0.136866 
25   0.138799 
26   0.137195 
27   0.137856 
28   0.144996 
29   0.147305 
30   0.134945 
31   0.154158 
32   0.141431 
33   0.138477 
34   0.156753 
35   0.156657 
36   0.145266 
37   0.151832 
38   0.153737 
39   0.154286 
 
$$$$ 
 
