PCCDB-ID:  6693 
public computational chemistry database (PCCDB) project, http://pccdb.org 
 
 21 23  0  0  0  0  0  0  0  0999 V2000 
   -1.4053    2.4359    0.0014 C   0  0  0  0  0  0  0  0  0  0  0  0 
   -1.4055   -2.4362   -0.0037 C   0  0  0  0  0  0  0  0  0  0  0  0 
   -2.1090    1.2482    0.0003 C   0  0  0  0  0  0  0  0  0  0  0  0 
   -2.1091   -1.2484   -0.0025 C   0  0  0  0  0  0  0  0  0  0  0  0 
    0.0051    2.4308    0.0009 C   0  0  0  0  0  0  0  0  0  0  0  0 
    0.0049   -2.4311   -0.0032 C   0  0  0  0  0  0  0  0  0  0  0  0 
   -1.4328   -0.0001   -0.0012 C   0  0  0  0  0  0  0  0  0  0  0  0 
    0.6967    1.2316    0.0001 C   0  0  0  0  0  0  0  0  0  0  0  0 
    0.6966   -1.2320   -0.0018 C   0  0  0  0  0  0  0  0  0  0  0  0 
   -0.0051   -0.0002   -0.0009 C   0  0  0  0  0  0  0  0  0  0  0  0 
    2.1748    1.2357   -0.0026 C   0  0  0  0  0  0  0  0  0  0  0  0 
    2.1748   -1.2362    0.0003 C   0  0  0  0  0  0  0  0  0  0  0  0 
    2.8650    2.2234   -0.0041 O   0  0  0  0  0  0  0  0  0  0  0  0 
    2.8649   -2.2239    0.0048 O   0  0  0  0  0  0  0  0  0  0  0  0 
    2.8088   -0.0003   -0.0040 O   0  0  0  0  0  0  0  0  0  0  0  0 
   -1.9366    3.3828    0.0026 H   0  0  0  0  0  0  0  0  0  0  0  0 
   -1.9369   -3.3830   -0.0043 H   0  0  0  0  0  0  0  0  0  0  0  0 
   -3.1961    1.2554    0.0008 H   0  0  0  0  0  0  0  0  0  0  0  0 
   -3.1962   -1.2555   -0.0017 H   0  0  0  0  0  0  0  0  0  0  0  0 
    0.5677    3.3585    0.0005 H   0  0  0  0  0  0  0  0  0  0  0  0 
    0.5675   -3.3589   -0.0033 H   0  0  0  0  0  0  0  0  0  0  0  0 
  1 16  1  0  0  0  0 
  2  6  2  0  0  0  0 
  2  4  1  0  0  0  0 
  3 18  1  0  0  0  0 
  3  1  2  0  0  0  0 
  4 19  1  0  0  0  0 
  4  7  2  0  0  0  0 
  5  1  1  0  0  0  0 
  6  9  1  0  0  0  0 
  7 10  1  0  0  0  0 
  7  3  1  0  0  0  0 
  8  5  2  0  0  0  0 
  9 10  2  0  0  0  0 
  9 12  1  0  0  0  0 
 10  8  1  0  0  0  0 
 11  8  1  0  0  0  0 
 12 14  2  0  0  0  0 
 13 11  2  0  0  0  0 
 15 11  1  0  0  0  0 
 15 12  1  0  0  0  0 
 17  2  1  0  0  0  0 
 20  5  1  0  0  0  0 
 21  6  1  0  0  0  0 
M  END 
>  <HBA> 
3 
 
>  <HBD> 
0 
 
>  <TPSA> 
43.37 
 
>  <cid> 
6693 
 
>  <dipole> 
7.1 
 
>  <excitation_energy_1> 
3.745 
 
>  <excitation_energy_2> 
3.92 
 
>  <excitation_energy_3> 
4.089 
 
>  <excitation_energy_4> 
4.461 
 
>  <homo_energy> 
-6.825 
 
>  <homo_lumo_gap> 
4.109 
 
>  <logP> 
2.15 
 
>  <lumo_energy> 
-2.716 
 
>  <melting_point> 
134.41 
 
>  <molecular_refractivity> 
53.69 
 
>  <oscillator_strength_1> 
0.1729 
 
>  <oscillator_strength_2> 
0.0001 
 
>  <oscillator_strength_3> 
0.0457 
 
>  <oscillator_strength_4> 
0.0 
 
>  <open_babel_can_smiles> 
O=C1OC(=O)c2c3c1cccc3ccc2 
 
>  <mulliken_charges> 
21 
1   -0.129196 
2   -0.129221 
3   -0.186703 
4   -0.186756 
5   -0.181092 
6   -0.181075 
7   0.155042 
8   0.003708 
9   0.003697 
10   0.056217 
11   0.585408 
12   0.585409 
13   -0.433807 
14   -0.433803 
15   -0.487833 
16   0.15166 
17   0.151655 
18   0.149452 
19   0.149453 
20   0.178893 
21   0.178892 
 
>  <lowdin_charges> 
21 
1   -0.15263 
2   -0.152631 
3   -0.126295 
4   -0.126296 
5   -0.109021 
6   -0.109021 
7   -0.001413 
8   -0.057204 
9   -0.057204 
10   0.009199 
11   0.212058 
12   0.212057 
13   -0.215118 
14   -0.215116 
15   -0.152768 
16   0.169878 
17   0.169879 
18   0.165327 
19   0.165327 
20   0.185496 
21   0.185496 
 
$$$$ 
 
