PCCDB-ID:  21005 
public computational chemistry database (PCCDB) project, http://pccdb.org 
 
 19 19  0  0  0  0  0  0  0  0999 V2000 
    1.0576    0.0189    0.1139 C   0  0  0  0  0  0  0  0  0  0  0  0 
    5.6884   -3.1567    1.5157 C   0  0  0  0  0  0  0  0  0  0  0  0 
    4.6628    1.2544   -0.1839 C   0  0  0  0  0  0  0  0  0  0  0  0 
    3.2714    1.2435   -0.0780 C   0  0  0  0  0  0  0  0  0  0  0  0 
    5.3748    0.0558   -0.2270 C   0  0  0  0  0  0  0  0  0  0  0  0 
    3.2880   -1.1615   -0.0714 C   0  0  0  0  0  0  0  0  0  0  0  0 
    2.5636    0.0364   -0.0170 C   0  0  0  0  0  0  0  0  0  0  0  0 
    4.6845   -1.1612   -0.1659 C   0  0  0  0  0  0  0  0  0  0  0  0 
    5.5869   -2.7148   -0.2631 S   0  0  0  0  0  0  0  0  0  0  0  0 
    0.6186    0.9750   -0.1889 H   0  0  0  0  0  0  0  0  0  0  0  0 
    0.7500   -0.1690    1.1512 H   0  0  0  0  0  0  0  0  0  0  0  0 
    0.6107   -0.7688   -0.5026 H   0  0  0  0  0  0  0  0  0  0  0  0 
    6.2207   -4.1105    1.5711 H   0  0  0  0  0  0  0  0  0  0  0  0 
    4.6919   -3.2785    1.9483 H   0  0  0  0  0  0  0  0  0  0  0  0 
    6.2461   -2.4018    2.0760 H   0  0  0  0  0  0  0  0  0  0  0  0 
    5.1940    2.2012   -0.2369 H   0  0  0  0  0  0  0  0  0  0  0  0 
    2.7257    2.1839   -0.0492 H   0  0  0  0  0  0  0  0  0  0  0  0 
    6.4570    0.0561   -0.3136 H   0  0  0  0  0  0  0  0  0  0  0  0 
    2.7598   -2.1116   -0.0481 H   0  0  0  0  0  0  0  0  0  0  0  0 
  1 11  1  0  0  0  0 
  2 13  1  0  0  0  0 
  2 14  1  0  0  0  0 
  2 15  1  0  0  0  0 
  3  4  1  0  0  0  0 
  4 17  1  0  0  0  0 
  4  7  2  0  0  0  0 
  5  3  2  0  0  0  0 
  5  8  1  0  0  0  0 
  6 19  1  0  0  0  0 
  6  7  1  0  0  0  0 
  7  1  1  0  0  0  0 
  8  6  2  0  0  0  0 
  9  8  1  0  0  0  0 
  9  2  1  0  0  0  0 
 10  1  1  0  0  0  0 
 12  1  1  0  0  0  0 
 16  3  1  0  0  0  0 
 18  5  1  0  0  0  0 
M  END 
>  <HBA> 
1 
 
>  <HBD> 
0 
 
>  <TPSA> 
25.3 
 
>  <cid> 
21005 
 
>  <dipole> 
2.05 
 
>  <excitation_energy_1> 
4.453 
 
>  <excitation_energy_2> 
4.884 
 
>  <excitation_energy_3> 
5.17 
 
>  <excitation_energy_4> 
5.506 
 
>  <homo_energy> 
-6.025 
 
>  <homo_lumo_gap> 
5.644 
 
>  <logP> 
2.717 
 
>  <lumo_energy> 
-0.381 
 
>  <melting_point> 
20.97 
 
>  <molecular_refractivity> 
43.13 
 
>  <oscillator_strength_1> 
0.0054 
 
>  <oscillator_strength_2> 
0.0003 
 
>  <oscillator_strength_3> 
0.009 
 
>  <oscillator_strength_4> 
0.0007 
 
>  <open_babel_can_smiles> 
CSc1cccc(c1)C 
 
>  <mulliken_charges> 
19 
1   -0.529424 
2   -0.575543 
3   -0.117685 
4   -0.181082 
5   -0.14687 
6   -0.192195 
7   0.186438 
8   -0.088507 
9   0.075039 
10   0.157035 
11   0.166219 
12   0.162634 
13   0.180006 
14   0.179876 
15   0.181898 
16   0.132755 
17   0.125637 
18   0.14588 
19   0.137888 
 
>  <lowdin_charges> 
19 
1   -0.442464 
2   -0.542174 
3   -0.154526 
4   -0.163154 
5   -0.157614 
6   -0.164532 
7   0.002972 
8   -0.125909 
9   0.12055 
10   0.158129 
11   0.161417 
12   0.162206 
13   0.173262 
14   0.162634 
15   0.165604 
16   0.159686 
17   0.15619 
18   0.164816 
19   0.162907 
 
$$$$ 
 
