PCCDB-ID:  38693 
public computational chemistry database (PCCDB) project, http://pccdb.org 
 
 33 34  0  0  0  0  0  0  0  0999 V2000 
    0.9221    1.0618    4.7220 C   0  0  0  0  0  0  0  0  0  0  0  0 
    1.1775    2.1980    3.9509 C   0  0  0  0  0  0  0  0  0  0  0  0 
    1.6594   -0.1038    4.5053 C   0  0  0  0  0  0  0  0  0  0  0  0 
    2.1664    2.1660    2.9714 C   0  0  0  0  0  0  0  0  0  0  0  0 
    2.6388   -0.1447    3.5137 C   0  0  0  0  0  0  0  0  0  0  0  0 
    7.3231   -1.1399    0.9357 C   0  0  0  0  0  0  0  0  0  0  0  0 
    6.6570   -1.6379   -1.3283 C   0  0  0  0  0  0  0  0  0  0  0  0 
    8.0319   -2.4904    0.9920 C   0  0  0  0  0  0  0  0  0  0  0  0 
    7.3837   -2.9766   -1.2061 C   0  0  0  0  0  0  0  0  0  0  0  0 
    5.3866   -0.0003   -0.0179 C   0  0  0  0  0  0  0  0  0  0  0  0 
    2.8983    0.9925    2.7340 C   0  0  0  0  0  0  0  0  0  0  0  0 
    3.9774    1.0953    1.6978 C   0  0  0  0  0  0  0  0  0  0  0  0 
    6.1930   -1.2185   -0.0015 N   0  0  0  0  0  0  0  0  0  0  0  0 
    4.4893   -0.0564    1.1265 N   0  0  0  0  0  0  0  0  0  0  0  0 
    4.4599    2.1827    1.3842 O   0  0  0  0  0  0  0  0  0  0  0  0 
    3.6557   -1.2006    1.0492 O   0  0  0  0  0  0  0  0  0  0  0  0 
    8.4722   -2.8950   -0.2973 O   0  0  0  0  0  0  0  0  0  0  0  0 
    0.1547    1.0858    5.4914 H   0  0  0  0  0  0  0  0  0  0  0  0 
    0.6112    3.1103    4.1177 H   0  0  0  0  0  0  0  0  0  0  0  0 
    1.4715   -0.9870    5.1100 H   0  0  0  0  0  0  0  0  0  0  0  0 
    2.3964    3.0457    2.3799 H   0  0  0  0  0  0  0  0  0  0  0  0 
    3.1976   -1.0556    3.3439 H   0  0  0  0  0  0  0  0  0  0  0  0 
    8.0427   -0.3625    0.6211 H   0  0  0  0  0  0  0  0  0  0  0  0 
    6.9423   -0.8687    1.9261 H   0  0  0  0  0  0  0  0  0  0  0  0 
    5.7917   -1.7439   -1.9930 H   0  0  0  0  0  0  0  0  0  0  0  0 
    7.3426   -0.8951   -1.7749 H   0  0  0  0  0  0  0  0  0  0  0  0 
    7.3511   -3.2478    1.4156 H   0  0  0  0  0  0  0  0  0  0  0  0 
    8.9250   -2.4320    1.6207 H   0  0  0  0  0  0  0  0  0  0  0  0 
    7.8052   -3.2762   -2.1700 H   0  0  0  0  0  0  0  0  0  0  0  0 
    6.6698   -3.7499   -0.8759 H   0  0  0  0  0  0  0  0  0  0  0  0 
    4.8049    0.0194   -0.9490 H   0  0  0  0  0  0  0  0  0  0  0  0 
    5.9659    0.9256    0.0645 H   0  0  0  0  0  0  0  0  0  0  0  0 
    4.3363   -1.8986    0.9350 H   0  0  0  0  0  0  0  0  0  0  0  0 
  1 18  1  0  0  0  0 
  2 19  1  0  0  0  0 
  2  1  2  0  0  0  0 
  3  1  1  0  0  0  0 
  3 20  1  0  0  0  0 
  4  2  1  0  0  0  0 
  5  3  2  0  0  0  0 
  6  8  1  0  0  0  0 
  6 24  1  0  0  0  0 
  7  9  1  0  0  0  0 
  7 13  1  0  0  0  0 
  8 27  1  0  0  0  0 
  8 28  1  0  0  0  0 
  9 30  1  0  0  0  0 
  9 17  1  0  0  0  0 
 10 13  1  0  0  0  0 
 10 32  1  0  0  0  0 
 10 14  1  0  0  0  0 
 11  4  2  0  0  0  0 
 11  5  1  0  0  0  0 
 12 11  1  0  0  0  0 
 13  6  1  0  0  0  0 
 14 12  1  0  0  0  0 
 15 12  2  0  0  0  0 
 16 14  1  0  0  0  0 
 17  8  1  0  0  0  0 
 21  4  1  0  0  0  0 
 22  5  1  0  0  0  0 
 23  6  1  0  0  0  0 
 25  7  1  0  0  0  0 
 26  7  1  0  0  0  0 
 29  9  1  0  0  0  0 
 31 10  1  0  0  0  0 
 33 16  1  0  0  0  0 
M  END 
>  <HBA> 
5 
 
>  <HBD> 
1 
 
>  <TPSA> 
53.01 
 
>  <cid> 
38693 
 
>  <dipole> 
2.4 
 
>  <excitation_energy_1> 
4.457 
 
>  <excitation_energy_2> 
4.721 
 
>  <excitation_energy_3> 
4.929 
 
>  <excitation_energy_4> 
5.061 
 
>  <homo_energy> 
-6.313 
 
>  <homo_lumo_gap> 
5.353 
 
>  <logP> 
0.746 
 
>  <lumo_energy> 
-0.961 
 
>  <melting_point> 
108.36 
 
>  <molecular_refractivity> 
65.27 
 
>  <oscillator_strength_1> 
0.0041 
 
>  <oscillator_strength_2> 
0.1073 
 
>  <oscillator_strength_3> 
0.0377 
 
>  <oscillator_strength_4> 
0.0734 
 
>  <open_babel_can_smiles> 
ON(C(=O)c1ccccc1)CN1CCOCC1 
 
>  <mulliken_charges> 
33 
1   -0.118626 
2   -0.139107 
3   -0.140037 
4   -0.151695 
5   -0.141302 
6   -0.144331 
7   -0.141284 
8   -0.034652 
9   -0.032294 
10   0.020809 
11   0.075483 
12   0.552965 
13   -0.450269 
14   -0.253418 
15   -0.51962 
16   -0.517511 
17   -0.463571 
18   0.132661 
19   0.133886 
20   0.130917 
21   0.16024 
22   0.140932 
23   0.137344 
24   0.161134 
25   0.149703 
26   0.136586 
27   0.125215 
28   0.154174 
29   0.152579 
30   0.126631 
31   0.158236 
32   0.183857 
33   0.414365 
 
>  <lowdin_charges> 
33 
1   -0.14329 
2   -0.159525 
3   -0.161746 
4   -0.132284 
5   -0.141675 
6   -0.220569 
7   -0.219057 
8   -0.137895 
9   -0.137875 
10   -0.136272 
11   -0.038597 
12   0.161632 
13   -0.199134 
14   -0.016094 
15   -0.304036 
16   -0.384307 
17   -0.270063 
18   0.159289 
19   0.160043 
20   0.158803 
21   0.176037 
22   0.167125 
23   0.134171 
24   0.158977 
25   0.154804 
26   0.133686 
27   0.131197 
28   0.157015 
29   0.155401 
30   0.131602 
31   0.150392 
32   0.1664 
33   0.345844 
 
$$$$ 
 
