PCCDB-ID:  23502 
public computational chemistry database (PCCDB) project, http://pccdb.org 
 
 24 23  0  0  0  0  0  0  0  0999 V2000 
    1.3256    0.2965   -1.0603 C   0  0  0  0  0  0  0  0  0  0  0  0 
    5.1052    3.5020    0.6811 C   0  0  0  0  0  0  0  0  0  0  0  0 
    5.0768    2.1138    2.7818 C   0  0  0  0  0  0  0  0  0  0  0  0 
    6.8094    1.6946    1.0199 C   0  0  0  0  0  0  0  0  0  0  0  0 
    2.1531    0.1443   -0.0257 C   0  0  0  0  0  0  0  0  0  0  0  0 
    2.9153    1.2519    0.6515 C   0  0  0  0  0  0  0  0  0  0  0  0 
    4.4410    1.0454    0.5559 C   0  0  0  0  0  0  0  0  0  0  0  0 
    5.3400    2.0942    1.2633 C   0  0  0  0  0  0  0  0  0  0  0  0 
    0.8086   -0.5467   -1.5106 H   0  0  0  0  0  0  0  0  0  0  0  0 
    1.1313    1.2744   -1.4973 H   0  0  0  0  0  0  0  0  0  0  0  0 
    5.7988    4.2258    1.1263 H   0  0  0  0  0  0  0  0  0  0  0  0 
    4.0885    3.8614    0.8757 H   0  0  0  0  0  0  0  0  0  0  0  0 
    5.2637    3.5129   -0.4046 H   0  0  0  0  0  0  0  0  0  0  0  0 
    5.7709    2.7974    3.2860 H   0  0  0  0  0  0  0  0  0  0  0  0 
    5.2135    1.1174    3.2208 H   0  0  0  0  0  0  0  0  0  0  0  0 
    4.0605    2.4483    3.0180 H   0  0  0  0  0  0  0  0  0  0  0  0 
    7.4948    2.4055    1.4977 H   0  0  0  0  0  0  0  0  0  0  0  0 
    7.0428    1.6733   -0.0517 H   0  0  0  0  0  0  0  0  0  0  0  0 
    7.0225    0.6989    1.4284 H   0  0  0  0  0  0  0  0  0  0  0  0 
    2.3171   -0.8577    0.3764 H   0  0  0  0  0  0  0  0  0  0  0  0 
    2.6178    1.2942    1.7093 H   0  0  0  0  0  0  0  0  0  0  0  0 
    2.6302    2.2122    0.2053 H   0  0  0  0  0  0  0  0  0  0  0  0 
    4.7161    1.0107   -0.5076 H   0  0  0  0  0  0  0  0  0  0  0  0 
    4.6850    0.0529    0.9635 H   0  0  0  0  0  0  0  0  0  0  0  0 
  1  5  2  0  0  0  0 
  2 12  1  0  0  0  0 
  2 11  1  0  0  0  0 
  2  8  1  0  0  0  0 
  3 16  1  0  0  0  0 
  3 15  1  0  0  0  0 
  3 14  1  0  0  0  0 
  4  8  1  0  0  0  0 
  4 19  1  0  0  0  0 
  4 17  1  0  0  0  0 
  5 20  1  0  0  0  0 
  5  6  1  0  0  0  0 
  6 21  1  0  0  0  0 
  7  6  1  0  0  0  0 
  7 24  1  0  0  0  0 
  7  8  1  0  0  0  0 
  8  3  1  0  0  0  0 
  9  1  1  0  0  0  0 
 10  1  1  0  0  0  0 
 13  2  1  0  0  0  0 
 18  4  1  0  0  0  0 
 22  6  1  0  0  0  0 
 23  7  1  0  0  0  0 
M  END 
>  <HBA> 
0 
 
>  <HBD> 
0 
 
>  <TPSA> 
0.0 
 
>  <cid> 
23502 
 
>  <dipole> 
0.38 
 
>  <excitation_energy_1> 
6.374 
 
>  <excitation_energy_2> 
6.725 
 
>  <excitation_energy_3> 
6.815 
 
>  <excitation_energy_4> 
6.922 
 
>  <homo_energy> 
-6.738 
 
>  <homo_lumo_gap> 
7.472 
 
>  <logP> 
2.999 
 
>  <lumo_energy> 
0.735 
 
>  <melting_point> 
-29.8 
 
>  <molecular_refractivity> 
39.84 
 
>  <oscillator_strength_1> 
0.0359 
 
>  <oscillator_strength_2> 
0.0571 
 
>  <oscillator_strength_3> 
0.0019 
 
>  <oscillator_strength_4> 
0.2101 
 
>  <open_babel_can_smiles> 
C=CCCC(C)(C)C 
 
>  <mulliken_charges> 
24 
1   -0.342377 
2   -0.445828 
3   -0.446212 
4   -0.440914 
5   -0.041476 
6   -0.312365 
7   -0.249706 
8   0.102034 
9   0.136198 
10   0.132565 
11   0.137678 
12   0.142051 
13   0.137909 
14   0.138347 
15   0.136628 
16   0.141805 
17   0.136824 
18   0.138177 
19   0.13711 
20   0.121992 
21   0.143416 
22   0.139983 
23   0.132568 
24   0.123593 
 
>  <lowdin_charges> 
24 
1   -0.347785 
2   -0.443085 
3   -0.445256 
4   -0.440606 
5   -0.141801 
6   -0.274636 
7   -0.271206 
8   0.015004 
9   0.157927 
10   0.152382 
11   0.14854 
12   0.14636 
13   0.144915 
14   0.149069 
15   0.145612 
16   0.146156 
17   0.147368 
18   0.145004 
19   0.145524 
20   0.146906 
21   0.147734 
22   0.146674 
23   0.141315 
24   0.137886 
 
$$$$ 
 
