PCCDB-ID:  56973 
public computational chemistry database (PCCDB) project, http://pccdb.org 
 
 32 33  0  0  0  0  0  0  0  0999 V2000 
    6.7943    0.2607   -1.1232 C   0  0  0  0  0  0  0  0  0  0  0  0 
    5.6891    1.3145   -1.2471 C   0  0  0  0  0  0  0  0  0  0  0  0 
    3.0448    3.7182    4.9630 C   0  0  0  0  0  0  0  0  0  0  0  0 
    1.9834    4.0034    4.1078 C   0  0  0  0  0  0  0  0  0  0  0  0 
    4.2338    3.2085    4.4301 C   0  0  0  0  0  0  0  0  0  0  0  0 
    2.0929    3.7889    2.7298 C   0  0  0  0  0  0  0  0  0  0  0  0 
    4.3586    2.9892    3.0628 C   0  0  0  0  0  0  0  0  0  0  0  0 
    2.9372    2.8730   -1.4314 C   0  0  0  0  0  0  0  0  0  0  0  0 
    2.4525    3.2773   -0.0431 C   0  0  0  0  0  0  0  0  0  0  0  0 
    3.2864    3.2790    2.2081 C   0  0  0  0  0  0  0  0  0  0  0  0 
    4.3405    0.7055   -1.4802 C   0  0  0  0  0  0  0  0  0  0  0  0 
    2.2129    0.4886   -1.7937 C   0  0  0  0  0  0  0  0  0  0  0  0 
    4.0849   -0.5664   -1.6469 N   0  0  0  0  0  0  0  0  0  0  0  0 
    2.7105   -0.7126   -1.8475 N   0  0  0  0  0  0  0  0  0  0  0  0 
    3.1642    1.4423   -1.5710 N   0  0  0  0  0  0  0  0  0  0  0  0 
    0.9194    0.8468   -1.9314 O   0  0  0  0  0  0  0  0  0  0  0  0 
    3.5071    3.0364    0.8755 O   0  0  0  0  0  0  0  0  0  0  0  0 
    7.7625    0.7475   -0.9668 H   0  0  0  0  0  0  0  0  0  0  0  0 
    6.8518   -0.3548   -2.0250 H   0  0  0  0  0  0  0  0  0  0  0  0 
    6.5997   -0.4107   -0.2823 H   0  0  0  0  0  0  0  0  0  0  0  0 
    5.9257    2.0025   -2.0732 H   0  0  0  0  0  0  0  0  0  0  0  0 
    5.6477    1.9329   -0.3414 H   0  0  0  0  0  0  0  0  0  0  0  0 
    2.9510    3.8896    6.0313 H   0  0  0  0  0  0  0  0  0  0  0  0 
    1.0533    4.3999    4.5065 H   0  0  0  0  0  0  0  0  0  0  0  0 
    5.0705    2.9793    5.0845 H   0  0  0  0  0  0  0  0  0  0  0  0 
    1.2526    4.0195    2.0849 H   0  0  0  0  0  0  0  0  0  0  0  0 
    5.2741    2.5919    2.6355 H   0  0  0  0  0  0  0  0  0  0  0  0 
    3.8699    3.3930   -1.6642 H   0  0  0  0  0  0  0  0  0  0  0  0 
    2.1859    3.1751   -2.1678 H   0  0  0  0  0  0  0  0  0  0  0  0 
    1.5600    2.6977    0.2271 H   0  0  0  0  0  0  0  0  0  0  0  0 
    2.1828    4.3437   -0.0531 H   0  0  0  0  0  0  0  0  0  0  0  0 
    0.4286    0.0214   -2.0889 H   0  0  0  0  0  0  0  0  0  0  0  0 
  1 18  1  0  0  0  0 
  1 20  1  0  0  0  0 
  2  1  1  0  0  0  0 
  2 22  1  0  0  0  0 
  3 23  1  0  0  0  0 
  4 24  1  0  0  0  0 
  4  3  2  0  0  0  0 
  5  3  1  0  0  0  0 
  5 25  1  0  0  0  0 
  6  4  1  0  0  0  0 
  7  5  2  0  0  0  0 
  8  9  1  0  0  0  0 
  9 30  1  0  0  0  0 
  9 17  1  0  0  0  0 
 10  6  2  0  0  0  0 
 10  7  1  0  0  0  0 
 11  2  1  0  0  0  0 
 12 15  1  0  0  0  0 
 13 11  2  0  0  0  0 
 14 12  2  0  0  0  0 
 14 13  1  0  0  0  0 
 15 11  1  0  0  0  0 
 15  8  1  0  0  0  0 
 16 12  1  0  0  0  0 
 17 10  1  0  0  0  0 
 19  1  1  0  0  0  0 
 21  2  1  0  0  0  0 
 26  6  1  0  0  0  0 
 27  7  1  0  0  0  0 
 28  8  1  0  0  0  0 
 29  8  1  0  0  0  0 
 31  9  1  0  0  0  0 
 32 16  1  0  0  0  0 
M  END 
>  <HBA> 
4 
 
>  <HBD> 
1 
 
>  <TPSA> 
59.91 
 
>  <cid> 
56973 
 
>  <dipole> 
4.94 
 
>  <excitation_energy_1> 
5.096 
 
>  <excitation_energy_2> 
5.292 
 
>  <excitation_energy_3> 
5.436 
 
>  <excitation_energy_4> 
5.458 
 
>  <homo_energy> 
-6.133 
 
>  <homo_lumo_gap> 
5.997 
 
>  <logP> 
1.213 
 
>  <lumo_energy> 
-0.136 
 
>  <melting_point> 
138.88 
 
>  <molecular_refractivity> 
64.7 
 
>  <oscillator_strength_1> 
0.0264 
 
>  <oscillator_strength_2> 
0.0004 
 
>  <oscillator_strength_3> 
0.0 
 
>  <oscillator_strength_4> 
0.0038 
 
>  <open_babel_can_smiles> 
CCc1nnc(n1CCOc1ccccc1)O 
 
>  <mulliken_charges> 
32 
1   -0.43451 
2   -0.356345 
3   -0.130883 
4   -0.137686 
5   -0.132663 
6   -0.192232 
7   -0.17468 
8   -0.179567 
9   -0.031457 
10   0.37808 
11   0.522254 
12   0.691635 
13   -0.372797 
14   -0.381753 
15   -0.486013 
16   -0.637083 
17   -0.524278 
18   0.136756 
19   0.169574 
20   0.167186 
21   0.150197 
22   0.174563 
23   0.12918 
24   0.132551 
25   0.134276 
26   0.13386 
27   0.140893 
28   0.180901 
29   0.183151 
30   0.167026 
31   0.147218 
32   0.432645 
 
>  <lowdin_charges> 
32 
1   -0.435208 
2   -0.281545 
3   -0.173099 
4   -0.144655 
5   -0.145348 
6   -0.214813 
7   -0.181924 
8   -0.197579 
9   -0.132704 
10   0.105165 
11   0.040306 
12   0.10999 
13   -0.151698 
14   -0.200914 
15   -0.041239 
16   -0.367028 
17   -0.206346 
18   0.148251 
19   0.1631 
20   0.162395 
21   0.152655 
22   0.162548 
23   0.156904 
24   0.159293 
25   0.161331 
26   0.162941 
27   0.166636 
28   0.171098 
29   0.173688 
30   0.153258 
31   0.143984 
32   0.380558 
 
$$$$ 
 
