PCCDB-ID:  46662 
public computational chemistry database (PCCDB) project, http://pccdb.org 
 
 33 35  0  0  0  0  0  0  0  0999 V2000 
    1.9474    0.9014   -1.3280 C   0  0  0  0  0  0  0  0  0  0  0  0 
    1.7744   -1.1537   -0.0527 C   0  0  0  0  0  0  0  0  0  0  0  0 
    4.4237    0.5578    2.8692 C   0  0  0  0  0  0  0  0  0  0  0  0 
    4.5541    6.8127    4.3933 C   0  0  0  0  0  0  0  0  0  0  0  0 
    3.8195   -0.0344    1.7981 C   0  0  0  0  0  0  0  0  0  0  0  0 
    3.9824    6.1322    3.3550 C   0  0  0  0  0  0  0  0  0  0  0  0 
    4.9556    2.6279    4.1465 C   0  0  0  0  0  0  0  0  0  0  0  0 
    5.4235    4.7583    5.3438 C   0  0  0  0  0  0  0  0  0  0  0  0 
    3.0081    2.1063    1.0006 C   0  0  0  0  0  0  0  0  0  0  0  0 
    4.3584    1.9710    3.0714 C   0  0  0  0  0  0  0  0  0  0  0  0 
    4.8492    4.0202    4.2709 C   0  0  0  0  0  0  0  0  0  0  0  0 
    5.2900    6.1293    5.4171 C   0  0  0  0  0  0  0  0  0  0  0  0 
    3.0808    0.7361    0.8293 C   0  0  0  0  0  0  0  0  0  0  0  0 
    4.1036    4.7112    3.2455 C   0  0  0  0  0  0  0  0  0  0  0  0 
    3.6395    2.7602    2.0999 C   0  0  0  0  0  0  0  0  0  0  0  0 
    5.9012    6.8884    6.4203 N   0  0  0  0  0  0  0  0  0  0  0  0 
    3.5240    4.0963    2.2012 N   0  0  0  0  0  0  0  0  0  0  0  0 
    2.5266    0.0766   -0.2812 N   0  0  0  0  0  0  0  0  0  0  0  0 
    1.7245    0.2675   -2.1918 H   0  0  0  0  0  0  0  0  0  0  0  0 
    2.6631    1.6672   -1.6394 H   0  0  0  0  0  0  0  0  0  0  0  0 
    1.0127    1.4038   -1.0217 H   0  0  0  0  0  0  0  0  0  0  0  0 
    1.6758   -1.6958   -0.9990 H   0  0  0  0  0  0  0  0  0  0  0  0 
    0.7613   -0.9593    0.3406 H   0  0  0  0  0  0  0  0  0  0  0  0 
    2.2894   -1.8059    0.6532 H   0  0  0  0  0  0  0  0  0  0  0  0 
    4.9833   -0.0463    3.5800 H   0  0  0  0  0  0  0  0  0  0  0  0 
    4.4636    7.8955    4.4523 H   0  0  0  0  0  0  0  0  0  0  0  0 
    3.9300   -1.1038    1.6531 H   0  0  0  0  0  0  0  0  0  0  0  0 
    3.4222    6.6475    2.5810 H   0  0  0  0  0  0  0  0  0  0  0  0 
    5.5064    2.0570    4.8926 H   0  0  0  0  0  0  0  0  0  0  0  0 
    5.9793    4.2211    6.1104 H   0  0  0  0  0  0  0  0  0  0  0  0 
    2.4619    2.7449    0.3178 H   0  0  0  0  0  0  0  0  0  0  0  0 
    5.4199    7.7485    6.6539 H   0  0  0  0  0  0  0  0  0  0  0  0 
    6.1464    6.3685    7.2543 H   0  0  0  0  0  0  0  0  0  0  0  0 
  1 21  1  0  0  0  0 
  1 18  1  0  0  0  0 
  2 23  1  0  0  0  0 
  2 24  1  0  0  0  0 
  3 10  1  0  0  0  0 
  3 25  1  0  0  0  0 
  4 26  1  0  0  0  0 
  4 12  2  0  0  0  0 
  5  3  2  0  0  0  0 
  6  4  1  0  0  0  0 
  7 11  1  0  0  0  0 
  7 29  1  0  0  0  0 
  8 12  1  0  0  0  0 
  8 30  1  0  0  0  0 
  9 15  1  0  0  0  0 
 10  7  2  0  0  0  0 
 11  8  2  0  0  0  0 
 12 16  1  0  0  0  0 
 13  9  2  0  0  0  0 
 13  5  1  0  0  0  0 
 14  6  2  0  0  0  0 
 14 11  1  0  0  0  0 
 15 17  2  0  0  0  0 
 15 10  1  0  0  0  0 
 16 32  1  0  0  0  0 
 16 33  1  0  0  0  0 
 17 14  1  0  0  0  0 
 18  2  1  0  0  0  0 
 18 13  1  0  0  0  0 
 19  1  1  0  0  0  0 
 20  1  1  0  0  0  0 
 22  2  1  0  0  0  0 
 27  5  1  0  0  0  0 
 28  6  1  0  0  0  0 
 31  9  1  0  0  0  0 
M  END 
>  <HBA> 
3 
 
>  <HBD> 
1 
 
>  <TPSA> 
42.15 
 
>  <cid> 
46662 
 
>  <dipole> 
2.2 
 
>  <excitation_energy_1> 
2.843 
 
>  <excitation_energy_2> 
3.656 
 
>  <excitation_energy_3> 
3.838 
 
>  <excitation_energy_4> 
3.902 
 
>  <homo_energy> 
-4.773 
 
>  <homo_lumo_gap> 
3.263 
 
>  <logP> 
3.617 
 
>  <lumo_energy> 
-1.51 
 
>  <melting_point> 
169.0 
 
>  <molecular_refractivity> 
77.86 
 
>  <oscillator_strength_1> 
0.1093 
 
>  <oscillator_strength_2> 
0.04 
 
>  <oscillator_strength_3> 
0.0013 
 
>  <oscillator_strength_4> 
0.0006 
 
>  <open_babel_can_smiles> 
Nc1ccc2c(c1)cc1c(n2)cc(cc1)N(C)C 
 
>  <mulliken_charges> 
33 
1   -0.305028 
2   -0.312579 
3   -0.199469 
4   -0.166027 
5   -0.173397 
6   -0.155334 
7   -0.245215 
8   -0.259943 
9   -0.251921 
10   0.16176 
11   0.160411 
12   0.308189 
13   0.344896 
14   0.253356 
15   0.254664 
16   -0.788665 
17   -0.619952 
18   -0.466953 
19   0.151519 
20   0.17112 
21   0.141402 
22   0.154593 
23   0.143697 
24   0.162346 
25   0.128231 
26   0.123822 
27   0.131711 
28   0.140509 
29   0.126517 
30   0.112001 
31   0.133507 
32   0.319896 
33   0.320337 
 
>  <lowdin_charges> 
33 
1   -0.355584 
2   -0.349359 
3   -0.154947 
4   -0.175002 
5   -0.172808 
6   -0.146791 
7   -0.144661 
8   -0.220334 
9   -0.219222 
10   -0.024351 
11   -0.012783 
12   0.05483 
13   0.05086 
14   0.034496 
15   0.045009 
16   -0.486363 
17   -0.16666 
18   -0.127097 
19   0.154267 
20   0.163494 
21   0.135075 
22   0.152165 
23   0.135116 
24   0.159374 
25   0.158566 
26   0.154288 
27   0.157918 
28   0.169706 
29   0.15713 
30   0.15185 
31   0.170508 
32   0.275811 
33   0.275497 
 
$$$$ 
 
