PCCDB-ID:  70520 
public computational chemistry database (PCCDB) project, http://pccdb.org 
 
 26 26  0  0  0  0  0  0  0  0999 V2000 
    3.1219    1.0192   -1.0523 C   0  0  0  0  0  0  0  0  0  0  0  0 
    0.8668    0.4916   -0.0238 C   0  0  0  0  0  0  0  0  0  0  0  0 
    1.1909   -3.8517    3.0733 C   0  0  0  0  0  0  0  0  0  0  0  0 
    2.4233   -3.2161    3.2370 C   0  0  0  0  0  0  0  0  0  0  0  0 
    0.4657   -3.6523    1.8979 C   0  0  0  0  0  0  0  0  0  0  0  0 
    2.9216   -2.3843    2.2339 C   0  0  0  0  0  0  0  0  0  0  0  0 
    0.9684   -2.8187    0.8973 C   0  0  0  0  0  0  0  0  0  0  0  0 
    2.7441   -1.2545   -0.0319 C   0  0  0  0  0  0  0  0  0  0  0  0 
    2.8668    0.7776    1.4304 C   0  0  0  0  0  0  0  0  0  0  0  0 
    2.1984   -2.1639    1.0521 C   0  0  0  0  0  0  0  0  0  0  0  0 
    2.3875    0.2708    0.0700 C   0  0  0  0  0  0  0  0  0  0  0  0 
    3.9202    1.3453    1.6244 O   0  0  0  0  0  0  0  0  0  0  0  0 
    2.8351    0.6186   -2.0314 H   0  0  0  0  0  0  0  0  0  0  0  0 
    4.2058    0.9282   -0.9396 H   0  0  0  0  0  0  0  0  0  0  0  0 
    2.8767    2.0867   -1.0359 H   0  0  0  0  0  0  0  0  0  0  0  0 
    0.4829    0.1135   -0.9786 H   0  0  0  0  0  0  0  0  0  0  0  0 
    0.6219    1.5589    0.0327 H   0  0  0  0  0  0  0  0  0  0  0  0 
    0.3307   -0.0224    0.7811 H   0  0  0  0  0  0  0  0  0  0  0  0 
    0.8040   -4.5039    3.8516 H   0  0  0  0  0  0  0  0  0  0  0  0 
    3.0017   -3.3730    4.1437 H   0  0  0  0  0  0  0  0  0  0  0  0 
   -0.4889   -4.1517    1.7541 H   0  0  0  0  0  0  0  0  0  0  0  0 
    3.8862   -1.8992    2.3680 H   0  0  0  0  0  0  0  0  0  0  0  0 
    0.4018   -2.6807   -0.0207 H   0  0  0  0  0  0  0  0  0  0  0  0 
    2.3854   -1.5972   -1.0112 H   0  0  0  0  0  0  0  0  0  0  0  0 
    3.8380   -1.3339   -0.0519 H   0  0  0  0  0  0  0  0  0  0  0  0 
    2.1723    0.5792    2.2767 H   0  0  0  0  0  0  0  0  0  0  0  0 
  1 15  1  0  0  0  0 
  1 14  1  0  0  0  0 
  1 11  1  0  0  0  0 
  2 17  1  0  0  0  0 
  2 11  1  0  0  0  0 
  2 18  1  0  0  0  0 
  3  4  1  0  0  0  0 
  3 19  1  0  0  0  0 
  4 20  1  0  0  0  0 
  5  3  2  0  0  0  0 
  6 22  1  0  0  0  0 
  6  4  2  0  0  0  0 
  7 10  2  0  0  0  0 
  7  5  1  0  0  0  0 
  8 11  1  0  0  0  0 
  8 10  1  0  0  0  0 
  9 12  2  0  0  0  0 
  9 26  1  0  0  0  0 
 10  6  1  0  0  0  0 
 11  9  1  0  0  0  0 
 13  1  1  0  0  0  0 
 16  2  1  0  0  0  0 
 21  5  1  0  0  0  0 
 23  7  1  0  0  0  0 
 24  8  1  0  0  0  0 
 25  8  1  0  0  0  0 
M  END 
>  <HBA> 
1 
 
>  <HBD> 
0 
 
>  <TPSA> 
17.07 
 
>  <cid> 
70520 
 
>  <dipole> 
2.56 
 
>  <excitation_energy_1> 
4.101 
 
>  <excitation_energy_2> 
5.042 
 
>  <excitation_energy_3> 
5.299 
 
>  <excitation_energy_4> 
5.465 
 
>  <homo_energy> 
-6.498 
 
>  <homo_lumo_gap> 
5.788 
 
>  <logP> 
2.454 
 
>  <lumo_energy> 
-0.71 
 
>  <melting_point> 
54.9 
 
>  <molecular_refractivity> 
50.58 
 
>  <oscillator_strength_1> 
0.0004 
 
>  <oscillator_strength_2> 
0.0021 
 
>  <oscillator_strength_3> 
0.0032 
 
>  <oscillator_strength_4> 
0.0128 
 
>  <open_babel_can_smiles> 
O=CC(Cc1ccccc1)(C)C 
 
>  <mulliken_charges> 
26 
1   -0.442355 
2   -0.471002 
3   -0.130277 
4   -0.127958 
5   -0.128754 
6   -0.189986 
7   -0.18274 
8   -0.36155 
9   0.251239 
10   0.163322 
11   0.024025 
12   -0.397951 
13   0.138118 
14   0.165032 
15   0.149491 
16   0.148329 
17   0.152124 
18   0.161124 
19   0.131082 
20   0.133552 
21   0.130979 
22   0.138534 
23   0.125362 
24   0.148321 
25   0.158179 
26   0.113759 
 
>  <lowdin_charges> 
26 
1   -0.435642 
2   -0.447455 
3   -0.159652 
4   -0.1536 
5   -0.154224 
6   -0.167854 
7   -0.168838 
8   -0.266195 
9   0.051217 
10   -0.009717 
11   -0.022476 
12   -0.218702 
13   0.148293 
14   0.159846 
15   0.153179 
16   0.153553 
17   0.152464 
18   0.159225 
19   0.159568 
20   0.159786 
21   0.157873 
22   0.159876 
23   0.155057 
24   0.154082 
25   0.156306 
26   0.124029 
 
$$$$ 
 
