PCCDB-ID:  14354 
public computational chemistry database (PCCDB) project, http://pccdb.org 
 
 26 27  0  0  0  0  0  0  0  0999 V2000 
    1.3073    0.2126    0.2183 C   0  0  0  0  0  0  0  0  0  0  0  0 
    0.7202   -1.0313   -0.0128 C   0  0  0  0  0  0  0  0  0  0  0  0 
    0.5179    1.3383    0.4417 C   0  0  0  0  0  0  0  0  0  0  0  0 
   -2.5117   -2.6429   -0.9574 C   0  0  0  0  0  0  0  0  0  0  0  0 
   -0.6982   -3.7044    0.2021 C   0  0  0  0  0  0  0  0  0  0  0  0 
   -3.0970   -3.8813   -1.1881 C   0  0  0  0  0  0  0  0  0  0  0  0 
   -1.2758   -4.9481   -0.0203 C   0  0  0  0  0  0  0  0  0  0  0  0 
   -1.4709   -0.0605    0.2093 C   0  0  0  0  0  0  0  0  0  0  0  0 
   -1.2984   -2.5200   -0.2587 C   0  0  0  0  0  0  0  0  0  0  0  0 
   -0.6783   -1.1961   -0.0192 C   0  0  0  0  0  0  0  0  0  0  0  0 
   -2.4889   -5.0604   -0.7223 C   0  0  0  0  0  0  0  0  0  0  0  0 
   -0.8655    1.1728    0.4284 C   0  0  0  0  0  0  0  0  0  0  0  0 
   -3.1005   -6.2991   -0.8995 N   0  0  0  0  0  0  0  0  0  0  0  0 
   -1.7224    2.3472    0.6682 N   0  0  0  0  0  0  0  0  0  0  0  0 
   -1.1680    3.4249    0.8845 O   0  0  0  0  0  0  0  0  0  0  0  0 
   -2.9423    2.1853    0.6363 O   0  0  0  0  0  0  0  0  0  0  0  0 
    2.3892    0.3077    0.2115 H   0  0  0  0  0  0  0  0  0  0  0  0 
    1.3553   -1.8885   -0.2157 H   0  0  0  0  0  0  0  0  0  0  0  0 
    0.9433    2.3176    0.6195 H   0  0  0  0  0  0  0  0  0  0  0  0 
   -2.9943   -1.7543   -1.3550 H   0  0  0  0  0  0  0  0  0  0  0  0 
    0.2260   -3.6520    0.7713 H   0  0  0  0  0  0  0  0  0  0  0  0 
   -4.0322   -3.9421   -1.7401 H   0  0  0  0  0  0  0  0  0  0  0  0 
   -0.7946   -5.8444    0.3646 H   0  0  0  0  0  0  0  0  0  0  0  0 
   -2.5510   -0.1261    0.2432 H   0  0  0  0  0  0  0  0  0  0  0  0 
   -3.7571   -6.3555   -1.6676 H   0  0  0  0  0  0  0  0  0  0  0  0 
   -2.4821   -7.0998   -0.8709 H   0  0  0  0  0  0  0  0  0  0  0  0 
  1  3  2  0  0  0  0 
  2  1  1  0  0  0  0 
  3 19  1  0  0  0  0 
  4  9  1  0  0  0  0 
  5 21  1  0  0  0  0 
  6  4  2  0  0  0  0 
  6 11  1  0  0  0  0 
  7  5  1  0  0  0  0 
  7 23  1  0  0  0  0 
  8 24  1  0  0  0  0 
  8 12  2  0  0  0  0 
  9 10  1  0  0  0  0 
  9  5  2  0  0  0  0 
 10  2  2  0  0  0  0 
 10  8  1  0  0  0  0 
 11  7  2  0  0  0  0 
 12  3  1  0  0  0  0 
 12 14  1  0  0  0  0 
 13 26  1  0  0  0  0 
 13 11  1  0  0  0  0 
 14 15  2  0  0  0  0 
 16 14  2  0  0  0  0 
 17  1  1  0  0  0  0 
 18  2  1  0  0  0  0 
 20  4  1  0  0  0  0 
 22  6  1  0  0  0  0 
 25 13  1  0  0  0  0 
M  END 
>  <HBA> 
1 
 
>  <HBD> 
1 
 
>  <TPSA> 
71.84 
 
>  <cid> 
14354 
 
>  <dipole> 
6.84 
 
>  <excitation_energy_1> 
2.716 
 
>  <excitation_energy_2> 
3.745 
 
>  <excitation_energy_3> 
4.089 
 
>  <excitation_energy_4> 
4.205 
 
>  <homo_energy> 
-5.606 
 
>  <homo_lumo_gap> 
3.363 
 
>  <logP> 
3.948 
 
>  <lumo_energy> 
-2.242 
 
>  <melting_point> 
130.54 
 
>  <molecular_refractivity> 
65.1 
 
>  <oscillator_strength_1> 
0.0101 
 
>  <oscillator_strength_2> 
0.0001 
 
>  <oscillator_strength_3> 
0.0024 
 
>  <oscillator_strength_4> 
0.2638 
 
>  <open_babel_can_smiles> 
Nc1ccc(cc1)c1cccc(c1)N(=O)=O 
 
>  <mulliken_charges> 
26 
1   -0.143127 
2   -0.157395 
3   -0.153777 
4   -0.179893 
5   -0.183115 
6   -0.178816 
7   -0.178323 
8   -0.209667 
9   0.087399 
10   0.084025 
11   0.324109 
12   0.274274 
13   -0.789006 
14   0.379444 
15   -0.39619 
16   -0.396644 
17   0.145684 
18   0.14276 
19   0.179103 
20   0.138818 
21   0.132165 
22   0.124482 
23   0.122888 
24   0.181418 
25   0.324965 
26   0.324416 
 
>  <lowdin_charges> 
26 
1   -0.145719 
2   -0.144887 
3   -0.145513 
4   -0.146226 
5   -0.146413 
6   -0.194736 
7   -0.198296 
8   -0.145618 
9   -0.035737 
10   0.010363 
11   0.066131 
12   0.003238 
13   -0.481213 
14   0.305789 
15   -0.248098 
16   -0.246464 
17   0.164271 
18   0.165974 
19   0.186058 
20   0.163223 
21   0.159052 
22   0.156006 
23   0.156123 
24   0.184717 
25   0.278976 
26   0.278997 
 
$$$$ 
 
