PCCDB-ID:  31259 
public computational chemistry database (PCCDB) project, http://pccdb.org 
 
 36 35  0  0  0  0  0  0  0  0999 V2000 
    1.1113   -1.4545   -0.4353 C   0  0  0  0  0  0  0  0  0  0  0  0 
    0.6743    3.1942    0.1726 C   0  0  0  0  0  0  0  0  0  0  0  0 
   -0.1933    1.5527   -1.4986 C   0  0  0  0  0  0  0  0  0  0  0  0 
   -0.6003    1.2041    0.9804 C   0  0  0  0  0  0  0  0  0  0  0  0 
    5.4814   -1.6581    1.3587 C   0  0  0  0  0  0  0  0  0  0  0  0 
    4.0392    0.1006    2.4149 C   0  0  0  0  0  0  0  0  0  0  0  0 
    3.1769   -2.2401    2.1538 C   0  0  0  0  0  0  0  0  0  0  0  0 
    1.7542    0.9623    0.0299 C   0  0  0  0  0  0  0  0  0  0  0  0 
    3.5266   -0.7717    0.0715 C   0  0  0  0  0  0  0  0  0  0  0  0 
    2.0724   -0.3396   -0.0843 C   0  0  0  0  0  0  0  0  0  0  0  0 
    0.4115    1.6931   -0.0818 C   0  0  0  0  0  0  0  0  0  0  0  0 
    4.0363   -1.1400    1.5036 C   0  0  0  0  0  0  0  0  0  0  0  0 
    0.0733   -1.1305   -0.5106 H   0  0  0  0  0  0  0  0  0  0  0  0 
    1.1546   -2.2672    0.2988 H   0  0  0  0  0  0  0  0  0  0  0  0 
    1.3914   -1.8974   -1.4018 H   0  0  0  0  0  0  0  0  0  0  0  0 
   -0.2555    3.7709    0.1026 H   0  0  0  0  0  0  0  0  0  0  0  0 
    1.3794    3.6018   -0.5620 H   0  0  0  0  0  0  0  0  0  0  0  0 
    1.0979    3.3578    1.1711 H   0  0  0  0  0  0  0  0  0  0  0  0 
   -1.1175    2.1395   -1.5787 H   0  0  0  0  0  0  0  0  0  0  0  0 
   -0.4352    0.5154   -1.7470 H   0  0  0  0  0  0  0  0  0  0  0  0 
    0.5062    1.9213   -2.2576 H   0  0  0  0  0  0  0  0  0  0  0  0 
   -1.5273    1.7890    0.9221 H   0  0  0  0  0  0  0  0  0  0  0  0 
   -0.1907    1.3227    1.9901 H   0  0  0  0  0  0  0  0  0  0  0  0 
   -0.8647    0.1505    0.8519 H   0  0  0  0  0  0  0  0  0  0  0  0 
    5.9086   -1.9078    2.3377 H   0  0  0  0  0  0  0  0  0  0  0  0 
    6.1296   -0.9046    0.8942 H   0  0  0  0  0  0  0  0  0  0  0  0 
    5.5200   -2.5615    0.7372 H   0  0  0  0  0  0  0  0  0  0  0  0 
    4.4208   -0.1535    3.4116 H   0  0  0  0  0  0  0  0  0  0  0  0 
    3.0313    0.5111    2.5335 H   0  0  0  0  0  0  0  0  0  0  0  0 
    4.6793    0.8927    2.0060 H   0  0  0  0  0  0  0  0  0  0  0  0 
    3.5994   -2.5335    3.1229 H   0  0  0  0  0  0  0  0  0  0  0  0 
    3.1332   -3.1393    1.5267 H   0  0  0  0  0  0  0  0  0  0  0  0 
    2.1519   -1.8973    2.3325 H   0  0  0  0  0  0  0  0  0  0  0  0 
    2.5934    1.6305    0.2302 H   0  0  0  0  0  0  0  0  0  0  0  0 
    4.1787    0.0281   -0.3037 H   0  0  0  0  0  0  0  0  0  0  0  0 
    3.7063   -1.6408   -0.5779 H   0  0  0  0  0  0  0  0  0  0  0  0 
  1 10  1  0  0  0  0 
  1 14  1  0  0  0  0 
  2 18  1  0  0  0  0 
  3 11  1  0  0  0  0 
  4 23  1  0  0  0  0 
  5 12  1  0  0  0  0 
  5 25  1  0  0  0  0 
  6 29  1  0  0  0  0 
  6 28  1  0  0  0  0 
  7 33  1  0  0  0  0 
  7 31  1  0  0  0  0 
  8 34  1  0  0  0  0 
  9 12  1  0  0  0  0 
 10  8  2  0  0  0  0 
 10  9  1  0  0  0  0 
 11  8  1  0  0  0  0 
 11  2  1  0  0  0  0 
 11  4  1  0  0  0  0 
 12  7  1  0  0  0  0 
 12  6  1  0  0  0  0 
 13  1  1  0  0  0  0 
 15  1  1  0  0  0  0 
 16  2  1  0  0  0  0 
 17  2  1  0  0  0  0 
 19  3  1  0  0  0  0 
 20  3  1  0  0  0  0 
 21  3  1  0  0  0  0 
 22  4  1  0  0  0  0 
 24  4  1  0  0  0  0 
 26  5  1  0  0  0  0 
 27  5  1  0  0  0  0 
 30  6  1  0  0  0  0 
 32  7  1  0  0  0  0 
 35  9  1  0  0  0  0 
 36  9  1  0  0  0  0 
M  END 
>  <HBA> 
0 
 
>  <HBD> 
0 
 
>  <TPSA> 
0.0 
 
>  <cid> 
31259 
 
>  <dipole> 
0.26 
 
>  <excitation_energy_1> 
5.581 
 
>  <excitation_energy_2> 
5.956 
 
>  <excitation_energy_3> 
6.09 
 
>  <excitation_energy_4> 
6.164 
 
>  <homo_energy> 
-6.123 
 
>  <homo_lumo_gap> 
6.792 
 
>  <logP> 
4.415 
 
>  <lumo_energy> 
0.669 
 
>  <melting_point> 
20.04 
 
>  <molecular_refractivity> 
58.8 
 
>  <oscillator_strength_1> 
0.0209 
 
>  <oscillator_strength_2> 
0.1406 
 
>  <oscillator_strength_3> 
0.0241 
 
>  <oscillator_strength_4> 
0.0023 
 
>  <open_babel_can_smiles> 
C/C(=C\C(C)(C)C)/CC(C)(C)C 
 
>  <mulliken_charges> 
36 
1   -0.528377 
2   -0.45381 
3   -0.440038 
4   -0.441258 
5   -0.439306 
6   -0.443245 
7   -0.449129 
8   -0.186054 
9   -0.330719 
10   0.180695 
11   0.082726 
12   0.108733 
13   0.155465 
14   0.157999 
15   0.152306 
16   0.1369 
17   0.140001 
18   0.140582 
19   0.134076 
20   0.143751 
21   0.141822 
22   0.134117 
23   0.141906 
24   0.143685 
25   0.13735 
26   0.137028 
27   0.136334 
28   0.134181 
29   0.148292 
30   0.132387 
31   0.136507 
32   0.13535 
33   0.148324 
34   0.111955 
35   0.135016 
36   0.124448 
 
>  <lowdin_charges> 
36 
1   -0.449716 
2   -0.442613 
3   -0.440567 
4   -0.438453 
5   -0.443565 
6   -0.446209 
7   -0.444173 
8   -0.191406 
9   -0.276405 
10   -0.01253 
11   0.016544 
12   0.01888 
13   0.153593 
14   0.158954 
15   0.155717 
16   0.146231 
17   0.147939 
18   0.146488 
19   0.144371 
20   0.147786 
21   0.150415 
22   0.144353 
23   0.148105 
24   0.146896 
25   0.146335 
26   0.147112 
27   0.145355 
28   0.144915 
29   0.151266 
30   0.144675 
31   0.146695 
32   0.144665 
33   0.14952 
34   0.14848 
35   0.148419 
36   0.141927 
 
$$$$ 
 
