PCCDB-ID:  22252 
public computational chemistry database (PCCDB) project, http://pccdb.org 
 
 22 22  0  0  1  0  0  0  0  0999 V2000 
    0.9287   -0.9270    2.3742 C   0  0  0  0  0  0  0  0  0  0  0  0 
    2.4592   -0.9573    2.3397 C   0  0  0  0  0  0  0  0  0  0  0  0 
    3.0078   -1.1454    0.9091 C   0  0  0  0  0  0  0  0  0  0  0  0 
    4.5131   -1.2079    0.8684 C   0  0  2  0  0  0  0  0  0  0  0  0 
    6.5200   -2.3656    0.8144 C   0  0  0  0  0  0  0  0  0  0  0  0 
    6.5755    0.1071    0.9596 C   0  0  0  0  0  0  0  0  0  0  0  0 
    7.2338   -3.4231    0.7567 N   0  0  0  0  0  0  0  0  0  0  0  0 
    7.2689    1.1789    1.0217 N   0  0  0  0  0  0  0  0  0  0  0  0 
    5.1162   -2.3468    0.8044 N   0  0  0  0  0  0  0  0  0  0  0  0 
    5.1734    0.0024    0.9465 N   0  0  0  0  0  0  0  0  0  0  0  0 
    7.1747   -1.1291    0.8949 N   0  0  0  0  0  0  0  0  0  0  0  0 
    0.5627   -0.8012    3.3987 H   0  0  0  0  0  0  0  0  0  0  0  0 
    0.5060   -1.8584    1.9798 H   0  0  0  0  0  0  0  0  0  0  0  0 
    0.5314   -0.1000    1.7732 H   0  0  0  0  0  0  0  0  0  0  0  0 
    2.8328   -1.7758    2.9666 H   0  0  0  0  0  0  0  0  0  0  0  0 
    2.8571   -0.0291    2.7718 H   0  0  0  0  0  0  0  0  0  0  0  0 
    2.6516   -0.3286    0.2652 H   0  0  0  0  0  0  0  0  0  0  0  0 
    2.6351   -2.0837    0.4898 H   0  0  0  0  0  0  0  0  0  0  0  0 
    6.6081   -4.2285    0.7025 H   0  0  0  0  0  0  0  0  0  0  0  0 
    6.6793    2.0103    1.0663 H   0  0  0  0  0  0  0  0  0  0  0  0 
    4.6417    0.8606    0.9808 H   0  0  0  0  0  0  0  0  0  0  0  0 
    8.1865   -1.1419    0.8998 H   0  0  0  0  0  0  0  0  0  0  0  0 
  1 12  1  0  0  0  0 
  2  1  1  0  0  0  0 
  2 16  1  0  0  0  0 
  2 15  1  0  0  0  0 
  3  2  1  0  0  0  0 
  4  3  1  1  0  0  0 
  4 10  1  0  0  0  0 
  5 11  1  0  0  0  0 
  6  8  2  0  0  0  0 
  7  5  1  0  0  0  0 
  8 20  1  0  0  0  0 
  9  5  2  0  0  0  0 
  9  4  1  0  0  0  0 
 10  6  1  0  0  0  0 
 10 21  1  0  0  0  0 
 11 22  1  0  0  0  0 
 11  6  1  0  0  0  0 
 13  1  1  0  0  0  0 
 14  1  1  0  0  0  0 
 17  3  1  0  0  0  0 
 18  3  1  0  0  0  0 
 19  7  1  0  0  0  0 
M  RAD  2   4   2   7   2 
M  END 
>  <HBA> 
5 
 
>  <HBD> 
2 
 
>  <TPSA> 
90.71 
 
>  <cid> 
22252 
 
>  <dipole> 
5.91 
 
>  <excitation_energy_1> 
4.822 
 
>  <excitation_energy_2> 
5.138 
 
>  <excitation_energy_3> 
5.34 
 
>  <excitation_energy_4> 
5.356 
 
>  <homo_energy> 
-6.275 
 
>  <homo_lumo_gap> 
5.47 
 
>  <logP> 
1.151 
 
>  <lumo_energy> 
-0.805 
 
>  <melting_point> 
152.66 
 
>  <molecular_refractivity> 
43.22 
 
>  <oscillator_strength_1> 
0.0282 
 
>  <oscillator_strength_2> 
0.0775 
 
>  <oscillator_strength_3> 
0.0078 
 
>  <oscillator_strength_4> 
0.0002 
 
>  <open_babel_can_smiles> 
CCC[C]1NC(=N)NC(=N1)[NH] 
 
>  <mulliken_charges> 
22 
1   -0.442784 
2   -0.257486 
3   -0.342008 
4   0.522257 
5   0.603648 
6   0.689641 
7   -0.647456 
8   -0.646154 
9   -0.504219 
10   -0.681415 
11   -0.643615 
12   0.155396 
13   0.154574 
14   0.144812 
15   0.16513 
16   0.134066 
17   0.144976 
18   0.184875 
19   0.295288 
20   0.274487 
21   0.337561 
22   0.358425 
 
>  <lowdin_charges> 
22 
1   -0.44362 
2   -0.26928 
3   -0.284162 
4   0.123218 
5   0.117007 
6   0.139511 
7   -0.42617 
8   -0.456497 
9   -0.224473 
10   -0.253592 
11   -0.231208 
12   0.156396 
13   0.153676 
14   0.149189 
15   0.157638 
16   0.139972 
17   0.151738 
18   0.176166 
19   0.26401 
20   0.254573 
21   0.295974 
22   0.309933 
 
$$$$ 
 
