PCCDB-ID:  16722 
public computational chemistry database (PCCDB) project, http://pccdb.org 
 
 33 32  0  0  0  0  0  0  0  0999 V2000 
    6.7790   -4.4190    1.5285 C   0  0  0  0  0  0  0  0  0  0  0  0 
    6.4655   -2.9588    1.8763 C   0  0  0  0  0  0  0  0  0  0  0  0 
    6.7765   -1.9543    0.7538 C   0  0  0  0  0  0  0  0  0  0  0  0 
    5.9126   -2.1229   -0.5054 C   0  0  0  0  0  0  0  0  0  0  0  0 
    6.0986   -1.0129   -1.5558 C   0  0  0  0  0  0  0  0  0  0  0  0 
    7.4986   -0.9073   -2.1871 C   0  0  0  0  0  0  0  0  0  0  0  0 
    7.9174   -2.1278   -3.0188 C   0  0  0  0  0  0  0  0  0  0  0  0 
    9.2857   -1.9530   -3.6911 C   0  0  0  0  0  0  0  0  0  0  0  0 
    9.7204   -3.1793   -4.5021 C   0  0  0  0  0  0  0  0  0  0  0  0 
   11.0954   -2.9720   -5.1722 C   0  0  0  0  0  0  0  0  0  0  0  0 
   11.5359   -4.1399   -5.9410 C   0  0  0  0  0  0  0  0  0  0  0  0 
   11.8688   -5.0748   -6.5434 N   0  0  0  0  0  0  0  0  0  0  0  0 
    6.5805   -5.0778    2.3816 H   0  0  0  0  0  0  0  0  0  0  0  0 
    7.8346   -4.5412    1.2538 H   0  0  0  0  0  0  0  0  0  0  0  0 
    6.1739   -4.7789    0.6888 H   0  0  0  0  0  0  0  0  0  0  0  0 
    7.0395   -2.6757    2.7689 H   0  0  0  0  0  0  0  0  0  0  0  0 
    5.4058   -2.8692    2.1559 H   0  0  0  0  0  0  0  0  0  0  0  0 
    7.8416   -2.0329    0.4923 H   0  0  0  0  0  0  0  0  0  0  0  0 
    6.6339   -0.9356    1.1433 H   0  0  0  0  0  0  0  0  0  0  0  0 
    4.8547   -2.1363   -0.2058 H   0  0  0  0  0  0  0  0  0  0  0  0 
    6.1049   -3.1016   -0.9637 H   0  0  0  0  0  0  0  0  0  0  0  0 
    5.8519   -0.0468   -1.0929 H   0  0  0  0  0  0  0  0  0  0  0  0 
    5.3623   -1.1612   -2.3587 H   0  0  0  0  0  0  0  0  0  0  0  0 
    8.2493   -0.7278   -1.4049 H   0  0  0  0  0  0  0  0  0  0  0  0 
    7.5202   -0.0167   -2.8313 H   0  0  0  0  0  0  0  0  0  0  0  0 
    7.1565   -2.3208   -3.7895 H   0  0  0  0  0  0  0  0  0  0  0  0 
    7.9429   -3.0246   -2.3847 H   0  0  0  0  0  0  0  0  0  0  0  0 
   10.0435   -1.7370   -2.9235 H   0  0  0  0  0  0  0  0  0  0  0  0 
    9.2582   -1.0714   -4.3485 H   0  0  0  0  0  0  0  0  0  0  0  0 
    8.9754   -3.4026   -5.2758 H   0  0  0  0  0  0  0  0  0  0  0  0 
    9.7696   -4.0614   -3.8517 H   0  0  0  0  0  0  0  0  0  0  0  0 
   11.8569   -2.7502   -4.4135 H   0  0  0  0  0  0  0  0  0  0  0  0 
   11.0626   -2.1058   -5.8455 H   0  0  0  0  0  0  0  0  0  0  0  0 
  1  2  1  0  0  0  0 
  1 13  1  0  0  0  0 
  2 17  1  0  0  0  0 
  2 16  1  0  0  0  0 
  3 19  1  0  0  0  0 
  3  2  1  0  0  0  0 
  4 20  1  0  0  0  0 
  4  3  1  0  0  0  0 
  5 22  1  0  0  0  0 
  5  4  1  0  0  0  0 
  6  5  1  0  0  0  0 
  6 24  1  0  0  0  0 
  7 27  1  0  0  0  0 
  7  6  1  0  0  0  0 
  8  7  1  0  0  0  0 
  8 28  1  0  0  0  0 
  9 31  1  0  0  0  0 
  9  8  1  0  0  0  0 
 10  9  1  0  0  0  0 
 10 32  1  0  0  0  0 
 11 10  1  0  0  0  0 
 12 11  3  0  0  0  0 
 14  1  1  0  0  0  0 
 15  1  1  0  0  0  0 
 18  3  1  0  0  0  0 
 21  4  1  0  0  0  0 
 23  5  1  0  0  0  0 
 25  6  1  0  0  0  0 
 26  7  1  0  0  0  0 
 29  8  1  0  0  0  0 
 30  9  1  0  0  0  0 
 33 10  1  0  0  0  0 
M  END 
>  <HBA> 
1 
 
>  <HBD> 
0 
 
>  <TPSA> 
23.79 
 
>  <cid> 
16722 
 
>  <dipole> 
4.32 
 
>  <excitation_energy_1> 
7.599 
 
>  <excitation_energy_2> 
7.708 
 
>  <excitation_energy_3> 
7.735 
 
>  <excitation_energy_4> 
7.837 
 
>  <homo_energy> 
-8.37 
 
>  <homo_lumo_gap> 
9.383 
 
>  <logP> 
4.041 
 
>  <lumo_energy> 
1.012 
 
>  <melting_point> 
4.02 
 
>  <molecular_refractivity> 
54.74 
 
>  <oscillator_strength_1> 
0.0001 
 
>  <oscillator_strength_2> 
0.0242 
 
>  <oscillator_strength_3> 
0.0014 
 
>  <oscillator_strength_4> 
0.004 
 
>  <open_babel_can_smiles> 
CCCCCCCCCCC#N 
 
>  <mulliken_charges> 
33 
1   -0.443426 
2   -0.249441 
3   -0.250212 
4   -0.258296 
5   -0.259216 
6   -0.258071 
7   -0.25674 
8   -0.256472 
9   -0.263204 
10   -0.341079 
11   0.348206 
12   -0.474705 
13   0.143651 
14   0.138936 
15   0.146432 
16   0.130836 
17   0.13046 
18   0.127909 
19   0.126985 
20   0.128767 
21   0.136378 
22   0.128917 
23   0.127505 
24   0.133948 
25   0.128701 
26   0.132126 
27   0.137959 
28   0.133637 
29   0.13372 
30   0.15742 
31   0.157344 
32   0.190438 
33   0.190588 
 
>  <lowdin_charges> 
33 
1   -0.447584 
2   -0.271314 
3   -0.275597 
4   -0.278791 
5   -0.275942 
6   -0.278954 
7   -0.276821 
8   -0.275995 
9   -0.266632 
10   -0.275841 
11   -0.017099 
12   -0.131602 
13   0.15116 
14   0.143612 
15   0.14809 
16   0.142101 
17   0.137317 
18   0.135043 
19   0.138821 
20   0.139985 
21   0.139454 
22   0.140883 
23   0.141017 
24   0.140506 
25   0.14148 
26   0.141074 
27   0.142105 
28   0.141496 
29   0.140939 
30   0.154519 
31   0.153885 
32   0.179512 
33   0.179173 
 
$$$$ 
 
