PCCDB-ID:  25375 
public computational chemistry database (PCCDB) project, http://pccdb.org 
 
 17 17  0  0  0  0  0  0  0  0999 V2000 
    1.1622    0.1743    0.0452 C   0  0  0  0  0  0  0  0  0  0  0  0 
    3.0933   -2.5154    0.0509 C   0  0  0  0  0  0  0  0  0  0  0  0 
    3.4088    2.6109    0.0381 C   0  0  0  0  0  0  0  0  0  0  0  0 
    2.6619    0.0959    0.0449 C   0  0  0  0  0  0  0  0  0  0  0  0 
    3.4996   -1.0684    0.0469 C   0  0  0  0  0  0  0  0  0  0  0  0 
    3.5590    1.1280    0.0415 C   0  0  0  0  0  0  0  0  0  0  0  0 
    4.7772   -0.7547    0.0450 N   0  0  0  0  0  0  0  0  0  0  0  0 
    4.8188    0.6446    0.0416 O   0  0  0  0  0  0  0  0  0  0  0  0 
    0.7143   -0.8238    0.0463 H   0  0  0  0  0  0  0  0  0  0  0  0 
    0.7792    0.6984   -0.8389 H   0  0  0  0  0  0  0  0  0  0  0  0 
    0.7796    0.7001    0.9285 H   0  0  0  0  0  0  0  0  0  0  0  0 
    2.0053   -2.6213    0.0506 H   0  0  0  0  0  0  0  0  0  0  0  0 
    3.4845   -3.0277    0.9359 H   0  0  0  0  0  0  0  0  0  0  0  0 
    3.4855   -3.0328   -0.8307 H   0  0  0  0  0  0  0  0  0  0  0  0 
    2.3507    2.8859    0.0444 H   0  0  0  0  0  0  0  0  0  0  0  0 
    3.8751    3.0532   -0.8503 H   0  0  0  0  0  0  0  0  0  0  0  0 
    3.8872    3.0581    0.9173 H   0  0  0  0  0  0  0  0  0  0  0  0 
  1  9  1  0  0  0  0 
  1 11  1  0  0  0  0 
  2 13  1  0  0  0  0 
  3  6  1  0  0  0  0 
  3 15  1  0  0  0  0 
  3 17  1  0  0  0  0 
  4  1  1  0  0  0  0 
  4  5  1  0  0  0  0 
  5  2  1  0  0  0  0 
  6  8  1  0  0  0  0 
  6  4  2  0  0  0  0 
  7  5  2  0  0  0  0 
  8  7  1  0  0  0  0 
 10  1  1  0  0  0  0 
 12  2  1  0  0  0  0 
 14  2  1  0  0  0  0 
 16  3  1  0  0  0  0 
M  END 
>  <HBA> 
2 
 
>  <HBD> 
0 
 
>  <TPSA> 
26.03 
 
>  <cid> 
25375 
 
>  <dipole> 
3.34 
 
>  <excitation_energy_1> 
5.854 
 
>  <excitation_energy_2> 
5.902 
 
>  <excitation_energy_3> 
6.311 
 
>  <excitation_energy_4> 
6.377 
 
>  <homo_energy> 
-6.43 
 
>  <homo_lumo_gap> 
6.351 
 
>  <logP> 
1.6 
 
>  <lumo_energy> 
-0.079 
 
>  <melting_point> 
31.56 
 
>  <molecular_refractivity> 
31.4 
 
>  <oscillator_strength_1> 
0.0006 
 
>  <oscillator_strength_2> 
0.1523 
 
>  <oscillator_strength_3> 
0.0 
 
>  <oscillator_strength_4> 
0.0096 
 
>  <open_babel_can_smiles> 
Cc1c(C)noc1C 
 
>  <mulliken_charges> 
17 
1   -0.541037 
2   -0.518464 
3   -0.52614 
4   -0.002946 
5   0.284948 
6   0.370902 
7   -0.232303 
8   -0.374569 
9   0.162196 
10   0.164946 
11   0.164936 
12   0.156645 
13   0.180338 
14   0.180354 
15   0.166939 
16   0.181598 
17   0.181658 
 
>  <lowdin_charges> 
17 
1   -0.440135 
2   -0.441916 
3   -0.44292 
4   -0.093809 
5   0.009978 
6   0.078815 
7   -0.096604 
8   -0.080428 
9   0.161099 
10   0.161994 
11   0.161979 
12   0.157775 
13   0.17375 
14   0.173788 
15   0.167706 
16   0.174393 
17   0.174533 
 
$$$$ 
 
