PCCDB-ID:  73556 
public computational chemistry database (PCCDB) project, http://pccdb.org 
 
 30 30  0  0  1  0  0  0  0  0999 V2000 
    1.0515    0.4776   -3.3985 C   0  0  0  0  0  0  0  0  0  0  0  0 
    1.8705   -1.2137   -1.7140 C   0  0  0  0  0  0  0  0  0  0  0  0 
    3.9213    2.9049    1.0569 C   0  0  0  0  0  0  0  0  0  0  0  0 
    4.6455    0.4680   -1.7595 C   0  0  0  0  0  0  0  0  0  0  0  0 
    5.1533    1.4600   -0.6769 C   0  0  0  0  0  0  0  0  0  0  0  0 
    2.7451    1.6987   -0.9037 C   0  0  0  0  0  0  0  0  0  0  0  0 
    2.2916   -0.1414   -2.7323 C   0  0  0  0  0  0  0  0  0  0  0  0 
    3.2280    0.9488   -2.1604 C   0  0  2  0  0  0  0  0  0  0  0  0 
    4.2067    3.7203   -1.3073 C   0  0  0  0  0  0  0  0  0  0  0  0 
    4.0037    2.4726   -0.4209 C   0  0  1  0  0  0  0  0  0  0  0  0 
    5.1502    3.9141   -2.0334 O   0  0  0  0  0  0  0  0  0  0  0  0 
    3.2185    4.6589   -1.2433 O   0  0  0  0  0  0  0  0  0  0  0  0 
    1.3325    1.2165   -4.1582 H   0  0  0  0  0  0  0  0  0  0  0  0 
    0.4428   -0.2918   -3.8879 H   0  0  0  0  0  0  0  0  0  0  0  0 
    0.4116    0.9816   -2.6630 H   0  0  0  0  0  0  0  0  0  0  0  0 
    1.3042   -2.0089   -2.2126 H   0  0  0  0  0  0  0  0  0  0  0  0 
    1.2235   -0.7970   -0.9323 H   0  0  0  0  0  0  0  0  0  0  0  0 
    2.7296   -1.6836   -1.2223 H   0  0  0  0  0  0  0  0  0  0  0  0 
    3.7860    2.0240    1.6936 H   0  0  0  0  0  0  0  0  0  0  0  0 
    3.0828    3.5834    1.2601 H   0  0  0  0  0  0  0  0  0  0  0  0 
    4.8390    3.4138    1.3726 H   0  0  0  0  0  0  0  0  0  0  0  0 
    4.6027   -0.5475   -1.3495 H   0  0  0  0  0  0  0  0  0  0  0  0 
    5.3095    0.4300   -2.6287 H   0  0  0  0  0  0  0  0  0  0  0  0 
    6.0573    1.9871   -0.9876 H   0  0  0  0  0  0  0  0  0  0  0  0 
    5.3807    0.9306    0.2549 H   0  0  0  0  0  0  0  0  0  0  0  0 
    2.4544    0.9910   -0.1165 H   0  0  0  0  0  0  0  0  0  0  0  0 
    1.8773    2.3430   -1.0923 H   0  0  0  0  0  0  0  0  0  0  0  0 
    2.8659   -0.6494   -3.5224 H   0  0  0  0  0  0  0  0  0  0  0  0 
    3.3525    1.7003   -2.9538 H   0  0  0  0  0  0  0  0  0  0  0  0 
    2.5258    4.3705   -0.6272 H   0  0  0  0  0  0  0  0  0  0  0  0 
  1  7  1  0  0  0  0 
  1 15  1  0  0  0  0 
  2 18  1  0  0  0  0 
  2 17  1  0  0  0  0 
  3 20  1  0  0  0  0 
  3 21  1  0  0  0  0 
  3 19  1  0  0  0  0 
  4 22  1  0  0  0  0 
  4  5  1  0  0  0  0 
  5 10  1  0  0  0  0 
  5 25  1  0  0  0  0 
  6 10  1  0  0  0  0 
  6 26  1  0  0  0  0 
  7  8  1  0  0  0  0 
  7  2  1  0  0  0  0 
  8 29  1  6  0  0  0 
  8  4  1  0  0  0  0 
  8  6  1  0  0  0  0 
  9 12  1  0  0  0  0 
 10  9  1  6  0  0  0 
 10  3  1  0  0  0  0 
 11  9  2  0  0  0  0 
 12 30  1  0  0  0  0 
 13  1  1  0  0  0  0 
 14  1  1  0  0  0  0 
 16  2  1  0  0  0  0 
 23  4  1  0  0  0  0 
 24  5  1  0  0  0  0 
 27  6  1  0  0  0  0 
 28  7  1  0  0  0  0 
M  END 
>  <HBA> 
2 
 
>  <HBD> 
1 
 
>  <TPSA> 
37.3 
 
>  <cid> 
73556 
 
>  <dipole> 
4.04 
 
>  <excitation_energy_1> 
5.604 
 
>  <excitation_energy_2> 
6.381 
 
>  <excitation_energy_3> 
7.122 
 
>  <excitation_energy_4> 
7.165 
 
>  <homo_energy> 
-7.165 
 
>  <homo_lumo_gap> 
7.505 
 
>  <logP> 
2.533 
 
>  <lumo_energy> 
0.34 
 
>  <melting_point> 
89.2 
 
>  <molecular_refractivity> 
49.58 
 
>  <oscillator_strength_1> 
0.0027 
 
>  <oscillator_strength_2> 
0.0106 
 
>  <oscillator_strength_3> 
0.0118 
 
>  <oscillator_strength_4> 
0.0224 
 
>  <open_babel_can_smiles> 
CC([C@@H]1CC[C@@](C1)(C)C(=O)O)C 
 
>  <mulliken_charges> 
30 
1   -0.449789 
2   -0.45444 
3   -0.468274 
4   -0.283978 
5   -0.284153 
6   -0.29925 
7   -0.073242 
8   -0.083463 
9   0.608862 
10   -0.033771 
11   -0.448712 
12   -0.57748 
13   0.14587 
14   0.142366 
15   0.138001 
16   0.144556 
17   0.139686 
18   0.144485 
19   0.158025 
20   0.129482 
21   0.169127 
22   0.135506 
23   0.147943 
24   0.17535 
25   0.131598 
26   0.143057 
27   0.125262 
28   0.126899 
29   0.140064 
30   0.410415 
 
>  <lowdin_charges> 
30 
1   -0.448965 
2   -0.452227 
3   -0.442773 
4   -0.284025 
5   -0.282778 
6   -0.287659 
7   -0.121938 
8   -0.133306 
9   0.192073 
10   -0.03354 
11   -0.239316 
12   -0.359653 
13   0.150826 
14   0.150696 
15   0.14499 
16   0.15271 
17   0.145425 
18   0.148683 
19   0.15781 
20   0.141714 
21   0.162392 
22   0.141755 
23   0.152822 
24   0.168201 
25   0.144692 
26   0.148205 
27   0.138711 
28   0.141874 
29   0.147183 
30   0.355418 
 
$$$$ 
 
