PCCDB-ID:  69065 
public computational chemistry database (PCCDB) project, http://pccdb.org 
 
 24 25  0  0  0  0  0  0  0  0999 V2000 
   -2.6704   -0.7161   -0.0252 C   0  0  0  0  0  0  0  0  0  0  0  0 
   -2.6793    0.6934   -0.0031 C   0  0  0  0  0  0  0  0  0  0  0  0 
   -1.4792   -1.4048   -0.0287 C   0  0  0  0  0  0  0  0  0  0  0  0 
   -1.4969    1.3967    0.0189 C   0  0  0  0  0  0  0  0  0  0  0  0 
    2.2109   -0.6821    0.0162 C   0  0  0  0  0  0  0  0  0  0  0  0 
    2.2022    0.7195    0.0328 C   0  0  0  0  0  0  0  0  0  0  0  0 
   -0.2319   -0.7191   -0.0092 C   0  0  0  0  0  0  0  0  0  0  0  0 
   -0.2410    0.7267    0.0188 C   0  0  0  0  0  0  0  0  0  0  0  0 
    1.0316   -1.4082   -0.0069 C   0  0  0  0  0  0  0  0  0  0  0  0 
    1.0139    1.4312    0.0367 C   0  0  0  0  0  0  0  0  0  0  0  0 
    1.1365   -2.9001   -0.0409 C   0  0  0  0  0  0  0  0  0  0  0  0 
    1.1000    2.9243    0.0711 C   0  0  0  0  0  0  0  0  0  0  0  0 
    2.4173   -3.3315    0.1190 O   0  0  0  0  0  0  0  0  0  0  0  0 
    0.2345   -3.7013   -0.1950 O   0  0  0  0  0  0  0  0  0  0  0  0 
    2.3795    3.3710   -0.0537 O   0  0  0  0  0  0  0  0  0  0  0  0 
    0.1845    3.7150    0.1982 O   0  0  0  0  0  0  0  0  0  0  0  0 
   -3.6081   -1.2651   -0.0411 H   0  0  0  0  0  0  0  0  0  0  0  0 
   -3.6238    1.2308   -0.0018 H   0  0  0  0  0  0  0  0  0  0  0  0 
   -1.4735   -2.4845   -0.0529 H   0  0  0  0  0  0  0  0  0  0  0  0 
   -1.5050    2.4765    0.0429 H   0  0  0  0  0  0  0  0  0  0  0  0 
    3.1590   -1.2044    0.0180 H   0  0  0  0  0  0  0  0  0  0  0  0 
    3.1438    1.2532    0.0460 H   0  0  0  0  0  0  0  0  0  0  0  0 
    2.3658   -4.3036    0.0651 H   0  0  0  0  0  0  0  0  0  0  0  0 
    2.3144    4.3425   -0.0043 H   0  0  0  0  0  0  0  0  0  0  0  0 
  1  2  1  0  0  0  0 
  2 18  1  0  0  0  0 
  2  4  2  0  0  0  0 
  3  1  2  0  0  0  0 
  3  7  1  0  0  0  0 
  4 20  1  0  0  0  0 
  5 21  1  0  0  0  0 
  5  6  2  0  0  0  0 
  6 10  1  0  0  0  0 
  6 22  1  0  0  0  0 
  7  9  2  0  0  0  0 
  7  8  1  0  0  0  0 
  8  4  1  0  0  0  0 
  8 10  2  0  0  0  0 
  9  5  1  0  0  0  0 
 10 12  1  0  0  0  0 
 11  9  1  0  0  0  0 
 11 13  1  0  0  0  0 
 12 16  2  0  0  0  0 
 14 11  2  0  0  0  0 
 15 24  1  0  0  0  0 
 15 12  1  0  0  0  0 
 17  1  1  0  0  0  0 
 19  3  1  0  0  0  0 
 23 13  1  0  0  0  0 
M  END 
>  <HBA> 
4 
 
>  <HBD> 
2 
 
>  <TPSA> 
74.6 
 
>  <cid> 
69065 
 
>  <dipole> 
1.88 
 
>  <excitation_energy_1> 
3.275 
 
>  <excitation_energy_2> 
3.866 
 
>  <excitation_energy_3> 
4.014 
 
>  <excitation_energy_4> 
4.333 
 
>  <homo_energy> 
-6.264 
 
>  <homo_lumo_gap> 
3.848 
 
>  <logP> 
2.236 
 
>  <lumo_energy> 
-2.416 
 
>  <melting_point> 
232.31 
 
>  <molecular_refractivity> 
57.87 
 
>  <oscillator_strength_1> 
0.1012 
 
>  <oscillator_strength_2> 
0.0672 
 
>  <oscillator_strength_3> 
0.0013 
 
>  <oscillator_strength_4> 
0.0 
 
>  <open_babel_can_smiles> 
OC(=O)c1ccc(c2c1cccc2)C(=O)O 
 
>  <mulliken_charges> 
24 
1   -0.131029 
2   -0.13113 
3   -0.19743 
4   -0.197454 
5   -0.179228 
6   -0.179457 
7   0.061896 
8   0.061729 
9   0.029944 
10   0.029598 
11   0.561241 
12   0.562023 
13   -0.584904 
14   -0.474539 
15   -0.585176 
16   -0.474712 
17   0.136949 
18   0.136938 
19   0.189129 
20   0.189324 
21   0.173678 
22   0.173789 
23   0.414407 
24   0.414416 
 
>  <lowdin_charges> 
24 
1   -0.147825 
2   -0.147708 
3   -0.160108 
4   -0.160169 
5   -0.139828 
6   -0.139833 
7   0.009058 
8   0.009051 
9   -0.032407 
10   -0.032542 
11   0.206023 
12   0.205977 
13   -0.358854 
14   -0.26693 
15   -0.358881 
16   -0.266961 
17   0.161876 
18   0.161801 
19   0.18622 
20   0.186307 
21   0.180557 
22   0.180676 
23   0.36223 
24   0.362271 
 
$$$$ 
 
