PCCDB-ID:  17326 
public computational chemistry database (PCCDB) project, http://pccdb.org 
 
 21 21  0  0  1  0  0  0  0  0999 V2000 
    2.7689    0.0417   -1.6033 C   0  0  0  0  0  0  0  0  0  0  0  0 
    3.7682    1.4785    3.1935 C   0  0  0  0  0  0  0  0  0  0  0  0 
    2.8330   -1.2025    0.6609 C   0  0  0  0  0  0  0  0  0  0  0  0 
    3.0181   -0.7459    2.1132 C   0  0  0  0  0  0  0  0  0  0  0  0 
    3.3769    1.1845    0.6448 C   0  0  0  0  0  0  0  0  0  0  0  0 
    2.5264    0.1086   -0.0945 C   0  0  1  0  0  0  0  0  0  0  0  0 
    3.8552    0.5458    1.9841 C   0  0  1  0  0  0  0  0  0  0  0  0 
    2.1546   -0.7360   -2.0737 H   0  0  0  0  0  0  0  0  0  0  0  0 
    3.8205   -0.1877   -1.8196 H   0  0  0  0  0  0  0  0  0  0  0  0 
    2.5296    0.9943   -2.0913 H   0  0  0  0  0  0  0  0  0  0  0  0 
    2.7348    1.8109    3.3571 H   0  0  0  0  0  0  0  0  0  0  0  0 
    4.3870    2.3735    3.0553 H   0  0  0  0  0  0  0  0  0  0  0  0 
    4.1067    0.9790    4.1097 H   0  0  0  0  0  0  0  0  0  0  0  0 
    2.0501   -1.9592    0.5322 H   0  0  0  0  0  0  0  0  0  0  0  0 
    3.7704   -1.6384    0.2847 H   0  0  0  0  0  0  0  0  0  0  0  0 
    3.4950   -1.4969    2.7540 H   0  0  0  0  0  0  0  0  0  0  0  0 
    2.0392   -0.5133    2.5580 H   0  0  0  0  0  0  0  0  0  0  0  0 
    2.7852    2.0901    0.8278 H   0  0  0  0  0  0  0  0  0  0  0  0 
    4.2347    1.4940    0.0346 H   0  0  0  0  0  0  0  0  0  0  0  0 
    1.4643    0.3401    0.0711 H   0  0  0  0  0  0  0  0  0  0  0  0 
    4.9054    0.2440    1.8614 H   0  0  0  0  0  0  0  0  0  0  0  0 
  1  6  1  0  0  0  0 
  2 11  1  0  0  0  0 
  2 13  1  0  0  0  0 
  3  4  1  0  0  0  0 
  4 17  1  0  0  0  0 
  4 16  1  0  0  0  0 
  5 18  1  0  0  0  0 
  5  7  1  0  0  0  0 
  6 20  1  1  0  0  0 
  6  5  1  0  0  0  0 
  6  3  1  0  0  0  0 
  7 21  1  6  0  0  0 
  7  4  1  0  0  0  0 
  7  2  1  0  0  0  0 
  8  1  1  0  0  0  0 
  9  1  1  0  0  0  0 
 10  1  1  0  0  0  0 
 12  2  1  0  0  0  0 
 14  3  1  0  0  0  0 
 15  3  1  0  0  0  0 
 19  5  1  0  0  0  0 
M  END 
>  <HBA> 
0 
 
>  <HBD> 
0 
 
>  <TPSA> 
0.0 
 
>  <cid> 
17326 
 
>  <dipole> 
0.01 
 
>  <excitation_energy_1> 
7.636 
 
>  <excitation_energy_2> 
7.728 
 
>  <excitation_energy_3> 
7.858 
 
>  <excitation_energy_4> 
7.941 
 
>  <homo_energy> 
-8.15 
 
>  <homo_lumo_gap> 
10.515 
 
>  <logP> 
2.442 
 
>  <lumo_energy> 
2.365 
 
>  <melting_point> 
-4.65 
 
>  <molecular_refractivity> 
33.65 
 
>  <oscillator_strength_1> 
0.0022 
 
>  <oscillator_strength_2> 
0.0177 
 
>  <oscillator_strength_3> 
0.0298 
 
>  <oscillator_strength_4> 
0.0029 
 
>  <open_babel_can_smiles> 
C[C@H]1CC[C@@H](C1)C 
 
>  <mulliken_charges> 
21 
1   -0.450791 
2   -0.451026 
3   -0.267168 
4   -0.267158 
5   -0.279552 
6   -0.066597 
7   -0.066833 
8   0.139089 
9   0.137492 
10   0.140744 
11   0.137539 
12   0.140755 
13   0.139144 
14   0.129062 
15   0.125927 
16   0.129119 
17   0.12613 
18   0.13062 
19   0.130499 
20   0.121384 
21   0.121621 
 
>  <lowdin_charges> 
21 
1   -0.443801 
2   -0.443171 
3   -0.283178 
4   -0.283592 
5   -0.290245 
6   -0.124555 
7   -0.125383 
8   0.148276 
9   0.142884 
10   0.147838 
11   0.143164 
12   0.147991 
13   0.147389 
14   0.143245 
15   0.137395 
16   0.14393 
17   0.136991 
18   0.142871 
19   0.143271 
20   0.134119 
21   0.134562 
 
$$$$ 
 
