PCCDB-ID:  20112 
public computational chemistry database (PCCDB) project, http://pccdb.org 
 
 17 16  0  0  1  0  0  0  0  0999 V2000 
    1.8326    0.5430    1.7942 C   0  0  0  0  0  0  0  0  0  0  0  0 
    3.1907   -3.5611    1.1872 C   0  0  0  0  0  0  0  0  0  0  0  0 
    2.8684   -1.1831    0.2071 C   0  0  0  0  0  0  0  0  0  0  0  0 
    2.0036    0.0893    0.3389 C   0  0  1  0  0  0  0  0  0  0  0  0 
    2.2478   -2.4357    0.8130 C   0  0  0  0  0  0  0  0  0  0  0  0 
    0.7546   -0.0756   -0.3156 O   0  0  0  0  0  0  0  0  0  0  0  0 
    1.0406   -2.5450    0.9756 O   0  0  0  0  0  0  0  0  0  0  0  0 
    2.8005    0.7664    2.2603 H   0  0  0  0  0  0  0  0  0  0  0  0 
    1.3303   -0.2254    2.3922 H   0  0  0  0  0  0  0  0  0  0  0  0 
    1.2191    1.4487    1.8234 H   0  0  0  0  0  0  0  0  0  0  0  0 
    3.8594   -3.8012    0.3514 H   0  0  0  0  0  0  0  0  0  0  0  0 
    2.6223   -4.4467    1.4778 H   0  0  0  0  0  0  0  0  0  0  0  0 
    3.8292   -3.2469    2.0231 H   0  0  0  0  0  0  0  0  0  0  0  0 
    3.8702   -1.0258    0.6282 H   0  0  0  0  0  0  0  0  0  0  0  0 
    3.0152   -1.3967   -0.8625 H   0  0  0  0  0  0  0  0  0  0  0  0 
    2.5148    0.8881   -0.2123 H   0  0  0  0  0  0  0  0  0  0  0  0 
    0.3524   -0.8629    0.0960 H   0  0  0  0  0  0  0  0  0  0  0  0 
  1 10  1  0  0  0  0 
  1  8  1  0  0  0  0 
  1  9  1  0  0  0  0 
  2 12  1  0  0  0  0 
  2 13  1  0  0  0  0 
  3  4  1  0  0  0  0 
  3 14  1  0  0  0  0 
  3  5  1  0  0  0  0 
  4 16  1  6  0  0  0 
  4  1  1  0  0  0  0 
  5  7  2  0  0  0  0 
  5  2  1  0  0  0  0 
  6 17  1  0  0  0  0 
  6  4  1  0  0  0  0 
 11  2  1  0  0  0  0 
 15  3  1  0  0  0  0 
M  END 
>  <HBA> 
2 
 
>  <HBD> 
1 
 
>  <TPSA> 
37.3 
 
>  <cid> 
20112 
 
>  <dipole> 
3.65 
 
>  <excitation_energy_1> 
4.363 
 
>  <excitation_energy_2> 
5.247 
 
>  <excitation_energy_3> 
6.276 
 
>  <excitation_energy_4> 
6.456 
 
>  <homo_energy> 
-6.871 
 
>  <homo_lumo_gap> 
6.095 
 
>  <logP> 
0.346 
 
>  <lumo_energy> 
-0.776 
 
>  <melting_point> 
14.11 
 
>  <molecular_refractivity> 
27.51 
 
>  <oscillator_strength_1> 
0.0001 
 
>  <oscillator_strength_2> 
0.0012 
 
>  <oscillator_strength_3> 
0.0259 
 
>  <oscillator_strength_4> 
0.0155 
 
>  <open_babel_can_smiles> 
C[C@@H](CC(=O)C)O 
 
>  <mulliken_charges> 
17 
1   -0.463581 
2   -0.530444 
3   -0.369374 
4   0.147776 
5   0.464696 
6   -0.642476 
7   -0.45632 
8   0.130903 
9   0.153282 
10   0.161798 
11   0.172839 
12   0.18404 
13   0.176884 
14   0.147143 
15   0.180745 
16   0.132437 
17   0.409652 
 
>  <lowdin_charges> 
17 
1   -0.467574 
2   -0.472849 
3   -0.328639 
4   0.006616 
5   0.17802 
6   -0.475943 
7   -0.246979 
8   0.145853 
9   0.154816 
10   0.161438 
11   0.172509 
12   0.175371 
13   0.175806 
14   0.157188 
15   0.176494 
16   0.144282 
17   0.343591 
 
$$$$ 
 
