PCCDB-ID:  21387 
public computational chemistry database (PCCDB) project, http://pccdb.org 
 
 27 30  0  0  0  0  0  0  0  0999 V2000 
    3.5217    0.0072   -0.0012 C   0  0  0  0  0  0  0  0  0  0  0  0 
    2.8277   -1.2021   -0.0013 C   0  0  0  0  0  0  0  0  0  0  0  0 
    2.8348    1.2192   -0.0004 C   0  0  0  0  0  0  0  0  0  0  0  0 
    0.6758   -2.4535   -0.0014 C   0  0  0  0  0  0  0  0  0  0  0  0 
   -0.6856   -2.4505   -0.0008 C   0  0  0  0  0  0  0  0  0  0  0  0 
    0.6864    2.4769    0.0010 C   0  0  0  0  0  0  0  0  0  0  0  0 
   -2.8321   -1.1894    0.0002 C   0  0  0  0  0  0  0  0  0  0  0  0 
   -0.6760    2.4850    0.0011 C   0  0  0  0  0  0  0  0  0  0  0  0 
   -3.5228    0.0192    0.0007 C   0  0  0  0  0  0  0  0  0  0  0  0 
    1.4240   -1.2255   -0.0009 C   0  0  0  0  0  0  0  0  0  0  0  0 
    1.4301    1.2480    0.0002 C   0  0  0  0  0  0  0  0  0  0  0  0 
   -1.4304   -1.2225   -0.0000 C   0  0  0  0  0  0  0  0  0  0  0  0 
   -1.4197    1.2577    0.0005 C   0  0  0  0  0  0  0  0  0  0  0  0 
   -2.8300    1.2320    0.0011 C   0  0  0  0  0  0  0  0  0  0  0  0 
    0.7107    0.0135   -0.0003 C   0  0  0  0  0  0  0  0  0  0  0  0 
   -0.7173    0.0164   -0.0000 C   0  0  0  0  0  0  0  0  0  0  0  0 
   -3.4774    2.4374    0.0024 O   0  0  0  0  0  0  0  0  0  0  0  0 
    4.6085    0.0039   -0.0017 H   0  0  0  0  0  0  0  0  0  0  0  0 
    3.3723   -2.1433   -0.0018 H   0  0  0  0  0  0  0  0  0  0  0  0 
    3.3831    2.1581   -0.0003 H   0  0  0  0  0  0  0  0  0  0  0  0 
    1.2243   -3.3923   -0.0022 H   0  0  0  0  0  0  0  0  0  0  0  0 
   -1.2373   -3.3878   -0.0016 H   0  0  0  0  0  0  0  0  0  0  0  0 
    1.2385    3.4138    0.0019 H   0  0  0  0  0  0  0  0  0  0  0  0 
   -3.3874   -2.1240    0.0012 H   0  0  0  0  0  0  0  0  0  0  0  0 
   -1.2237    3.4209    0.0012 H   0  0  0  0  0  0  0  0  0  0  0  0 
   -4.6116    0.0234   -0.0008 H   0  0  0  0  0  0  0  0  0  0  0  0 
   -4.4339    2.2792    0.0009 H   0  0  0  0  0  0  0  0  0  0  0  0 
  1  3  1  0  0  0  0 
  2  1  2  0  0  0  0 
  2 10  1  0  0  0  0 
  3 20  1  0  0  0  0 
  3 11  2  0  0  0  0 
  4 10  2  0  0  0  0 
  4  5  1  0  0  0  0 
  5 12  2  0  0  0  0 
  6  8  2  0  0  0  0 
  6 23  1  0  0  0  0 
  7  9  2  0  0  0  0 
  7 24  1  0  0  0  0 
  8 25  1  0  0  0  0 
  9 14  1  0  0  0  0 
 10 15  1  0  0  0  0 
 11  6  1  0  0  0  0 
 12  7  1  0  0  0  0 
 13  8  1  0  0  0  0 
 13 14  2  0  0  0  0 
 14 17  1  0  0  0  0 
 15 16  2  0  0  0  0 
 15 11  1  0  0  0  0 
 16 12  1  0  0  0  0 
 16 13  1  0  0  0  0 
 18  1  1  0  0  0  0 
 19  2  1  0  0  0  0 
 21  4  1  0  0  0  0 
 22  5  1  0  0  0  0 
 26  9  1  0  0  0  0 
 27 17  1  0  0  0  0 
M  END 
>  <HBA> 
1 
 
>  <HBD> 
1 
 
>  <TPSA> 
20.23 
 
>  <cid> 
21387 
 
>  <dipole> 
1.7 
 
>  <excitation_energy_1> 
3.516 
 
>  <excitation_energy_2> 
3.662 
 
>  <excitation_energy_3> 
4.141 
 
>  <excitation_energy_4> 
4.429 
 
>  <homo_energy> 
-5.029 
 
>  <homo_lumo_gap> 
3.712 
 
>  <logP> 
4.29 
 
>  <lumo_energy> 
-1.317 
 
>  <melting_point> 
178.53 
 
>  <molecular_refractivity> 
72.17 
 
>  <oscillator_strength_1> 
0.2658 
 
>  <oscillator_strength_2> 
0.0471 
 
>  <oscillator_strength_3> 
0.0038 
 
>  <oscillator_strength_4> 
0.0002 
 
>  <open_babel_can_smiles> 
Oc1ccc2c3c1ccc1c3c(cc2)ccc1 
 
>  <mulliken_charges> 
27 
1   -0.121334 
2   -0.22808 
3   -0.227425 
4   -0.199679 
5   -0.195609 
6   -0.200134 
7   -0.236494 
8   -0.175596 
9   -0.182084 
10   0.164415 
11   0.170216 
12   0.172272 
13   0.103059 
14   0.261417 
15   -0.025826 
16   -0.013227 
17   -0.641854 
18   0.128447 
19   0.126713 
20   0.127064 
21   0.127183 
22   0.127093 
23   0.1286 
24   0.131945 
25   0.14988 
26   0.118247 
27   0.410791 
 
>  <lowdin_charges> 
27 
1   -0.152112 
2   -0.166515 
3   -0.166796 
4   -0.16499 
5   -0.155282 
6   -0.159091 
7   -0.151409 
8   -0.151255 
9   -0.210241 
10   0.002617 
11   0.002806 
12   -0.015184 
13   -0.029468 
14   0.098968 
15   -0.002446 
16   0.006336 
17   -0.37207 
18   0.15624 
19   0.156988 
20   0.157269 
21   0.158031 
22   0.157772 
23   0.158429 
24   0.159858 
25   0.170887 
26   0.152261 
27   0.358397 
 
$$$$ 
 
