PCCDB-ID:  17198 
public computational chemistry database (PCCDB) project, http://pccdb.org 
 
 26 26  0  0  0  0  0  0  0  0999 V2000 
    1.1974   -0.5347   -0.7720 C   0  0  0  0  0  0  0  0  0  0  0  0 
    5.7129    0.9887    3.8770 C   0  0  0  0  0  0  0  0  0  0  0  0 
    3.0741   -4.9763    3.1159 C   0  0  0  0  0  0  0  0  0  0  0  0 
    3.8159   -0.1175    2.0405 C   0  0  0  0  0  0  0  0  0  0  0  0 
    2.8324   -2.1457    1.1450 C   0  0  0  0  0  0  0  0  0  0  0  0 
    2.1483    0.1185    0.2194 C   0  0  0  0  0  0  0  0  0  0  0  0 
    2.9393   -0.7508    1.1395 C   0  0  0  0  0  0  0  0  0  0  0  0 
    4.5708   -0.8837    2.9117 C   0  0  0  0  0  0  0  0  0  0  0  0 
    3.5931   -2.9236    2.0216 C   0  0  0  0  0  0  0  0  0  0  0  0 
    4.4797   -2.2932    2.9050 C   0  0  0  0  0  0  0  0  0  0  0  0 
    2.2603    1.3369    0.2579 O   0  0  0  0  0  0  0  0  0  0  0  0 
    5.2575   -3.0243    3.7469 O   0  0  0  0  0  0  0  0  0  0  0  0 
    5.4715   -0.4125    3.8367 O   0  0  0  0  0  0  0  0  0  0  0  0 
    3.4979   -4.2890    1.9341 O   0  0  0  0  0  0  0  0  0  0  0  0 
    0.4327   -1.1262   -0.2550 H   0  0  0  0  0  0  0  0  0  0  0  0 
    1.7347   -1.2137   -1.4446 H   0  0  0  0  0  0  0  0  0  0  0  0 
    0.7140    0.2479   -1.3593 H   0  0  0  0  0  0  0  0  0  0  0  0 
    6.4674    1.1421    4.6503 H   0  0  0  0  0  0  0  0  0  0  0  0 
    4.8015    1.5392    4.1399 H   0  0  0  0  0  0  0  0  0  0  0  0 
    6.0922    1.3516    2.9141 H   0  0  0  0  0  0  0  0  0  0  0  0 
    2.9704   -6.0249    2.8281 H   0  0  0  0  0  0  0  0  0  0  0  0 
    2.1023   -4.5971    3.4589 H   0  0  0  0  0  0  0  0  0  0  0  0 
    3.8083   -4.8857    3.9211 H   0  0  0  0  0  0  0  0  0  0  0  0 
    3.8735    0.9639    2.0183 H   0  0  0  0  0  0  0  0  0  0  0  0 
    2.1676   -2.6704    0.4681 H   0  0  0  0  0  0  0  0  0  0  0  0 
    5.7976   -2.3852    4.2471 H   0  0  0  0  0  0  0  0  0  0  0  0 
  1 15  1  0  0  0  0 
  1  6  1  0  0  0  0 
  2 19  1  0  0  0  0 
  2 18  1  0  0  0  0 
  3 22  1  0  0  0  0 
  3 23  1  0  0  0  0 
  4  8  2  0  0  0  0 
  5  9  1  0  0  0  0 
  6 11  2  0  0  0  0 
  6  7  1  0  0  0  0 
  7  5  2  0  0  0  0 
  7  4  1  0  0  0  0 
  8 13  1  0  0  0  0 
  9 10  2  0  0  0  0 
 10  8  1  0  0  0  0 
 10 12  1  0  0  0  0 
 12 26  1  0  0  0  0 
 13  2  1  0  0  0  0 
 14  9  1  0  0  0  0 
 14  3  1  0  0  0  0 
 16  1  1  0  0  0  0 
 17  1  1  0  0  0  0 
 20  2  1  0  0  0  0 
 21  3  1  0  0  0  0 
 24  4  1  0  0  0  0 
 25  5  1  0  0  0  0 
M  END 
>  <HBA> 
4 
 
>  <HBD> 
1 
 
>  <TPSA> 
55.76 
 
>  <cid> 
17198 
 
>  <dipole> 
2.49 
 
>  <excitation_energy_1> 
3.843 
 
>  <excitation_energy_2> 
4.291 
 
>  <excitation_energy_3> 
4.391 
 
>  <excitation_energy_4> 
5.254 
 
>  <homo_energy> 
-5.905 
 
>  <homo_lumo_gap> 
4.697 
 
>  <logP> 
1.612 
 
>  <lumo_energy> 
-1.208 
 
>  <melting_point> 
91.4 
 
>  <molecular_refractivity> 
51.64 
 
>  <oscillator_strength_1> 
0.0004 
 
>  <oscillator_strength_2> 
0.024 
 
>  <oscillator_strength_3> 
0.2278 
 
>  <oscillator_strength_4> 
0.0024 
 
>  <open_babel_can_smiles> 
COc1cc(cc(c1O)OC)C(=O)C 
 
>  <mulliken_charges> 
26 
1   -0.540592 
2   -0.21578 
3   -0.21805 
4   -0.248016 
5   -0.251078 
6   0.40481 
7   0.070771 
8   0.362269 
9   0.333217 
10   0.265219 
11   -0.466683 
12   -0.647097 
13   -0.560365 
14   -0.523337 
15   0.169439 
16   0.171896 
17   0.178375 
18   0.171562 
19   0.165588 
20   0.166227 
21   0.160885 
22   0.140237 
23   0.174806 
24   0.165551 
25   0.139105 
26   0.431041 
 
>  <lowdin_charges> 
26 
1   -0.478371 
2   -0.273808 
3   -0.275978 
4   -0.187573 
5   -0.177791 
6   0.159485 
7   -0.05799 
8   0.060802 
9   0.067337 
10   0.068794 
11   -0.255807 
12   -0.365361 
13   -0.222454 
14   -0.221117 
15   0.170284 
16   0.171489 
17   0.17461 
18   0.164728 
19   0.153726 
20   0.153877 
21   0.15598 
22   0.139523 
23   0.156248 
24   0.179467 
25   0.172065 
26   0.367839 
 
$$$$ 
 
