PCCDB-ID:  16564 
public computational chemistry database (PCCDB) project, http://pccdb.org 
 
 28 29  0  0  1  0  0  0  0  0999 V2000 
    2.8367    0.8947   -0.0299 C   0  0  0  0  0  0  0  0  0  0  0  0 
    2.6150   -0.4567   -0.3086 C   0  0  0  0  0  0  0  0  0  0  0  0 
    1.7578    1.7702    0.0847 C   0  0  0  0  0  0  0  0  0  0  0  0 
    1.3126   -0.9332   -0.4534 C   0  0  0  0  0  0  0  0  0  0  0  0 
   -3.4043   -0.3329   -0.4846 C   0  0  0  0  0  0  0  0  0  0  0  0 
   -1.8224    1.7158   -0.4972 C   0  0  0  0  0  0  0  0  0  0  0  0 
   -2.0941    0.2975   -0.0080 C   0  0  2  0  0  0  0  0  0  0  0  0 
    0.4523    1.3010   -0.0706 C   0  0  0  0  0  0  0  0  0  0  0  0 
    0.2301   -0.0621   -0.3290 C   0  0  0  0  0  0  0  0  0  0  0  0 
   -4.0681    0.4695   -2.7206 C   0  0  0  0  0  0  0  0  0  0  0  0 
   -4.5858    1.5259   -2.2020 N   0  0  0  0  0  0  0  0  0  0  0  0 
   -3.9630    0.1564   -4.0829 N   0  0  0  0  0  0  0  0  0  0  0  0 
   -3.5017   -0.5162   -1.9235 N   0  0  0  0  0  0  0  0  0  0  0  0 
   -0.5847    2.1897    0.0469 O   0  0  0  0  0  0  0  0  0  0  0  0 
   -1.0411   -0.5717   -0.4659 O   0  0  0  0  0  0  0  0  0  0  0  0 
    3.8484    1.2709    0.0907 H   0  0  0  0  0  0  0  0  0  0  0  0 
    3.4520   -1.1421   -0.4051 H   0  0  0  0  0  0  0  0  0  0  0  0 
    1.9015    2.8271    0.2882 H   0  0  0  0  0  0  0  0  0  0  0  0 
    1.1097   -1.9810   -0.6547 H   0  0  0  0  0  0  0  0  0  0  0  0 
   -4.2471    0.2847   -0.1687 H   0  0  0  0  0  0  0  0  0  0  0  0 
   -3.4915   -1.3157   -0.0065 H   0  0  0  0  0  0  0  0  0  0  0  0 
   -2.5975    2.4063   -0.1633 H   0  0  0  0  0  0  0  0  0  0  0  0 
   -1.7803    1.7414   -1.5918 H   0  0  0  0  0  0  0  0  0  0  0  0 
   -2.0856    0.3043    1.0926 H   0  0  0  0  0  0  0  0  0  0  0  0 
   -5.0675    2.0841   -2.9078 H   0  0  0  0  0  0  0  0  0  0  0  0 
   -4.5115    0.7563   -4.6863 H   0  0  0  0  0  0  0  0  0  0  0  0 
   -4.1081   -0.8244   -4.2987 H   0  0  0  0  0  0  0  0  0  0  0  0 
   -2.7013   -0.9849   -2.3317 H   0  0  0  0  0  0  0  0  0  0  0  0 
  1  3  1  0  0  0  0 
  1 16  1  0  0  0  0 
  2  1  2  0  0  0  0 
  3 18  1  0  0  0  0 
  4  9  2  0  0  0  0 
  4  2  1  0  0  0  0 
  5 20  1  0  0  0  0 
  5  7  1  0  0  0  0 
  5 21  1  0  0  0  0 
  6 22  1  0  0  0  0 
  6  7  1  0  0  0  0 
  6 14  1  0  0  0  0 
  7 24  1  1  0  0  0 
  8 14  1  0  0  0  0 
  8  3  2  0  0  0  0 
  9  8  1  0  0  0  0 
 10 11  1  0  0  0  0 
 10 13  1  0  0  0  0 
 12 10  2  0  0  0  0 
 13  5  1  0  0  0  0 
 15  9  1  0  0  0  0 
 15  7  1  0  0  0  0 
 17  2  1  0  0  0  0 
 19  4  1  0  0  0  0 
 23  6  1  0  0  0  0 
 25 11  1  0  0  0  0 
 26 12  1  0  0  0  0 
 27 12  1  0  0  0  0 
 28 13  1  0  0  0  0 
M  RAD  1  11   2 
M  END 
>  <HBA> 
5 
 
>  <HBD> 
2 
 
>  <TPSA> 
82.86 
 
>  <cid> 
16564 
 
>  <dipole> 
3.37 
 
>  <excitation_energy_1> 
4.867 
 
>  <excitation_energy_2> 
4.986 
 
>  <excitation_energy_3> 
5.34 
 
>  <excitation_energy_4> 
5.382 
 
>  <homo_energy> 
-5.535 
 
>  <homo_lumo_gap> 
5.807 
 
>  <logP> 
1.5 
 
>  <lumo_energy> 
0.272 
 
>  <melting_point> 
162.14 
 
>  <molecular_refractivity> 
56.03 
 
>  <oscillator_strength_1> 
0.0482 
 
>  <oscillator_strength_2> 
0.0034 
 
>  <oscillator_strength_3> 
0.0023 
 
>  <oscillator_strength_4> 
0.0075 
 
>  <open_babel_can_smiles> 
[NH]C(=[NH2])NC[C@@H]1COc2c(O1)cccc2 
 
>  <mulliken_charges> 
28 
1   -0.137938 
2   -0.138775 
3   -0.191787 
4   -0.193421 
5   -0.155488 
6   -0.048093 
7   0.10143 
8   0.334173 
9   0.333093 
10   0.594271 
11   -0.658096 
12   -0.755969 
13   -0.597556 
14   -0.529499 
15   -0.555823 
16   0.125685 
17   0.124864 
18   0.137679 
19   0.131892 
20   0.193756 
21   0.155312 
22   0.175438 
23   0.161856 
24   0.145105 
25   0.267778 
26   0.321919 
27   0.325619 
28   0.332575 
 
>  <lowdin_charges> 
28 
1   -0.166141 
2   -0.17011 
3   -0.175084 
4   -0.177798 
5   -0.203914 
6   -0.139601 
7   -0.013858 
8   0.06145 
9   0.059812 
10   0.127208 
11   -0.493189 
12   -0.50846 
13   -0.305099 
14   -0.208188 
15   -0.222926 
16   0.156652 
17   0.157859 
18   0.165032 
19   0.162322 
20   0.181948 
21   0.155329 
22   0.17207 
23   0.151581 
24   0.143516 
25   0.250031 
26   0.279068 
27   0.278811 
28   0.281678 
 
$$$$ 
 
