PCCDB-ID:  9156 
public computational chemistry database (PCCDB) project, http://pccdb.org 
 
 25 28  0  0  0  0  0  0  0  0999 V2000 
    3.7181   -0.7379    0.0003 C   0  0  0  0  0  0  0  0  0  0  0  0 
    3.7375    0.6595    0.0020 C   0  0  0  0  0  0  0  0  0  0  0  0 
   -2.1947   -2.3662   -0.0008 C   0  0  0  0  0  0  0  0  0  0  0  0 
    2.5060   -1.4404    0.0017 C   0  0  0  0  0  0  0  0  0  0  0  0 
    2.5423    1.3897    0.0003 C   0  0  0  0  0  0  0  0  0  0  0  0 
   -0.7690   -2.3755   -0.0014 C   0  0  0  0  0  0  0  0  0  0  0  0 
   -2.9387   -1.1979   -0.0021 C   0  0  0  0  0  0  0  0  0  0  0  0 
   -0.7284    2.3835   -0.0004 C   0  0  0  0  0  0  0  0  0  0  0  0 
   -2.1576    2.3487   -0.0015 C   0  0  0  0  0  0  0  0  0  0  0  0 
    1.3127   -0.7267    0.0006 C   0  0  0  0  0  0  0  0  0  0  0  0 
    1.3340    0.7021   -0.0006 C   0  0  0  0  0  0  0  0  0  0  0  0 
   -0.0987   -1.1686   -0.0009 C   0  0  0  0  0  0  0  0  0  0  0  0 
   -0.0647    1.1760   -0.0019 C   0  0  0  0  0  0  0  0  0  0  0  0 
   -2.2698    0.0594   -0.0030 C   0  0  0  0  0  0  0  0  0  0  0  0 
   -0.8728    0.0142   -0.0025 C   0  0  0  0  0  0  0  0  0  0  0  0 
   -2.9192    1.2653   -0.0030 N   0  0  0  0  0  0  0  0  0  0  0  0 
    4.6552   -1.2878   -0.0050 H   0  0  0  0  0  0  0  0  0  0  0  0 
    4.6884    1.1847    0.0062 H   0  0  0  0  0  0  0  0  0  0  0  0 
   -2.7132   -3.3213    0.0018 H   0  0  0  0  0  0  0  0  0  0  0  0 
    2.5049   -2.5274    0.0050 H   0  0  0  0  0  0  0  0  0  0  0  0 
    2.5641    2.4765   -0.0025 H   0  0  0  0  0  0  0  0  0  0  0  0 
   -0.2436   -3.3270   -0.0034 H   0  0  0  0  0  0  0  0  0  0  0  0 
   -4.0242   -1.2202   -0.0023 H   0  0  0  0  0  0  0  0  0  0  0  0 
   -0.2209    3.3441    0.0023 H   0  0  0  0  0  0  0  0  0  0  0  0 
   -2.6920    3.2984   -0.0010 H   0  0  0  0  0  0  0  0  0  0  0  0 
  1  4  1  0  0  0  0 
  1  2  2  0  0  0  0 
  2 18  1  0  0  0  0 
  3 19  1  0  0  0  0 
  4 20  1  0  0  0  0 
  5  2  1  0  0  0  0 
  6 12  2  0  0  0  0 
  6  3  1  0  0  0  0 
  7  3  2  0  0  0  0 
  8 24  1  0  0  0  0 
  9 25  1  0  0  0  0 
  9  8  2  0  0  0  0 
 10  4  2  0  0  0  0 
 11  5  2  0  0  0  0 
 11 10  1  0  0  0  0 
 12 10  1  0  0  0  0 
 13 11  1  0  0  0  0 
 13  8  1  0  0  0  0 
 14 15  1  0  0  0  0 
 14  7  1  0  0  0  0 
 15 13  2  0  0  0  0 
 15 12  1  0  0  0  0 
 16 14  2  0  0  0  0 
 16  9  1  0  0  0  0 
 17  1  1  0  0  0  0 
 21  5  1  0  0  0  0 
 22  6  1  0  0  0  0 
 23  7  1  0  0  0  0 
M  END 
>  <HBA> 
1 
 
>  <HBD> 
0 
 
>  <TPSA> 
12.89 
 
>  <cid> 
9156 
 
>  <dipole> 
2.31 
 
>  <excitation_energy_1> 
3.22 
 
>  <excitation_energy_2> 
3.681 
 
>  <excitation_energy_3> 
3.805 
 
>  <excitation_energy_4> 
4.164 
 
>  <homo_energy> 
-6.063 
 
>  <homo_lumo_gap> 
3.954 
 
>  <logP> 
3.882 
 
>  <lumo_energy> 
-2.109 
 
>  <melting_point> 
137.39 
 
>  <molecular_refractivity> 
66.17 
 
>  <oscillator_strength_1> 
0.0204 
 
>  <oscillator_strength_2> 
0.1284 
 
>  <oscillator_strength_3> 
0.0009 
 
>  <oscillator_strength_4> 
0.0927 
 
>  <open_babel_can_smiles> 
c1cc2nccc3c2c(c1)c1ccccc31 
 
>  <mulliken_charges> 
25 
1   -0.1324 
2   -0.137259 
3   -0.140742 
4   -0.197113 
5   -0.192083 
6   -0.218061 
7   -0.146119 
8   -0.240201 
9   0.038752 
10   0.063395 
11   0.066296 
12   0.113599 
13   0.153731 
14   0.277538 
15   -0.038179 
16   -0.506602 
17   0.133368 
18   0.133028 
19   0.135797 
20   0.134526 
21   0.135308 
22   0.137258 
23   0.14493 
24   0.139519 
25   0.141716 
 
>  <lowdin_charges> 
25 
1   -0.150434 
2   -0.157256 
3   -0.151226 
4   -0.153653 
5   -0.147301 
6   -0.147934 
7   -0.143436 
8   -0.176428 
9   -0.080699 
10   -0.002206 
11   -0.013662 
12   -0.005141 
13   0.021737 
14   0.039972 
15   -0.031921 
16   -0.15132 
17   0.160542 
18   0.160352 
19   0.161876 
20   0.158273 
21   0.158705 
22   0.161296 
23   0.168058 
24   0.164708 
25   0.157099 
 
$$$$ 
 
