PCCDB-ID:  7381 
public computational chemistry database (PCCDB) project, http://pccdb.org 
 
 26 26  0  0  0  0  0  0  0  0999 V2000 
    3.6689   -0.2405   -0.9771 C   0  0  0  0  0  0  0  0  0  0  0  0 
    1.4466    0.8909   -0.8291 C   0  0  0  0  0  0  0  0  0  0  0  0 
    1.7711   -1.3214    0.2862 C   0  0  0  0  0  0  0  0  0  0  0  0 
    2.4780    1.9589    1.6587 C   0  0  0  0  0  0  0  0  0  0  0  0 
    2.9370    2.5340    2.8500 C   0  0  0  0  0  0  0  0  0  0  0  0 
    3.8617    0.0526    2.0732 C   0  0  0  0  0  0  0  0  0  0  0  0 
    2.9298    0.7045    1.2433 C   0  0  0  0  0  0  0  0  0  0  0  0 
    3.8573    1.8789    3.6599 C   0  0  0  0  0  0  0  0  0  0  0  0 
    4.3257    0.6125    3.2589 C   0  0  0  0  0  0  0  0  0  0  0  0 
    2.4561    0.0237   -0.0534 C   0  0  0  0  0  0  0  0  0  0  0  0 
    4.3420    2.3879    4.8332 O   0  0  0  0  0  0  0  0  0  0  0  0 
    5.2307   -0.0050    4.0781 O   0  0  0  0  0  0  0  0  0  0  0  0 
    3.3460   -0.7385   -1.8999 H   0  0  0  0  0  0  0  0  0  0  0  0 
    4.4155   -0.8827   -0.4978 H   0  0  0  0  0  0  0  0  0  0  0  0 
    4.1636    0.6981   -1.2512 H   0  0  0  0  0  0  0  0  0  0  0  0 
    1.1353    0.3690   -1.7410 H   0  0  0  0  0  0  0  0  0  0  0  0 
    1.8815    1.8509   -1.1294 H   0  0  0  0  0  0  0  0  0  0  0  0 
    0.5453    1.0927   -0.2393 H   0  0  0  0  0  0  0  0  0  0  0  0 
    1.4302   -1.8203   -0.6295 H   0  0  0  0  0  0  0  0  0  0  0  0 
    0.9005   -1.1642    0.9331 H   0  0  0  0  0  0  0  0  0  0  0  0 
    2.4510   -2.0065    0.8040 H   0  0  0  0  0  0  0  0  0  0  0  0 
    1.7614    2.5145    1.0655 H   0  0  0  0  0  0  0  0  0  0  0  0 
    2.5696    3.5139    3.1519 H   0  0  0  0  0  0  0  0  0  0  0  0 
    4.2438   -0.9282    1.7941 H   0  0  0  0  0  0  0  0  0  0  0  0 
    3.9351    3.2561    4.9783 H   0  0  0  0  0  0  0  0  0  0  0  0 
    5.4631   -0.8604    3.6849 H   0  0  0  0  0  0  0  0  0  0  0  0 
  1 14  1  0  0  0  0 
  1 10  1  0  0  0  0 
  2 18  1  0  0  0  0 
  2 10  1  0  0  0  0 
  3 21  1  0  0  0  0 
  3 20  1  0  0  0  0 
  4  5  1  0  0  0  0 
  5 23  1  0  0  0  0 
  5  8  2  0  0  0  0 
  6  9  2  0  0  0  0 
  7  4  2  0  0  0  0 
  7  6  1  0  0  0  0 
  8 11  1  0  0  0  0 
  9  8  1  0  0  0  0 
  9 12  1  0  0  0  0 
 10  3  1  0  0  0  0 
 10  7  1  0  0  0  0 
 11 25  1  0  0  0  0 
 13  1  1  0  0  0  0 
 15  1  1  0  0  0  0 
 16  2  1  0  0  0  0 
 17  2  1  0  0  0  0 
 19  3  1  0  0  0  0 
 22  4  1  0  0  0  0 
 24  6  1  0  0  0  0 
 26 12  1  0  0  0  0 
M  END 
>  <HBA> 
2 
 
>  <HBD> 
2 
 
>  <TPSA> 
40.46 
 
>  <cid> 
7381 
 
>  <dipole> 
1.41 
 
>  <excitation_energy_1> 
4.761 
 
>  <excitation_energy_2> 
4.835 
 
>  <excitation_energy_3> 
4.982 
 
>  <excitation_energy_4> 
5.345 
 
>  <homo_energy> 
-5.442 
 
>  <homo_lumo_gap> 
5.69 
 
>  <logP> 
2.395 
 
>  <lumo_energy> 
0.248 
 
>  <melting_point> 
94.06 
 
>  <molecular_refractivity> 
49.76 
 
>  <oscillator_strength_1> 
0.0008 
 
>  <oscillator_strength_2> 
0.0638 
 
>  <oscillator_strength_3> 
0.0 
 
>  <oscillator_strength_4> 
0.003 
 
>  <open_babel_can_smiles> 
Oc1ccc(cc1O)C(C)(C)C 
 
>  <mulliken_charges> 
26 
1   -0.436653 
2   -0.456234 
3   -0.436417 
4   -0.209821 
5   -0.20135 
6   -0.265533 
7   0.181294 
8   0.320127 
9   0.325902 
10   0.015973 
11   -0.635231 
12   -0.635785 
13   0.136846 
14   0.137883 
15   0.147619 
16   0.139905 
17   0.145079 
18   0.145088 
19   0.136866 
20   0.147661 
21   0.137863 
22   0.122498 
23   0.115007 
24   0.109865 
25   0.406015 
26   0.405533 
 
>  <lowdin_charges> 
26 
1   -0.440804 
2   -0.443626 
3   -0.441347 
4   -0.186604 
5   -0.207503 
6   -0.214604 
7   -0.009014 
8   0.074497 
9   0.078672 
10   0.018007 
11   -0.371374 
12   -0.371014 
13   0.146066 
14   0.146981 
15   0.152 
16   0.150063 
17   0.149275 
18   0.149626 
19   0.146264 
20   0.152199 
21   0.14715 
22   0.160724 
23   0.151829 
24   0.148764 
25   0.357096 
26   0.356675 
 
$$$$ 
 
