PCCDB-ID:  68329 
public computational chemistry database (PCCDB) project, http://pccdb.org 
 
 22 21  0  0  0  0  0  0  0  0999 V2000 
    1.6380   -0.1871    1.2684 C   0  0  0  0  0  0  0  0  0  0  0  0 
    1.2764    2.2560    0.6278 C   0  0  0  0  0  0  0  0  0  0  0  0 
    6.6000   -1.4768   -1.4184 C   0  0  0  0  0  0  0  0  0  0  0  0 
    5.5293    0.7573   -0.6302 C   0  0  0  0  0  0  0  0  0  0  0  0 
    1.9010    0.9199    0.2534 C   0  0  0  0  0  0  0  0  0  0  0  0 
    6.4350   -0.4492   -0.3213 C   0  0  0  0  0  0  0  0  0  0  0  0 
    4.0550    0.3731   -0.6509 C   0  0  0  0  0  0  0  0  0  0  0  0 
    6.9859   -0.5359    0.7568 O   0  0  0  0  0  0  0  0  0  0  0  0 
    3.5874   -0.5228   -1.3257 O   0  0  0  0  0  0  0  0  0  0  0  0 
    3.3420    1.1630    0.1695 O   0  0  0  0  0  0  0  0  0  0  0  0 
    0.5600   -0.3583    1.3651 H   0  0  0  0  0  0  0  0  0  0  0  0 
    2.0331    0.0899    2.2520 H   0  0  0  0  0  0  0  0  0  0  0  0 
    2.1050   -1.1227    0.9491 H   0  0  0  0  0  0  0  0  0  0  0  0 
    0.1875    2.1549    0.6893 H   0  0  0  0  0  0  0  0  0  0  0  0 
    1.5103    3.0199   -0.1203 H   0  0  0  0  0  0  0  0  0  0  0  0 
    1.6460    2.6000    1.5999 H   0  0  0  0  0  0  0  0  0  0  0  0 
    7.1500   -1.0317   -2.2586 H   0  0  0  0  0  0  0  0  0  0  0  0 
    5.6193   -1.7788   -1.8000 H   0  0  0  0  0  0  0  0  0  0  0  0 
    7.1549   -2.3379   -1.0409 H   0  0  0  0  0  0  0  0  0  0  0  0 
    5.7719    1.1467   -1.6275 H   0  0  0  0  0  0  0  0  0  0  0  0 
    5.7084    1.5306    0.1171 H   0  0  0  0  0  0  0  0  0  0  0  0 
    1.5698    0.5996   -0.7385 H   0  0  0  0  0  0  0  0  0  0  0  0 
  1 11  1  0  0  0  0 
  1 12  1  0  0  0  0 
  2 14  1  0  0  0  0 
  2 16  1  0  0  0  0 
  3 19  1  0  0  0  0 
  3  6  1  0  0  0  0 
  4  6  1  0  0  0  0 
  4 21  1  0  0  0  0 
  5  2  1  0  0  0  0 
  5  1  1  0  0  0  0 
  6  8  2  0  0  0  0 
  7  4  1  0  0  0  0 
  7 10  1  0  0  0  0 
  9  7  2  0  0  0  0 
 10  5  1  0  0  0  0 
 13  1  1  0  0  0  0 
 15  2  1  0  0  0  0 
 17  3  1  0  0  0  0 
 18  3  1  0  0  0  0 
 20  4  1  0  0  0  0 
 22  5  1  0  0  0  0 
M  END 
>  <HBA> 
3 
 
>  <HBD> 
0 
 
>  <TPSA> 
43.37 
 
>  <cid> 
68329 
 
>  <dipole> 
2.55 
 
>  <excitation_energy_1> 
4.359 
 
>  <excitation_energy_2> 
5.624 
 
>  <excitation_energy_3> 
5.986 
 
>  <excitation_energy_4> 
6.384 
 
>  <homo_energy> 
-6.806 
 
>  <homo_lumo_gap> 
6.169 
 
>  <logP> 
0.917 
 
>  <lumo_energy> 
-0.637 
 
>  <melting_point> 
6.61 
 
>  <molecular_refractivity> 
37.25 
 
>  <oscillator_strength_1> 
0.0013 
 
>  <oscillator_strength_2> 
0.0062 
 
>  <oscillator_strength_3> 
0.0192 
 
>  <oscillator_strength_4> 
0.0116 
 
>  <open_babel_can_smiles> 
CC(=O)CC(=O)OC(C)C 
 
>  <mulliken_charges> 
22 
1   -0.458671 
2   -0.452489 
3   -0.538965 
4   -0.436754 
5   0.122052 
6   0.451775 
7   0.622928 
8   -0.421954 
9   -0.475627 
10   -0.456001 
11   0.150601 
12   0.157412 
13   0.174268 
14   0.152281 
15   0.158275 
16   0.15956 
17   0.167015 
18   0.206903 
19   0.176654 
20   0.184208 
21   0.192181 
22   0.164349 
 
>  <lowdin_charges> 
22 
1   -0.451293 
2   -0.446072 
3   -0.48098 
4   -0.331052 
5   0.014699 
6   0.171817 
7   0.201527 
8   -0.223679 
9   -0.276534 
10   -0.185078 
11   0.157018 
12   0.156831 
13   0.166691 
14   0.156901 
15   0.159968 
16   0.158156 
17   0.171994 
18   0.187566 
19   0.17242 
20   0.181009 
21   0.182964 
22   0.155125 
 
$$$$ 
 
