PCCDB-ID:  13072 
public computational chemistry database (PCCDB) project, http://pccdb.org 
 
 32 32  0  0  0  0  0  0  0  0999 V2000 
    2.1620   -0.3569   -1.5691 C   0  0  0  0  0  0  0  0  0  0  0  0 
    0.5439    0.1740    0.2951 C   0  0  0  0  0  0  0  0  0  0  0  0 
    2.6553   -1.0775    0.7736 C   0  0  0  0  0  0  0  0  0  0  0  0 
    7.0601    2.8222    4.3893 C   0  0  0  0  0  0  0  0  0  0  0  0 
    2.9142    3.7784   -0.3851 C   0  0  0  0  0  0  0  0  0  0  0  0 
    2.3067    2.5387   -0.5668 C   0  0  0  0  0  0  0  0  0  0  0  0 
    3.9793    3.9235    0.5053 C   0  0  0  0  0  0  0  0  0  0  0  0 
    3.8022    1.5574    1.0352 C   0  0  0  0  0  0  0  0  0  0  0  0 
    2.7382    1.4014    0.1399 C   0  0  0  0  0  0  0  0  0  0  0  0 
    4.4101    2.8022    1.2012 C   0  0  0  0  0  0  0  0  0  0  0  0 
    6.5516    2.2504    2.1609 C   0  0  0  0  0  0  0  0  0  0  0  0 
    2.0394    0.0468   -0.0804 C   0  0  0  0  0  0  0  0  0  0  0  0 
    7.3543    2.1565    3.1318 N   0  0  0  0  0  0  0  0  0  0  0  0 
    6.7869    1.6315    0.9805 O   0  0  0  0  0  0  0  0  0  0  0  0 
    5.4123    2.9916    2.1568 O   0  0  0  0  0  0  0  0  0  0  0  0 
    1.6718   -1.3226   -1.7432 H   0  0  0  0  0  0  0  0  0  0  0  0 
    3.2131   -0.4504   -1.8645 H   0  0  0  0  0  0  0  0  0  0  0  0 
    1.6930    0.3781   -2.2314 H   0  0  0  0  0  0  0  0  0  0  0  0 
    0.0283   -0.7812    0.1374 H   0  0  0  0  0  0  0  0  0  0  0  0 
    0.0344    0.9311   -0.3099 H   0  0  0  0  0  0  0  0  0  0  0  0 
    0.4265    0.4536    1.3483 H   0  0  0  0  0  0  0  0  0  0  0  0 
    2.1281   -2.0182    0.5797 H   0  0  0  0  0  0  0  0  0  0  0  0 
    2.5721   -0.8684    1.8462 H   0  0  0  0  0  0  0  0  0  0  0  0 
    3.7133   -1.2371    0.5363 H   0  0  0  0  0  0  0  0  0  0  0  0 
    7.2881    2.1380    5.2146 H   0  0  0  0  0  0  0  0  0  0  0  0 
    6.0190    3.1550    4.4850 H   0  0  0  0  0  0  0  0  0  0  0  0 
    7.7118    3.6977    4.5078 H   0  0  0  0  0  0  0  0  0  0  0  0 
    2.5579    4.6415   -0.9410 H   0  0  0  0  0  0  0  0  0  0  0  0 
    1.4821    2.4580   -1.2686 H   0  0  0  0  0  0  0  0  0  0  0  0 
    4.4686    4.8785    0.6662 H   0  0  0  0  0  0  0  0  0  0  0  0 
    4.1744    0.7212    1.6136 H   0  0  0  0  0  0  0  0  0  0  0  0 
    7.6288    1.1612    1.1140 H   0  0  0  0  0  0  0  0  0  0  0  0 
  1 12  1  0  0  0  0 
  2 21  1  0  0  0  0 
  3 23  1  0  0  0  0 
  4 26  1  0  0  0  0 
  4 27  1  0  0  0  0 
  4 25  1  0  0  0  0 
  5  7  1  0  0  0  0 
  6  5  2  0  0  0  0 
  6  9  1  0  0  0  0 
  7 30  1  0  0  0  0 
  7 10  2  0  0  0  0 
  8 10  1  0  0  0  0 
  8 31  1  0  0  0  0 
  9  8  2  0  0  0  0 
 10 15  1  0  0  0  0 
 11 13  2  0  0  0  0 
 12  9  1  0  0  0  0 
 12  2  1  0  0  0  0 
 12  3  1  0  0  0  0 
 13  4  1  0  0  0  0 
 14 32  1  0  0  0  0 
 14 11  1  0  0  0  0 
 15 11  1  0  0  0  0 
 16  1  1  0  0  0  0 
 17  1  1  0  0  0  0 
 18  1  1  0  0  0  0 
 19  2  1  0  0  0  0 
 20  2  1  0  0  0  0 
 22  3  1  0  0  0  0 
 24  3  1  0  0  0  0 
 28  5  1  0  0  0  0 
 29  6  1  0  0  0  0 
M  END 
>  <HBA> 
3 
 
>  <HBD> 
1 
 
>  <TPSA> 
38.33 
 
>  <cid> 
13072 
 
>  <dipole> 
1.56 
 
>  <excitation_energy_1> 
5.195 
 
>  <excitation_energy_2> 
5.637 
 
>  <excitation_energy_3> 
5.817 
 
>  <excitation_energy_4> 
5.912 
 
>  <homo_energy> 
-6.299 
 
>  <homo_lumo_gap> 
6.264 
 
>  <logP> 
3.093 
 
>  <lumo_energy> 
-0.035 
 
>  <melting_point> 
76.45 
 
>  <molecular_refractivity> 
60.4 
 
>  <oscillator_strength_1> 
0.0059 
 
>  <oscillator_strength_2> 
0.1019 
 
>  <oscillator_strength_3> 
0.0069 
 
>  <oscillator_strength_4> 
0.0206 
 
>  <open_babel_can_smiles> 
C/N=C(\Oc1cccc(c1)C(C)(C)C)/O 
 
>  <mulliken_charges> 
32 
1   -0.439009 
2   -0.438417 
3   -0.458205 
4   -0.323739 
5   -0.141324 
6   -0.181898 
7   -0.166329 
8   -0.213225 
9   0.168157 
10   0.361631 
11   0.700733 
12   0.013325 
13   -0.479171 
14   -0.590638 
15   -0.536699 
16   0.139373 
17   0.150373 
18   0.143153 
19   0.13975 
20   0.143329 
21   0.148501 
22   0.142752 
23   0.146732 
24   0.149116 
25   0.152716 
26   0.152975 
27   0.154199 
28   0.133665 
29   0.126211 
30   0.140969 
31   0.138849 
32   0.422145 
 
>  <lowdin_charges> 
32 
1   -0.439082 
2   -0.439164 
3   -0.441468 
4   -0.353067 
5   -0.149041 
6   -0.171285 
7   -0.176952 
8   -0.187902 
9   0.009236 
10   0.107189 
11   0.189894 
12   0.017346 
13   -0.26356 
14   -0.361927 
15   -0.161108 
16   0.147272 
17   0.151936 
18   0.149989 
19   0.14757 
20   0.150111 
21   0.150898 
22   0.151518 
23   0.148361 
24   0.149831 
25   0.151803 
26   0.14275 
27   0.151629 
28   0.160875 
29   0.15626 
30   0.16848 
31   0.170062 
32   0.371545 
 
$$$$ 
 
