PCCDB-ID:  9452 
public computational chemistry database (PCCDB) project, http://pccdb.org 
 
 25 25  0  0  0  0  0  0  0  0999 V2000 
    2.7282   -0.7001    0.5742 C   0  0  0  0  0  0  0  0  0  0  0  0 
    2.6188    0.4976   -0.3715 C   0  0  0  0  0  0  0  0  0  0  0  0 
   -0.4779    4.3824    0.7328 C   0  0  0  0  0  0  0  0  0  0  0  0 
   -0.5402    3.0557    1.1618 C   0  0  0  0  0  0  0  0  0  0  0  0 
    0.7016    4.8572    0.1564 C   0  0  0  0  0  0  0  0  0  0  0  0 
    0.5669    2.2183    1.0329 C   0  0  0  0  0  0  0  0  0  0  0  0 
    1.8051    4.0192    0.0000 C   0  0  0  0  0  0  0  0  0  0  0  0 
    1.7563    2.6879    0.4500 C   0  0  0  0  0  0  0  0  0  0  0  0 
    4.1794    2.1488    0.5387 C   0  0  0  0  0  0  0  0  0  0  0  0 
    5.1241    1.3913    0.0999 N   0  0  0  0  0  0  0  0  0  0  0  0 
    4.3621    3.3358    1.2603 N   0  0  0  0  0  0  0  0  0  0  0  0 
    2.8536    1.8008    0.2804 N   0  0  0  0  0  0  0  0  0  0  0  0 
    2.5514   -1.6296    0.0198 H   0  0  0  0  0  0  0  0  0  0  0  0 
    1.9960   -0.6453    1.3881 H   0  0  0  0  0  0  0  0  0  0  0  0 
    3.7310   -0.7462    1.0062 H   0  0  0  0  0  0  0  0  0  0  0  0 
    1.6240    0.5451   -0.8225 H   0  0  0  0  0  0  0  0  0  0  0  0 
    3.3526    0.3936   -1.1752 H   0  0  0  0  0  0  0  0  0  0  0  0 
   -1.3379    5.0368    0.8439 H   0  0  0  0  0  0  0  0  0  0  0  0 
   -1.4502    2.6705    1.6147 H   0  0  0  0  0  0  0  0  0  0  0  0 
    0.7609    5.8834   -0.1968 H   0  0  0  0  0  0  0  0  0  0  0  0 
    0.5166    1.1945    1.3901 H   0  0  0  0  0  0  0  0  0  0  0  0 
    2.7086    4.3887   -0.4719 H   0  0  0  0  0  0  0  0  0  0  0  0 
    6.0343    1.7420    0.4005 H   0  0  0  0  0  0  0  0  0  0  0  0 
    5.2661    3.3858    1.7127 H   0  0  0  0  0  0  0  0  0  0  0  0 
    3.6077    3.5939    1.8860 H   0  0  0  0  0  0  0  0  0  0  0  0 
  1 15  1  0  0  0  0 
  1 14  1  0  0  0  0 
  2 12  1  0  0  0  0 
  2  1  1  0  0  0  0 
  3 18  1  0  0  0  0 
  3  4  2  0  0  0  0 
  4 19  1  0  0  0  0 
  5  3  1  0  0  0  0 
  6  4  1  0  0  0  0 
  6 21  1  0  0  0  0 
  7  5  2  0  0  0  0 
  7  8  1  0  0  0  0 
  8  6  2  0  0  0  0 
  9 11  2  0  0  0  0 
 10 23  1  0  0  0  0 
 10  9  1  0  0  0  0 
 11 24  1  0  0  0  0 
 11 25  1  0  0  0  0 
 12  8  1  0  0  0  0 
 12  9  1  0  0  0  0 
 13  1  1  0  0  0  0 
 16  2  1  0  0  0  0 
 17  2  1  0  0  0  0 
 20  5  1  0  0  0  0 
 22  7  1  0  0  0  0 
M  RAD  1  10   2 
M  END 
>  <HBA> 
3 
 
>  <HBD> 
2 
 
>  <TPSA> 
53.11 
 
>  <cid> 
9452 
 
>  <dipole> 
2.62 
 
>  <excitation_energy_1> 
4.529 
 
>  <excitation_energy_2> 
4.647 
 
>  <excitation_energy_3> 
4.918 
 
>  <excitation_energy_4> 
5.361 
 
>  <homo_energy> 
-5.497 
 
>  <homo_lumo_gap> 
5.366 
 
>  <logP> 
2.206 
 
>  <lumo_energy> 
-0.131 
 
>  <melting_point> 
97.54 
 
>  <molecular_refractivity> 
51.75 
 
>  <oscillator_strength_1> 
0.0269 
 
>  <oscillator_strength_2> 
0.226 
 
>  <oscillator_strength_3> 
0.0116 
 
>  <oscillator_strength_4> 
0.0013 
 
>  <open_babel_can_smiles> 
CCN(c1ccccc1)C(=[NH2])[NH] 
 
>  <mulliken_charges> 
25 
1   -0.448524 
2   -0.129317 
3   -0.127732 
4   -0.139705 
5   -0.142964 
6   -0.158438 
7   -0.148384 
8   0.238952 
9   0.589297 
10   -0.661639 
11   -0.754813 
12   -0.507311 
13   0.13993 
14   0.13759 
15   0.178033 
16   0.143675 
17   0.184701 
18   0.128835 
19   0.13168 
20   0.132465 
21   0.138186 
22   0.156971 
23   0.265061 
24   0.321609 
25   0.331841 
 
>  <lowdin_charges> 
25 
1   -0.45394 
2   -0.187071 
3   -0.168606 
4   -0.153254 
5   -0.152472 
6   -0.178267 
7   -0.177099 
8   0.037638 
9   0.135141 
10   -0.489135 
11   -0.506626 
12   -0.102824 
13   0.151438 
14   0.141849 
15   0.165533 
16   0.149188 
17   0.170009 
18   0.158755 
19   0.159103 
20   0.157897 
21   0.161816 
22   0.17275 
23   0.246845 
24   0.2775 
25   0.283832 
 
$$$$ 
 
