PCCDB-ID:  6872 
public computational chemistry database (PCCDB) project, http://pccdb.org 
 
 27 28  0  0  0  0  0  0  0  0999 V2000 
   -1.8512    0.0097    0.9720 C   0  0  0  0  0  0  0  0  0  0  0  0 
   -1.3025    0.7126   -0.1037 C   0  0  0  0  0  0  0  0  0  0  0  0 
   -1.0171   -0.7799    1.7664 C   0  0  0  0  0  0  0  0  0  0  0  0 
    0.8960   -4.1431   -1.3670 C   0  0  0  0  0  0  0  0  0  0  0  0 
    1.6561   -5.2420   -0.9662 C   0  0  0  0  0  0  0  0  0  0  0  0 
    0.0601    0.6292   -0.3837 C   0  0  0  0  0  0  0  0  0  0  0  0 
    0.3440   -0.8826    1.4841 C   0  0  0  0  0  0  0  0  0  0  0  0 
    1.3334   -2.8549   -1.0691 C   0  0  0  0  0  0  0  0  0  0  0  0 
    2.8556   -5.0455   -0.2855 C   0  0  0  0  0  0  0  0  0  0  0  0 
    0.9000   -0.1888    0.3935 C   0  0  0  0  0  0  0  0  0  0  0  0 
    2.5315   -2.6240   -0.3752 C   0  0  0  0  0  0  0  0  0  0  0  0 
    3.2927   -3.7505   -0.0048 C   0  0  0  0  0  0  0  0  0  0  0  0 
    2.9903   -1.2166   -0.1045 C   0  0  0  0  0  0  0  0  0  0  0  0 
    2.2737   -0.1920    0.1330 N   0  0  0  0  0  0  0  0  0  0  0  0 
    4.4915   -3.5285    0.6397 O   0  0  0  0  0  0  0  0  0  0  0  0 
    4.3255   -0.9914   -0.2096 O   0  0  0  0  0  0  0  0  0  0  0  0 
   -2.9115    0.0869    1.1958 H   0  0  0  0  0  0  0  0  0  0  0  0 
   -1.9371    1.3417   -0.7232 H   0  0  0  0  0  0  0  0  0  0  0  0 
   -1.4274   -1.3208    2.6158 H   0  0  0  0  0  0  0  0  0  0  0  0 
   -0.0336   -4.2856   -1.9088 H   0  0  0  0  0  0  0  0  0  0  0  0 
    1.3236   -6.2527   -1.1850 H   0  0  0  0  0  0  0  0  0  0  0  0 
    0.4965    1.1913   -1.2042 H   0  0  0  0  0  0  0  0  0  0  0  0 
    0.9922   -1.4882    2.1108 H   0  0  0  0  0  0  0  0  0  0  0  0 
    0.7411   -2.0034   -1.3817 H   0  0  0  0  0  0  0  0  0  0  0  0 
    3.4606   -5.8957    0.0246 H   0  0  0  0  0  0  0  0  0  0  0  0 
    4.9491   -4.3735    0.7722 H   0  0  0  0  0  0  0  0  0  0  0  0 
    4.7984   -1.8409   -0.1671 H   0  0  0  0  0  0  0  0  0  0  0  0 
  1 17  1  0  0  0  0 
  1  3  2  0  0  0  0 
  2  1  1  0  0  0  0 
  3 19  1  0  0  0  0 
  4  8  2  0  0  0  0 
  4  5  1  0  0  0  0 
  5  9  2  0  0  0  0 
  6  2  2  0  0  0  0 
  6 10  1  0  0  0  0 
  7  3  1  0  0  0  0 
  7 23  1  0  0  0  0 
  8 11  1  0  0  0  0 
  9 12  1  0  0  0  0 
  9 25  1  0  0  0  0 
 10  7  2  0  0  0  0 
 11 13  1  0  0  0  0 
 11 12  2  0  0  0  0 
 12 15  1  0  0  0  0 
 13 14  2  0  0  0  0 
 14 10  1  0  0  0  0 
 15 26  1  0  0  0  0 
 16 27  1  0  0  0  0 
 16 13  1  0  0  0  0 
 18  2  1  0  0  0  0 
 20  4  1  0  0  0  0 
 21  5  1  0  0  0  0 
 22  6  1  0  0  0  0 
 24  8  1  0  0  0  0 
M  END 
>  <HBA> 
3 
 
>  <HBD> 
2 
 
>  <TPSA> 
49.33 
 
>  <cid> 
6872 
 
>  <dipole> 
5.96 
 
>  <excitation_energy_1> 
3.496 
 
>  <excitation_energy_2> 
4.385 
 
>  <excitation_energy_3> 
4.575 
 
>  <excitation_energy_4> 
4.677 
 
>  <homo_energy> 
-5.472 
 
>  <homo_lumo_gap> 
4.348 
 
>  <logP> 
2.717 
 
>  <lumo_energy> 
-1.124 
 
>  <melting_point> 
140.96 
 
>  <molecular_refractivity> 
62.68 
 
>  <oscillator_strength_1> 
0.0255 
 
>  <oscillator_strength_2> 
0.0206 
 
>  <oscillator_strength_3> 
0.0024 
 
>  <oscillator_strength_4> 
0.0026 
 
>  <open_babel_can_smiles> 
Oc1ccccc1/C(=N\c1ccccc1)/O 
 
>  <mulliken_charges> 
27 
1   -0.133945 
2   -0.137583 
3   -0.138797 
4   -0.135267 
5   -0.129547 
6   -0.156636 
7   -0.142189 
8   -0.168538 
9   -0.183665 
10   0.233669 
11   0.0502 
12   0.294559 
13   0.428354 
14   -0.478751 
15   -0.669349 
16   -0.594454 
17   0.120764 
18   0.124991 
19   0.123985 
20   0.141691 
21   0.142542 
22   0.130681 
23   0.124277 
24   0.171157 
25   0.12769 
26   0.421855 
27   0.432306 
 
>  <lowdin_charges> 
27 
1   -0.176835 
2   -0.155569 
3   -0.153559 
4   -0.16862 
5   -0.132651 
6   -0.184159 
7   -0.185876 
8   -0.125004 
9   -0.209314 
10   0.048665 
11   -0.071918 
12   0.100696 
13   0.152407 
14   -0.169174 
15   -0.386657 
16   -0.363408 
17   0.152626 
18   0.156946 
19   0.155634 
20   0.165197 
21   0.164047 
22   0.162269 
23   0.159019 
24   0.182267 
25   0.158984 
26   0.366574 
27   0.357413 
 
$$$$ 
 
