PCCDB-ID:  17172 
public computational chemistry database (PCCDB) project, http://pccdb.org 
 
 32 34  0  0  0  0  0  0  0  0999 V2000 
    1.4778    0.9387    0.8375 C   0  0  0  0  0  0  0  0  0  0  0  0 
    4.5033    7.7298   -5.3530 C   0  0  0  0  0  0  0  0  0  0  0  0 
    4.3179   -0.3663   -2.9543 C   0  0  0  0  0  0  0  0  0  0  0  0 
    5.8047    3.1514   -6.1949 C   0  0  0  0  0  0  0  0  0  0  0  0 
    3.6330   -0.6728   -1.7960 C   0  0  0  0  0  0  0  0  0  0  0  0 
    5.7959    4.4629   -6.5233 C   0  0  0  0  0  0  0  0  0  0  0  0 
    5.0966    1.3546   -4.6203 C   0  0  0  0  0  0  0  0  0  0  0  0 
    3.0545    1.6718   -1.5094 C   0  0  0  0  0  0  0  0  0  0  0  0 
    4.4261    4.9838   -4.5225 C   0  0  0  0  0  0  0  0  0  0  0  0 
    4.4049    0.9584   -3.4324 C   0  0  0  0  0  0  0  0  0  0  0  0 
    5.1283    2.6661   -5.0124 C   0  0  0  0  0  0  0  0  0  0  0  0 
    2.9874    0.3454   -1.0477 C   0  0  0  0  0  0  0  0  0  0  0  0 
    5.1085    5.4733   -5.7141 C   0  0  0  0  0  0  0  0  0  0  0  0 
    3.7552    1.9568   -2.6755 C   0  0  0  0  0  0  0  0  0  0  0  0 
    4.4461    3.6626   -4.2073 C   0  0  0  0  0  0  0  0  0  0  0  0 
    2.3371    0.0172    0.1212 N   0  0  0  0  0  0  0  0  0  0  0  0 
    5.1717    6.7033   -6.1309 N   0  0  0  0  0  0  0  0  0  0  0  0 
    3.7827    3.2651   -3.0658 O   0  0  0  0  0  0  0  0  0  0  0  0 
    1.0590    0.4231    1.7049 H   0  0  0  0  0  0  0  0  0  0  0  0 
    0.6481    1.3187    0.2216 H   0  0  0  0  0  0  0  0  0  0  0  0 
    2.0522    1.7971    1.2048 H   0  0  0  0  0  0  0  0  0  0  0  0 
    4.6603    8.7013   -5.8323 H   0  0  0  0  0  0  0  0  0  0  0  0 
    4.8879    7.8001   -4.3220 H   0  0  0  0  0  0  0  0  0  0  0  0 
    3.4154    7.5657   -5.2804 H   0  0  0  0  0  0  0  0  0  0  0  0 
    4.8065   -1.1576   -3.5174 H   0  0  0  0  0  0  0  0  0  0  0  0 
    6.3235    2.4236   -6.8143 H   0  0  0  0  0  0  0  0  0  0  0  0 
    3.5874   -1.7005   -1.4440 H   0  0  0  0  0  0  0  0  0  0  0  0 
    6.3022    4.8325   -7.4095 H   0  0  0  0  0  0  0  0  0  0  0  0 
    5.6034    0.5969   -5.2140 H   0  0  0  0  0  0  0  0  0  0  0  0 
    2.5745    2.4869   -0.9819 H   0  0  0  0  0  0  0  0  0  0  0  0 
    3.8950    5.6686   -3.8723 H   0  0  0  0  0  0  0  0  0  0  0  0 
    2.1417   -0.9651    0.2482 H   0  0  0  0  0  0  0  0  0  0  0  0 
  1 21  1  0  0  0  0 
  1 19  1  0  0  0  0 
  2 24  1  0  0  0  0 
  2 23  1  0  0  0  0 
  3  5  1  0  0  0  0 
  4 11  1  0  0  0  0 
  5 27  1  0  0  0  0 
  5 12  2  0  0  0  0 
  6  4  2  0  0  0  0 
  6 13  1  0  0  0  0 
  7 10  1  0  0  0  0 
  8 12  1  0  0  0  0 
  8 30  1  0  0  0  0 
  9 15  2  0  0  0  0 
  9 31  1  0  0  0  0 
 10  3  2  0  0  0  0 
 10 14  1  0  0  0  0 
 11  7  2  0  0  0  0 
 11 15  1  0  0  0  0 
 12 16  1  0  0  0  0 
 13  9  1  0  0  0  0 
 14  8  2  0  0  0  0 
 15 18  1  0  0  0  0 
 16 32  1  0  0  0  0 
 16  1  1  0  0  0  0 
 17 13  2  0  0  0  0 
 17  2  1  0  0  0  0 
 18 14  1  0  0  0  0 
 20  1  1  0  0  0  0 
 22  2  1  0  0  0  0 
 25  3  1  0  0  0  0 
 26  4  1  0  0  0  0 
 28  6  1  0  0  0  0 
 29  7  1  0  0  0  0 
M  END 
>  <HBA> 
3 
 
>  <HBD> 
1 
 
>  <TPSA> 
37.53 
 
>  <cid> 
17172 
 
>  <dipole> 
7.58 
 
>  <excitation_energy_1> 
2.896 
 
>  <excitation_energy_2> 
3.33 
 
>  <excitation_energy_3> 
3.655 
 
>  <excitation_energy_4> 
3.844 
 
>  <homo_energy> 
-4.735 
 
>  <homo_lumo_gap> 
2.923 
 
>  <logP> 
3.183 
 
>  <lumo_energy> 
-1.812 
 
>  <melting_point> 
159.24 
 
>  <molecular_refractivity> 
73.57 
 
>  <oscillator_strength_1> 
0.6552 
 
>  <oscillator_strength_2> 
0.0001 
 
>  <oscillator_strength_3> 
0.0446 
 
>  <oscillator_strength_4> 
0.1477 
 
>  <open_babel_can_smiles> 
CNc1ccc2c(c1)oc1c(c2)cc/c(=N/C)/c1 
 
>  <mulliken_charges> 
32 
1   -0.302191 
2   -0.319603 
3   -0.205707 
4   -0.192676 
5   -0.191944 
6   -0.130797 
7   -0.235077 
8   -0.264793 
9   -0.274326 
10   0.139067 
11   0.150654 
12   0.379577 
13   0.30991 
14   0.319482 
15   0.324765 
16   -0.650538 
17   -0.488563 
18   -0.563652 
19   0.162039 
20   0.159786 
21   0.172586 
22   0.150136 
23   0.137522 
24   0.137684 
25   0.137079 
26   0.131255 
27   0.122852 
28   0.140478 
29   0.140951 
30   0.144115 
31   0.135011 
32   0.324919 
 
>  <lowdin_charges> 
32 
1   -0.354345 
2   -0.364411 
3   -0.139807 
4   -0.166501 
5   -0.207449 
6   -0.142825 
7   -0.138739 
8   -0.237519 
9   -0.24515 
10   -0.059399 
11   -0.027206 
12   0.079009 
13   0.043755 
14   0.126691 
15   0.115061 
16   -0.277006 
17   -0.217789 
18   -0.120546 
19   0.163258 
20   0.147347 
21   0.159129 
22   0.148705 
23   0.137726 
24   0.137144 
25   0.163655 
26   0.161042 
27   0.155405 
28   0.170433 
29   0.165717 
30   0.174132 
31   0.171093 
32   0.279388 
 
$$$$ 
 
