PCCDB-ID:  68253 
public computational chemistry database (PCCDB) project, http://pccdb.org 
 
 33 34  0  0  0  0  0  0  0  0999 V2000 
    2.5128   -0.8518   -1.7789 C   0  0  0  0  0  0  0  0  0  0  0  0 
    1.6896    0.8174   -0.0523 C   0  0  0  0  0  0  0  0  0  0  0  0 
    6.5468   -2.0102    3.1978 C   0  0  0  0  0  0  0  0  0  0  0  0 
    0.7504   -4.2522    2.4946 C   0  0  0  0  0  0  0  0  0  0  0  0 
    4.0332   -4.5874    4.4561 C   0  0  0  0  0  0  0  0  0  0  0  0 
    5.0934   -3.7419    4.1616 C   0  0  0  0  0  0  0  0  0  0  0  0 
    2.7525   -4.6699    3.8955 C   0  0  0  0  0  0  0  0  0  0  0  0 
    4.2998   -1.2690    1.3637 C   0  0  0  0  0  0  0  0  0  0  0  0 
    2.1940   -2.1194    1.1489 C   0  0  0  0  0  0  0  0  0  0  0  0 
    2.8235   -0.1517   -0.4414 C   0  0  0  0  0  0  0  0  0  0  0  0 
    5.1985   -2.7095    3.2068 C   0  0  0  0  0  0  0  0  0  0  0  0 
    2.1790   -3.9118    2.8740 C   0  0  0  0  0  0  0  0  0  0  0  0 
    3.0992   -1.1504    0.6575 C   0  0  0  0  0  0  0  0  0  0  0  0 
    4.1958   -2.3078    2.3190 C   0  0  0  0  0  0  0  0  0  0  0  0 
    2.8033   -2.8614    2.1681 C   0  0  0  0  0  0  0  0  0  0  0  0 
    2.3578   -0.1142   -2.5757 H   0  0  0  0  0  0  0  0  0  0  0  0 
    1.6038   -1.4603   -1.7035 H   0  0  0  0  0  0  0  0  0  0  0  0 
    3.3328   -1.5130   -2.0789 H   0  0  0  0  0  0  0  0  0  0  0  0 
    1.5298    1.5641   -0.8398 H   0  0  0  0  0  0  0  0  0  0  0  0 
    1.9229    1.3459    0.8783 H   0  0  0  0  0  0  0  0  0  0  0  0 
    0.7459    0.2795    0.0967 H   0  0  0  0  0  0  0  0  0  0  0  0 
    6.7452   -1.5573    4.1772 H   0  0  0  0  0  0  0  0  0  0  0  0 
    6.6274   -1.2278    2.4449 H   0  0  0  0  0  0  0  0  0  0  0  0 
    7.3486   -2.7364    3.0155 H   0  0  0  0  0  0  0  0  0  0  0  0 
    0.3661   -5.0834    3.0916 H   0  0  0  0  0  0  0  0  0  0  0  0 
    0.6789   -4.5316    1.4368 H   0  0  0  0  0  0  0  0  0  0  0  0 
    0.0869   -3.3918    2.6436 H   0  0  0  0  0  0  0  0  0  0  0  0 
    4.2277   -5.3048    5.2523 H   0  0  0  0  0  0  0  0  0  0  0  0 
    5.9881   -3.9015    4.7620 H   0  0  0  0  0  0  0  0  0  0  0  0 
    2.1141   -5.4399    4.3233 H   0  0  0  0  0  0  0  0  0  0  0  0 
    5.1672   -0.6454    1.1911 H   0  0  0  0  0  0  0  0  0  0  0  0 
    1.1831   -2.2624    0.7895 H   0  0  0  0  0  0  0  0  0  0  0  0 
    3.7366    0.4435   -0.5816 H   0  0  0  0  0  0  0  0  0  0  0  0 
  1 17  1  0  0  0  0 
  1 10  1  0  0  0  0 
  2 21  1  0  0  0  0 
  2 20  1  0  0  0  0 
  3 11  1  0  0  0  0 
  3 22  1  0  0  0  0 
  4 27  1  0  0  0  0 
  4 12  1  0  0  0  0 
  4 25  1  0  0  0  0 
  5 28  1  0  0  0  0 
  6  5  1  0  0  0  0 
  6 29  1  0  0  0  0 
  7 30  1  0  0  0  0 
  7  5  2  0  0  0  0 
  8 14  2  0  0  0  0 
  9 15  1  0  0  0  0 
 10  2  1  0  0  0  0 
 10 13  1  0  0  0  0 
 11  6  2  0  0  0  0 
 12  7  1  0  0  0  0 
 13  9  2  0  0  0  0 
 13  8  1  0  0  0  0 
 14 11  1  0  0  0  0 
 15 14  1  0  0  0  0 
 15 12  2  0  0  0  0 
 16  1  1  0  0  0  0 
 18  1  1  0  0  0  0 
 19  2  1  0  0  0  0 
 23  3  1  0  0  0  0 
 24  3  1  0  0  0  0 
 26  4  1  0  0  0  0 
 31  8  1  0  0  0  0 
 32  9  1  0  0  0  0 
 33 10  1  0  0  0  0 
M  END 
>  <HBA> 
0 
 
>  <HBD> 
0 
 
>  <TPSA> 
0.0 
 
>  <cid> 
68253 
 
>  <dipole> 
0.7 
 
>  <excitation_energy_1> 
2.556 
 
>  <excitation_energy_2> 
3.528 
 
>  <excitation_energy_3> 
4.339 
 
>  <excitation_energy_4> 
4.651 
 
>  <homo_energy> 
-5.015 
 
>  <homo_lumo_gap> 
3.461 
 
>  <logP> 
4.532 
 
>  <lumo_energy> 
-1.554 
 
>  <melting_point> 
53.01 
 
>  <molecular_refractivity> 
67.58 
 
>  <oscillator_strength_1> 
0.01 
 
>  <oscillator_strength_2> 
0.0001 
 
>  <oscillator_strength_3> 
0.0627 
 
>  <oscillator_strength_4> 
1.0551 
 
>  <open_babel_can_smiles> 
Cc1cccc(c2c1cc(c2)C(C)C)C 
 
>  <mulliken_charges> 
33 
1   -0.437395 
2   -0.437287 
3   -0.531102 
4   -0.531711 
5   -0.100455 
6   -0.195161 
7   -0.212578 
8   -0.268341 
9   -0.261356 
10   -0.154826 
11   0.125162 
12   0.141526 
13   0.163144 
14   0.060457 
15   0.056542 
16   0.138058 
17   0.142611 
18   0.149207 
19   0.138056 
20   0.149213 
21   0.142724 
22   0.166469 
23   0.168196 
24   0.165704 
25   0.155022 
26   0.168954 
27   0.169148 
28   0.130333 
29   0.12144 
30   0.121185 
31   0.117959 
32   0.114153 
33   0.124947 
 
>  <lowdin_charges> 
33 
1   -0.441643 
2   -0.440624 
3   -0.443787 
4   -0.441547 
5   -0.13145 
6   -0.186357 
7   -0.192104 
8   -0.229305 
9   -0.224025 
10   -0.118611 
11   0.036668 
12   0.036945 
13   0.011784 
14   -0.008676 
15   -0.016589 
16   0.147175 
17   0.147573 
18   0.153422 
19   0.147141 
20   0.152732 
21   0.147447 
22   0.163794 
23   0.162838 
24   0.164271 
25   0.156748 
26   0.163065 
27   0.165034 
28   0.160385 
29   0.155598 
30   0.156306 
31   0.152289 
32   0.151936 
33   0.141568 
 
$$$$ 
 
