PCCDB-ID:  55830 
public computational chemistry database (PCCDB) project, http://pccdb.org 
 
 21 22  0  0  0  0  0  0  0  0999 V2000 
    0.9162    0.0963    0.0146 C   0  0  0  0  0  0  0  0  0  0  0  0 
    4.7007   -3.4343   -0.0683 C   0  0  0  0  0  0  0  0  0  0  0  0 
    3.3260   -3.6292    0.0685 C   0  0  0  0  0  0  0  0  0  0  0  0 
    5.2250   -2.1322   -0.0719 C   0  0  0  0  0  0  0  0  0  0  0  0 
    2.4460   -2.5474    0.2014 C   0  0  0  0  0  0  0  0  0  0  0  0 
    4.6344    0.4361    0.1218 C   0  0  0  0  0  0  0  0  0  0  0  0 
    3.2252    1.0223   -0.1160 C   0  0  0  0  0  0  0  0  0  0  0  0 
    4.3656   -1.0531    0.0564 C   0  0  0  0  0  0  0  0  0  0  0  0 
    2.9798   -1.2571    0.2030 C   0  0  0  0  0  0  0  0  0  0  0  0 
    2.3161   -0.0331    0.3576 N   0  0  0  0  0  0  0  0  0  0  0  0 
    0.5574    1.0820    0.3288 H   0  0  0  0  0  0  0  0  0  0  0  0 
    0.3267   -0.6557    0.5476 H   0  0  0  0  0  0  0  0  0  0  0  0 
    0.7243   -0.0138   -1.0683 H   0  0  0  0  0  0  0  0  0  0  0  0 
    5.3642   -4.2874   -0.1769 H   0  0  0  0  0  0  0  0  0  0  0  0 
    2.9225   -4.6387    0.0618 H   0  0  0  0  0  0  0  0  0  0  0  0 
    6.2953   -1.9729   -0.1845 H   0  0  0  0  0  0  0  0  0  0  0  0 
    1.3779   -2.7183    0.2955 H   0  0  0  0  0  0  0  0  0  0  0  0 
    5.0077    0.7206    1.1158 H   0  0  0  0  0  0  0  0  0  0  0  0 
    5.3613    0.7905   -0.6158 H   0  0  0  0  0  0  0  0  0  0  0  0 
    3.0663    1.2139   -1.1930 H   0  0  0  0  0  0  0  0  0  0  0  0 
    3.0439    1.9579    0.4236 H   0  0  0  0  0  0  0  0  0  0  0  0 
  1 11  1  0  0  0  0 
  1 10  1  0  0  0  0 
  1 12  1  0  0  0  0 
  2  3  1  0  0  0  0 
  3  5  2  0  0  0  0 
  4  2  2  0  0  0  0 
  4  8  1  0  0  0  0 
  5  9  1  0  0  0  0 
  5 17  1  0  0  0  0 
  6 18  1  0  0  0  0 
  7  6  1  0  0  0  0 
  7 10  1  0  0  0  0 
  7 21  1  0  0  0  0 
  8  6  1  0  0  0  0 
  8  9  2  0  0  0  0 
  9 10  1  0  0  0  0 
 13  1  1  0  0  0  0 
 14  2  1  0  0  0  0 
 15  3  1  0  0  0  0 
 16  4  1  0  0  0  0 
 19  6  1  0  0  0  0 
 20  7  1  0  0  0  0 
M  END 
>  <HBA> 
1 
 
>  <HBD> 
0 
 
>  <TPSA> 
3.24 
 
>  <cid> 
55830 
 
>  <dipole> 
1.48 
 
>  <excitation_energy_1> 
4.331 
 
>  <excitation_energy_2> 
4.66 
 
>  <excitation_energy_3> 
4.994 
 
>  <excitation_energy_4> 
5.049 
 
>  <homo_energy> 
-4.988 
 
>  <homo_lumo_gap> 
5.238 
 
>  <logP> 
1.744 
 
>  <lumo_energy> 
0.25 
 
>  <melting_point> 
40.08 
 
>  <molecular_refractivity> 
46.44 
 
>  <oscillator_strength_1> 
0.0472 
 
>  <oscillator_strength_2> 
0.0412 
 
>  <oscillator_strength_3> 
0.0214 
 
>  <oscillator_strength_4> 
0.0207 
 
>  <open_babel_can_smiles> 
CN1CCc2c1cccc2 
 
>  <mulliken_charges> 
21 
1   -0.308067 
2   -0.138914 
3   -0.140734 
4   -0.210189 
5   -0.194052 
6   -0.350373 
7   -0.127419 
8   0.095374 
9   0.33715 
10   -0.483746 
11   0.155207 
12   0.162548 
13   0.137494 
14   0.118079 
15   0.121644 
16   0.119576 
17   0.120054 
18   0.159809 
19   0.151814 
20   0.130166 
21   0.14458 
 
>  <lowdin_charges> 
21 
1   -0.350448 
2   -0.18689 
3   -0.149712 
4   -0.157883 
5   -0.203875 
6   -0.278344 
7   -0.187375 
8   -0.038805 
9   0.046247 
10   -0.135958 
11   0.154481 
12   0.158842 
13   0.131233 
14   0.154409 
15   0.15376 
16   0.151996 
17   0.153259 
18   0.155439 
19   0.157285 
20   0.126047 
21   0.146293 
 
$$$$ 
 
