PCCDB-ID:  23087 
public computational chemistry database (PCCDB) project, http://pccdb.org 
 
 22 21  0  0  0  0  0  0  0  0999 V2000 
    0.4552   -0.8641    0.8958 C   0  0  0  0  0  0  0  0  0  0  0  0 
    3.9982    4.4874   -3.5877 C   0  0  0  0  0  0  0  0  0  0  0  0 
    1.8234   -0.8707    0.2063 C   0  0  0  0  0  0  0  0  0  0  0  0 
    1.9286    0.1773   -0.9104 C   0  0  0  0  0  0  0  0  0  0  0  0 
    3.2929    0.1495   -1.5902 C   0  0  0  0  0  0  0  0  0  0  0  0 
    3.3598    2.5806   -4.9420 C   0  0  0  0  0  0  0  0  0  0  0  0 
    3.6847    3.1855   -3.6821 C   0  0  0  0  0  0  0  0  0  0  0  0 
    3.6744    2.3432   -2.4333 C   0  0  0  0  0  0  0  0  0  0  0  0 
    3.0988    2.1081   -5.9718 N   0  0  0  0  0  0  0  0  0  0  0  0 
    3.9384    2.7815   -1.3338 O   0  0  0  0  0  0  0  0  0  0  0  0 
    3.3464    1.0736   -2.7089 O   0  0  0  0  0  0  0  0  0  0  0  0 
    0.4075   -1.6186    1.6887 H   0  0  0  0  0  0  0  0  0  0  0  0 
   -0.3493   -1.0779    0.1819 H   0  0  0  0  0  0  0  0  0  0  0  0 
    0.2459    0.1118    1.3498 H   0  0  0  0  0  0  0  0  0  0  0  0 
    4.0201    5.1352   -4.4571 H   0  0  0  0  0  0  0  0  0  0  0  0 
    4.2372    4.9053   -2.6153 H   0  0  0  0  0  0  0  0  0  0  0  0 
    2.0189   -1.8694   -0.2091 H   0  0  0  0  0  0  0  0  0  0  0  0 
    2.6095   -0.6893    0.9523 H   0  0  0  0  0  0  0  0  0  0  0  0 
    1.7583    1.1789   -0.4971 H   0  0  0  0  0  0  0  0  0  0  0  0 
    1.1522    0.0005   -1.6660 H   0  0  0  0  0  0  0  0  0  0  0  0 
    3.4953   -0.8246   -2.0420 H   0  0  0  0  0  0  0  0  0  0  0  0 
    4.0939    0.4016   -0.8904 H   0  0  0  0  0  0  0  0  0  0  0  0 
  1 14  1  0  0  0  0 
  1 12  1  0  0  0  0 
  2 16  1  0  0  0  0 
  3  1  1  0  0  0  0 
  3 18  1  0  0  0  0 
  4 19  1  0  0  0  0 
  4  3  1  0  0  0  0 
  5  4  1  0  0  0  0 
  5 22  1  0  0  0  0 
  6  7  1  0  0  0  0 
  7  2  2  0  0  0  0 
  7  8  1  0  0  0  0 
  8 10  2  0  0  0  0 
  9  6  3  0  0  0  0 
 11  8  1  0  0  0  0 
 11  5  1  0  0  0  0 
 13  1  1  0  0  0  0 
 15  2  1  0  0  0  0 
 17  3  1  0  0  0  0 
 20  4  1  0  0  0  0 
 21  5  1  0  0  0  0 
M  END 
>  <HBA> 
3 
 
>  <HBD> 
0 
 
>  <TPSA> 
50.09 
 
>  <cid> 
23087 
 
>  <dipole> 
2.61 
 
>  <excitation_energy_1> 
4.5 
 
>  <excitation_energy_2> 
5.417 
 
>  <excitation_energy_3> 
5.638 
 
>  <excitation_energy_4> 
5.841 
 
>  <homo_energy> 
-7.965 
 
>  <homo_lumo_gap> 
5.753 
 
>  <logP> 
1.409 
 
>  <lumo_energy> 
-2.212 
 
>  <melting_point> 
1.27 
 
>  <molecular_refractivity> 
41.13 
 
>  <oscillator_strength_1> 
0.0001 
 
>  <oscillator_strength_2> 
0.0184 
 
>  <oscillator_strength_3> 
0.2489 
 
>  <oscillator_strength_4> 
0.0002 
 
>  <open_babel_can_smiles> 
CCCCOC(=O)C(=C)C#N 
 
>  <mulliken_charges> 
22 
1   -0.442067 
2   -0.319129 
3   -0.260365 
4   -0.276236 
5   -0.051716 
6   0.286565 
7   0.092578 
8   0.631682 
9   -0.472674 
10   -0.481088 
11   -0.467526 
12   0.147858 
13   0.147046 
14   0.14821 
15   0.190631 
16   0.202804 
17   0.136587 
18   0.141467 
19   0.159961 
20   0.150937 
21   0.162092 
22   0.172384 
 
>  <lowdin_charges> 
22 
1   -0.44323 
2   -0.226938 
3   -0.27172 
4   -0.286869 
5   -0.129199 
6   -0.009713 
7   -0.045778 
8   0.20105 
9   -0.102853 
10   -0.260966 
11   -0.167957 
12   0.153351 
13   0.150082 
14   0.149781 
15   0.18664 
16   0.193607 
17   0.14113 
18   0.144705 
19   0.154636 
20   0.151381 
21   0.157814 
22   0.161043 
 
$$$$ 
 
