PCCDB-ID:  55532 
public computational chemistry database (PCCDB) project, http://pccdb.org 
 
 27 27  0  0  1  0  0  0  0  0999 V2000 
    0.9810    0.0380   -0.1912 C   0  0  0  0  0  0  0  0  0  0  0  0 
    2.8824    0.4103    1.4335 C   0  0  0  0  0  0  0  0  0  0  0  0 
    4.9347    1.3478   -2.8030 C   0  0  0  0  0  0  0  0  0  0  0  0 
    5.7982   -2.1935    0.1153 C   0  0  0  0  0  0  0  0  0  0  0  0 
    3.1042    1.2061   -0.9982 C   0  0  0  0  0  0  0  0  0  0  0  0 
    2.4948    0.1523   -0.0232 C   0  0  0  0  0  0  0  0  0  0  0  0 
    4.4747    0.7059   -1.4979 C   0  0  2  0  0  0  0  0  0  0  0  0 
    5.4803    0.8235   -0.4797 O   0  0  0  0  0  0  0  0  0  0  0  0 
    3.5393   -1.4736   -2.9919 O   0  0  0  0  0  0  0  0  0  0  0  0 
    5.3160   -2.0369   -1.2315 O   0  0  0  0  0  0  0  0  0  0  0  0 
    3.0692   -1.1515   -0.3871 O   0  0  0  0  0  0  0  0  0  0  0  0 
    4.0820   -1.1061   -1.6638 P   0  0  1  0  0  0  0  0  0  0  0  0 
    0.4984    0.9959    0.0372 H   0  0  0  0  0  0  0  0  0  0  0  0 
    0.5772   -0.7222    0.4850 H   0  0  0  0  0  0  0  0  0  0  0  0 
    0.7295   -0.2444   -1.2182 H   0  0  0  0  0  0  0  0  0  0  0  0 
    2.4216    1.3390    1.7904 H   0  0  0  0  0  0  0  0  0  0  0  0 
    3.9671    0.4964    1.5318 H   0  0  0  0  0  0  0  0  0  0  0  0 
    2.5318   -0.4110    2.0671 H   0  0  0  0  0  0  0  0  0  0  0  0 
    5.0157    2.4376   -2.6862 H   0  0  0  0  0  0  0  0  0  0  0  0 
    4.2331    1.1357   -3.6136 H   0  0  0  0  0  0  0  0  0  0  0  0 
    5.9173    0.9583   -3.0865 H   0  0  0  0  0  0  0  0  0  0  0  0 
    6.4665   -3.0566    0.0937 H   0  0  0  0  0  0  0  0  0  0  0  0 
    4.9682   -2.3835    0.8001 H   0  0  0  0  0  0  0  0  0  0  0  0 
    6.3429   -1.2997    0.4241 H   0  0  0  0  0  0  0  0  0  0  0  0 
    3.1974    2.1835   -0.5082 H   0  0  0  0  0  0  0  0  0  0  0  0 
    2.4407    1.3336   -1.8615 H   0  0  0  0  0  0  0  0  0  0  0  0 
    5.6753    1.7698   -0.3739 H   0  0  0  0  0  0  0  0  0  0  0  0 
  1  6  1  0  0  0  0 
  1 13  1  0  0  0  0 
  1 14  1  0  0  0  0 
  2 17  1  0  0  0  0 
  2 16  1  0  0  0  0 
  2 18  1  0  0  0  0 
  3 19  1  0  0  0  0 
  3  7  1  0  0  0  0 
  4 24  1  0  0  0  0 
  4 23  1  0  0  0  0 
  5 25  1  0  0  0  0 
  5  6  1  0  0  0  0 
  6  2  1  0  0  0  0 
  7  5  1  0  0  0  0 
  7  8  1  1  0  0  0 
  8 27  1  0  0  0  0 
 10  4  1  0  0  0  0 
 11  6  1  0  0  0  0 
 12  9  2  6  0  0  0 
 12  7  1  0  0  0  0 
 12 10  1  0  0  0  0 
 12 11  1  0  0  0  0 
 15  1  1  0  0  0  0 
 20  3  1  0  0  0  0 
 21  3  1  0  0  0  0 
 22  4  1  0  0  0  0 
 26  5  1  0  0  0  0 
M  END 
>  <HBA> 
4 
 
>  <HBD> 
1 
 
>  <TPSA> 
65.57 
 
>  <cid> 
55532 
 
>  <dipole> 
5.81 
 
>  <excitation_energy_1> 
6.473 
 
>  <excitation_energy_2> 
6.69 
 
>  <excitation_energy_3> 
6.8 
 
>  <excitation_energy_4> 
7.147 
 
>  <homo_energy> 
-7.306 
 
>  <homo_lumo_gap> 
8.512 
 
>  <logP> 
1.733 
 
>  <lumo_energy> 
1.205 
 
>  <melting_point> 
33.55 
 
>  <molecular_refractivity> 
45.72 
 
>  <oscillator_strength_1> 
0.0209 
 
>  <oscillator_strength_2> 
0.0049 
 
>  <oscillator_strength_3> 
0.0148 
 
>  <oscillator_strength_4> 
0.0132 
 
>  <open_babel_can_smiles> 
CO[P@@]1(=O)OC(C[C@@]1(C)O)(C)C 
 
>  <mulliken_charges> 
27 
1   -0.4532 
2   -0.457269 
3   -0.474786 
4   -0.224863 
5   -0.347483 
6   0.317337 
7   0.077474 
8   -0.630386 
9   -0.53518 
10   -0.505627 
11   -0.587842 
12   1.168529 
13   0.142041 
14   0.159167 
15   0.173645 
16   0.140197 
17   0.167171 
18   0.156974 
19   0.132185 
20   0.187415 
21   0.173858 
22   0.166354 
23   0.169635 
24   0.179614 
25   0.142831 
26   0.169908 
27   0.392301 
 
>  <lowdin_charges> 
27 
1   -0.446656 
2   -0.453144 
3   -0.451193 
4   -0.272589 
5   -0.307066 
6   0.143363 
7   -0.036149 
8   -0.449761 
9   -0.576949 
10   -0.380751 
11   -0.40614 
12   1.049431 
13   0.15291 
14   0.161379 
15   0.165398 
16   0.151901 
17   0.160694 
18   0.159568 
19   0.142687 
20   0.179105 
21   0.167472 
22   0.160193 
23   0.159903 
24   0.161865 
25   0.153616 
26   0.168075 
27   0.342835 
 
$$$$ 
 
