PCCDB-ID:  32205 
public computational chemistry database (PCCDB) project, http://pccdb.org 
 
 19 19  0  0  1  0  0  0  0  0999 V2000 
    1.0557   -0.1150    0.2600 C   0  0  0  0  0  0  0  0  0  0  0  0 
    4.1676    0.9737   -1.7409 C   0  0  0  0  0  0  0  0  0  0  0  0 
    2.8505    1.2918   -0.9764 C   0  0  0  0  0  0  0  0  0  0  0  0 
    4.3520   -0.5704   -1.6407 C   0  0  0  0  0  0  0  0  0  0  0  0 
    2.5115    0.0081   -0.1849 C   0  0  2  0  0  0  0  0  0  0  0  0 
    3.0078   -1.1154   -1.1241 C   0  0  1  0  0  0  0  0  0  0  0  0 
    2.0890   -1.3950   -2.1848 O   0  0  0  0  0  0  0  0  0  0  0  0 
    0.7511    0.7486    0.8630 H   0  0  0  0  0  0  0  0  0  0  0  0 
    0.9004   -1.0167    0.8642 H   0  0  0  0  0  0  0  0  0  0  0  0 
    0.3906   -0.1816   -0.6071 H   0  0  0  0  0  0  0  0  0  0  0  0 
    5.0212    1.4965   -1.2975 H   0  0  0  0  0  0  0  0  0  0  0  0 
    4.1112    1.3084   -2.7827 H   0  0  0  0  0  0  0  0  0  0  0  0 
    2.0368    1.5158   -1.6812 H   0  0  0  0  0  0  0  0  0  0  0  0 
    2.9393    2.1677   -0.3254 H   0  0  0  0  0  0  0  0  0  0  0  0 
    5.1427   -0.8117   -0.9201 H   0  0  0  0  0  0  0  0  0  0  0  0 
    4.6260   -1.0411   -2.5902 H   0  0  0  0  0  0  0  0  0  0  0  0 
    3.1604   -0.0210    0.7040 H   0  0  0  0  0  0  0  0  0  0  0  0 
    3.1157   -2.0715   -0.6022 H   0  0  0  0  0  0  0  0  0  0  0  0 
    2.0039   -0.5926   -2.7238 H   0  0  0  0  0  0  0  0  0  0  0  0 
  1  8  1  0  0  0  0 
  1  9  1  0  0  0  0 
  2  4  1  0  0  0  0 
  2 11  1  0  0  0  0 
  2  3  1  0  0  0  0 
  3 14  1  0  0  0  0 
  3  5  1  0  0  0  0 
  4  6  1  0  0  0  0 
  4 15  1  0  0  0  0 
  5  1  1  0  0  0  0 
  5 17  1  1  0  0  0 
  6 18  1  1  0  0  0 
  6  5  1  0  0  0  0 
  7  6  1  0  0  0  0 
 10  1  1  0  0  0  0 
 12  2  1  0  0  0  0 
 13  3  1  0  0  0  0 
 16  4  1  0  0  0  0 
 19  7  1  0  0  0  0 
M  END 
>  <HBA> 
1 
 
>  <HBD> 
1 
 
>  <TPSA> 
20.23 
 
>  <cid> 
32205 
 
>  <dipole> 
1.71 
 
>  <excitation_energy_1> 
6.287 
 
>  <excitation_energy_2> 
6.797 
 
>  <excitation_energy_3> 
7.181 
 
>  <excitation_energy_4> 
7.382 
 
>  <homo_energy> 
-6.934 
 
>  <homo_lumo_gap> 
8.504 
 
>  <logP> 
1.167 
 
>  <lumo_energy> 
1.57 
 
>  <melting_point> 
14.63 
 
>  <molecular_refractivity> 
30.0 
 
>  <oscillator_strength_1> 
0.0086 
 
>  <oscillator_strength_2> 
0.0018 
 
>  <oscillator_strength_3> 
0.009 
 
>  <oscillator_strength_4> 
0.0085 
 
>  <open_babel_can_smiles> 
O[C@H]1CCC[C@H]1C 
 
>  <mulliken_charges> 
19 
1   -0.439878 
2   -0.286591 
3   -0.289855 
4   -0.292372 
5   -0.090502 
6   0.131286 
7   -0.627849 
8   0.137109 
9   0.142125 
10   0.14839 
11   0.142734 
12   0.136522 
13   0.125118 
14   0.140492 
15   0.13821 
16   0.145737 
17   0.121453 
18   0.130867 
19   0.387005 
 
>  <lowdin_charges> 
19 
1   -0.445287 
2   -0.293163 
3   -0.292865 
4   -0.304478 
5   -0.145654 
6   -0.006292 
7   -0.463641 
8   0.147947 
9   0.150983 
10   0.15203 
11   0.149496 
12   0.142507 
13   0.13564 
14   0.149551 
15   0.149533 
16   0.151838 
17   0.140109 
18   0.143211 
19   0.338535 
 
$$$$ 
 
