PCCDB-ID:  65268 
public computational chemistry database (PCCDB) project, http://pccdb.org 
 
 33 32  0  0  0  0  0  0  0  0999 V2000 
    0.9709   -0.3841   -0.3367 C   0  0  0  0  0  0  0  0  0  0  0  0 
   -0.0372   -0.9419    0.6843 C   0  0  0  0  0  0  0  0  0  0  0  0 
    2.3143    0.0529    0.2652 C   0  0  0  0  0  0  0  0  0  0  0  0 
   -0.4106    0.0035    1.8379 C   0  0  0  0  0  0  0  0  0  0  0  0 
    3.3310    0.4612   -0.8087 C   0  0  0  0  0  0  0  0  0  0  0  0 
   -1.0861    1.3142    1.3789 C   0  0  0  0  0  0  0  0  0  0  0  0 
    4.6869    0.9454   -0.2477 C   0  0  0  0  0  0  0  0  0  0  0  0 
   -1.3797    2.2295    2.5377 C   0  0  0  0  0  0  0  0  0  0  0  0 
    5.4386   -0.1274    0.4844 C   0  0  0  0  0  0  0  0  0  0  0  0 
   -0.6019    3.1239    3.0210 N   0  0  0  0  0  0  0  0  0  0  0  0 
    6.1676   -1.0597   -0.0065 N   0  0  0  0  0  0  0  0  0  0  0  0 
   -2.5624    2.0757    3.2035 O   0  0  0  0  0  0  0  0  0  0  0  0 
    5.2968   -0.0972    1.8367 O   0  0  0  0  0  0  0  0  0  0  0  0 
    0.6247    3.1530    2.2977 O   0  0  0  0  0  0  0  0  0  0  0  0 
    6.2139   -0.9785   -1.4260 O   0  0  0  0  0  0  0  0  0  0  0  0 
    0.5264    0.4610   -0.8813 H   0  0  0  0  0  0  0  0  0  0  0  0 
    1.1526   -1.1607   -1.0930 H   0  0  0  0  0  0  0  0  0  0  0  0 
    0.3751   -1.8627    1.1202 H   0  0  0  0  0  0  0  0  0  0  0  0 
   -0.9518   -1.2416    0.1520 H   0  0  0  0  0  0  0  0  0  0  0  0 
    2.7255   -0.7665    0.8712 H   0  0  0  0  0  0  0  0  0  0  0  0 
    2.1605    0.8954    0.9527 H   0  0  0  0  0  0  0  0  0  0  0  0 
    0.4818    0.2616    2.4181 H   0  0  0  0  0  0  0  0  0  0  0  0 
   -1.0833   -0.5232    2.5280 H   0  0  0  0  0  0  0  0  0  0  0  0 
    2.9110    1.2743   -1.4166 H   0  0  0  0  0  0  0  0  0  0  0  0 
    3.5154   -0.3766   -1.4921 H   0  0  0  0  0  0  0  0  0  0  0  0 
   -2.0207    1.0888    0.8432 H   0  0  0  0  0  0  0  0  0  0  0  0 
   -0.4363    1.8496    0.6833 H   0  0  0  0  0  0  0  0  0  0  0  0 
    4.5351    1.7847    0.4395 H   0  0  0  0  0  0  0  0  0  0  0  0 
    5.3142    1.2871   -1.0770 H   0  0  0  0  0  0  0  0  0  0  0  0 
   -3.1229    1.4728    2.6936 H   0  0  0  0  0  0  0  0  0  0  0  0 
    5.8119   -0.8467    2.1895 H   0  0  0  0  0  0  0  0  0  0  0  0 
    1.0904    3.8735    2.7478 H   0  0  0  0  0  0  0  0  0  0  0  0 
    6.8231   -1.7008   -1.6404 H   0  0  0  0  0  0  0  0  0  0  0  0 
  1  3  1  0  0  0  0 
  1  2  1  0  0  0  0 
  2 18  1  0  0  0  0 
  2  4  1  0  0  0  0 
  3 20  1  0  0  0  0 
  3 21  1  0  0  0  0 
  4 22  1  0  0  0  0 
  4 23  1  0  0  0  0 
  5  7  1  0  0  0  0 
  5  3  1  0  0  0  0 
  6  4  1  0  0  0  0 
  6  8  1  0  0  0  0 
  7 28  1  0  0  0  0 
  7  9  1  0  0  0  0 
  8 10  2  0  0  0  0 
  8 12  1  0  0  0  0 
  9 13  1  0  0  0  0 
 11  9  2  0  0  0  0 
 13 31  1  0  0  0  0 
 14 32  1  0  0  0  0 
 14 10  1  0  0  0  0 
 15 11  1  0  0  0  0 
 16  1  1  0  0  0  0 
 17  1  1  0  0  0  0 
 19  2  1  0  0  0  0 
 24  5  1  0  0  0  0 
 25  5  1  0  0  0  0 
 26  6  1  0  0  0  0 
 27  6  1  0  0  0  0 
 29  7  1  0  0  0  0 
 30 12  1  0  0  0  0 
 33 15  1  0  0  0  0 
M  END 
>  <HBA> 
6 
 
>  <HBD> 
4 
 
>  <TPSA> 
98.66 
 
>  <cid> 
65268 
 
>  <dipole> 
2.77 
 
>  <excitation_energy_1> 
5.34 
 
>  <excitation_energy_2> 
5.672 
 
>  <excitation_energy_3> 
5.674 
 
>  <excitation_energy_4> 
5.75 
 
>  <homo_energy> 
-6.025 
 
>  <homo_lumo_gap> 
6.759 
 
>  <logP> 
1.51 
 
>  <lumo_energy> 
0.735 
 
>  <melting_point> 
176.4 
 
>  <molecular_refractivity> 
52.84 
 
>  <oscillator_strength_1> 
0.0031 
 
>  <oscillator_strength_2> 
0.0004 
 
>  <oscillator_strength_3> 
0.0019 
 
>  <oscillator_strength_4> 
0.0065 
 
>  <open_babel_can_smiles> 
O/N=C(\CCCCCCC/C(=N\O)/O)/O 
 
>  <mulliken_charges> 
33 
1   -0.259806 
2   -0.25969 
3   -0.267075 
4   -0.26113 
5   -0.266112 
6   -0.349341 
7   -0.322926 
8   0.509101 
9   0.533157 
10   -0.243668 
11   -0.294636 
12   -0.589218 
13   -0.595178 
14   -0.529235 
15   -0.522642 
16   0.130776 
17   0.131339 
18   0.135542 
19   0.124768 
20   0.139286 
21   0.15492 
22   0.171948 
23   0.130575 
24   0.135317 
25   0.157433 
26   0.127196 
27   0.192266 
28   0.159227 
29   0.174235 
30   0.410742 
31   0.408254 
32   0.418624 
33   0.41595 
 
>  <lowdin_charges> 
33 
1   -0.279702 
2   -0.277077 
3   -0.285544 
4   -0.275559 
5   -0.268548 
6   -0.307124 
7   -0.291779 
8   0.103597 
9   0.11386 
10   -0.105328 
11   -0.144844 
12   -0.367852 
13   -0.3672 
14   -0.401293 
15   -0.396725 
16   0.138514 
17   0.143519 
18   0.145235 
19   0.139029 
20   0.144418 
21   0.149996 
22   0.159607 
23   0.143386 
24   0.145189 
25   0.152496 
26   0.143809 
27   0.176995 
28   0.163274 
29   0.172593 
30   0.360684 
31   0.359217 
32   0.357452 
33   0.355703 
 
$$$$ 
 
