PCCDB-ID:  52303 
public computational chemistry database (PCCDB) project, http://pccdb.org 
 
 38 37  0  0  0  0  0  0  0  0999 V2000 
    3.4328   -6.0434   -4.3236 C   0  0  0  0  0  0  0  0  0  0  0  0 
    8.8116   -7.5424   -8.8559 C   0  0  0  0  0  0  0  0  0  0  0  0 
    6.0928   -4.2970   -0.1508 C   0  0  0  0  0  0  0  0  0  0  0  0 
   10.0348   -5.7573   -3.3321 C   0  0  0  0  0  0  0  0  0  0  0  0 
    3.5104   -6.0278   -2.7978 C   0  0  0  0  0  0  0  0  0  0  0  0 
    9.0222   -6.3266   -7.9537 C   0  0  0  0  0  0  0  0  0  0  0  0 
    7.4537   -4.3515   -2.1705 C   0  0  0  0  0  0  0  0  0  0  0  0 
    7.6511   -5.1833   -3.4477 C   0  0  0  0  0  0  0  0  0  0  0  0 
    5.1017   -3.7469   -2.2841 C   0  0  0  0  0  0  0  0  0  0  0  0 
    9.0598   -5.0597   -5.4401 C   0  0  0  0  0  0  0  0  0  0  0  0 
    6.1155   -4.5268   -1.5923 N   0  0  0  0  0  0  0  0  0  0  0  0 
    8.9899   -5.0001   -4.0143 N   0  0  0  0  0  0  0  0  0  0  0  0 
    3.3799   -4.3552   -2.0413 S   0  0  0  0  0  0  0  0  0  0  0  0 
    8.6786   -6.7562   -6.2003 S   0  0  0  0  0  0  0  0  0  0  0  0 
    4.2512   -5.4719   -4.7751 H   0  0  0  0  0  0  0  0  0  0  0  0 
    2.4891   -5.6148   -4.6759 H   0  0  0  0  0  0  0  0  0  0  0  0 
    3.5060   -7.0726   -4.6973 H   0  0  0  0  0  0  0  0  0  0  0  0 
    7.7800   -7.9046   -8.7975 H   0  0  0  0  0  0  0  0  0  0  0  0 
    9.4768   -8.3648   -8.5730 H   0  0  0  0  0  0  0  0  0  0  0  0 
    9.0208   -7.2786   -9.8992 H   0  0  0  0  0  0  0  0  0  0  0  0 
    6.3721   -3.2619    0.1252 H   0  0  0  0  0  0  0  0  0  0  0  0 
    6.7868   -4.9846    0.3430 H   0  0  0  0  0  0  0  0  0  0  0  0 
    5.0868   -4.4926    0.2294 H   0  0  0  0  0  0  0  0  0  0  0  0 
    9.9114   -6.8492   -3.4262 H   0  0  0  0  0  0  0  0  0  0  0  0 
   10.0460   -5.5021   -2.2684 H   0  0  0  0  0  0  0  0  0  0  0  0 
   11.0106   -5.4867   -3.7485 H   0  0  0  0  0  0  0  0  0  0  0  0 
    4.4462   -6.4655   -2.4366 H   0  0  0  0  0  0  0  0  0  0  0  0 
    2.6865   -6.6017   -2.3614 H   0  0  0  0  0  0  0  0  0  0  0  0 
    8.3586   -5.5083   -8.2585 H   0  0  0  0  0  0  0  0  0  0  0  0 
   10.0550   -5.9665   -8.0350 H   0  0  0  0  0  0  0  0  0  0  0  0 
    7.6904   -3.2936   -2.3848 H   0  0  0  0  0  0  0  0  0  0  0  0 
    8.1751   -4.6827   -1.4164 H   0  0  0  0  0  0  0  0  0  0  0  0 
    6.9252   -4.8753   -4.2070 H   0  0  0  0  0  0  0  0  0  0  0  0 
    7.4366   -6.2410   -3.2221 H   0  0  0  0  0  0  0  0  0  0  0  0 
    5.3226   -3.7395   -3.3537 H   0  0  0  0  0  0  0  0  0  0  0  0 
    5.0665   -2.6946   -1.9488 H   0  0  0  0  0  0  0  0  0  0  0  0 
   10.0699   -4.7915   -5.7671 H   0  0  0  0  0  0  0  0  0  0  0  0 
    8.3487   -4.3495   -5.8739 H   0  0  0  0  0  0  0  0  0  0  0  0 
  1  5  1  0  0  0  0 
  2 18  1  0  0  0  0 
  2 19  1  0  0  0  0 
  2  6  1  0  0  0  0 
  3 21  1  0  0  0  0 
  3 23  1  0  0  0  0 
  3 22  1  0  0  0  0 
  4 25  1  0  0  0  0 
  5 27  1  0  0  0  0 
  5 28  1  0  0  0  0 
  5 13  1  0  0  0  0 
  6 14  1  0  0  0  0 
  7 11  1  0  0  0  0 
  7 32  1  0  0  0  0 
  8 34  1  0  0  0  0 
  8  7  1  0  0  0  0 
  9 13  1  0  0  0  0 
  9 36  1  0  0  0  0 
  9 11  1  0  0  0  0 
 10 12  1  0  0  0  0 
 11  3  1  0  0  0  0 
 12  8  1  0  0  0  0 
 12  4  1  0  0  0  0 
 14 10  1  0  0  0  0 
 15  1  1  0  0  0  0 
 16  1  1  0  0  0  0 
 17  1  1  0  0  0  0 
 20  2  1  0  0  0  0 
 24  4  1  0  0  0  0 
 26  4  1  0  0  0  0 
 29  6  1  0  0  0  0 
 30  6  1  0  0  0  0 
 31  7  1  0  0  0  0 
 33  8  1  0  0  0  0 
 35  9  1  0  0  0  0 
 37 10  1  0  0  0  0 
 38 10  1  0  0  0  0 
M  END 
>  <HBA> 
4 
 
>  <HBD> 
0 
 
>  <TPSA> 
57.08 
 
>  <cid> 
52303 
 
>  <dipole> 
2.42 
 
>  <excitation_energy_1> 
4.963 
 
>  <excitation_energy_2> 
5.13 
 
>  <excitation_energy_3> 
5.214 
 
>  <excitation_energy_4> 
5.221 
 
>  <homo_energy> 
-5.796 
 
>  <homo_lumo_gap> 
6.689 
 
>  <logP> 
2.271 
 
>  <lumo_energy> 
0.893 
 
>  <melting_point> 
-6.01 
 
>  <molecular_refractivity> 
71.16 
 
>  <oscillator_strength_1> 
0.0009 
 
>  <oscillator_strength_2> 
0.0031 
 
>  <oscillator_strength_3> 
0.0034 
 
>  <oscillator_strength_4> 
0.0018 
 
>  <open_babel_can_smiles> 
CCSCN(CCN(CSCC)C)C 
 
>  <mulliken_charges> 
38 
1   -0.432715 
2   -0.450698 
3   -0.310415 
4   -0.30896 
5   -0.411139 
6   -0.391105 
7   -0.128706 
8   -0.13266 
9   -0.282913 
10   -0.256751 
11   -0.367069 
12   -0.369557 
13   0.073976 
14   0.027013 
15   0.149914 
16   0.158086 
17   0.149838 
18   0.163765 
19   0.163999 
20   0.149791 
21   0.120321 
22   0.14973 
23   0.179044 
24   0.153491 
25   0.152898 
26   0.153244 
27   0.18922 
28   0.170093 
29   0.161722 
30   0.16163 
31   0.127892 
32   0.140852 
33   0.146673 
34   0.146379 
35   0.170833 
36   0.15144 
37   0.164222 
38   0.166622 
 
>  <lowdin_charges> 
38 
1   -0.446997 
2   -0.442224 
3   -0.360763 
4   -0.352202 
5   -0.377107 
6   -0.365256 
7   -0.205024 
8   -0.204436 
9   -0.299989 
10   -0.287713 
11   -0.186792 
12   -0.165538 
13   0.076416 
14   0.01021 
15   0.150448 
16   0.155909 
17   0.152723 
18   0.157576 
19   0.15935 
20   0.153183 
21   0.12193 
22   0.15136 
23   0.164912 
24   0.138849 
25   0.149004 
26   0.153713 
27   0.165316 
28   0.165686 
29   0.151063 
30   0.14928 
31   0.126826 
32   0.148884 
33   0.1501 
34   0.13788 
35   0.15399 
36   0.142583 
37   0.152604 
38   0.154244 
 
$$$$ 
 
