PCCDB-ID:  15202 
public computational chemistry database (PCCDB) project, http://pccdb.org 
 
 26 27  0  0  0  0  0  0  0  0999 V2000 
   -0.8521   -1.0657    0.0692 C   0  0  0  0  0  0  0  0  0  0  0  0 
    0.6676   -1.1376    0.3713 C   0  0  0  0  0  0  0  0  0  0  0  0 
   -1.2125    0.4203    0.2295 C   0  0  0  0  0  0  0  0  0  0  0  0 
    1.2013    0.3198    0.2294 C   0  0  0  0  0  0  0  0  0  0  0  0 
   -0.6773    2.4157   -2.4046 C   0  0  0  0  0  0  0  0  0  0  0  0 
    0.5629    0.3939   -2.7227 C   0  0  0  0  0  0  0  0  0  0  0  0 
   -0.7767    2.5846   -3.7847 C   0  0  0  0  0  0  0  0  0  0  0  0 
    0.4736    0.5451   -4.1053 C   0  0  0  0  0  0  0  0  0  0  0  0 
    0.0294    1.1736   -0.3228 C   0  0  0  0  0  0  0  0  0  0  0  0 
   -0.0107    1.3201   -1.8382 C   0  0  0  0  0  0  0  0  0  0  0  0 
   -0.2009    1.6434   -4.6435 C   0  0  0  0  0  0  0  0  0  0  0  0 
   -0.2580    1.7494   -6.0082 O   0  0  0  0  0  0  0  0  0  0  0  0 
   -1.4451   -1.7156    0.7215 H   0  0  0  0  0  0  0  0  0  0  0  0 
   -1.0482   -1.3807   -0.9623 H   0  0  0  0  0  0  0  0  0  0  0  0 
    1.1760   -1.8291   -0.3099 H   0  0  0  0  0  0  0  0  0  0  0  0 
    0.8496   -1.5129    1.3845 H   0  0  0  0  0  0  0  0  0  0  0  0 
   -1.3325    0.6652    1.2939 H   0  0  0  0  0  0  0  0  0  0  0  0 
   -2.1402    0.6986   -0.2816 H   0  0  0  0  0  0  0  0  0  0  0  0 
    2.0948    0.3878   -0.3991 H   0  0  0  0  0  0  0  0  0  0  0  0 
    1.4826    0.7081    1.2147 H   0  0  0  0  0  0  0  0  0  0  0  0 
   -1.1283    3.1602   -1.7515 H   0  0  0  0  0  0  0  0  0  0  0  0 
    1.1014   -0.4658   -2.3342 H   0  0  0  0  0  0  0  0  0  0  0  0 
   -1.2955    3.4508   -4.1931 H   0  0  0  0  0  0  0  0  0  0  0  0 
    0.9234   -0.1776   -4.7792 H   0  0  0  0  0  0  0  0  0  0  0  0 
    0.0671    2.1850    0.1001 H   0  0  0  0  0  0  0  0  0  0  0  0 
   -0.7553    2.5494   -6.2386 H   0  0  0  0  0  0  0  0  0  0  0  0 
  1  3  1  0  0  0  0 
  1  2  1  0  0  0  0 
  1 13  1  0  0  0  0 
  2 16  1  0  0  0  0 
  3 17  1  0  0  0  0 
  4  2  1  0  0  0  0 
  4 20  1  0  0  0  0 
  5 10  1  0  0  0  0 
  5 21  1  0  0  0  0 
  6 22  1  0  0  0  0 
  6 10  2  0  0  0  0 
  7  5  2  0  0  0  0 
  8  6  1  0  0  0  0 
  9 25  1  0  0  0  0 
  9  4  1  0  0  0  0 
  9  3  1  0  0  0  0 
 10  9  1  0  0  0  0 
 11  8  2  0  0  0  0 
 11  7  1  0  0  0  0 
 12 11  1  0  0  0  0 
 14  1  1  0  0  0  0 
 15  2  1  0  0  0  0 
 18  3  1  0  0  0  0 
 19  4  1  0  0  0  0 
 23  7  1  0  0  0  0 
 24  8  1  0  0  0  0 
 26 12  1  0  0  0  0 
M  END 
>  <HBA> 
1 
 
>  <HBD> 
1 
 
>  <TPSA> 
20.23 
 
>  <cid> 
15202 
 
>  <dipole> 
1.39 
 
>  <excitation_energy_1> 
4.913 
 
>  <excitation_energy_2> 
5.039 
 
>  <excitation_energy_3> 
5.39 
 
>  <excitation_energy_4> 
5.619 
 
>  <homo_energy> 
-5.717 
 
>  <homo_lumo_gap> 
5.769 
 
>  <logP> 
3.05 
 
>  <lumo_energy> 
0.052 
 
>  <melting_point> 
68.05 
 
>  <molecular_refractivity> 
50.55 
 
>  <oscillator_strength_1> 
0.0306 
 
>  <oscillator_strength_2> 
0.0007 
 
>  <oscillator_strength_3> 
0.0333 
 
>  <oscillator_strength_4> 
0.0608 
 
>  <open_babel_can_smiles> 
Oc1ccc(cc1)C1CCCC1 
 
>  <mulliken_charges> 
26 
1   -0.269973 
2   -0.273591 
3   -0.260277 
4   -0.281104 
5   -0.192127 
6   -0.195789 
7   -0.191363 
8   -0.162984 
9   -0.181087 
10   0.173816 
11   0.348003 
12   -0.645684 
13   0.13376 
14   0.144704 
15   0.136734 
16   0.135719 
17   0.129453 
18   0.138757 
19   0.141976 
20   0.136699 
21   0.122584 
22   0.12874 
23   0.115288 
24   0.136676 
25   0.125516 
26   0.405555 
 
>  <lowdin_charges> 
26 
1   -0.286672 
2   -0.290334 
3   -0.276717 
4   -0.286963 
5   -0.157254 
6   -0.160255 
7   -0.21415 
8   -0.188369 
9   -0.12857 
10   -0.021766 
11   0.099683 
12   -0.383949 
13   0.146727 
14   0.145322 
15   0.144184 
16   0.143875 
17   0.137885 
18   0.147037 
19   0.1484 
20   0.146345 
21   0.155666 
22   0.160046 
23   0.152199 
24   0.167047 
25   0.143952 
26   0.356632 
 
$$$$ 
 
