PCCDB-ID:  69692 
public computational chemistry database (PCCDB) project, http://pccdb.org 
 
 19 19  0  0  0  0  0  0  0  0999 V2000 
    2.7479   -1.0479    0.0056 C   0  0  0  0  0  0  0  0  0  0  0  0 
    4.6391    1.8059    2.4379 C   0  0  0  0  0  0  0  0  0  0  0  0 
    4.2831    3.1462    2.3407 C   0  0  0  0  0  0  0  0  0  0  0  0 
    4.0287    0.8343    1.6466 C   0  0  0  0  0  0  0  0  0  0  0  0 
    1.6088    3.0426   -0.3425 C   0  0  0  0  0  0  0  0  0  0  0  0 
    2.6460    2.5730    0.6041 C   0  0  0  0  0  0  0  0  0  0  0  0 
    3.2927    3.5211    1.4284 C   0  0  0  0  0  0  0  0  0  0  0  0 
    3.0349    1.2099    0.7317 C   0  0  0  0  0  0  0  0  0  0  0  0 
    0.9630    2.3518   -1.1107 O   0  0  0  0  0  0  0  0  0  0  0  0 
    2.9144    4.8273    1.3055 O   0  0  0  0  0  0  0  0  0  0  0  0 
    2.4003    0.3274   -0.0676 O   0  0  0  0  0  0  0  0  0  0  0  0 
    2.1125   -1.5465   -0.7276 H   0  0  0  0  0  0  0  0  0  0  0  0 
    2.5485   -1.4615    1.0024 H   0  0  0  0  0  0  0  0  0  0  0  0 
    3.8017   -1.2118   -0.2535 H   0  0  0  0  0  0  0  0  0  0  0  0 
    5.4084    1.5080    3.1453 H   0  0  0  0  0  0  0  0  0  0  0  0 
    4.7640    3.8974    2.9633 H   0  0  0  0  0  0  0  0  0  0  0  0 
    4.3276   -0.2012    1.7458 H   0  0  0  0  0  0  0  0  0  0  0  0 
    1.4440    4.1361   -0.3079 H   0  0  0  0  0  0  0  0  0  0  0  0 
    3.4385    5.3627    1.9211 H   0  0  0  0  0  0  0  0  0  0  0  0 
  1 13  1  0  0  0  0 
  2 15  1  0  0  0  0 
  3  2  1  0  0  0  0 
  3 16  1  0  0  0  0 
  4 17  1  0  0  0  0 
  4  2  2  0  0  0  0 
  5 18  1  0  0  0  0 
  5  6  1  0  0  0  0 
  6  8  2  0  0  0  0 
  6  7  1  0  0  0  0 
  7  3  2  0  0  0  0 
  8  4  1  0  0  0  0 
  9  5  2  0  0  0  0 
 10  7  1  0  0  0  0 
 10 19  1  0  0  0  0 
 11  1  1  0  0  0  0 
 11  8  1  0  0  0  0 
 12  1  1  0  0  0  0 
 14  1  1  0  0  0  0 
M  END 
>  <HBA> 
3 
 
>  <HBD> 
1 
 
>  <TPSA> 
46.53 
 
>  <cid> 
69692 
 
>  <dipole> 
5.03 
 
>  <excitation_energy_1> 
3.394 
 
>  <excitation_energy_2> 
4.125 
 
>  <excitation_energy_3> 
4.877 
 
>  <excitation_energy_4> 
5.276 
 
>  <homo_energy> 
-6.139 
 
>  <homo_lumo_gap> 
4.86 
 
>  <logP> 
1.213 
 
>  <lumo_energy> 
-1.279 
 
>  <melting_point> 
84.17 
 
>  <molecular_refractivity> 
40.34 
 
>  <oscillator_strength_1> 
0.0001 
 
>  <oscillator_strength_2> 
0.0678 
 
>  <oscillator_strength_3> 
0.1961 
 
>  <oscillator_strength_4> 
0.0004 
 
>  <open_babel_can_smiles> 
COc1cccc(c1C=O)O 
 
>  <mulliken_charges> 
19 
1   -0.219999 
2   -0.132295 
3   -0.196362 
4   -0.201408 
5   0.193567 
6   0.008581 
7   0.298008 
8   0.330325 
9   -0.408228 
10   -0.63768 
11   -0.465214 
12   0.182396 
13   0.154308 
14   0.154285 
15   0.140604 
16   0.121058 
17   0.136405 
18   0.126635 
19   0.415014 
 
>  <lowdin_charges> 
19 
1   -0.2748 
2   -0.117287 
3   -0.240171 
4   -0.236951 
5   0.040747 
6   -0.112735 
7   0.125421 
8   0.133482 
9   -0.231233 
10   -0.371009 
11   -0.158822 
12   0.171062 
13   0.146712 
14   0.145737 
15   0.164339 
16   0.157036 
17   0.165045 
18   0.129435 
19   0.363989 
 
$$$$ 
 
