PCCDB-ID:  16733 
public computational chemistry database (PCCDB) project, http://pccdb.org 
 
 23 24  0  0  0  0  0  0  0  0999 V2000 
    0.9324    0.0945   -0.0030 C   0  0  0  0  0  0  0  0  0  0  0  0 
    7.3980   -1.0673    0.3586 C   0  0  0  0  0  0  0  0  0  0  0  0 
    6.7103   -2.3023    0.3147 C   0  0  0  0  0  0  0  0  0  0  0  0 
    6.6913    0.1127    0.3138 C   0  0  0  0  0  0  0  0  0  0  0  0 
    5.3342   -2.3292    0.2451 C   0  0  0  0  0  0  0  0  0  0  0  0 
    3.1654    1.2966    0.0763 C   0  0  0  0  0  0  0  0  0  0  0  0 
    4.5367    1.3321    0.1653 C   0  0  0  0  0  0  0  0  0  0  0  0 
    2.4405    0.0806    0.0830 C   0  0  0  0  0  0  0  0  0  0  0  0 
    5.2724    0.1217    0.2363 C   0  0  0  0  0  0  0  0  0  0  0  0 
    4.5723   -1.1291    0.2215 C   0  0  0  0  0  0  0  0  0  0  0  0 
    3.1368   -1.1243    0.1724 C   0  0  0  0  0  0  0  0  0  0  0  0 
    2.4468   -2.3446    0.1574 N   0  0  0  0  0  0  0  0  0  0  0  0 
    0.5553    1.1181   -0.0835 H   0  0  0  0  0  0  0  0  0  0  0  0 
    0.4600   -0.3531    0.8849 H   0  0  0  0  0  0  0  0  0  0  0  0 
    0.5660   -0.4617   -0.8768 H   0  0  0  0  0  0  0  0  0  0  0  0 
    8.4831   -1.0539    0.4157 H   0  0  0  0  0  0  0  0  0  0  0  0 
    7.2701   -3.2336    0.3265 H   0  0  0  0  0  0  0  0  0  0  0  0 
    7.2130    1.0669    0.3315 H   0  0  0  0  0  0  0  0  0  0  0  0 
    4.8335   -3.2901    0.1702 H   0  0  0  0  0  0  0  0  0  0  0  0 
    2.6050    2.2268    0.0123 H   0  0  0  0  0  0  0  0  0  0  0  0 
    5.0695    2.2792    0.1718 H   0  0  0  0  0  0  0  0  0  0  0  0 
    1.4653   -2.2680    0.3923 H   0  0  0  0  0  0  0  0  0  0  0  0 
    2.8810   -3.0799    0.7011 H   0  0  0  0  0  0  0  0  0  0  0  0 
  1  8  1  0  0  0  0 
  1 14  1  0  0  0  0 
  2 16  1  0  0  0  0 
  3 17  1  0  0  0  0 
  3  2  1  0  0  0  0 
  4 18  1  0  0  0  0 
  4  2  2  0  0  0  0 
  5  3  2  0  0  0  0 
  6  8  2  0  0  0  0 
  6  7  1  0  0  0  0 
  7 21  1  0  0  0  0 
  7  9  2  0  0  0  0 
  8 11  1  0  0  0  0 
  9  4  1  0  0  0  0 
 10  9  1  0  0  0  0 
 10  5  1  0  0  0  0 
 11 10  2  0  0  0  0 
 12 11  1  0  0  0  0 
 12 22  1  0  0  0  0 
 12 23  1  0  0  0  0 
 13  1  1  0  0  0  0 
 15  1  1  0  0  0  0 
 19  5  1  0  0  0  0 
 20  6  1  0  0  0  0 
M  END 
>  <HBA> 
1 
 
>  <HBD> 
1 
 
>  <TPSA> 
26.02 
 
>  <cid> 
16733 
 
>  <dipole> 
1.74 
 
>  <excitation_energy_1> 
3.791 
 
>  <excitation_energy_2> 
4.192 
 
>  <excitation_energy_3> 
4.425 
 
>  <excitation_energy_4> 
5.017 
 
>  <homo_energy> 
-5.018 
 
>  <homo_lumo_gap> 
4.321 
 
>  <logP> 
3.312 
 
>  <lumo_energy> 
-0.697 
 
>  <melting_point> 
102.65 
 
>  <molecular_refractivity> 
53.32 
 
>  <oscillator_strength_1> 
0.0739 
 
>  <oscillator_strength_2> 
0.0316 
 
>  <oscillator_strength_3> 
0.0112 
 
>  <oscillator_strength_4> 
0.0 
 
>  <open_babel_can_smiles> 
Cc1ccc2c(c1N)cccc2 
 
>  <mulliken_charges> 
23 
1   -0.560234 
2   -0.133829 
3   -0.136817 
4   -0.197569 
5   -0.201565 
6   -0.20084 
7   -0.195336 
8   0.166345 
9   0.126787 
10   0.121106 
11   0.148184 
12   -0.793724 
13   0.160922 
14   0.148955 
15   0.166484 
16   0.126173 
17   0.124915 
18   0.126777 
19   0.122323 
20   0.117291 
21   0.119661 
22   0.323349 
23   0.320642 
 
>  <lowdin_charges> 
23 
1   -0.44745 
2   -0.15901 
3   -0.162725 
4   -0.155974 
5   -0.166106 
6   -0.158134 
7   -0.187644 
8   -0.049349 
9   0.005272 
10   -0.025529 
11   0.045654 
12   -0.488662 
13   0.160645 
14   0.150197 
15   0.159321 
16   0.154771 
17   0.156604 
18   0.156305 
19   0.153649 
20   0.15363 
21   0.154817 
22   0.274322 
23   0.275394 
 
$$$$ 
 
