PCCDB-ID:  25129 
public computational chemistry database (PCCDB) project, http://pccdb.org 
 
 31 31  0  0  0  0  0  0  0  0999 V2000 
   -0.3701   -1.3983   -1.5487 C   0  0  0  0  0  0  0  0  0  0  0  0 
    0.8469   -3.3419   -0.4482 C   0  0  0  0  0  0  0  0  0  0  0  0 
    3.2333   -6.7361   -4.3859 C   0  0  0  0  0  0  0  0  0  0  0  0 
    2.0515   -5.9956   -4.4470 C   0  0  0  0  0  0  0  0  0  0  0  0 
    4.4625   -6.0784   -4.4544 C   0  0  0  0  0  0  0  0  0  0  0  0 
    2.1004   -4.6067   -4.5738 C   0  0  0  0  0  0  0  0  0  0  0  0 
    4.5065   -4.6892   -4.5824 C   0  0  0  0  0  0  0  0  0  0  0  0 
    3.3807   -2.4235   -4.7513 C   0  0  0  0  0  0  0  0  0  0  0  0 
    3.4651   -1.7069   -3.4050 C   0  0  0  0  0  0  0  0  0  0  0  0 
    3.3277   -3.9343   -4.6423 C   0  0  0  0  0  0  0  0  0  0  0  0 
    2.1560   -1.4591   -1.4483 C   0  0  0  0  0  0  0  0  0  0  0  0 
    0.8530   -1.8254   -0.7242 C   0  0  0  0  0  0  0  0  0  0  0  0 
    3.0334   -0.7964   -0.9259 O   0  0  0  0  0  0  0  0  0  0  0  0 
    0.8303   -1.1182    0.5059 O   0  0  0  0  0  0  0  0  0  0  0  0 
    2.2349   -1.9637   -2.6874 O   0  0  0  0  0  0  0  0  0  0  0  0 
   -0.4206   -1.9336   -2.5011 H   0  0  0  0  0  0  0  0  0  0  0  0 
   -0.3410   -0.3217   -1.7449 H   0  0  0  0  0  0  0  0  0  0  0  0 
   -1.2752   -1.6126   -0.9715 H   0  0  0  0  0  0  0  0  0  0  0  0 
    0.8711   -3.9240   -1.3747 H   0  0  0  0  0  0  0  0  0  0  0  0 
   -0.0589   -3.5951    0.1117 H   0  0  0  0  0  0  0  0  0  0  0  0 
    1.7118   -3.6180    0.1644 H   0  0  0  0  0  0  0  0  0  0  0  0 
    3.1967   -7.8178   -4.2891 H   0  0  0  0  0  0  0  0  0  0  0  0 
    1.0895   -6.4993   -4.4000 H   0  0  0  0  0  0  0  0  0  0  0  0 
    5.3881   -6.6467   -4.4142 H   0  0  0  0  0  0  0  0  0  0  0  0 
    1.1767   -4.0355   -4.6229 H   0  0  0  0  0  0  0  0  0  0  0  0 
    5.4694   -4.1854   -4.6418 H   0  0  0  0  0  0  0  0  0  0  0  0 
    4.2617   -2.1193   -5.3306 H   0  0  0  0  0  0  0  0  0  0  0  0 
    2.5021   -2.0502   -5.2908 H   0  0  0  0  0  0  0  0  0  0  0  0 
    3.5762   -0.6255   -3.5342 H   0  0  0  0  0  0  0  0  0  0  0  0 
    4.3041   -2.0675   -2.8026 H   0  0  0  0  0  0  0  0  0  0  0  0 
    1.7211   -0.7343    0.6111 H   0  0  0  0  0  0  0  0  0  0  0  0 
  1 18  1  0  0  0  0 
  1 12  1  0  0  0  0 
  2 20  1  0  0  0  0 
  2 21  1  0  0  0  0 
  3 22  1  0  0  0  0 
  4 23  1  0  0  0  0 
  4  3  1  0  0  0  0 
  5 24  1  0  0  0  0 
  5  3  2  0  0  0  0 
  6  4  2  0  0  0  0 
  7  5  1  0  0  0  0 
  8 10  1  0  0  0  0 
  8  9  1  0  0  0  0 
  9 30  1  0  0  0  0 
  9 15  1  0  0  0  0 
 10  7  2  0  0  0  0 
 10  6  1  0  0  0  0 
 11 13  2  0  0  0  0 
 11 12  1  0  0  0  0 
 12  2  1  0  0  0  0 
 12 14  1  0  0  0  0 
 14 31  1  0  0  0  0 
 15 11  1  0  0  0  0 
 16  1  1  0  0  0  0 
 17  1  1  0  0  0  0 
 19  2  1  0  0  0  0 
 25  6  1  0  0  0  0 
 26  7  1  0  0  0  0 
 27  8  1  0  0  0  0 
 28  8  1  0  0  0  0 
 29  9  1  0  0  0  0 
M  END 
>  <HBA> 
3 
 
>  <HBD> 
1 
 
>  <TPSA> 
46.53 
 
>  <cid> 
25129 
 
>  <dipole> 
3.13 
 
>  <excitation_energy_1> 
5.304 
 
>  <excitation_energy_2> 
5.861 
 
>  <excitation_energy_3> 
5.915 
 
>  <excitation_energy_4> 
6.057 
 
>  <homo_energy> 
-6.729 
 
>  <homo_lumo_gap> 
6.553 
 
>  <logP> 
1.543 
 
>  <lumo_energy> 
-0.177 
 
>  <melting_point> 
45.91 
 
>  <molecular_refractivity> 
57.93 
 
>  <oscillator_strength_1> 
0.0003 
 
>  <oscillator_strength_2> 
0.0377 
 
>  <oscillator_strength_3> 
0.003 
 
>  <oscillator_strength_4> 
0.0032 
 
>  <open_babel_can_smiles> 
O=C(C(O)(C)C)OCCc1ccccc1 
 
>  <mulliken_charges> 
31 
1   -0.44636 
2   -0.450184 
3   -0.129617 
4   -0.13009 
5   -0.126468 
6   -0.172009 
7   -0.18296 
8   -0.380801 
9   -0.032759 
10   0.172359 
11   0.614867 
12   0.244558 
13   -0.504095 
14   -0.655375 
15   -0.460128 
16   0.150524 
17   0.153184 
18   0.161192 
19   0.156654 
20   0.160288 
21   0.152195 
22   0.131299 
23   0.131486 
24   0.131568 
25   0.130293 
26   0.123319 
27   0.155897 
28   0.161083 
29   0.163143 
30   0.168807 
31   0.408131 
 
>  <lowdin_charges> 
31 
1   -0.4435 
2   -0.450673 
3   -0.154944 
4   -0.155092 
5   -0.154336 
6   -0.163395 
7   -0.167779 
8   -0.281366 
9   -0.119605 
10   -0.0046 
11   0.188297 
12   0.101973 
13   -0.273247 
14   -0.459558 
15   -0.179038 
16   0.155071 
17   0.155467 
18   0.161953 
19   0.158216 
20   0.161417 
21   0.157355 
22   0.156587 
23   0.158484 
24   0.158912 
25   0.157879 
26   0.153837 
27   0.16135 
28   0.160269 
29   0.153393 
30   0.158213 
31   0.348459 
 
$$$$ 
 
