PCCDB-ID:  10314 
public computational chemistry database (PCCDB) project, http://pccdb.org 
 
 27 27  0  0  1  0  0  0  0  0999 V2000 
    3.5121   -0.0923    1.6173 C   0  0  0  0  0  0  0  0  0  0  0  0 
    3.0793    1.2064    0.9302 C   0  0  0  0  0  0  0  0  0  0  0  0 
    0.6164    4.1599   -1.6097 C   0  0  0  0  0  0  0  0  0  0  0  0 
    1.8221    5.0784   -1.8693 C   0  0  0  0  0  0  0  0  0  0  0  0 
    1.0038    2.9735   -0.7082 C   0  0  0  0  0  0  0  0  0  0  0  0 
    3.0308    4.2744   -2.3790 C   0  0  0  0  0  0  0  0  0  0  0  0 
    2.2175    2.2393   -1.3000 C   0  0  2  0  0  0  0  0  0  0  0  0 
    2.7032    0.9823   -0.5460 C   0  0  1  0  0  0  0  0  0  0  0  0 
    3.3744    3.1358   -1.5132 N   0  0  0  0  0  0  0  0  0  0  0  0 
    3.7964    0.4282   -1.2714 O   0  0  0  0  0  0  0  0  0  0  0  0 
    3.8304    0.0899    2.6499 H   0  0  0  0  0  0  0  0  0  0  0  0 
    4.3418   -0.5515    1.0724 H   0  0  0  0  0  0  0  0  0  0  0  0 
    2.6875   -0.8158    1.6441 H   0  0  0  0  0  0  0  0  0  0  0  0 
    3.9000    1.9360    0.9907 H   0  0  0  0  0  0  0  0  0  0  0  0 
    2.2255    1.6429    1.4662 H   0  0  0  0  0  0  0  0  0  0  0  0 
    0.2431    3.7732   -2.5691 H   0  0  0  0  0  0  0  0  0  0  0  0 
   -0.2072    4.7289   -1.1611 H   0  0  0  0  0  0  0  0  0  0  0  0 
    2.1015    5.5870   -0.9343 H   0  0  0  0  0  0  0  0  0  0  0  0 
    1.5605    5.8651   -2.5891 H   0  0  0  0  0  0  0  0  0  0  0  0 
    0.1563    2.2834   -0.5979 H   0  0  0  0  0  0  0  0  0  0  0  0 
    1.2452    3.3436    0.2983 H   0  0  0  0  0  0  0  0  0  0  0  0 
    3.9150    4.9156   -2.4743 H   0  0  0  0  0  0  0  0  0  0  0  0 
    2.8167    3.8741   -3.3792 H   0  0  0  0  0  0  0  0  0  0  0  0 
    1.9388    1.8862   -2.3040 H   0  0  0  0  0  0  0  0  0  0  0  0 
    1.8970    0.2358   -0.5815 H   0  0  0  0  0  0  0  0  0  0  0  0 
    3.6667    3.5053   -0.6069 H   0  0  0  0  0  0  0  0  0  0  0  0 
    4.2739    1.2114   -1.6112 H   0  0  0  0  0  0  0  0  0  0  0  0 
  1 13  1  0  0  0  0 
  1 11  1  0  0  0  0 
  2 14  1  0  0  0  0 
  2 15  1  0  0  0  0 
  2  1  1  0  0  0  0 
  3 17  1  0  0  0  0 
  3  5  1  0  0  0  0 
  4  3  1  0  0  0  0 
  4 18  1  0  0  0  0 
  5 20  1  0  0  0  0 
  5 21  1  0  0  0  0 
  6  4  1  0  0  0  0 
  6  9  1  0  0  0  0 
  7 24  1  6  0  0  0 
  7  5  1  0  0  0  0 
  7  8  1  0  0  0  0 
  8 25  1  6  0  0  0 
  8  2  1  0  0  0  0 
  9  7  1  0  0  0  0 
  9 26  1  0  0  0  0 
 10  8  1  0  0  0  0 
 12  1  1  0  0  0  0 
 16  3  1  0  0  0  0 
 19  4  1  0  0  0  0 
 22  6  1  0  0  0  0 
 23  6  1  0  0  0  0 
 27 10  1  0  0  0  0 
M  END 
>  <HBA> 
2 
 
>  <HBD> 
2 
 
>  <TPSA> 
32.26 
 
>  <cid> 
10314 
 
>  <dipole> 
3.03 
 
>  <excitation_energy_1> 
5.674 
 
>  <excitation_energy_2> 
5.957 
 
>  <excitation_energy_3> 
6.209 
 
>  <excitation_energy_4> 
6.333 
 
>  <homo_energy> 
-6.261 
 
>  <homo_lumo_gap> 
8.3 
 
>  <logP> 
1.228 
 
>  <lumo_energy> 
2.038 
 
>  <melting_point> 
40.48 
 
>  <molecular_refractivity> 
46.33 
 
>  <oscillator_strength_1> 
0.012 
 
>  <oscillator_strength_2> 
0.0098 
 
>  <oscillator_strength_3> 
0.013 
 
>  <oscillator_strength_4> 
0.0065 
 
>  <open_babel_can_smiles> 
CC[C@@H]([C@H]1CCCCN1)O 
 
>  <mulliken_charges> 
27 
1   -0.44386 
2   -0.268789 
3   -0.26338 
4   -0.267291 
5   -0.267867 
6   -0.139376 
7   -0.00463 
8   0.152321 
9   -0.57678 
10   -0.647778 
11   0.13517 
12   0.170004 
13   0.137513 
14   0.119751 
15   0.127599 
16   0.133355 
17   0.136374 
18   0.127012 
19   0.135063 
20   0.134451 
21   0.129894 
22   0.141494 
23   0.144419 
24   0.137611 
25   0.120172 
26   0.296236 
27   0.401311 
 
>  <lowdin_charges> 
27 
1   -0.44501 
2   -0.294838 
3   -0.279312 
4   -0.295025 
5   -0.293486 
6   -0.20813 
7   -0.087794 
8   -0.00811 
9   -0.361473 
10   -0.474898 
11   0.145265 
12   0.161995 
13   0.145605 
14   0.135741 
15   0.141084 
16   0.140272 
17   0.147022 
18   0.13706 
19   0.148332 
20   0.147653 
21   0.138306 
22   0.147303 
23   0.142937 
24   0.143646 
25   0.13775 
26   0.249048 
27   0.33906 
 
$$$$ 
 
