PCCDB-ID:  45199 
public computational chemistry database (PCCDB) project, http://pccdb.org 
 
 31 30  0  0  0  0  0  0  0  0999 V2000 
    1.8003    1.1799   -1.1090 C   0  0  0  0  0  0  0  0  0  0  0  0 
    1.5469    0.2275    1.1248 C   0  0  0  0  0  0  0  0  0  0  0  0 
    0.0604   -0.4955   -0.7099 C   0  0  0  0  0  0  0  0  0  0  0  0 
    1.7996   -1.1105    1.8427 C   0  0  0  0  0  0  0  0  0  0  0  0 
   -1.1565    0.4205   -0.4412 C   0  0  0  0  0  0  0  0  0  0  0  0 
   -0.3531   -0.9603    3.5525 C   0  0  0  0  0  0  0  0  0  0  0  0 
   -3.8993   -0.2029    0.0871 C   0  0  0  0  0  0  0  0  0  0  0  0 
   -0.9505   -1.3217    2.4893 N   0  0  0  0  0  0  0  0  0  0  0  0 
   -0.9042   -0.5392    4.7559 N   0  0  0  0  0  0  0  0  0  0  0  0 
   -3.6071    0.0357    1.3108 N   0  0  0  0  0  0  0  0  0  0  0  0 
   -5.1712   -0.3885   -0.4330 N   0  0  0  0  0  0  0  0  0  0  0  0 
    1.3649    0.0390   -0.3155 N   0  0  0  0  0  0  0  0  0  0  0  0 
    1.4528   -1.0322    3.6423 S   0  0  0  0  0  0  0  0  0  0  0  0 
   -2.6645   -0.2968   -1.2128 S   0  0  0  0  0  0  0  0  0  0  0  0 
    2.8614    1.3750   -0.9160 H   0  0  0  0  0  0  0  0  0  0  0  0 
    1.2496    2.1194   -0.9144 H   0  0  0  0  0  0  0  0  0  0  0  0 
    1.6916    0.9439   -2.1739 H   0  0  0  0  0  0  0  0  0  0  0  0 
    2.4173    0.8762    1.2726 H   0  0  0  0  0  0  0  0  0  0  0  0 
    0.6936    0.7397    1.5943 H   0  0  0  0  0  0  0  0  0  0  0  0 
    0.1179   -0.7289   -1.7809 H   0  0  0  0  0  0  0  0  0  0  0  0 
   -0.1163   -1.4360   -0.1820 H   0  0  0  0  0  0  0  0  0  0  0  0 
    2.8444   -1.4208    1.7502 H   0  0  0  0  0  0  0  0  0  0  0  0 
    1.1644   -1.9005    1.4435 H   0  0  0  0  0  0  0  0  0  0  0  0 
   -1.0188    1.4212   -0.8599 H   0  0  0  0  0  0  0  0  0  0  0  0 
   -1.3717    0.4983    0.6257 H   0  0  0  0  0  0  0  0  0  0  0  0 
   -1.9558   -1.1235    2.4874 H   0  0  0  0  0  0  0  0  0  0  0  0 
   -1.8879   -0.2990    4.7122 H   0  0  0  0  0  0  0  0  0  0  0  0 
   -0.3543    0.1224    5.2911 H   0  0  0  0  0  0  0  0  0  0  0  0 
   -4.4606    0.1009    1.8742 H   0  0  0  0  0  0  0  0  0  0  0  0 
   -5.8532   -0.7921    0.1976 H   0  0  0  0  0  0  0  0  0  0  0  0 
   -5.2425   -0.7343   -1.3818 H   0  0  0  0  0  0  0  0  0  0  0  0 
  1 15  1  0  0  0  0 
  1 16  1  0  0  0  0 
  1 12  1  0  0  0  0 
  2 18  1  0  0  0  0 
  2 19  1  0  0  0  0 
  2  4  1  0  0  0  0 
  3  5  1  0  0  0  0 
  3 12  1  0  0  0  0 
  3 21  1  0  0  0  0 
  4 13  1  0  0  0  0 
  5 25  1  0  0  0  0 
  6 13  1  0  0  0  0 
  6  9  2  0  0  0  0 
  7 10  1  0  0  0  0 
  8  6  1  0  0  0  0 
  9 28  1  0  0  0  0 
 10 29  1  0  0  0  0 
 11  7  2  0  0  0  0 
 11 30  1  0  0  0  0 
 12  2  1  0  0  0  0 
 14  5  1  0  0  0  0 
 14  7  1  0  0  0  0 
 17  1  1  0  0  0  0 
 20  3  1  0  0  0  0 
 22  4  1  0  0  0  0 
 23  4  1  0  0  0  0 
 24  5  1  0  0  0  0 
 26  8  1  0  0  0  0 
 27  9  1  0  0  0  0 
 31 11  1  0  0  0  0 
M  RAD  2   8   2  10   2 
M  END 
>  <HBA> 
7 
 
>  <HBD> 
4 
 
>  <TPSA> 
153.58 
 
>  <cid> 
45199 
 
>  <dipole> 
3.95 
 
>  <excitation_energy_1> 
4.797 
 
>  <excitation_energy_2> 
4.853 
 
>  <excitation_energy_3> 
5.106 
 
>  <excitation_energy_4> 
5.264 
 
>  <homo_energy> 
-5.434 
 
>  <homo_lumo_gap> 
6.036 
 
>  <logP> 
1.772 
 
>  <lumo_energy> 
0.601 
 
>  <melting_point> 
164.44 
 
>  <molecular_refractivity> 
66.44 
 
>  <oscillator_strength_1> 
0.0082 
 
>  <oscillator_strength_2> 
0.0074 
 
>  <oscillator_strength_3> 
0.0078 
 
>  <oscillator_strength_4> 
0.0045 
 
>  <open_babel_can_smiles> 
CN(CCSC(=[NH2])[NH])CCSC(=[NH2])[NH] 
 
>  <mulliken_charges> 
31 
1   -0.300761 
2   -0.110738 
3   -0.138498 
4   -0.412019 
5   -0.452336 
6   0.274163 
7   0.297823 
8   -0.622233 
9   -0.726727 
10   -0.628345 
11   -0.729348 
12   -0.385972 
13   0.08276 
14   0.106502 
15   0.149813 
16   0.122409 
17   0.146654 
18   0.137726 
19   0.141845 
20   0.140046 
21   0.186112 
22   0.169904 
23   0.215839 
24   0.174021 
25   0.237566 
26   0.314034 
27   0.325272 
28   0.336023 
29   0.274664 
30   0.329016 
31   0.344785 
 
>  <lowdin_charges> 
31 
1   -0.35341 
2   -0.203129 
3   -0.206969 
4   -0.374034 
5   -0.388586 
6   -0.008076 
7   0.000325 
8   -0.446871 
9   -0.489138 
10   -0.458522 
11   -0.486522 
12   -0.183946 
13   0.110788 
14   0.129371 
15   0.147902 
16   0.120868 
17   0.147284 
18   0.147224 
19   0.136138 
20   0.141915 
21   0.166096 
22   0.165742 
23   0.18372 
24   0.158849 
25   0.191127 
26   0.261556 
27   0.278357 
28   0.287712 
29   0.250423 
30   0.283502 
31   0.290304 
 
$$$$ 
 
