PCCDB-ID:  10285 
public computational chemistry database (PCCDB) project, http://pccdb.org 
 
 20 21  0  0  0  0  0  0  0  0999 V2000 
    0.8405   -0.0104   -0.0047 C   0  0  0  0  0  0  0  0  0  0  0  0 
    3.2031    3.6749   -0.0571 C   0  0  0  0  0  0  0  0  0  0  0  0 
    4.6165    3.6091   -0.0851 C   0  0  0  0  0  0  0  0  0  0  0  0 
    2.4503    2.5206   -0.0410 C   0  0  0  0  0  0  0  0  0  0  0  0 
    5.2526    2.3883   -0.0963 C   0  0  0  0  0  0  0  0  0  0  0  0 
    3.0797   -1.1563   -0.0455 C   0  0  0  0  0  0  0  0  0  0  0  0 
    4.4948   -1.1079   -0.0722 C   0  0  0  0  0  0  0  0  0  0  0  0 
    2.3476    0.0117   -0.0346 C   0  0  0  0  0  0  0  0  0  0  0  0 
    3.0742    1.2444   -0.0513 C   0  0  0  0  0  0  0  0  0  0  0  0 
    4.5055    1.1813   -0.0792 C   0  0  0  0  0  0  0  0  0  0  0  0 
    5.1996    0.0034   -0.0892 N   0  0  0  0  0  0  0  0  0  0  0  0 
    0.4641   -1.0374   -0.0092 H   0  0  0  0  0  0  0  0  0  0  0  0 
    0.4136    0.5088   -0.8716 H   0  0  0  0  0  0  0  0  0  0  0  0 
    0.4496    0.4874    0.8915 H   0  0  0  0  0  0  0  0  0  0  0  0 
    2.7102    4.6433   -0.0476 H   0  0  0  0  0  0  0  0  0  0  0  0 
    5.1974    4.5274   -0.0977 H   0  0  0  0  0  0  0  0  0  0  0  0 
    1.3667    2.5850   -0.0184 H   0  0  0  0  0  0  0  0  0  0  0  0 
    6.3347    2.3048   -0.1173 H   0  0  0  0  0  0  0  0  0  0  0  0 
    2.5795   -2.1212   -0.0341 H   0  0  0  0  0  0  0  0  0  0  0  0 
    5.0602   -2.0399   -0.0794 H   0  0  0  0  0  0  0  0  0  0  0  0 
  1 14  1  0  0  0  0 
  2 15  1  0  0  0  0 
  2  4  2  0  0  0  0 
  3  2  1  0  0  0  0 
  4 17  1  0  0  0  0 
  5  3  2  0  0  0  0 
  5 10  1  0  0  0  0 
  6  8  1  0  0  0  0 
  6 19  1  0  0  0  0 
  7  6  2  0  0  0  0 
  8  1  1  0  0  0  0 
  9  4  1  0  0  0  0 
  9  8  2  0  0  0  0 
 10  9  1  0  0  0  0 
 11 10  2  0  0  0  0 
 11  7  1  0  0  0  0 
 12  1  1  0  0  0  0 
 13  1  1  0  0  0  0 
 16  3  1  0  0  0  0 
 18  5  1  0  0  0  0 
 20  7  1  0  0  0  0 
M  END 
>  <HBA> 
1 
 
>  <HBD> 
0 
 
>  <TPSA> 
12.89 
 
>  <cid> 
10285 
 
>  <dipole> 
2.44 
 
>  <excitation_energy_1> 
4.294 
 
>  <excitation_energy_2> 
4.372 
 
>  <excitation_energy_3> 
4.481 
 
>  <excitation_energy_4> 
5.226 
 
>  <homo_energy> 
-6.188 
 
>  <homo_lumo_gap> 
4.876 
 
>  <logP> 
2.543 
 
>  <lumo_energy> 
-1.312 
 
>  <melting_point> 
67.99 
 
>  <molecular_refractivity> 
46.71 
 
>  <oscillator_strength_1> 
0.0015 
 
>  <oscillator_strength_2> 
0.0684 
 
>  <oscillator_strength_3> 
0.0198 
 
>  <oscillator_strength_4> 
0.0 
 
>  <open_babel_can_smiles> 
Cc1ccnc2c1cccc2 
 
>  <mulliken_charges> 
20 
1   -0.534573 
2   -0.129239 
3   -0.137183 
4   -0.202678 
5   -0.140498 
6   -0.215847 
7   0.04801 
8   0.164179 
9   0.105946 
10   0.230993 
11   -0.496722 
12   0.161729 
13   0.170062 
14   0.17038 
15   0.13196 
16   0.133908 
17   0.130001 
18   0.144061 
19   0.127994 
20   0.137515 
 
>  <lowdin_charges> 
20 
1   -0.444114 
2   -0.154665 
3   -0.154506 
4   -0.160316 
5   -0.14749 
6   -0.195385 
7   -0.085457 
8   0.026732 
9   -0.025271 
10   0.042144 
11   -0.154639 
12   0.160748 
13   0.165904 
14   0.165926 
15   0.159166 
16   0.160887 
17   0.157576 
18   0.167669 
19   0.159995 
20   0.155098 
 
$$$$ 
 
