PCCDB-ID:  12331 
public computational chemistry database (PCCDB) project, http://pccdb.org 
 
 24 23  0  0  0  0  0  0  0  0999 V2000 
    2.2007    2.2663    1.0198 C   0  0  0  0  0  0  0  0  0  0  0  0 
    0.7532    0.2356    1.4118 C   0  0  0  0  0  0  0  0  0  0  0  0 
    4.3674    0.2876   -0.1298 C   0  0  0  0  0  0  0  0  0  0  0  0 
    5.0145   -0.5621   -1.2316 C   0  0  0  0  0  0  0  0  0  0  0  0 
    2.8728   -0.0097    0.0568 C   0  0  0  0  0  0  0  0  0  0  0  0 
    6.5053   -0.2746   -1.4179 C   0  0  0  0  0  0  0  0  0  0  0  0 
    2.1901    0.7425    1.2167 C   0  0  0  0  0  0  0  0  0  0  0  0 
    7.0878   -1.0190   -2.4826 O   0  0  0  0  0  0  0  0  0  0  0  0 
    1.6915    2.7712    1.8493 H   0  0  0  0  0  0  0  0  0  0  0  0 
    1.6804    2.5440    0.0933 H   0  0  0  0  0  0  0  0  0  0  0  0 
    3.2177    2.6687    0.9649 H   0  0  0  0  0  0  0  0  0  0  0  0 
    0.2674    0.7323    2.2600 H   0  0  0  0  0  0  0  0  0  0  0  0 
    0.7312   -0.8449    1.5979 H   0  0  0  0  0  0  0  0  0  0  0  0 
    0.1442    0.4319    0.5195 H   0  0  0  0  0  0  0  0  0  0  0  0 
    4.5113    1.3496   -0.3698 H   0  0  0  0  0  0  0  0  0  0  0  0 
    4.8928    0.1149    0.8217 H   0  0  0  0  0  0  0  0  0  0  0  0 
    4.5066   -0.3917   -2.1900 H   0  0  0  0  0  0  0  0  0  0  0  0 
    4.8829   -1.6299   -0.9949 H   0  0  0  0  0  0  0  0  0  0  0  0 
    2.7490   -1.0901    0.2219 H   0  0  0  0  0  0  0  0  0  0  0  0 
    2.3388    0.2163   -0.8790 H   0  0  0  0  0  0  0  0  0  0  0  0 
    7.0446   -0.4477   -0.4709 H   0  0  0  0  0  0  0  0  0  0  0  0 
    6.6555    0.7776   -1.6844 H   0  0  0  0  0  0  0  0  0  0  0  0 
    2.7531    0.5175    2.1362 H   0  0  0  0  0  0  0  0  0  0  0  0 
    6.9904   -1.9591   -2.2650 H   0  0  0  0  0  0  0  0  0  0  0  0 
  1  7  1  0  0  0  0 
  1  9  1  0  0  0  0 
  2 13  1  0  0  0  0 
  2 12  1  0  0  0  0 
  3  5  1  0  0  0  0 
  3 16  1  0  0  0  0 
  4 18  1  0  0  0  0 
  4  3  1  0  0  0  0 
  5 19  1  0  0  0  0 
  5  7  1  0  0  0  0 
  6  4  1  0  0  0  0 
  6 21  1  0  0  0  0 
  7  2  1  0  0  0  0 
  7 23  1  0  0  0  0 
  8 24  1  0  0  0  0 
  8  6  1  0  0  0  0 
 10  1  1  0  0  0  0 
 11  1  1  0  0  0  0 
 14  2  1  0  0  0  0 
 15  3  1  0  0  0  0 
 17  4  1  0  0  0  0 
 20  5  1  0  0  0  0 
 22  6  1  0  0  0  0 
M  END 
>  <HBA> 
1 
 
>  <HBD> 
1 
 
>  <TPSA> 
20.23 
 
>  <cid> 
12331 
 
>  <dipole> 
1.76 
 
>  <excitation_energy_1> 
6.424 
 
>  <excitation_energy_2> 
7.073 
 
>  <excitation_energy_3> 
7.253 
 
>  <excitation_energy_4> 
7.443 
 
>  <homo_energy> 
-7.048 
 
>  <homo_lumo_gap> 
9.151 
 
>  <logP> 
1.805 
 
>  <lumo_energy> 
2.103 
 
>  <melting_point> 
-8.61 
 
>  <molecular_refractivity> 
36.92 
 
>  <oscillator_strength_1> 
0.0096 
 
>  <oscillator_strength_2> 
0.0099 
 
>  <oscillator_strength_3> 
0.0123 
 
>  <oscillator_strength_4> 
0.0111 
 
>  <open_babel_can_smiles> 
OCCCCC(C)C 
 
>  <mulliken_charges> 
24 
1   -0.445042 
2   -0.441904 
3   -0.26656 
4   -0.27802 
5   -0.244405 
6   -0.025561 
7   -0.066354 
8   -0.615805 
9   0.140319 
10   0.138229 
11   0.144547 
12   0.139601 
13   0.138762 
14   0.138837 
15   0.137021 
16   0.127966 
17   0.145349 
18   0.118234 
19   0.124599 
20   0.126007 
21   0.116041 
22   0.144285 
23   0.119167 
24   0.38469 
 
>  <lowdin_charges> 
24 
1   -0.447818 
2   -0.443702 
3   -0.275438 
4   -0.291109 
5   -0.272407 
6   -0.134516 
7   -0.120255 
8   -0.466265 
9   0.149605 
10   0.145507 
11   0.147729 
12   0.14854 
13   0.144982 
14   0.145916 
15   0.140345 
16   0.137778 
17   0.147211 
18   0.131228 
19   0.136703 
20   0.13798 
21   0.122692 
22   0.143504 
23   0.134059 
24   0.337728 
 
$$$$ 
 
