PCCDB-ID:  31835 
public computational chemistry database (PCCDB) project, http://pccdb.org 
 
 22 22  0  0  0  0  0  0  0  0999 V2000 
    0.7150    0.4602   -0.0974 C   0  0  0  0  0  0  0  0  0  0  0  0 
    4.6150   -4.9400   -0.6467 C   0  0  0  0  0  0  0  0  0  0  0  0 
    4.4258    0.9955    0.6485 C   0  0  0  0  0  0  0  0  0  0  0  0 
    3.0601    1.2264    0.4697 C   0  0  0  0  0  0  0  0  0  0  0  0 
    4.9265   -0.2815    0.4459 C   0  0  0  0  0  0  0  0  0  0  0  0 
    2.1928    0.2021    0.0930 C   0  0  0  0  0  0  0  0  0  0  0  0 
    4.0925   -1.3470    0.0665 C   0  0  0  0  0  0  0  0  0  0  0  0 
    2.7142   -1.0959   -0.1092 C   0  0  0  0  0  0  0  0  0  0  0  0 
    4.7796   -2.6616   -0.1115 C   0  0  0  0  0  0  0  0  0  0  0  0 
    1.8872   -2.1131   -0.4764 O   0  0  0  0  0  0  0  0  0  0  0  0 
    5.9774   -2.8130    0.0551 O   0  0  0  0  0  0  0  0  0  0  0  0 
    3.9661   -3.6727   -0.4733 O   0  0  0  0  0  0  0  0  0  0  0  0 
    0.4789    1.5098    0.0973 H   0  0  0  0  0  0  0  0  0  0  0  0 
    0.0946   -0.1380    0.5861 H   0  0  0  0  0  0  0  0  0  0  0  0 
    0.3815    0.2445   -1.1232 H   0  0  0  0  0  0  0  0  0  0  0  0 
    3.8235   -5.6324   -0.9358 H   0  0  0  0  0  0  0  0  0  0  0  0 
    5.0879   -5.2632    0.2848 H   0  0  0  0  0  0  0  0  0  0  0  0 
    5.3790   -4.8802   -1.4267 H   0  0  0  0  0  0  0  0  0  0  0  0 
    5.0859    1.8058    0.9424 H   0  0  0  0  0  0  0  0  0  0  0  0 
    2.6539    2.2234    0.6254 H   0  0  0  0  0  0  0  0  0  0  0  0 
    5.9805   -0.5007    0.5752 H   0  0  0  0  0  0  0  0  0  0  0  0 
    0.9852   -1.7668   -0.5553 H   0  0  0  0  0  0  0  0  0  0  0  0 
  1  6  1  0  0  0  0 
  1 13  1  0  0  0  0 
  1 14  1  0  0  0  0 
  2 12  1  0  0  0  0 
  2 17  1  0  0  0  0 
  3 19  1  0  0  0  0 
  4 20  1  0  0  0  0 
  4  3  1  0  0  0  0 
  5 21  1  0  0  0  0 
  5  3  2  0  0  0  0 
  6  4  2  0  0  0  0 
  7  5  1  0  0  0  0 
  8  7  2  0  0  0  0 
  8  6  1  0  0  0  0 
  9 11  2  0  0  0  0 
  9  7  1  0  0  0  0 
 10  8  1  0  0  0  0 
 12  9  1  0  0  0  0 
 15  1  1  0  0  0  0 
 16  2  1  0  0  0  0 
 18  2  1  0  0  0  0 
 22 10  1  0  0  0  0 
M  END 
>  <HBA> 
3 
 
>  <HBD> 
1 
 
>  <TPSA> 
46.53 
 
>  <cid> 
31835 
 
>  <dipole> 
3.61 
 
>  <excitation_energy_1> 
4.465 
 
>  <excitation_energy_2> 
4.917 
 
>  <excitation_energy_3> 
5.343 
 
>  <excitation_energy_4> 
5.344 
 
>  <homo_energy> 
-6.128 
 
>  <homo_lumo_gap> 
5.181 
 
>  <logP> 
1.487 
 
>  <lumo_energy> 
-0.947 
 
>  <melting_point> 
75.08 
 
>  <molecular_refractivity> 
44.71 
 
>  <oscillator_strength_1> 
0.0862 
 
>  <oscillator_strength_2> 
0.0001 
 
>  <oscillator_strength_3> 
0.0291 
 
>  <oscillator_strength_4> 
0.1262 
 
>  <open_babel_can_smiles> 
COC(=O)c1cccc(c1O)C 
 
>  <mulliken_charges> 
22 
1   -0.586657 
2   -0.214769 
3   -0.134314 
4   -0.186065 
5   -0.172939 
6   0.159343 
7   0.041103 
8   0.216258 
9   0.598774 
10   -0.619828 
11   -0.500977 
12   -0.446319 
13   0.174851 
14   0.16625 
15   0.165883 
16   0.161369 
17   0.167501 
18   0.167655 
19   0.13225 
20   0.127744 
21   0.165937 
22   0.41695 
 
>  <lowdin_charges> 
22 
1   -0.455024 
2   -0.279048 
3   -0.181094 
4   -0.14262 
5   -0.122456 
6   -0.053472 
7   -0.076389 
8   0.108174 
9   0.193866 
10   -0.354147 
11   -0.281519 
12   -0.172508 
13   0.168955 
14   0.159086 
15   0.156799 
16   0.159724 
17   0.158314 
18   0.158525 
19   0.161834 
20   0.156823 
21   0.178245 
22   0.357932 
 
$$$$ 
 
