PCCDB-ID:  21862 
public computational chemistry database (PCCDB) project, http://pccdb.org 
 
 21 21  0  0  0  0  0  0  0  0999 V2000 
    2.3920   -1.8401   -0.6578 C   0  0  0  0  0  0  0  0  0  0  0  0 
    2.8560    2.1982    0.8273 C   0  0  0  0  0  0  0  0  0  0  0  0 
    4.4667    0.4119   -3.5830 C   0  0  0  0  0  0  0  0  0  0  0  0 
    4.4341    1.7963   -3.5166 C   0  0  0  0  0  0  0  0  0  0  0  0 
    3.8165   -0.3641   -2.6161 C   0  0  0  0  0  0  0  0  0  0  0  0 
    3.7177    3.8493   -2.3644 C   0  0  0  0  0  0  0  0  0  0  0  0 
    3.7478    2.4190   -2.4563 C   0  0  0  0  0  0  0  0  0  0  0  0 
    3.1224    0.2453   -1.5678 C   0  0  0  0  0  0  0  0  0  0  0  0 
    3.0880    1.6559   -1.4799 C   0  0  0  0  0  0  0  0  0  0  0  0 
    3.7277    5.0115   -2.3186 N   0  0  0  0  0  0  0  0  0  0  0  0 
    2.4400   -0.4213   -0.5951 O   0  0  0  0  0  0  0  0  0  0  0  0 
    2.3677    2.2989   -0.5179 O   0  0  0  0  0  0  0  0  0  0  0  0 
    1.7836   -2.1534    0.1919 H   0  0  0  0  0  0  0  0  0  0  0  0 
    3.3932   -2.2820   -0.5712 H   0  0  0  0  0  0  0  0  0  0  0  0 
    1.9223   -2.1835   -1.5882 H   0  0  0  0  0  0  0  0  0  0  0  0 
    2.1723    2.7947    1.4336 H   0  0  0  0  0  0  0  0  0  0  0  0 
    3.8672    2.6163    0.9015 H   0  0  0  0  0  0  0  0  0  0  0  0 
    2.8524    1.1611    1.1739 H   0  0  0  0  0  0  0  0  0  0  0  0 
    4.9952   -0.0811   -4.3931 H   0  0  0  0  0  0  0  0  0  0  0  0 
    4.9320    2.4073   -4.2615 H   0  0  0  0  0  0  0  0  0  0  0  0 
    3.8485   -1.4448   -2.6934 H   0  0  0  0  0  0  0  0  0  0  0  0 
  1 11  1  0  0  0  0 
  1 14  1  0  0  0  0 
  1 13  1  0  0  0  0 
  2 17  1  0  0  0  0 
  2 18  1  0  0  0  0 
  2 16  1  0  0  0  0 
  3  4  2  0  0  0  0 
  3  5  1  0  0  0  0 
  4  7  1  0  0  0  0 
  5  8  2  0  0  0  0 
  6 10  3  0  0  0  0 
  7  6  1  0  0  0  0 
  7  9  2  0  0  0  0 
  8  9  1  0  0  0  0 
  8 11  1  0  0  0  0 
  9 12  1  0  0  0  0 
 12  2  1  0  0  0  0 
 15  1  1  0  0  0  0 
 19  3  1  0  0  0  0 
 20  4  1  0  0  0  0 
 21  5  1  0  0  0  0 
M  END 
>  <HBA> 
3 
 
>  <HBD> 
0 
 
>  <TPSA> 
42.25 
 
>  <cid> 
21862 
 
>  <dipole> 
6.54 
 
>  <excitation_energy_1> 
4.509 
 
>  <excitation_energy_2> 
5.25 
 
>  <excitation_energy_3> 
5.595 
 
>  <excitation_energy_4> 
5.693 
 
>  <homo_energy> 
-6.357 
 
>  <homo_lumo_gap> 
5.2 
 
>  <logP> 
1.575 
 
>  <lumo_energy> 
-1.156 
 
>  <melting_point> 
53.27 
 
>  <molecular_refractivity> 
44.14 
 
>  <oscillator_strength_1> 
0.0679 
 
>  <oscillator_strength_2> 
0.0465 
 
>  <oscillator_strength_3> 
0.0152 
 
>  <oscillator_strength_4> 
0.0056 
 
>  <open_babel_can_smiles> 
COc1cccc(c1OC)C#N 
 
>  <mulliken_charges> 
21 
1   -0.22086 
2   -0.217671 
3   -0.139185 
4   -0.150851 
5   -0.196263 
6   0.259182 
7   0.086454 
8   0.362503 
9   0.292921 
10   -0.481978 
11   -0.506112 
12   -0.515092 
13   0.178106 
14   0.156477 
15   0.160121 
16   0.171336 
17   0.152748 
18   0.164963 
19   0.142712 
20   0.156052 
21   0.144439 
 
>  <lowdin_charges> 
21 
1   -0.275586 
2   -0.270706 
3   -0.15313 
4   -0.151895 
5   -0.194009 
6   -0.005882 
7   -0.037012 
8   0.08053 
9   0.088926 
10   -0.120841 
11   -0.189999 
12   -0.206599 
13   0.168303 
14   0.147101 
15   0.15041 
16   0.165306 
17   0.145559 
18   0.150681 
19   0.166843 
20   0.175524 
21   0.166476 
 
$$$$ 
 
