PCCDB-ID:  18328 
public computational chemistry database (PCCDB) project, http://pccdb.org 
 
 28 27  0  0  0  0  0  0  0  0999 V2000 
    0.9489    0.7098   -2.7428 C   0  0  0  0  0  0  0  0  0  0  0  0 
    1.9272    2.2788   -1.0119 C   0  0  0  0  0  0  0  0  0  0  0  0 
    6.9029   -0.6173    1.3538 C   0  0  0  0  0  0  0  0  0  0  0  0 
    7.0321   -2.8686    0.1990 C   0  0  0  0  0  0  0  0  0  0  0  0 
    2.9244   -0.0384   -1.3764 C   0  0  0  0  0  0  0  0  0  0  0  0 
    5.1157   -1.3242   -0.3199 C   0  0  0  0  0  0  0  0  0  0  0  0 
    2.2296    1.1666   -2.0275 C   0  0  0  0  0  0  0  0  0  0  0  0 
    6.6002   -1.4001    0.0679 C   0  0  0  0  0  0  0  0  0  0  0  0 
    5.4343    0.6896   -2.1112 O   0  0  0  0  0  0  0  0  0  0  0  0 
    4.6465    0.3858   -0.8492 S   0  0  0  0  0  0  0  0  0  0  0  0 
    0.4597    1.5565   -3.2380 H   0  0  0  0  0  0  0  0  0  0  0  0 
    0.2299    0.2790   -2.0338 H   0  0  0  0  0  0  0  0  0  0  0  0 
    1.1634   -0.0474   -3.5061 H   0  0  0  0  0  0  0  0  0  0  0  0 
    1.4728    3.1433   -1.5088 H   0  0  0  0  0  0  0  0  0  0  0  0 
    2.8324    2.6263   -0.5023 H   0  0  0  0  0  0  0  0  0  0  0  0 
    1.2243    1.9275   -0.2447 H   0  0  0  0  0  0  0  0  0  0  0  0 
    7.9722   -0.6585    1.5898 H   0  0  0  0  0  0  0  0  0  0  0  0 
    6.3567   -1.0402    2.2075 H   0  0  0  0  0  0  0  0  0  0  0  0 
    6.6227    0.4380    1.2662 H   0  0  0  0  0  0  0  0  0  0  0  0 
    8.0984   -2.9375    0.4437 H   0  0  0  0  0  0  0  0  0  0  0  0 
    6.8648   -3.4202   -0.7332 H   0  0  0  0  0  0  0  0  0  0  0  0 
    6.4747   -3.3774    0.9964 H   0  0  0  0  0  0  0  0  0  0  0  0 
    3.0113   -0.8685   -2.0874 H   0  0  0  0  0  0  0  0  0  0  0  0 
    2.3829   -0.3864   -0.4864 H   0  0  0  0  0  0  0  0  0  0  0  0 
    4.4630   -1.5995    0.5193 H   0  0  0  0  0  0  0  0  0  0  0  0 
    4.9014   -1.9844   -1.1692 H   0  0  0  0  0  0  0  0  0  0  0  0 
    2.9218    1.5607   -2.7837 H   0  0  0  0  0  0  0  0  0  0  0  0 
    7.1665   -0.9494   -0.7583 H   0  0  0  0  0  0  0  0  0  0  0  0 
  1 12  1  0  0  0  0 
  1  7  1  0  0  0  0 
  2 15  1  0  0  0  0 
  2 16  1  0  0  0  0 
  3 17  1  0  0  0  0 
  3 18  1  0  0  0  0 
  4 20  1  0  0  0  0 
  4 22  1  0  0  0  0 
  5 10  1  0  0  0  0 
  5 24  1  0  0  0  0 
  6  8  1  0  0  0  0 
  6 25  1  0  0  0  0 
  7  5  1  0  0  0  0 
  7  2  1  0  0  0  0 
  8  4  1  0  0  0  0 
  8  3  1  0  0  0  0 
  9 10  2  0  0  0  0 
 10  6  1  0  0  0  0 
 11  1  1  0  0  0  0 
 13  1  1  0  0  0  0 
 14  2  1  0  0  0  0 
 19  3  1  0  0  0  0 
 21  4  1  0  0  0  0 
 23  5  1  0  0  0  0 
 26  6  1  0  0  0  0 
 27  7  1  0  0  0  0 
 28  8  1  0  0  0  0 
M  END 
>  <HBA> 
1 
 
>  <HBD> 
0 
 
>  <TPSA> 
36.28 
 
>  <cid> 
18328 
 
>  <dipole> 
3.49 
 
>  <excitation_energy_1> 
5.509 
 
>  <excitation_energy_2> 
5.512 
 
>  <excitation_energy_3> 
5.6 
 
>  <excitation_energy_4> 
5.991 
 
>  <homo_energy> 
-5.837 
 
>  <homo_lumo_gap> 
6.944 
 
>  <logP> 
2.913 
 
>  <lumo_energy> 
1.108 
 
>  <melting_point> 
-8.59 
 
>  <molecular_refractivity> 
48.85 
 
>  <oscillator_strength_1> 
0.0153 
 
>  <oscillator_strength_2> 
0.0829 
 
>  <oscillator_strength_3> 
0.017 
 
>  <oscillator_strength_4> 
0.0492 
 
>  <open_babel_can_smiles> 
CC(CS(=O)CC(C)C)C 
 
>  <mulliken_charges> 
28 
1   -0.443697 
2   -0.453302 
3   -0.453168 
4   -0.443507 
5   -0.455561 
6   -0.455737 
7   -0.086284 
8   -0.086746 
9   -0.643721 
10   0.756879 
11   0.149898 
12   0.138857 
13   0.147076 
14   0.149272 
15   0.163575 
16   0.136989 
17   0.149164 
18   0.136931 
19   0.164261 
20   0.149975 
21   0.146929 
22   0.138869 
23   0.174067 
24   0.155481 
25   0.155474 
26   0.173903 
27   0.166979 
28   0.167144 
 
>  <lowdin_charges> 
28 
1   -0.444765 
2   -0.450361 
3   -0.446064 
4   -0.442035 
5   -0.423131 
6   -0.423788 
7   -0.127619 
8   -0.126461 
9   -0.686657 
10   0.791508 
11   0.154188 
12   0.146468 
13   0.151647 
14   0.15431 
15   0.158095 
16   0.145435 
17   0.152017 
18   0.145252 
19   0.156563 
20   0.151769 
21   0.151112 
22   0.146391 
23   0.163058 
24   0.160475 
25   0.160714 
26   0.162988 
27   0.159502 
28   0.159388 
 
$$$$ 
 
