PCCDB-ID:  25753 
public computational chemistry database (PCCDB) project, http://pccdb.org 
 
 28 28  0  0  0  0  0  0  0  0999 V2000 
    0.9476    0.0592   -0.0772 C   0  0  0  0  0  0  0  0  0  0  0  0 
    5.2258    2.6503    0.2721 C   0  0  0  0  0  0  0  0  0  0  0  0 
    2.4427   -2.5071   -0.0551 C   0  0  0  0  0  0  0  0  0  0  0  0 
    6.8134    0.1435    0.0660 C   0  0  0  0  0  0  0  0  0  0  0  0 
    2.4569    0.0199    0.0140 C   0  0  0  0  0  0  0  0  0  0  0  0 
    4.5627    1.2950    0.1649 C   0  0  0  0  0  0  0  0  0  0  0  0 
    3.1777   -1.1816   -0.0234 C   0  0  0  0  0  0  0  0  0  0  0  0 
    5.2982    0.1028    0.0996 C   0  0  0  0  0  0  0  0  0  0  0  0 
    3.1507    1.2455    0.1291 C   0  0  0  0  0  0  0  0  0  0  0  0 
    4.5822   -1.1058    0.0191 C   0  0  0  0  0  0  0  0  0  0  0  0 
    2.4252    2.4352    0.1448 N   0  0  0  0  0  0  0  0  0  0  0  0 
    5.3423   -2.3600   -0.0234 N   0  0  0  0  0  0  0  0  0  0  0  0 
    6.1967   -2.5493    0.8466 O   0  0  0  0  0  0  0  0  0  0  0  0 
    5.0866   -3.1621   -0.9254 O   0  0  0  0  0  0  0  0  0  0  0  0 
    0.5218   -0.9032   -0.3606 H   0  0  0  0  0  0  0  0  0  0  0  0 
    0.6267    0.7887   -0.8317 H   0  0  0  0  0  0  0  0  0  0  0  0 
    0.4798    0.3507    0.8760 H   0  0  0  0  0  0  0  0  0  0  0  0 
    6.3126    2.5847    0.3086 H   0  0  0  0  0  0  0  0  0  0  0  0 
    4.9152    3.1752    1.1880 H   0  0  0  0  0  0  0  0  0  0  0  0 
    4.9605    3.2969   -0.5755 H   0  0  0  0  0  0  0  0  0  0  0  0 
    2.0630   -2.7256   -1.0607 H   0  0  0  0  0  0  0  0  0  0  0  0 
    1.5883   -2.4896    0.6277 H   0  0  0  0  0  0  0  0  0  0  0  0 
    3.0779   -3.3454    0.2271 H   0  0  0  0  0  0  0  0  0  0  0  0 
    7.1619    0.9063   -0.6370 H   0  0  0  0  0  0  0  0  0  0  0  0 
    7.2523   -0.8072   -0.2312 H   0  0  0  0  0  0  0  0  0  0  0  0 
    7.2260    0.3859    1.0528 H   0  0  0  0  0  0  0  0  0  0  0  0 
    1.4728    2.3711    0.4760 H   0  0  0  0  0  0  0  0  0  0  0  0 
    2.9033    3.2428    0.5184 H   0  0  0  0  0  0  0  0  0  0  0  0 
  1  5  1  0  0  0  0 
  1 17  1  0  0  0  0 
  2 18  1  0  0  0  0 
  2 19  1  0  0  0  0 
  3  7  1  0  0  0  0 
  3 23  1  0  0  0  0 
  3 22  1  0  0  0  0 
  4  8  1  0  0  0  0 
  4 26  1  0  0  0  0 
  5  9  1  0  0  0  0 
  6  2  1  0  0  0  0 
  7  5  2  0  0  0  0 
  7 10  1  0  0  0  0 
  8  6  1  0  0  0  0 
  9 11  1  0  0  0  0 
  9  6  2  0  0  0  0 
 10  8  2  0  0  0  0 
 11 27  1  0  0  0  0 
 11 28  1  0  0  0  0 
 12 10  1  0  0  0  0 
 12 13  2  0  0  0  0 
 14 12  2  0  0  0  0 
 15  1  1  0  0  0  0 
 16  1  1  0  0  0  0 
 20  2  1  0  0  0  0 
 21  3  1  0  0  0  0 
 24  4  1  0  0  0  0 
 25  4  1  0  0  0  0 
M  END 
>  <HBA> 
1 
 
>  <HBD> 
1 
 
>  <TPSA> 
71.84 
 
>  <cid> 
25753 
 
>  <dipole> 
6.03 
 
>  <excitation_energy_1> 
3.204 
 
>  <excitation_energy_2> 
3.767 
 
>  <excitation_energy_3> 
4.139 
 
>  <excitation_energy_4> 
4.365 
 
>  <homo_energy> 
-5.766 
 
>  <homo_lumo_gap> 
4.101 
 
>  <logP> 
3.515 
 
>  <lumo_energy> 
-1.665 
 
>  <melting_point> 
111.63 
 
>  <molecular_refractivity> 
59.53 
 
>  <oscillator_strength_1> 
0.0849 
 
>  <oscillator_strength_2> 
0.0058 
 
>  <oscillator_strength_3> 
0.0326 
 
>  <oscillator_strength_4> 
0.0008 
 
>  <open_babel_can_smiles> 
Cc1c(C)c(N(=O)=O)c(c(c1N)C)C 
 
>  <mulliken_charges> 
28 
1   -0.567071 
2   -0.565398 
3   -0.532099 
4   -0.534887 
5   0.085213 
6   0.086875 
7   0.130721 
8   0.132502 
9   0.224373 
10   0.137194 
11   -0.806328 
12   0.302846 
13   -0.386198 
14   -0.384765 
15   0.171916 
16   0.171131 
17   0.154732 
18   0.170825 
19   0.153504 
20   0.170588 
21   0.175441 
22   0.155656 
23   0.180327 
24   0.158491 
25   0.182015 
26   0.17249 
27   0.330271 
28   0.329636 
 
>  <lowdin_charges> 
28 
1   -0.452769 
2   -0.449479 
3   -0.446976 
4   -0.4477 
5   -0.046701 
6   -0.047455 
7   0.010099 
8   0.010029 
9   0.056843 
10   -0.031092 
11   -0.479816 
12   0.302369 
13   -0.253049 
14   -0.251903 
15   0.169048 
16   0.163692 
17   0.153204 
18   0.167096 
19   0.153198 
20   0.162145 
21   0.168845 
22   0.157873 
23   0.172018 
24   0.159378 
25   0.172017 
26   0.167639 
27   0.28024 
28   0.281209 
 
$$$$ 
 
