PCCDB-ID:  33203 
public computational chemistry database (PCCDB) project, http://pccdb.org 
 
 35 35  0  0  0  0  0  0  0  0999 V2000 
    6.0577   -4.5518   -7.4326 C   0  0  0  0  0  0  0  0  0  0  0  0 
    7.4744   -4.3015   -5.5151 C   0  0  0  0  0  0  0  0  0  0  0  0 
   10.3821    0.7643   -6.6079 C   0  0  0  0  0  0  0  0  0  0  0  0 
   10.3893    2.9222   -5.5712 C   0  0  0  0  0  0  0  0  0  0  0  0 
   11.5049    1.1137   -7.3520 C   0  0  0  0  0  0  0  0  0  0  0  0 
   11.5141    3.2849   -6.3090 C   0  0  0  0  0  0  0  0  0  0  0  0 
    8.5780    1.2863   -4.8841 C   0  0  0  0  0  0  0  0  0  0  0  0 
    6.9517   -2.3754   -6.9047 C   0  0  0  0  0  0  0  0  0  0  0  0 
    7.2878    1.0974   -5.7052 C   0  0  0  0  0  0  0  0  0  0  0  0 
    6.9666   -1.2635   -5.8563 C   0  0  0  0  0  0  0  0  0  0  0  0 
    9.7987    1.6589   -5.6980 C   0  0  0  0  0  0  0  0  0  0  0  0 
   12.0940    2.3815   -7.2122 C   0  0  0  0  0  0  0  0  0  0  0  0 
   13.2656    2.7102   -7.9075 N   0  0  0  0  0  0  0  0  0  0  0  0 
    6.4854   -3.6525   -6.3681 N   0  0  0  0  0  0  0  0  0  0  0  0 
    7.2887   -0.0584   -6.5328 O   0  0  0  0  0  0  0  0  0  0  0  0 
    5.6513   -5.4704   -6.9949 H   0  0  0  0  0  0  0  0  0  0  0  0 
    6.8775   -4.8372   -8.1217 H   0  0  0  0  0  0  0  0  0  0  0  0 
    5.2665   -4.0775   -8.0225 H   0  0  0  0  0  0  0  0  0  0  0  0 
    7.0533   -5.2280   -5.1103 H   0  0  0  0  0  0  0  0  0  0  0  0 
    7.7376   -3.6591   -4.6698 H   0  0  0  0  0  0  0  0  0  0  0  0 
    8.4089   -4.5566   -6.0544 H   0  0  0  0  0  0  0  0  0  0  0  0 
    9.9389   -0.2166   -6.7492 H   0  0  0  0  0  0  0  0  0  0  0  0 
    9.9644    3.6427   -4.8747 H   0  0  0  0  0  0  0  0  0  0  0  0 
   11.9384    0.3962   -8.0459 H   0  0  0  0  0  0  0  0  0  0  0  0 
   11.9541    4.2716   -6.1782 H   0  0  0  0  0  0  0  0  0  0  0  0 
    8.7650    0.3677   -4.3108 H   0  0  0  0  0  0  0  0  0  0  0  0 
    8.3842    2.0701   -4.1401 H   0  0  0  0  0  0  0  0  0  0  0  0 
    7.9554   -2.4542   -7.3676 H   0  0  0  0  0  0  0  0  0  0  0  0 
    6.2622   -2.0630   -7.6964 H   0  0  0  0  0  0  0  0  0  0  0  0 
    7.1531    1.9488   -6.3807 H   0  0  0  0  0  0  0  0  0  0  0  0 
    6.4205    1.0637   -5.0249 H   0  0  0  0  0  0  0  0  0  0  0  0 
    7.6981   -1.4751   -5.0620 H   0  0  0  0  0  0  0  0  0  0  0  0 
    5.9739   -1.1915   -5.3845 H   0  0  0  0  0  0  0  0  0  0  0  0 
   13.3950    2.2018   -8.7742 H   0  0  0  0  0  0  0  0  0  0  0  0 
   13.4039    3.7039   -8.0482 H   0  0  0  0  0  0  0  0  0  0  0  0 
  1 16  1  0  0  0  0 
  1 14  1  0  0  0  0 
  2 19  1  0  0  0  0 
  2 20  1  0  0  0  0 
  3 11  2  0  0  0  0 
  4 23  1  0  0  0  0 
  5 12  2  0  0  0  0 
  5  3  1  0  0  0  0 
  6 25  1  0  0  0  0 
  6  4  2  0  0  0  0 
  7 26  1  0  0  0  0 
  7 27  1  0  0  0  0 
  8 14  1  0  0  0  0 
  8 10  1  0  0  0  0 
  9 31  1  0  0  0  0 
  9  7  1  0  0  0  0 
 10 33  1  0  0  0  0 
 10 32  1  0  0  0  0 
 11  4  1  0  0  0  0 
 11  7  1  0  0  0  0 
 12  6  1  0  0  0  0 
 13 12  1  0  0  0  0 
 14  2  1  0  0  0  0 
 15 10  1  0  0  0  0 
 15  9  1  0  0  0  0 
 17  1  1  0  0  0  0 
 18  1  1  0  0  0  0 
 21  2  1  0  0  0  0 
 22  3  1  0  0  0  0 
 24  5  1  0  0  0  0 
 28  8  1  0  0  0  0 
 29  8  1  0  0  0  0 
 30  9  1  0  0  0  0 
 34 13  1  0  0  0  0 
 35 13  1  0  0  0  0 
M  END 
>  <HBA> 
3 
 
>  <HBD> 
1 
 
>  <TPSA> 
38.49 
 
>  <cid> 
33203 
 
>  <dipole> 
0.86 
 
>  <excitation_energy_1> 
4.604 
 
>  <excitation_energy_2> 
4.65 
 
>  <excitation_energy_3> 
4.961 
 
>  <excitation_energy_4> 
5.253 
 
>  <homo_energy> 
-5.206 
 
>  <homo_lumo_gap> 
5.516 
 
>  <logP> 
1.971 
 
>  <lumo_energy> 
0.31 
 
>  <melting_point> 
47.68 
 
>  <molecular_refractivity> 
63.83 
 
>  <oscillator_strength_1> 
0.0297 
 
>  <oscillator_strength_2> 
0.0039 
 
>  <oscillator_strength_3> 
0.0851 
 
>  <oscillator_strength_4> 
0.0006 
 
>  <open_babel_can_smiles> 
CN(CCOCCc1ccc(cc1)N)C 
 
>  <mulliken_charges> 
35 
1   -0.292967 
2   -0.301836 
3   -0.182544 
4   -0.199335 
5   -0.172382 
6   -0.170329 
7   -0.374694 
8   -0.135201 
9   -0.011696 
10   -0.017869 
11   0.171496 
12   0.304274 
13   -0.786997 
14   -0.372923 
15   -0.475781 
16   0.147082 
17   0.118145 
18   0.150742 
19   0.149441 
20   0.152099 
21   0.118481 
22   0.134164 
23   0.115518 
24   0.113116 
25   0.112222 
26   0.14918 
27   0.136765 
28   0.120937 
29   0.15001 
30   0.147251 
31   0.11647 
32   0.121565 
33   0.13222 
34   0.316909 
35   0.316465 
 
>  <lowdin_charges> 
35 
1   -0.357792 
2   -0.359856 
3   -0.150846 
4   -0.160683 
5   -0.200887 
6   -0.202994 
7   -0.289655 
8   -0.205325 
9   -0.130863 
10   -0.136493 
11   -0.031073 
12   0.057857 
13   -0.490619 
14   -0.184159 
15   -0.271885 
16   0.149277 
17   0.1215 
18   0.151663 
19   0.151126 
20   0.149906 
21   0.12071 
22   0.15936 
23   0.151966 
24   0.151912 
25   0.149975 
26   0.150814 
27   0.151458 
28   0.121387 
29   0.153781 
30   0.149724 
31   0.128081 
32   0.126095 
33   0.132258 
34   0.273046 
35   0.271232 
 
$$$$ 
 
