PCCDB-ID:  62274 
public computational chemistry database (PCCDB) project, http://pccdb.org 
 
 28 30  0  0  0  0  0  0  0  0999 V2000 
    0.9658    0.1701    0.0477 C   0  0  0  0  0  0  0  0  0  0  0  0 
    1.3317   -3.0016   -0.0820 C   0  0  0  0  0  0  0  0  0  0  0  0 
    7.4317    1.1346    0.0963 C   0  0  0  0  0  0  0  0  0  0  0  0 
    6.7797   -0.0744    0.0414 C   0  0  0  0  0  0  0  0  0  0  0  0 
    6.6612    2.3242    0.1529 C   0  0  0  0  0  0  0  0  0  0  0  0 
    3.2553    1.1938    0.1023 C   0  0  0  0  0  0  0  0  0  0  0  0 
    2.4724    0.0516    0.0495 C   0  0  0  0  0  0  0  0  0  0  0  0 
    5.3626   -0.0929    0.0428 C   0  0  0  0  0  0  0  0  0  0  0  0 
    4.6736    1.1660    0.1014 C   0  0  0  0  0  0  0  0  0  0  0  0 
    4.5532   -1.2448   -0.0085 C   0  0  0  0  0  0  0  0  0  0  0  0 
    3.1595   -1.1908   -0.0055 C   0  0  0  0  0  0  0  0  0  0  0  0 
    3.7755   -3.4020   -0.1021 C   0  0  0  0  0  0  0  0  0  0  0  0 
    3.6414   -4.6776   -0.1542 N   0  0  0  0  0  0  0  0  0  0  0  0 
    5.3437    2.3538    0.1560 N   0  0  0  0  0  0  0  0  0  0  0  0 
    4.9076   -2.5878   -0.0715 N   0  0  0  0  0  0  0  0  0  0  0  0 
    2.6978   -2.5097   -0.0647 N   0  0  0  0  0  0  0  0  0  0  0  0 
    0.6744    1.2219    0.1136 H   0  0  0  0  0  0  0  0  0  0  0  0 
    0.5076   -0.3543    0.8938 H   0  0  0  0  0  0  0  0  0  0  0  0 
    0.5212   -0.2382   -0.8673 H   0  0  0  0  0  0  0  0  0  0  0  0 
    0.7826   -2.6180   -0.9473 H   0  0  0  0  0  0  0  0  0  0  0  0 
    0.7986   -2.7284    0.8342 H   0  0  0  0  0  0  0  0  0  0  0  0 
    1.3942   -4.0886   -0.1479 H   0  0  0  0  0  0  0  0  0  0  0  0 
    8.5161    1.1906    0.0964 H   0  0  0  0  0  0  0  0  0  0  0  0 
    7.3444   -1.0032   -0.0034 H   0  0  0  0  0  0  0  0  0  0  0  0 
    7.1660    3.2889    0.1975 H   0  0  0  0  0  0  0  0  0  0  0  0 
    2.7875    2.1721    0.1470 H   0  0  0  0  0  0  0  0  0  0  0  0 
    4.5452   -5.1477   -0.1766 H   0  0  0  0  0  0  0  0  0  0  0  0 
    5.8448   -2.9556   -0.0708 H   0  0  0  0  0  0  0  0  0  0  0  0 
  1  7  1  0  0  0  0 
  1 17  1  0  0  0  0 
  1 18  1  0  0  0  0 
  2 16  1  0  0  0  0 
  2 21  1  0  0  0  0 
  3 23  1  0  0  0  0 
  3  5  1  0  0  0  0 
  4  8  1  0  0  0  0 
  4  3  2  0  0  0  0 
  5 14  2  0  0  0  0 
  5 25  1  0  0  0  0 
  6 26  1  0  0  0  0 
  7  6  1  0  0  0  0 
  8  9  1  0  0  0  0 
  9  6  2  0  0  0  0 
  9 14  1  0  0  0  0 
 10 11  1  0  0  0  0 
 10  8  2  0  0  0  0 
 11  7  2  0  0  0  0 
 12 15  1  0  0  0  0 
 12 16  1  0  0  0  0 
 13 12  2  0  0  0  0 
 15 28  1  0  0  0  0 
 15 10  1  0  0  0  0 
 16 11  1  0  0  0  0 
 19  1  1  0  0  0  0 
 20  2  1  0  0  0  0 
 22  2  1  0  0  0  0 
 24  4  1  0  0  0  0 
 27 13  1  0  0  0  0 
M  END 
>  <HBA> 
4 
 
>  <HBD> 
1 
 
>  <TPSA> 
56.73 
 
>  <cid> 
62274 
 
>  <dipole> 
1.42 
 
>  <excitation_energy_1> 
3.067 
 
>  <excitation_energy_2> 
3.924 
 
>  <excitation_energy_3> 
4.025 
 
>  <excitation_energy_4> 
4.341 
 
>  <homo_energy> 
-4.917 
 
>  <homo_lumo_gap> 
3.66 
 
>  <logP> 
2.593 
 
>  <lumo_energy> 
-1.257 
 
>  <melting_point> 
182.16 
 
>  <molecular_refractivity> 
65.67 
 
>  <oscillator_strength_1> 
0.0305 
 
>  <oscillator_strength_2> 
0.0356 
 
>  <oscillator_strength_3> 
0.0006 
 
>  <oscillator_strength_4> 
0.002 
 
>  <open_babel_can_smiles> 
Cc1cc2ncccc2c2c1n(C)c(=N)[nH]2 
 
>  <mulliken_charges> 
28 
1   -0.535276 
2   -0.330773 
3   -0.161637 
4   -0.138944 
5   0.042484 
6   -0.239299 
7   0.169164 
8   0.150088 
9   0.240073 
10   0.224692 
11   0.292781 
12   0.706748 
13   -0.695338 
14   -0.503947 
15   -0.793134 
16   -0.597719 
17   0.167221 
18   0.164413 
19   0.165006 
20   0.162353 
21   0.162326 
22   0.218342 
23   0.135042 
24   0.124167 
25   0.137484 
26   0.134239 
27   0.27215 
28   0.327299 
 
>  <lowdin_charges> 
28 
1   -0.44035 
2   -0.350691 
3   -0.178267 
4   -0.140346 
5   -0.095917 
6   -0.178891 
7   -0.010835 
8   -0.036463 
9   0.0374 
10   0.023393 
11   0.020968 
12   0.124491 
13   -0.495047 
14   -0.14521 
15   -0.244717 
16   -0.064345 
17   0.163017 
18   0.161662 
19   0.161289 
20   0.156186 
21   0.155248 
22   0.191837 
23   0.161619 
24   0.153608 
25   0.155231 
26   0.1677 
27   0.254405 
28   0.293026 
 
$$$$ 
 
