PCCDB-ID:  9692 
public computational chemistry database (PCCDB) project, http://pccdb.org 
 
 24 24  0  0  0  0  0  0  0  0999 V2000 
   -2.2694   -0.1015    0.5001 C   0  0  0  0  0  0  0  0  0  0  0  0 
   -2.7474   -1.3983    0.2506 C   0  0  0  0  0  0  0  0  0  0  0  0 
   -0.9495    0.1909    0.2026 C   0  0  0  0  0  0  0  0  0  0  0  0 
   -1.9169   -2.3685   -0.2778 C   0  0  0  0  0  0  0  0  0  0  0  0 
    1.8206    1.0111   -0.3939 C   0  0  0  0  0  0  0  0  0  0  0  0 
    3.2791    1.2298   -0.7953 C   0  0  0  0  0  0  0  0  0  0  0  0 
   -0.0650   -0.7670   -0.3406 C   0  0  0  0  0  0  0  0  0  0  0  0 
   -0.5621   -2.0892   -0.5829 C   0  0  0  0  0  0  0  0  0  0  0  0 
    1.3326   -0.4127   -0.6564 C   0  0  0  0  0  0  0  0  0  0  0  0 
    3.6941    2.5879   -0.4174 N   0  0  0  0  0  0  0  0  0  0  0  0 
    0.2308   -3.0718   -1.0854 N   0  0  0  0  0  0  0  0  0  0  0  0 
    2.1310   -1.2326   -1.1281 O   0  0  0  0  0  0  0  0  0  0  0  0 
   -2.9225    0.6583    0.9176 H   0  0  0  0  0  0  0  0  0  0  0  0 
   -3.7817   -1.6484    0.4737 H   0  0  0  0  0  0  0  0  0  0  0  0 
   -0.5807    1.1928    0.3945 H   0  0  0  0  0  0  0  0  0  0  0  0 
   -2.2951   -3.3708   -0.4668 H   0  0  0  0  0  0  0  0  0  0  0  0 
    1.1727    1.7168   -0.9342 H   0  0  0  0  0  0  0  0  0  0  0  0 
    1.7045    1.2552    0.6700 H   0  0  0  0  0  0  0  0  0  0  0  0 
    3.4015    0.9960   -1.8653 H   0  0  0  0  0  0  0  0  0  0  0  0 
    3.9088    0.5182   -0.2523 H   0  0  0  0  0  0  0  0  0  0  0  0 
    3.2175    3.2684   -1.0092 H   0  0  0  0  0  0  0  0  0  0  0  0 
    4.6878    2.7035   -0.6102 H   0  0  0  0  0  0  0  0  0  0  0  0 
   -0.1564   -3.9782   -1.2944 H   0  0  0  0  0  0  0  0  0  0  0  0 
    1.1864   -2.8370   -1.3282 H   0  0  0  0  0  0  0  0  0  0  0  0 
  1 13  1  0  0  0  0 
  2 14  1  0  0  0  0 
  2  1  1  0  0  0  0 
  3 15  1  0  0  0  0 
  3  1  2  0  0  0  0 
  4  2  2  0  0  0  0 
  5 18  1  0  0  0  0 
  6 10  1  0  0  0  0 
  6  5  1  0  0  0  0 
  6 20  1  0  0  0  0 
  7  3  1  0  0  0  0 
  8  7  2  0  0  0  0 
  8  4  1  0  0  0  0 
  9  5  1  0  0  0  0 
  9  7  1  0  0  0  0 
 11  8  1  0  0  0  0 
 12  9  2  0  0  0  0 
 16  4  1  0  0  0  0 
 17  5  1  0  0  0  0 
 19  6  1  0  0  0  0 
 21 10  1  0  0  0  0 
 22 10  1  0  0  0  0 
 23 11  1  0  0  0  0 
 24 11  1  0  0  0  0 
M  END 
>  <HBA> 
3 
 
>  <HBD> 
2 
 
>  <TPSA> 
69.11 
 
>  <cid> 
9692 
 
>  <dipole> 
1.62 
 
>  <excitation_energy_1> 
3.679 
 
>  <excitation_energy_2> 
3.914 
 
>  <excitation_energy_3> 
4.488 
 
>  <excitation_energy_4> 
4.992 
 
>  <homo_energy> 
-5.442 
 
>  <homo_lumo_gap> 
4.218 
 
>  <logP> 
2.082 
 
>  <lumo_energy> 
-1.225 
 
>  <melting_point> 
141.95 
 
>  <molecular_refractivity> 
48.56 
 
>  <oscillator_strength_1> 
0.1175 
 
>  <oscillator_strength_2> 
0.0005 
 
>  <oscillator_strength_3> 
0.0002 
 
>  <oscillator_strength_4> 
0.0043 
 
>  <open_babel_can_smiles> 
NCCC(=O)c1ccccc1N 
 
>  <mulliken_charges> 
24 
1   -0.14553 
2   -0.12587 
3   -0.202644 
4   -0.180042 
5   -0.357647 
6   -0.132312 
7   0.054491 
8   0.330121 
9   0.416382 
10   -0.721928 
11   -0.829345 
12   -0.528652 
13   0.125397 
14   0.131894 
15   0.135996 
16   0.119005 
17   0.152501 
18   0.179563 
19   0.129439 
20   0.15634 
21   0.289104 
22   0.297608 
23   0.326365 
24   0.379763 
 
>  <lowdin_charges> 
24 
1   -0.200435 
2   -0.125355 
3   -0.135526 
4   -0.206247 
5   -0.312272 
6   -0.201072 
7   -0.10122 
8   0.095109 
9   0.16608 
10   -0.560837 
11   -0.459339 
12   -0.289113 
13   0.158843 
14   0.15829 
15   0.162314 
16   0.152697 
17   0.157772 
18   0.169011 
19   0.125852 
20   0.153649 
21   0.250707 
22   0.253824 
23   0.281368 
24   0.305898 
 
$$$$ 
 
