PCCDB-ID:  12024 
public computational chemistry database (PCCDB) project, http://pccdb.org 
 
 12 12  0  0  0  0  0  0  0  0999 V2000 
    0.8725    0.0406    0.0040 C   0  0  0  0  0  0  0  0  0  0  0  0 
    3.2414   -1.0282    0.0039 C   0  0  0  0  0  0  0  0  0  0  0  0 
    4.5714   -0.7145    0.0076 C   0  0  0  0  0  0  0  0  0  0  0  0 
    3.1018    1.2852    0.0146 C   0  0  0  0  0  0  0  0  0  0  0  0 
    2.3801    0.1190    0.0077 C   0  0  0  0  0  0  0  0  0  0  0  0 
    4.8134    1.0022    0.0159 S   0  0  0  0  0  0  0  0  0  0  0  0 
    0.5349   -1.0004    0.0238 H   0  0  0  0  0  0  0  0  0  0  0  0 
    0.4444    0.5088   -0.8904 H   0  0  0  0  0  0  0  0  0  0  0  0 
    0.4382    0.5451    0.8751 H   0  0  0  0  0  0  0  0  0  0  0  0 
    2.8699   -2.0482   -0.0017 H   0  0  0  0  0  0  0  0  0  0  0  0 
    5.4202   -1.3847    0.0058 H   0  0  0  0  0  0  0  0  0  0  0  0 
    2.7253    2.3000    0.0191 H   0  0  0  0  0  0  0  0  0  0  0  0 
  1  5  1  0  0  0  0 
  1  7  1  0  0  0  0 
  1  9  1  0  0  0  0 
  2  3  2  0  0  0  0 
  2  5  1  0  0  0  0 
  3  6  1  0  0  0  0 
  4  6  1  0  0  0  0 
  4 12  1  0  0  0  0 
  5  4  2  0  0  0  0 
  8  1  1  0  0  0  0 
 10  2  1  0  0  0  0 
 11  3  1  0  0  0  0 
M  END 
>  <HBA> 
1 
 
>  <HBD> 
0 
 
>  <TPSA> 
28.24 
 
>  <cid> 
12024 
 
>  <dipole> 
0.94 
 
>  <excitation_energy_1> 
5.489 
 
>  <excitation_energy_2> 
5.49 
 
>  <excitation_energy_3> 
5.696 
 
>  <excitation_energy_4> 
5.758 
 
>  <homo_energy> 
-6.117 
 
>  <homo_lumo_gap> 
5.948 
 
>  <logP> 
2.057 
 
>  <lumo_energy> 
-0.169 
 
>  <melting_point> 
6.38 
 
>  <molecular_refractivity> 
29.29 
 
>  <oscillator_strength_1> 
0.0844 
 
>  <oscillator_strength_2> 
0.0027 
 
>  <oscillator_strength_3> 
0.0916 
 
>  <oscillator_strength_4> 
0.0072 
 
>  <open_babel_can_smiles> 
Cc1cscc1 
 
>  <mulliken_charges> 
12 
1   -0.524364 
2   -0.121122 
3   -0.349856 
4   -0.394975 
5   0.18481 
6   0.249161 
7   0.156052 
8   0.164765 
9   0.16438 
10   0.133908 
11   0.171543 
12   0.165698 
 
>  <lowdin_charges> 
12 
1   -0.440041 
2   -0.189952 
3   -0.327122 
4   -0.341364 
5   -0.023788 
6   0.319738 
7   0.157382 
8   0.162479 
9   0.162571 
10   0.161203 
11   0.181652 
12   0.177241 
 
$$$$ 
 
