PCCDB-ID:  35027 
public computational chemistry database (PCCDB) project, http://pccdb.org 
 
 31 31  0  0  0  0  0  0  0  0999 V2000 
    6.2062    1.9193    1.0775 C   0  0  0  0  0  0  0  0  0  0  0  0 
    4.9052   -7.9555   -1.8825 C   0  0  0  0  0  0  0  0  0  0  0  0 
    5.8838    0.5205    0.5397 C   0  0  0  0  0  0  0  0  0  0  0  0 
    4.7827   -8.1966   -0.3744 C   0  0  0  0  0  0  0  0  0  0  0  0 
    4.8013   -0.1601    1.3684 C   0  0  0  0  0  0  0  0  0  0  0  0 
    5.5025   -7.1604    0.4742 C   0  0  0  0  0  0  0  0  0  0  0  0 
    6.8447   -3.6853    2.2543 C   0  0  0  0  0  0  0  0  0  0  0  0 
    5.1687   -2.5046    1.1660 C   0  0  0  0  0  0  0  0  0  0  0  0 
    5.3959   -4.8268    0.8678 C   0  0  0  0  0  0  0  0  0  0  0  0 
    7.8477   -3.7376    3.0452 N   0  0  0  0  0  0  0  0  0  0  0  0 
    6.1707   -2.4663    1.9630 N   0  0  0  0  0  0  0  0  0  0  0  0 
    6.4011   -4.8851    1.6541 N   0  0  0  0  0  0  0  0  0  0  0  0 
    4.7142   -3.6599    0.5642 N   0  0  0  0  0  0  0  0  0  0  0  0 
    4.4285   -1.4476    0.8115 O   0  0  0  0  0  0  0  0  0  0  0  0 
    4.8667   -5.8780    0.2340 O   0  0  0  0  0  0  0  0  0  0  0  0 
    6.9774    2.4011    0.4680 H   0  0  0  0  0  0  0  0  0  0  0  0 
    6.5777    1.8739    2.1080 H   0  0  0  0  0  0  0  0  0  0  0  0 
    5.3217    2.5682    1.0685 H   0  0  0  0  0  0  0  0  0  0  0  0 
    4.3815   -8.7341   -2.4472 H   0  0  0  0  0  0  0  0  0  0  0  0 
    5.9552   -7.9606   -2.1991 H   0  0  0  0  0  0  0  0  0  0  0  0 
    4.4758   -6.9882   -2.1623 H   0  0  0  0  0  0  0  0  0  0  0  0 
    6.7828   -0.1049    0.5556 H   0  0  0  0  0  0  0  0  0  0  0  0 
    5.5465    0.5836   -0.5026 H   0  0  0  0  0  0  0  0  0  0  0  0 
    5.2081   -9.1749   -0.1148 H   0  0  0  0  0  0  0  0  0  0  0  0 
    3.7259   -8.2278   -0.0799 H   0  0  0  0  0  0  0  0  0  0  0  0 
    3.8693    0.4115    1.3540 H   0  0  0  0  0  0  0  0  0  0  0  0 
    5.1242   -0.3072    2.4018 H   0  0  0  0  0  0  0  0  0  0  0  0 
    6.5625   -7.0763    0.2144 H   0  0  0  0  0  0  0  0  0  0  0  0 
    5.4366   -7.3831    1.5433 H   0  0  0  0  0  0  0  0  0  0  0  0 
    8.0290   -2.7892    3.3846 H   0  0  0  0  0  0  0  0  0  0  0  0 
    3.9101   -3.6572   -0.0474 H   0  0  0  0  0  0  0  0  0  0  0  0 
  1 17  1  0  0  0  0 
  2  4  1  0  0  0  0 
  3 22  1  0  0  0  0 
  3  1  1  0  0  0  0 
  3  5  1  0  0  0  0 
  4 24  1  0  0  0  0 
  4 25  1  0  0  0  0 
  4  6  1  0  0  0  0 
  5 27  1  0  0  0  0 
  6 29  1  0  0  0  0 
  7 10  1  0  0  0  0 
  8 11  2  0  0  0  0 
  9 12  2  0  0  0  0 
 10 30  1  0  0  0  0 
 11  7  2  0  0  0  0 
 12  7  2  0  0  0  0 
 13  9  1  0  0  0  0 
 13  8  1  0  0  0  0 
 14  8  1  0  0  0  0 
 14  5  1  0  0  0  0 
 15  6  1  0  0  0  0 
 15  9  1  0  0  0  0 
 16  1  1  0  0  0  0 
 18  1  1  0  0  0  0 
 19  2  1  0  0  0  0 
 20  2  1  0  0  0  0 
 21  2  1  0  0  0  0 
 23  3  1  0  0  0  0 
 26  5  1  0  0  0  0 
 28  6  1  0  0  0  0 
 31 13  1  0  0  0  0 
M  RAD  1  10   2 
M  END 
>  <HBA> 
6 
 
>  <HBD> 
1 
 
>  <TPSA> 
83.15 
 
>  <cid> 
35027 
 
>  <dipole> 
5.43 
 
>  <excitation_energy_1> 
5.079 
 
>  <excitation_energy_2> 
5.374 
 
>  <excitation_energy_3> 
5.642 
 
>  <excitation_energy_4> 
5.731 
 
>  <homo_energy> 
-5.899 
 
>  <homo_lumo_gap> 
6.038 
 
>  <logP> 
1.613 
 
>  <lumo_energy> 
0.139 
 
>  <melting_point> 
108.55 
 
>  <molecular_refractivity> 
56.44 
 
>  <oscillator_strength_1> 
0.0001 
 
>  <oscillator_strength_2> 
0.0013 
 
>  <oscillator_strength_3> 
0.0034 
 
>  <oscillator_strength_4> 
0.0046 
 
>  <open_babel_can_smiles> 
CCCOC1=[N]=[C](=[N]=C(N1)OCCC)[NH] 
 
>  <mulliken_charges> 
31 
1   -0.455128 
2   -0.443832 
3   -0.275531 
4   -0.278345 
5   -0.035288 
6   -0.030916 
7   0.516683 
8   0.772899 
9   0.774703 
10   -0.61965 
11   -0.529635 
12   -0.496316 
13   -0.706962 
14   -0.511064 
15   -0.511078 
16   0.156559 
17   0.155335 
18   0.144901 
19   0.149006 
20   0.147498 
21   0.155844 
22   0.170477 
23   0.144624 
24   0.148592 
25   0.149113 
26   0.153064 
27   0.179394 
28   0.171074 
29   0.170265 
30   0.277843 
31   0.355869 
 
>  <lowdin_charges> 
31 
1   -0.444175 
2   -0.44635 
3   -0.284871 
4   -0.278601 
5   -0.122931 
6   -0.113281 
7   0.105387 
8   0.181763 
9   0.176367 
10   -0.400266 
11   -0.259005 
12   -0.217785 
13   -0.237362 
14   -0.186712 
15   -0.190458 
16   0.159587 
17   0.152338 
18   0.148421 
19   0.154765 
20   0.148908 
21   0.153015 
22   0.160811 
23   0.146088 
24   0.154283 
25   0.148762 
26   0.153252 
27   0.162478 
28   0.157074 
29   0.158199 
30   0.249077 
31   0.311221 
 
$$$$ 
 
