PCCDB-ID:  59902 
public computational chemistry database (PCCDB) project, http://pccdb.org 
 
 21 22  0  0  1  0  0  0  0  0999 V2000 
    1.9163   -0.5104   -2.8585 C   0  0  0  0  0  0  0  0  0  0  0  0 
    5.8521    3.4856   -0.6889 C   0  0  0  0  0  0  0  0  0  0  0  0 
    6.9808    1.4285   -0.0556 C   0  0  0  0  0  0  0  0  0  0  0  0 
    4.6846    2.7685   -0.9231 C   0  0  0  0  0  0  0  0  0  0  0  0 
    5.8063    0.7221   -0.2900 C   0  0  0  0  0  0  0  0  0  0  0  0 
    8.2182    3.5542   -0.0146 C   0  0  0  0  0  0  0  0  0  0  0  0 
    2.7292    0.6425   -2.3289 C   0  0  2  0  0  0  0  0  0  0  0  0 
    7.0115    2.8188   -0.2565 C   0  0  0  0  0  0  0  0  0  0  0  0 
    4.6517    1.3801   -0.7350 C   0  0  0  0  0  0  0  0  0  0  0  0 
    3.4121    0.6006   -1.0144 C   0  0  1  0  0  0  0  0  0  0  0  0 
    9.1980    4.1506    0.1800 N   0  0  0  0  0  0  0  0  0  0  0  0 
    2.1958    1.3399   -1.1943 O   0  0  0  0  0  0  0  0  0  0  0  0 
    2.5120   -1.1171   -3.5504 H   0  0  0  0  0  0  0  0  0  0  0  0 
    1.0393   -0.1405   -3.4020 H   0  0  0  0  0  0  0  0  0  0  0  0 
    1.5665   -1.1490   -2.0413 H   0  0  0  0  0  0  0  0  0  0  0  0 
    5.8753    4.5612   -0.8317 H   0  0  0  0  0  0  0  0  0  0  0  0 
    7.8740    0.9156    0.2859 H   0  0  0  0  0  0  0  0  0  0  0  0 
    3.7784    3.2771   -1.2359 H   0  0  0  0  0  0  0  0  0  0  0  0 
    5.7862   -0.3526   -0.1269 H   0  0  0  0  0  0  0  0  0  0  0  0 
    3.1644    1.3053   -3.0803 H   0  0  0  0  0  0  0  0  0  0  0  0 
    3.2976   -0.3140   -0.4287 H   0  0  0  0  0  0  0  0  0  0  0  0 
  1  7  1  0  0  0  0 
  1 15  1  0  0  0  0 
  2  8  2  0  0  0  0 
  3 17  1  0  0  0  0 
  4  9  2  0  0  0  0 
  4  2  1  0  0  0  0 
  5 19  1  0  0  0  0 
  5  3  2  0  0  0  0 
  6 11  3  0  0  0  0 
  7 20  1  6  0  0  0 
  7 12  1  0  0  0  0 
  7 10  1  0  0  0  0 
  8  3  1  0  0  0  0 
  8  6  1  0  0  0  0 
  9  5  1  0  0  0  0 
 10  9  1  0  0  0  0 
 10 21  1  1  0  0  0 
 12 10  1  0  0  0  0 
 13  1  1  0  0  0  0 
 14  1  1  0  0  0  0 
 16  2  1  0  0  0  0 
 18  4  1  0  0  0  0 
M  END 
>  <HBA> 
2 
 
>  <HBD> 
0 
 
>  <TPSA> 
36.32 
 
>  <cid> 
59902 
 
>  <dipole> 
5.13 
 
>  <excitation_energy_1> 
4.954 
 
>  <excitation_energy_2> 
5.112 
 
>  <excitation_energy_3> 
5.487 
 
>  <excitation_energy_4> 
6.089 
 
>  <homo_energy> 
-6.95 
 
>  <homo_lumo_gap> 
5.461 
 
>  <logP> 
2.018 
 
>  <lumo_energy> 
-1.488 
 
>  <melting_point> 
58.19 
 
>  <molecular_refractivity> 
44.71 
 
>  <oscillator_strength_1> 
0.003 
 
>  <oscillator_strength_2> 
0.4526 
 
>  <oscillator_strength_3> 
0.0304 
 
>  <oscillator_strength_4> 
0.1542 
 
>  <open_babel_can_smiles> 
C[C@H]1O[C@@H]1c1ccc(cc1)C#N 
 
>  <mulliken_charges> 
21 
1   -0.468512 
2   -0.134923 
3   -0.142112 
4   -0.195114 
5   -0.188355 
6   0.236787 
7   0.101049 
8   0.129546 
9   0.179988 
10   -0.003073 
11   -0.477482 
12   -0.453878 
13   0.157813 
14   0.168583 
15   0.16322 
16   0.161454 
17   0.16067 
18   0.166096 
19   0.14109 
20   0.147974 
21   0.14918 
 
>  <lowdin_charges> 
21 
1   -0.448645 
2   -0.125944 
3   -0.130624 
4   -0.154501 
5   -0.156149 
6   -0.013501 
7   -0.0159 
8   -0.023276 
9   0.002601 
10   -0.027102 
11   -0.119065 
12   -0.277191 
13   0.163367 
14   0.16595 
15   0.163454 
16   0.17328 
17   0.175492 
18   0.177237 
19   0.162222 
20   0.152481 
21   0.155813 
 
$$$$ 
 
