PCCDB-ID:  13621 
public computational chemistry database (PCCDB) project, http://pccdb.org 
 
 24 24  0  0  0  0  0  0  0  0999 V2000 
    1.0808    0.1341   -0.1105 C   0  0  0  0  0  0  0  0  0  0  0  0 
    4.0695    2.7470    4.0397 C   0  0  0  0  0  0  0  0  0  0  0  0 
    3.0234    2.7194    1.3251 C   0  0  0  0  0  0  0  0  0  0  0  0 
    2.6169    0.0463   -0.0569 C   0  0  0  0  0  0  0  0  0  0  0  0 
    4.0010   -0.9893    3.3298 C   0  0  0  0  0  0  0  0  0  0  0  0 
    4.1771    0.2363    3.9681 C   0  0  0  0  0  0  0  0  0  0  0  0 
    3.5083   -1.0165    2.0296 C   0  0  0  0  0  0  0  0  0  0  0  0 
    3.8637    1.4340    3.3188 C   0  0  0  0  0  0  0  0  0  0  0  0 
    3.3579    1.4050    1.9992 C   0  0  0  0  0  0  0  0  0  0  0  0 
    3.1806    0.1650    1.3489 C   0  0  0  0  0  0  0  0  0  0  0  0 
    0.7187    0.0349   -1.1406 H   0  0  0  0  0  0  0  0  0  0  0  0 
    0.7187    1.0896    0.2846 H   0  0  0  0  0  0  0  0  0  0  0  0 
    0.6259   -0.6632    0.4880 H   0  0  0  0  0  0  0  0  0  0  0  0 
    4.4638    2.5822    5.0470 H   0  0  0  0  0  0  0  0  0  0  0  0 
    3.1335    3.3125    4.1375 H   0  0  0  0  0  0  0  0  0  0  0  0 
    4.7753    3.4000    3.5097 H   0  0  0  0  0  0  0  0  0  0  0  0 
    2.2369    3.2587    1.8694 H   0  0  0  0  0  0  0  0  0  0  0  0 
    2.6771    2.5916    0.2987 H   0  0  0  0  0  0  0  0  0  0  0  0 
    3.8943    3.3872    1.2966 H   0  0  0  0  0  0  0  0  0  0  0  0 
    3.0484    0.8089   -0.7163 H   0  0  0  0  0  0  0  0  0  0  0  0 
    2.9279   -0.9185   -0.4757 H   0  0  0  0  0  0  0  0  0  0  0  0 
    4.2518   -1.9151    3.8411 H   0  0  0  0  0  0  0  0  0  0  0  0 
    4.5634    0.2690    4.9844 H   0  0  0  0  0  0  0  0  0  0  0  0 
    3.3726   -1.9700    1.5235 H   0  0  0  0  0  0  0  0  0  0  0  0 
  1  4  1  0  0  0  0 
  1 12  1  0  0  0  0 
  1 13  1  0  0  0  0 
  2 15  1  0  0  0  0 
  2 14  1  0  0  0  0 
  3 17  1  0  0  0  0 
  3  9  1  0  0  0  0 
  4 10  1  0  0  0  0 
  5 22  1  0  0  0  0 
  5  6  1  0  0  0  0 
  6 23  1  0  0  0  0 
  7  5  2  0  0  0  0 
  8  6  2  0  0  0  0 
  8  2  1  0  0  0  0 
  9  8  1  0  0  0  0 
 10  9  2  0  0  0  0 
 10  7  1  0  0  0  0 
 11  1  1  0  0  0  0 
 16  2  1  0  0  0  0 
 18  3  1  0  0  0  0 
 19  3  1  0  0  0  0 
 20  4  1  0  0  0  0 
 21  4  1  0  0  0  0 
 24  7  1  0  0  0  0 
M  END 
>  <HBA> 
0 
 
>  <HBD> 
0 
 
>  <TPSA> 
0.0 
 
>  <cid> 
13621 
 
>  <dipole> 
0.57 
 
>  <excitation_energy_1> 
5.163 
 
>  <excitation_energy_2> 
5.703 
 
>  <excitation_energy_3> 
5.824 
 
>  <excitation_energy_4> 
5.893 
 
>  <homo_energy> 
-6.177 
 
>  <homo_lumo_gap> 
6.411 
 
>  <logP> 
2.866 
 
>  <lumo_energy> 
0.234 
 
>  <melting_point> 
16.16 
 
>  <molecular_refractivity> 
46.15 
 
>  <oscillator_strength_1> 
0.0001 
 
>  <oscillator_strength_2> 
0.016 
 
>  <oscillator_strength_3> 
0.0119 
 
>  <oscillator_strength_4> 
0.0182 
 
>  <open_babel_can_smiles> 
CCc1cccc(c1C)C 
 
>  <mulliken_charges> 
24 
1   -0.435974 
2   -0.531784 
3   -0.535955 
4   -0.348485 
5   -0.123291 
6   -0.187255 
7   -0.189945 
8   0.134685 
9   0.068436 
10   0.128374 
11   0.141416 
12   0.149083 
13   0.149964 
14   0.153116 
15   0.157046 
16   0.15749 
17   0.158398 
18   0.156603 
19   0.15695 
20   0.14381 
21   0.141486 
22   0.122483 
23   0.116727 
24   0.116621 
 
>  <lowdin_charges> 
24 
1   -0.442663 
2   -0.442019 
3   -0.447085 
4   -0.275425 
5   -0.162087 
6   -0.170546 
7   -0.173082 
8   -0.007582 
9   -0.018764 
10   -0.009694 
11   0.147345 
12   0.149484 
13   0.152449 
14   0.155341 
15   0.156928 
16   0.158183 
17   0.159157 
18   0.157975 
19   0.158033 
20   0.148318 
21   0.148431 
22   0.15525 
23   0.150555 
24   0.151499 
 
$$$$ 
 
