PCCDB-ID:  52547 
public computational chemistry database (PCCDB) project, http://pccdb.org 
 
 39 40  0  0  0  0  0  0  0  0999 V2000 
    3.9579   -1.5432   -1.6263 C   0  0  0  0  0  0  0  0  0  0  0  0 
    3.1523    0.3431   -2.8597 C   0  0  0  0  0  0  0  0  0  0  0  0 
    6.7536    2.5544   -1.3460 C   0  0  0  0  0  0  0  0  0  0  0  0 
    7.9511    1.8323   -0.7141 C   0  0  0  0  0  0  0  0  0  0  0  0 
   12.5305    2.2905   -2.9028 C   0  0  0  0  0  0  0  0  0  0  0  0 
   12.9058    3.5015   -3.5199 C   0  0  0  0  0  0  0  0  0  0  0  0 
    5.8562    1.6726   -2.2314 C   0  0  0  0  0  0  0  0  0  0  0  0 
    8.9098    2.7778    0.0472 C   0  0  0  0  0  0  0  0  0  0  0  0 
   11.4761    2.2430   -1.9995 C   0  0  0  0  0  0  0  0  0  0  0  0 
   12.2360    4.6879   -3.2433 C   0  0  0  0  0  0  0  0  0  0  0  0 
    5.1397    0.5521   -1.4675 C   0  0  0  0  0  0  0  0  0  0  0  0 
    9.4496    5.0877   -0.9591 C   0  0  0  0  0  0  0  0  0  0  0  0 
    9.6681    3.7391   -0.8255 C   0  0  0  0  0  0  0  0  0  0  0  0 
   10.7751    3.4248   -1.6999 C   0  0  0  0  0  0  0  0  0  0  0  0 
   11.1756    4.6346   -2.3326 C   0  0  0  0  0  0  0  0  0  0  0  0 
   10.3469    5.6319   -1.8620 N   0  0  0  0  0  0  0  0  0  0  0  0 
    4.3332   -0.3206   -2.3235 N   0  0  0  0  0  0  0  0  0  0  0  0 
    3.4117   -2.2040   -2.3088 H   0  0  0  0  0  0  0  0  0  0  0  0 
    3.3148   -1.3654   -0.7401 H   0  0  0  0  0  0  0  0  0  0  0  0 
    4.8573   -2.0710   -1.2906 H   0  0  0  0  0  0  0  0  0  0  0  0 
    2.6079   -0.3514   -3.5089 H   0  0  0  0  0  0  0  0  0  0  0  0 
    3.4369    1.2078   -3.4652 H   0  0  0  0  0  0  0  0  0  0  0  0 
    2.4540    0.6903   -2.0706 H   0  0  0  0  0  0  0  0  0  0  0  0 
    7.1290    3.3877   -1.9532 H   0  0  0  0  0  0  0  0  0  0  0  0 
    6.1454    3.0085   -0.5483 H   0  0  0  0  0  0  0  0  0  0  0  0 
    8.5114    1.3030   -1.4972 H   0  0  0  0  0  0  0  0  0  0  0  0 
    7.6010    1.0662   -0.0097 H   0  0  0  0  0  0  0  0  0  0  0  0 
   13.0765    1.3816   -3.1407 H   0  0  0  0  0  0  0  0  0  0  0  0 
   13.7342    3.5086   -4.2230 H   0  0  0  0  0  0  0  0  0  0  0  0 
    6.4510    1.2196   -3.0355 H   0  0  0  0  0  0  0  0  0  0  0  0 
    5.1176    2.3209   -2.7195 H   0  0  0  0  0  0  0  0  0  0  0  0 
    9.6239    2.1652    0.6151 H   0  0  0  0  0  0  0  0  0  0  0  0 
    8.3338    3.3412    0.7942 H   0  0  0  0  0  0  0  0  0  0  0  0 
   11.1984    1.3035   -1.5284 H   0  0  0  0  0  0  0  0  0  0  0  0 
   12.5286    5.6221   -3.7162 H   0  0  0  0  0  0  0  0  0  0  0  0 
    4.5312    0.9926   -0.6482 H   0  0  0  0  0  0  0  0  0  0  0  0 
    5.8915   -0.0833   -0.9855 H   0  0  0  0  0  0  0  0  0  0  0  0 
    8.7164    5.7158   -0.4708 H   0  0  0  0  0  0  0  0  0  0  0  0 
   10.3961    6.6046   -2.1205 H   0  0  0  0  0  0  0  0  0  0  0  0 
  1 20  1  0  0  0  0 
  1 19  1  0  0  0  0 
  2 17  1  0  0  0  0 
  2 23  1  0  0  0  0 
  3  4  1  0  0  0  0 
  3 25  1  0  0  0  0 
  4 27  1  0  0  0  0 
  4  8  1  0  0  0  0 
  5  9  2  0  0  0  0 
  6 10  2  0  0  0  0 
  6  5  1  0  0  0  0 
  7 11  1  0  0  0  0 
  7  3  1  0  0  0  0 
  8 32  1  0  0  0  0 
  8 33  1  0  0  0  0 
  9 14  1  0  0  0  0 
  9 34  1  0  0  0  0 
 10 15  1  0  0  0  0 
 11 37  1  0  0  0  0 
 11 36  1  0  0  0  0 
 12 13  2  0  0  0  0 
 12 38  1  0  0  0  0 
 13  8  1  0  0  0  0 
 14 13  1  0  0  0  0 
 15 16  1  0  0  0  0 
 15 14  2  0  0  0  0 
 16 12  1  0  0  0  0 
 17  1  1  0  0  0  0 
 17 11  1  0  0  0  0 
 18  1  1  0  0  0  0 
 21  2  1  0  0  0  0 
 22  2  1  0  0  0  0 
 24  3  1  0  0  0  0 
 26  4  1  0  0  0  0 
 28  5  1  0  0  0  0 
 29  6  1  0  0  0  0 
 30  7  1  0  0  0  0 
 31  7  1  0  0  0  0 
 35 10  1  0  0  0  0 
 39 16  1  0  0  0  0 
M  END 
>  <HBA> 
1 
 
>  <HBD> 
1 
 
>  <TPSA> 
19.03 
 
>  <cid> 
52547 
 
>  <dipole> 
2.34 
 
>  <excitation_energy_1> 
4.536 
 
>  <excitation_energy_2> 
4.671 
 
>  <excitation_energy_3> 
4.815 
 
>  <excitation_energy_4> 
4.973 
 
>  <homo_energy> 
-5.282 
 
>  <homo_lumo_gap> 
5.219 
 
>  <logP> 
3.442 
 
>  <lumo_energy> 
-0.063 
 
>  <melting_point> 
98.41 
 
>  <molecular_refractivity> 
75.0 
 
>  <oscillator_strength_1> 
0.065 
 
>  <oscillator_strength_2> 
0.0014 
 
>  <oscillator_strength_3> 
0.0222 
 
>  <oscillator_strength_4> 
0.0003 
 
>  <open_babel_can_smiles> 
CN(CCCCCc1c[nH]c2c1cccc2)C 
 
>  <mulliken_charges> 
39 
1   -0.292248 
2   -0.299866 
3   -0.259236 
4   -0.254903 
5   -0.14027 
6   -0.151388 
7   -0.266035 
8   -0.347345 
9   -0.210158 
10   -0.163332 
11   -0.107755 
12   -0.006793 
13   0.082341 
14   0.077995 
15   0.313214 
16   -0.690992 
17   -0.367448 
18   0.145237 
19   0.113746 
20   0.147011 
21   0.146065 
22   0.153518 
23   0.112795 
24   0.14101 
25   0.120005 
26   0.139824 
27   0.129901 
28   0.118903 
29   0.121157 
30   0.143461 
31   0.129608 
32   0.140571 
33   0.132684 
34   0.124091 
35   0.118761 
36   0.100581 
37   0.136148 
38   0.144343 
39   0.324799 
 
>  <lowdin_charges> 
39 
1   -0.357653 
2   -0.362074 
3   -0.28104 
4   -0.279294 
5   -0.178069 
6   -0.164338 
7   -0.283232 
8   -0.271439 
9   -0.164753 
10   -0.188942 
11   -0.204001 
12   -0.143055 
13   -0.059443 
14   -0.034869 
15   0.03037 
16   -0.199092 
17   -0.183329 
18   0.14943 
19   0.118022 
20   0.148904 
21   0.150674 
22   0.151194 
23   0.118664 
24   0.14907 
25   0.13525 
26   0.144998 
27   0.140187 
28   0.154307 
29   0.154988 
30   0.148081 
31   0.142588 
32   0.151282 
33   0.147466 
34   0.1555 
35   0.154256 
36   0.112325 
37   0.144519 
38   0.163876 
39   0.288671 
 
$$$$ 
 
