PCCDB-ID:  16565 
public computational chemistry database (PCCDB) project, http://pccdb.org 
 
 13 13  0  0  1  0  0  0  0  0999 V2000 
    0.9257    0.0267   -0.1028 C   0  0  0  0  0  0  0  0  0  0  0  0 
    2.9709   -1.0975    1.1213 C   0  0  0  0  0  0  0  0  0  0  0  0 
    3.3814    0.0245    2.0936 C   0  0  0  0  0  0  0  0  0  0  0  0 
    2.3962    0.0543    0.2643 C   0  0  2  0  0  0  0  0  0  0  0  0 
    2.6881    1.0217    1.3103 O   0  0  0  0  0  0  0  0  0  0  0  0 
    0.7354   -0.7298   -0.8743 H   0  0  0  0  0  0  0  0  0  0  0  0 
    0.6114    1.0009   -0.4938 H   0  0  0  0  0  0  0  0  0  0  0  0 
    0.3118   -0.2046    0.7747 H   0  0  0  0  0  0  0  0  0  0  0  0 
    2.2087   -1.7781    1.5121 H   0  0  0  0  0  0  0  0  0  0  0  0 
    3.7812   -1.6793    0.6748 H   0  0  0  0  0  0  0  0  0  0  0  0 
    4.4617    0.2207    2.1398 H   0  0  0  0  0  0  0  0  0  0  0  0 
    2.9896   -0.0380    3.1164 H   0  0  0  0  0  0  0  0  0  0  0  0 
    3.0047    0.2679   -0.6276 H   0  0  0  0  0  0  0  0  0  0  0  0 
  1  4  1  0  0  0  0 
  1  8  1  0  0  0  0 
  2  9  1  0  0  0  0 
  2  3  1  0  0  0  0 
  3 11  1  0  0  0  0 
  3 12  1  0  0  0  0 
  4 13  1  6  0  0  0 
  4  2  1  0  0  0  0 
  4  5  1  0  0  0  0 
  5  3  1  0  0  0  0 
  6  1  1  0  0  0  0 
  7  1  1  0  0  0  0 
 10  2  1  0  0  0  0 
M  END 
>  <HBA> 
1 
 
>  <HBD> 
0 
 
>  <TPSA> 
9.23 
 
>  <cid> 
16565 
 
>  <dipole> 
1.84 
 
>  <excitation_energy_1> 
6.283 
 
>  <excitation_energy_2> 
6.508 
 
>  <excitation_energy_3> 
6.647 
 
>  <excitation_energy_4> 
6.846 
 
>  <homo_energy> 
-6.542 
 
>  <homo_lumo_gap> 
9.07 
 
>  <logP> 
0.795 
 
>  <lumo_energy> 
2.528 
 
>  <melting_point> 
-11.61 
 
>  <molecular_refractivity> 
20.31 
 
>  <oscillator_strength_1> 
0.0151 
 
>  <oscillator_strength_2> 
0.0112 
 
>  <oscillator_strength_3> 
0.0074 
 
>  <oscillator_strength_4> 
0.035 
 
>  <open_babel_can_smiles> 
C[C@@H]1CCO1 
 
>  <mulliken_charges> 
13 
1   -0.452586 
2   -0.360961 
3   -0.001973 
4   0.187457 
5   -0.509048 
6   0.141814 
7   0.159386 
8   0.147785 
9   0.148215 
10   0.148226 
11   0.132849 
12   0.13713 
13   0.121707 
 
>  <lowdin_charges> 
13 
1   -0.453432 
2   -0.311933 
3   -0.115834 
4   0.018667 
5   -0.311779 
6   0.154076 
7   0.16015 
8   0.15301 
9   0.152802 
10   0.152778 
11   0.132724 
12   0.137458 
13   0.131312 
 
$$$$ 
 
