PCCDB-ID:  36415 
public computational chemistry database (PCCDB) project, http://pccdb.org 
 
 27 28  0  0  0  0  0  0  0  0999 V2000 
    1.0238   -1.1443    0.5891 C   0  0  0  0  0  0  0  0  0  0  0  0 
    4.7703   -0.8947   -0.0623 C   0  0  0  0  0  0  0  0  0  0  0  0 
    4.9336    0.4449   -0.4129 C   0  0  0  0  0  0  0  0  0  0  0  0 
    3.4995   -1.3751    0.2487 C   0  0  0  0  0  0  0  0  0  0  0  0 
    3.8209    1.2810   -0.4515 C   0  0  0  0  0  0  0  0  0  0  0  0 
    1.4735    2.9945    0.4501 C   0  0  0  0  0  0  0  0  0  0  0  0 
    0.2480    1.4972   -0.9952 C   0  0  0  0  0  0  0  0  0  0  0  0 
    0.4434    3.9258    0.3758 C   0  0  0  0  0  0  0  0  0  0  0  0 
   -0.7914    2.4174   -1.0820 C   0  0  0  0  0  0  0  0  0  0  0  0 
    2.3649   -0.5539    0.2077 C   0  0  0  0  0  0  0  0  0  0  0  0 
    1.3964    1.7638   -0.2277 C   0  0  0  0  0  0  0  0  0  0  0  0 
   -0.6795    3.6226   -0.3911 C   0  0  0  0  0  0  0  0  0  0  0  0 
    2.5326    0.8029   -0.1565 C   0  0  0  0  0  0  0  0  0  0  0  0 
   -1.7719    4.6019   -0.4735 N   0  0  0  0  0  0  0  0  0  0  0  0 
   -1.6368    5.6619    0.1384 O   0  0  0  0  0  0  0  0  0  0  0  0 
   -2.7586    4.3068   -1.1490 O   0  0  0  0  0  0  0  0  0  0  0  0 
    1.1629   -2.0203    1.2305 H   0  0  0  0  0  0  0  0  0  0  0  0 
    0.4556   -1.4782   -0.2886 H   0  0  0  0  0  0  0  0  0  0  0  0 
    0.3949   -0.4277    1.1254 H   0  0  0  0  0  0  0  0  0  0  0  0 
    5.6272   -1.5616   -0.0225 H   0  0  0  0  0  0  0  0  0  0  0  0 
    5.9171    0.8372   -0.6558 H   0  0  0  0  0  0  0  0  0  0  0  0 
    3.3789   -2.4153    0.5426 H   0  0  0  0  0  0  0  0  0  0  0  0 
    3.9403    2.3229   -0.7366 H   0  0  0  0  0  0  0  0  0  0  0  0 
    2.3474    3.2126    1.0563 H   0  0  0  0  0  0  0  0  0  0  0  0 
    0.1780    0.5663   -1.5481 H   0  0  0  0  0  0  0  0  0  0  0  0 
    0.4925    4.8714    0.9013 H   0  0  0  0  0  0  0  0  0  0  0  0 
   -1.6752    2.2230   -1.6769 H   0  0  0  0  0  0  0  0  0  0  0  0 
  1 19  1  0  0  0  0 
  1 17  1  0  0  0  0 
  2 20  1  0  0  0  0 
  2  4  2  0  0  0  0 
  3  2  1  0  0  0  0 
  4 22  1  0  0  0  0 
  5  3  2  0  0  0  0 
  5 13  1  0  0  0  0 
  6 24  1  0  0  0  0 
  7 11  1  0  0  0  0 
  8  6  1  0  0  0  0 
  8 26  1  0  0  0  0 
  9  7  2  0  0  0  0 
  9 12  1  0  0  0  0 
 10  4  1  0  0  0  0 
 10  1  1  0  0  0  0 
 11 13  1  0  0  0  0 
 11  6  2  0  0  0  0 
 12  8  2  0  0  0  0 
 13 10  2  0  0  0  0 
 14 12  1  0  0  0  0 
 14 15  2  0  0  0  0 
 16 14  2  0  0  0  0 
 18  1  1  0  0  0  0 
 21  3  1  0  0  0  0 
 23  5  1  0  0  0  0 
 25  7  1  0  0  0  0 
 27  9  1  0  0  0  0 
M  END 
>  <HBA> 
0 
 
>  <HBD> 
0 
 
>  <TPSA> 
45.82 
 
>  <cid> 
36415 
 
>  <dipole> 
5.27 
 
>  <excitation_energy_1> 
3.637 
 
>  <excitation_energy_2> 
3.745 
 
>  <excitation_energy_3> 
3.878 
 
>  <excitation_energy_4> 
4.241 
 
>  <homo_energy> 
-6.68 
 
>  <homo_lumo_gap> 
4.27 
 
>  <logP> 
4.093 
 
>  <lumo_energy> 
-2.411 
 
>  <melting_point> 
85.22 
 
>  <molecular_refractivity> 
65.67 
 
>  <oscillator_strength_1> 
0.1751 
 
>  <oscillator_strength_2> 
0.0291 
 
>  <oscillator_strength_3> 
0.0677 
 
>  <oscillator_strength_4> 
0.0117 
 
>  <open_babel_can_smiles> 
Cc1ccccc1c1ccc(cc1)N(=O)=O 
 
>  <mulliken_charges> 
27 
1   -0.536393 
2   -0.117499 
3   -0.13648 
4   -0.18981 
5   -0.165155 
6   -0.179469 
7   -0.175064 
8   -0.153675 
9   -0.154078 
10   0.14862 
11   0.082413 
12   0.277634 
13   0.015986 
14   0.376808 
15   -0.396361 
16   -0.396987 
17   0.160612 
18   0.164602 
19   0.169827 
20   0.134709 
21   0.135258 
22   0.128564 
23   0.13769 
24   0.151951 
25   0.150018 
26   0.18348 
27   0.1828 
 
>  <lowdin_charges> 
27 
1   -0.447727 
2   -0.15073 
3   -0.158099 
4   -0.161297 
5   -0.15391 
6   -0.15482 
7   -0.151422 
8   -0.135894 
9   -0.137086 
10   0.001569 
11   0.020932 
12   -0.001587 
13   -0.020878 
14   0.308056 
15   -0.248467 
16   -0.249343 
17   0.160893 
18   0.160938 
19   0.166505 
20   0.161396 
21   0.160578 
22   0.155938 
23   0.160056 
24   0.170028 
25   0.168747 
26   0.187727 
27   0.187897 
 
$$$$ 
 
