PCCDB-ID:  11929 
public computational chemistry database (PCCDB) project, http://pccdb.org 
 
 21 21  0  0  0  0  0  0  0  0999 V2000 
    2.2782    0.5967    1.5207 C   0  0  0  0  0  0  0  0  0  0  0  0 
    1.4217   -0.5075    0.8944 C   0  0  0  0  0  0  0  0  0  0  0  0 
   -0.7479   -3.5396    4.4970 C   0  0  0  0  0  0  0  0  0  0  0  0 
   -0.7314   -2.1596    4.3034 C   0  0  0  0  0  0  0  0  0  0  0  0 
    0.0434   -4.3519    3.6807 C   0  0  0  0  0  0  0  0  0  0  0  0 
    0.0685   -1.5909    3.3113 C   0  0  0  0  0  0  0  0  0  0  0  0 
    0.8354   -3.8010    2.6778 C   0  0  0  0  0  0  0  0  0  0  0  0 
    0.8568   -2.4091    2.4908 C   0  0  0  0  0  0  0  0  0  0  0  0 
    2.7050   -2.5828    1.0326 N   0  0  0  0  0  0  0  0  0  0  0  0 
    1.6691   -1.8344    1.4754 N   0  0  0  0  0  0  0  0  0  0  0  0 
    3.3766   -2.0585    0.1503 O   0  0  0  0  0  0  0  0  0  0  0  0 
    2.0577    1.5552    1.0381 H   0  0  0  0  0  0  0  0  0  0  0  0 
    3.3394    0.3767    1.3793 H   0  0  0  0  0  0  0  0  0  0  0  0 
    2.0858    0.6999    2.5937 H   0  0  0  0  0  0  0  0  0  0  0  0 
    1.6565   -0.5987   -0.1693 H   0  0  0  0  0  0  0  0  0  0  0  0 
    0.3540   -0.3020    0.9965 H   0  0  0  0  0  0  0  0  0  0  0  0 
   -1.3704   -3.9786    5.2711 H   0  0  0  0  0  0  0  0  0  0  0  0 
   -1.3368   -1.5113    4.9310 H   0  0  0  0  0  0  0  0  0  0  0  0 
    0.0361   -5.4302    3.8147 H   0  0  0  0  0  0  0  0  0  0  0  0 
    0.0852   -0.5132    3.1940 H   0  0  0  0  0  0  0  0  0  0  0  0 
    1.4377   -4.4339    2.0384 H   0  0  0  0  0  0  0  0  0  0  0  0 
  1 14  1  0  0  0  0 
  2 16  1  0  0  0  0 
  2 10  1  0  0  0  0 
  2  1  1  0  0  0  0 
  3 17  1  0  0  0  0 
  4  3  1  0  0  0  0 
  4 18  1  0  0  0  0 
  5 19  1  0  0  0  0 
  5  3  2  0  0  0  0 
  6  4  2  0  0  0  0 
  7  5  1  0  0  0  0 
  8  7  2  0  0  0  0 
  8  6  1  0  0  0  0 
  9 10  1  0  0  0  0 
 10  8  1  0  0  0  0 
 11  9  1  0  0  0  0 
 12  1  1  0  0  0  0 
 13  1  1  0  0  0  0 
 15  2  1  0  0  0  0 
 20  6  1  0  0  0  0 
 21  7  1  0  0  0  0 
M  RAD  2   9   2  11   2 
M  END 
>  <HBA> 
3 
 
>  <HBD> 
0 
 
>  <TPSA> 
32.67 
 
>  <cid> 
11929 
 
>  <dipole> 
3.48 
 
>  <excitation_energy_1> 
3.113 
 
>  <excitation_energy_2> 
4.407 
 
>  <excitation_energy_3> 
4.722 
 
>  <excitation_energy_4> 
5.173 
 
>  <homo_energy> 
-6.196 
 
>  <homo_lumo_gap> 
4.803 
 
>  <logP> 
2.194 
 
>  <lumo_energy> 
-1.393 
 
>  <melting_point> 
31.71 
 
>  <molecular_refractivity> 
45.39 
 
>  <oscillator_strength_1> 
0.0015 
 
>  <oscillator_strength_2> 
0.2168 
 
>  <oscillator_strength_3> 
0.0007 
 
>  <oscillator_strength_4> 
0.0037 
 
>  <open_babel_can_smiles> 
CCN(c1ccccc1)[N][O] 
 
>  <mulliken_charges> 
21 
1   -0.453026 
2   -0.156839 
3   -0.123005 
4   -0.139053 
5   -0.141308 
6   -0.175597 
7   -0.151806 
8   0.338376 
9   0.165243 
10   -0.349392 
11   -0.373382 
12   0.155049 
13   0.18308 
14   0.156151 
15   0.189038 
16   0.162466 
17   0.133721 
18   0.135923 
19   0.138644 
20   0.14053 
21   0.165185 
 
>  <lowdin_charges> 
21 
1   -0.447071 
2   -0.209226 
3   -0.163539 
4   -0.149454 
5   -0.143361 
6   -0.184673 
7   -0.169833 
8   0.047254 
9   0.060292 
10   -0.017966 
11   -0.255461 
12   0.159025 
13   0.167469 
14   0.151197 
15   0.171862 
16   0.158026 
17   0.161688 
18   0.162648 
19   0.160569 
20   0.162151 
21   0.178403 
 
$$$$ 
 
