PCCDB-ID:  15678 
public computational chemistry database (PCCDB) project, http://pccdb.org 
 
 23 22  0  0  1  0  0  0  0  0999 V2000 
    2.9620    1.2751   -2.0104 C   0  0  0  0  0  0  0  0  0  0  0  0 
    2.4731    0.5977   -3.3088 C   0  0  0  0  0  0  0  0  0  0  0  0 
    2.8892    1.1239    3.1502 C   0  0  0  0  0  0  0  0  0  0  0  0 
    2.5418    0.5201   -0.7439 C   0  0  0  0  0  0  0  0  0  0  0  0 
    2.4978    0.4561    1.8150 C   0  0  0  0  0  0  0  0  0  0  0  0 
    1.0115    0.4917   -3.3803 C   0  0  0  0  0  0  0  0  0  0  0  0 
    2.3591    2.4864    3.2692 C   0  0  0  0  0  0  0  0  0  0  0  0 
    4.5134    1.2228    0.5955 C   0  0  0  0  0  0  0  0  0  0  0  0 
    3.0419    1.1820    0.5619 C   0  0  1  0  0  0  0  0  0  0  0  0 
   -0.1466    0.4141   -3.4053 N   0  0  0  0  0  0  0  0  0  0  0  0 
    1.9283    3.5629    3.3251 N   0  0  0  0  0  0  0  0  0  0  0  0 
    5.6742    1.2283    0.6293 N   0  0  0  0  0  0  0  0  0  0  0  0 
    2.5782    2.3021   -1.9755 H   0  0  0  0  0  0  0  0  0  0  0  0 
    4.0547    1.3427   -2.0630 H   0  0  0  0  0  0  0  0  0  0  0  0 
    2.8972   -0.4109   -3.3954 H   0  0  0  0  0  0  0  0  0  0  0  0 
    2.8236    1.1630   -4.1803 H   0  0  0  0  0  0  0  0  0  0  0  0 
    3.9805    1.1610    3.2541 H   0  0  0  0  0  0  0  0  0  0  0  0 
    2.5086    0.5260    3.9864 H   0  0  0  0  0  0  0  0  0  0  0  0 
    2.9104   -0.5135   -0.7846 H   0  0  0  0  0  0  0  0  0  0  0  0 
    1.4477    0.4675   -0.6923 H   0  0  0  0  0  0  0  0  0  0  0  0 
    1.4063    0.4137    1.7347 H   0  0  0  0  0  0  0  0  0  0  0  0 
    2.8661   -0.5757    1.8274 H   0  0  0  0  0  0  0  0  0  0  0  0 
    2.6874    2.2222    0.5851 H   0  0  0  0  0  0  0  0  0  0  0  0 
  1 13  1  0  0  0  0 
  1  4  1  0  0  0  0 
  2  1  1  0  0  0  0 
  3 17  1  0  0  0  0 
  3  7  1  0  0  0  0 
  3 18  1  0  0  0  0 
  4 20  1  0  0  0  0 
  4  9  1  0  0  0  0 
  5 22  1  0  0  0  0 
  5  3  1  0  0  0  0 
  6  2  1  0  0  0  0 
  7 11  3  0  0  0  0 
  8 12  3  0  0  0  0 
  9 23  1  1  0  0  0 
  9  8  1  0  0  0  0 
  9  5  1  0  0  0  0 
 10  6  3  0  0  0  0 
 14  1  1  0  0  0  0 
 15  2  1  0  0  0  0 
 16  2  1  0  0  0  0 
 19  4  1  0  0  0  0 
 21  5  1  0  0  0  0 
M  END 
>  <HBA> 
3 
 
>  <HBD> 
0 
 
>  <TPSA> 
71.37 
 
>  <cid> 
15678 
 
>  <dipole> 
3.54 
 
>  <excitation_energy_1> 
7.513 
 
>  <excitation_energy_2> 
7.514 
 
>  <excitation_energy_3> 
7.536 
 
>  <excitation_energy_4> 
7.704 
 
>  <homo_energy> 
-8.993 
 
>  <homo_lumo_gap> 
9.23 
 
>  <logP> 
2.124 
 
>  <lumo_energy> 
0.237 
 
>  <melting_point> 
73.15 
 
>  <molecular_refractivity> 
44.62 
 
>  <oscillator_strength_1> 
0.0002 
 
>  <oscillator_strength_2> 
0.0003 
 
>  <oscillator_strength_3> 
0.0009 
 
>  <oscillator_strength_4> 
0.0234 
 
>  <open_babel_can_smiles> 
N#CCCC[C@@H](CCC#N)C#N 
 
>  <mulliken_charges> 
23 
1   -0.279158 
2   -0.350388 
3   -0.359866 
4   -0.272139 
5   -0.27177 
6   0.354345 
7   0.354446 
8   0.355361 
9   -0.179579 
10   -0.467502 
11   -0.462774 
12   -0.475875 
13   0.166147 
14   0.17814 
15   0.197411 
16   0.202615 
17   0.219117 
18   0.204236 
19   0.154694 
20   0.17774 
21   0.177116 
22   0.170729 
23   0.206956 
 
>  <lowdin_charges> 
23 
1   -0.266006 
2   -0.271736 
3   -0.27591 
4   -0.2661 
5   -0.254356 
6   -0.02205 
7   -0.021551 
8   -0.02424 
9   -0.127242 
10   -0.124698 
11   -0.119512 
12   -0.123872 
13   0.157636 
14   0.163296 
15   0.18138 
16   0.18827 
17   0.190848 
18   0.19013 
19   0.152496 
20   0.163051 
21   0.164138 
22   0.162674 
23   0.183352 
 
$$$$ 
 
