PCCDB-ID:  11507 
public computational chemistry database (PCCDB) project, http://pccdb.org 
 
 23 22  0  0  1  0  0  0  0  0999 V2000 
    0.8317   -0.1180   -0.2867 C   0  0  0  0  0  0  0  0  0  0  0  0 
    4.8651   -1.5937   -3.6398 C   0  0  0  0  0  0  0  0  0  0  0  0 
    5.1880   -1.4199    0.2616 C   0  0  0  0  0  0  0  0  0  0  0  0 
    2.3605   -0.0856   -0.1833 C   0  0  0  0  0  0  0  0  0  0  0  0 
    5.1720   -2.0010   -2.1935 C   0  0  0  0  0  0  0  0  0  0  0  0 
    3.0385   -1.1301   -1.0825 C   0  0  0  0  0  0  0  0  0  0  0  0 
    4.5801   -1.0762   -1.1078 C   0  0  1  0  0  0  0  0  0  0  0  0 
    0.3698    0.6325    0.3652 H   0  0  0  0  0  0  0  0  0  0  0  0 
    0.4356   -1.0992    0.0030 H   0  0  0  0  0  0  0  0  0  0  0  0 
    0.4990    0.0815   -1.3129 H   0  0  0  0  0  0  0  0  0  0  0  0 
    5.3709   -2.2604   -4.3477 H   0  0  0  0  0  0  0  0  0  0  0  0 
    5.2102   -0.5720   -3.8429 H   0  0  0  0  0  0  0  0  0  0  0  0 
    3.7938   -1.6323   -3.8649 H   0  0  0  0  0  0  0  0  0  0  0  0 
    6.2821   -1.3530    0.2332 H   0  0  0  0  0  0  0  0  0  0  0  0 
    4.9267   -2.4445    0.5590 H   0  0  0  0  0  0  0  0  0  0  0  0 
    4.8374   -0.7458    1.0501 H   0  0  0  0  0  0  0  0  0  0  0  0 
    2.6519   -0.2407    0.8634 H   0  0  0  0  0  0  0  0  0  0  0  0 
    2.7235    0.9157   -0.4566 H   0  0  0  0  0  0  0  0  0  0  0  0 
    6.2629   -2.0299   -2.0647 H   0  0  0  0  0  0  0  0  0  0  0  0 
    4.8209   -3.0289   -2.0174 H   0  0  0  0  0  0  0  0  0  0  0  0 
    2.6548   -0.9981   -2.1031 H   0  0  0  0  0  0  0  0  0  0  0  0 
    2.7238   -2.1379   -0.7689 H   0  0  0  0  0  0  0  0  0  0  0  0 
    4.8753   -0.0436   -1.3573 H   0  0  0  0  0  0  0  0  0  0  0  0 
  1  4  1  0  0  0  0 
  1  9  1  0  0  0  0 
  1  8  1  0  0  0  0 
  2  5  1  0  0  0  0 
  3 15  1  0  0  0  0 
  3 16  1  0  0  0  0 
  4 17  1  0  0  0  0 
  5 19  1  0  0  0  0 
  5 20  1  0  0  0  0 
  5  7  1  0  0  0  0 
  6 22  1  0  0  0  0 
  6  4  1  0  0  0  0 
  7 23  1  6  0  0  0 
  7  6  1  0  0  0  0 
  7  3  1  0  0  0  0 
 10  1  1  0  0  0  0 
 11  2  1  0  0  0  0 
 12  2  1  0  0  0  0 
 13  2  1  0  0  0  0 
 14  3  1  0  0  0  0 
 18  4  1  0  0  0  0 
 21  6  1  0  0  0  0 
M  END 
>  <HBA> 
0 
 
>  <HBD> 
0 
 
>  <TPSA> 
0.0 
 
>  <cid> 
11507 
 
>  <dipole> 
0.05 
 
>  <excitation_energy_1> 
7.732 
 
>  <excitation_energy_2> 
7.875 
 
>  <excitation_energy_3> 
8.061 
 
>  <excitation_energy_4> 
8.109 
 
>  <homo_energy> 
-8.134 
 
>  <homo_lumo_gap> 
10.566 
 
>  <logP> 
2.833 
 
>  <lumo_energy> 
2.433 
 
>  <melting_point> 
-27.23 
 
>  <molecular_refractivity> 
35.76 
 
>  <oscillator_strength_1> 
0.0179 
 
>  <oscillator_strength_2> 
0.0109 
 
>  <oscillator_strength_3> 
0.0109 
 
>  <oscillator_strength_4> 
0.0014 
 
>  <open_babel_can_smiles> 
CCC[C@H](CC)C 
 
>  <mulliken_charges> 
23 
1   -0.442026 
2   -0.44921 
3   -0.451023 
4   -0.252908 
5   -0.246044 
6   -0.248258 
7   -0.06326 
8   0.140682 
9   0.141114 
10   0.140628 
11   0.141517 
12   0.14059 
13   0.146408 
14   0.138508 
15   0.137259 
16   0.144106 
17   0.1347 
18   0.129172 
19   0.127146 
20   0.126186 
21   0.128989 
22   0.121799 
23   0.113924 
 
>  <lowdin_charges> 
23 
1   -0.444382 
2   -0.44645 
3   -0.444736 
4   -0.271869 
5   -0.270126 
6   -0.276294 
7   -0.122434 
8   0.149792 
9   0.145829 
10   0.144621 
11   0.151168 
12   0.144949 
13   0.145274 
14   0.145085 
15   0.143883 
16   0.149394 
17   0.138747 
18   0.137649 
19   0.13796 
20   0.136709 
21   0.139313 
22   0.135132 
23   0.130786 
 
$$$$ 
 
