PCCDB-ID:  70318 
public computational chemistry database (PCCDB) project, http://pccdb.org 
 
 19 20  0  0  0  0  0  0  0  0999 V2000 
   -1.4243   -0.1519    0.0841 C   0  0  0  0  0  0  0  0  0  0  0  0 
   -0.8709    1.1242    0.2074 C   0  0  0  0  0  0  0  0  0  0  0  0 
   -0.5907   -1.2489   -0.1474 C   0  0  0  0  0  0  0  0  0  0  0  0 
    0.5055    1.3082    0.1002 C   0  0  0  0  0  0  0  0  0  0  0  0 
    0.7859   -1.0716   -0.2542 C   0  0  0  0  0  0  0  0  0  0  0  0 
    3.8409   -0.4572   -0.4755 C   0  0  0  0  0  0  0  0  0  0  0  0 
    1.3498    0.2094   -0.1324 C   0  0  0  0  0  0  0  0  0  0  0  0 
    2.7950    0.3960   -0.2458 C   0  0  0  0  0  0  0  0  0  0  0  0 
    4.9784    0.3991   -0.4593 C   0  0  0  0  0  0  0  0  0  0  0  0 
    4.6694    1.6592   -0.2427 N   0  0  0  0  0  0  0  0  0  0  0  0 
    6.2788    0.0744   -0.6329 O   0  0  0  0  0  0  0  0  0  0  0  0 
    3.2730    1.6530   -0.1064 O   0  0  0  0  0  0  0  0  0  0  0  0 
   -2.4984   -0.2918    0.1681 H   0  0  0  0  0  0  0  0  0  0  0  0 
   -1.5135    1.9816    0.3873 H   0  0  0  0  0  0  0  0  0  0  0  0 
   -1.0135   -2.2450   -0.2438 H   0  0  0  0  0  0  0  0  0  0  0  0 
    0.9357    2.2993    0.1961 H   0  0  0  0  0  0  0  0  0  0  0  0 
    1.4263   -1.9304   -0.4339 H   0  0  0  0  0  0  0  0  0  0  0  0 
    3.8148   -1.5258   -0.6293 H   0  0  0  0  0  0  0  0  0  0  0  0 
    6.3425   -0.8790   -0.7892 H   0  0  0  0  0  0  0  0  0  0  0  0 
  1 13  1  0  0  0  0 
  1  2  2  0  0  0  0 
  2 14  1  0  0  0  0 
  3  1  1  0  0  0  0 
  4 16  1  0  0  0  0 
  4  2  1  0  0  0  0 
  5  3  2  0  0  0  0 
  5  7  1  0  0  0  0 
  6  9  1  0  0  0  0 
  6  8  2  0  0  0  0 
  7  4  2  0  0  0  0 
  8  7  1  0  0  0  0 
  8 12  1  0  0  0  0 
  9 10  2  0  0  0  0 
 10 12  1  0  0  0  0 
 11  9  1  0  0  0  0 
 15  3  1  0  0  0  0 
 17  5  1  0  0  0  0 
 18  6  1  0  0  0  0 
 19 11  1  0  0  0  0 
M  END 
>  <HBA> 
2 
 
>  <HBD> 
1 
 
>  <TPSA> 
46.0 
 
>  <cid> 
70318 
 
>  <dipole> 
4.8 
 
>  <excitation_energy_1> 
4.595 
 
>  <excitation_energy_2> 
4.773 
 
>  <excitation_energy_3> 
5.205 
 
>  <excitation_energy_4> 
5.347 
 
>  <homo_energy> 
-6.28 
 
>  <homo_lumo_gap> 
4.944 
 
>  <logP> 
1.635 
 
>  <lumo_energy> 
-1.336 
 
>  <melting_point> 
122.53 
 
>  <molecular_refractivity> 
44.76 
 
>  <oscillator_strength_1> 
0.4583 
 
>  <oscillator_strength_2> 
0.0148 
 
>  <oscillator_strength_3> 
0.0502 
 
>  <oscillator_strength_4> 
0.0015 
 
>  <open_babel_can_smiles> 
Oc1noc(c1)c1ccccc1 
 
>  <mulliken_charges> 
19 
1   -0.121171 
2   -0.133498 
3   -0.137554 
4   -0.165687 
5   -0.16743 
6   -0.321435 
7   0.088066 
8   0.39542 
9   0.50751 
10   -0.209817 
11   -0.612719 
12   -0.403347 
13   0.137528 
14   0.140318 
15   0.137066 
16   0.166027 
17   0.132732 
18   0.148197 
19   0.419794 
 
>  <lowdin_charges> 
19 
1   -0.145606 
2   -0.150804 
3   -0.151848 
4   -0.144472 
5   -0.151158 
6   -0.280011 
7   -0.015181 
8   0.105076 
9   0.100822 
10   -0.102228 
11   -0.347677 
12   -0.076326 
13   0.160098 
14   0.163933 
15   0.161097 
16   0.175348 
17   0.160244 
18   0.171636 
19   0.367057 
 
$$$$ 
 
