PCCDB-ID:  54560 
public computational chemistry database (PCCDB) project, http://pccdb.org 
 
 21 21  0  0  0  0  0  0  0  0999 V2000 
    3.1090   -1.1983    2.8130 C   0  0  0  0  0  0  0  0  0  0  0  0 
    6.3897    4.0523    5.5059 C   0  0  0  0  0  0  0  0  0  0  0  0 
    5.5434    4.8725    4.5064 C   0  0  0  0  0  0  0  0  0  0  0  0 
    5.6640    2.7224    5.6821 C   0  0  0  0  0  0  0  0  0  0  0  0 
    4.3547    3.9915    4.1364 C   0  0  0  0  0  0  0  0  0  0  0  0 
    3.9149    0.9098    3.8443 C   0  0  0  0  0  0  0  0  0  0  0  0 
    1.9410   -0.1218    4.7118 N   0  0  0  0  0  0  0  0  0  0  0  0 
    2.9852   -0.1252    3.7998 N   0  0  0  0  0  0  0  0  0  0  0  0 
    4.4977    2.8364    4.9154 N   0  0  0  0  0  0  0  0  0  0  0  0 
    5.9783    1.7539    6.3274 O   0  0  0  0  0  0  0  0  0  0  0  0 
    3.4605    4.1948    3.3539 O   0  0  0  0  0  0  0  0  0  0  0  0 
    4.8669    1.0106    3.1177 O   0  0  0  0  0  0  0  0  0  0  0  0 
    1.2023   -1.0701    4.5733 O   0  0  0  0  0  0  0  0  0  0  0  0 
    3.5847    1.8086    4.8450 O   0  0  0  0  0  0  0  0  0  0  0  0 
    3.9921   -0.9949    2.2117 H   0  0  0  0  0  0  0  0  0  0  0  0 
    2.2127   -1.2229    2.1883 H   0  0  0  0  0  0  0  0  0  0  0  0 
    3.2050   -2.1572    3.3284 H   0  0  0  0  0  0  0  0  0  0  0  0 
    6.4854    4.5321    6.4846 H   0  0  0  0  0  0  0  0  0  0  0  0 
    7.4016    3.8474    5.1447 H   0  0  0  0  0  0  0  0  0  0  0  0 
    6.0847    5.1227    3.5894 H   0  0  0  0  0  0  0  0  0  0  0  0 
    5.1682    5.8102    4.9276 H   0  0  0  0  0  0  0  0  0  0  0  0 
  1 17  1  0  0  0  0 
  1  8  1  0  0  0  0 
  2  4  1  0  0  0  0 
  2 18  1  0  0  0  0 
  3 21  1  0  0  0  0 
  3  2  1  0  0  0  0 
  4 10  2  0  0  0  0 
  5  3  1  0  0  0  0 
  5  9  1  0  0  0  0 
  6 14  1  0  0  0  0 
  8  6  1  0  0  0  0 
  8  7  1  0  0  0  0 
  9  4  1  0  0  0  0 
 11  5  2  0  0  0  0 
 12  6  2  0  0  0  0 
 13  7  1  0  0  0  0 
 14  9  1  0  0  0  0 
 15  1  1  0  0  0  0 
 16  1  1  0  0  0  0 
 19  2  1  0  0  0  0 
 20  3  1  0  0  0  0 
M  RAD  2   7   2  13   2 
M  END 
>  <HBA> 
8 
 
>  <HBD> 
0 
 
>  <TPSA> 
96.35 
 
>  <cid> 
54560 
 
>  <dipole> 
3.07 
 
>  <excitation_energy_1> 
2.982 
 
>  <excitation_energy_2> 
4.487 
 
>  <excitation_energy_3> 
4.979 
 
>  <excitation_energy_4> 
5.003 
 
>  <homo_energy> 
-7.165 
 
>  <homo_lumo_gap> 
4.822 
 
>  <logP> 
-0.262 
 
>  <lumo_energy> 
-2.343 
 
>  <melting_point> 
88.24 
 
>  <molecular_refractivity> 
45.36 
 
>  <oscillator_strength_1> 
0.001 
 
>  <oscillator_strength_2> 
0.0039 
 
>  <oscillator_strength_3> 
0.0 
 
>  <oscillator_strength_4> 
0.0012 
 
>  <open_babel_can_smiles> 
[O][N]N(C(=O)ON1C(=O)CCC1=O)C 
 
>  <mulliken_charges> 
21 
1   -0.329418 
2   -0.394188 
3   -0.39438 
4   0.617592 
5   0.617332 
6   0.883122 
7   0.217103 
8   -0.35851 
9   -0.229474 
10   -0.450078 
11   -0.449632 
12   -0.459128 
13   -0.304689 
14   -0.377478 
15   0.211807 
16   0.195927 
17   0.195908 
18   0.200566 
19   0.203535 
20   0.203548 
21   0.200535 
 
>  <lowdin_charges> 
21 
1   -0.363058 
2   -0.301033 
3   -0.302113 
4   0.170798 
5   0.169724 
6   0.231711 
7   0.100313 
8   -0.040503 
9   0.022402 
10   -0.230706 
11   -0.230043 
12   -0.237317 
13   -0.183521 
14   -0.091327 
15   0.19214 
16   0.176992 
17   0.176618 
18   0.183647 
19   0.185059 
20   0.186022 
21   0.184196 
 
$$$$ 
 
