PCCDB-ID:  7350 
public computational chemistry database (PCCDB) project, http://pccdb.org 
 
 30 29  0  0  1  0  0  0  0  0999 V2000 
    0.5829    1.2081   -0.3847 C   0  0  0  0  0  0  0  0  0  0  0  0 
    5.4752    0.2667    1.8731 C   0  0  0  0  0  0  0  0  0  0  0  0 
    4.7813   -1.4116    3.4340 C   0  0  0  0  0  0  0  0  0  0  0  0 
    1.1772    3.0212    1.9969 C   0  0  0  0  0  0  0  0  0  0  0  0 
   -0.7088    1.6086    2.4658 C   0  0  0  0  0  0  0  0  0  0  0  0 
    2.5734    0.4454    0.9888 C   0  0  0  0  0  0  0  0  0  0  0  0 
    3.1095   -0.0788    2.3260 C   0  0  0  0  0  0  0  0  0  0  0  0 
    1.0637    0.7493    1.0075 C   0  0  1  0  0  0  0  0  0  0  0  0 
    4.4356   -0.6954    2.2138 N   0  0  0  0  0  0  0  0  0  0  0  0 
    0.7036    1.6497    2.1205 N   0  0  0  0  0  0  0  0  0  0  0  0 
    0.7699    0.4263   -1.1298 H   0  0  0  0  0  0  0  0  0  0  0  0 
    1.1073    2.1118   -0.7164 H   0  0  0  0  0  0  0  0  0  0  0  0 
   -0.4920    1.4208   -0.3909 H   0  0  0  0  0  0  0  0  0  0  0  0 
    6.4390   -0.2487    1.7972 H   0  0  0  0  0  0  0  0  0  0  0  0 
    5.5805    1.0771    2.6236 H   0  0  0  0  0  0  0  0  0  0  0  0 
    5.2690    0.7275    0.9028 H   0  0  0  0  0  0  0  0  0  0  0  0 
    5.7456   -1.9159    3.3049 H   0  0  0  0  0  0  0  0  0  0  0  0 
    4.0237   -2.1749    3.6427 H   0  0  0  0  0  0  0  0  0  0  0  0 
    4.8577   -0.7544    4.3240 H   0  0  0  0  0  0  0  0  0  0  0  0 
    1.0052    3.5427    2.9456 H   0  0  0  0  0  0  0  0  0  0  0  0 
    0.6744    3.6038    1.2019 H   0  0  0  0  0  0  0  0  0  0  0  0 
    2.2536    3.0397    1.8011 H   0  0  0  0  0  0  0  0  0  0  0  0 
   -0.8680    2.1458    3.4085 H   0  0  0  0  0  0  0  0  0  0  0  0 
   -1.0245    0.5698    2.6132 H   0  0  0  0  0  0  0  0  0  0  0  0 
   -1.3772    2.0644    1.7095 H   0  0  0  0  0  0  0  0  0  0  0  0 
    2.7599   -0.3150    0.2198 H   0  0  0  0  0  0  0  0  0  0  0  0 
    3.1251    1.3399    0.6715 H   0  0  0  0  0  0  0  0  0  0  0  0 
    2.4227   -0.8521    2.6936 H   0  0  0  0  0  0  0  0  0  0  0  0 
    3.0963    0.7290    3.0819 H   0  0  0  0  0  0  0  0  0  0  0  0 
    0.5540   -0.1975    1.2370 H   0  0  0  0  0  0  0  0  0  0  0  0 
  1  8  1  0  0  0  0 
  2  9  1  0  0  0  0 
  2 15  1  0  0  0  0 
  3 18  1  0  0  0  0 
  3 19  1  0  0  0  0 
  4 10  1  0  0  0  0 
  4 20  1  0  0  0  0 
  5 24  1  0  0  0  0 
  5 23  1  0  0  0  0 
  6  8  1  0  0  0  0 
  6  7  1  0  0  0  0 
  7 28  1  0  0  0  0 
  7 29  1  0  0  0  0 
  8 30  1  1  0  0  0 
  8 10  1  0  0  0  0 
  9  7  1  0  0  0  0 
  9  3  1  0  0  0  0 
 10  5  1  0  0  0  0 
 11  1  1  0  0  0  0 
 12  1  1  0  0  0  0 
 13  1  1  0  0  0  0 
 14  2  1  0  0  0  0 
 16  2  1  0  0  0  0 
 17  3  1  0  0  0  0 
 21  4  1  0  0  0  0 
 22  4  1  0  0  0  0 
 25  5  1  0  0  0  0 
 26  6  1  0  0  0  0 
 27  6  1  0  0  0  0 
M  END 
>  <HBA> 
2 
 
>  <HBD> 
0 
 
>  <TPSA> 
6.48 
 
>  <cid> 
7350 
 
>  <dipole> 
0.73 
 
>  <excitation_energy_1> 
4.908 
 
>  <excitation_energy_2> 
5.205 
 
>  <excitation_energy_3> 
5.308 
 
>  <excitation_energy_4> 
5.397 
 
>  <homo_energy> 
-5.342 
 
>  <homo_lumo_gap> 
7.451 
 
>  <logP> 
0.888 
 
>  <lumo_energy> 
2.109 
 
>  <melting_point> 
-22.62 
 
>  <molecular_refractivity> 
46.36 
 
>  <oscillator_strength_1> 
0.0038 
 
>  <oscillator_strength_2> 
0.0193 
 
>  <oscillator_strength_3> 
0.0014 
 
>  <oscillator_strength_4> 
0.0194 
 
>  <open_babel_can_smiles> 
CN(CC[C@@H](N(C)C)C)C 
 
>  <mulliken_charges> 
30 
1   -0.459209 
2   -0.298658 
3   -0.290135 
4   -0.303242 
5   -0.29434 
6   -0.281205 
7   -0.100772 
8   0.044265 
9   -0.371622 
10   -0.367908 
11   0.143625 
12   0.143936 
13   0.145521 
14   0.14506 
15   0.112363 
16   0.151201 
17   0.143771 
18   0.145967 
19   0.114347 
20   0.146801 
21   0.121046 
22   0.149748 
23   0.145986 
24   0.145419 
25   0.118173 
26   0.144185 
27   0.130618 
28   0.128762 
29   0.123028 
30   0.123266 
 
>  <lowdin_charges> 
30 
1   -0.462241 
2   -0.359156 
3   -0.356438 
4   -0.359195 
5   -0.356089 
6   -0.289767 
7   -0.200062 
8   -0.057993 
9   -0.1861 
10   -0.186128 
11   0.153536 
12   0.14882 
13   0.148522 
14   0.148518 
15   0.117734 
16   0.149294 
17   0.146893 
18   0.148741 
19   0.118523 
20   0.149637 
21   0.122883 
22   0.147923 
23   0.148088 
24   0.147147 
25   0.120209 
26   0.152382 
27   0.138742 
28   0.143416 
29   0.12438 
30   0.13778 
 
$$$$ 
 
