PCCDB-ID:  54347 
public computational chemistry database (PCCDB) project, http://pccdb.org 
 
 32 32  0  0  1  0  0  0  0  0999 V2000 
    8.9606   -0.1727    0.8178 C   0  0  0  0  0  0  0  0  0  0  0  0 
    8.7372    1.1218    0.0501 C   0  0  0  0  0  0  0  0  0  0  0  0 
    6.5126    6.7133   -1.5968 C   0  0  0  0  0  0  0  0  0  0  0  0 
    5.5886    6.4796   -0.5764 C   0  0  0  0  0  0  0  0  0  0  0  0 
    6.9267    5.6533   -2.4035 C   0  0  0  0  0  0  0  0  0  0  0  0 
    5.0833    5.1965   -0.3671 C   0  0  0  0  0  0  0  0  0  0  0  0 
    6.4176    4.3711   -2.1899 C   0  0  0  0  0  0  0  0  0  0  0  0 
    5.1868    2.1622    0.4472 C   0  0  0  0  0  0  0  0  0  0  0  0 
    3.4168    2.6788   -1.2965 C   0  0  0  0  0  0  0  0  0  0  0  0 
    5.4888    4.1208   -1.1715 C   0  0  0  0  0  0  0  0  0  0  0  0 
    4.9262    2.7216   -0.9685 C   0  0  1  0  0  0  0  0  0  0  0  0 
    6.6474    1.9873    0.8056 C   0  0  0  0  0  0  0  0  0  0  0  0 
    2.9094    1.3031   -1.2501 N   0  0  0  0  0  0  0  0  0  0  0  0 
    7.1526    2.3340    1.8519 O   0  0  0  0  0  0  0  0  0  0  0  0 
    7.3298    1.3594   -0.1855 O   0  0  0  0  0  0  0  0  0  0  0  0 
   10.0349   -0.3675    0.9166 H   0  0  0  0  0  0  0  0  0  0  0  0 
    8.5040   -1.0199    0.2953 H   0  0  0  0  0  0  0  0  0  0  0  0 
    8.5308   -0.1021    1.8209 H   0  0  0  0  0  0  0  0  0  0  0  0 
    9.1757    1.0741   -0.9502 H   0  0  0  0  0  0  0  0  0  0  0  0 
    9.1530    1.9769    0.5884 H   0  0  0  0  0  0  0  0  0  0  0  0 
    6.9081    7.7126   -1.7586 H   0  0  0  0  0  0  0  0  0  0  0  0 
    5.2620    7.2975    0.0606 H   0  0  0  0  0  0  0  0  0  0  0  0 
    7.6485    5.8218   -3.1987 H   0  0  0  0  0  0  0  0  0  0  0  0 
    4.3690    5.0330    0.4363 H   0  0  0  0  0  0  0  0  0  0  0  0 
    6.7490    3.5482   -2.8193 H   0  0  0  0  0  0  0  0  0  0  0  0 
    4.6920    1.1854    0.5147 H   0  0  0  0  0  0  0  0  0  0  0  0 
    4.7476    2.8049    1.2156 H   0  0  0  0  0  0  0  0  0  0  0  0 
    3.2610    3.1829   -2.2657 H   0  0  0  0  0  0  0  0  0  0  0  0 
    2.8657    3.2623   -0.5484 H   0  0  0  0  0  0  0  0  0  0  0  0 
    5.4318    2.0552   -1.6786 H   0  0  0  0  0  0  0  0  0  0  0  0 
    3.2540    0.7819   -2.0555 H   0  0  0  0  0  0  0  0  0  0  0  0 
    1.8940    1.3037   -1.3251 H   0  0  0  0  0  0  0  0  0  0  0  0 
  1 16  1  0  0  0  0 
  1 18  1  0  0  0  0 
  2 20  1  0  0  0  0 
  2  1  1  0  0  0  0 
  3  4  2  0  0  0  0 
  4  6  1  0  0  0  0 
  4 22  1  0  0  0  0 
  5  7  2  0  0  0  0 
  5  3  1  0  0  0  0 
  6 24  1  0  0  0  0 
  7 10  1  0  0  0  0 
  8 26  1  0  0  0  0 
  8 12  1  0  0  0  0 
  8 27  1  0  0  0  0 
  9 13  1  0  0  0  0 
  9 11  1  0  0  0  0 
  9 29  1  0  0  0  0 
 10 11  1  0  0  0  0 
 10  6  2  0  0  0  0 
 11 30  1  6  0  0  0 
 11  8  1  0  0  0  0 
 12 14  2  0  0  0  0 
 15  2  1  0  0  0  0 
 15 12  1  0  0  0  0 
 17  1  1  0  0  0  0 
 19  2  1  0  0  0  0 
 21  3  1  0  0  0  0 
 23  5  1  0  0  0  0 
 25  7  1  0  0  0  0 
 28  9  1  0  0  0  0 
 31 13  1  0  0  0  0 
 32 13  1  0  0  0  0 
M  END 
>  <HBA> 
3 
 
>  <HBD> 
1 
 
>  <TPSA> 
52.32 
 
>  <cid> 
54347 
 
>  <dipole> 
3.07 
 
>  <excitation_energy_1> 
5.31 
 
>  <excitation_energy_2> 
5.625 
 
>  <excitation_energy_3> 
5.738 
 
>  <excitation_energy_4> 
5.818 
 
>  <homo_energy> 
-6.433 
 
>  <homo_lumo_gap> 
6.465 
 
>  <logP> 
2.382 
 
>  <lumo_energy> 
0.033 
 
>  <melting_point> 
70.52 
 
>  <molecular_refractivity> 
59.44 
 
>  <oscillator_strength_1> 
0.0005 
 
>  <oscillator_strength_2> 
0.016 
 
>  <oscillator_strength_3> 
0.0001 
 
>  <oscillator_strength_4> 
0.0173 
 
>  <open_babel_can_smiles> 
NC[C@@H](c1ccccc1)CC(=O)OCC 
 
>  <mulliken_charges> 
32 
1   -0.461113 
2   -0.041168 
3   -0.12972 
4   -0.128942 
5   -0.126282 
6   -0.17937 
7   -0.190498 
8   -0.348084 
9   -0.141368 
10   0.16974 
11   -0.183297 
12   0.621487 
13   -0.719456 
14   -0.484299 
15   -0.461163 
16   0.147389 
17   0.153886 
18   0.177071 
19   0.146401 
20   0.171303 
21   0.128164 
22   0.129658 
23   0.127389 
24   0.12794 
25   0.125251 
26   0.196148 
27   0.160493 
28   0.128346 
29   0.140548 
30   0.143714 
31   0.297422 
32   0.302409 
 
>  <lowdin_charges> 
32 
1   -0.453819 
2   -0.127281 
3   -0.158852 
4   -0.154307 
5   -0.155512 
6   -0.163673 
7   -0.168484 
8   -0.299501 
9   -0.207065 
10   -0.004916 
11   -0.129003 
12   0.198521 
13   -0.554796 
14   -0.269606 
15   -0.203274 
16   0.155607 
17   0.155136 
18   0.16513 
19   0.148535 
20   0.160264 
21   0.156478 
22   0.158581 
23   0.156975 
24   0.155521 
25   0.155969 
26   0.18361 
27   0.164292 
28   0.128117 
29   0.144496 
30   0.151236 
31   0.254511 
32   0.257108 
 
$$$$ 
 
