PCCDB-ID:  12014 
public computational chemistry database (PCCDB) project, http://pccdb.org 
 
 18 17  0  0  0  0  0  0  0  0999 V2000 
    0.9050   -0.1584   -0.0548 C   0  0  0  0  0  0  0  0  0  0  0  0 
    5.3094    1.9599    0.2297 C   0  0  0  0  0  0  0  0  0  0  0  0 
    2.5269    2.2229   -1.3088 C   0  0  0  0  0  0  0  0  0  0  0  0 
    2.3985   -0.0231   -0.1596 C   0  0  0  0  0  0  0  0  0  0  0  0 
    4.6346    0.9152   -0.6781 C   0  0  0  0  0  0  0  0  0  0  0  0 
    3.1184    0.9819   -0.6828 C   0  0  0  0  0  0  0  0  0  0  0  0 
    0.5970   -0.2728    0.9938 H   0  0  0  0  0  0  0  0  0  0  0  0 
    0.5561   -1.0582   -0.5803 H   0  0  0  0  0  0  0  0  0  0  0  0 
    0.3627    0.6971   -0.4660 H   0  0  0  0  0  0  0  0  0  0  0  0 
    6.3980    1.8323    0.2237 H   0  0  0  0  0  0  0  0  0  0  0  0 
    4.9621    1.8591    1.2644 H   0  0  0  0  0  0  0  0  0  0  0  0 
    5.0969    2.9838   -0.0971 H   0  0  0  0  0  0  0  0  0  0  0  0 
    1.4350    2.2107   -1.3366 H   0  0  0  0  0  0  0  0  0  0  0  0 
    2.8863    2.3417   -2.3407 H   0  0  0  0  0  0  0  0  0  0  0  0 
    2.8322    3.1284   -0.7683 H   0  0  0  0  0  0  0  0  0  0  0  0 
    2.9540   -0.8686    0.2508 H   0  0  0  0  0  0  0  0  0  0  0  0 
    4.9521   -0.0867   -0.3645 H   0  0  0  0  0  0  0  0  0  0  0  0 
    5.0066    1.0528   -1.7052 H   0  0  0  0  0  0  0  0  0  0  0  0 
  1  7  1  0  0  0  0 
  2 11  1  0  0  0  0 
  3 15  1  0  0  0  0 
  3  6  1  0  0  0  0 
  4  1  1  0  0  0  0 
  4 16  1  0  0  0  0 
  5 17  1  0  0  0  0 
  5  2  1  0  0  0  0 
  6  5  1  0  0  0  0 
  6  4  2  0  0  0  0 
  8  1  1  0  0  0  0 
  9  1  1  0  0  0  0 
 10  2  1  0  0  0  0 
 12  2  1  0  0  0  0 
 13  3  1  0  0  0  0 
 14  3  1  0  0  0  0 
 18  5  1  0  0  0  0 
M  END 
>  <HBA> 
0 
 
>  <HBD> 
0 
 
>  <TPSA> 
0.0 
 
>  <cid> 
12014 
 
>  <dipole> 
0.16 
 
>  <excitation_energy_1> 
5.694 
 
>  <excitation_energy_2> 
6.183 
 
>  <excitation_energy_3> 
6.281 
 
>  <excitation_energy_4> 
6.421 
 
>  <homo_energy> 
-6.139 
 
>  <homo_lumo_gap> 
7.132 
 
>  <logP> 
2.363 
 
>  <lumo_energy> 
0.993 
 
>  <melting_point> 
-13.35 
 
>  <molecular_refractivity> 
30.48 
 
>  <oscillator_strength_1> 
0.0138 
 
>  <oscillator_strength_2> 
0.044 
 
>  <oscillator_strength_3> 
0.0083 
 
>  <oscillator_strength_4> 
0.0587 
 
>  <open_babel_can_smiles> 
CC/C(=C/C)/C 
 
>  <mulliken_charges> 
18 
1   -0.486826 
2   -0.440822 
3   -0.520413 
4   -0.163063 
5   -0.31843 
6   0.200283 
7   0.1527 
8   0.152602 
9   0.150752 
10   0.142316 
11   0.147712 
12   0.144219 
13   0.152275 
14   0.149682 
15   0.155325 
16   0.11153 
17   0.137102 
18   0.133057 
 
>  <lowdin_charges> 
18 
1   -0.443295 
2   -0.440792 
3   -0.443208 
4   -0.189397 
5   -0.267587 
6   -0.014846 
7   0.154444 
8   0.15572 
9   0.153409 
10   0.147654 
11   0.148464 
12   0.145867 
13   0.153146 
14   0.15297 
15   0.155948 
16   0.145379 
17   0.144971 
18   0.141154 
 
$$$$ 
 
