PCCDB-ID:  34521 
public computational chemistry database (PCCDB) project, http://pccdb.org 
 
 28 29  0  0  1  0  0  0  0  0999 V2000 
    2.1676    0.8362   -2.3368 C   0  0  0  0  0  0  0  0  0  0  0  0 
    5.3096    1.3287   -0.2336 C   0  0  0  0  0  0  0  0  0  0  0  0 
    4.1651    1.6086   -0.9817 C   0  0  0  0  0  0  0  0  0  0  0  0 
    5.7450    0.0224   -0.0337 C   0  0  0  0  0  0  0  0  0  0  0  0 
    3.8651   -0.7509   -1.3531 C   0  0  0  0  0  0  0  0  0  0  0  0 
    4.6136   -3.4923   -0.9679 C   0  0  0  0  0  0  0  0  0  0  0  0 
    5.7882   -5.7074   -1.5663 C   0  0  0  0  0  0  0  0  0  0  0  0 
    3.4281    0.5654   -1.5471 C   0  0  0  0  0  0  0  0  0  0  0  0 
    5.0151   -1.0368   -0.6014 C   0  0  0  0  0  0  0  0  0  0  0  0 
    5.3807   -4.7314   -0.4689 C   0  0  1  0  0  0  0  0  0  0  0  0 
    6.5681   -2.8392    0.1644 C   0  0  0  0  0  0  0  0  0  0  0  0 
    5.3999   -2.3905   -0.4313 N   0  0  0  0  0  0  0  0  0  0  0  0 
    6.5503   -6.7792   -1.0557 O   0  0  0  0  0  0  0  0  0  0  0  0 
    7.4680   -2.2019    0.6552 O   0  0  0  0  0  0  0  0  0  0  0  0 
    6.5840   -4.2091    0.1299 O   0  0  0  0  0  0  0  0  0  0  0  0 
    2.1392    1.8687   -2.6990 H   0  0  0  0  0  0  0  0  0  0  0  0 
    1.2711    0.6803   -1.7220 H   0  0  0  0  0  0  0  0  0  0  0  0 
    2.0839    0.1721   -3.2045 H   0  0  0  0  0  0  0  0  0  0  0  0 
    5.8808    2.1437    0.2030 H   0  0  0  0  0  0  0  0  0  0  0  0 
    3.8455    2.6374   -1.1271 H   0  0  0  0  0  0  0  0  0  0  0  0 
    6.6361   -0.1845    0.5409 H   0  0  0  0  0  0  0  0  0  0  0  0 
    3.2904   -1.5538   -1.8034 H   0  0  0  0  0  0  0  0  0  0  0  0 
    3.5854   -3.4658   -0.5918 H   0  0  0  0  0  0  0  0  0  0  0  0 
    4.5751   -3.4502   -2.0660 H   0  0  0  0  0  0  0  0  0  0  0  0 
    6.3295   -5.1498   -2.3495 H   0  0  0  0  0  0  0  0  0  0  0  0 
    4.8916   -6.1433   -2.0215 H   0  0  0  0  0  0  0  0  0  0  0  0 
    4.8343   -5.2663    0.3148 H   0  0  0  0  0  0  0  0  0  0  0  0 
    7.3255   -6.3865   -0.6210 H   0  0  0  0  0  0  0  0  0  0  0  0 
  1 17  1  0  0  0  0 
  1  8  1  0  0  0  0 
  2  4  1  0  0  0  0 
  2 19  1  0  0  0  0 
  3  2  2  0  0  0  0 
  4 21  1  0  0  0  0 
  5  9  1  0  0  0  0 
  6 23  1  0  0  0  0 
  6 10  1  0  0  0  0 
  6 12  1  0  0  0  0 
  7 13  1  0  0  0  0 
  7 10  1  0  0  0  0 
  8  5  2  0  0  0  0 
  8  3  1  0  0  0  0 
  9 12  1  0  0  0  0 
  9  4  2  0  0  0  0 
 10 15  1  0  0  0  0 
 10 27  1  1  0  0  0 
 11 14  2  0  0  0  0 
 12 11  1  0  0  0  0 
 13 28  1  0  0  0  0 
 15 11  1  0  0  0  0 
 16  1  1  0  0  0  0 
 18  1  1  0  0  0  0 
 20  3  1  0  0  0  0 
 22  5  1  0  0  0  0 
 24  6  1  0  0  0  0 
 25  7  1  0  0  0  0 
 26  7  1  0  0  0  0 
M  END 
>  <HBA> 
4 
 
>  <HBD> 
1 
 
>  <TPSA> 
49.77 
 
>  <cid> 
34521 
 
>  <dipole> 
4.19 
 
>  <excitation_energy_1> 
4.917 
 
>  <excitation_energy_2> 
5.287 
 
>  <excitation_energy_3> 
5.34 
 
>  <excitation_energy_4> 
5.795 
 
>  <homo_energy> 
-6.014 
 
>  <homo_lumo_gap> 
5.867 
 
>  <logP> 
1.377 
 
>  <lumo_energy> 
-0.147 
 
>  <melting_point> 
80.14 
 
>  <molecular_refractivity> 
58.89 
 
>  <oscillator_strength_1> 
0.0288 
 
>  <oscillator_strength_2> 
0.1457 
 
>  <oscillator_strength_3> 
0.1253 
 
>  <oscillator_strength_4> 
0.0058 
 
>  <open_babel_can_smiles> 
OC[C@H]1OC(=O)N(C1)c1cccc(c1)C 
 
>  <mulliken_charges> 
28 
1   -0.530633 
2   -0.141002 
3   -0.178171 
4   -0.17213 
5   -0.250197 
6   -0.158712 
7   -0.0344 
8   0.175215 
9   0.343797 
10   0.093031 
11   0.791782 
12   -0.592873 
13   -0.611498 
14   -0.485221 
15   -0.502588 
16   0.159272 
17   0.166003 
18   0.155818 
19   0.134418 
20   0.121358 
21   0.188525 
22   0.121802 
23   0.175288 
24   0.166896 
25   0.133767 
26   0.152531 
27   0.167879 
28   0.410044 
 
>  <lowdin_charges> 
28 
1   -0.441688 
2   -0.145103 
3   -0.179765 
4   -0.185262 
5   -0.209875 
6   -0.198709 
7   -0.14773 
8   0.00967 
9   0.059839 
10   -0.016207 
11   0.217983 
12   -0.089222 
13   -0.453696 
14   -0.265474 
15   -0.207194 
16   0.158448 
17   0.162298 
18   0.157724 
19   0.161757 
20   0.15421 
21   0.188893 
22   0.157156 
23   0.159304 
24   0.149267 
25   0.136305 
26   0.155006 
27   0.158437 
28   0.353627 
 
$$$$ 
 
