PCCDB-ID:  24115 
public computational chemistry database (PCCDB) project, http://pccdb.org 
 
 18 17  0  0  0  0  0  0  0  0999 V2000 
    0.8992   -0.9129    0.4779 C   0  0  0  0  0  0  0  0  0  0  0  0 
    3.0024   -1.3244   -0.9048 C   0  0  0  0  0  0  0  0  0  0  0  0 
    3.7015    3.1661   -0.7630 C   0  0  0  0  0  0  0  0  0  0  0  0 
    2.3246   -0.4448    0.1727 C   0  0  0  0  0  0  0  0  0  0  0  0 
    3.6852    1.7701   -0.1888 C   0  0  0  0  0  0  0  0  0  0  0  0 
    2.3396    1.0013   -0.2942 C   0  0  0  0  0  0  0  0  0  0  0  0 
    4.6441    1.2460    0.3456 O   0  0  0  0  0  0  0  0  0  0  0  0 
    1.3716    1.5813   -0.7508 O   0  0  0  0  0  0  0  0  0  0  0  0 
    0.9092   -1.9496    0.8315 H   0  0  0  0  0  0  0  0  0  0  0  0 
    0.2704   -0.8578   -0.4162 H   0  0  0  0  0  0  0  0  0  0  0  0 
    0.4307   -0.2923    1.2490 H   0  0  0  0  0  0  0  0  0  0  0  0 
    3.0125   -2.3686   -0.5744 H   0  0  0  0  0  0  0  0  0  0  0  0 
    4.0368   -1.0157   -1.0815 H   0  0  0  0  0  0  0  0  0  0  0  0 
    2.4520   -1.2744   -1.8515 H   0  0  0  0  0  0  0  0  0  0  0  0 
    2.9331    3.7817   -0.2827 H   0  0  0  0  0  0  0  0  0  0  0  0 
    3.4483    3.1388   -1.8291 H   0  0  0  0  0  0  0  0  0  0  0  0 
    4.6884    3.6094   -0.6203 H   0  0  0  0  0  0  0  0  0  0  0  0 
    2.9476   -0.4979    1.0739 H   0  0  0  0  0  0  0  0  0  0  0  0 
  1  9  1  0  0  0  0 
  1 11  1  0  0  0  0 
  2 12  1  0  0  0  0 
  2  4  1  0  0  0  0 
  3 17  1  0  0  0  0 
  3 15  1  0  0  0  0 
  3  5  1  0  0  0  0 
  4  1  1  0  0  0  0 
  4 18  1  0  0  0  0 
  5  7  2  0  0  0  0 
  6  5  1  0  0  0  0 
  6  4  1  0  0  0  0 
  8  6  2  0  0  0  0 
 10  1  1  0  0  0  0 
 13  2  1  0  0  0  0 
 14  2  1  0  0  0  0 
 16  3  1  0  0  0  0 
M  END 
>  <HBA> 
2 
 
>  <HBD> 
0 
 
>  <TPSA> 
34.14 
 
>  <cid> 
24115 
 
>  <dipole> 
0.35 
 
>  <excitation_energy_1> 
2.616 
 
>  <excitation_energy_2> 
4.421 
 
>  <excitation_energy_3> 
5.885 
 
>  <excitation_energy_4> 
5.912 
 
>  <homo_energy> 
-6.512 
 
>  <homo_lumo_gap> 
4.21 
 
>  <logP> 
0.8 
 
>  <lumo_energy> 
-2.302 
 
>  <melting_point> 
16.22 
 
>  <molecular_refractivity> 
31.36 
 
>  <oscillator_strength_1> 
0.0002 
 
>  <oscillator_strength_2> 
0.0003 
 
>  <oscillator_strength_3> 
0.0039 
 
>  <oscillator_strength_4> 
0.0001 
 
>  <open_babel_can_smiles> 
CC(C(=O)C(=O)C)C 
 
>  <mulliken_charges> 
18 
1   -0.439207 
2   -0.461435 
3   -0.52136 
4   -0.158165 
5   0.391991 
6   0.386933 
7   -0.419739 
8   -0.434346 
9   0.143439 
10   0.161367 
11   0.151542 
12   0.159086 
13   0.168178 
14   0.154842 
15   0.189305 
16   0.185123 
17   0.177271 
18   0.165173 
 
>  <lowdin_charges> 
18 
1   -0.44002 
2   -0.436568 
3   -0.468401 
4   -0.151506 
5   0.13826 
6   0.132609 
7   -0.206925 
8   -0.2083 
9   0.150715 
10   0.159043 
11   0.156535 
12   0.157921 
13   0.160312 
14   0.152704 
15   0.185093 
16   0.180342 
17   0.172426 
18   0.165759 
 
$$$$ 
 
