PCCDB-ID:  13021 
public computational chemistry database (PCCDB) project, http://pccdb.org 
 
 18 18  0  0  1  0  0  0  0  0999 V2000 
    1.0249   -0.1376    0.0098 C   0  0  0  0  0  0  0  0  0  0  0  0 
    5.4589    2.3580    0.0715 C   0  0  0  0  0  0  0  0  0  0  0  0 
    3.2141    1.1526    0.0410 C   0  0  0  0  0  0  0  0  0  0  0  0 
    2.5213   -0.0219    0.0238 C   0  0  1  0  0  0  0  0  0  0  0  0 
    4.6509    1.0808    0.0555 C   0  0  0  0  0  0  0  0  0  0  0  0 
    4.6593   -1.2560    0.0378 C   0  0  0  0  0  0  0  0  0  0  0  0 
    5.3174   -2.3582    0.0384 N   0  0  0  0  0  0  0  0  0  0  0  0 
    3.2339   -1.1870    0.0216 N   0  0  0  0  0  0  0  0  0  0  0  0 
    5.3236   -0.0375    0.0538 N   0  0  0  0  0  0  0  0  0  0  0  0 
    0.5619    0.8512   -0.0133 H   0  0  0  0  0  0  0  0  0  0  0  0 
    0.6637   -0.6655    0.9016 H   0  0  0  0  0  0  0  0  0  0  0  0 
    0.6821   -0.6988   -0.8686 H   0  0  0  0  0  0  0  0  0  0  0  0 
    4.8241    3.2472    0.1227 H   0  0  0  0  0  0  0  0  0  0  0  0 
    6.0778    2.4181   -0.8304 H   0  0  0  0  0  0  0  0  0  0  0  0 
    6.1412    2.3562    0.9276 H   0  0  0  0  0  0  0  0  0  0  0  0 
    2.6953    2.1030    0.0432 H   0  0  0  0  0  0  0  0  0  0  0  0 
    4.6856   -3.1641    0.0257 H   0  0  0  0  0  0  0  0  0  0  0  0 
    2.7306   -2.0655    0.0086 H   0  0  0  0  0  0  0  0  0  0  0  0 
  1 11  1  0  0  0  0 
  2 13  1  0  0  0  0 
  2 15  1  0  0  0  0 
  3 16  1  0  0  0  0 
  3  5  2  0  0  0  0 
  4  1  1  1  0  0  0 
  4  3  1  0  0  0  0 
  5  2  1  0  0  0  0 
  6  7  1  0  0  0  0 
  6  9  2  0  0  0  0 
  8  4  1  0  0  0  0 
  8  6  1  0  0  0  0 
  9  5  1  0  0  0  0 
 10  1  1  0  0  0  0 
 12  1  1  0  0  0  0 
 14  2  1  0  0  0  0 
 17  7  1  0  0  0  0 
 18  8  1  0  0  0  0 
M  RAD  2   4   2   7   2 
M  END 
>  <HBA> 
3 
 
>  <HBD> 
1 
 
>  <TPSA> 
51.8 
 
>  <cid> 
13021 
 
>  <dipole> 
6.21 
 
>  <excitation_energy_1> 
3.688 
 
>  <excitation_energy_2> 
4.295 
 
>  <excitation_energy_3> 
4.491 
 
>  <excitation_energy_4> 
4.873 
 
>  <homo_energy> 
-5.48 
 
>  <homo_lumo_gap> 
4.384 
 
>  <logP> 
1.257 
 
>  <lumo_energy> 
-1.097 
 
>  <melting_point> 
93.16 
 
>  <molecular_refractivity> 
36.37 
 
>  <oscillator_strength_1> 
0.0491 
 
>  <oscillator_strength_2> 
0.0019 
 
>  <oscillator_strength_3> 
0.0017 
 
>  <oscillator_strength_4> 
0.001 
 
>  <open_babel_can_smiles> 
C[C]1NC(=NC(=C1)C)[NH] 
 
>  <mulliken_charges> 
18 
1   -0.540336 
2   -0.507066 
3   -0.271522 
4   0.428944 
5   0.328496 
6   0.589449 
7   -0.621762 
8   -0.678104 
9   -0.483064 
10   0.183146 
11   0.178668 
12   0.176994 
13   0.146155 
14   0.181811 
15   0.182796 
16   0.130994 
17   0.250934 
18   0.323467 
 
>  <lowdin_charges> 
18 
1   -0.447186 
2   -0.447269 
3   -0.272602 
4   0.094257 
5   0.091055 
6   0.119023 
7   -0.438709 
8   -0.2316 
9   -0.177891 
10   0.174683 
11   0.171218 
12   0.170382 
13   0.152504 
14   0.176217 
15   0.176877 
16   0.16605 
17   0.237043 
18   0.285948 
 
$$$$ 
 
