PCCDB-ID:  7731 
public computational chemistry database (PCCDB) project, http://pccdb.org 
 
 19 19  0  0  0  0  0  0  0  0999 V2000 
    0.7731   -0.1136   -0.0139 C   0  0  0  0  0  0  0  0  0  0  0  0 
    7.2369    1.0060    0.0115 C   0  0  0  0  0  0  0  0  0  0  0  0 
    3.0175   -1.2843   -0.1987 C   0  0  0  0  0  0  0  0  0  0  0  0 
    3.0043    1.0913    0.0978 C   0  0  0  0  0  0  0  0  0  0  0  0 
    4.4053   -1.2822   -0.2282 C   0  0  0  0  0  0  0  0  0  0  0  0 
    4.4035    1.1167    0.0710 C   0  0  0  0  0  0  0  0  0  0  0  0 
    2.2841   -0.0966   -0.0354 C   0  0  0  0  0  0  0  0  0  0  0  0 
    5.1110   -0.0771   -0.0928 C   0  0  0  0  0  0  0  0  0  0  0  0 
    6.4745   -0.1795   -0.1338 O   0  0  0  0  0  0  0  0  0  0  0  0 
    0.3877   -0.8147    0.7369 H   0  0  0  0  0  0  0  0  0  0  0  0 
    0.3578   -0.4223   -0.9822 H   0  0  0  0  0  0  0  0  0  0  0  0 
    0.3667    0.8763    0.2178 H   0  0  0  0  0  0  0  0  0  0  0  0 
    8.2834    0.6984   -0.0376 H   0  0  0  0  0  0  0  0  0  0  0  0 
    7.0485    1.4936    0.9776 H   0  0  0  0  0  0  0  0  0  0  0  0 
    7.0323    1.7213   -0.7968 H   0  0  0  0  0  0  0  0  0  0  0  0 
    2.4886   -2.2295   -0.3038 H   0  0  0  0  0  0  0  0  0  0  0  0 
    2.4675    2.0287    0.2274 H   0  0  0  0  0  0  0  0  0  0  0  0 
    4.9685   -2.2020   -0.3528 H   0  0  0  0  0  0  0  0  0  0  0  0 
    4.9201    2.0636    0.1793 H   0  0  0  0  0  0  0  0  0  0  0  0 
  1 12  1  0  0  0  0 
  1 10  1  0  0  0  0 
  2 14  1  0  0  0  0 
  3  7  1  0  0  0  0 
  4 17  1  0  0  0  0 
  5  3  2  0  0  0  0 
  5  8  1  0  0  0  0 
  6  4  1  0  0  0  0 
  6 19  1  0  0  0  0 
  7  1  1  0  0  0  0 
  7  4  2  0  0  0  0 
  8  6  2  0  0  0  0 
  9  8  1  0  0  0  0 
  9  2  1  0  0  0  0 
 11  1  1  0  0  0  0 
 13  2  1  0  0  0  0 
 15  2  1  0  0  0  0 
 16  3  1  0  0  0  0 
 18  5  1  0  0  0  0 
M  END 
>  <HBA> 
1 
 
>  <HBD> 
0 
 
>  <TPSA> 
9.23 
 
>  <cid> 
7731 
 
>  <dipole> 
1.16 
 
>  <excitation_energy_1> 
4.913 
 
>  <excitation_energy_2> 
5.313 
 
>  <excitation_energy_3> 
5.61 
 
>  <excitation_energy_4> 
5.658 
 
>  <homo_energy> 
-5.657 
 
>  <homo_lumo_gap> 
5.807 
 
>  <logP> 
2.004 
 
>  <lumo_energy> 
0.15 
 
>  <melting_point> 
13.26 
 
>  <molecular_refractivity> 
37.9 
 
>  <oscillator_strength_1> 
0.0335 
 
>  <oscillator_strength_2> 
0.0048 
 
>  <oscillator_strength_3> 
0.1208 
 
>  <oscillator_strength_4> 
0.0035 
 
>  <open_babel_can_smiles> 
COc1ccc(cc1)C 
 
>  <mulliken_charges> 
19 
1   -0.530213 
2   -0.212904 
3   -0.182063 
4   -0.194338 
5   -0.169767 
6   -0.19273 
7   0.179195 
8   0.370425 
9   -0.508451 
10   0.157637 
11   0.159541 
12   0.151882 
13   0.167544 
14   0.149942 
15   0.149866 
16   0.121689 
17   0.120198 
18   0.13494 
19   0.127608 
 
>  <lowdin_charges> 
19 
1   -0.442251 
2   -0.277319 
3   -0.156563 
4   -0.159971 
5   -0.180804 
6   -0.215436 
7   -0.018103 
8   0.099322 
9   -0.202966 
10   0.158518 
11   0.157933 
12   0.15468 
13   0.160076 
14   0.143744 
15   0.144529 
16   0.154879 
17   0.153562 
18   0.165447 
19   0.160723 
 
$$$$ 
 
