PCCDB-ID:  7857 
public computational chemistry database (PCCDB) project, http://pccdb.org 
 
  7  6  0  0  0  0  0  0  0  0999 V2000 
    0.9650   -0.0540   -0.0559 C   0  0  0  0  0  0  0  0  0  0  0  0 
   -0.5125    0.0034   -0.0814 C   0  0  0  0  0  0  0  0  0  0  0  0 
    2.1255   -0.0555   -0.0464 N   0  0  0  0  0  0  0  0  0  0  0  0 
   -1.0148    0.7101   -1.1970 O   0  0  0  0  0  0  0  0  0  0  0  0 
   -0.8579    0.4209    0.8765 H   0  0  0  0  0  0  0  0  0  0  0  0 
   -0.9052   -1.0149   -0.1565 H   0  0  0  0  0  0  0  0  0  0  0  0 
   -0.7077    1.6288   -1.1381 H   0  0  0  0  0  0  0  0  0  0  0  0 
  1  3  3  0  0  0  0 
  2  1  1  0  0  0  0 
  2  5  1  0  0  0  0 
  4  7  1  0  0  0  0 
  4  2  1  0  0  0  0 
  6  2  1  0  0  0  0 
M  END 
>  <HBA> 
2 
 
>  <HBD> 
1 
 
>  <TPSA> 
44.02 
 
>  <cid> 
7857 
 
>  <dipole> 
2.95 
 
>  <excitation_energy_1> 
6.754 
 
>  <excitation_energy_2> 
7.156 
 
>  <excitation_energy_3> 
7.696 
 
>  <excitation_energy_4> 
7.739 
 
>  <homo_energy> 
-8.455 
 
>  <homo_lumo_gap> 
8.449 
 
>  <logP> 
-0.498 
 
>  <lumo_energy> 
-0.005 
 
>  <melting_point> 
28.61 
 
>  <molecular_refractivity> 
12.64 
 
>  <oscillator_strength_1> 
0.01 
 
>  <oscillator_strength_2> 
0.0049 
 
>  <oscillator_strength_3> 
0.0149 
 
>  <oscillator_strength_4> 
0.016 
 
>  <open_babel_can_smiles> 
OCC#N 
 
>  <mulliken_charges> 
7 
1   0.333799 
2   -0.09294 
3   -0.454459 
4   -0.583862 
5   0.181978 
6   0.207745 
7   0.407739 
 
>  <lowdin_charges> 
7 
1   -0.040913 
2   -0.124227 
3   -0.10682 
4   -0.433144 
5   0.165404 
6   0.185253 
7   0.354446 
 
$$$$ 
 
