PCCDB-ID:  45444 
public computational chemistry database (PCCDB) project, http://pccdb.org 
 
 37 37  0  0  0  0  0  0  0  0999 V2000 
    1.9315   -0.9867   -1.3983 C   0  0  0  0  0  0  0  0  0  0  0  0 
    5.0910    0.5402    1.5747 C   0  0  0  0  0  0  0  0  0  0  0  0 
    3.4206    3.8311   -5.7259 C   0  0  0  0  0  0  0  0  0  0  0  0 
    2.3967    0.4384   -1.0478 C   0  0  0  0  0  0  0  0  0  0  0  0 
    4.0013   -0.1226    0.7283 C   0  0  0  0  0  0  0  0  0  0  0  0 
    7.2366    5.5764   -5.3191 C   0  0  0  0  0  0  0  0  0  0  0  0 
    8.2361    4.8785   -4.6476 C   0  0  0  0  0  0  0  0  0  0  0  0 
    5.9543    5.0355   -5.4423 C   0  0  0  0  0  0  0  0  0  0  0  0 
    7.9420    3.6324   -4.0893 C   0  0  0  0  0  0  0  0  0  0  0  0 
    4.8021    0.3964   -1.5453 C   0  0  0  0  0  0  0  0  0  0  0  0 
    5.1035    1.7151   -2.2675 C   0  0  0  0  0  0  0  0  0  0  0  0 
    5.6643    3.7796   -4.8966 C   0  0  0  0  0  0  0  0  0  0  0  0 
    6.6688    3.0661   -4.2011 C   0  0  0  0  0  0  0  0  0  0  0  0 
    3.7608    0.5827   -0.5326 N   0  0  0  0  0  0  0  0  0  0  0  0 
    4.4423    3.1805   -4.9870 O   0  0  0  0  0  0  0  0  0  0  0  0 
    6.3958    1.4209   -3.5555 S   0  0  0  0  0  0  0  0  0  0  0  0 
    0.9055   -0.9637   -1.7845 H   0  0  0  0  0  0  0  0  0  0  0  0 
    1.9409   -1.6406   -0.5190 H   0  0  0  0  0  0  0  0  0  0  0  0 
    2.5629   -1.4472   -2.1662 H   0  0  0  0  0  0  0  0  0  0  0  0 
    5.2129    0.0082    2.5257 H   0  0  0  0  0  0  0  0  0  0  0  0 
    4.8280    1.5819    1.7856 H   0  0  0  0  0  0  0  0  0  0  0  0 
    6.0630    0.5353    1.0686 H   0  0  0  0  0  0  0  0  0  0  0  0 
    2.5603    3.1601   -5.6970 H   0  0  0  0  0  0  0  0  0  0  0  0 
    3.7196    3.9930   -6.7694 H   0  0  0  0  0  0  0  0  0  0  0  0 
    3.1451    4.7937   -5.2751 H   0  0  0  0  0  0  0  0  0  0  0  0 
    1.7146    0.8628   -0.2991 H   0  0  0  0  0  0  0  0  0  0  0  0 
    2.3075    1.0757   -1.9361 H   0  0  0  0  0  0  0  0  0  0  0  0 
    3.0618   -0.1042    1.2941 H   0  0  0  0  0  0  0  0  0  0  0  0 
    4.2496   -1.1901    0.5772 H   0  0  0  0  0  0  0  0  0  0  0  0 
    7.4439    6.5513   -5.7525 H   0  0  0  0  0  0  0  0  0  0  0  0 
    9.2329    5.2981   -4.5486 H   0  0  0  0  0  0  0  0  0  0  0  0 
    5.1901    5.5938   -5.9708 H   0  0  0  0  0  0  0  0  0  0  0  0 
    8.7061    3.0786   -3.5522 H   0  0  0  0  0  0  0  0  0  0  0  0 
    5.7160    0.0461   -1.0553 H   0  0  0  0  0  0  0  0  0  0  0  0 
    4.5336   -0.3783   -2.2833 H   0  0  0  0  0  0  0  0  0  0  0  0 
    5.4682    2.4553   -1.5504 H   0  0  0  0  0  0  0  0  0  0  0  0 
    4.2110    2.1096   -2.7580 H   0  0  0  0  0  0  0  0  0  0  0  0 
  1  4  1  0  0  0  0 
  1 18  1  0  0  0  0 
  2 21  1  0  0  0  0 
  2 20  1  0  0  0  0 
  3 23  1  0  0  0  0 
  3 25  1  0  0  0  0 
  3 15  1  0  0  0  0 
  4 14  1  0  0  0  0 
  4 26  1  0  0  0  0 
  5 28  1  0  0  0  0 
  5  2  1  0  0  0  0 
  6  7  1  0  0  0  0 
  7 31  1  0  0  0  0 
  7  9  2  0  0  0  0 
  8  6  2  0  0  0  0 
  8 12  1  0  0  0  0 
  9 33  1  0  0  0  0 
 10 34  1  0  0  0  0 
 10 14  1  0  0  0  0 
 11 36  1  0  0  0  0 
 11 10  1  0  0  0  0 
 12 13  2  0  0  0  0 
 13  9  1  0  0  0  0 
 13 16  1  0  0  0  0 
 14  5  1  0  0  0  0 
 15 12  1  0  0  0  0 
 16 11  1  0  0  0  0 
 17  1  1  0  0  0  0 
 19  1  1  0  0  0  0 
 22  2  1  0  0  0  0 
 24  3  1  0  0  0  0 
 27  4  1  0  0  0  0 
 29  5  1  0  0  0  0 
 30  6  1  0  0  0  0 
 32  8  1  0  0  0  0 
 35 10  1  0  0  0  0 
 37 11  1  0  0  0  0 
M  END 
>  <HBA> 
3 
 
>  <HBD> 
0 
 
>  <TPSA> 
37.77 
 
>  <cid> 
45444 
 
>  <dipole> 
2.49 
 
>  <excitation_energy_1> 
4.397 
 
>  <excitation_energy_2> 
4.659 
 
>  <excitation_energy_3> 
4.734 
 
>  <excitation_energy_4> 
4.944 
 
>  <homo_energy> 
-5.388 
 
>  <homo_lumo_gap> 
5.157 
 
>  <logP> 
3.129 
 
>  <lumo_energy> 
-0.231 
 
>  <melting_point> 
21.55 
 
>  <molecular_refractivity> 
71.59 
 
>  <oscillator_strength_1> 
0.1111 
 
>  <oscillator_strength_2> 
0.0137 
 
>  <oscillator_strength_3> 
0.0016 
 
>  <oscillator_strength_4> 
0.0065 
 
>  <open_babel_can_smiles> 
CCN(CCSc1ccccc1OC)CC 
 
>  <mulliken_charges> 
37 
1   -0.455322 
2   -0.440975 
3   -0.216533 
4   -0.136187 
5   -0.12085 
6   -0.139538 
7   -0.121888 
8   -0.186069 
9   -0.154876 
10   -0.151292 
11   -0.400279 
12   0.371209 
13   -0.151314 
14   -0.372734 
15   -0.493778 
16   0.089475 
17   0.141237 
18   0.14788 
19   0.151805 
20   0.138182 
21   0.152378 
22   0.148487 
23   0.171432 
24   0.155977 
25   0.152827 
26   0.138002 
27   0.138128 
28   0.135182 
29   0.117953 
30   0.131234 
31   0.128556 
32   0.131871 
33   0.146952 
34   0.152597 
35   0.13951 
36   0.173959 
37   0.186802 
 
>  <lowdin_charges> 
37 
1   -0.466434 
2   -0.449068 
3   -0.276495 
4   -0.203088 
5   -0.192874 
6   -0.144345 
7   -0.176819 
8   -0.214518 
9   -0.149226 
10   -0.206082 
11   -0.376142 
12   0.100282 
13   -0.154987 
14   -0.189175 
15   -0.187898 
16   0.119589 
17   0.151142 
18   0.14968 
19   0.151483 
20   0.149348 
21   0.152031 
22   0.148611 
23   0.164189 
24   0.146366 
25   0.145245 
26   0.142948 
27   0.142717 
28   0.143597 
29   0.118586 
30   0.157979 
31   0.158281 
32   0.164145 
33   0.169613 
34   0.152738 
35   0.135698 
36   0.160716 
37   0.162166 
 
$$$$ 
 
