PCCDB-ID:  7114 
public computational chemistry database (PCCDB) project, http://pccdb.org 
 
 24 25  0  0  0  0  0  0  0  0999 V2000 
   -1.3883   -0.0931    0.6118 C   0  0  0  0  0  0  0  0  0  0  0  0 
   -0.8845    0.9516   -0.1653 C   0  0  0  0  0  0  0  0  0  0  0  0 
   -0.5175   -1.0650    1.1081 C   0  0  0  0  0  0  0  0  0  0  0  0 
    0.4793    1.0251   -0.4422 C   0  0  0  0  0  0  0  0  0  0  0  0 
    0.8459   -0.9941    0.8281 C   0  0  0  0  0  0  0  0  0  0  0  0 
    3.5707   -1.0337   -0.4925 C   0  0  0  0  0  0  0  0  0  0  0  0 
    3.4802    1.3724   -0.2952 C   0  0  0  0  0  0  0  0  0  0  0  0 
    4.9306   -0.9683   -0.7729 C   0  0  0  0  0  0  0  0  0  0  0  0 
    4.8387    1.4558   -0.5770 C   0  0  0  0  0  0  0  0  0  0  0  0 
    1.3674    0.0529    0.0491 C   0  0  0  0  0  0  0  0  0  0  0  0 
    2.8186    0.1308   -0.2482 C   0  0  0  0  0  0  0  0  0  0  0  0 
    5.5491    0.2801   -0.8129 C   0  0  0  0  0  0  0  0  0  0  0  0 
    6.9846    0.3587   -1.1114 N   0  0  0  0  0  0  0  0  0  0  0  0 
    7.5892   -0.6977   -1.3000 O   0  0  0  0  0  0  0  0  0  0  0  0 
    7.5002    1.4762   -1.1561 O   0  0  0  0  0  0  0  0  0  0  0  0 
   -2.4513   -0.1495    0.8289 H   0  0  0  0  0  0  0  0  0  0  0  0 
   -1.5555    1.7077   -0.5636 H   0  0  0  0  0  0  0  0  0  0  0  0 
   -0.8987   -1.8769    1.7214 H   0  0  0  0  0  0  0  0  0  0  0  0 
    0.8570    1.8277   -1.0695 H   0  0  0  0  0  0  0  0  0  0  0  0 
    1.5181   -1.7407    1.2415 H   0  0  0  0  0  0  0  0  0  0  0  0 
    3.0769   -2.0003   -0.4886 H   0  0  0  0  0  0  0  0  0  0  0  0 
    2.9267    2.2817   -0.0832 H   0  0  0  0  0  0  0  0  0  0  0  0 
    5.5132   -1.8596   -0.9706 H   0  0  0  0  0  0  0  0  0  0  0  0 
    5.3553    2.4072   -0.6074 H   0  0  0  0  0  0  0  0  0  0  0  0 
  1 16  1  0  0  0  0 
  1  3  2  0  0  0  0 
  2  1  1  0  0  0  0 
  3 18  1  0  0  0  0 
  4  2  2  0  0  0  0 
  4 10  1  0  0  0  0 
  5  3  1  0  0  0  0 
  5 20  1  0  0  0  0 
  6 21  1  0  0  0  0 
  6 11  2  0  0  0  0 
  7 11  1  0  0  0  0 
  7 22  1  0  0  0  0 
  8  6  1  0  0  0  0 
  9  7  2  0  0  0  0 
 10  5  2  0  0  0  0 
 11 10  1  0  0  0  0 
 12  8  2  0  0  0  0 
 12  9  1  0  0  0  0 
 13 12  1  0  0  0  0 
 14 13  2  0  0  0  0 
 15 13  2  0  0  0  0 
 17  2  1  0  0  0  0 
 19  4  1  0  0  0  0 
 23  8  1  0  0  0  0 
 24  9  1  0  0  0  0 
M  END 
>  <HBA> 
0 
 
>  <HBD> 
0 
 
>  <TPSA> 
45.82 
 
>  <cid> 
7114 
 
>  <dipole> 
5.52 
 
>  <excitation_energy_1> 
3.689 
 
>  <excitation_energy_2> 
3.763 
 
>  <excitation_energy_3> 
4.108 
 
>  <excitation_energy_4> 
4.231 
 
>  <homo_energy> 
-6.697 
 
>  <homo_lumo_gap> 
4.256 
 
>  <logP> 
3.785 
 
>  <lumo_energy> 
-2.441 
 
>  <melting_point> 
80.38 
 
>  <molecular_refractivity> 
60.7 
 
>  <oscillator_strength_1> 
0.1651 
 
>  <oscillator_strength_2> 
0.2341 
 
>  <oscillator_strength_3> 
0.0023 
 
>  <oscillator_strength_4> 
0.0118 
 
>  <open_babel_can_smiles> 
O=N(=O)c1ccc(cc1)c1ccccc1 
 
>  <mulliken_charges> 
24 
1   -0.123162 
2   -0.133349 
3   -0.133241 
4   -0.170816 
5   -0.170899 
6   -0.186022 
7   -0.186288 
8   -0.154305 
9   -0.154138 
10   0.085592 
11   0.108304 
12   0.278829 
13   0.376584 
14   -0.39722 
15   -0.397254 
16   0.137642 
17   0.138235 
18   0.138181 
19   0.138319 
20   0.138266 
21   0.149981 
22   0.150018 
23   0.183385 
24   0.183357 
 
>  <lowdin_charges> 
24 
1   -0.147911 
2   -0.152521 
3   -0.151449 
4   -0.157477 
5   -0.158501 
6   -0.155111 
7   -0.155847 
8   -0.13657 
9   -0.136027 
10   -0.006671 
11   0.022329 
12   0.000156 
13   0.308808 
14   -0.250005 
15   -0.249352 
16   0.16027 
17   0.163191 
18   0.162752 
19   0.162678 
20   0.163096 
21   0.168462 
22   0.169085 
23   0.188585 
24   0.188028 
 
$$$$ 
 
