PCCDB-ID:  15760 
public computational chemistry database (PCCDB) project, http://pccdb.org 
 
 27 28  0  0  0  0  0  0  0  0999 V2000 
    0.9069   -0.0281    0.0752 C   0  0  0  0  0  0  0  0  0  0  0  0 
    3.1471   -1.2233    0.0619 C   0  0  0  0  0  0  0  0  0  0  0  0 
    4.5374   -1.2557    0.0455 C   0  0  0  0  0  0  0  0  0  0  0  0 
    5.2591    3.7378    0.0183 C   0  0  0  0  0  0  0  0  0  0  0  0 
    4.8326    4.2710    1.3972 C   0  0  0  0  0  0  0  0  0  0  0  0 
    3.1142    1.1992    0.0425 C   0  0  0  0  0  0  0  0  0  0  0  0 
    6.7313    1.6280   -0.0138 C   0  0  0  0  0  0  0  0  0  0  0  0 
    2.4208   -0.0106    0.0592 C   0  0  0  0  0  0  0  0  0  0  0  0 
    5.5121    2.2576    0.0019 C   0  0  0  0  0  0  0  0  0  0  0  0 
    4.5186    1.2079    0.0297 C   0  0  0  0  0  0  0  0  0  0  0  0 
    5.2126   -0.0332    0.0300 C   0  0  0  0  0  0  0  0  0  0  0  0 
    4.5177    5.7021    1.3147 N   0  0  0  0  0  0  0  0  0  0  0  0 
    6.5626    0.2543    0.0068 N   0  0  0  0  0  0  0  0  0  0  0  0 
    0.5204   -1.0525    0.0666 H   0  0  0  0  0  0  0  0  0  0  0  0 
    0.4867    0.4904   -0.7958 H   0  0  0  0  0  0  0  0  0  0  0  0 
    0.5051    0.4679    0.9680 H   0  0  0  0  0  0  0  0  0  0  0  0 
    2.5982   -2.1619    0.0738 H   0  0  0  0  0  0  0  0  0  0  0  0 
    5.0740   -2.2012    0.0434 H   0  0  0  0  0  0  0  0  0  0  0  0 
    6.1664    4.2699   -0.3016 H   0  0  0  0  0  0  0  0  0  0  0  0 
    4.4754    4.0053   -0.7021 H   0  0  0  0  0  0  0  0  0  0  0  0 
    5.6185    4.0186    2.1320 H   0  0  0  0  0  0  0  0  0  0  0  0 
    3.9255    3.7466    1.7202 H   0  0  0  0  0  0  0  0  0  0  0  0 
    2.5630    2.1375    0.0346 H   0  0  0  0  0  0  0  0  0  0  0  0 
    7.7247    2.0562   -0.0402 H   0  0  0  0  0  0  0  0  0  0  0  0 
    5.3700    6.2265    1.1172 H   0  0  0  0  0  0  0  0  0  0  0  0 
    4.1901    6.0355    2.2200 H   0  0  0  0  0  0  0  0  0  0  0  0 
    7.3059   -0.4252   -0.0218 H   0  0  0  0  0  0  0  0  0  0  0  0 
  1 16  1  0  0  0  0 
  2 17  1  0  0  0  0 
  3  2  2  0  0  0  0 
  4  5  1  0  0  0  0 
  5 22  1  0  0  0  0 
  5 21  1  0  0  0  0 
  6  8  2  0  0  0  0 
  7  9  2  0  0  0  0 
  7 13  1  0  0  0  0 
  8  2  1  0  0  0  0 
  8  1  1  0  0  0  0 
  9  4  1  0  0  0  0 
  9 10  1  0  0  0  0 
 10 11  2  0  0  0  0 
 10  6  1  0  0  0  0 
 11  3  1  0  0  0  0 
 12  5  1  0  0  0  0 
 12 26  1  0  0  0  0 
 13 11  1  0  0  0  0 
 14  1  1  0  0  0  0 
 15  1  1  0  0  0  0 
 18  3  1  0  0  0  0 
 19  4  1  0  0  0  0 
 20  4  1  0  0  0  0 
 23  6  1  0  0  0  0 
 24  7  1  0  0  0  0 
 25 12  1  0  0  0  0 
 27 13  1  0  0  0  0 
M  END 
>  <HBA> 
1 
 
>  <HBD> 
2 
 
>  <TPSA> 
41.81 
 
>  <cid> 
15760 
 
>  <dipole> 
2.86 
 
>  <excitation_energy_1> 
4.462 
 
>  <excitation_energy_2> 
4.647 
 
>  <excitation_energy_3> 
4.702 
 
>  <excitation_energy_4> 
4.968 
 
>  <homo_energy> 
-5.195 
 
>  <homo_lumo_gap> 
5.154 
 
>  <logP> 
2.678 
 
>  <lumo_energy> 
-0.041 
 
>  <melting_point> 
158.19 
 
>  <molecular_refractivity> 
55.75 
 
>  <oscillator_strength_1> 
0.0552 
 
>  <oscillator_strength_2> 
0.001 
 
>  <oscillator_strength_3> 
0.0472 
 
>  <oscillator_strength_4> 
0.0082 
 
>  <open_babel_can_smiles> 
NCCc1c[nH]c2c1cc(C)cc2 
 
>  <mulliken_charges> 
27 
1   -0.529252 
2   -0.206586 
3   -0.161563 
4   -0.334592 
5   -0.132166 
6   -0.272486 
7   -0.008034 
8   0.173673 
9   0.074644 
10   0.085758 
11   0.312636 
12   -0.715522 
13   -0.693979 
14   0.148594 
15   0.157451 
16   0.156572 
17   0.113702 
18   0.117456 
19   0.126081 
20   0.156357 
21   0.113043 
22   0.147036 
23   0.12156 
24   0.141774 
25   0.289436 
26   0.294663 
27   0.323745 
 
>  <lowdin_charges> 
27 
1   -0.442651 
2   -0.175497 
3   -0.189318 
4   -0.272744 
5   -0.205888 
6   -0.175076 
7   -0.137221 
8   -0.015622 
9   -0.06091 
10   -0.032342 
11   0.030552 
12   -0.560615 
13   -0.208749 
14   0.152264 
15   0.15777 
16   0.157071 
17   0.151854 
18   0.153907 
19   0.142837 
20   0.157213 
21   0.118542 
22   0.145629 
23   0.154607 
24   0.160676 
25   0.249499 
26   0.253611 
27   0.2906 
 
$$$$ 
 
