PCCDB-ID:  18566 
public computational chemistry database (PCCDB) project, http://pccdb.org 
 
 14 14  0  0  1  0  0  0  0  0999 V2000 
    0.1285    1.2049    0.4138 C   0  0  0  0  0  0  0  0  0  0  0  0 
   -1.0432    0.6172   -0.4124 C   0  0  0  0  0  0  0  0  0  0  0  0 
    1.6944   -0.6791    1.2763 C   0  0  0  0  0  0  0  0  0  0  0  0 
   -0.4675   -1.7635   -1.2774 C   0  0  0  0  0  0  0  0  0  0  0  0 
    0.9187   -0.1208    0.1768 C   0  0  1  0  0  0  0  0  0  0  0  0 
   -0.4517   -0.8087   -0.1771 C   0  0  1  0  0  0  0  0  0  0  0  0 
    2.2860   -1.1148    2.1758 N   0  0  0  0  0  0  0  0  0  0  0  0 
   -0.4712   -2.4979   -2.1771 N   0  0  0  0  0  0  0  0  0  0  0  0 
   -0.1288    1.3293    1.4688 H   0  0  0  0  0  0  0  0  0  0  0  0 
    0.6022    2.1186    0.0492 H   0  0  0  0  0  0  0  0  0  0  0  0 
   -0.9900    0.8988   -1.4672 H   0  0  0  0  0  0  0  0  0  0  0  0 
   -2.0586    0.7827   -0.0468 H   0  0  0  0  0  0  0  0  0  0  0  0 
    1.5452   -0.0497   -0.7175 H   0  0  0  0  0  0  0  0  0  0  0  0 
   -0.8824   -1.2695    0.7170 H   0  0  0  0  0  0  0  0  0  0  0  0 
  1  9  1  0  0  0  0 
  2  6  1  0  0  0  0 
  2 12  1  0  0  0  0 
  2  1  1  0  0  0  0 
  3  7  3  0  0  0  0 
  4  6  1  0  0  0  0 
  5 13  1  6  0  0  0 
  5  1  1  0  0  0  0 
  5  3  1  0  0  0  0 
  6  5  1  0  0  0  0 
  6 14  1  1  0  0  0 
  8  4  3  0  0  0  0 
 10  1  1  0  0  0  0 
 11  2  1  0  0  0  0 
M  END 
>  <HBA> 
2 
 
>  <HBD> 
0 
 
>  <TPSA> 
47.58 
 
>  <cid> 
18566 
 
>  <dipole> 
4.75 
 
>  <excitation_energy_1> 
7.039 
 
>  <excitation_energy_2> 
7.151 
 
>  <excitation_energy_3> 
7.265 
 
>  <excitation_energy_4> 
7.285 
 
>  <homo_energy> 
-8.768 
 
>  <homo_lumo_gap> 
8.531 
 
>  <logP> 
1.06 
 
>  <lumo_energy> 
-0.237 
 
>  <melting_point> 
63.82 
 
>  <molecular_refractivity> 
28.34 
 
>  <oscillator_strength_1> 
0.0004 
 
>  <oscillator_strength_2> 
0.0074 
 
>  <oscillator_strength_3> 
0.0179 
 
>  <oscillator_strength_4> 
0.0199 
 
>  <open_babel_can_smiles> 
N#C[C@@H]1CC[C@H]1C#N 
 
>  <mulliken_charges> 
14 
1   -0.280756 
2   -0.280947 
3   0.351135 
4   0.351209 
5   -0.172721 
6   -0.172794 
7   -0.455474 
8   -0.455464 
9   0.176398 
10   0.174191 
11   0.176385 
12   0.174208 
13   0.207312 
14   0.20732 
 
>  <lowdin_charges> 
14 
1   -0.265226 
2   -0.263925 
3   -0.021631 
4   -0.021903 
5   -0.122636 
6   -0.122426 
7   -0.109925 
8   -0.109923 
9   0.165223 
10   0.164056 
11   0.165196 
12   0.162899 
13   0.189987 
14   0.190234 
 
$$$$ 
 
