PCCDB-ID:  41542 
public computational chemistry database (PCCDB) project, http://pccdb.org 
 
 30 30  0  0  1  0  0  0  0  0999 V2000 
    3.2229   -0.3671    3.2951 C   0  0  0  0  0  0  0  0  0  0  0  0 
    2.1271   -2.9115    0.5524 C   0  0  0  0  0  0  0  0  0  0  0  0 
    3.1039   -0.0719    1.9992 C   0  0  0  0  0  0  0  0  0  0  0  0 
    7.4365   -0.8508   -0.0393 C   0  0  0  0  0  0  0  0  0  0  0  0 
    6.3717   -1.6921   -0.7601 C   0  0  0  0  0  0  0  0  0  0  0  0 
    6.8228   -0.0326    1.1078 C   0  0  0  0  0  0  0  0  0  0  0  0 
    5.1960   -0.8226   -1.2365 C   0  0  0  0  0  0  0  0  0  0  0  0 
    5.6452    0.8287    0.6203 C   0  0  0  0  0  0  0  0  0  0  0  0 
    2.5135   -1.5090    0.1242 C   0  0  0  0  0  0  0  0  0  0  0  0 
    4.5524    0.0108   -0.1034 C   0  0  0  0  0  0  0  0  0  0  0  0 
    3.7087   -0.8671    0.8623 C   0  0  1  0  0  0  0  0  0  0  0  0 
    1.8912   -0.8985   -0.7242 O   0  0  0  0  0  0  0  0  0  0  0  0 
    2.7480    0.2374    4.0633 H   0  0  0  0  0  0  0  0  0  0  0  0 
    3.8061   -1.2191    3.6393 H   0  0  0  0  0  0  0  0  0  0  0  0 
    1.9979   -2.9542    1.6403 H   0  0  0  0  0  0  0  0  0  0  0  0 
    2.9304   -3.6147    0.2964 H   0  0  0  0  0  0  0  0  0  0  0  0 
    1.2043   -3.2169    0.0546 H   0  0  0  0  0  0  0  0  0  0  0  0 
    2.5074    0.7889    1.6937 H   0  0  0  0  0  0  0  0  0  0  0  0 
    7.8983   -0.1630   -0.7631 H   0  0  0  0  0  0  0  0  0  0  0  0 
    8.2418   -1.4945    0.3370 H   0  0  0  0  0  0  0  0  0  0  0  0 
    6.0114   -2.4785   -0.0806 H   0  0  0  0  0  0  0  0  0  0  0  0 
    6.8167   -2.2130   -1.6175 H   0  0  0  0  0  0  0  0  0  0  0  0 
    7.5865    0.6098    1.5643 H   0  0  0  0  0  0  0  0  0  0  0  0 
    6.4815   -0.7123    1.9017 H   0  0  0  0  0  0  0  0  0  0  0  0 
    4.4372   -1.4380   -1.7345 H   0  0  0  0  0  0  0  0  0  0  0  0 
    5.5672   -0.1240   -1.9993 H   0  0  0  0  0  0  0  0  0  0  0  0 
    6.0277    1.5794   -0.0861 H   0  0  0  0  0  0  0  0  0  0  0  0 
    5.2135    1.3844    1.4610 H   0  0  0  0  0  0  0  0  0  0  0  0 
    3.8424    0.7078   -0.5650 H   0  0  0  0  0  0  0  0  0  0  0  0 
    4.3187   -1.6685    1.2956 H   0  0  0  0  0  0  0  0  0  0  0  0 
  1 14  1  0  0  0  0 
  1 13  1  0  0  0  0 
  2 15  1  0  0  0  0 
  3  1  2  0  0  0  0 
  4 20  1  0  0  0  0 
  4  6  1  0  0  0  0 
  5 21  1  0  0  0  0 
  5  4  1  0  0  0  0 
  6 23  1  0  0  0  0 
  6 24  1  0  0  0  0 
  7  5  1  0  0  0  0 
  7 10  1  0  0  0  0 
  8  6  1  0  0  0  0 
  8 28  1  0  0  0  0 
  9  2  1  0  0  0  0 
  9 11  1  0  0  0  0 
 10  8  1  0  0  0  0 
 10 11  1  0  0  0  0 
 11 30  1  1  0  0  0 
 11  3  1  0  0  0  0 
 12  9  2  0  0  0  0 
 16  2  1  0  0  0  0 
 17  2  1  0  0  0  0 
 18  3  1  0  0  0  0 
 19  4  1  0  0  0  0 
 22  5  1  0  0  0  0 
 25  7  1  0  0  0  0 
 26  7  1  0  0  0  0 
 27  8  1  0  0  0  0 
 29 10  1  0  0  0  0 
M  END 
>  <HBA> 
1 
 
>  <HBD> 
0 
 
>  <TPSA> 
17.07 
 
>  <cid> 
41542 
 
>  <dipole> 
2.39 
 
>  <excitation_energy_1> 
4.166 
 
>  <excitation_energy_2> 
5.803 
 
>  <excitation_energy_3> 
5.927 
 
>  <excitation_energy_4> 
6.052 
 
>  <homo_energy> 
-6.416 
 
>  <homo_lumo_gap> 
5.761 
 
>  <logP> 
2.958 
 
>  <lumo_energy> 
-0.656 
 
>  <melting_point> 
-6.51 
 
>  <molecular_refractivity> 
52.6 
 
>  <oscillator_strength_1> 
0.0086 
 
>  <oscillator_strength_2> 
0.0586 
 
>  <oscillator_strength_3> 
0.0143 
 
>  <oscillator_strength_4> 
0.0428 
 
>  <open_babel_can_smiles> 
C=C[C@@H](C(=O)C)C1CCCCC1 
 
>  <mulliken_charges> 
30 
1   -0.344765 
2   -0.533566 
3   -0.051768 
4   -0.254098 
5   -0.261603 
6   -0.260523 
7   -0.279017 
8   -0.272063 
9   0.456244 
10   -0.082665 
11   -0.210586 
12   -0.446034 
13   0.146824 
14   0.138586 
15   0.17412 
16   0.169667 
17   0.178006 
18   0.146974 
19   0.127953 
20   0.128489 
21   0.122996 
22   0.132272 
23   0.131158 
24   0.128326 
25   0.140712 
26   0.132225 
27   0.128435 
28   0.138277 
29   0.144609 
30   0.130815 
 
>  <lowdin_charges> 
30 
1   -0.342534 
2   -0.474635 
3   -0.138468 
4   -0.280439 
5   -0.28268 
6   -0.282284 
7   -0.284133 
8   -0.283774 
9   0.17233 
10   -0.128454 
11   -0.162103 
12   -0.237492 
13   0.163809 
14   0.155489 
15   0.171251 
16   0.170787 
17   0.171831 
18   0.160808 
19   0.138959 
20   0.143182 
21   0.133723 
22   0.145542 
23   0.145557 
24   0.137381 
25   0.148523 
26   0.144672 
27   0.141839 
28   0.14912 
29   0.154511 
30   0.147681 
 
$$$$ 
 
