PCCDB-ID:  18360 
public computational chemistry database (PCCDB) project, http://pccdb.org 
 
 33 34  0  0  1  0  0  0  0  0999 V2000 
    3.1863   -2.1024    0.0817 C   0  0  0  0  0  0  0  0  0  0  0  0 
    3.0605   -0.4465   -1.7864 C   0  0  0  0  0  0  0  0  0  0  0  0 
    1.0524   -0.8631   -0.3172 C   0  0  0  0  0  0  0  0  0  0  0  0 
    3.8819    0.2139    1.6855 C   0  0  0  0  0  0  0  0  0  0  0  0 
    2.5901    1.7146    0.3507 C   0  0  0  0  0  0  0  0  0  0  0  0 
    4.2726    1.2719    2.5162 C   0  0  0  0  0  0  0  0  0  0  0  0 
    2.9636    2.7775    1.1605 C   0  0  0  0  0  0  0  0  0  0  0  0 
    4.9614    3.5086    4.1338 C   0  0  0  0  0  0  0  0  0  0  0  0 
    6.2634    5.7230    4.5181 C   0  0  0  0  0  0  0  0  0  0  0  0 
    3.0373    0.4000    0.5878 C   0  0  0  0  0  0  0  0  0  0  0  0 
    3.8130    2.5631    2.2547 C   0  0  0  0  0  0  0  0  0  0  0  0 
    5.1032    4.8640    4.7823 C   0  0  2  0  0  0  0  0  0  0  0  0 
    2.5950   -0.7446   -0.3413 C   0  0  0  0  0  0  0  0  0  0  0  0 
    4.1324    3.6731    2.9909 O   0  0  0  0  0  0  0  0  0  0  0  0 
    6.1675    4.9655    5.7336 O   0  0  0  0  0  0  0  0  0  0  0  0 
    2.8485   -2.8839   -0.6083 H   0  0  0  0  0  0  0  0  0  0  0  0 
    2.8658   -2.3910    1.0894 H   0  0  0  0  0  0  0  0  0  0  0  0 
    4.2821   -2.0943    0.0607 H   0  0  0  0  0  0  0  0  0  0  0  0 
    2.7418   -1.2474   -2.4652 H   0  0  0  0  0  0  0  0  0  0  0  0 
    4.1526   -0.3708   -1.8381 H   0  0  0  0  0  0  0  0  0  0  0  0 
    2.6435    0.4935   -2.1631 H   0  0  0  0  0  0  0  0  0  0  0  0 
    0.7195   -1.6740   -0.9769 H   0  0  0  0  0  0  0  0  0  0  0  0 
    0.5678    0.0594   -0.6543 H   0  0  0  0  0  0  0  0  0  0  0  0 
    0.6916   -1.0777    0.6952 H   0  0  0  0  0  0  0  0  0  0  0  0 
    4.2596   -0.7748    1.9222 H   0  0  0  0  0  0  0  0  0  0  0  0 
    1.9279    1.9167   -0.4868 H   0  0  0  0  0  0  0  0  0  0  0  0 
    4.9328    1.0697    3.3523 H   0  0  0  0  0  0  0  0  0  0  0  0 
    2.6085    3.7850    0.9659 H   0  0  0  0  0  0  0  0  0  0  0  0 
    4.5072    2.7991    4.8408 H   0  0  0  0  0  0  0  0  0  0  0  0 
    5.9528    3.1244    3.8558 H   0  0  0  0  0  0  0  0  0  0  0  0 
    6.1732    6.8029    4.6330 H   0  0  0  0  0  0  0  0  0  0  0  0 
    7.0308    5.3899    3.8189 H   0  0  0  0  0  0  0  0  0  0  0  0 
    4.1658    5.3309    5.0890 H   0  0  0  0  0  0  0  0  0  0  0  0 
  1 17  1  0  0  0  0 
  2 13  1  0  0  0  0 
  3 24  1  0  0  0  0 
  4 25  1  0  0  0  0 
  4  6  2  0  0  0  0 
  5 10  2  0  0  0  0 
  5  7  1  0  0  0  0 
  6 27  1  0  0  0  0 
  7 11  2  0  0  0  0 
  8 12  1  0  0  0  0 
  8 29  1  0  0  0  0 
  9 31  1  0  0  0  0 
  9 12  1  0  0  0  0 
  9 15  1  0  0  0  0 
 10  4  1  0  0  0  0 
 11  6  1  0  0  0  0 
 11 14  1  0  0  0  0 
 12 33  1  1  0  0  0 
 12 15  1  0  0  0  0 
 13  3  1  0  0  0  0 
 13  1  1  0  0  0  0 
 13 10  1  0  0  0  0 
 14  8  1  0  0  0  0 
 16  1  1  0  0  0  0 
 18  1  1  0  0  0  0 
 19  2  1  0  0  0  0 
 20  2  1  0  0  0  0 
 21  2  1  0  0  0  0 
 22  3  1  0  0  0  0 
 23  3  1  0  0  0  0 
 26  5  1  0  0  0  0 
 28  7  1  0  0  0  0 
 30  8  1  0  0  0  0 
 32  9  1  0  0  0  0 
M  END 
>  <HBA> 
2 
 
>  <HBD> 
0 
 
>  <TPSA> 
21.76 
 
>  <cid> 
18360 
 
>  <dipole> 
1.07 
 
>  <excitation_energy_1> 
4.984 
 
>  <excitation_energy_2> 
5.385 
 
>  <excitation_energy_3> 
5.664 
 
>  <excitation_energy_4> 
5.743 
 
>  <homo_energy> 
-5.807 
 
>  <homo_lumo_gap> 
5.853 
 
>  <logP> 
2.762 
 
>  <lumo_energy> 
0.046 
 
>  <melting_point> 
30.51 
 
>  <molecular_refractivity> 
60.79 
 
>  <oscillator_strength_1> 
0.0281 
 
>  <oscillator_strength_2> 
0.0 
 
>  <oscillator_strength_3> 
0.1718 
 
>  <oscillator_strength_4> 
0.0104 
 
>  <open_babel_can_smiles> 
CC(c1ccc(cc1)OC[C@H]1OC1)(C)C 
 
>  <mulliken_charges> 
33 
1   -0.456268 
2   -0.437797 
3   -0.43782 
4   -0.209111 
5   -0.192024 
6   -0.197226 
7   -0.177802 
8   -0.052904 
9   -0.10295 
10   0.181115 
11   0.380632 
12   0.088829 
13   0.01743 
14   -0.528099 
15   -0.445237 
16   0.140614 
17   0.144514 
18   0.144396 
19   0.136954 
20   0.146271 
21   0.141539 
22   0.136935 
23   0.141417 
24   0.146534 
25   0.12707 
26   0.126037 
27   0.133878 
28   0.134055 
29   0.15201 
30   0.147759 
31   0.156698 
32   0.155017 
33   0.157532 
 
>  <lowdin_charges> 
33 
1   -0.44203 
2   -0.438837 
3   -0.440572 
4   -0.162263 
5   -0.154335 
6   -0.213933 
7   -0.181479 
8   -0.131533 
9   -0.158484 
10   -0.017563 
11   0.09667 
12   -0.026221 
13   0.018049 
14   -0.203435 
15   -0.282222 
16   0.151092 
17   0.148348 
18   0.146843 
19   0.146781 
20   0.1491 
21   0.148047 
22   0.146813 
23   0.148125 
24   0.150589 
25   0.159223 
26   0.155696 
27   0.162256 
28   0.163888 
29   0.148085 
30   0.145477 
31   0.15564 
32   0.155991 
33   0.156193 
 
$$$$ 
 
