PCCDB-ID:  23729 
public computational chemistry database (PCCDB) project, http://pccdb.org 
 
 25 25  0  0  0  0  0  0  0  0999 V2000 
    3.6354   -0.7332    0.1044 C   0  0  0  0  0  0  0  0  0  0  0  0 
    5.6526   -2.0873   -0.3647 C   0  0  0  0  0  0  0  0  0  0  0  0 
    7.1245    2.2915    4.4623 C   0  0  0  0  0  0  0  0  0  0  0  0 
    6.7775    3.6349    4.3315 C   0  0  0  0  0  0  0  0  0  0  0  0 
    6.6105    1.3263    3.5948 C   0  0  0  0  0  0  0  0  0  0  0  0 
    5.3788    3.0551    2.4169 C   0  0  0  0  0  0  0  0  0  0  0  0 
    5.9039    3.9886    3.3064 C   0  0  0  0  0  0  0  0  0  0  0  0 
    5.7409    1.7204    2.5725 C   0  0  0  0  0  0  0  0  0  0  0  0 
    5.8496   -0.2001    1.1384 C   0  0  0  0  0  0  0  0  0  0  0  0 
    5.0537   -0.9636    0.3416 N   0  0  0  0  0  0  0  0  0  0  0  0 
    5.5180    5.4009    3.1496 N   0  0  0  0  0  0  0  0  0  0  0  0 
    7.0376   -0.3709    1.3331 O   0  0  0  0  0  0  0  0  0  0  0  0 
    5.9944    6.2140    3.9408 O   0  0  0  0  0  0  0  0  0  0  0  0 
    4.7420    5.6848    2.2372 O   0  0  0  0  0  0  0  0  0  0  0  0 
    5.1195    0.8267    1.7168 O   0  0  0  0  0  0  0  0  0  0  0  0 
    3.0569   -1.6187    0.3981 H   0  0  0  0  0  0  0  0  0  0  0  0 
    3.4562   -0.5460   -0.9625 H   0  0  0  0  0  0  0  0  0  0  0  0 
    3.2888    0.1225    0.6777 H   0  0  0  0  0  0  0  0  0  0  0  0 
    5.1533   -3.0229   -0.0822 H   0  0  0  0  0  0  0  0  0  0  0  0 
    6.7084   -2.1462   -0.1058 H   0  0  0  0  0  0  0  0  0  0  0  0 
    5.5502   -1.9536   -1.4493 H   0  0  0  0  0  0  0  0  0  0  0  0 
    7.8020    1.9874    5.2542 H   0  0  0  0  0  0  0  0  0  0  0  0 
    7.1632    4.3969    4.9965 H   0  0  0  0  0  0  0  0  0  0  0  0 
    6.8883    0.2859    3.6964 H   0  0  0  0  0  0  0  0  0  0  0  0 
    4.7047    3.3627    1.6283 H   0  0  0  0  0  0  0  0  0  0  0  0 
  1 10  1  0  0  0  0 
  1 16  1  0  0  0  0 
  1 18  1  0  0  0  0 
  2 20  1  0  0  0  0 
  2 19  1  0  0  0  0 
  2 10  1  0  0  0  0 
  3 22  1  0  0  0  0 
  4  3  1  0  0  0  0 
  4 23  1  0  0  0  0 
  5 24  1  0  0  0  0 
  5  3  2  0  0  0  0 
  6  8  2  0  0  0  0 
  6  7  1  0  0  0  0 
  7  4  2  0  0  0  0 
  8  5  1  0  0  0  0 
  9 12  2  0  0  0  0 
  9 15  1  0  0  0  0 
 10  9  1  0  0  0  0 
 11  7  1  0  0  0  0 
 11 13  2  0  0  0  0 
 14 11  2  0  0  0  0 
 15  8  1  0  0  0  0 
 17  1  1  0  0  0  0 
 21  2  1  0  0  0  0 
 25  6  1  0  0  0  0 
M  END 
>  <HBA> 
3 
 
>  <HBD> 
0 
 
>  <TPSA> 
75.36 
 
>  <cid> 
23729 
 
>  <dipole> 
5.51 
 
>  <excitation_energy_1> 
3.744 
 
>  <excitation_energy_2> 
3.812 
 
>  <excitation_energy_3> 
4.111 
 
>  <excitation_energy_4> 
4.269 
 
>  <homo_energy> 
-6.914 
 
>  <homo_lumo_gap> 
4.531 
 
>  <logP> 
2.178 
 
>  <lumo_energy> 
-2.384 
 
>  <melting_point> 
81.25 
 
>  <molecular_refractivity> 
54.85 
 
>  <oscillator_strength_1> 
0.0011 
 
>  <oscillator_strength_2> 
0.0171 
 
>  <oscillator_strength_3> 
0.0052 
 
>  <oscillator_strength_4> 
0.0016 
 
>  <open_babel_can_smiles> 
O=C(N(C)C)Oc1cccc(c1)N(=O)=O 
 
>  <mulliken_charges> 
25 
1   -0.318919 
2   -0.320265 
3   -0.155333 
4   -0.144419 
5   -0.114926 
6   -0.203207 
7   0.269656 
8   0.363839 
9   0.787922 
10   -0.436731 
11   0.378861 
12   -0.50798 
13   -0.392972 
14   -0.393849 
15   -0.558481 
16   0.161021 
17   0.162066 
18   0.200749 
19   0.15851 
20   0.207429 
21   0.160056 
22   0.153962 
23   0.182398 
24   0.173215 
25   0.187395 
 
>  <lowdin_charges> 
25 
1   -0.350701 
2   -0.346674 
3   -0.142257 
4   -0.147938 
5   -0.143601 
6   -0.157532 
7   0.007011 
8   0.111494 
9   0.212563 
10   -0.099244 
11   0.311534 
12   -0.300595 
13   -0.246259 
14   -0.247753 
15   -0.173604 
16   0.15384 
17   0.151729 
18   0.180981 
19   0.152145 
20   0.184937 
21   0.150653 
22   0.171171 
23   0.189538 
24   0.183731 
25   0.19483 
 
$$$$ 
 
