PCCDB-ID:  19901 
public computational chemistry database (PCCDB) project, http://pccdb.org 
 
 20 20  0  0  0  0  0  0  0  0999 V2000 
    3.5032   -0.3035    0.9960 C   0  0  0  0  0  0  0  0  0  0  0  0 
    4.6835    1.7255   -4.2218 C   0  0  0  0  0  0  0  0  0  0  0  0 
    2.3891    0.1477    0.0343 C   0  0  0  0  0  0  0  0  0  0  0  0 
    3.5170    0.9600   -2.0970 C   0  0  0  0  0  0  0  0  0  0  0  0 
    3.6618    3.3014   -2.5157 C   0  0  0  0  0  0  0  0  0  0  0  0 
    2.6101    2.5931   -0.6166 C   0  0  0  0  0  0  0  0  0  0  0  0 
    3.9486    1.9961   -2.9319 C   0  0  0  0  0  0  0  0  0  0  0  0 
    2.8350    1.2412   -0.9106 C   0  0  0  0  0  0  0  0  0  0  0  0 
    3.0080    3.6073   -1.3895 N   0  0  0  0  0  0  0  0  0  0  0  0 
    3.1467   -1.0981    1.6614 H   0  0  0  0  0  0  0  0  0  0  0  0 
    3.8474    0.5315    1.6162 H   0  0  0  0  0  0  0  0  0  0  0  0 
    4.3691   -0.6861    0.4438 H   0  0  0  0  0  0  0  0  0  0  0  0 
    5.6181    1.1793   -4.0440 H   0  0  0  0  0  0  0  0  0  0  0  0 
    4.9355    2.6577   -4.7373 H   0  0  0  0  0  0  0  0  0  0  0  0 
    4.0801    1.1179   -4.9073 H   0  0  0  0  0  0  0  0  0  0  0  0 
    1.5292    0.4994    0.6180 H   0  0  0  0  0  0  0  0  0  0  0  0 
    2.0389   -0.7171   -0.5440 H   0  0  0  0  0  0  0  0  0  0  0  0 
    3.7108   -0.0754   -2.3759 H   0  0  0  0  0  0  0  0  0  0  0  0 
    3.9754    4.1457   -3.1299 H   0  0  0  0  0  0  0  0  0  0  0  0 
    2.0732    2.8666    0.2924 H   0  0  0  0  0  0  0  0  0  0  0  0 
  1 11  1  0  0  0  0 
  1 10  1  0  0  0  0 
  2 13  1  0  0  0  0 
  2  7  1  0  0  0  0 
  3 16  1  0  0  0  0 
  3  1  1  0  0  0  0 
  4  8  2  0  0  0  0 
  5  9  1  0  0  0  0 
  6 20  1  0  0  0  0 
  7  5  2  0  0  0  0 
  7  4  1  0  0  0  0 
  8  6  1  0  0  0  0 
  8  3  1  0  0  0  0 
  9  6  2  0  0  0  0 
 12  1  1  0  0  0  0 
 14  2  1  0  0  0  0 
 15  2  1  0  0  0  0 
 17  3  1  0  0  0  0 
 18  4  1  0  0  0  0 
 19  5  1  0  0  0  0 
M  END 
>  <HBA> 
1 
 
>  <HBD> 
0 
 
>  <TPSA> 
12.89 
 
>  <cid> 
19901 
 
>  <dipole> 
2.55 
 
>  <excitation_energy_1> 
4.782 
 
>  <excitation_energy_2> 
5.212 
 
>  <excitation_energy_3> 
5.234 
 
>  <excitation_energy_4> 
5.965 
 
>  <homo_energy> 
-6.618 
 
>  <homo_lumo_gap> 
6.117 
 
>  <logP> 
1.952 
 
>  <lumo_energy> 
-0.501 
 
>  <melting_point> 
26.83 
 
>  <molecular_refractivity> 
38.98 
 
>  <oscillator_strength_1> 
0.0051 
 
>  <oscillator_strength_2> 
0.0687 
 
>  <oscillator_strength_3> 
0.0023 
 
>  <oscillator_strength_4> 
0.0439 
 
>  <open_babel_can_smiles> 
CCc1cncc(c1)C 
 
>  <mulliken_charges> 
20 
1   -0.434897 
2   -0.534985 
3   -0.344708 
4   -0.195635 
5   -0.016175 
6   -0.015113 
7   0.165276 
8   0.162367 
9   -0.409233 
10   0.146885 
11   0.153751 
12   0.148315 
13   0.164706 
14   0.161283 
15   0.165045 
16   0.148342 
17   0.145765 
18   0.126184 
19   0.131147 
20   0.13168 
 
>  <lowdin_charges> 
20 
1   -0.44257 
2   -0.44332 
3   -0.271969 
4   -0.149428 
5   -0.111739 
6   -0.108219 
7   -0.015368 
8   -0.01747 
9   -0.144864 
10   0.152151 
11   0.153821 
12   0.150694 
13   0.162114 
14   0.160503 
15   0.163594 
16   0.152529 
17   0.151177 
18   0.153989 
19   0.152948 
20   0.151429 
 
$$$$ 
 
