PCCDB-ID:  6829 
public computational chemistry database (PCCDB) project, http://pccdb.org 
 
 24 25  0  0  0  0  0  0  0  0999 V2000 
   -1.5396    0.2834    0.2586 C   0  0  0  0  0  0  0  0  0  0  0  0 
   -0.9854    1.0283   -0.7848 C   0  0  0  0  0  0  0  0  0  0  0  0 
   -0.7021   -0.4162    1.1278 C   0  0  0  0  0  0  0  0  0  0  0  0 
    4.7338   -0.9835   -0.6798 C   0  0  0  0  0  0  0  0  0  0  0  0 
    5.4968    0.1687   -0.8758 C   0  0  0  0  0  0  0  0  0  0  0  0 
    0.3961    1.0763   -0.9560 C   0  0  0  0  0  0  0  0  0  0  0  0 
    0.6812   -0.3736    0.9535 C   0  0  0  0  0  0  0  0  0  0  0  0 
    3.3701   -0.8838   -0.4103 C   0  0  0  0  0  0  0  0  0  0  0  0 
    4.8862    1.4152   -0.7829 C   0  0  0  0  0  0  0  0  0  0  0  0 
    1.2475    0.3786   -0.0856 C   0  0  0  0  0  0  0  0  0  0  0  0 
    2.7204    0.3573   -0.3012 C   0  0  0  0  0  0  0  0  0  0  0  0 
    3.5270    1.4964   -0.4802 C   0  0  0  0  0  0  0  0  0  0  0  0 
    2.9913    2.8589   -0.2933 N   0  0  0  0  0  0  0  0  0  0  0  0 
    2.1554    3.0337    0.5887 O   0  0  0  0  0  0  0  0  0  0  0  0 
    3.4486    3.7452   -1.0173 O   0  0  0  0  0  0  0  0  0  0  0  0 
   -2.6173    0.2493    0.3923 H   0  0  0  0  0  0  0  0  0  0  0  0 
   -1.6303    1.5719   -1.4698 H   0  0  0  0  0  0  0  0  0  0  0  0 
   -1.1235   -0.9936    1.9462 H   0  0  0  0  0  0  0  0  0  0  0  0 
    5.1961   -1.9638   -0.7541 H   0  0  0  0  0  0  0  0  0  0  0  0 
    6.5572    0.1000   -1.0983 H   0  0  0  0  0  0  0  0  0  0  0  0 
    0.8170    1.6497   -1.7776 H   0  0  0  0  0  0  0  0  0  0  0  0 
    1.3307   -0.9093    1.6404 H   0  0  0  0  0  0  0  0  0  0  0  0 
    2.7734   -1.7849   -0.3060 H   0  0  0  0  0  0  0  0  0  0  0  0 
    5.4452    2.3326   -0.9241 H   0  0  0  0  0  0  0  0  0  0  0  0 
  1 16  1  0  0  0  0 
  1  3  2  0  0  0  0 
  2  1  1  0  0  0  0 
  3 18  1  0  0  0  0 
  4  8  2  0  0  0  0 
  5  9  2  0  0  0  0 
  5  4  1  0  0  0  0 
  6  2  2  0  0  0  0 
  6 10  1  0  0  0  0 
  7  3  1  0  0  0  0 
  7 22  1  0  0  0  0 
  8 23  1  0  0  0  0 
  8 11  1  0  0  0  0 
  9 12  1  0  0  0  0 
 10  7  2  0  0  0  0 
 11 10  1  0  0  0  0 
 12 11  2  0  0  0  0 
 12 13  1  0  0  0  0 
 13 14  2  0  0  0  0 
 15 13  2  0  0  0  0 
 17  2  1  0  0  0  0 
 19  4  1  0  0  0  0 
 20  5  1  0  0  0  0 
 21  6  1  0  0  0  0 
 24  9  1  0  0  0  0 
M  END 
>  <HBA> 
0 
 
>  <HBD> 
0 
 
>  <TPSA> 
45.82 
 
>  <cid> 
6829 
 
>  <dipole> 
4.1 
 
>  <excitation_energy_1> 
3.447 
 
>  <excitation_energy_2> 
3.718 
 
>  <excitation_energy_3> 
3.866 
 
>  <excitation_energy_4> 
4.227 
 
>  <homo_energy> 
-6.574 
 
>  <homo_lumo_gap> 
4.376 
 
>  <logP> 
3.785 
 
>  <lumo_energy> 
-2.199 
 
>  <melting_point> 
80.38 
 
>  <molecular_refractivity> 
60.7 
 
>  <oscillator_strength_1> 
0.0251 
 
>  <oscillator_strength_2> 
0.0204 
 
>  <oscillator_strength_3> 
0.0032 
 
>  <oscillator_strength_4> 
0.0045 
 
>  <open_babel_can_smiles> 
O=N(=O)c1ccccc1c1ccccc1 
 
>  <mulliken_charges> 
24 
1   -0.122778 
2   -0.132436 
3   -0.133088 
4   -0.111995 
5   -0.140274 
6   -0.151675 
7   -0.164342 
8   -0.184437 
9   -0.138912 
10   0.097628 
11   0.077422 
12   0.215442 
13   0.340548 
14   -0.371879 
15   -0.383909 
16   0.134015 
17   0.137012 
18   0.134162 
19   0.146751 
20   0.14871 
21   0.138951 
22   0.135142 
23   0.151493 
24   0.178448 
 
>  <lowdin_charges> 
24 
1   -0.149286 
2   -0.151302 
3   -0.153024 
4   -0.136259 
5   -0.148475 
6   -0.151533 
7   -0.158809 
8   -0.152451 
9   -0.138095 
10   -0.0008 
11   0.015626 
12   0.004135 
13   0.304198 
14   -0.227659 
15   -0.250884 
16   0.158362 
17   0.163148 
18   0.161009 
19   0.166559 
20   0.166315 
21   0.162102 
22   0.162109 
23   0.170238 
24   0.184778 
 
$$$$ 
 
