PCCDB-ID:  39555 
public computational chemistry database (PCCDB) project, http://pccdb.org 
 
 29 28  0  0  0  0  0  0  0  0999 V2000 
    2.8749   -1.6918    0.5231 C   0  0  0  0  0  0  0  0  0  0  0  0 
    0.0662    1.7562    0.1371 C   0  0  0  0  0  0  0  0  0  0  0  0 
    4.2381    1.1085   -4.2760 C   0  0  0  0  0  0  0  0  0  0  0  0 
    3.3208    3.4758   -4.4285 C   0  0  0  0  0  0  0  0  0  0  0  0 
    2.8284   -0.1655    0.7332 C   0  0  0  0  0  0  0  0  0  0  0  0 
    0.7139    0.5316   -0.5401 C   0  0  0  0  0  0  0  0  0  0  0  0 
    3.0327    1.2023   -1.3230 C   0  0  0  0  0  0  0  0  0  0  0  0 
    3.7567    2.3479   -3.4902 C   0  0  0  0  0  0  0  0  0  0  0  0 
    2.2225    0.5682   -0.4444 C   0  0  0  0  0  0  0  0  0  0  0  0 
    2.6210    1.9322   -2.5429 C   0  0  0  0  0  0  0  0  0  0  0  0 
    1.4520    2.1849   -2.8204 O   0  0  0  0  0  0  0  0  0  0  0  0 
    3.2847   -2.1890    1.4091 H   0  0  0  0  0  0  0  0  0  0  0  0 
    3.5065   -1.9465   -0.3347 H   0  0  0  0  0  0  0  0  0  0  0  0 
    1.8772   -2.1054    0.3394 H   0  0  0  0  0  0  0  0  0  0  0  0 
   -1.0255    1.6669    0.1154 H   0  0  0  0  0  0  0  0  0  0  0  0 
    0.3450    2.6701   -0.3938 H   0  0  0  0  0  0  0  0  0  0  0  0 
    0.3751    1.8514    1.1850 H   0  0  0  0  0  0  0  0  0  0  0  0 
    5.0749    1.3740   -4.9320 H   0  0  0  0  0  0  0  0  0  0  0  0 
    3.4288    0.7142   -4.9016 H   0  0  0  0  0  0  0  0  0  0  0  0 
    4.5713    0.3052   -3.6097 H   0  0  0  0  0  0  0  0  0  0  0  0 
    4.1430    3.7595   -5.0954 H   0  0  0  0  0  0  0  0  0  0  0  0 
    3.0129    4.3639   -3.8668 H   0  0  0  0  0  0  0  0  0  0  0  0 
    2.4682    3.1614   -5.0373 H   0  0  0  0  0  0  0  0  0  0  0  0 
    3.8438    0.2016    0.9230 H   0  0  0  0  0  0  0  0  0  0  0  0 
    2.2359    0.0510    1.6335 H   0  0  0  0  0  0  0  0  0  0  0  0 
    0.4012    0.5113   -1.5862 H   0  0  0  0  0  0  0  0  0  0  0  0 
    0.3483   -0.3817   -0.0529 H   0  0  0  0  0  0  0  0  0  0  0  0 
    4.1066    1.1650   -1.1418 H   0  0  0  0  0  0  0  0  0  0  0  0 
    4.5957    2.6939   -2.8685 H   0  0  0  0  0  0  0  0  0  0  0  0 
  1  5  1  0  0  0  0 
  1 12  1  0  0  0  0 
  2 17  1  0  0  0  0 
  3 20  1  0  0  0  0 
  3  8  1  0  0  0  0 
  4 22  1  0  0  0  0 
  4  8  1  0  0  0  0 
  5 24  1  0  0  0  0 
  5 25  1  0  0  0  0 
  6  9  1  0  0  0  0 
  6 27  1  0  0  0  0 
  6  2  1  0  0  0  0 
  7 28  1  0  0  0  0 
  7  9  2  0  0  0  0 
  8 29  1  0  0  0  0 
  8 10  1  0  0  0  0 
  9  5  1  0  0  0  0 
 10  7  1  0  0  0  0 
 11 10  2  0  0  0  0 
 13  1  1  0  0  0  0 
 14  1  1  0  0  0  0 
 15  2  1  0  0  0  0 
 16  2  1  0  0  0  0 
 18  3  1  0  0  0  0 
 19  3  1  0  0  0  0 
 21  4  1  0  0  0  0 
 23  4  1  0  0  0  0 
 26  6  1  0  0  0  0 
M  END 
>  <HBA> 
1 
 
>  <HBD> 
0 
 
>  <TPSA> 
17.07 
 
>  <cid> 
39555 
 
>  <dipole> 
2.64 
 
>  <excitation_energy_1> 
3.559 
 
>  <excitation_energy_2> 
5.298 
 
>  <excitation_energy_3> 
5.779 
 
>  <excitation_energy_4> 
6.221 
 
>  <homo_energy> 
-6.291 
 
>  <homo_lumo_gap> 
5.061 
 
>  <logP> 
2.958 
 
>  <lumo_energy> 
-1.23 
 
>  <melting_point> 
5.38 
 
>  <molecular_refractivity> 
49.91 
 
>  <oscillator_strength_1> 
0.0006 
 
>  <oscillator_strength_2> 
0.4002 
 
>  <oscillator_strength_3> 
0.0052 
 
>  <oscillator_strength_4> 
0.0151 
 
>  <open_babel_can_smiles> 
CCC(=CC(=O)C(C)C)CC 
 
>  <mulliken_charges> 
29 
1   -0.444237 
2   -0.44603 
3   -0.448935 
4   -0.43554 
5   -0.332097 
6   -0.319536 
7   -0.248763 
8   -0.164196 
9   0.208785 
10   0.44569 
11   -0.489652 
12   0.150698 
13   0.153178 
14   0.155097 
15   0.146508 
16   0.174947 
17   0.137113 
18   0.150672 
19   0.157845 
20   0.147387 
21   0.133145 
22   0.148127 
23   0.16251 
24   0.146634 
25   0.149092 
26   0.180583 
27   0.130428 
28   0.117347 
29   0.1332 
 
>  <lowdin_charges> 
29 
1   -0.441372 
2   -0.433519 
3   -0.442042 
4   -0.442433 
5   -0.272709 
6   -0.278671 
7   -0.24359 
8   -0.151196 
9   0.062079 
10   0.155124 
11   -0.260707 
12   0.154627 
13   0.153047 
14   0.151444 
15   0.150356 
16   0.16335 
17   0.141514 
18   0.154027 
19   0.155907 
20   0.151876 
21   0.146971 
22   0.154381 
23   0.160369 
24   0.149283 
25   0.151949 
26   0.17112 
27   0.142542 
28   0.150162 
29   0.146111 
 
$$$$ 
 
