PCCDB-ID:  32897 
public computational chemistry database (PCCDB) project, http://pccdb.org 
 
 24 24  0  0  0  0  0  0  0  0999 V2000 
    2.9268    2.5529   -1.8997 C   0  0  0  0  0  0  0  0  0  0  0  0 
    2.0018    0.9939   -0.3242 C   0  0  0  0  0  0  0  0  0  0  0  0 
    7.2347    3.0737   -0.3739 C   0  0  0  0  0  0  0  0  0  0  0  0 
    8.2331    2.5088   -1.1665 C   0  0  0  0  0  0  0  0  0  0  0  0 
    5.9625    2.4987   -0.3556 C   0  0  0  0  0  0  0  0  0  0  0  0 
    7.9558    1.3751   -1.9302 C   0  0  0  0  0  0  0  0  0  0  0  0 
    4.2812    0.7249   -1.0738 C   0  0  0  0  0  0  0  0  0  0  0  0 
    5.6567    1.3676   -1.1178 C   0  0  0  0  0  0  0  0  0  0  0  0 
    6.6787    0.8071   -1.9034 C   0  0  0  0  0  0  0  0  0  0  0  0 
    3.2095    1.6753   -0.7692 N   0  0  0  0  0  0  0  0  0  0  0  0 
    6.3735   -0.3180   -2.6302 O   0  0  0  0  0  0  0  0  0  0  0  0 
    2.1789    3.2985   -1.6078 H   0  0  0  0  0  0  0  0  0  0  0  0 
    2.5403    2.0047   -2.7818 H   0  0  0  0  0  0  0  0  0  0  0  0 
    3.8371    3.0799   -2.1985 H   0  0  0  0  0  0  0  0  0  0  0  0 
    1.2413    1.7360   -0.0571 H   0  0  0  0  0  0  0  0  0  0  0  0 
    2.2191    0.3933    0.5659 H   0  0  0  0  0  0  0  0  0  0  0  0 
    1.5663    0.3242   -1.0925 H   0  0  0  0  0  0  0  0  0  0  0  0 
    7.4425    3.9557    0.2254 H   0  0  0  0  0  0  0  0  0  0  0  0 
    9.2286    2.9438   -1.1948 H   0  0  0  0  0  0  0  0  0  0  0  0 
    5.1687    2.9264    0.2493 H   0  0  0  0  0  0  0  0  0  0  0  0 
    8.7309    0.9255   -2.5496 H   0  0  0  0  0  0  0  0  0  0  0  0 
    4.2767   -0.0402   -0.2850 H   0  0  0  0  0  0  0  0  0  0  0  0 
    4.0956    0.1849   -2.0194 H   0  0  0  0  0  0  0  0  0  0  0  0 
    7.1554   -0.5781   -3.1413 H   0  0  0  0  0  0  0  0  0  0  0  0 
  1 12  1  0  0  0  0 
  1 10  1  0  0  0  0 
  2 15  1  0  0  0  0 
  2 16  1  0  0  0  0 
  3  5  1  0  0  0  0 
  3 18  1  0  0  0  0 
  4  3  2  0  0  0  0 
  5 20  1  0  0  0  0 
  6  9  2  0  0  0  0 
  6  4  1  0  0  0  0 
  7 10  1  0  0  0  0 
  7 22  1  0  0  0  0 
  8  7  1  0  0  0  0 
  8  5  2  0  0  0  0 
  9  8  1  0  0  0  0 
 10  2  1  0  0  0  0 
 11  9  1  0  0  0  0 
 13  1  1  0  0  0  0 
 14  1  1  0  0  0  0 
 17  2  1  0  0  0  0 
 19  4  1  0  0  0  0 
 21  6  1  0  0  0  0 
 23  7  1  0  0  0  0 
 24 11  1  0  0  0  0 
M  END 
>  <HBA> 
2 
 
>  <HBD> 
1 
 
>  <TPSA> 
23.47 
 
>  <cid> 
32897 
 
>  <dipole> 
1.26 
 
>  <excitation_energy_1> 
4.77 
 
>  <excitation_energy_2> 
5.005 
 
>  <excitation_energy_3> 
5.111 
 
>  <excitation_energy_4> 
5.237 
 
>  <homo_energy> 
-5.668 
 
>  <homo_lumo_gap> 
5.788 
 
>  <logP> 
1.454 
 
>  <lumo_energy> 
0.12 
 
>  <melting_point> 
49.43 
 
>  <molecular_refractivity> 
45.94 
 
>  <oscillator_strength_1> 
0.0021 
 
>  <oscillator_strength_2> 
0.0435 
 
>  <oscillator_strength_3> 
0.0017 
 
>  <oscillator_strength_4> 
0.0119 
 
>  <open_babel_can_smiles> 
CN(Cc1ccccc1O)C 
 
>  <mulliken_charges> 
24 
1   -0.302555 
2   -0.291536 
3   -0.134572 
4   -0.13523 
5   -0.182586 
6   -0.191296 
7   -0.180348 
8   0.09819 
9   0.291739 
10   -0.372633 
11   -0.648247 
12   0.145516 
13   0.11772 
14   0.161098 
15   0.146899 
16   0.148733 
17   0.117395 
18   0.123585 
19   0.126725 
20   0.1466 
21   0.113214 
22   0.15258 
23   0.142279 
24   0.406732 
 
>  <lowdin_charges> 
24 
1   -0.361878 
2   -0.358264 
3   -0.17909 
4   -0.150049 
5   -0.152701 
6   -0.217117 
7   -0.197209 
8   -0.043938 
9   0.095066 
10   -0.181264 
11   -0.386559 
12   0.149122 
13   0.121246 
14   0.1572 
15   0.150109 
16   0.149536 
17   0.121547 
18   0.15604 
19   0.156229 
20   0.169013 
21   0.151828 
22   0.155727 
23   0.137991 
24   0.357414 
 
$$$$ 
 
