PCCDB-ID:  70145 
public computational chemistry database (PCCDB) project, http://pccdb.org 
 
 27 28  0  0  0  0  0  0  0  0999 V2000 
    0.8080    0.1705    0.0501 C   0  0  0  0  0  0  0  0  0  0  0  0 
    2.1906   -2.4650    0.0011 C   0  0  0  0  0  0  0  0  0  0  0  0 
    5.1378   -2.5379   -0.1098 C   0  0  0  0  0  0  0  0  0  0  0  0 
    6.5871    2.4358   -0.1945 C   0  0  0  0  0  0  0  0  0  0  0  0 
    7.2714    1.1983   -0.2173 C   0  0  0  0  0  0  0  0  0  0  0  0 
    5.2122    2.4551   -0.1362 C   0  0  0  0  0  0  0  0  0  0  0  0 
    6.5718    0.0112   -0.1818 C   0  0  0  0  0  0  0  0  0  0  0  0 
    3.0504    1.2504   -0.0417 C   0  0  0  0  0  0  0  0  0  0  0  0 
    2.3179    0.0847   -0.0088 C   0  0  0  0  0  0  0  0  0  0  0  0 
    2.9986   -1.1794   -0.0323 C   0  0  0  0  0  0  0  0  0  0  0  0 
    4.3884   -1.2223   -0.0857 C   0  0  0  0  0  0  0  0  0  0  0  0 
    4.4651    1.2479   -0.0995 C   0  0  0  0  0  0  0  0  0  0  0  0 
    5.1498   -0.0072   -0.1220 C   0  0  0  0  0  0  0  0  0  0  0  0 
    0.4859    1.2159    0.0737 H   0  0  0  0  0  0  0  0  0  0  0  0 
    0.3996   -0.3195    0.9429 H   0  0  0  0  0  0  0  0  0  0  0  0 
    0.3325   -0.3003   -0.8197 H   0  0  0  0  0  0  0  0  0  0  0  0 
    1.1173   -2.2742    0.0337 H   0  0  0  0  0  0  0  0  0  0  0  0 
    2.4345   -3.0762    0.8788 H   0  0  0  0  0  0  0  0  0  0  0  0 
    2.3793   -3.0856   -0.8834 H   0  0  0  0  0  0  0  0  0  0  0  0 
    4.4715   -3.3992   -0.0612 H   0  0  0  0  0  0  0  0  0  0  0  0 
    5.8332   -2.6157    0.7356 H   0  0  0  0  0  0  0  0  0  0  0  0 
    5.7362   -2.6395   -1.0243 H   0  0  0  0  0  0  0  0  0  0  0  0 
    7.1486    3.3657   -0.2227 H   0  0  0  0  0  0  0  0  0  0  0  0 
    8.3572    1.1846   -0.2641 H   0  0  0  0  0  0  0  0  0  0  0  0 
    4.6734    3.3999   -0.1174 H   0  0  0  0  0  0  0  0  0  0  0  0 
    7.1191   -0.9253   -0.1999 H   0  0  0  0  0  0  0  0  0  0  0  0 
    2.5355    2.2090   -0.0240 H   0  0  0  0  0  0  0  0  0  0  0  0 
  1 14  1  0  0  0  0 
  1 15  1  0  0  0  0 
  2 17  1  0  0  0  0 
  2 18  1  0  0  0  0 
  3 11  1  0  0  0  0 
  3 20  1  0  0  0  0 
  3 21  1  0  0  0  0 
  4  6  1  0  0  0  0 
  5  4  2  0  0  0  0 
  5  7  1  0  0  0  0 
  6 25  1  0  0  0  0 
  6 12  2  0  0  0  0 
  7 13  2  0  0  0  0 
  8 27  1  0  0  0  0 
  8  9  2  0  0  0  0 
  9  1  1  0  0  0  0 
 10  9  1  0  0  0  0 
 10  2  1  0  0  0  0 
 11 10  2  0  0  0  0 
 12  8  1  0  0  0  0 
 13 12  1  0  0  0  0 
 13 11  1  0  0  0  0 
 16  1  1  0  0  0  0 
 19  2  1  0  0  0  0 
 22  3  1  0  0  0  0 
 23  4  1  0  0  0  0 
 24  5  1  0  0  0  0 
 26  7  1  0  0  0  0 
M  END 
>  <HBA> 
0 
 
>  <HBD> 
0 
 
>  <TPSA> 
0.0 
 
>  <cid> 
70145 
 
>  <dipole> 
0.83 
 
>  <excitation_energy_1> 
4.191 
 
>  <excitation_energy_2> 
4.31 
 
>  <excitation_energy_3> 
5.196 
 
>  <excitation_energy_4> 
5.435 
 
>  <homo_energy> 
-5.483 
 
>  <homo_lumo_gap> 
4.664 
 
>  <logP> 
3.765 
 
>  <lumo_energy> 
-0.819 
 
>  <melting_point> 
62.17 
 
>  <molecular_refractivity> 
58.85 
 
>  <oscillator_strength_1> 
0.0675 
 
>  <oscillator_strength_2> 
0.0015 
 
>  <oscillator_strength_3> 
0.0026 
 
>  <oscillator_strength_4> 
0.0001 
 
>  <open_babel_can_smiles> 
Cc1c(C)cc2c(c1C)cccc2 
 
>  <mulliken_charges> 
27 
1   -0.543571 
2   -0.546947 
3   -0.540518 
4   -0.137036 
5   -0.133523 
6   -0.195088 
7   -0.201415 
8   -0.27802 
9   0.153371 
10   0.058148 
11   0.066527 
12   0.156169 
13   0.083514 
14   0.155827 
15   0.160035 
16   0.16023 
17   0.156476 
18   0.163075 
19   0.163052 
20   0.156344 
21   0.162369 
22   0.162469 
23   0.125788 
24   0.124703 
25   0.125589 
26   0.124941 
27   0.117489 
 
>  <lowdin_charges> 
27 
1   -0.443853 
2   -0.449156 
3   -0.449595 
4   -0.163023 
5   -0.157681 
6   -0.157522 
7   -0.165598 
8   -0.175336 
9   -0.007241 
10   -0.01973 
11   -0.010935 
12   -0.000243 
13   -0.010591 
14   0.155952 
15   0.158177 
16   0.158451 
17   0.158516 
18   0.160291 
19   0.160277 
20   0.161108 
21   0.160491 
22   0.160274 
23   0.156897 
24   0.153954 
25   0.155671 
26   0.158532 
27   0.151911 
 
$$$$ 
 
