PCCDB-ID:  13407 
public computational chemistry database (PCCDB) project, http://pccdb.org 
 
 22 22  0  0  0  0  0  0  0  0999 V2000 
    5.1806    0.0300    4.6447 C   0  0  0  0  0  0  0  0  0  0  0  0 
    5.3943   -0.4301    3.1977 C   0  0  0  0  0  0  0  0  0  0  0  0 
    6.0409   -7.0214    1.7089 C   0  0  0  0  0  0  0  0  0  0  0  0 
    4.8015   -6.4001    1.5430 C   0  0  0  0  0  0  0  0  0  0  0  0 
    7.2033   -6.2499    1.7648 C   0  0  0  0  0  0  0  0  0  0  0  0 
    4.7229   -5.0108    1.4348 C   0  0  0  0  0  0  0  0  0  0  0  0 
    7.1281   -4.8602    1.6584 C   0  0  0  0  0  0  0  0  0  0  0  0 
    5.5442   -1.9496    3.0950 C   0  0  0  0  0  0  0  0  0  0  0  0 
    5.8859   -4.2315    1.4982 C   0  0  0  0  0  0  0  0  0  0  0  0 
    5.7907   -2.4442    1.3298 S   0  0  0  0  0  0  0  0  0  0  0  0 
    5.0829    1.1199    4.6983 H   0  0  0  0  0  0  0  0  0  0  0  0 
    6.0227   -0.2611    5.2841 H   0  0  0  0  0  0  0  0  0  0  0  0 
    4.2706   -0.4082    5.0720 H   0  0  0  0  0  0  0  0  0  0  0  0 
    6.2893    0.0520    2.7842 H   0  0  0  0  0  0  0  0  0  0  0  0 
    4.5492   -0.1059    2.5771 H   0  0  0  0  0  0  0  0  0  0  0  0 
    6.1013   -8.1036    1.7884 H   0  0  0  0  0  0  0  0  0  0  0  0 
    3.8946   -6.9970    1.4927 H   0  0  0  0  0  0  0  0  0  0  0  0 
    8.1709   -6.7298    1.8870 H   0  0  0  0  0  0  0  0  0  0  0  0 
    3.7620   -4.5245    1.2942 H   0  0  0  0  0  0  0  0  0  0  0  0 
    8.0301   -4.2565    1.6942 H   0  0  0  0  0  0  0  0  0  0  0  0 
    4.6504   -2.4542    3.4779 H   0  0  0  0  0  0  0  0  0  0  0  0 
    6.4052   -2.2936    3.6786 H   0  0  0  0  0  0  0  0  0  0  0  0 
  1 11  1  0  0  0  0 
  1 13  1  0  0  0  0 
  1 12  1  0  0  0  0 
  2  1  1  0  0  0  0 
  3  5  1  0  0  0  0 
  3 16  1  0  0  0  0 
  4  3  2  0  0  0  0 
  5 18  1  0  0  0  0 
  6  9  2  0  0  0  0 
  6  4  1  0  0  0  0 
  7 20  1  0  0  0  0 
  7  5  2  0  0  0  0 
  8  2  1  0  0  0  0 
  8 21  1  0  0  0  0 
  8 22  1  0  0  0  0 
  9  7  1  0  0  0  0 
 10  9  1  0  0  0  0 
 10  8  1  0  0  0  0 
 14  2  1  0  0  0  0 
 15  2  1  0  0  0  0 
 17  4  1  0  0  0  0 
 19  6  1  0  0  0  0 
M  END 
>  <HBA> 
1 
 
>  <HBD> 
0 
 
>  <TPSA> 
25.3 
 
>  <cid> 
13407 
 
>  <dipole> 
1.81 
 
>  <excitation_energy_1> 
4.418 
 
>  <excitation_energy_2> 
4.857 
 
>  <excitation_energy_3> 
5.253 
 
>  <excitation_energy_4> 
5.537 
 
>  <homo_energy> 
-6.022 
 
>  <homo_lumo_gap> 
5.6 
 
>  <logP> 
3.189 
 
>  <lumo_energy> 
-0.422 
 
>  <melting_point> 
14.8 
 
>  <molecular_refractivity> 
47.78 
 
>  <oscillator_strength_1> 
0.0004 
 
>  <oscillator_strength_2> 
0.0008 
 
>  <oscillator_strength_3> 
0.0012 
 
>  <oscillator_strength_4> 
0.0 
 
>  <open_babel_can_smiles> 
CCCSc1ccccc1 
 
>  <mulliken_charges> 
22 
1   -0.44441 
2   -0.263495 
3   -0.129595 
4   -0.120134 
5   -0.119937 
6   -0.142931 
7   -0.143049 
8   -0.392449 
9   -0.094969 
10   0.071536 
11   0.15034 
12   0.146257 
13   0.14625 
14   0.152749 
15   0.153108 
16   0.133815 
17   0.133968 
18   0.133969 
19   0.146398 
20   0.146818 
21   0.167828 
22   0.167933 
 
>  <lowdin_charges> 
22 
1   -0.442378 
2   -0.276465 
3   -0.148314 
4   -0.156846 
5   -0.156062 
6   -0.153959 
7   -0.154622 
8   -0.367903 
9   -0.126937 
10   0.107893 
11   0.15211 
12   0.149525 
13   0.149212 
14   0.151228 
15   0.151619 
16   0.157455 
17   0.160341 
18   0.159787 
19   0.166555 
20   0.167361 
21   0.15518 
22   0.155218 
 
$$$$ 
 
