PCCDB-ID:  25089 
public computational chemistry database (PCCDB) project, http://pccdb.org 
 
 22 22  0  0  0  0  0  0  0  0999 V2000 
   -0.4836    1.7020    0.0241 C   0  0  0  0  0  0  0  0  0  0  0  0 
   -1.1141    0.4618    0.0313 C   0  0  0  0  0  0  0  0  0  0  0  0 
    0.9055    1.7959   -0.0612 C   0  0  0  0  0  0  0  0  0  0  0  0 
    1.0224   -0.6494   -0.1314 C   0  0  0  0  0  0  0  0  0  0  0  0 
   -0.5093   -3.2012   -0.5143 C   0  0  0  0  0  0  0  0  0  0  0  0 
   -0.3721   -0.7329   -0.0435 C   0  0  0  0  0  0  0  0  0  0  0  0 
    1.6225    0.6073   -0.1360 C   0  0  0  0  0  0  0  0  0  0  0  0 
   -1.1186   -4.4293    0.1788 C   0  0  0  0  0  0  0  0  0  0  0  0 
   -1.0620   -1.9608    0.0285 N   0  0  0  0  0  0  0  0  0  0  0  0 
    3.0943    0.6702   -0.2311 N   0  0  0  0  0  0  0  0  0  0  0  0 
   -1.1328   -5.5217   -0.3279 O   0  0  0  0  0  0  0  0  0  0  0  0 
   -1.6012   -4.1875    1.4135 O   0  0  0  0  0  0  0  0  0  0  0  0 
    3.6169    1.7831   -0.2442 O   0  0  0  0  0  0  0  0  0  0  0  0 
    3.7105   -0.3935   -0.2914 O   0  0  0  0  0  0  0  0  0  0  0  0 
   -1.0825    2.6057    0.0822 H   0  0  0  0  0  0  0  0  0  0  0  0 
   -2.1983    0.4103    0.1021 H   0  0  0  0  0  0  0  0  0  0  0  0 
    1.4236    2.7456   -0.0731 H   0  0  0  0  0  0  0  0  0  0  0  0 
    1.6607   -1.5199   -0.1944 H   0  0  0  0  0  0  0  0  0  0  0  0 
   -0.6457   -3.3129   -1.5967 H   0  0  0  0  0  0  0  0  0  0  0  0 
    0.5655   -3.2371   -0.3172 H   0  0  0  0  0  0  0  0  0  0  0  0 
   -2.0368   -1.8465   -0.2336 H   0  0  0  0  0  0  0  0  0  0  0  0 
   -1.4813   -3.2280    1.5823 H   0  0  0  0  0  0  0  0  0  0  0  0 
  1  2  1  0  0  0  0 
  1 15  1  0  0  0  0 
  2 16  1  0  0  0  0 
  3  1  2  0  0  0  0 
  4  6  1  0  0  0  0 
  5 20  1  0  0  0  0 
  5  9  1  0  0  0  0 
  5  8  1  0  0  0  0 
  6  9  1  0  0  0  0 
  6  2  2  0  0  0  0 
  7  4  2  0  0  0  0 
  7  3  1  0  0  0  0 
  8 12  1  0  0  0  0 
 10  7  1  0  0  0  0 
 11  8  2  0  0  0  0 
 12 22  1  0  0  0  0 
 13 10  2  0  0  0  0 
 14 10  2  0  0  0  0 
 17  3  1  0  0  0  0 
 18  4  1  0  0  0  0 
 19  5  1  0  0  0  0 
 21  9  1  0  0  0  0 
M  END 
>  <HBA> 
3 
 
>  <HBD> 
2 
 
>  <TPSA> 
95.15 
 
>  <cid> 
25089 
 
>  <dipole> 
5.56 
 
>  <excitation_energy_1> 
3.378 
 
>  <excitation_energy_2> 
3.73 
 
>  <excitation_energy_3> 
4.253 
 
>  <excitation_energy_4> 
4.524 
 
>  <homo_energy> 
-6.768 
 
>  <homo_lumo_gap> 
4.117 
 
>  <logP> 
1.688 
 
>  <lumo_energy> 
-2.65 
 
>  <melting_point> 
154.16 
 
>  <molecular_refractivity> 
51.15 
 
>  <oscillator_strength_1> 
0.0301 
 
>  <oscillator_strength_2> 
0.0 
 
>  <oscillator_strength_3> 
0.0003 
 
>  <oscillator_strength_4> 
0.021 
 
>  <open_babel_can_smiles> 
OC(=O)CNc1cccc(c1)N(=O)=O 
 
>  <mulliken_charges> 
22 
1   -0.14201 
2   -0.168102 
3   -0.158603 
4   -0.209968 
5   -0.234578 
6   0.350631 
7   0.269156 
8   0.58759 
9   -0.719354 
10   0.384849 
11   -0.441731 
12   -0.563686 
13   -0.388381 
14   -0.393075 
15   0.154515 
16   0.140146 
17   0.184033 
18   0.185366 
19   0.19387 
20   0.208913 
21   0.336002 
22   0.424416 
 
>  <lowdin_charges> 
22 
1   -0.136291 
2   -0.168489 
3   -0.157709 
4   -0.184743 
5   -0.236712 
6   0.060094 
7   0.017002 
8   0.178391 
9   -0.30963 
10   0.309556 
11   -0.235544 
12   -0.348952 
13   -0.239545 
14   -0.245379 
15   0.171676 
16   0.161315 
17   0.189725 
18   0.188196 
19   0.169417 
20   0.182923 
21   0.279419 
22   0.355278 
 
$$$$ 
 
