PCCDB-ID:  25338 
public computational chemistry database (PCCDB) project, http://pccdb.org 
 
 18 18  0  0  0  0  0  0  0  0999 V2000 
    3.4638    1.4922   -0.4794 C   0  0  0  0  0  0  0  0  0  0  0  0 
    0.2879    1.9532    3.3858 C   0  0  0  0  0  0  0  0  0  0  0  0 
    0.5494    0.6660    4.0914 C   0  0  0  0  0  0  0  0  0  0  0  0 
    2.6827    0.2196   -0.2500 C   0  0  0  0  0  0  0  0  0  0  0  0 
    0.6122    0.7109    2.5694 C   0  0  0  0  0  0  0  0  0  0  0  0 
    1.9603    0.6370    1.9382 C   0  0  0  0  0  0  0  0  0  0  0  0 
    1.9789   -0.1140    0.7585 N   0  0  0  0  0  0  0  0  0  0  0  0 
    2.7133   -0.6683   -1.2741 O   0  0  0  0  0  0  0  0  0  0  0  0 
    2.9552    1.1351    2.4555 O   0  0  0  0  0  0  0  0  0  0  0  0 
    3.3566    2.1785    0.3584 H   0  0  0  0  0  0  0  0  0  0  0  0 
    3.1323    1.9752   -1.4074 H   0  0  0  0  0  0  0  0  0  0  0  0 
    4.5298    1.2547   -0.5821 H   0  0  0  0  0  0  0  0  0  0  0  0 
    1.0644    2.7112    3.4237 H   0  0  0  0  0  0  0  0  0  0  0  0 
   -0.7302    2.3280    3.3321 H   0  0  0  0  0  0  0  0  0  0  0  0 
   -0.2830    0.1266    4.5336 H   0  0  0  0  0  0  0  0  0  0  0  0 
    1.5026    0.5553    4.5990 H   0  0  0  0  0  0  0  0  0  0  0  0 
   -0.1910    0.2344    2.0177 H   0  0  0  0  0  0  0  0  0  0  0  0 
    3.2495   -0.3077   -1.9983 H   0  0  0  0  0  0  0  0  0  0  0  0 
  1  4  1  0  0  0  0 
  1 10  1  0  0  0  0 
  2 13  1  0  0  0  0 
  2  3  1  0  0  0  0 
  3 15  1  0  0  0  0 
  3 16  1  0  0  0  0 
  4  7  2  0  0  0  0 
  5  2  1  0  0  0  0 
  5  3  1  0  0  0  0 
  6  9  2  0  0  0  0 
  6  5  1  0  0  0  0 
  7  6  1  0  0  0  0 
  8  4  1  0  0  0  0 
 11  1  1  0  0  0  0 
 12  1  1  0  0  0  0 
 14  2  1  0  0  0  0 
 17  5  1  0  0  0  0 
 18  8  1  0  0  0  0 
M  END 
>  <HBA> 
3 
 
>  <HBD> 
1 
 
>  <TPSA> 
46.17 
 
>  <cid> 
25338 
 
>  <dipole> 
3.32 
 
>  <excitation_energy_1> 
4.317 
 
>  <excitation_energy_2> 
5.509 
 
>  <excitation_energy_3> 
5.754 
 
>  <excitation_energy_4> 
6.026 
 
>  <homo_energy> 
-6.588 
 
>  <homo_lumo_gap> 
5.788 
 
>  <logP> 
0.45 
 
>  <lumo_energy> 
-0.8 
 
>  <melting_point> 
65.98 
 
>  <molecular_refractivity> 
32.04 
 
>  <oscillator_strength_1> 
0.0015 
 
>  <oscillator_strength_2> 
0.0199 
 
>  <oscillator_strength_3> 
0.0032 
 
>  <oscillator_strength_4> 
0.2359 
 
>  <open_babel_can_smiles> 
O=C(C1CC1)/N=C(/O)\C 
 
>  <mulliken_charges> 
18 
1   -0.551066 
2   -0.303482 
3   -0.299223 
4   0.514426 
5   -0.179398 
6   0.543886 
7   -0.46336 
8   -0.557388 
9   -0.504401 
10   0.216377 
11   0.165614 
12   0.185586 
13   0.174178 
14   0.154136 
15   0.156857 
16   0.179656 
17   0.154185 
18   0.41342 
 
>  <lowdin_charges> 
18 
1   -0.48099 
2   -0.296384 
3   -0.290101 
4   0.178453 
5   -0.188907 
6   0.178948 
7   -0.198207 
8   -0.34162 
9   -0.29581 
10   0.194525 
11   0.165445 
12   0.176717 
13   0.171078 
14   0.160455 
15   0.163419 
16   0.172942 
17   0.168664 
18   0.361372 
 
$$$$ 
 
