PCCDB-ID:  21402 
public computational chemistry database (PCCDB) project, http://pccdb.org 
 
 30 32  0  0  0  0  0  0  0  0999 V2000 
   -3.6850   -0.7200    0.0988 C   0  0  0  0  0  0  0  0  0  0  0  0 
   -3.6907    0.6888   -0.0974 C   0  0  0  0  0  0  0  0  0  0  0  0 
   -2.4972   -1.4014    0.1675 C   0  0  0  0  0  0  0  0  0  0  0  0 
   -2.5083    1.3795   -0.1679 C   0  0  0  0  0  0  0  0  0  0  0  0 
    3.6581   -0.6856   -0.0573 C   0  0  0  0  0  0  0  0  0  0  0  0 
    3.6525    0.7127    0.0589 C   0  0  0  0  0  0  0  0  0  0  0  0 
   -1.2440   -0.7219    0.0553 C   0  0  0  0  0  0  0  0  0  0  0  0 
   -1.2497    0.7100   -0.0560 C   0  0  0  0  0  0  0  0  0  0  0  0 
    2.4958   -1.4300   -0.1019 C   0  0  0  0  0  0  0  0  0  0  0  0 
    2.4843    1.4480    0.1023 C   0  0  0  0  0  0  0  0  0  0  0  0 
    1.2301   -0.7302   -0.0210 C   0  0  0  0  0  0  0  0  0  0  0  0 
    1.2242    0.7382    0.0204 C   0  0  0  0  0  0  0  0  0  0  0  0 
   -0.0128   -1.3978    0.0320 C   0  0  0  0  0  0  0  0  0  0  0  0 
   -0.0240    1.3957   -0.0329 C   0  0  0  0  0  0  0  0  0  0  0  0 
    2.5899   -2.8140   -0.3050 N   0  0  0  0  0  0  0  0  0  0  0  0 
    2.5681    2.8327    0.3056 N   0  0  0  0  0  0  0  0  0  0  0  0 
   -0.0322   -2.7839    0.1078 O   0  0  0  0  0  0  0  0  0  0  0  0 
   -0.0540    2.7814   -0.1085 O   0  0  0  0  0  0  0  0  0  0  0  0 
   -4.6256   -1.2550    0.1946 H   0  0  0  0  0  0  0  0  0  0  0  0 
   -4.6357    1.2166   -0.1903 H   0  0  0  0  0  0  0  0  0  0  0  0 
   -2.5100   -2.4726    0.3478 H   0  0  0  0  0  0  0  0  0  0  0  0 
   -2.5298    2.4507   -0.3471 H   0  0  0  0  0  0  0  0  0  0  0  0 
    4.6128   -1.2038   -0.1194 H   0  0  0  0  0  0  0  0  0  0  0  0 
    4.6030    1.2384    0.1220 H   0  0  0  0  0  0  0  0  0  0  0  0 
    3.4756   -3.1996   -0.0014 H   0  0  0  0  0  0  0  0  0  0  0  0 
    1.7960   -3.3480    0.0163 H   0  0  0  0  0  0  0  0  0  0  0  0 
    3.4508    3.2246    0.0013 H   0  0  0  0  0  0  0  0  0  0  0  0 
    1.7706    3.3617   -0.0151 H   0  0  0  0  0  0  0  0  0  0  0  0 
   -0.7581   -3.1134   -0.4436 H   0  0  0  0  0  0  0  0  0  0  0  0 
   -0.7831    3.1058    0.4418 H   0  0  0  0  0  0  0  0  0  0  0  0 
  1  3  2  0  0  0  0 
  1 19  1  0  0  0  0 
  2  1  1  0  0  0  0 
  3 21  1  0  0  0  0 
  4  2  2  0  0  0  0 
  4  8  1  0  0  0  0 
  5  6  1  0  0  0  0 
  6 10  2  0  0  0  0 
  6 24  1  0  0  0  0 
  7  3  1  0  0  0  0 
  8 14  2  0  0  0  0 
  8  7  1  0  0  0  0 
  9  5  2  0  0  0  0 
  9 11  1  0  0  0  0 
 10 16  1  0  0  0  0 
 11 12  2  0  0  0  0 
 11 13  1  0  0  0  0 
 12 10  1  0  0  0  0 
 13  7  2  0  0  0  0 
 13 17  1  0  0  0  0 
 14 12  1  0  0  0  0 
 15  9  1  0  0  0  0 
 15 25  1  0  0  0  0 
 15 26  1  0  0  0  0 
 18 14  1  0  0  0  0 
 18 30  1  0  0  0  0 
 20  2  1  0  0  0  0 
 22  4  1  0  0  0  0 
 23  5  1  0  0  0  0 
 27 16  1  0  0  0  0 
 28 16  1  0  0  0  0 
 29 17  1  0  0  0  0 
M  END 
>  <HBA> 
4 
 
>  <HBD> 
4 
 
>  <TPSA> 
92.5 
 
>  <cid> 
21402 
 
>  <dipole> 
1.8 
 
>  <excitation_energy_1> 
2.019 
 
>  <excitation_energy_2> 
3.052 
 
>  <excitation_energy_3> 
3.414 
 
>  <excitation_energy_4> 
3.55 
 
>  <homo_energy> 
-3.935 
 
>  <homo_lumo_gap> 
2.544 
 
>  <logP> 
3.731 
 
>  <lumo_energy> 
-1.391 
 
>  <melting_point> 
275.26 
 
>  <molecular_refractivity> 
74.31 
 
>  <oscillator_strength_1> 
0.0415 
 
>  <oscillator_strength_2> 
0.1587 
 
>  <oscillator_strength_3> 
0.0185 
 
>  <oscillator_strength_4> 
0.0018 
 
>  <open_babel_can_smiles> 
Nc1ccc(c2c1c(O)c1ccccc1c2O)N 
 
>  <mulliken_charges> 
30 
1   -0.137127 
2   -0.137225 
3   -0.213305 
4   -0.213179 
5   -0.192141 
6   -0.19232 
7   0.123938 
8   0.124013 
9   0.251963 
10   0.252086 
11   0.073397 
12   0.073442 
13   0.147536 
14   0.147723 
15   -0.810431 
16   -0.810415 
17   -0.676999 
18   -0.67692 
19   0.130373 
20   0.13036 
21   0.122918 
22   0.122772 
23   0.109035 
24   0.109047 
25   0.307158 
26   0.349211 
27   0.307165 
28   0.349078 
29   0.414433 
30   0.414413 
 
>  <lowdin_charges> 
30 
1   -0.160678 
2   -0.160636 
3   -0.164307 
4   -0.164257 
5   -0.200701 
6   -0.20069 
7   -0.036869 
8   -0.036918 
9   0.044447 
10   0.044451 
11   -0.032925 
12   -0.032935 
13   0.081187 
14   0.081252 
15   -0.507867 
16   -0.507884 
17   -0.399383 
18   -0.399259 
19   0.159428 
20   0.159379 
21   0.151935 
22   0.15188 
23   0.150515 
24   0.150559 
25   0.268243 
26   0.284987 
27   0.268277 
28   0.284896 
29   0.361965 
30   0.36191 
 
$$$$ 
 
