PCCDB-ID:  25999 
public computational chemistry database (PCCDB) project, http://pccdb.org 
 
 22 23  0  0  0  0  0  0  0  0999 V2000 
    2.0990    2.3642    0.7771 C   0  0  0  0  0  0  0  0  0  0  0  0 
    2.9532    1.3482    0.6598 C   0  0  0  0  0  0  0  0  0  0  0  0 
    7.0445    3.9362   -0.0147 C   0  0  0  0  0  0  0  0  0  0  0  0 
    8.2939    3.3101   -0.0585 C   0  0  0  0  0  0  0  0  0  0  0  0 
    5.8533    3.2119   -0.1663 C   0  0  0  0  0  0  0  0  0  0  0  0 
    8.4056    1.9253   -0.2562 C   0  0  0  0  0  0  0  0  0  0  0  0 
    3.5885    0.9262   -0.6401 C   0  0  0  0  0  0  0  0  0  0  0  0 
    5.9692    1.8412   -0.3626 C   0  0  0  0  0  0  0  0  0  0  0  0 
    7.2245    1.2259   -0.4044 C   0  0  0  0  0  0  0  0  0  0  0  0 
    5.7069   -0.3894   -0.7157 C   0  0  0  0  0  0  0  0  0  0  0  0 
    5.0408    0.8175   -0.5578 N   0  0  0  0  0  0  0  0  0  0  0  0 
    5.2433   -1.4858   -0.9087 O   0  0  0  0  0  0  0  0  0  0  0  0 
    7.0671   -0.1275   -0.6136 O   0  0  0  0  0  0  0  0  0  0  0  0 
    1.6367    2.6147    1.7275 H   0  0  0  0  0  0  0  0  0  0  0  0 
    1.8190    2.9791   -0.0765 H   0  0  0  0  0  0  0  0  0  0  0  0 
    3.2163    0.7465    1.5292 H   0  0  0  0  0  0  0  0  0  0  0  0 
    6.9905    5.0097    0.1409 H   0  0  0  0  0  0  0  0  0  0  0  0 
    9.1959    3.9021    0.0625 H   0  0  0  0  0  0  0  0  0  0  0  0 
    4.8858    3.6984   -0.1158 H   0  0  0  0  0  0  0  0  0  0  0  0 
    9.3656    1.4221   -0.2942 H   0  0  0  0  0  0  0  0  0  0  0  0 
    3.3222    1.6249   -1.4429 H   0  0  0  0  0  0  0  0  0  0  0  0 
    3.2447   -0.0720   -0.9323 H   0  0  0  0  0  0  0  0  0  0  0  0 
  1 14  1  0  0  0  0 
  2  1  2  0  0  0  0 
  2 16  1  0  0  0  0 
  3 17  1  0  0  0  0 
  4  3  1  0  0  0  0 
  4 18  1  0  0  0  0 
  5 19  1  0  0  0  0 
  5  3  2  0  0  0  0 
  6  4  2  0  0  0  0 
  7 11  1  0  0  0  0 
  7  2  1  0  0  0  0 
  8  5  1  0  0  0  0 
  9  8  2  0  0  0  0 
  9  6  1  0  0  0  0 
 10 13  1  0  0  0  0 
 10 11  1  0  0  0  0 
 11  8  1  0  0  0  0 
 12 10  2  0  0  0  0 
 13  9  1  0  0  0  0 
 15  1  1  0  0  0  0 
 20  6  1  0  0  0  0 
 21  7  1  0  0  0  0 
 22  7  1  0  0  0  0 
M  END 
>  <HBA> 
3 
 
>  <HBD> 
0 
 
>  <TPSA> 
35.14 
 
>  <cid> 
25999 
 
>  <dipole> 
4.2 
 
>  <excitation_energy_1> 
4.878 
 
>  <excitation_energy_2> 
4.997 
 
>  <excitation_energy_3> 
5.437 
 
>  <excitation_energy_4> 
5.578 
 
>  <homo_energy> 
-6.022 
 
>  <homo_lumo_gap> 
5.674 
 
>  <logP> 
1.78 
 
>  <lumo_energy> 
-0.348 
 
>  <melting_point> 
63.56 
 
>  <molecular_refractivity> 
50.88 
 
>  <oscillator_strength_1> 
0.0637 
 
>  <oscillator_strength_2> 
0.0313 
 
>  <oscillator_strength_3> 
0.0679 
 
>  <oscillator_strength_4> 
0.0029 
 
>  <open_babel_can_smiles> 
C=CCn1c(=O)oc2c1cccc2 
 
>  <mulliken_charges> 
22 
1   -0.338876 
2   -0.04072 
3   -0.146911 
4   -0.141769 
5   -0.166347 
6   -0.189877 
7   -0.209357 
8   0.352556 
9   0.315586 
10   0.768044 
11   -0.57935 
12   -0.4954 
13   -0.519527 
14   0.154893 
15   0.144254 
16   0.150485 
17   0.135135 
18   0.136386 
19   0.146571 
20   0.153822 
21   0.164767 
22   0.205634 
 
>  <lowdin_charges> 
22 
1   -0.328599 
2   -0.154446 
3   -0.155546 
4   -0.162684 
5   -0.182609 
6   -0.171837 
7   -0.186467 
8   0.023397 
9   0.080768 
10   0.210163 
11   -0.069321 
12   -0.266008 
13   -0.13838 
14   0.167028 
15   0.158725 
16   0.163816 
17   0.160051 
18   0.163393 
19   0.169114 
20   0.174632 
21   0.158522 
22   0.18629 
 
$$$$ 
 
