PCCDB-ID:  22202 
public computational chemistry database (PCCDB) project, http://pccdb.org 
 
 32 31  0  0  1  0  0  0  0  0999 V2000 
    1.1480    0.4999    1.7422 C   0  0  0  0  0  0  0  0  0  0  0  0 
    9.6050    3.3371   -1.5815 C   0  0  0  0  0  0  0  0  0  0  0  0 
    6.8196    4.6890   -2.2405 C   0  0  0  0  0  0  0  0  0  0  0  0 
    2.6702    0.5528    1.5770 C   0  0  0  0  0  0  0  0  0  0  0  0 
    8.6052    2.9114   -2.6652 C   0  0  0  0  0  0  0  0  0  0  0  0 
    3.1217    1.4208    0.3953 C   0  0  0  0  0  0  0  0  0  0  0  0 
    4.6446    1.4770    0.2206 C   0  0  0  0  0  0  0  0  0  0  0  0 
    5.0957    2.3501   -0.9583 C   0  0  0  0  0  0  0  0  0  0  0  0 
    6.6208    2.3881   -1.1338 C   0  0  0  0  0  0  0  0  0  0  0  0 
    7.1135    3.1842   -2.3605 C   0  0  1  0  0  0  0  0  0  0  0  0 
    0.8584   -0.1256    2.5944 H   0  0  0  0  0  0  0  0  0  0  0  0 
    0.6663    0.0870    0.8472 H   0  0  0  0  0  0  0  0  0  0  0  0 
    0.7322    1.5015    1.9081 H   0  0  0  0  0  0  0  0  0  0  0  0 
   10.6303    3.1086   -1.8943 H   0  0  0  0  0  0  0  0  0  0  0  0 
    9.4272    2.8146   -0.6348 H   0  0  0  0  0  0  0  0  0  0  0  0 
    9.5569    4.4134   -1.3811 H   0  0  0  0  0  0  0  0  0  0  0  0 
    7.2003    5.2337   -3.1132 H   0  0  0  0  0  0  0  0  0  0  0  0 
    7.2884    5.1211   -1.3479 H   0  0  0  0  0  0  0  0  0  0  0  0 
    5.7445    4.8862   -2.1743 H   0  0  0  0  0  0  0  0  0  0  0  0 
    3.0599   -0.4669    1.4465 H   0  0  0  0  0  0  0  0  0  0  0  0 
    3.1264    0.9349    2.5014 H   0  0  0  0  0  0  0  0  0  0  0  0 
    8.7283    1.8361   -2.8574 H   0  0  0  0  0  0  0  0  0  0  0  0 
    8.8643    3.4183   -3.6055 H   0  0  0  0  0  0  0  0  0  0  0  0 
    2.7318    2.4414    0.5270 H   0  0  0  0  0  0  0  0  0  0  0  0 
    2.6631    1.0396   -0.5296 H   0  0  0  0  0  0  0  0  0  0  0  0 
    5.0323    0.4562    0.0863 H   0  0  0  0  0  0  0  0  0  0  0  0 
    5.1025    1.8543    1.1473 H   0  0  0  0  0  0  0  0  0  0  0  0 
    4.7072    3.3676   -0.8147 H   0  0  0  0  0  0  0  0  0  0  0  0 
    4.6332    1.9755   -1.8840 H   0  0  0  0  0  0  0  0  0  0  0  0 
    6.9875    1.3539   -1.2166 H   0  0  0  0  0  0  0  0  0  0  0  0 
    7.0752    2.7985   -0.2203 H   0  0  0  0  0  0  0  0  0  0  0  0 
    6.5531    2.8114   -3.2324 H   0  0  0  0  0  0  0  0  0  0  0  0 
  1 13  1  0  0  0  0 
  1 11  1  0  0  0  0 
  2 16  1  0  0  0  0 
  2 15  1  0  0  0  0 
  3 19  1  0  0  0  0 
  3 18  1  0  0  0  0 
  4  1  1  0  0  0  0 
  4 21  1  0  0  0  0 
  5 10  1  0  0  0  0 
  5  2  1  0  0  0  0 
  6 24  1  0  0  0  0 
  6  4  1  0  0  0  0 
  7  6  1  0  0  0  0 
  7 27  1  0  0  0  0 
  8 28  1  0  0  0  0 
  8  7  1  0  0  0  0 
  9  8  1  0  0  0  0 
  9 31  1  0  0  0  0 
 10 32  1  6  0  0  0 
 10  3  1  0  0  0  0 
 10  9  1  0  0  0  0 
 12  1  1  0  0  0  0 
 14  2  1  0  0  0  0 
 17  3  1  0  0  0  0 
 20  4  1  0  0  0  0 
 22  5  1  0  0  0  0 
 23  5  1  0  0  0  0 
 25  6  1  0  0  0  0 
 26  7  1  0  0  0  0 
 29  8  1  0  0  0  0 
 30  9  1  0  0  0  0 
M  END 
>  <HBA> 
0 
 
>  <HBD> 
0 
 
>  <TPSA> 
0.0 
 
>  <cid> 
22202 
 
>  <dipole> 
0.05 
 
>  <excitation_energy_1> 
7.472 
 
>  <excitation_energy_2> 
7.794 
 
>  <excitation_energy_3> 
7.82 
 
>  <excitation_energy_4> 
7.871 
 
>  <homo_energy> 
-7.878 
 
>  <homo_lumo_gap> 
10.174 
 
>  <logP> 
4.003 
 
>  <lumo_energy> 
2.297 
 
>  <melting_point> 
-29.22 
 
>  <molecular_refractivity> 
50.18 
 
>  <oscillator_strength_1> 
0.0128 
 
>  <oscillator_strength_2> 
0.0 
 
>  <oscillator_strength_3> 
0.0075 
 
>  <oscillator_strength_4> 
0.0141 
 
>  <open_babel_can_smiles> 
CCCCCC[C@H](CC)C 
 
>  <mulliken_charges> 
32 
1   -0.441227 
2   -0.449778 
3   -0.453306 
4   -0.24631 
5   -0.252049 
6   -0.245418 
7   -0.252722 
8   -0.259212 
9   -0.254571 
10   -0.061978 
11   0.140913 
12   0.140805 
13   0.140761 
14   0.141095 
15   0.146101 
16   0.144818 
17   0.138035 
18   0.141212 
19   0.144685 
20   0.1295 
21   0.129481 
22   0.126643 
23   0.12593 
24   0.125589 
25   0.125796 
26   0.125984 
27   0.126286 
28   0.131233 
29   0.125468 
30   0.123259 
31   0.127431 
32   0.115547 
 
>  <lowdin_charges> 
32 
1   -0.445353 
2   -0.447039 
3   -0.449174 
4   -0.27141 
5   -0.272777 
6   -0.274018 
7   -0.273353 
8   -0.275117 
9   -0.276404 
10   -0.124256 
11   0.149441 
12   0.146517 
13   0.145404 
14   0.148957 
15   0.14742 
16   0.14557 
17   0.147987 
18   0.146266 
19   0.147565 
20   0.137542 
21   0.138681 
22   0.136923 
23   0.138779 
24   0.135865 
25   0.137154 
26   0.135919 
27   0.13741 
28   0.138095 
29   0.13687 
30   0.136843 
31   0.138165 
32   0.135529 
 
$$$$ 
 
