PCCDB-ID:  48843 
public computational chemistry database (PCCDB) project, http://pccdb.org 
 
 36 38  0  0  1  0  0  0  0  0999 V2000 
    0.7373    0.1127   -0.3565 C   0  0  0  0  0  0  0  0  0  0  0  0 
    2.1512    5.0239   -5.0685 C   0  0  0  0  0  0  0  0  0  0  0  0 
    0.9178    4.9987   -4.4114 C   0  0  0  0  0  0  0  0  0  0  0  0 
    1.0980    1.9193    2.4521 C   0  0  0  0  0  0  0  0  0  0  0  0 
    1.8746    0.6508    2.8970 C   0  0  0  0  0  0  0  0  0  0  0  0 
    3.1824    4.1846   -4.6499 C   0  0  0  0  0  0  0  0  0  0  0  0 
    0.7133    4.1197   -3.3490 C   0  0  0  0  0  0  0  0  0  0  0  0 
    1.9007    2.4641    1.2394 C   0  0  0  0  0  0  0  0  0  0  0  0 
    3.0722    0.5695    1.9099 C   0  0  0  0  0  0  0  0  0  0  0  0 
    3.8556    1.9235   -1.8930 C   0  0  0  0  0  0  0  0  0  0  0  0 
    2.2001    0.5997   -0.4314 C   0  0  1  0  0  0  0  0  0  0  0  0 
    2.9873    3.3104   -3.5787 C   0  0  0  0  0  0  0  0  0  0  0  0 
    1.7393    3.2705   -2.9335 C   0  0  0  0  0  0  0  0  0  0  0  0 
    2.4515    1.3468   -1.7555 C   0  0  1  0  0  0  0  0  0  0  0  0 
    2.7181    1.3544    0.7195 N   0  0  0  0  0  0  0  0  0  0  0  0 
    4.0268    2.5036   -3.1912 O   0  0  0  0  0  0  0  0  0  0  0  0 
    1.4939    2.4098   -1.8883 O   0  0  0  0  0  0  0  0  0  0  0  0 
    0.4874   -0.4817   -1.2437 H   0  0  0  0  0  0  0  0  0  0  0  0 
    0.0371    0.9506   -0.3149 H   0  0  0  0  0  0  0  0  0  0  0  0 
    0.5826   -0.5193    0.5236 H   0  0  0  0  0  0  0  0  0  0  0  0 
    2.3144    5.7018   -5.9013 H   0  0  0  0  0  0  0  0  0  0  0  0 
    0.1127    5.6551   -4.7288 H   0  0  0  0  0  0  0  0  0  0  0  0 
    1.0278    2.6658    3.2504 H   0  0  0  0  0  0  0  0  0  0  0  0 
    0.0742    1.6643    2.1606 H   0  0  0  0  0  0  0  0  0  0  0  0 
    1.2427   -0.2405    2.8213 H   0  0  0  0  0  0  0  0  0  0  0  0 
    2.2167    0.7125    3.9354 H   0  0  0  0  0  0  0  0  0  0  0  0 
    4.1544    4.1932   -5.1341 H   0  0  0  0  0  0  0  0  0  0  0  0 
   -0.2390    4.0681   -2.8294 H   0  0  0  0  0  0  0  0  0  0  0  0 
    2.5794    3.2592    1.5784 H   0  0  0  0  0  0  0  0  0  0  0  0 
    1.2764    2.8848    0.4507 H   0  0  0  0  0  0  0  0  0  0  0  0 
    3.3417   -0.4551    1.6344 H   0  0  0  0  0  0  0  0  0  0  0  0 
    3.9590    1.0247    2.3733 H   0  0  0  0  0  0  0  0  0  0  0  0 
    4.6129    1.1402   -1.8067 H   0  0  0  0  0  0  0  0  0  0  0  0 
    4.0305    2.6736   -1.1157 H   0  0  0  0  0  0  0  0  0  0  0  0 
    2.8380   -0.2916   -0.4977 H   0  0  0  0  0  0  0  0  0  0  0  0 
    2.2883    0.6402   -2.5844 H   0  0  0  0  0  0  0  0  0  0  0  0 
  1 19  1  0  0  0  0 
  1 20  1  0  0  0  0 
  2  6  2  0  0  0  0 
  2  3  1  0  0  0  0 
  3  7  2  0  0  0  0 
  4  5  1  0  0  0  0 
  4 23  1  0  0  0  0 
  5 26  1  0  0  0  0 
  6 12  1  0  0  0  0 
  7 13  1  0  0  0  0 
  7 28  1  0  0  0  0 
  8 29  1  0  0  0  0 
  8  4  1  0  0  0  0 
  9 32  1  0  0  0  0 
  9  5  1  0  0  0  0 
 10 33  1  0  0  0  0 
 10 14  1  0  0  0  0 
 10 34  1  0  0  0  0 
 11 35  1  6  0  0  0 
 11  1  1  0  0  0  0 
 11 15  1  0  0  0  0 
 12 16  1  0  0  0  0 
 12 13  2  0  0  0  0 
 13 17  1  0  0  0  0 
 14 36  1  6  0  0  0 
 14 11  1  0  0  0  0 
 15  8  1  0  0  0  0 
 15  9  1  0  0  0  0 
 16 10  1  0  0  0  0 
 17 14  1  0  0  0  0 
 18  1  1  0  0  0  0 
 21  2  1  0  0  0  0 
 22  3  1  0  0  0  0 
 24  4  1  0  0  0  0 
 25  5  1  0  0  0  0 
 27  6  1  0  0  0  0 
 30  8  1  0  0  0  0 
 31  9  1  0  0  0  0 
M  END 
>  <HBA> 
3 
 
>  <HBD> 
0 
 
>  <TPSA> 
21.7 
 
>  <cid> 
48843 
 
>  <dipole> 
2.21 
 
>  <excitation_energy_1> 
4.834 
 
>  <excitation_energy_2> 
4.891 
 
>  <excitation_energy_3> 
5.147 
 
>  <excitation_energy_4> 
5.174 
 
>  <homo_energy> 
-5.48 
 
>  <homo_lumo_gap> 
5.742 
 
>  <logP> 
2.249 
 
>  <lumo_energy> 
0.261 
 
>  <melting_point> 
58.34 
 
>  <molecular_refractivity> 
70.85 
 
>  <oscillator_strength_1> 
0.0508 
 
>  <oscillator_strength_2> 
0.0041 
 
>  <oscillator_strength_3> 
0.0118 
 
>  <oscillator_strength_4> 
0.0015 
 
>  <open_babel_can_smiles> 
C[C@@H]([C@@H]1COc2c(O1)cccc2)N1CCCC1 
 
>  <mulliken_charges> 
36 
1   -0.458652 
2   -0.137572 
3   -0.139087 
4   -0.284777 
5   -0.285507 
6   -0.192486 
7   -0.193899 
8   -0.158496 
9   -0.140788 
10   -0.046565 
11   0.011067 
12   0.334759 
13   0.33476 
14   0.117041 
15   -0.399105 
16   -0.531495 
17   -0.549342 
18   0.143401 
19   0.168962 
20   0.146539 
21   0.125688 
22   0.125237 
23   0.138043 
24   0.141791 
25   0.140413 
26   0.138191 
27   0.136927 
28   0.133805 
29   0.138648 
30   0.172317 
31   0.13532 
32   0.14218 
33   0.149948 
34   0.171646 
35   0.131538 
36   0.13955 
 
>  <lowdin_charges> 
36 
1   -0.463211 
2   -0.166616 
3   -0.169772 
4   -0.299553 
5   -0.2999 
6   -0.177479 
7   -0.178762 
8   -0.218898 
9   -0.207132 
10   -0.142405 
11   -0.064917 
12   0.061554 
13   0.06038 
14   -0.014068 
15   -0.190664 
16   -0.209229 
17   -0.21141 
18   0.154158 
19   0.161619 
20   0.152067 
21   0.157701 
22   0.158093 
23   0.147689 
24   0.145041 
25   0.14398 
26   0.145836 
27   0.165835 
28   0.164136 
29   0.141215 
30   0.161804 
31   0.143301 
32   0.141199 
33   0.159444 
34   0.158551 
35   0.147356 
36   0.143057 
 
$$$$ 
 
