PCCDB-ID:  39588 
public computational chemistry database (PCCDB) project, http://pccdb.org 
 
 21 20  0  0  0  0  0  0  0  0999 V2000 
    4.4237    0.0214    0.5766 C   0  0  0  0  0  0  0  0  0  0  0  0 
    7.1315   -0.3869    5.2356 C   0  0  0  0  0  0  0  0  0  0  0  0 
    4.8650   -0.1484    6.1902 C   0  0  0  0  0  0  0  0  0  0  0  0 
    5.3471   -0.9113    1.3636 C   0  0  0  0  0  0  0  0  0  0  0  0 
    5.0558   -0.4239    3.8051 C   0  0  0  0  0  0  0  0  0  0  0  0 
    6.8481    0.6096    2.6009 N   0  0  0  0  0  0  0  0  0  0  0  0 
    5.6966   -0.2566    4.9960 N   0  0  0  0  0  0  0  0  0  0  0  0 
    5.8475   -0.3127    2.6136 N   0  0  0  0  0  0  0  0  0  0  0  0 
    3.8584   -0.6545    3.6932 O   0  0  0  0  0  0  0  0  0  0  0  0 
    7.3497    0.7966    1.5034 O   0  0  0  0  0  0  0  0  0  0  0  0 
    4.1003   -0.4762   -0.3445 H   0  0  0  0  0  0  0  0  0  0  0  0 
    4.9426    0.9435    0.3014 H   0  0  0  0  0  0  0  0  0  0  0  0 
    3.5404    0.2657    1.1716 H   0  0  0  0  0  0  0  0  0  0  0  0 
    7.2760   -1.0038    6.1306 H   0  0  0  0  0  0  0  0  0  0  0  0 
    7.6057    0.5875    5.3953 H   0  0  0  0  0  0  0  0  0  0  0  0 
    7.6239   -0.8778    4.3979 H   0  0  0  0  0  0  0  0  0  0  0  0 
    5.2771    0.6245    6.8483 H   0  0  0  0  0  0  0  0  0  0  0  0 
    4.8356   -1.0988    6.7400 H   0  0  0  0  0  0  0  0  0  0  0  0 
    3.8502    0.1185    5.8993 H   0  0  0  0  0  0  0  0  0  0  0  0 
    6.2312   -1.1711    0.7766 H   0  0  0  0  0  0  0  0  0  0  0  0 
    4.8240   -1.8245    1.6501 H   0  0  0  0  0  0  0  0  0  0  0  0 
  1 13  1  0  0  0  0 
  1  4  1  0  0  0  0 
  2 15  1  0  0  0  0 
  2 14  1  0  0  0  0 
  3 18  1  0  0  0  0 
  3 17  1  0  0  0  0 
  4 21  1  0  0  0  0 
  4  8  1  0  0  0  0 
  5  7  1  0  0  0  0 
  6  8  1  0  0  0  0 
  7  2  1  0  0  0  0 
  7  3  1  0  0  0  0 
  8  5  1  0  0  0  0 
  9  5  2  0  0  0  0 
 10  6  1  0  0  0  0 
 11  1  1  0  0  0  0 
 12  1  1  0  0  0  0 
 16  2  1  0  0  0  0 
 19  3  1  0  0  0  0 
 20  4  1  0  0  0  0 
M  RAD  2   6   2  10   2 
M  END 
>  <HBA> 
5 
 
>  <HBD> 
0 
 
>  <TPSA> 
52.98 
 
>  <cid> 
39588 
 
>  <dipole> 
2.56 
 
>  <excitation_energy_1> 
3.067 
 
>  <excitation_energy_2> 
4.364 
 
>  <excitation_energy_3> 
4.943 
 
>  <excitation_energy_4> 
5.658 
 
>  <homo_energy> 
-6.474 
 
>  <homo_lumo_gap> 
4.901 
 
>  <logP> 
0.671 
 
>  <lumo_energy> 
-1.573 
 
>  <melting_point> 
30.15 
 
>  <molecular_refractivity> 
37.27 
 
>  <oscillator_strength_1> 
0.001 
 
>  <oscillator_strength_2> 
0.0124 
 
>  <oscillator_strength_3> 
0.0311 
 
>  <oscillator_strength_4> 
0.1155 
 
>  <open_babel_can_smiles> 
CCN(C(=O)N(C)C)[N][O] 
 
>  <mulliken_charges> 
21 
1   -0.454732 
2   -0.309479 
3   -0.318106 
4   -0.138779 
5   0.763876 
6   0.161341 
7   -0.408631 
8   -0.32312 
9   -0.513876 
10   -0.347944 
11   0.150202 
12   0.169673 
13   0.18147 
14   0.156683 
15   0.177985 
16   0.179533 
17   0.159929 
18   0.160953 
19   0.201905 
20   0.17528 
21   0.175837 
 
>  <lowdin_charges> 
21 
1   -0.452148 
2   -0.350284 
3   -0.34927 
4   -0.206249 
5   0.177737 
6   0.067496 
7   -0.095075 
8   -0.050443 
9   -0.306376 
10   -0.233337 
11   0.157671 
12   0.161543 
13   0.167809 
14   0.153091 
15   0.160872 
16   0.169909 
17   0.156249 
18   0.152066 
19   0.182225 
20   0.166696 
21   0.169818 
 
$$$$ 
 
