PCCDB-ID:  27255 
public computational chemistry database (PCCDB) project, http://pccdb.org 
 
 43 44  0  0  1  0  0  0  0  0999 V2000 
    2.3734    1.1969   -1.2705 C   0  0  0  0  0  0  0  0  0  0  0  0 
    1.5535   -1.1021   -0.6618 C   0  0  0  0  0  0  0  0  0  0  0  0 
    7.3277   -0.7122    0.0721 C   0  0  0  0  0  0  0  0  0  0  0  0 
    4.7204   -2.3451    0.0579 C   0  0  0  0  0  0  0  0  0  0  0  0 
    6.6070   -2.9927    3.1663 C   0  0  0  0  0  0  0  0  0  0  0  0 
    7.2517   -2.4729    1.8740 C   0  0  0  0  0  0  0  0  0  0  0  0 
    5.0825   -3.1144    3.0359 C   0  0  0  0  0  0  0  0  0  0  0  0 
    2.3898   -0.3652    2.3627 C   0  0  0  0  0  0  0  0  0  0  0  0 
    2.9345   -1.7839    2.5798 C   0  0  0  0  0  0  0  0  0  0  0  0 
    4.4368    0.0756    0.8569 C   0  0  0  0  0  0  0  0  0  0  0  0 
    1.9336    0.2818   -0.1153 C   0  0  0  0  0  0  0  0  0  0  0  0 
    6.5931   -1.1832    1.3383 C   0  0  2  0  0  0  0  0  0  0  0  0 
    2.9183    0.3566    1.0963 C   0  0  1  0  0  0  0  0  0  0  0  0 
    4.4694   -1.7897    2.5557 C   0  0  2  0  0  0  0  0  0  0  0  0 
    5.0363   -1.3287    1.1771 C   0  0  2  0  0  0  0  0  0  0  0  0 
    1.5725    1.2927   -2.0133 H   0  0  0  0  0  0  0  0  0  0  0  0 
    3.2522    0.8001   -1.7929 H   0  0  0  0  0  0  0  0  0  0  0  0 
    2.6227    2.2044   -0.9156 H   0  0  0  0  0  0  0  0  0  0  0  0 
    0.7242   -1.0035   -1.3736 H   0  0  0  0  0  0  0  0  0  0  0  0 
    1.2233   -1.7855    0.1278 H   0  0  0  0  0  0  0  0  0  0  0  0 
    2.3825   -1.5727   -1.1985 H   0  0  0  0  0  0  0  0  0  0  0  0 
    8.3928   -0.5643    0.2879 H   0  0  0  0  0  0  0  0  0  0  0  0 
    6.9378    0.2370   -0.3095 H   0  0  0  0  0  0  0  0  0  0  0  0 
    7.2606   -1.4516   -0.7346 H   0  0  0  0  0  0  0  0  0  0  0  0 
    4.9405   -1.9210   -0.9281 H   0  0  0  0  0  0  0  0  0  0  0  0 
    3.6706   -2.6412    0.0560 H   0  0  0  0  0  0  0  0  0  0  0  0 
    5.3075   -3.2632    0.1539 H   0  0  0  0  0  0  0  0  0  0  0  0 
    6.8348   -2.2964    3.9869 H   0  0  0  0  0  0  0  0  0  0  0  0 
    7.0497   -3.9572    3.4473 H   0  0  0  0  0  0  0  0  0  0  0  0 
    7.2134   -3.2555    1.1032 H   0  0  0  0  0  0  0  0  0  0  0  0 
    8.3193   -2.2782    2.0441 H   0  0  0  0  0  0  0  0  0  0  0  0 
    4.6449   -3.3863    4.0061 H   0  0  0  0  0  0  0  0  0  0  0  0 
    4.8241   -3.9291    2.3449 H   0  0  0  0  0  0  0  0  0  0  0  0 
    2.6793    0.2290    3.2414 H   0  0  0  0  0  0  0  0  0  0  0  0 
    1.2914   -0.3717    2.3541 H   0  0  0  0  0  0  0  0  0  0  0  0 
    2.5355   -2.4815    1.8332 H   0  0  0  0  0  0  0  0  0  0  0  0 
    2.5869   -2.1555    3.5536 H   0  0  0  0  0  0  0  0  0  0  0  0 
    4.9769    0.7859    1.4994 H   0  0  0  0  0  0  0  0  0  0  0  0 
    4.6977    0.3586   -0.1690 H   0  0  0  0  0  0  0  0  0  0  0  0 
    1.0034    0.7133    0.2873 H   0  0  0  0  0  0  0  0  0  0  0  0 
    6.7431   -0.4074    2.1064 H   0  0  0  0  0  0  0  0  0  0  0  0 
    2.8874    1.4290    1.3382 H   0  0  0  0  0  0  0  0  0  0  0  0 
    4.7892   -1.0229    3.2836 H   0  0  0  0  0  0  0  0  0  0  0  0 
  1 18  1  0  0  0  0 
  1 11  1  0  0  0  0 
  2 11  1  0  0  0  0 
  2 20  1  0  0  0  0 
  3 22  1  0  0  0  0 
  3 12  1  0  0  0  0 
  4 27  1  0  0  0  0 
  5 29  1  0  0  0  0 
  5 28  1  0  0  0  0 
  6 31  1  0  0  0  0 
  6  5  1  0  0  0  0 
  7  5  1  0  0  0  0 
  7 32  1  0  0  0  0 
  8  9  1  0  0  0  0 
  8 34  1  0  0  0  0 
  9 37  1  0  0  0  0 
 10 13  1  0  0  0  0 
 10 15  1  0  0  0  0 
 10 38  1  0  0  0  0 
 11 40  1  0  0  0  0 
 11 13  1  0  0  0  0 
 12  6  1  0  0  0  0 
 12 41  1  1  0  0  0 
 13 42  1  1  0  0  0 
 13  8  1  0  0  0  0 
 14  9  1  0  0  0  0 
 14  7  1  0  0  0  0 
 14 43  1  1  0  0  0 
 15  4  1  6  0  0  0 
 15 12  1  0  0  0  0 
 15 14  1  0  0  0  0 
 16  1  1  0  0  0  0 
 17  1  1  0  0  0  0 
 19  2  1  0  0  0  0 
 21  2  1  0  0  0  0 
 23  3  1  0  0  0  0 
 24  3  1  0  0  0  0 
 25  4  1  0  0  0  0 
 26  4  1  0  0  0  0 
 30  6  1  0  0  0  0 
 33  7  1  0  0  0  0 
 35  8  1  0  0  0  0 
 36  9  1  0  0  0  0 
 39 10  1  0  0  0  0 
M  END 
>  <HBA> 
0 
 
>  <HBD> 
0 
 
>  <TPSA> 
0.0 
 
>  <cid> 
27255 
 
>  <dipole> 
0.17 
 
>  <excitation_energy_1> 
6.669 
 
>  <excitation_energy_2> 
6.686 
 
>  <excitation_energy_3> 
7.027 
 
>  <excitation_energy_4> 
7.069 
 
>  <homo_energy> 
-7.29 
 
>  <homo_lumo_gap> 
9.108 
 
>  <logP> 
4.885 
 
>  <lumo_energy> 
1.818 
 
>  <melting_point> 
31.3 
 
>  <molecular_refractivity> 
69.73 
 
>  <oscillator_strength_1> 
0.0012 
 
>  <oscillator_strength_2> 
0.004 
 
>  <oscillator_strength_3> 
0.004 
 
>  <oscillator_strength_4> 
0.0121 
 
>  <open_babel_can_smiles> 
CC([C@H]1CC[C@@H]2[C@](C1)(C)[C@H](C)CCC2)C 
 
>  <mulliken_charges> 
43 
1   -0.450687 
2   -0.453119 
3   -0.459254 
4   -0.485747 
5   -0.26316 
6   -0.265525 
7   -0.267123 
8   -0.278608 
9   -0.271305 
10   -0.303137 
11   -0.072229 
12   -0.081313 
13   -0.072295 
14   -0.084904 
15   0.118294 
16   0.138841 
17   0.143003 
18   0.137592 
19   0.136391 
20   0.143257 
21   0.147904 
22   0.138182 
23   0.144739 
24   0.142283 
25   0.14044 
26   0.15314 
27   0.143168 
28   0.125841 
29   0.126971 
30   0.1286 
31   0.126284 
32   0.124593 
33   0.129038 
34   0.126038 
35   0.126216 
36   0.133609 
37   0.124365 
38   0.123334 
39   0.134038 
40   0.118906 
41   0.111306 
42   0.117085 
43   0.104951 
 
>  <lowdin_charges> 
43 
1   -0.448165 
2   -0.455838 
3   -0.447902 
4   -0.454746 
5   -0.277598 
6   -0.279452 
7   -0.280322 
8   -0.278198 
9   -0.28266 
10   -0.285878 
11   -0.123353 
12   -0.127881 
13   -0.131299 
14   -0.130658 
15   0.003638 
16   0.148768 
17   0.145605 
18   0.145405 
19   0.147398 
20   0.148965 
21   0.151039 
22   0.146725 
23   0.149017 
24   0.147401 
25   0.147419 
26   0.152615 
27   0.147218 
28   0.137247 
29   0.141922 
30   0.137905 
31   0.14055 
32   0.140792 
33   0.139586 
34   0.140149 
35   0.139046 
36   0.139357 
37   0.141219 
38   0.142532 
39   0.143775 
40   0.135849 
41   0.132946 
42   0.138921 
43   0.130946 
 
$$$$ 
 
