PCCDB-ID:  62024 
public computational chemistry database (PCCDB) project, http://pccdb.org 
 
 24 23  0  0  1  0  0  0  0  0999 V2000 
    1.1920    0.6482    0.7149 C   0  0  0  0  0  0  0  0  0  0  0  0 
    8.3448   -2.8784    1.0034 C   0  0  0  0  0  0  0  0  0  0  0  0 
    4.8668    0.3624    1.4824 C   0  0  0  0  0  0  0  0  0  0  0  0 
    2.1700    0.1518   -0.0439 C   0  0  0  0  0  0  0  0  0  0  0  0 
    7.2886   -3.1510   -0.0572 C   0  0  0  0  0  0  0  0  0  0  0  0 
    3.0429   -1.0171    0.3226 C   0  0  0  0  0  0  0  0  0  0  0  0 
    4.5493   -0.6586    0.3738 C   0  0  2  0  0  0  0  0  0  0  0  0 
    5.3628   -1.9200    0.6234 C   0  0  0  0  0  0  0  0  0  0  0  0 
    5.1190   -2.7359    1.4883 O   0  0  0  0  0  0  0  0  0  0  0  0 
    6.4098   -2.0118   -0.2288 O   0  0  0  0  0  0  0  0  0  0  0  0 
    0.5847    1.4889    0.3899 H   0  0  0  0  0  0  0  0  0  0  0  0 
    0.9561    0.2257    1.6896 H   0  0  0  0  0  0  0  0  0  0  0  0 
    9.0422   -3.7223    1.0612 H   0  0  0  0  0  0  0  0  0  0  0  0 
    7.8803   -2.7509    1.9852 H   0  0  0  0  0  0  0  0  0  0  0  0 
    8.9165   -1.9767    0.7606 H   0  0  0  0  0  0  0  0  0  0  0  0 
    4.2723    1.2704    1.3447 H   0  0  0  0  0  0  0  0  0  0  0  0 
    5.9270    0.6381    1.4726 H   0  0  0  0  0  0  0  0  0  0  0  0 
    4.6296   -0.0584    2.4656 H   0  0  0  0  0  0  0  0  0  0  0  0 
    2.3693    0.6088   -1.0155 H   0  0  0  0  0  0  0  0  0  0  0  0 
    6.6861   -4.0257    0.1999 H   0  0  0  0  0  0  0  0  0  0  0  0 
    7.7380   -3.2962   -1.0428 H   0  0  0  0  0  0  0  0  0  0  0  0 
    2.9034   -1.8164   -0.4202 H   0  0  0  0  0  0  0  0  0  0  0  0 
    2.7446   -1.4339    1.2910 H   0  0  0  0  0  0  0  0  0  0  0  0 
    4.8584   -0.2445   -0.5929 H   0  0  0  0  0  0  0  0  0  0  0  0 
  1 12  1  0  0  0  0 
  2 13  1  0  0  0  0 
  2 14  1  0  0  0  0 
  3 18  1  0  0  0  0 
  4  6  1  0  0  0  0 
  4  1  2  0  0  0  0 
  5 20  1  0  0  0  0 
  5  2  1  0  0  0  0 
  6  7  1  0  0  0  0 
  6 23  1  0  0  0  0 
  7 24  1  6  0  0  0 
  7  8  1  0  0  0  0 
  7  3  1  0  0  0  0 
  8  9  2  0  0  0  0 
 10  5  1  0  0  0  0 
 10  8  1  0  0  0  0 
 11  1  1  0  0  0  0 
 15  2  1  0  0  0  0 
 16  3  1  0  0  0  0 
 17  3  1  0  0  0  0 
 19  4  1  0  0  0  0 
 21  5  1  0  0  0  0 
 22  6  1  0  0  0  0 
M  END 
>  <HBA> 
2 
 
>  <HBD> 
0 
 
>  <TPSA> 
26.3 
 
>  <cid> 
62024 
 
>  <dipole> 
1.66 
 
>  <excitation_energy_1> 
5.764 
 
>  <excitation_energy_2> 
6.475 
 
>  <excitation_energy_3> 
6.54 
 
>  <excitation_energy_4> 
6.806 
 
>  <homo_energy> 
-6.95 
 
>  <homo_lumo_gap> 
7.287 
 
>  <logP> 
1.762 
 
>  <lumo_energy> 
0.337 
 
>  <melting_point> 
-36.05 
 
>  <molecular_refractivity> 
41.38 
 
>  <oscillator_strength_1> 
0.0015 
 
>  <oscillator_strength_2> 
0.0265 
 
>  <oscillator_strength_3> 
0.0281 
 
>  <oscillator_strength_4> 
0.0625 
 
>  <open_babel_can_smiles> 
C[C@@H](C(=O)OCC)CC=C 
 
>  <mulliken_charges> 
24 
1   -0.339431 
2   -0.462459 
3   -0.45505 
4   -0.045835 
5   -0.045937 
6   -0.308142 
7   -0.164477 
8   0.624838 
9   -0.490805 
10   -0.46154 
11   0.139797 
12   0.139988 
13   0.150316 
14   0.176709 
15   0.156447 
16   0.162035 
17   0.151342 
18   0.163379 
19   0.125155 
20   0.170595 
21   0.151846 
22   0.149559 
23   0.163465 
24   0.148204 
 
>  <lowdin_charges> 
24 
1   -0.339216 
2   -0.45554 
3   -0.438975 
4   -0.145937 
5   -0.129559 
6   -0.268905 
7   -0.145011 
8   0.199288 
9   -0.275053 
10   -0.195317 
11   0.159082 
12   0.155771 
13   0.159286 
14   0.165177 
15   0.155935 
16   0.16067 
17   0.152238 
18   0.158228 
19   0.148277 
20   0.159356 
21   0.151684 
22   0.155229 
23   0.159619 
24   0.153674 
 
$$$$ 
 
