PCCDB-ID:  21829 
public computational chemistry database (PCCDB) project, http://pccdb.org 
 
 24 25  0  0  1  0  0  0  0  0999 V2000 
    1.9527   -0.1628    1.6586 C   0  0  0  0  0  0  0  0  0  0  0  0 
    1.9580   -1.2666   -6.1905 C   0  0  0  0  0  0  0  0  0  0  0  0 
    3.1648   -1.8097   -5.7522 C   0  0  0  0  0  0  0  0  0  0  0  0 
    1.2115   -0.4545   -5.3311 C   0  0  0  0  0  0  0  0  0  0  0  0 
    3.6216   -1.5433   -4.4596 C   0  0  0  0  0  0  0  0  0  0  0  0 
    1.6686   -0.1887   -4.0430 C   0  0  0  0  0  0  0  0  0  0  0  0 
    2.8587    1.3704   -0.1703 C   0  0  0  0  0  0  0  0  0  0  0  0 
    2.8521   -0.0392    0.4272 C   0  0  2  0  0  0  0  0  0  0  0  0 
    2.8796   -0.7333   -3.5923 C   0  0  0  0  0  0  0  0  0  0  0  0 
    3.3975   -0.4754   -2.1957 C   0  0  1  0  0  0  0  0  0  0  0  0 
    3.6633    1.3446   -1.8237 S   0  0  0  0  0  0  0  0  0  0  0  0 
    2.2699   -1.1644   -0.9103 S   0  0  0  0  0  0  0  0  0  0  0  0 
    2.2951    0.5217    2.4435 H   0  0  0  0  0  0  0  0  0  0  0  0 
    1.9772   -1.1786    2.0658 H   0  0  0  0  0  0  0  0  0  0  0  0 
    0.9139    0.0856    1.4151 H   0  0  0  0  0  0  0  0  0  0  0  0 
    1.5996   -1.4716   -7.1957 H   0  0  0  0  0  0  0  0  0  0  0  0 
    3.7532   -2.4407   -6.4131 H   0  0  0  0  0  0  0  0  0  0  0  0 
    0.2718   -0.0251   -5.6681 H   0  0  0  0  0  0  0  0  0  0  0  0 
    4.5636   -1.9690   -4.1213 H   0  0  0  0  0  0  0  0  0  0  0  0 
    1.0927    0.4474   -3.3777 H   0  0  0  0  0  0  0  0  0  0  0  0 
    3.4282    2.0578    0.4654 H   0  0  0  0  0  0  0  0  0  0  0  0 
    1.8351    1.7460   -0.2630 H   0  0  0  0  0  0  0  0  0  0  0  0 
    3.8775   -0.3249    0.6888 H   0  0  0  0  0  0  0  0  0  0  0  0 
    4.3723   -0.9552   -2.0853 H   0  0  0  0  0  0  0  0  0  0  0  0 
  1 14  1  0  0  0  0 
  1 13  1  0  0  0  0 
  2  3  2  0  0  0  0 
  2  4  1  0  0  0  0 
  3  5  1  0  0  0  0 
  4  6  2  0  0  0  0 
  5 19  1  0  0  0  0 
  5  9  2  0  0  0  0 
  6  9  1  0  0  0  0 
  6 20  1  0  0  0  0 
  7  8  1  0  0  0  0 
  7 21  1  0  0  0  0 
  8 23  1  1  0  0  0 
  8  1  1  0  0  0  0 
  9 10  1  0  0  0  0 
 10 24  1  1  0  0  0 
 10 11  1  0  0  0  0 
 10 12  1  0  0  0  0 
 11  7  1  0  0  0  0 
 12  8  1  0  0  0  0 
 15  1  1  0  0  0  0 
 16  2  1  0  0  0  0 
 17  3  1  0  0  0  0 
 18  4  1  0  0  0  0 
 22  7  1  0  0  0  0 
M  END 
>  <HBA> 
2 
 
>  <HBD> 
0 
 
>  <TPSA> 
50.6 
 
>  <cid> 
21829 
 
>  <dipole> 
1.21 
 
>  <excitation_energy_1> 
4.574 
 
>  <excitation_energy_2> 
4.626 
 
>  <excitation_energy_3> 
4.679 
 
>  <excitation_energy_4> 
4.919 
 
>  <homo_energy> 
-5.989 
 
>  <homo_lumo_gap> 
5.57 
 
>  <logP> 
3.554 
 
>  <lumo_energy> 
-0.419 
 
>  <melting_point> 
45.68 
 
>  <molecular_refractivity> 
58.9 
 
>  <oscillator_strength_1> 
0.0017 
 
>  <oscillator_strength_2> 
0.0132 
 
>  <oscillator_strength_3> 
0.0028 
 
>  <oscillator_strength_4> 
0.0106 
 
>  <open_babel_can_smiles> 
C[C@@H]1CS[C@@H](S1)c1ccccc1 
 
>  <mulliken_charges> 
24 
1   -0.458527 
2   -0.125454 
3   -0.126565 
4   -0.134964 
5   -0.176177 
6   -0.14148 
7   -0.412645 
8   -0.236399 
9   0.163219 
10   -0.494676 
11   0.109441 
12   0.128637 
13   0.156915 
14   0.168518 
15   0.166281 
16   0.131275 
17   0.131534 
18   0.132672 
19   0.130245 
20   0.149069 
21   0.178896 
22   0.183556 
23   0.176495 
24   0.200133 
 
>  <lowdin_charges> 
24 
1   -0.442856 
2   -0.152083 
3   -0.1575 
4   -0.153771 
5   -0.160398 
6   -0.143848 
7   -0.379117 
8   -0.218309 
9   -0.017679 
10   -0.310811 
11   0.085483 
12   0.107459 
13   0.158986 
14   0.163024 
15   0.159534 
16   0.157848 
17   0.160413 
18   0.159112 
19   0.157159 
20   0.170681 
21   0.170528 
22   0.161347 
23   0.157136 
24   0.167662 
 
$$$$ 
 
