PCCDB-ID:  73086 
public computational chemistry database (PCCDB) project, http://pccdb.org 
 
 21 20  0  0  1  0  0  0  0  0999 V2000 
    0.9425    0.1230    0.0120 C   0  0  0  0  0  0  0  0  0  0  0  0 
    4.0443    1.6083   -1.2169 C   0  0  0  0  0  0  0  0  0  0  0  0 
    2.7270    2.3481   -0.8966 C   0  0  2  0  0  0  0  0  0  0  0  0 
    1.5503    1.2428    0.8747 C   0  0  0  0  0  0  0  0  0  0  0  0 
    2.9537    3.8590   -1.1529 C   0  0  0  0  0  0  0  0  0  0  0  0 
    0.2993   -0.8704    0.8879 N   0  0  0  0  0  0  0  0  0  0  0  0 
    2.3155    2.1850    0.4866 N   0  0  0  0  0  0  0  0  0  0  0  0 
    3.8745    0.1956   -1.3520 O   0  0  0  0  0  0  0  0  0  0  0  0 
    1.1846    1.1846    2.1583 O   0  0  0  0  0  0  0  0  0  0  0  0 
    3.2297    4.2888   -2.2506 O   0  0  0  0  0  0  0  0  0  0  0  0 
    2.8431    4.6231   -0.0629 O   0  0  0  0  0  0  0  0  0  0  0  0 
    1.7314   -0.2950   -0.6173 H   0  0  0  0  0  0  0  0  0  0  0  0 
    0.1883    0.5718   -0.6454 H   0  0  0  0  0  0  0  0  0  0  0  0 
    4.7416    1.7592   -0.3874 H   0  0  0  0  0  0  0  0  0  0  0  0 
    4.4772    2.0423   -2.1250 H   0  0  0  0  0  0  0  0  0  0  0  0 
    1.9717    2.0326   -1.6332 H   0  0  0  0  0  0  0  0  0  0  0  0 
    0.8832   -1.6954    0.9980 H   0  0  0  0  0  0  0  0  0  0  0  0 
   -0.5976   -1.1755    0.5232 H   0  0  0  0  0  0  0  0  0  0  0  0 
    3.6281    0.0235   -2.2736 H   0  0  0  0  0  0  0  0  0  0  0  0 
    0.6222    0.3673    2.2143 H   0  0  0  0  0  0  0  0  0  0  0  0 
    2.6160    3.9902    0.6685 H   0  0  0  0  0  0  0  0  0  0  0  0 
  1  4  1  0  0  0  0 
  1  6  1  0  0  0  0 
  2  3  1  0  0  0  0 
  2 14  1  0  0  0  0 
  3 16  1  6  0  0  0 
  3  7  1  0  0  0  0 
  4  9  1  0  0  0  0 
  5  3  1  0  0  0  0 
  5 11  1  0  0  0  0 
  6 17  1  0  0  0  0 
  7  4  2  0  0  0  0 
  8  2  1  0  0  0  0 
  9 20  1  0  0  0  0 
 10  5  2  0  0  0  0 
 11 21  1  0  0  0  0 
 12  1  1  0  0  0  0 
 13  1  1  0  0  0  0 
 15  2  1  0  0  0  0 
 18  6  1  0  0  0  0 
 19  8  1  0  0  0  0 
M  END 
>  <HBA> 
6 
 
>  <HBD> 
4 
 
>  <TPSA> 
112.65 
 
>  <cid> 
73086 
 
>  <dipole> 
8.06 
 
>  <excitation_energy_1> 
5.463 
 
>  <excitation_energy_2> 
5.601 
 
>  <excitation_energy_3> 
5.769 
 
>  <excitation_energy_4> 
5.943 
 
>  <homo_energy> 
-6.585 
 
>  <homo_lumo_gap> 
6.661 
 
>  <logP> 
-1.402 
 
>  <lumo_energy> 
0.076 
 
>  <melting_point> 
172.7 
 
>  <molecular_refractivity> 
34.79 
 
>  <oscillator_strength_1> 
0.0073 
 
>  <oscillator_strength_2> 
0.0016 
 
>  <oscillator_strength_3> 
0.005 
 
>  <oscillator_strength_4> 
0.0437 
 
>  <open_babel_can_smiles> 
OC[C@H](C(=O)O)/N=C(\CN)/O 
 
>  <mulliken_charges> 
21 
1   -0.257023 
2   -0.050868 
3   -0.081668 
4   0.525068 
5   0.592044 
6   -0.773522 
7   -0.502816 
8   -0.611782 
9   -0.580481 
10   -0.477596 
11   -0.5747 
12   0.20177 
13   0.181021 
14   0.168868 
15   0.165715 
16   0.142217 
17   0.335475 
18   0.33156 
19   0.395765 
20   0.43832 
21   0.432636 
 
>  <lowdin_charges> 
21 
1   -0.256235 
2   -0.141759 
3   -0.118475 
4   0.135903 
5   0.175864 
6   -0.545021 
7   -0.248586 
8   -0.463345 
9   -0.349958 
10   -0.269014 
11   -0.346902 
12   0.175558 
13   0.170072 
14   0.1592 
15   0.154853 
16   0.14809 
17   0.277514 
18   0.277126 
19   0.344083 
20   0.359408 
21   0.361624 
 
$$$$ 
 
