PCCDB-ID:  50281 
public computational chemistry database (PCCDB) project, http://pccdb.org 
 
 33 35  0  0  0  0  0  0  0  0999 V2000 
    0.7988   -0.2554    0.3894 C   0  0  0  0  0  0  0  0  0  0  0  0 
    9.6796    6.8342    0.1714 C   0  0  0  0  0  0  0  0  0  0  0  0 
    8.4629    7.2835    0.6879 C   0  0  0  0  0  0  0  0  0  0  0  0 
    9.8043    5.5094   -0.2664 C   0  0  0  0  0  0  0  0  0  0  0  0 
    7.3771    6.4131    0.7666 C   0  0  0  0  0  0  0  0  0  0  0  0 
    8.7250    4.6365   -0.1908 C   0  0  0  0  0  0  0  0  0  0  0  0 
    4.0758    2.7249    0.6914 C   0  0  0  0  0  0  0  0  0  0  0  0 
    2.9884    1.8625    0.7661 C   0  0  0  0  0  0  0  0  0  0  0  0 
    4.2541   -1.3708   -0.5445 C   0  0  0  0  0  0  0  0  0  0  0  0 
    2.7205   -1.5672   -0.5427 C   0  0  0  0  0  0  0  0  0  0  0  0 
    5.4608    0.9575   -0.2540 C   0  0  0  0  0  0  0  0  0  0  0  0 
    4.3862    0.0954   -0.1867 C   0  0  0  0  0  0  0  0  0  0  0  0 
    7.4985    5.0864    0.3300 C   0  0  0  0  0  0  0  0  0  0  0  0 
    5.3162    2.2915    0.1845 C   0  0  0  0  0  0  0  0  0  0  0  0 
    3.1498    0.5376    0.3300 C   0  0  0  0  0  0  0  0  0  0  0  0 
    6.3314    4.2926    0.4586 N   0  0  0  0  0  0  0  0  0  0  0  0 
    6.4623    3.0969    0.0657 N   0  0  0  0  0  0  0  0  0  0  0  0 
    2.2245   -0.4962    0.3363 N   0  0  0  0  0  0  0  0  0  0  0  0 
    0.2810   -1.1992    0.5873 H   0  0  0  0  0  0  0  0  0  0  0  0 
    0.4016    0.1690   -0.5490 H   0  0  0  0  0  0  0  0  0  0  0  0 
    0.5639    0.4314    1.2073 H   0  0  0  0  0  0  0  0  0  0  0  0 
   10.5286    7.5097    0.1084 H   0  0  0  0  0  0  0  0  0  0  0  0 
    8.3604    8.3099    1.0297 H   0  0  0  0  0  0  0  0  0  0  0  0 
   10.7521    5.1602   -0.6686 H   0  0  0  0  0  0  0  0  0  0  0  0 
    6.4195    6.7354    1.1644 H   0  0  0  0  0  0  0  0  0  0  0  0 
    8.8036    3.6076   -0.5236 H   0  0  0  0  0  0  0  0  0  0  0  0 
    3.9872    3.7563    1.0145 H   0  0  0  0  0  0  0  0  0  0  0  0 
    2.0357    2.2173    1.1472 H   0  0  0  0  0  0  0  0  0  0  0  0 
    4.7023   -1.6329   -1.5078 H   0  0  0  0  0  0  0  0  0  0  0  0 
    4.7264   -2.0024    0.2203 H   0  0  0  0  0  0  0  0  0  0  0  0 
    2.4062   -2.5472   -0.1687 H   0  0  0  0  0  0  0  0  0  0  0  0 
    2.3102   -1.4448   -1.5604 H   0  0  0  0  0  0  0  0  0  0  0  0 
    6.4252    0.6470   -0.6464 H   0  0  0  0  0  0  0  0  0  0  0  0 
  1 19  1  0  0  0  0 
  1 21  1  0  0  0  0 
  2  3  2  0  0  0  0 
  3  5  1  0  0  0  0 
  3 23  1  0  0  0  0 
  4  6  2  0  0  0  0 
  4  2  1  0  0  0  0 
  5 25  1  0  0  0  0 
  6 13  1  0  0  0  0 
  7  8  1  0  0  0  0 
  7 27  1  0  0  0  0 
  8 28  1  0  0  0  0 
  9 10  1  0  0  0  0 
  9 12  1  0  0  0  0 
  9 30  1  0  0  0  0 
 10 31  1  0  0  0  0 
 10 18  1  0  0  0  0 
 11 12  2  0  0  0  0 
 11 14  1  0  0  0  0 
 12 15  1  0  0  0  0 
 13 16  1  0  0  0  0 
 13  5  2  0  0  0  0 
 14  7  2  0  0  0  0 
 15 18  1  0  0  0  0 
 15  8  2  0  0  0  0 
 17 14  1  0  0  0  0 
 17 16  1  0  0  0  0 
 18  1  1  0  0  0  0 
 20  1  1  0  0  0  0 
 22  2  1  0  0  0  0 
 24  4  1  0  0  0  0 
 26  6  1  0  0  0  0 
 29  9  1  0  0  0  0 
 32 10  1  0  0  0  0 
 33 11  1  0  0  0  0 
M  RAD  2  16   2  17   2 
M  END 
>  <HBA> 
3 
 
>  <HBD> 
0 
 
>  <TPSA> 
27.96 
 
>  <cid> 
50281 
 
>  <dipole> 
3.54 
 
>  <excitation_energy_1> 
2.664 
 
>  <excitation_energy_2> 
3.019 
 
>  <excitation_energy_3> 
4.041 
 
>  <excitation_energy_4> 
4.11 
 
>  <homo_energy> 
-5.053 
 
>  <homo_lumo_gap> 
3.295 
 
>  <logP> 
4.159 
 
>  <lumo_energy> 
-1.758 
 
>  <melting_point> 
98.58 
 
>  <molecular_refractivity> 
77.05 
 
>  <oscillator_strength_1> 
0.0 
 
>  <oscillator_strength_2> 
0.7874 
 
>  <oscillator_strength_3> 
0.0104 
 
>  <oscillator_strength_4> 
0.0097 
 
>  <open_babel_can_smiles> 
CN1CCc2c1ccc(c2)[N][N]c1ccccc1 
 
>  <mulliken_charges> 
33 
1   -0.31207 
2   -0.121133 
3   -0.138805 
4   -0.146285 
5   -0.144065 
6   -0.127162 
7   -0.139983 
8   -0.201429 
9   -0.351801 
10   -0.130401 
11   -0.231179 
12   0.090301 
13   0.273599 
14   0.271037 
15   0.360917 
16   -0.325474 
17   -0.317412 
18   -0.489089 
19   0.161042 
20   0.146844 
21   0.168713 
22   0.128378 
23   0.129619 
24   0.130063 
25   0.135073 
26   0.149173 
27   0.154078 
28   0.129305 
29   0.15934 
30   0.165398 
31   0.150497 
32   0.139466 
33   0.133445 
 
>  <lowdin_charges> 
33 
1   -0.351676 
2   -0.155208 
3   -0.156868 
4   -0.154721 
5   -0.152268 
6   -0.154852 
7   -0.136465 
8   -0.199915 
9   -0.277634 
10   -0.187015 
11   -0.147664 
12   -0.042428 
13   0.014388 
14   -0.013171 
15   0.057987 
16   -0.103784 
17   -0.083626 
18   -0.117689 
19   0.158289 
20   0.139617 
21   0.162166 
22   0.157947 
23   0.156663 
24   0.157059 
25   0.164168 
26   0.169404 
27   0.172333 
28   0.158581 
29   0.160057 
30   0.160037 
31   0.148788 
32   0.132507 
33   0.164992 
 
$$$$ 
 
