PCCDB-ID:  57802 
public computational chemistry database (PCCDB) project, http://pccdb.org 
 
 28 29  0  0  0  0  0  0  0  0999 V2000 
    0.8930    0.1096    0.1603 C   0  0  0  0  0  0  0  0  0  0  0  0 
    2.9267    0.4514   -1.3136 C   0  0  0  0  0  0  0  0  0  0  0  0 
    5.1981    0.3600    3.8031 C   0  0  0  0  0  0  0  0  0  0  0  0 
    5.3270   -1.0208    3.6420 C   0  0  0  0  0  0  0  0  0  0  0  0 
    4.4016    1.1336    2.9510 C   0  0  0  0  0  0  0  0  0  0  0  0 
    3.0018   -1.3089    0.5558 C   0  0  0  0  0  0  0  0  0  0  0  0 
    3.8373   -0.9106    1.7412 C   0  0  0  0  0  0  0  0  0  0  0  0 
    4.6328   -1.6481    2.6034 C   0  0  0  0  0  0  0  0  0  0  0  0 
    3.7344    0.4696    1.9265 C   0  0  0  0  0  0  0  0  0  0  0  0 
    4.5673   -3.9489    3.2420 C   0  0  0  0  0  0  0  0  0  0  0  0 
    2.4169    0.0596    0.0723 C   0  0  0  0  0  0  0  0  0  0  0  0 
    4.1548   -3.7074    4.4173 N   0  0  0  0  0  0  0  0  0  0  0  0 
    4.8679   -5.1351    2.6485 O   0  0  0  0  0  0  0  0  0  0  0  0 
    4.7844   -3.0044    2.3047 O   0  0  0  0  0  0  0  0  0  0  0  0 
    2.9278    1.0738    1.0123 O   0  0  0  0  0  0  0  0  0  0  0  0 
    0.4450   -0.6126   -0.5320 H   0  0  0  0  0  0  0  0  0  0  0  0 
    0.5246    1.1087   -0.0947 H   0  0  0  0  0  0  0  0  0  0  0  0 
    0.5594   -0.1315    1.1750 H   0  0  0  0  0  0  0  0  0  0  0  0 
    2.5598   -0.2516   -2.0704 H   0  0  0  0  0  0  0  0  0  0  0  0 
    4.0216    0.4417   -1.3358 H   0  0  0  0  0  0  0  0  0  0  0  0 
    2.5857    1.4572   -1.5795 H   0  0  0  0  0  0  0  0  0  0  0  0 
    5.7341    0.8468    4.6131 H   0  0  0  0  0  0  0  0  0  0  0  0 
    5.9397   -1.6070    4.3149 H   0  0  0  0  0  0  0  0  0  0  0  0 
    4.3045    2.2067    3.0749 H   0  0  0  0  0  0  0  0  0  0  0  0 
    2.2052   -2.0121    0.8288 H   0  0  0  0  0  0  0  0  0  0  0  0 
    3.5965   -1.7921   -0.2287 H   0  0  0  0  0  0  0  0  0  0  0  0 
    4.0468   -4.5560    4.9719 H   0  0  0  0  0  0  0  0  0  0  0  0 
    4.7067   -5.8444    3.2894 H   0  0  0  0  0  0  0  0  0  0  0  0 
  1 18  1  0  0  0  0 
  2 11  1  0  0  0  0 
  3 22  1  0  0  0  0 
  4  3  1  0  0  0  0 
  4 23  1  0  0  0  0 
  5 24  1  0  0  0  0 
  5  3  2  0  0  0  0 
  6 25  1  0  0  0  0 
  6  7  1  0  0  0  0 
  7  9  2  0  0  0  0 
  7  8  1  0  0  0  0 
  8  4  2  0  0  0  0 
  9  5  1  0  0  0  0 
 10 12  2  0  0  0  0 
 11  1  1  0  0  0  0 
 11  6  1  0  0  0  0 
 11 15  1  0  0  0  0 
 12 27  1  0  0  0  0 
 13 10  1  0  0  0  0 
 13 28  1  0  0  0  0 
 14  8  1  0  0  0  0 
 14 10  1  0  0  0  0 
 15  9  1  0  0  0  0 
 16  1  1  0  0  0  0 
 17  1  1  0  0  0  0 
 19  2  1  0  0  0  0 
 20  2  1  0  0  0  0 
 21  2  1  0  0  0  0 
 26  6  1  0  0  0  0 
M  END 
>  <HBA> 
4 
 
>  <HBD> 
1 
 
>  <TPSA> 
61.55 
 
>  <cid> 
57802 
 
>  <dipole> 
2.62 
 
>  <excitation_energy_1> 
4.697 
 
>  <excitation_energy_2> 
4.807 
 
>  <excitation_energy_3> 
5.303 
 
>  <excitation_energy_4> 
5.363 
 
>  <homo_energy> 
-5.57 
 
>  <homo_lumo_gap> 
5.674 
 
>  <logP> 
2.558 
 
>  <lumo_energy> 
0.103 
 
>  <melting_point> 
137.61 
 
>  <molecular_refractivity> 
55.23 
 
>  <oscillator_strength_1> 
0.0052 
 
>  <oscillator_strength_2> 
0.0496 
 
>  <oscillator_strength_3> 
0.0039 
 
>  <oscillator_strength_4> 
0.0009 
 
>  <open_babel_can_smiles> 
OC(=N)Oc1cccc2c1CC(O2)(C)C 
 
>  <mulliken_charges> 
28 
1   -0.452238 
2   -0.450935 
3   -0.153989 
4   -0.132716 
5   -0.186134 
6   -0.378525 
7   0.067679 
8   0.279447 
9   0.353615 
10   0.623597 
11   0.310814 
12   -0.599559 
13   -0.565328 
14   -0.506896 
15   -0.552274 
16   0.144235 
17   0.156624 
18   0.157987 
19   0.144423 
20   0.157099 
21   0.156666 
22   0.131608 
23   0.141028 
24   0.134988 
25   0.162945 
26   0.167202 
27   0.278485 
28   0.410149 
 
>  <lowdin_charges> 
28 
1   -0.447532 
2   -0.446202 
3   -0.142798 
4   -0.188208 
5   -0.198726 
6   -0.280155 
7   -0.062451 
8   0.110478 
9   0.09888 
10   0.19181 
11   0.144104 
12   -0.448421 
13   -0.362818 
14   -0.14317 
15   -0.209703 
16   0.15447 
17   0.157848 
18   0.158192 
19   0.154327 
20   0.156458 
21   0.157717 
22   0.16103 
23   0.172308 
24   0.16457 
25   0.161651 
26   0.164176 
27   0.258911 
28   0.363254 
 
$$$$ 
 
