PCCDB-ID:  51334 
public computational chemistry database (PCCDB) project, http://pccdb.org 
 
 31 33  0  0  0  0  0  0  0  0999 V2000 
    0.7849   -1.2892    0.5878 C   0  0  0  0  0  0  0  0  0  0  0  0 
    2.0918   -1.9975    0.9326 C   0  0  0  0  0  0  0  0  0  0  0  0 
   11.5107   -1.8643    1.9802 C   0  0  0  0  0  0  0  0  0  0  0  0 
   10.7870   -3.0745    1.9171 C   0  0  0  0  0  0  0  0  0  0  0  0 
   10.8405   -0.6668    1.8712 C   0  0  0  0  0  0  0  0  0  0  0  0 
    9.4170   -3.0803    1.7490 C   0  0  0  0  0  0  0  0  0  0  0  0 
    8.7487    0.6081    1.5814 C   0  0  0  0  0  0  0  0  0  0  0  0 
    7.3922    0.6532    1.4084 C   0  0  0  0  0  0  0  0  0  0  0  0 
    4.9710   -2.7328    1.1906 C   0  0  0  0  0  0  0  0  0  0  0  0 
    9.4336   -0.6338    1.6957 C   0  0  0  0  0  0  0  0  0  0  0  0 
    8.6932   -1.8618    1.6322 C   0  0  0  0  0  0  0  0  0  0  0  0 
    6.3786   -3.0164    1.3807 C   0  0  0  0  0  0  0  0  0  0  0  0 
    6.6686   -0.5590    1.3443 C   0  0  0  0  0  0  0  0  0  0  0  0 
    4.4981   -1.4609    1.0772 C   0  0  0  0  0  0  0  0  0  0  0  0 
    7.2606   -1.8111    1.4515 C   0  0  0  0  0  0  0  0  0  0  0  0 
    3.2113   -1.0682    0.8447 N   0  0  0  0  0  0  0  0  0  0  0  0 
    6.7899   -4.1779    1.4817 O   0  0  0  0  0  0  0  0  0  0  0  0 
    5.3152   -0.3805    1.1615 O   0  0  0  0  0  0  0  0  0  0  0  0 
   -0.0514   -1.9926    0.6432 H   0  0  0  0  0  0  0  0  0  0  0  0 
    0.8196   -0.8729   -0.4243 H   0  0  0  0  0  0  0  0  0  0  0  0 
    0.5782   -0.4725    1.2905 H   0  0  0  0  0  0  0  0  0  0  0  0 
    2.2700   -2.8145    0.2240 H   0  0  0  0  0  0  0  0  0  0  0  0 
    2.0308   -2.4483    1.9357 H   0  0  0  0  0  0  0  0  0  0  0  0 
   12.5890   -1.8796    2.1141 H   0  0  0  0  0  0  0  0  0  0  0  0 
   11.3159   -4.0203    2.0020 H   0  0  0  0  0  0  0  0  0  0  0  0 
   11.3801    0.2764    1.9174 H   0  0  0  0  0  0  0  0  0  0  0  0 
    8.8635   -4.0075    1.7015 H   0  0  0  0  0  0  0  0  0  0  0  0 
    9.3228    1.5300    1.6320 H   0  0  0  0  0  0  0  0  0  0  0  0 
    6.8506    1.5888    1.3159 H   0  0  0  0  0  0  0  0  0  0  0  0 
    4.2996   -3.5800    1.1433 H   0  0  0  0  0  0  0  0  0  0  0  0 
    3.0214   -0.1009    1.0760 H   0  0  0  0  0  0  0  0  0  0  0  0 
  1 19  1  0  0  0  0 
  1  2  1  0  0  0  0 
  1 21  1  0  0  0  0 
  2 23  1  0  0  0  0 
  3 24  1  0  0  0  0 
  4  3  1  0  0  0  0 
  4 25  1  0  0  0  0 
  5 26  1  0  0  0  0 
  5  3  2  0  0  0  0 
  6  4  2  0  0  0  0 
  7 28  1  0  0  0  0 
  7 10  2  0  0  0  0 
  8  7  1  0  0  0  0 
  9 12  1  0  0  0  0 
 10  5  1  0  0  0  0 
 11 10  1  0  0  0  0 
 11  6  1  0  0  0  0 
 12 15  1  0  0  0  0 
 12 17  2  0  0  0  0 
 13  8  2  0  0  0  0 
 13 15  1  0  0  0  0 
 14 18  1  0  0  0  0 
 14  9  2  0  0  0  0 
 15 11  2  0  0  0  0 
 16  2  1  0  0  0  0 
 16 31  1  0  0  0  0 
 16 14  1  0  0  0  0 
 18 13  1  0  0  0  0 
 20  1  1  0  0  0  0 
 22  2  1  0  0  0  0 
 27  6  1  0  0  0  0 
 29  8  1  0  0  0  0 
 30  9  1  0  0  0  0 
M  END 
>  <HBA> 
3 
 
>  <HBD> 
1 
 
>  <TPSA> 
42.24 
 
>  <cid> 
51334 
 
>  <dipole> 
5.27 
 
>  <excitation_energy_1> 
3.676 
 
>  <excitation_energy_2> 
3.922 
 
>  <excitation_energy_3> 
4.084 
 
>  <excitation_energy_4> 
4.35 
 
>  <homo_energy> 
-5.78 
 
>  <homo_lumo_gap> 
4.476 
 
>  <logP> 
3.451 
 
>  <lumo_energy> 
-1.303 
 
>  <melting_point> 
162.55 
 
>  <molecular_refractivity> 
74.1 
 
>  <oscillator_strength_1> 
0.0008 
 
>  <oscillator_strength_2> 
0.1795 
 
>  <oscillator_strength_3> 
0.035 
 
>  <oscillator_strength_4> 
0.001 
 
>  <open_babel_can_smiles> 
CCNc1cc(=O)c2c(o1)ccc1c2cccc1 
 
>  <mulliken_charges> 
31 
1   -0.47317 
2   -0.10694 
3   -0.127818 
4   -0.139929 
5   -0.203376 
6   -0.188149 
7   -0.193551 
8   -0.177513 
9   -0.299952 
10   0.147815 
11   0.036612 
12   0.44785 
13   0.272384 
14   0.595055 
15   0.007844 
16   -0.651632 
17   -0.546345 
18   -0.548953 
19   0.165754 
20   0.167849 
21   0.151351 
22   0.169754 
23   0.155393 
24   0.128848 
25   0.13208 
26   0.127245 
27   0.19516 
28   0.138066 
29   0.142884 
30   0.143224 
31   0.33216 
 
>  <lowdin_charges> 
31 
1   -0.448386 
2   -0.187261 
3   -0.155129 
4   -0.153102 
5   -0.159938 
6   -0.15795 
7   -0.135116 
8   -0.181937 
9   -0.301356 
10   -0.00679 
11   0.012625 
12   0.140275 
13   0.107446 
14   0.163354 
15   -0.065074 
16   -0.275404 
17   -0.309268 
18   -0.126119 
19   0.165433 
20   0.159497 
21   0.152133 
22   0.157886 
23   0.142236 
24   0.156078 
25   0.159557 
26   0.156245 
27   0.193261 
28   0.163008 
29   0.169607 
30   0.178223 
31   0.285966 
 
$$$$ 
 
