PCCDB-ID:  34742 
public computational chemistry database (PCCDB) project, http://pccdb.org 
 
 17 17  0  0  1  0  0  0  0  0999 V2000 
    1.0263    0.1063   -0.2303 C   0  0  0  0  0  0  0  0  0  0  0  0 
    3.0405   -1.4953   -2.0138 C   0  0  0  0  0  0  0  0  0  0  0  0 
    3.2662   -0.0011   -2.3564 C   0  0  0  0  0  0  0  0  0  0  0  0 
    2.5401   -0.0871   -0.1460 C   0  0  1  0  0  0  0  0  0  0  0  0 
    3.0411   -1.5040   -0.4703 C   0  0  2  0  0  0  0  0  0  0  0  0 
    4.3470   -1.7048    0.0612 O   0  0  0  0  0  0  0  0  0  0  0  0 
    3.2496    0.7136   -1.1075 O   0  0  0  0  0  0  0  0  0  0  0  0 
    0.5212   -0.4561    0.5638 H   0  0  0  0  0  0  0  0  0  0  0  0 
    0.6220   -0.2294   -1.1919 H   0  0  0  0  0  0  0  0  0  0  0  0 
    0.7800    1.1661   -0.1120 H   0  0  0  0  0  0  0  0  0  0  0  0 
    3.8294   -2.1497   -2.3932 H   0  0  0  0  0  0  0  0  0  0  0  0 
    2.0847   -1.8541   -2.4099 H   0  0  0  0  0  0  0  0  0  0  0  0 
    2.4853    0.3853   -3.0251 H   0  0  0  0  0  0  0  0  0  0  0  0 
    4.2357    0.1936   -2.8260 H   0  0  0  0  0  0  0  0  0  0  0  0 
    2.8993    0.2256    0.8402 H   0  0  0  0  0  0  0  0  0  0  0  0 
    2.4185   -2.2971   -0.0475 H   0  0  0  0  0  0  0  0  0  0  0  0 
    4.8543   -0.9050   -0.1593 H   0  0  0  0  0  0  0  0  0  0  0  0 
  1  4  1  0  0  0  0 
  1 10  1  0  0  0  0 
  1  8  1  0  0  0  0 
  2  5  1  0  0  0  0 
  3  2  1  0  0  0  0 
  3  7  1  0  0  0  0 
  4 15  1  1  0  0  0 
  5  4  1  0  0  0  0 
  5 16  1  1  0  0  0 
  5  6  1  0  0  0  0 
  7  4  1  0  0  0  0 
  9  1  1  0  0  0  0 
 11  2  1  0  0  0  0 
 12  2  1  0  0  0  0 
 13  3  1  0  0  0  0 
 14  3  1  0  0  0  0 
 17  6  1  0  0  0  0 
M  END 
>  <HBA> 
2 
 
>  <HBD> 
1 
 
>  <TPSA> 
29.46 
 
>  <cid> 
34742 
 
>  <dipole> 
1.56 
 
>  <excitation_energy_1> 
6.232 
 
>  <excitation_energy_2> 
6.596 
 
>  <excitation_energy_3> 
6.861 
 
>  <excitation_energy_4> 
6.92 
 
>  <homo_energy> 
-6.708 
 
>  <homo_lumo_gap> 
8.67 
 
>  <logP> 
0.156 
 
>  <lumo_energy> 
1.962 
 
>  <melting_point> 
6.35 
 
>  <molecular_refractivity> 
26.28 
 
>  <oscillator_strength_1> 
0.0014 
 
>  <oscillator_strength_2> 
0.0185 
 
>  <oscillator_strength_3> 
0.007 
 
>  <oscillator_strength_4> 
0.0253 
 
>  <open_babel_can_smiles> 
O[C@@H]1CCO[C@H]1C 
 
>  <mulliken_charges> 
17 
1   -0.461385 
2   -0.33701 
3   -0.029725 
4   0.100517 
5   0.134636 
6   -0.630104 
7   -0.499046 
8   0.147642 
9   0.145549 
10   0.162493 
11   0.162782 
12   0.14593 
13   0.1364 
14   0.145501 
15   0.144514 
16   0.137854 
17   0.393453 
 
>  <lowdin_charges> 
17 
1   -0.459589 
2   -0.321512 
3   -0.140813 
4   -0.019139 
5   -0.015523 
6   -0.461589 
7   -0.291435 
8   0.15693 
9   0.150942 
10   0.160863 
11   0.16382 
12   0.151731 
13   0.137753 
14   0.146207 
15   0.14843 
16   0.149671 
17   0.343251 
 
$$$$ 
 
