PCCDB-ID:  27822 
public computational chemistry database (PCCDB) project, http://pccdb.org 
 
 29 28  0  0  0  0  0  0  0  0999 V2000 
    7.6554   -1.7904   -0.8598 C   0  0  0  0  0  0  0  0  0  0  0  0 
    5.7602    1.3240   -6.2748 C   0  0  0  0  0  0  0  0  0  0  0  0 
    7.2605   -0.3615   -0.4646 C   0  0  0  0  0  0  0  0  0  0  0  0 
    5.7395   -0.1184   -0.4064 C   0  0  0  0  0  0  0  0  0  0  0  0 
    4.9624   -0.2133   -1.7384 C   0  0  0  0  0  0  0  0  0  0  0  0 
    4.8403    1.0937   -2.5464 C   0  0  0  0  0  0  0  0  0  0  0  0 
    6.1304    1.7157   -3.1068 C   0  0  0  0  0  0  0  0  0  0  0  0 
    6.9274    0.8276   -4.0782 C   0  0  0  0  0  0  0  0  0  0  0  0 
    5.8570   -0.8990   -5.4854 N   0  0  0  0  0  0  0  0  0  0  0  0 
    6.1615    0.3869   -5.2435 N   0  0  0  0  0  0  0  0  0  0  0  0 
    6.2198   -1.7106   -4.6378 O   0  0  0  0  0  0  0  0  0  0  0  0 
    8.7438   -1.9181   -0.8283 H   0  0  0  0  0  0  0  0  0  0  0  0 
    7.3234   -2.0488   -1.8714 H   0  0  0  0  0  0  0  0  0  0  0  0 
    7.2162   -2.5222   -0.1700 H   0  0  0  0  0  0  0  0  0  0  0  0 
    5.0781    2.0837   -5.8762 H   0  0  0  0  0  0  0  0  0  0  0  0 
    5.2510    0.7555   -7.0554 H   0  0  0  0  0  0  0  0  0  0  0  0 
    6.6359    1.8288   -6.7022 H   0  0  0  0  0  0  0  0  0  0  0  0 
    7.7374    0.3505   -1.1507 H   0  0  0  0  0  0  0  0  0  0  0  0 
    7.6778   -0.1421    0.5280 H   0  0  0  0  0  0  0  0  0  0  0  0 
    5.5491    0.8643    0.0495 H   0  0  0  0  0  0  0  0  0  0  0  0 
    5.3189   -0.8549    0.2928 H   0  0  0  0  0  0  0  0  0  0  0  0 
    3.9364   -0.5329   -1.5123 H   0  0  0  0  0  0  0  0  0  0  0  0 
    5.3786   -1.0044   -2.3726 H   0  0  0  0  0  0  0  0  0  0  0  0 
    4.3529    1.8522   -1.9175 H   0  0  0  0  0  0  0  0  0  0  0  0 
    4.1517    0.9106   -3.3831 H   0  0  0  0  0  0  0  0  0  0  0  0 
    6.8095    1.9918   -2.2909 H   0  0  0  0  0  0  0  0  0  0  0  0 
    5.8745    2.6593   -3.6083 H   0  0  0  0  0  0  0  0  0  0  0  0 
    7.2738   -0.0852   -3.5906 H   0  0  0  0  0  0  0  0  0  0  0  0 
    7.8067    1.3755   -4.4429 H   0  0  0  0  0  0  0  0  0  0  0  0 
  1 12  1  0  0  0  0 
  1  3  1  0  0  0  0 
  1 14  1  0  0  0  0 
  2 15  1  0  0  0  0 
  2 10  1  0  0  0  0 
  3  4  1  0  0  0  0 
  3 19  1  0  0  0  0 
  4 20  1  0  0  0  0 
  4 21  1  0  0  0  0 
  5 22  1  0  0  0  0 
  5  4  1  0  0  0  0 
  6 24  1  0  0  0  0 
  6  5  1  0  0  0  0 
  7  6  1  0  0  0  0 
  7 26  1  0  0  0  0 
  8 28  1  0  0  0  0 
  8  7  1  0  0  0  0 
  9 10  1  0  0  0  0 
  9 11  2  0  0  0  0 
 10  8  1  0  0  0  0 
 13  1  1  0  0  0  0 
 16  2  1  0  0  0  0 
 17  2  1  0  0  0  0 
 18  3  1  0  0  0  0 
 23  5  1  0  0  0  0 
 25  6  1  0  0  0  0 
 27  7  1  0  0  0  0 
 29  8  1  0  0  0  0 
M  END 
>  <HBA> 
3 
 
>  <HBD> 
0 
 
>  <TPSA> 
32.67 
 
>  <cid> 
27822 
 
>  <dipole> 
3.75 
 
>  <excitation_energy_1> 
3.403 
 
>  <excitation_energy_2> 
5.609 
 
>  <excitation_energy_3> 
5.759 
 
>  <excitation_energy_4> 
6.117 
 
>  <homo_energy> 
-6.082 
 
>  <homo_lumo_gap> 
5.236 
 
>  <logP> 
2.57 
 
>  <lumo_energy> 
-0.846 
 
>  <melting_point> 
-6.2 
 
>  <molecular_refractivity> 
48.2 
 
>  <oscillator_strength_1> 
0.0008 
 
>  <oscillator_strength_2> 
0.009 
 
>  <oscillator_strength_3> 
0.1444 
 
>  <oscillator_strength_4> 
0.0034 
 
>  <open_babel_can_smiles> 
CCCCCCCN(N=O)C 
 
>  <mulliken_charges> 
29 
1   -0.456191 
2   -0.31165 
3   -0.254767 
4   -0.252692 
5   -0.279062 
6   -0.260709 
7   -0.27205 
8   -0.169029 
9   0.151058 
10   -0.202765 
11   -0.379326 
12   0.13834 
13   0.172289 
14   0.139562 
15   0.168433 
16   0.191458 
17   0.162439 
18   0.126669 
19   0.129048 
20   0.122364 
21   0.13014 
22   0.130458 
23   0.170844 
24   0.13151 
25   0.135053 
26   0.150839 
27   0.13278 
28   0.204162 
29   0.150794 
 
>  <lowdin_charges> 
29 
1   -0.451168 
2   -0.359238 
3   -0.277688 
4   -0.279749 
5   -0.290309 
6   -0.280103 
7   -0.285981 
8   -0.22518 
9   0.053992 
10   -0.039584 
11   -0.276325 
12   0.146317 
13   0.156521 
14   0.147113 
15   0.157778 
16   0.178305 
17   0.155814 
18   0.135767 
19   0.140357 
20   0.136578 
21   0.143159 
22   0.145076 
23   0.156511 
24   0.143498 
25   0.143362 
26   0.152932 
27   0.141701 
28   0.177288 
29   0.153257 
 
$$$$ 
 
