PCCDB-ID:  22223 
public computational chemistry database (PCCDB) project, http://pccdb.org 
 
 14 13  0  0  0  0  0  0  0  0999 V2000 
    4.5546   -0.3613   -0.9922 C   0  0  0  0  0  0  0  0  0  0  0  0 
    2.3555   -2.5076    1.0345 C   0  0  0  0  0  0  0  0  0  0  0  0 
    2.7501   -1.3021    0.1964 C   0  0  0  0  0  0  0  0  0  0  0  0 
    0.6424   -3.5081    2.2100 N   0  0  0  0  0  0  0  0  0  0  0  0 
    2.0499   -0.3595   -0.0826 O   0  0  0  0  0  0  0  0  0  0  0  0 
    4.0371   -1.4416   -0.1984 O   0  0  0  0  0  0  0  0  0  0  0  0 
    0.9970   -2.3722    1.3901 O   0  0  0  0  0  0  0  0  0  0  0  0 
    5.5874   -0.6303   -1.2150 H   0  0  0  0  0  0  0  0  0  0  0  0 
    4.5135    0.5789   -0.4357 H   0  0  0  0  0  0  0  0  0  0  0  0 
    3.9781   -0.2520   -1.9148 H   0  0  0  0  0  0  0  0  0  0  0  0 
    3.0056   -2.5543    1.9203 H   0  0  0  0  0  0  0  0  0  0  0  0 
    2.5381   -3.4239    0.4549 H   0  0  0  0  0  0  0  0  0  0  0  0 
   -0.1683   -3.8958    1.7217 H   0  0  0  0  0  0  0  0  0  0  0  0 
    0.2610   -3.0692    3.0514 H   0  0  0  0  0  0  0  0  0  0  0  0 
  1  9  1  0  0  0  0 
  1  6  1  0  0  0  0 
  2  7  1  0  0  0  0 
  2 11  1  0  0  0  0 
  3  2  1  0  0  0  0 
  4 14  1  0  0  0  0 
  5  3  2  0  0  0  0 
  6  3  1  0  0  0  0 
  7  4  1  0  0  0  0 
  8  1  1  0  0  0  0 
 10  1  1  0  0  0  0 
 12  2  1  0  0  0  0 
 13  4  1  0  0  0  0 
M  END 
>  <HBA> 
4 
 
>  <HBD> 
1 
 
>  <TPSA> 
61.55 
 
>  <cid> 
22223 
 
>  <dipole> 
1.4 
 
>  <excitation_energy_1> 
5.817 
 
>  <excitation_energy_2> 
6.508 
 
>  <excitation_energy_3> 
6.637 
 
>  <excitation_energy_4> 
6.685 
 
>  <homo_energy> 
-7.089 
 
>  <homo_lumo_gap> 
7.461 
 
>  <logP> 
-0.25 
 
>  <lumo_energy> 
0.373 
 
>  <melting_point> 
35.52 
 
>  <molecular_refractivity> 
21.61 
 
>  <oscillator_strength_1> 
0.0005 
 
>  <oscillator_strength_2> 
0.0334 
 
>  <oscillator_strength_3> 
0.022 
 
>  <oscillator_strength_4> 
0.0016 
 
>  <open_babel_can_smiles> 
NOCC(=O)OC 
 
>  <mulliken_charges> 
14 
1   -0.218532 
2   -0.044528 
3   0.589312 
4   -0.476326 
5   -0.457909 
6   -0.453801 
7   -0.413549 
8   0.165494 
9   0.17153 
10   0.171904 
11   0.162928 
12   0.16179 
13   0.320711 
14   0.320976 
 
>  <lowdin_charges> 
14 
1   -0.27719 
2   -0.157337 
3   0.189743 
4   -0.399572 
5   -0.242474 
6   -0.198835 
7   -0.233636 
8   0.159956 
9   0.159782 
10   0.16002 
11   0.158171 
12   0.156847 
13   0.262061 
14   0.262464 
 
$$$$ 
 
