PCCDB-ID:  61995 
public computational chemistry database (PCCDB) project, http://pccdb.org 
 
 18 17  0  0  0  0  0  0  0  0999 V2000 
    4.3304    2.1138    0.2147 C   0  0  0  0  0  0  0  0  0  0  0  0 
    5.2208   -5.4163   -0.7956 C   0  0  0  0  0  0  0  0  0  0  0  0 
    4.4540    0.7988    0.4007 C   0  0  0  0  0  0  0  0  0  0  0  0 
    4.6201   -4.1371   -1.3786 C   0  0  0  0  0  0  0  0  0  0  0  0 
    5.3518   -0.0848   -0.4093 C   0  0  0  0  0  0  0  0  0  0  0  0 
    5.1941   -2.8762   -0.7464 C   0  0  0  0  0  0  0  0  0  0  0  0 
    6.0911   -2.8749    0.0664 O   0  0  0  0  0  0  0  0  0  0  0  0 
    4.3942   -1.3609   -1.3452 S   0  0  0  0  0  0  0  0  0  0  0  0 
    3.6802    2.7193    0.8397 H   0  0  0  0  0  0  0  0  0  0  0  0 
    4.8790    2.6358   -0.5667 H   0  0  0  0  0  0  0  0  0  0  0  0 
    4.7866   -6.2943   -1.2846 H   0  0  0  0  0  0  0  0  0  0  0  0 
    5.0263   -5.4883    0.2786 H   0  0  0  0  0  0  0  0  0  0  0  0 
    6.3048   -5.4410   -0.9377 H   0  0  0  0  0  0  0  0  0  0  0  0 
    3.8828    0.3034    1.1850 H   0  0  0  0  0  0  0  0  0  0  0  0 
    3.5296   -4.1151   -1.2548 H   0  0  0  0  0  0  0  0  0  0  0  0 
    4.7983   -4.0747   -2.4606 H   0  0  0  0  0  0  0  0  0  0  0  0 
    6.0363   -0.6672    0.2185 H   0  0  0  0  0  0  0  0  0  0  0  0 
    5.9360    0.4928   -1.1305 H   0  0  0  0  0  0  0  0  0  0  0  0 
  1  3  2  0  0  0  0 
  1  9  1  0  0  0  0 
  2 12  1  0  0  0  0 
  3 14  1  0  0  0  0 
  4 15  1  0  0  0  0 
  4  2  1  0  0  0  0 
  4  6  1  0  0  0  0 
  5 17  1  0  0  0  0 
  5  3  1  0  0  0  0 
  6  7  2  0  0  0  0 
  8  6  1  0  0  0  0 
  8  5  1  0  0  0  0 
 10  1  1  0  0  0  0 
 11  2  1  0  0  0  0 
 13  2  1  0  0  0  0 
 16  4  1  0  0  0  0 
 18  5  1  0  0  0  0 
M  END 
>  <HBA> 
2 
 
>  <HBD> 
0 
 
>  <TPSA> 
42.37 
 
>  <cid> 
61995 
 
>  <dipole> 
0.93 
 
>  <excitation_energy_1> 
4.841 
 
>  <excitation_energy_2> 
5.37 
 
>  <excitation_energy_3> 
5.612 
 
>  <excitation_energy_4> 
5.933 
 
>  <homo_energy> 
-6.719 
 
>  <homo_lumo_gap> 
6.248 
 
>  <logP> 
1.842 
 
>  <lumo_energy> 
-0.471 
 
>  <melting_point> 
-16.8 
 
>  <molecular_refractivity> 
38.27 
 
>  <oscillator_strength_1> 
0.0019 
 
>  <oscillator_strength_2> 
0.0959 
 
>  <oscillator_strength_3> 
0.0019 
 
>  <oscillator_strength_4> 
0.0029 
 
>  <open_babel_can_smiles> 
CCC(=O)SCC=C 
 
>  <mulliken_charges> 
18 
1   -0.335347 
2   -0.437687 
3   -0.03152 
4   -0.346748 
5   -0.484251 
6   0.272141 
7   -0.415709 
8   0.101719 
9   0.147362 
10   0.141053 
11   0.147503 
12   0.163778 
13   0.166797 
14   0.143951 
15   0.178783 
16   0.181442 
17   0.224324 
18   0.18241 
 
>  <lowdin_charges> 
18 
1   -0.334393 
2   -0.43643 
3   -0.150087 
4   -0.296647 
5   -0.371924 
6   0.045005 
7   -0.233356 
8   0.117466 
9   0.164418 
10   0.15807 
11   0.155143 
12   0.158474 
13   0.159858 
14   0.161022 
15   0.169621 
16   0.171396 
17   0.192066 
18   0.170298 
 
$$$$ 
 
