PCCDB-ID:  26446 
public computational chemistry database (PCCDB) project, http://pccdb.org 
 
 23 24  0  0  0  0  0  0  0  0999 V2000 
    0.9369    0.0418    0.2416 C   0  0  0  0  0  0  0  0  0  0  0  0 
    6.7365   -2.4000   -0.2352 C   0  0  0  0  0  0  0  0  0  0  0  0 
    7.3886   -1.1486   -0.2514 C   0  0  0  0  0  0  0  0  0  0  0  0 
    5.3623   -2.4886   -0.1692 C   0  0  0  0  0  0  0  0  0  0  0  0 
    6.6472    0.0106   -0.1908 C   0  0  0  0  0  0  0  0  0  0  0  0 
    3.1753    1.0947    0.0669 C   0  0  0  0  0  0  0  0  0  0  0  0 
    2.4360   -0.0940    0.1132 C   0  0  0  0  0  0  0  0  0  0  0  0 
    4.5569   -1.3177   -0.1065 C   0  0  0  0  0  0  0  0  0  0  0  0 
    5.2449   -0.0717   -0.1139 C   0  0  0  0  0  0  0  0  0  0  0  0 
    3.1295   -1.2961    0.0112 C   0  0  0  0  0  0  0  0  0  0  0  0 
    4.5223    1.1366   -0.0399 N   0  3  0  0  0  0  0  0  0  0  0  0 
    2.3777   -2.5477    0.0214 N   0  0  0  0  0  0  0  0  0  0  0  0 
    5.1348    2.2475   -0.0711 O   0  5  0  0  0  0  0  0  0  0  0  0 
    1.3990   -2.6225    0.7684 O   0  0  0  0  0  0  0  0  0  0  0  0 
    2.7489   -3.4592   -0.7229 O   0  0  0  0  0  0  0  0  0  0  0  0 
    0.6334    1.0643    0.0001 H   0  0  0  0  0  0  0  0  0  0  0  0 
    0.6133   -0.1879    1.2609 H   0  0  0  0  0  0  0  0  0  0  0  0 
    0.4043   -0.6458   -0.4198 H   0  0  0  0  0  0  0  0  0  0  0  0 
    7.3235   -3.3129   -0.2769 H   0  0  0  0  0  0  0  0  0  0  0  0 
    8.4718   -1.0990   -0.3079 H   0  0  0  0  0  0  0  0  0  0  0  0 
    4.8820   -3.4566   -0.1712 H   0  0  0  0  0  0  0  0  0  0  0  0 
    7.0963    0.9954   -0.1934 H   0  0  0  0  0  0  0  0  0  0  0  0 
    2.7157    2.0729    0.1100 H   0  0  0  0  0  0  0  0  0  0  0  0 
  1 17  1  0  0  0  0 
  2  4  1  0  0  0  0 
  3  2  2  0  0  0  0 
  3  5  1  0  0  0  0 
  4  8  2  0  0  0  0 
  5  9  2  0  0  0  0 
  6 23  1  0  0  0  0 
  6  7  1  0  0  0  0 
  7  1  1  0  0  0  0 
  8 10  1  0  0  0  0 
  9  8  1  0  0  0  0 
  9 11  1  0  0  0  0 
 10 12  1  0  0  0  0 
 10  7  2  0  0  0  0 
 11  6  2  0  0  0  0 
 12 14  2  0  0  0  0 
 13 11  1  0  0  0  0 
 15 12  2  0  0  0  0 
 16  1  1  0  0  0  0 
 18  1  1  0  0  0  0 
 19  2  1  0  0  0  0 
 20  3  1  0  0  0  0 
 21  4  1  0  0  0  0 
 22  5  1  0  0  0  0 
M  CHG  2  11   1  13  -1 
M  END 
>  <HBA> 
1 
 
>  <HBD> 
0 
 
>  <TPSA> 
71.28 
 
>  <cid> 
26446 
 
>  <dipole> 
1.19 
 
>  <excitation_energy_1> 
3.137 
 
>  <excitation_energy_2> 
3.407 
 
>  <excitation_energy_3> 
3.654 
 
>  <excitation_energy_4> 
3.885 
 
>  <homo_energy> 
-6.231 
 
>  <homo_lumo_gap> 
3.401 
 
>  <logP> 
3.008 
 
>  <lumo_energy> 
-2.83 
 
>  <melting_point> 
107.79 
 
>  <molecular_refractivity> 
58.9 
 
>  <oscillator_strength_1> 
0.1621 
 
>  <oscillator_strength_2> 
0.0003 
 
>  <oscillator_strength_3> 
0.0014 
 
>  <oscillator_strength_4> 
0.01 
 
>  <open_babel_can_smiles> 
O=N(=O)c1c(C)c[n+](c2c1cccc2)[O-] 
 
>  <mulliken_charges> 
23 
1   -0.515187 
2   -0.122084 
3   -0.134266 
4   -0.190165 
5   -0.136153 
6   0.000328 
7   0.123738 
8   0.118531 
9   0.25555 
10   0.204802 
11   -0.077867 
12   0.322883 
13   -0.484686 
14   -0.383819 
15   -0.385932 
16   0.161555 
17   0.201493 
18   0.185292 
19   0.150295 
20   0.150497 
21   0.181008 
22   0.18827 
23   0.185917 
 
>  <lowdin_charges> 
23 
1   -0.435579 
2   -0.138142 
3   -0.13918 
4   -0.152843 
5   -0.144145 
6   -0.138889 
7   0.022438 
8   0.006856 
9   0.018088 
10   -0.017963 
11   0.227639 
12   0.305298 
13   -0.345769 
14   -0.241487 
15   -0.247337 
16   0.160488 
17   0.183489 
18   0.177283 
19   0.169295 
20   0.166871 
21   0.184443 
22   0.191302 
23   0.187846 
 
$$$$ 
 
