PCCDB-ID:  19657 
public computational chemistry database (PCCDB) project, http://pccdb.org 
 
 22 23  0  0  0  0  0  0  0  0999 V2000 
    1.4888    0.8017   -2.3579 C   0  0  0  0  0  0  0  0  0  0  0  0 
    4.7538   -1.4989    3.9669 C   0  0  0  0  0  0  0  0  0  0  0  0 
    3.9957   -2.6162    3.6090 C   0  0  0  0  0  0  0  0  0  0  0  0 
    4.8378   -0.4099    3.0981 C   0  0  0  0  0  0  0  0  0  0  0  0 
    3.3205   -2.6506    2.3888 C   0  0  0  0  0  0  0  0  0  0  0  0 
    4.1872    0.7226    0.9001 C   0  0  0  0  0  0  0  0  0  0  0  0 
    4.1546   -0.4172    1.8808 C   0  0  0  0  0  0  0  0  0  0  0  0 
    3.4066   -1.5497    1.5429 C   0  0  0  0  0  0  0  0  0  0  0  0 
    1.8131    0.1466   -1.1162 O   0  0  0  0  0  0  0  0  0  0  0  0 
    4.3116    0.2081   -0.4547 O   0  0  0  0  0  0  0  0  0  0  0  0 
    2.6852   -1.5874    0.3558 O   0  0  0  0  0  0  0  0  0  0  0  0 
    3.1379   -0.7716   -0.9880 P   0  0  1  0  0  0  0  0  0  0  0  0 
    3.6523   -1.8068   -2.5272 S   0  0  0  0  0  0  0  0  0  0  0  0 
    1.4392    0.0743   -3.1721 H   0  0  0  0  0  0  0  0  0  0  0  0 
    2.2311    1.5705   -2.5935 H   0  0  0  0  0  0  0  0  0  0  0  0 
    0.5124    1.2630   -2.2023 H   0  0  0  0  0  0  0  0  0  0  0  0 
    5.2874   -1.4795    4.9123 H   0  0  0  0  0  0  0  0  0  0  0  0 
    3.9334   -3.4698    4.2777 H   0  0  0  0  0  0  0  0  0  0  0  0 
    5.4368    0.4572    3.3661 H   0  0  0  0  0  0  0  0  0  0  0  0 
    2.7313   -3.5087    2.0833 H   0  0  0  0  0  0  0  0  0  0  0  0 
    5.0579    1.3644    1.0481 H   0  0  0  0  0  0  0  0  0  0  0  0 
    3.2822    1.3411    0.9597 H   0  0  0  0  0  0  0  0  0  0  0  0 
  1 16  1  0  0  0  0 
  1  9  1  0  0  0  0 
  2 17  1  0  0  0  0 
  3  2  1  0  0  0  0 
  3 18  1  0  0  0  0 
  4 19  1  0  0  0  0 
  4  2  2  0  0  0  0 
  5  3  2  0  0  0  0 
  6 22  1  0  0  0  0 
  6 21  1  0  0  0  0 
  6  7  1  0  0  0  0 
  7  4  1  0  0  0  0 
  8  7  2  0  0  0  0 
  8  5  1  0  0  0  0 
  9 12  1  0  0  0  0 
 10  6  1  0  0  0  0 
 11  8  1  0  0  0  0 
 12 13  1  6  0  0  0 
 12 10  1  0  0  0  0 
 12 11  1  0  0  0  0 
 14  1  1  0  0  0  0 
 15  1  1  0  0  0  0 
 20  5  1  0  0  0  0 
M  RAD  1  13   2 
M  END 
>  <HBA> 
4 
 
>  <HBD> 
0 
 
>  <TPSA> 
69.59 
 
>  <cid> 
19657 
 
>  <dipole> 
4.46 
 
>  <excitation_energy_1> 
4.984 
 
>  <excitation_energy_2> 
5.254 
 
>  <excitation_energy_3> 
5.304 
 
>  <excitation_energy_4> 
5.474 
 
>  <homo_energy> 
-6.444 
 
>  <homo_lumo_gap> 
5.848 
 
>  <logP> 
3.117 
 
>  <lumo_energy> 
-0.596 
 
>  <melting_point> 
32.01 
 
>  <molecular_refractivity> 
53.52 
 
>  <oscillator_strength_1> 
0.011 
 
>  <oscillator_strength_2> 
0.0027 
 
>  <oscillator_strength_3> 
0.0615 
 
>  <oscillator_strength_4> 
0.0071 
 
>  <open_babel_can_smiles> 
CO[P@@]1([S])OCc2c(O1)cccc2 
 
>  <mulliken_charges> 
22 
1   -0.225418 
2   -0.123172 
3   -0.138835 
4   -0.198063 
5   -0.162558 
6   -0.148661 
7   0.140622 
8   0.311382 
9   -0.498298 
10   -0.509312 
11   -0.571329 
12   0.999319 
13   -0.352281 
14   0.19362 
15   0.169613 
16   0.175105 
17   0.137581 
18   0.14277 
19   0.135584 
20   0.159006 
21   0.179684 
22   0.183639 
 
>  <lowdin_charges> 
22 
1   -0.271128 
2   -0.161817 
3   -0.142459 
4   -0.15148 
5   -0.166996 
6   -0.11756 
7   -0.052902 
8   0.108424 
9   -0.391264 
10   -0.38679 
11   -0.334524 
12   0.915552 
13   -0.346507 
14   0.172325 
15   0.158733 
16   0.165031 
17   0.162787 
18   0.165638 
19   0.161716 
20   0.177509 
21   0.171425 
22   0.164288 
 
$$$$ 
 
