PCCDB-ID:  47802 
public computational chemistry database (PCCDB) project, http://pccdb.org 
 
 34 35  0  0  1  0  0  0  0  0999 V2000 
   -1.5560    0.7957    0.1304 C   0  0  0  0  0  0  0  0  0  0  0  0 
   -0.3049    1.5659   -0.3262 C   0  0  0  0  0  0  0  0  0  0  0  0 
   -1.5660   -0.7143   -0.1499 C   0  0  0  0  0  0  0  0  0  0  0  0 
    0.9580    1.2275    0.4884 C   0  0  0  0  0  0  0  0  0  0  0  0 
   -0.3531   -1.5141    0.3603 C   0  0  0  0  0  0  0  0  0  0  0  0 
    1.7530   -0.0193    0.0475 C   0  0  0  0  0  0  0  0  0  0  0  0 
    3.1157   -2.4944   -1.3398 C   0  0  0  0  0  0  0  0  0  0  0  0 
    1.3755   -3.7860   -1.1427 C   0  0  0  0  0  0  0  0  0  0  0  0 
    0.9486   -1.2517   -0.4304 C   0  0  0  0  0  0  0  0  0  0  0  0 
    1.8538   -2.4878   -0.4277 C   0  0  2  0  0  0  0  0  0  0  0  0 
    2.8069   -3.9899   -1.6918 C   0  0  2  0  0  0  0  0  0  0  0  0 
    3.6424   -4.9664   -0.8808 C   0  0  0  0  0  0  0  0  0  0  0  0 
    3.2549   -5.6032    0.0671 O   0  0  0  0  0  0  0  0  0  0  0  0 
    4.9412   -5.0771   -1.2854 O   0  0  0  0  0  0  0  0  0  0  0  0 
   -2.4430    1.2377   -0.3440 H   0  0  0  0  0  0  0  0  0  0  0  0 
   -1.6790    0.9597    1.2115 H   0  0  0  0  0  0  0  0  0  0  0  0 
   -0.5123    2.6382   -0.2137 H   0  0  0  0  0  0  0  0  0  0  0  0 
   -0.1259    1.4057   -1.3997 H   0  0  0  0  0  0  0  0  0  0  0  0 
   -1.6504   -0.8778   -1.2349 H   0  0  0  0  0  0  0  0  0  0  0  0 
   -2.4802   -1.1368    0.2888 H   0  0  0  0  0  0  0  0  0  0  0  0 
    0.6613    1.1200    1.5409 H   0  0  0  0  0  0  0  0  0  0  0  0 
    1.6459    2.0827    0.4652 H   0  0  0  0  0  0  0  0  0  0  0  0 
   -0.6021   -2.5805    0.2789 H   0  0  0  0  0  0  0  0  0  0  0  0 
   -0.1924   -1.3263    1.4319 H   0  0  0  0  0  0  0  0  0  0  0  0 
    2.3953   -0.3219    0.8874 H   0  0  0  0  0  0  0  0  0  0  0  0 
    2.4405    0.2653   -0.7609 H   0  0  0  0  0  0  0  0  0  0  0  0 
    4.0848   -2.2714   -0.8806 H   0  0  0  0  0  0  0  0  0  0  0  0 
    2.9865   -1.8506   -2.2172 H   0  0  0  0  0  0  0  0  0  0  0  0 
    0.6642   -3.5738   -1.9484 H   0  0  0  0  0  0  0  0  0  0  0  0 
    0.9927   -4.5962   -0.5185 H   0  0  0  0  0  0  0  0  0  0  0  0 
    0.6552   -1.0775   -1.4785 H   0  0  0  0  0  0  0  0  0  0  0  0 
    2.1440   -2.7277    0.6037 H   0  0  0  0  0  0  0  0  0  0  0  0 
    2.8934   -4.2500   -2.7550 H   0  0  0  0  0  0  0  0  0  0  0  0 
    5.0969   -4.4936   -2.0468 H   0  0  0  0  0  0  0  0  0  0  0  0 
  1 16  1  0  0  0  0 
  2 17  1  0  0  0  0 
  2  1  1  0  0  0  0 
  2  4  1  0  0  0  0 
  3  1  1  0  0  0  0 
  3 20  1  0  0  0  0 
  3  5  1  0  0  0  0 
  4 21  1  0  0  0  0 
  5 24  1  0  0  0  0 
  6  4  1  0  0  0  0 
  6 25  1  0  0  0  0 
  7 27  1  0  0  0  0 
  7 10  1  0  0  0  0 
  8 30  1  0  0  0  0 
  8 10  1  0  0  0  0 
  9 10  1  0  0  0  0 
  9  6  1  0  0  0  0 
  9  5  1  0  0  0  0 
 10 32  1  1  0  0  0 
 11 33  1  6  0  0  0 
 11  7  1  0  0  0  0 
 11  8  1  0  0  0  0 
 11 12  1  0  0  0  0 
 12 13  2  0  0  0  0 
 14 12  1  0  0  0  0 
 15  1  1  0  0  0  0 
 18  2  1  0  0  0  0 
 19  3  1  0  0  0  0 
 22  4  1  0  0  0  0 
 23  5  1  0  0  0  0 
 26  6  1  0  0  0  0 
 28  7  1  0  0  0  0 
 29  8  1  0  0  0  0 
 31  9  1  0  0  0  0 
 34 14  1  0  0  0  0 
M  END 
>  <HBA> 
2 
 
>  <HBD> 
1 
 
>  <TPSA> 
37.3 
 
>  <cid> 
47802 
 
>  <dipole> 
4.23 
 
>  <excitation_energy_1> 
5.609 
 
>  <excitation_energy_2> 
6.368 
 
>  <excitation_energy_3> 
6.78 
 
>  <excitation_energy_4> 
6.968 
 
>  <homo_energy> 
-7.244 
 
>  <homo_lumo_gap> 
7.505 
 
>  <logP> 
3.068 
 
>  <lumo_energy> 
0.261 
 
>  <melting_point> 
91.77 
 
>  <molecular_refractivity> 
57.34 
 
>  <oscillator_strength_1> 
0.0019 
 
>  <oscillator_strength_2> 
0.0096 
 
>  <oscillator_strength_3> 
0.0043 
 
>  <oscillator_strength_4> 
0.0068 
 
>  <open_babel_can_smiles> 
OC(=O)[C@@H]1C[C@H](C1)C1CCCCCC1 
 
>  <mulliken_charges> 
34 
1   -0.255573 
2   -0.253608 
3   -0.260303 
4   -0.264151 
5   -0.271727 
6   -0.26846 
7   -0.296979 
8   -0.277082 
9   -0.073228 
10   -0.088251 
11   -0.254248 
12   0.601864 
13   -0.439848 
14   -0.570685 
15   0.128273 
16   0.128169 
17   0.130323 
18   0.126645 
19   0.125874 
20   0.130171 
21   0.132268 
22   0.130672 
23   0.139836 
24   0.131321 
25   0.129492 
26   0.129084 
27   0.150141 
28   0.143773 
29   0.133962 
30   0.1732 
31   0.108261 
32   0.143945 
33   0.147635 
34   0.409232 
 
>  <lowdin_charges> 
34 
1   -0.275975 
2   -0.276691 
3   -0.274798 
4   -0.280326 
5   -0.277603 
6   -0.281471 
7   -0.287974 
8   -0.286141 
9   -0.130174 
10   -0.125174 
11   -0.177758 
12   0.194947 
13   -0.239105 
14   -0.362318 
15   0.142865 
16   0.135222 
17   0.142779 
18   0.135605 
19   0.133812 
20   0.14384 
21   0.137749 
22   0.145224 
23   0.146845 
24   0.139435 
25   0.142488 
26   0.140451 
27   0.146814 
28   0.149914 
29   0.148431 
30   0.164124 
31   0.127663 
32   0.148732 
33   0.150222 
34   0.358342 
 
$$$$ 
 
