PCCDB-ID:  22865 
public computational chemistry database (PCCDB) project, http://pccdb.org 
 
 24 24  0  0  0  0  0  0  0  0999 V2000 
    0.8560    0.2005    0.5407 C   0  0  0  0  0  0  0  0  0  0  0  0 
    7.3016    0.8330    1.5688 C   0  0  0  0  0  0  0  0  0  0  0  0 
    3.2340   -0.6754    0.6165 C   0  0  0  0  0  0  0  0  0  0  0  0 
    4.5976   -0.5920    0.3336 C   0  0  0  0  0  0  0  0  0  0  0  0 
    4.1832    1.4789   -0.8389 C   0  0  0  0  0  0  0  0  0  0  0  0 
    2.3237    0.2991    0.2057 C   0  0  0  0  0  0  0  0  0  0  0  0 
    7.3773    0.7108    0.0618 C   0  0  0  0  0  0  0  0  0  0  0  0 
    5.0858    0.5048   -0.3938 C   0  0  0  0  0  0  0  0  0  0  0  0 
    2.8184    1.3954   -0.5395 C   0  0  0  0  0  0  0  0  0  0  0  0 
    1.9509    2.4261   -0.9296 N   0  0  0  0  0  0  0  0  0  0  0  0 
    6.4331    0.6119   -0.7782 N   0  0  0  0  0  0  0  0  0  0  0  0 
    8.6429    0.7429   -0.4526 O   0  0  0  0  0  0  0  0  0  0  0  0 
    0.6566   -0.6701    1.1729 H   0  0  0  0  0  0  0  0  0  0  0  0 
    0.2268    0.0960   -0.3569 H   0  0  0  0  0  0  0  0  0  0  0  0 
    0.5017    1.0918    1.0761 H   0  0  0  0  0  0  0  0  0  0  0  0 
    6.2661    0.8585    1.9094 H   0  0  0  0  0  0  0  0  0  0  0  0 
    7.8051    1.7522    1.8954 H   0  0  0  0  0  0  0  0  0  0  0  0 
    7.8050   -0.0134    2.0529 H   0  0  0  0  0  0  0  0  0  0  0  0 
    2.8624   -1.5294    1.1794 H   0  0  0  0  0  0  0  0  0  0  0  0 
    5.2773   -1.3797    0.6443 H   0  0  0  0  0  0  0  0  0  0  0  0 
    4.5626    2.3125   -1.4247 H   0  0  0  0  0  0  0  0  0  0  0  0 
    2.3092    3.0018   -1.6824 H   0  0  0  0  0  0  0  0  0  0  0  0 
    1.0012    2.1317   -1.1226 H   0  0  0  0  0  0  0  0  0  0  0  0 
    9.2768    0.8526    0.2726 H   0  0  0  0  0  0  0  0  0  0  0  0 
  1 15  1  0  0  0  0 
  1 13  1  0  0  0  0 
  2 17  1  0  0  0  0 
  2 16  1  0  0  0  0 
  2 18  1  0  0  0  0 
  3 19  1  0  0  0  0 
  4  3  1  0  0  0  0 
  4 20  1  0  0  0  0 
  5  9  2  0  0  0  0 
  5  8  1  0  0  0  0 
  6  1  1  0  0  0  0 
  6  3  2  0  0  0  0 
  7  2  1  0  0  0  0 
  8  4  2  0  0  0  0 
  9  6  1  0  0  0  0 
 10  9  1  0  0  0  0 
 11  8  1  0  0  0  0 
 11  7  2  0  0  0  0 
 12  7  1  0  0  0  0 
 12 24  1  0  0  0  0 
 14  1  1  0  0  0  0 
 21  5  1  0  0  0  0 
 22 10  1  0  0  0  0 
 23 10  1  0  0  0  0 
M  END 
>  <HBA> 
3 
 
>  <HBD> 
2 
 
>  <TPSA> 
55.12 
 
>  <cid> 
22865 
 
>  <dipole> 
2.29 
 
>  <excitation_energy_1> 
4.428 
 
>  <excitation_energy_2> 
4.591 
 
>  <excitation_energy_3> 
4.717 
 
>  <excitation_energy_4> 
4.8 
 
>  <homo_energy> 
-5.159 
 
>  <homo_lumo_gap> 
5.279 
 
>  <logP> 
2.19 
 
>  <lumo_energy> 
0.12 
 
>  <melting_point> 
113.59 
 
>  <molecular_refractivity> 
50.13 
 
>  <oscillator_strength_1> 
0.0947 
 
>  <oscillator_strength_2> 
0.0029 
 
>  <oscillator_strength_3> 
0.0062 
 
>  <oscillator_strength_4> 
0.0326 
 
>  <open_babel_can_smiles> 
C/C(=N\c1ccc(c(c1)N)C)/O 
 
>  <mulliken_charges> 
24 
1   -0.552799 
2   -0.555192 
3   -0.209946 
4   -0.165793 
5   -0.20595 
6   0.167585 
7   0.482166 
8   0.234517 
9   0.241366 
10   -0.793493 
11   -0.46876 
12   -0.572894 
13   0.156495 
14   0.145354 
15   0.164459 
16   0.201525 
17   0.168099 
18   0.172651 
19   0.115167 
20   0.114348 
21   0.116372 
22   0.31857 
23   0.320011 
24   0.406143 
 
>  <lowdin_charges> 
24 
1   -0.446139 
2   -0.484648 
3   -0.157296 
4   -0.219928 
5   -0.219315 
6   -0.05136 
7   0.146949 
8   0.053657 
9   0.053457 
10   -0.491078 
11   -0.172375 
12   -0.365833 
13   0.159524 
14   0.147773 
15   0.158565 
16   0.184994 
17   0.166585 
18   0.169293 
19   0.152189 
20   0.154694 
21   0.156794 
22   0.274339 
23   0.273447 
24   0.35571 
 
$$$$ 
 
