PCCDB-ID:  72896 
public computational chemistry database (PCCDB) project, http://pccdb.org 
 
 28 29  0  0  0  0  0  0  0  0999 V2000 
   -1.3206   -2.2644   -0.3618 C   0  0  0  0  0  0  0  0  0  0  0  0 
   -0.5926   -2.2691    0.8287 C   0  0  0  0  0  0  0  0  0  0  0  0 
   -1.0129   -1.3379   -1.3613 C   0  0  0  0  0  0  0  0  0  0  0  0 
    0.0003    4.0417   -2.2065 C   0  0  0  0  0  0  0  0  0  0  0  0 
    0.4450   -1.3557    1.0144 C   0  0  0  0  0  0  0  0  0  0  0  0 
    0.0144   -0.4155   -1.1744 C   0  0  0  0  0  0  0  0  0  0  0  0 
   -1.1496    4.2319   -1.4420 C   0  0  0  0  0  0  0  0  0  0  0  0 
    1.0334    3.2170   -1.7668 C   0  0  0  0  0  0  0  0  0  0  0  0 
   -0.2484    2.7379    0.2360 C   0  0  0  0  0  0  0  0  0  0  0  0 
    0.7554   -0.4166    0.0169 C   0  0  0  0  0  0  0  0  0  0  0  0 
   -1.2789    3.5823   -0.2034 C   0  0  0  0  0  0  0  0  0  0  0  0 
    0.9010    2.5412   -0.5416 C   0  0  0  0  0  0  0  0  0  0  0  0 
    1.8925    0.5361    0.2208 C   0  0  0  0  0  0  0  0  0  0  0  0 
   -2.4476    3.7244    0.5576 N   0  0  0  0  0  0  0  0  0  0  0  0 
    1.9782    1.7669   -0.0806 N   0  0  0  0  0  0  0  0  0  0  0  0 
    2.9938   -0.0154    0.8155 O   0  0  0  0  0  0  0  0  0  0  0  0 
   -2.1262   -2.9782   -0.5103 H   0  0  0  0  0  0  0  0  0  0  0  0 
   -0.8319   -2.9812    1.6137 H   0  0  0  0  0  0  0  0  0  0  0  0 
   -1.5757   -1.3326   -2.2904 H   0  0  0  0  0  0  0  0  0  0  0  0 
    0.0968    4.5588   -3.1581 H   0  0  0  0  0  0  0  0  0  0  0  0 
    0.9993   -1.3512    1.9498 H   0  0  0  0  0  0  0  0  0  0  0  0 
    0.2470    0.3069   -1.9492 H   0  0  0  0  0  0  0  0  0  0  0  0 
   -1.9446    4.8848   -1.7948 H   0  0  0  0  0  0  0  0  0  0  0  0 
    1.9409    3.0877   -2.3475 H   0  0  0  0  0  0  0  0  0  0  0  0 
   -0.3341    2.2329    1.1947 H   0  0  0  0  0  0  0  0  0  0  0  0 
   -2.9435    4.5935    0.3989 H   0  0  0  0  0  0  0  0  0  0  0  0 
   -2.3219    3.5583    1.5491 H   0  0  0  0  0  0  0  0  0  0  0  0 
    2.9120   -0.9817    0.7751 H   0  0  0  0  0  0  0  0  0  0  0  0 
  1  2  2  0  0  0  0 
  2  5  1  0  0  0  0 
  2 18  1  0  0  0  0 
  3  6  2  0  0  0  0 
  3  1  1  0  0  0  0 
  4  8  2  0  0  0  0 
  4  7  1  0  0  0  0 
  5 21  1  0  0  0  0 
  6 10  1  0  0  0  0 
  7 11  2  0  0  0  0 
  8 12  1  0  0  0  0 
  9 25  1  0  0  0  0 
 10 13  1  0  0  0  0 
 10  5  2  0  0  0  0 
 11  9  1  0  0  0  0 
 11 14  1  0  0  0  0 
 12 15  1  0  0  0  0 
 12  9  2  0  0  0  0 
 13 16  1  0  0  0  0 
 14 27  1  0  0  0  0 
 15 13  2  0  0  0  0 
 17  1  1  0  0  0  0 
 19  3  1  0  0  0  0 
 20  4  1  0  0  0  0 
 22  6  1  0  0  0  0 
 23  7  1  0  0  0  0 
 24  8  1  0  0  0  0 
 26 14  1  0  0  0  0 
 28 16  1  0  0  0  0 
M  END 
>  <HBA> 
3 
 
>  <HBD> 
2 
 
>  <TPSA> 
55.12 
 
>  <cid> 
72896 
 
>  <dipole> 
3.76 
 
>  <excitation_energy_1> 
3.405 
 
>  <excitation_energy_2> 
3.875 
 
>  <excitation_energy_3> 
4.065 
 
>  <excitation_energy_4> 
4.538 
 
>  <homo_energy> 
-5.176 
 
>  <homo_lumo_gap> 
4.125 
 
>  <logP> 
3.175 
 
>  <lumo_energy> 
-1.05 
 
>  <melting_point> 
150.14 
 
>  <molecular_refractivity> 
65.06 
 
>  <oscillator_strength_1> 
0.0127 
 
>  <oscillator_strength_2> 
0.0205 
 
>  <oscillator_strength_3> 
0.0025 
 
>  <oscillator_strength_4> 
0.0019 
 
>  <open_babel_can_smiles> 
Nc1cccc(c1)/N=C(\c1ccccc1)/O 
 
>  <mulliken_charges> 
28 
1   -0.120491 
2   -0.130611 
3   -0.135556 
4   -0.142557 
5   -0.193001 
6   -0.14287 
7   -0.177691 
8   -0.16932 
9   -0.197388 
10   0.058215 
11   0.304445 
12   0.235826 
13   0.411042 
14   -0.788124 
15   -0.475495 
16   -0.576135 
17   0.139236 
18   0.138779 
19   0.142992 
20   0.122903 
21   0.145423 
22   0.16486 
23   0.109272 
24   0.123531 
25   0.113255 
26   0.31672 
27   0.31707 
28   0.405671 
 
>  <lowdin_charges> 
28 
1   -0.14465 
2   -0.15445 
3   -0.148456 
4   -0.14254 
5   -0.169408 
6   -0.136951 
7   -0.219504 
8   -0.21211 
9   -0.226576 
10   -0.04467 
11   0.064134 
12   0.058402 
13   0.139081 
14   -0.489069 
15   -0.162631 
16   -0.357154 
17   0.162935 
18   0.162952 
19   0.164473 
20   0.154838 
21   0.162706 
22   0.17793 
23   0.150885 
24   0.159881 
25   0.153046 
26   0.272691 
27   0.271268 
28   0.352947 
 
$$$$ 
 
