PCCDB-ID:  14099 
public computational chemistry database (PCCDB) project, http://pccdb.org 
 
 18 18  0  0  0  0  0  0  0  0999 V2000 
    1.3862   -0.4977   -0.3695 C   0  0  0  0  0  0  0  0  0  0  0  0 
    3.8327   -6.0068    0.7959 C   0  0  0  0  0  0  0  0  0  0  0  0 
    5.3904   -2.3449    0.9317 C   0  0  0  0  0  0  0  0  0  0  0  0 
    3.4472   -1.4478    0.3001 C   0  0  0  0  0  0  0  0  0  0  0  0 
    3.6378   -3.6616    0.5421 C   0  0  0  0  0  0  0  0  0  0  0  0 
    4.7250   -1.2280    0.6468 N   0  0  0  0  0  0  0  0  0  0  0  0 
    4.9190   -3.5951    0.9044 N   0  0  0  0  0  0  0  0  0  0  0  0 
    2.8414   -2.6305    0.2250 N   0  0  0  0  0  0  0  0  0  0  0  0 
    6.6739   -2.2199    1.2867 O   0  0  0  0  0  0  0  0  0  0  0  0 
    2.7618   -0.3424    0.0118 O   0  0  0  0  0  0  0  0  0  0  0  0 
    3.0431   -4.8515    0.4728 O   0  0  0  0  0  0  0  0  0  0  0  0 
    1.0288    0.5167   -0.5498 H   0  0  0  0  0  0  0  0  0  0  0  0 
    0.8123   -0.9721    0.4306 H   0  0  0  0  0  0  0  0  0  0  0  0 
    1.3006   -1.1031   -1.2755 H   0  0  0  0  0  0  0  0  0  0  0  0 
    3.1571   -6.8531    0.6675 H   0  0  0  0  0  0  0  0  0  0  0  0 
    4.1934   -5.9546    1.8263 H   0  0  0  0  0  0  0  0  0  0  0  0 
    4.6897   -6.0919    0.1231 H   0  0  0  0  0  0  0  0  0  0  0  0 
    6.8680   -1.2652    1.2596 H   0  0  0  0  0  0  0  0  0  0  0  0 
  1 10  1  0  0  0  0 
  1 13  1  0  0  0  0 
  2 16  1  0  0  0  0 
  3  9  1  0  0  0  0 
  4  6  2  0  0  0  0 
  5  7  2  0  0  0  0 
  6  3  2  0  0  0  0 
  7  3  1  0  0  0  0 
  8  4  1  0  0  0  0 
  8  5  1  0  0  0  0 
 10  4  1  0  0  0  0 
 11  5  1  0  0  0  0 
 11  2  1  0  0  0  0 
 12  1  1  0  0  0  0 
 14  1  1  0  0  0  0 
 15  2  1  0  0  0  0 
 17  2  1  0  0  0  0 
 18  9  1  0  0  0  0 
M  RAD  1   8   2 
M  END 
>  <HBA> 
5 
 
>  <HBD> 
1 
 
>  <TPSA> 
77.1 
 
>  <cid> 
14099 
 
>  <dipole> 
0.78 
 
>  <excitation_energy_1> 
5.724 
 
>  <excitation_energy_2> 
5.881 
 
>  <excitation_energy_3> 
5.891 
 
>  <excitation_energy_4> 
5.925 
 
>  <homo_energy> 
-7.44 
 
>  <homo_lumo_gap> 
7.061 
 
>  <logP> 
-0.818 
 
>  <lumo_energy> 
-0.378 
 
>  <melting_point> 
128.26 
 
>  <molecular_refractivity> 
35.64 
 
>  <oscillator_strength_1> 
0.0 
 
>  <oscillator_strength_2> 
0.0001 
 
>  <oscillator_strength_3> 
0.0016 
 
>  <oscillator_strength_4> 
0.0036 
 
>  <open_babel_can_smiles> 
COC1=NC(=[N]=C([N]1)OC)O 
 
>  <mulliken_charges> 
18 
1   -0.211495 
2   -0.212084 
3   0.647237 
4   0.684701 
5   0.683772 
6   -0.52199 
7   -0.508561 
8   -0.522109 
9   -0.579849 
10   -0.459512 
11   -0.458546 
12   0.168777 
13   0.174228 
14   0.17385 
15   0.168871 
16   0.174603 
17   0.174944 
18   0.423164 
 
>  <lowdin_charges> 
18 
1   -0.272763 
2   -0.27342 
3   0.177183 
4   0.178272 
5   0.181121 
6   -0.239498 
7   -0.228055 
8   -0.227931 
9   -0.322784 
10   -0.156285 
11   -0.15536 
12   0.16161 
13   0.162841 
14   0.161445 
15   0.162969 
16   0.16063 
17   0.162419 
18   0.367608 
 
$$$$ 
 
