PCCDB-ID:  43657 
public computational chemistry database (PCCDB) project, http://pccdb.org 
 
 39 38  0  0  0  0  0  0  0  0999 V2000 
    9.1619   -2.7658    1.5906 C   0  0  0  0  0  0  0  0  0  0  0  0 
   12.0102   -0.1719    8.6414 C   0  0  0  0  0  0  0  0  0  0  0  0 
    8.6775   -2.8828    3.0412 C   0  0  0  0  0  0  0  0  0  0  0  0 
   11.3846    1.2119    8.3962 C   0  0  0  0  0  0  0  0  0  0  0  0 
    8.1632   -1.5863    3.6945 C   0  0  0  0  0  0  0  0  0  0  0  0 
   11.8664    1.8512    7.1219 C   0  0  0  0  0  0  0  0  0  0  0  0 
    6.9241   -0.9396    3.0364 C   0  0  0  0  0  0  0  0  0  0  0  0 
   11.0929    2.2033    6.0915 C   0  0  0  0  0  0  0  0  0  0  0  0 
    7.1576    0.0493    1.8766 C   0  0  0  0  0  0  0  0  0  0  0  0 
   11.5911    2.8293    4.8156 C   0  0  0  0  0  0  0  0  0  0  0  0 
    7.8351    1.3721    2.2827 C   0  0  0  0  0  0  0  0  0  0  0  0 
   11.2656    2.0139    3.5662 C   0  0  0  0  0  0  0  0  0  0  0  0 
    9.3482    1.2931    2.3648 C   0  0  0  0  0  0  0  0  0  0  0  0 
   10.0611    0.7257    1.5628 O   0  0  0  0  0  0  0  0  0  0  0  0 
    9.8259    1.9771    3.4288 O   0  0  0  0  0  0  0  0  0  0  0  0 
    9.6366   -3.6997    1.2667 H   0  0  0  0  0  0  0  0  0  0  0  0 
    9.8888   -1.9548    1.4740 H   0  0  0  0  0  0  0  0  0  0  0  0 
    8.3337   -2.5683    0.9009 H   0  0  0  0  0  0  0  0  0  0  0  0 
   11.6656   -0.5971    9.5909 H   0  0  0  0  0  0  0  0  0  0  0  0 
   13.1045   -0.1101    8.6805 H   0  0  0  0  0  0  0  0  0  0  0  0 
   11.7452   -0.8691    7.8388 H   0  0  0  0  0  0  0  0  0  0  0  0 
    9.5012   -3.2652    3.6598 H   0  0  0  0  0  0  0  0  0  0  0  0 
    7.8833   -3.6419    3.0975 H   0  0  0  0  0  0  0  0  0  0  0  0 
   11.6301    1.8649    9.2474 H   0  0  0  0  0  0  0  0  0  0  0  0 
   10.2906    1.1270    8.3751 H   0  0  0  0  0  0  0  0  0  0  0  0 
    8.9840   -0.8602    3.7599 H   0  0  0  0  0  0  0  0  0  0  0  0 
    7.9046   -1.8278    4.7345 H   0  0  0  0  0  0  0  0  0  0  0  0 
   12.9443    2.0207    7.0545 H   0  0  0  0  0  0  0  0  0  0  0  0 
    6.3548   -0.4057    3.8109 H   0  0  0  0  0  0  0  0  0  0  0  0 
    6.2582   -1.7393    2.6816 H   0  0  0  0  0  0  0  0  0  0  0  0 
   10.0172    2.0341    6.1495 H   0  0  0  0  0  0  0  0  0  0  0  0 
    6.1781    0.2959    1.4478 H   0  0  0  0  0  0  0  0  0  0  0  0 
    7.7442   -0.4061    1.0733 H   0  0  0  0  0  0  0  0  0  0  0  0 
   12.6803    2.9574    4.8587 H   0  0  0  0  0  0  0  0  0  0  0  0 
   11.1562    3.8313    4.6886 H   0  0  0  0  0  0  0  0  0  0  0  0 
    7.4356    1.7585    3.2259 H   0  0  0  0  0  0  0  0  0  0  0  0 
    7.6241    2.1298    1.5151 H   0  0  0  0  0  0  0  0  0  0  0  0 
   11.6409    0.9887    3.6422 H   0  0  0  0  0  0  0  0  0  0  0  0 
   11.6942    2.4661    2.6657 H   0  0  0  0  0  0  0  0  0  0  0  0 
  1  3  1  0  0  0  0 
  2 20  1  0  0  0  0 
  2 19  1  0  0  0  0 
  3 23  1  0  0  0  0 
  3 22  1  0  0  0  0 
  3  5  1  0  0  0  0 
  4  2  1  0  0  0  0 
  4 24  1  0  0  0  0 
  5 26  1  0  0  0  0 
  5 27  1  0  0  0  0 
  6  4  1  0  0  0  0 
  7  5  1  0  0  0  0 
  7 29  1  0  0  0  0 
  8 31  1  0  0  0  0 
  8  6  2  0  0  0  0 
  9 11  1  0  0  0  0 
  9  7  1  0  0  0  0 
 10 34  1  0  0  0  0 
 10  8  1  0  0  0  0 
 11 13  1  0  0  0  0 
 11 36  1  0  0  0  0 
 12 38  1  0  0  0  0 
 12 10  1  0  0  0  0 
 13 15  1  0  0  0  0 
 14 13  2  0  0  0  0 
 15 12  1  0  0  0  0 
 16  1  1  0  0  0  0 
 17  1  1  0  0  0  0 
 18  1  1  0  0  0  0 
 21  2  1  0  0  0  0 
 25  4  1  0  0  0  0 
 28  6  1  0  0  0  0 
 30  7  1  0  0  0  0 
 32  9  1  0  0  0  0 
 33  9  1  0  0  0  0 
 35 10  1  0  0  0  0 
 37 11  1  0  0  0  0 
 39 12  1  0  0  0  0 
M  END 
>  <HBA> 
2 
 
>  <HBD> 
0 
 
>  <TPSA> 
26.3 
 
>  <cid> 
43657 
 
>  <dipole> 
1.86 
 
>  <excitation_energy_1> 
5.757 
 
>  <excitation_energy_2> 
6.145 
 
>  <excitation_energy_3> 
6.234 
 
>  <excitation_energy_4> 
6.375 
 
>  <homo_energy> 
-6.631 
 
>  <homo_lumo_gap> 
6.985 
 
>  <logP> 
3.856 
 
>  <lumo_energy> 
0.354 
 
>  <melting_point> 
-8.98 
 
>  <molecular_refractivity> 
65.42 
 
>  <oscillator_strength_1> 
0.0013 
 
>  <oscillator_strength_2> 
0.0078 
 
>  <oscillator_strength_3> 
0.0122 
 
>  <oscillator_strength_4> 
0.1284 
 
>  <open_babel_can_smiles> 
CCCCCCC(=O)OCC/C=C/CC 
 
>  <mulliken_charges> 
39 
1   -0.453258 
2   -0.439872 
3   -0.248039 
4   -0.295387 
5   -0.259103 
6   -0.088559 
7   -0.260354 
8   -0.094525 
9   -0.268972 
10   -0.334011 
11   -0.352674 
12   -0.035661 
13   0.631471 
14   -0.482961 
15   -0.467437 
16   0.134584 
17   0.172468 
18   0.140235 
19   0.144064 
20   0.143327 
21   0.150753 
22   0.128317 
23   0.125797 
24   0.142476 
25   0.139861 
26   0.138127 
27   0.127091 
28   0.11441 
29   0.126994 
30   0.132568 
31   0.131465 
32   0.131804 
33   0.171086 
34   0.145882 
35   0.155933 
36   0.159978 
37   0.17243 
38   0.162419 
39   0.157275 
 
>  <lowdin_charges> 
39 
1   -0.455253 
2   -0.441467 
3   -0.273056 
4   -0.267088 
5   -0.281531 
6   -0.161335 
7   -0.27991 
8   -0.171784 
9   -0.277054 
10   -0.275001 
11   -0.302492 
12   -0.123386 
13   0.19603 
14   -0.274098 
15   -0.199 
16   0.146494 
17   0.160892 
18   0.14526 
19   0.150176 
20   0.145408 
21   0.151754 
22   0.141123 
23   0.135948 
24   0.148664 
25   0.144269 
26   0.14346 
27   0.14109 
28   0.141636 
29   0.140756 
30   0.143969 
31   0.150678 
32   0.145582 
33   0.161339 
34   0.152807 
35   0.155478 
36   0.160068 
37   0.173801 
38   0.152669 
39   0.153106 
 
$$$$ 
 
