PCCDB-ID:  23875 
public computational chemistry database (PCCDB) project, http://pccdb.org 
 
 31 31  0  0  1  0  0  0  0  0999 V2000 
    0.2497   -1.0471   -1.9513 C   0  0  0  0  0  0  0  0  0  0  0  0 
    2.2144   -1.8202    0.3931 C   0  0  0  0  0  0  0  0  0  0  0  0 
    5.3706    0.6139   -4.3365 C   0  0  0  0  0  0  0  0  0  0  0  0 
    5.0960   -4.1878   -3.4667 C   0  0  0  0  0  0  0  0  0  0  0  0 
    1.7186   -1.4615   -2.0982 C   0  0  0  0  0  0  0  0  0  0  0  0 
    2.6010   -1.0772   -0.8926 C   0  0  2  0  0  0  0  0  0  0  0  0 
    4.1355   -1.2430   -1.2100 C   0  0  0  0  0  0  0  0  0  0  0  0 
    4.5833   -0.1226   -2.1303 C   0  0  0  0  0  0  0  0  0  0  0  0 
    4.4786   -2.6483   -1.6597 C   0  0  0  0  0  0  0  0  0  0  0  0 
    5.1472   -1.7790   -3.8835 C   0  0  0  0  0  0  0  0  0  0  0  0 
    4.9878   -0.4675   -3.4172 N   0  0  0  0  0  0  0  0  0  0  0  0 
    4.8495   -2.8182   -2.9931 N   0  0  0  0  0  0  0  0  0  0  0  0 
    4.5575    1.0407   -1.7671 O   0  0  0  0  0  0  0  0  0  0  0  0 
    4.4034   -3.6052   -0.9073 O   0  0  0  0  0  0  0  0  0  0  0  0 
    5.5390   -2.0042   -5.0142 O   0  0  0  0  0  0  0  0  0  0  0  0 
   -0.3107   -1.2836   -2.8624 H   0  0  0  0  0  0  0  0  0  0  0  0 
    0.1591    0.0317   -1.7753 H   0  0  0  0  0  0  0  0  0  0  0  0 
   -0.2417   -1.5642   -1.1207 H   0  0  0  0  0  0  0  0  0  0  0  0 
    1.1768   -1.6006    0.6644 H   0  0  0  0  0  0  0  0  0  0  0  0 
    2.8475   -1.5064    1.2308 H   0  0  0  0  0  0  0  0  0  0  0  0 
    2.3237   -2.9026    0.2813 H   0  0  0  0  0  0  0  0  0  0  0  0 
    4.8082    1.5037   -4.0595 H   0  0  0  0  0  0  0  0  0  0  0  0 
    5.1455    0.3023   -5.3544 H   0  0  0  0  0  0  0  0  0  0  0  0 
    6.4410    0.8267   -4.2541 H   0  0  0  0  0  0  0  0  0  0  0  0 
    4.4217   -4.8562   -2.9338 H   0  0  0  0  0  0  0  0  0  0  0  0 
    6.1284   -4.4871   -3.2607 H   0  0  0  0  0  0  0  0  0  0  0  0 
    4.9199   -4.2196   -4.5397 H   0  0  0  0  0  0  0  0  0  0  0  0 
    2.1211   -0.9922   -3.0064 H   0  0  0  0  0  0  0  0  0  0  0  0 
    1.7760   -2.5470   -2.2596 H   0  0  0  0  0  0  0  0  0  0  0  0 
    2.4860   -0.0005   -0.7141 H   0  0  0  0  0  0  0  0  0  0  0  0 
    4.6646   -1.0833   -0.2642 H   0  0  0  0  0  0  0  0  0  0  0  0 
  1 17  1  0  0  0  0 
  1 18  1  0  0  0  0 
  2 19  1  0  0  0  0 
  2 20  1  0  0  0  0 
  3 24  1  0  0  0  0 
  3 22  1  0  0  0  0 
  3 11  1  0  0  0  0 
  4 26  1  0  0  0  0 
  4 12  1  0  0  0  0 
  4 25  1  0  0  0  0 
  5  1  1  0  0  0  0 
  5  6  1  0  0  0  0 
  6 30  1  1  0  0  0 
  6  2  1  0  0  0  0 
  7  6  1  0  0  0  0 
  7 31  1  0  0  0  0 
  8 13  2  0  0  0  0 
  8  7  1  0  0  0  0 
  9  7  1  0  0  0  0 
  9 14  2  0  0  0  0 
 10 11  1  0  0  0  0 
 10 12  1  0  0  0  0 
 11  8  1  0  0  0  0 
 12  9  1  0  0  0  0 
 15 10  2  0  0  0  0 
 16  1  1  0  0  0  0 
 21  2  1  0  0  0  0 
 23  3  1  0  0  0  0 
 27  4  1  0  0  0  0 
 28  5  1  0  0  0  0 
 29  5  1  0  0  0  0 
M  END 
>  <HBA> 
5 
 
>  <HBD> 
0 
 
>  <TPSA> 
57.69 
 
>  <cid> 
23875 
 
>  <dipole> 
1.06 
 
>  <excitation_energy_1> 
4.559 
 
>  <excitation_energy_2> 
5.189 
 
>  <excitation_energy_3> 
5.459 
 
>  <excitation_energy_4> 
5.775 
 
>  <homo_energy> 
-7.083 
 
>  <homo_lumo_gap> 
5.886 
 
>  <logP> 
0.575 
 
>  <lumo_energy> 
-1.197 
 
>  <melting_point> 
73.14 
 
>  <molecular_refractivity> 
62.68 
 
>  <oscillator_strength_1> 
0.0003 
 
>  <oscillator_strength_2> 
0.0083 
 
>  <oscillator_strength_3> 
0.065 
 
>  <oscillator_strength_4> 
0.0097 
 
>  <open_babel_can_smiles> 
CC[C@H](C1C(=O)N(C)C(=O)N(C1=O)C)C 
 
>  <mulliken_charges> 
31 
1   -0.450565 
2   -0.460341 
3   -0.320453 
4   -0.318173 
5   -0.273162 
6   -0.07765 
7   -0.303962 
8   0.618519 
9   0.62339 
10   0.790701 
11   -0.528508 
12   -0.52583 
13   -0.491823 
14   -0.48948 
15   -0.495604 
16   0.14908 
17   0.149962 
18   0.153412 
19   0.148861 
20   0.146623 
21   0.177064 
22   0.194849 
23   0.195046 
24   0.178589 
25   0.19104 
26   0.178733 
27   0.195702 
28   0.134372 
29   0.144909 
30   0.163388 
31   0.201313 
 
>  <lowdin_charges> 
31 
1   -0.443913 
2   -0.447983 
3   -0.347313 
4   -0.346285 
5   -0.280405 
6   -0.104803 
7   -0.180055 
8   0.16633 
9   0.17285 
10   0.193052 
11   -0.085009 
12   -0.087729 
13   -0.26719 
14   -0.267004 
15   -0.277832 
16   0.154647 
17   0.149094 
18   0.152425 
19   0.15208 
20   0.153606 
21   0.162796 
22   0.179978 
23   0.178628 
24   0.16337 
25   0.178795 
26   0.164054 
27   0.178366 
28   0.142104 
29   0.143517 
30   0.156229 
31   0.193599 
 
$$$$ 
 
