PCCDB-ID:  12030 
public computational chemistry database (PCCDB) project, http://pccdb.org 
 
 20 20  0  0  0  0  0  0  0  0999 V2000 
    0.8355    0.2186    0.0070 C   0  0  0  0  0  0  0  0  0  0  0  0 
    3.0247    1.4058   -0.0948 C   0  0  0  0  0  0  0  0  0  0  0  0 
    4.5234   -0.9001   -0.2588 C   0  0  0  0  0  0  0  0  0  0  0  0 
    2.3401    0.1907   -0.0911 C   0  0  0  0  0  0  0  0  0  0  0  0 
    3.1381   -0.9743   -0.1766 C   0  0  0  0  0  0  0  0  0  0  0  0 
    5.1725    0.3262   -0.2545 C   0  0  0  0  0  0  0  0  0  0  0  0 
    4.4215    1.5186   -0.1736 C   0  0  0  0  0  0  0  0  0  0  0  0 
    2.5611   -2.3265   -0.1873 N   0  0  0  0  0  0  0  0  0  0  0  0 
    6.6402    0.3124   -0.3295 N   0  0  0  0  0  0  0  0  0  0  0  0 
    5.0230    2.7202   -0.1939 O   0  0  0  0  0  0  0  0  0  0  0  0 
    3.3376   -3.2798   -0.1490 O   0  0  0  0  0  0  0  0  0  0  0  0 
    1.3346   -2.4355   -0.2374 O   0  0  0  0  0  0  0  0  0  0  0  0 
    7.1721   -0.7459   -0.6675 O   0  0  0  0  0  0  0  0  0  0  0  0 
    7.2428    1.3416   -0.0407 O   0  0  0  0  0  0  0  0  0  0  0  0 
    0.4894    1.2499    0.1214 H   0  0  0  0  0  0  0  0  0  0  0  0 
    0.4782   -0.3737    0.8533 H   0  0  0  0  0  0  0  0  0  0  0  0 
    0.3723   -0.2152   -0.8833 H   0  0  0  0  0  0  0  0  0  0  0  0 
    2.4446    2.3243   -0.0323 H   0  0  0  0  0  0  0  0  0  0  0  0 
    5.1085   -1.8067   -0.3295 H   0  0  0  0  0  0  0  0  0  0  0  0 
    4.3424    3.4137   -0.1677 H   0  0  0  0  0  0  0  0  0  0  0  0 
  1 15  1  0  0  0  0 
  1 16  1  0  0  0  0 
  2  4  1  0  0  0  0 
  2 18  1  0  0  0  0 
  3  6  2  0  0  0  0 
  3  5  1  0  0  0  0 
  4  1  1  0  0  0  0 
  5  4  2  0  0  0  0 
  6  7  1  0  0  0  0 
  7  2  2  0  0  0  0 
  8  5  1  0  0  0  0 
  8 11  2  0  0  0  0 
  9  6  1  0  0  0  0 
  9 14  2  0  0  0  0 
 10  7  1  0  0  0  0 
 10 20  1  0  0  0  0 
 12  8  2  0  0  0  0 
 13  9  2  0  0  0  0 
 17  1  1  0  0  0  0 
 19  3  1  0  0  0  0 
M  END 
>  <HBA> 
1 
 
>  <HBD> 
1 
 
>  <TPSA> 
111.87 
 
>  <cid> 
12030 
 
>  <dipole> 
6.66 
 
>  <excitation_energy_1> 
3.698 
 
>  <excitation_energy_2> 
3.736 
 
>  <excitation_energy_3> 
4.105 
 
>  <excitation_energy_4> 
4.255 
 
>  <homo_energy> 
-7.557 
 
>  <homo_lumo_gap> 
4.874 
 
>  <logP> 
2.563 
 
>  <lumo_energy> 
-2.683 
 
>  <melting_point> 
127.72 
 
>  <molecular_refractivity> 
51.08 
 
>  <oscillator_strength_1> 
0.0044 
 
>  <oscillator_strength_2> 
0.0021 
 
>  <oscillator_strength_3> 
0.037 
 
>  <oscillator_strength_4> 
0.0017 
 
>  <open_babel_can_smiles> 
O=N(=O)c1cc(N(=O)=O)c(cc1C)O 
 
>  <mulliken_charges> 
20 
1   -0.50696 
2   -0.286926 
3   -0.201613 
4   0.191668 
5   0.213259 
6   0.266031 
7   0.376145 
8   0.377469 
9   0.367443 
10   -0.588663 
11   -0.387632 
12   -0.403531 
13   -0.388633 
14   -0.371224 
15   0.152558 
16   0.19428 
17   0.19771 
18   0.140936 
19   0.233732 
20   0.423949 
 
>  <lowdin_charges> 
20 
1   -0.43755 
2   -0.21496 
3   -0.107762 
4   0.05328 
5   -0.023221 
6   -0.025565 
7   0.13379 
8   0.306928 
9   0.309936 
10   -0.315259 
11   -0.241565 
12   -0.241362 
13   -0.245782 
14   -0.223775 
15   0.15437 
16   0.1827 
17   0.184177 
18   0.165729 
19   0.216425 
20   0.369466 
 
$$$$ 
 
