PCCDB-ID:  8252 
public computational chemistry database (PCCDB) project, http://pccdb.org 
 
  9  8  0  0  0  0  0  0  0  0999 V2000 
    0.9233   -0.0410   -0.0902 C   0  0  0  0  0  0  0  0  0  0  0  0 
    3.0693   -1.0451    0.7846 C   0  0  0  0  0  0  0  0  0  0  0  0 
    2.2555   -0.0819   -0.0502 C   0  0  0  0  0  0  0  0  0  0  0  0 
    0.3928    0.6761   -0.7110 H   0  0  0  0  0  0  0  0  0  0  0  0 
    0.3082   -0.7223    0.4956 H   0  0  0  0  0  0  0  0  0  0  0  0 
    4.1434   -0.8927    0.6411 H   0  0  0  0  0  0  0  0  0  0  0  0 
    2.8472   -2.0879    0.5267 H   0  0  0  0  0  0  0  0  0  0  0  0 
    2.8602   -0.9256    1.8548 H   0  0  0  0  0  0  0  0  0  0  0  0 
    2.8157    0.6270   -0.6600 H   0  0  0  0  0  0  0  0  0  0  0  0 
  1  3  2  0  0  0  0 
  1  5  1  0  0  0  0 
  2  8  1  0  0  0  0 
  3  2  1  0  0  0  0 
  4  1  1  0  0  0  0 
  6  2  1  0  0  0  0 
  7  2  1  0  0  0  0 
  9  3  1  0  0  0  0 
M  END 
>  <HBA> 
0 
 
>  <HBD> 
0 
 
>  <TPSA> 
0.0 
 
>  <cid> 
8252 
 
>  <dipole> 
0.34 
 
>  <excitation_energy_1> 
6.475 
 
>  <excitation_energy_2> 
6.806 
 
>  <excitation_energy_3> 
7.005 
 
>  <excitation_energy_4> 
7.036 
 
>  <homo_energy> 
-6.748 
 
>  <homo_lumo_gap> 
7.328 
 
>  <logP> 
1.192 
 
>  <lumo_energy> 
0.58 
 
>  <melting_point> 
-45.17 
 
>  <molecular_refractivity> 
16.06 
 
>  <oscillator_strength_1> 
0.0241 
 
>  <oscillator_strength_2> 
0.2813 
 
>  <oscillator_strength_3> 
0.019 
 
>  <oscillator_strength_4> 
0.0035 
 
>  <open_babel_can_smiles> 
CC=C 
 
>  <mulliken_charges> 
9 
1   -0.325461 
2   -0.486349 
3   -0.062937 
4   0.136839 
5   0.131952 
6   0.149933 
7   0.163322 
8   0.163471 
9   0.129228 
 
>  <lowdin_charges> 
9 
1   -0.345062 
2   -0.444529 
3   -0.148131 
4   0.158956 
5   0.153359 
6   0.153608 
7   0.160225 
8   0.159884 
9   0.151689 
 
$$$$ 
 
