PCCDB-ID:  31071 
public computational chemistry database (PCCDB) project, http://pccdb.org 
 
 31 33  0  0  0  0  0  0  0  0999 V2000 
    1.2646   -0.3640    1.0351 C   0  0  0  0  0  0  0  0  0  0  0  0 
    9.4313   -0.9801   -4.9296 C   0  0  0  0  0  0  0  0  0  0  0  0 
    8.0718   -0.8937   -5.2496 C   0  0  0  0  0  0  0  0  0  0  0  0 
    9.8443   -1.0568   -3.5945 C   0  0  0  0  0  0  0  0  0  0  0  0 
    7.1033   -0.8829   -4.2437 C   0  0  0  0  0  0  0  0  0  0  0  0 
    7.1401   -1.0898    0.7187 C   0  0  0  0  0  0  0  0  0  0  0  0 
    5.7634   -1.0318    0.9475 C   0  0  0  0  0  0  0  0  0  0  0  0 
    9.0619   -1.1173   -1.0844 C   0  0  0  0  0  0  0  0  0  0  0  0 
    5.3629   -0.9035   -1.4540 C   0  0  0  0  0  0  0  0  0  0  0  0 
    2.7723   -0.4461    1.1864 C   0  0  0  0  0  0  0  0  0  0  0  0 
    8.8846   -1.0464   -2.5889 C   0  0  0  0  0  0  0  0  0  0  0  0 
    7.6347   -1.0636   -0.5793 C   0  0  0  0  0  0  0  0  0  0  0  0 
    4.8739   -0.9319   -0.1395 C   0  0  0  0  0  0  0  0  0  0  0  0 
    7.5137   -0.9600   -2.9111 C   0  0  0  0  0  0  0  0  0  0  0  0 
    6.7395   -0.9711   -1.6619 C   0  0  0  0  0  0  0  0  0  0  0  0 
    3.4638   -0.9053    0.0688 N   0  0  0  0  0  0  0  0  0  0  0  0 
    3.3496   -0.1542    2.2221 O   0  0  0  0  0  0  0  0  0  0  0  0 
    2.6863   -1.0578   -1.0926 O   0  0  0  0  0  0  0  0  0  0  0  0 
    0.8320   -1.3400    0.7907 H   0  0  0  0  0  0  0  0  0  0  0  0 
    0.9792    0.3248    0.2348 H   0  0  0  0  0  0  0  0  0  0  0  0 
    0.8633   -0.0164    1.9880 H   0  0  0  0  0  0  0  0  0  0  0  0 
   10.1725   -0.9874   -5.7242 H   0  0  0  0  0  0  0  0  0  0  0  0 
    7.7668   -0.8340   -6.2910 H   0  0  0  0  0  0  0  0  0  0  0  0 
   10.9026   -1.1230   -3.3525 H   0  0  0  0  0  0  0  0  0  0  0  0 
    6.0487   -0.8137   -4.4985 H   0  0  0  0  0  0  0  0  0  0  0  0 
    7.8124   -1.1620    1.5703 H   0  0  0  0  0  0  0  0  0  0  0  0 
    5.3743   -1.0443    1.9545 H   0  0  0  0  0  0  0  0  0  0  0  0 
    9.6663   -0.2823   -0.7028 H   0  0  0  0  0  0  0  0  0  0  0  0 
    9.5771   -2.0374   -0.7740 H   0  0  0  0  0  0  0  0  0  0  0  0 
    4.6741   -0.8170   -2.2852 H   0  0  0  0  0  0  0  0  0  0  0  0 
    2.6385   -2.0223   -1.2325 H   0  0  0  0  0  0  0  0  0  0  0  0 
  1 10  1  0  0  0  0 
  1 21  1  0  0  0  0 
  2  4  1  0  0  0  0 
  3  2  2  0  0  0  0 
  3  5  1  0  0  0  0 
  4 24  1  0  0  0  0 
  4 11  2  0  0  0  0 
  5 14  2  0  0  0  0 
  6  7  1  0  0  0  0 
  6 26  1  0  0  0  0 
  7 27  1  0  0  0  0 
  8 29  1  0  0  0  0 
  8 28  1  0  0  0  0 
  8 12  1  0  0  0  0 
  9 13  1  0  0  0  0 
 10 17  2  0  0  0  0 
 11  8  1  0  0  0  0 
 12  6  2  0  0  0  0 
 13 16  1  0  0  0  0 
 13  7  2  0  0  0  0 
 14 11  1  0  0  0  0 
 14 15  1  0  0  0  0 
 15  9  2  0  0  0  0 
 15 12  1  0  0  0  0 
 16 10  1  0  0  0  0 
 18 16  1  0  0  0  0 
 19  1  1  0  0  0  0 
 20  1  1  0  0  0  0 
 22  2  1  0  0  0  0 
 23  3  1  0  0  0  0 
 25  5  1  0  0  0  0 
 30  9  1  0  0  0  0 
 31 18  1  0  0  0  0 
M  END 
>  <HBA> 
3 
 
>  <HBD> 
1 
 
>  <TPSA> 
40.54 
 
>  <cid> 
31071 
 
>  <dipole> 
2.94 
 
>  <excitation_energy_1> 
4.247 
 
>  <excitation_energy_2> 
4.545 
 
>  <excitation_energy_3> 
4.683 
 
>  <excitation_energy_4> 
4.812 
 
>  <homo_energy> 
-5.655 
 
>  <homo_lumo_gap> 
4.876 
 
>  <logP> 
3.0 
 
>  <lumo_energy> 
-0.778 
 
>  <melting_point> 
159.15 
 
>  <molecular_refractivity> 
70.03 
 
>  <oscillator_strength_1> 
0.1646 
 
>  <oscillator_strength_2> 
0.0539 
 
>  <oscillator_strength_3> 
0.0949 
 
>  <oscillator_strength_4> 
0.0963 
 
>  <open_babel_can_smiles> 
CC(=O)N(c1ccc2c(c1)c1ccccc1C2)O 
 
>  <mulliken_charges> 
31 
1   -0.512698 
2   -0.129581 
3   -0.138156 
4   -0.202022 
5   -0.190133 
6   -0.217101 
7   -0.168052 
8   -0.421291 
9   -0.257436 
10   0.568085 
11   0.106057 
12   0.114153 
13   0.304936 
14   0.082615 
15   0.094139 
16   -0.310663 
17   -0.48144 
18   -0.498999 
19   0.160847 
20   0.186542 
21   0.181409 
22   0.127328 
23   0.127658 
24   0.125381 
25   0.127709 
26   0.12964 
27   0.178345 
28   0.173753 
29   0.171351 
30   0.147415 
31   0.420205 
 
>  <lowdin_charges> 
31 
1   -0.466406 
2   -0.159687 
3   -0.155457 
4   -0.161937 
5   -0.160972 
6   -0.157615 
7   -0.175271 
8   -0.276362 
9   -0.195223 
10   0.167451 
11   -0.003213 
12   -0.012325 
13   0.046604 
14   -0.012392 
15   -0.006243 
16   0.013179 
17   -0.282193 
18   -0.355951 
19   0.166365 
20   0.178999 
21   0.175286 
22   0.158334 
23   0.155972 
24   0.155088 
25   0.15519 
26   0.160263 
27   0.185269 
28   0.170295 
29   0.168497 
30   0.168953 
31   0.355501 
 
$$$$ 
 
