PCCDB-ID:  53304 
public computational chemistry database (PCCDB) project, http://pccdb.org 
 
 25 27  0  0  0  0  0  0  0  0999 V2000 
    1.0346   -0.0003   -0.0311 C   0  0  0  0  0  0  0  0  0  0  0  0 
    7.9624    2.5281   -0.0038 C   0  0  0  0  0  0  0  0  0  0  0  0 
    9.0806    1.7503   -0.0227 C   0  0  0  0  0  0  0  0  0  0  0  0 
    3.3237   -1.1043   -0.0593 C   0  0  0  0  0  0  0  0  0  0  0  0 
    4.6841   -1.0695   -0.0620 C   0  0  0  0  0  0  0  0  0  0  0  0 
    3.1872    1.3117   -0.0159 C   0  0  0  0  0  0  0  0  0  0  0  0 
    2.5391    0.0992   -0.0365 C   0  0  0  0  0  0  0  0  0  0  0  0 
    6.6780    1.8998   -0.0120 C   0  0  0  0  0  0  0  0  0  0  0  0 
    9.0500    0.2845   -0.0522 C   0  0  0  0  0  0  0  0  0  0  0  0 
    4.6007    1.3890   -0.0175 C   0  0  0  0  0  0  0  0  0  0  0  0 
    6.6427    0.5082   -0.0377 C   0  0  0  0  0  0  0  0  0  0  0  0 
   10.0367   -0.5462   -0.0749 N   0  0  0  0  0  0  0  0  0  0  0  0 
    5.4126    2.4326    0.0006 N   0  0  0  0  0  0  0  0  0  0  0  0 
    7.7574   -0.2763   -0.0559 N   0  0  0  0  0  0  0  0  0  0  0  0 
    5.3241    0.1528   -0.0422 N   0  0  0  0  0  0  0  0  0  0  0  0 
    0.6754   -0.5585    0.8432 H   0  0  0  0  0  0  0  0  0  0  0  0 
    0.6661   -0.5280   -0.9203 H   0  0  0  0  0  0  0  0  0  0  0  0 
    0.5701    0.9898   -0.0108 H   0  0  0  0  0  0  0  0  0  0  0  0 
    8.0304    3.6118    0.0182 H   0  0  0  0  0  0  0  0  0  0  0  0 
   10.0669    2.2038   -0.0153 H   0  0  0  0  0  0  0  0  0  0  0  0 
    2.8293   -2.0704   -0.0753 H   0  0  0  0  0  0  0  0  0  0  0  0 
    5.3109   -1.9537   -0.0775 H   0  0  0  0  0  0  0  0  0  0  0  0 
    2.6411    2.2492    0.0028 H   0  0  0  0  0  0  0  0  0  0  0  0 
   10.9210   -0.0366   -0.0700 H   0  0  0  0  0  0  0  0  0  0  0  0 
    7.7270   -1.2878   -0.0748 H   0  0  0  0  0  0  0  0  0  0  0  0 
  1 18  1  0  0  0  0 
  1 16  1  0  0  0  0 
  2 19  1  0  0  0  0 
  3 20  1  0  0  0  0 
  3  2  2  0  0  0  0 
  4  7  1  0  0  0  0 
  5  4  2  0  0  0  0 
  5 15  1  0  0  0  0 
  6 23  1  0  0  0  0 
  7  1  1  0  0  0  0 
  7  6  2  0  0  0  0 
  8  2  1  0  0  0  0 
  8 13  1  0  0  0  0 
  9  3  1  0  0  0  0 
 10  6  1  0  0  0  0 
 10 13  2  0  0  0  0 
 11  8  2  0  0  0  0 
 12 24  1  0  0  0  0 
 12  9  2  0  0  0  0 
 14  9  1  0  0  0  0 
 14 11  1  0  0  0  0 
 15 11  1  0  0  0  0 
 15 10  1  0  0  0  0 
 17  1  1  0  0  0  0 
 21  4  1  0  0  0  0 
 22  5  1  0  0  0  0 
 25 14  1  0  0  0  0 
M  END 
>  <HBA> 
4 
 
>  <HBD> 
1 
 
>  <TPSA> 
56.21 
 
>  <cid> 
53304 
 
>  <dipole> 
3.12 
 
>  <excitation_energy_1> 
2.97 
 
>  <excitation_energy_2> 
4.019 
 
>  <excitation_energy_3> 
4.111 
 
>  <excitation_energy_4> 
4.158 
 
>  <homo_energy> 
-4.852 
 
>  <homo_lumo_gap> 
3.418 
 
>  <logP> 
2.354 
 
>  <lumo_energy> 
-1.434 
 
>  <melting_point> 
172.22 
 
>  <molecular_refractivity> 
59.86 
 
>  <oscillator_strength_1> 
0.1766 
 
>  <oscillator_strength_2> 
0.0203 
 
>  <oscillator_strength_3> 
0.0123 
 
>  <oscillator_strength_4> 
0.0007 
 
>  <open_babel_can_smiles> 
Cc1ccn2c(c1)nc1c2[nH]c(=N)cc1 
 
>  <mulliken_charges> 
25 
1   -0.529813 
2   -0.116478 
3   -0.213565 
4   -0.229555 
5   0.066305 
6   -0.249759 
7   0.185055 
8   0.202017 
9   0.501245 
10   0.531319 
11   0.602265 
12   -0.682141 
13   -0.58688 
14   -0.760087 
15   -0.582758 
16   0.16551 
17   0.165426 
18   0.164764 
19   0.15614 
20   0.137602 
21   0.142848 
22   0.16295 
23   0.153144 
24   0.279783 
25   0.334664 
 
>  <lowdin_charges> 
25 
1   -0.439453 
2   -0.119752 
3   -0.203863 
4   -0.181096 
5   -0.112034 
6   -0.171673 
7   -0.003959 
8   -0.023452 
9   0.09496 
10   0.068782 
11   0.055633 
12   -0.468899 
13   -0.198976 
14   -0.207733 
15   0.020258 
16   0.162789 
17   0.162682 
18   0.161863 
19   0.172544 
20   0.166054 
21   0.169124 
22   0.170137 
23   0.17722 
24   0.253519 
25   0.295325 
 
$$$$ 
 
