PCCDB-ID:  41990 
public computational chemistry database (PCCDB) project, http://pccdb.org 
 
 24 24  0  0  1  0  0  0  0  0999 V2000 
    3.0718   -0.0202   -1.6654 C   0  0  0  0  0  0  0  0  0  0  0  0 
    0.9751   -0.1441   -0.2629 C   0  0  0  0  0  0  0  0  0  0  0  0 
    3.1887   -0.7015    0.7977 C   0  0  0  0  0  0  0  0  0  0  0  0 
    2.4798    0.1656   -0.2603 C   0  0  0  0  0  0  0  0  0  0  0  0 
    4.6667   -0.3471    1.0354 C   0  0  2  0  0  0  0  0  0  0  0  0 
    5.3072   -1.2878    2.0689 C   0  0  0  0  0  0  0  0  0  0  0  0 
    5.4299    0.8986    2.6826 C   0  0  0  0  0  0  0  0  0  0  0  0 
    4.8498    1.0247    1.5520 N   0  0  0  0  0  0  0  0  0  0  0  0 
    5.6673   -0.4124    3.1002 N   0  0  0  0  0  0  0  0  0  0  0  0 
    5.4536   -2.4882    2.0626 O   0  0  0  0  0  0  0  0  0  0  0  0 
    5.7970    1.8732    3.5180 O   0  0  0  0  0  0  0  0  0  0  0  0 
    6.5549   -0.7374    4.1097 O   0  0  0  0  0  0  0  0  0  0  0  0 
    2.5357    0.5968   -2.3959 H   0  0  0  0  0  0  0  0  0  0  0  0 
    2.9924   -1.0657   -1.9915 H   0  0  0  0  0  0  0  0  0  0  0  0 
    4.1280    0.2674   -1.7120 H   0  0  0  0  0  0  0  0  0  0  0  0 
    0.4448    0.4840   -0.9882 H   0  0  0  0  0  0  0  0  0  0  0  0 
    0.5274    0.0313    0.7227 H   0  0  0  0  0  0  0  0  0  0  0  0 
    0.7888   -1.1919   -0.5326 H   0  0  0  0  0  0  0  0  0  0  0  0 
    3.1418   -1.7615    0.5126 H   0  0  0  0  0  0  0  0  0  0  0  0 
    2.6584   -0.6064    1.7550 H   0  0  0  0  0  0  0  0  0  0  0  0 
    2.6149    1.2151    0.0326 H   0  0  0  0  0  0  0  0  0  0  0  0 
    5.2242   -0.4540    0.0964 H   0  0  0  0  0  0  0  0  0  0  0  0 
    5.5610    2.7082    3.0748 H   0  0  0  0  0  0  0  0  0  0  0  0 
    5.9984   -1.0849    4.8301 H   0  0  0  0  0  0  0  0  0  0  0  0 
  1  4  1  0  0  0  0 
  2  4  1  0  0  0  0 
  2 17  1  0  0  0  0 
  3  5  1  0  0  0  0 
  3 20  1  0  0  0  0 
  4 21  1  0  0  0  0 
  4  3  1  0  0  0  0 
  5 22  1  6  0  0  0 
  5  8  1  0  0  0  0 
  5  6  1  0  0  0  0 
  6  9  1  0  0  0  0 
  7  9  1  0  0  0  0 
  7 11  1  0  0  0  0 
  8  7  2  0  0  0  0 
  9 12  1  0  0  0  0 
 10  6  2  0  0  0  0 
 12 24  1  0  0  0  0 
 13  1  1  0  0  0  0 
 14  1  1  0  0  0  0 
 15  1  1  0  0  0  0 
 16  2  1  0  0  0  0 
 18  2  1  0  0  0  0 
 19  3  1  0  0  0  0 
 23 11  1  0  0  0  0 
M  END 
>  <HBA> 
5 
 
>  <HBD> 
2 
 
>  <TPSA> 
69.64 
 
>  <cid> 
41990 
 
>  <dipole> 
2.84 
 
>  <excitation_energy_1> 
5.097 
 
>  <excitation_energy_2> 
5.632 
 
>  <excitation_energy_3> 
5.765 
 
>  <excitation_energy_4> 
5.923 
 
>  <homo_energy> 
-6.713 
 
>  <homo_lumo_gap> 
6.504 
 
>  <logP> 
0.609 
 
>  <lumo_energy> 
-0.21 
 
>  <melting_point> 
132.19 
 
>  <molecular_refractivity> 
48.7 
 
>  <oscillator_strength_1> 
0.0024 
 
>  <oscillator_strength_2> 
0.0109 
 
>  <oscillator_strength_3> 
0.0551 
 
>  <oscillator_strength_4> 
0.0022 
 
>  <open_babel_can_smiles> 
CC(C[C@H]1N=C(N(C1=O)O)O)C 
 
>  <mulliken_charges> 
24 
1   -0.452858 
2   -0.445308 
3   -0.243671 
4   -0.067839 
5   -0.117034 
6   0.592144 
7   0.710975 
8   -0.487402 
9   -0.2857 
10   -0.476185 
11   -0.588666 
12   -0.473846 
13   0.143885 
14   0.140811 
15   0.148334 
16   0.142229 
17   0.14011 
18   0.140497 
19   0.153961 
20   0.132444 
21   0.147822 
22   0.182378 
23   0.429933 
24   0.432985 
 
>  <lowdin_charges> 
24 
1   -0.446282 
2   -0.443426 
3   -0.26737 
4   -0.120154 
5   -0.085198 
6   0.147203 
7   0.147834 
8   -0.270921 
9   -0.002001 
10   -0.247746 
11   -0.330796 
12   -0.336192 
13   0.152414 
14   0.145098 
15   0.148168 
16   0.150665 
17   0.147125 
18   0.144911 
19   0.153795 
20   0.145511 
21   0.146851 
22   0.170906 
23   0.379302 
24   0.370303 
 
$$$$ 
 
