PCCDB-ID:  15653 
public computational chemistry database (PCCDB) project, http://pccdb.org 
 
 24 24  0  0  0  0  0  0  0  0999 V2000 
    1.0304    0.2053    0.1856 C   0  0  0  0  0  0  0  0  0  0  0  0 
    3.8557   -1.4149   -4.5595 C   0  0  0  0  0  0  0  0  0  0  0  0 
    2.5858   -2.9902    0.9447 C   0  0  0  0  0  0  0  0  0  0  0  0 
    2.5405   -0.0918    0.1256 C   0  0  0  0  0  0  0  0  0  0  0  0 
    3.4843   -3.1650   -2.7604 C   0  0  0  0  0  0  0  0  0  0  0  0 
    3.1865   -3.5185   -1.4450 C   0  0  0  0  0  0  0  0  0  0  0  0 
    3.1980   -0.8621   -2.1756 C   0  0  0  0  0  0  0  0  0  0  0  0 
    3.4990   -1.8223   -3.1484 C   0  0  0  0  0  0  0  0  0  0  0  0 
    2.8873   -2.5571   -0.4732 C   0  0  0  0  0  0  0  0  0  0  0  0 
    2.8924   -1.1975   -0.8518 C   0  0  0  0  0  0  0  0  0  0  0  0 
    0.8176    1.0118    0.8969 H   0  0  0  0  0  0  0  0  0  0  0  0 
    0.4594   -0.6774    0.4948 H   0  0  0  0  0  0  0  0  0  0  0  0 
    0.6558    0.5106   -0.7978 H   0  0  0  0  0  0  0  0  0  0  0  0 
    3.6296   -2.2122   -5.2757 H   0  0  0  0  0  0  0  0  0  0  0  0 
    4.9266   -1.1887   -4.6524 H   0  0  0  0  0  0  0  0  0  0  0  0 
    3.3087   -0.5177   -4.8695 H   0  0  0  0  0  0  0  0  0  0  0  0 
    2.5713   -4.0819    1.0226 H   0  0  0  0  0  0  0  0  0  0  0  0 
    1.6142   -2.6217    1.2949 H   0  0  0  0  0  0  0  0  0  0  0  0 
    3.3391   -2.6207    1.6530 H   0  0  0  0  0  0  0  0  0  0  0  0 
    2.8996   -0.3422    1.1310 H   0  0  0  0  0  0  0  0  0  0  0  0 
    3.0679    0.8246   -0.1672 H   0  0  0  0  0  0  0  0  0  0  0  0 
    3.7084   -3.9410   -3.4893 H   0  0  0  0  0  0  0  0  0  0  0  0 
    3.1837   -4.5697   -1.1643 H   0  0  0  0  0  0  0  0  0  0  0  0 
    3.2013    0.1906   -2.4568 H   0  0  0  0  0  0  0  0  0  0  0  0 
  1 12  1  0  0  0  0 
  1 11  1  0  0  0  0 
  2  8  1  0  0  0  0 
  3 17  1  0  0  0  0 
  3 18  1  0  0  0  0 
  3 19  1  0  0  0  0 
  4  1  1  0  0  0  0 
  4 20  1  0  0  0  0 
  5  6  1  0  0  0  0 
  6 23  1  0  0  0  0 
  6  9  2  0  0  0  0 
  7 10  2  0  0  0  0 
  8  5  2  0  0  0  0 
  8  7  1  0  0  0  0 
  9  3  1  0  0  0  0 
 10  9  1  0  0  0  0 
 10  4  1  0  0  0  0 
 13  1  1  0  0  0  0 
 14  2  1  0  0  0  0 
 15  2  1  0  0  0  0 
 16  2  1  0  0  0  0 
 21  4  1  0  0  0  0 
 22  5  1  0  0  0  0 
 24  7  1  0  0  0  0 
M  END 
>  <HBA> 
0 
 
>  <HBD> 
0 
 
>  <TPSA> 
0.0 
 
>  <cid> 
15653 
 
>  <dipole> 
0.28 
 
>  <excitation_energy_1> 
5.096 
 
>  <excitation_energy_2> 
5.595 
 
>  <excitation_energy_3> 
5.742 
 
>  <excitation_energy_4> 
5.98 
 
>  <homo_energy> 
-6.038 
 
>  <homo_lumo_gap> 
6.256 
 
>  <logP> 
2.866 
 
>  <lumo_energy> 
0.218 
 
>  <melting_point> 
16.16 
 
>  <molecular_refractivity> 
46.15 
 
>  <oscillator_strength_1> 
0.0048 
 
>  <oscillator_strength_2> 
0.0325 
 
>  <oscillator_strength_3> 
0.0079 
 
>  <oscillator_strength_4> 
0.0231 
 
>  <open_babel_can_smiles> 
CCc1cc(C)ccc1C 
 
>  <mulliken_charges> 
24 
1   -0.437156 
2   -0.52986 
3   -0.539461 
4   -0.339453 
5   -0.18142 
6   -0.183342 
7   -0.243289 
8   0.185998 
9   0.127999 
10   0.128682 
11   0.142094 
12   0.149844 
13   0.149732 
14   0.153963 
15   0.162805 
16   0.154724 
17   0.153091 
18   0.15947 
19   0.160257 
20   0.140556 
21   0.141456 
22   0.1161 
23   0.116879 
24   0.110333 
 
>  <lowdin_charges> 
24 
1   -0.441828 
2   -0.441876 
3   -0.443045 
4   -0.272496 
5   -0.174388 
6   -0.164524 
7   -0.175752 
8   -0.002344 
9   -0.013771 
10   -0.008767 
11   0.149199 
12   0.14952 
13   0.150514 
14   0.157125 
15   0.158487 
16   0.157091 
17   0.154204 
18   0.156659 
19   0.158613 
20   0.147714 
21   0.148888 
22   0.153172 
23   0.150287 
24   0.147315 
 
$$$$ 
 
