PCCDB-ID:  26727 
public computational chemistry database (PCCDB) project, http://pccdb.org 
 
 29 29  0  0  1  0  0  0  0  0999 V2000 
    0.4825   -0.1904    0.3537 C   0  0  0  0  0  0  0  0  0  0  0  0 
    1.6374    2.4478   -0.3490 C   0  0  0  0  0  0  0  0  0  0  0  0 
    6.9385    0.2959    1.9657 C   0  0  0  0  0  0  0  0  0  0  0  0 
    2.8259   -1.1234    0.2445 C   0  0  0  0  0  0  0  0  0  0  0  0 
    4.2013   -0.9995    0.0416 C   0  0  0  0  0  0  0  0  0  0  0  0 
    3.8982    1.3348   -0.4035 C   0  0  0  0  0  0  0  0  0  0  0  0 
    6.2517    0.4081   -0.4995 C   0  0  0  0  0  0  0  0  0  0  0  0 
    1.9674   -0.0268    0.1295 C   0  0  0  0  0  0  0  0  0  0  0  0 
    2.5194    1.2297   -0.2033 C   0  0  0  0  0  0  0  0  0  0  0  0 
    6.9928    1.1072    0.6623 C   0  0  2  0  0  0  0  0  0  0  0  0 
    4.7631    0.2374   -0.2850 C   0  0  0  0  0  0  0  0  0  0  0  0 
    8.3588    1.4193    0.2073 N   0  0  0  0  0  0  0  0  0  0  0  0 
    0.2321   -1.2297    0.5878 H   0  0  0  0  0  0  0  0  0  0  0  0 
   -0.0992    0.1009   -0.5308 H   0  0  0  0  0  0  0  0  0  0  0  0 
    0.1240    0.4330    1.1836 H   0  0  0  0  0  0  0  0  0  0  0  0 
    2.2273    3.3350   -0.5986 H   0  0  0  0  0  0  0  0  0  0  0  0 
    1.0851    2.6634    0.5751 H   0  0  0  0  0  0  0  0  0  0  0  0 
    0.8863    2.3144   -1.1387 H   0  0  0  0  0  0  0  0  0  0  0  0 
    5.9080    0.1080    2.2868 H   0  0  0  0  0  0  0  0  0  0  0  0 
    7.4534    0.8275    2.7754 H   0  0  0  0  0  0  0  0  0  0  0  0 
    7.4331   -0.6767    1.8359 H   0  0  0  0  0  0  0  0  0  0  0  0 
    2.4091   -2.0966    0.4955 H   0  0  0  0  0  0  0  0  0  0  0  0 
    4.8401   -1.8752    0.1338 H   0  0  0  0  0  0  0  0  0  0  0  0 
    4.3142    2.3058   -0.6687 H   0  0  0  0  0  0  0  0  0  0  0  0 
    6.7141   -0.5751   -0.6690 H   0  0  0  0  0  0  0  0  0  0  0  0 
    6.4379    1.0024   -1.4019 H   0  0  0  0  0  0  0  0  0  0  0  0 
    6.4989    2.0733    0.8363 H   0  0  0  0  0  0  0  0  0  0  0  0 
    8.8657    0.5453    0.0556 H   0  0  0  0  0  0  0  0  0  0  0  0 
    8.8617    1.8973    0.9554 H   0  0  0  0  0  0  0  0  0  0  0  0 
  1 13  1  0  0  0  0 
  1 15  1  0  0  0  0 
  2  9  1  0  0  0  0 
  2 17  1  0  0  0  0 
  3 19  1  0  0  0  0 
  3 20  1  0  0  0  0 
  4 22  1  0  0  0  0 
  5 23  1  0  0  0  0 
  5  4  2  0  0  0  0 
  6 11  2  0  0  0  0 
  6  9  1  0  0  0  0 
  7 11  1  0  0  0  0 
  7 10  1  0  0  0  0 
  8  4  1  0  0  0  0 
  8  1  1  0  0  0  0 
  9  8  2  0  0  0  0 
 10 27  1  1  0  0  0 
 10  3  1  0  0  0  0 
 11  5  1  0  0  0  0 
 12 10  1  0  0  0  0 
 12 29  1  0  0  0  0 
 14  1  1  0  0  0  0 
 16  2  1  0  0  0  0 
 18  2  1  0  0  0  0 
 21  3  1  0  0  0  0 
 24  6  1  0  0  0  0 
 25  7  1  0  0  0  0 
 26  7  1  0  0  0  0 
 28 12  1  0  0  0  0 
M  END 
>  <HBA> 
1 
 
>  <HBD> 
1 
 
>  <TPSA> 
26.02 
 
>  <cid> 
26727 
 
>  <dipole> 
1.21 
 
>  <excitation_energy_1> 
5.132 
 
>  <excitation_energy_2> 
5.616 
 
>  <excitation_energy_3> 
5.672 
 
>  <excitation_energy_4> 
5.747 
 
>  <homo_energy> 
-6.033 
 
>  <homo_lumo_gap> 
6.261 
 
>  <logP> 
2.893 
 
>  <lumo_energy> 
0.229 
 
>  <melting_point> 
69.75 
 
>  <molecular_refractivity> 
53.66 
 
>  <oscillator_strength_1> 
0.0046 
 
>  <oscillator_strength_2> 
0.0328 
 
>  <oscillator_strength_3> 
0.0316 
 
>  <oscillator_strength_4> 
0.0159 
 
>  <open_babel_can_smiles> 
C[C@H](Cc1ccc(c(c1)C)C)N 
 
>  <mulliken_charges> 
29 
1   -0.532241 
2   -0.532852 
3   -0.449963 
4   -0.184988 
5   -0.189598 
6   -0.248908 
7   -0.343257 
8   0.130242 
9   0.137056 
10   0.028568 
11   0.184314 
12   -0.708152 
13   0.153274 
14   0.157794 
15   0.15744 
16   0.15478 
17   0.157472 
18   0.15852 
19   0.156889 
20   0.133319 
21   0.129322 
22   0.117624 
23   0.117323 
24   0.117725 
25   0.126289 
26   0.160196 
27   0.134337 
28   0.286212 
29   0.291263 
 
>  <lowdin_charges> 
29 
1   -0.442025 
2   -0.44231 
3   -0.46466 
4   -0.167153 
5   -0.175753 
6   -0.176973 
7   -0.27764 
8   -0.011999 
9   -0.007452 
10   -0.061497 
11   -0.004917 
12   -0.553587 
13   0.155257 
14   0.157834 
15   0.157869 
16   0.157237 
17   0.157605 
18   0.15833 
19   0.15725 
20   0.145697 
21   0.140935 
22   0.151857 
23   0.152833 
24   0.151165 
25   0.141236 
26   0.161112 
27   0.13921 
28   0.247962 
29   0.252577 
 
$$$$ 
 
