PCCDB-ID:  46832 
public computational chemistry database (PCCDB) project, http://pccdb.org 
 
 30 31  0  0  1  0  0  0  0  0999 V2000 
    1.2544    0.5976    0.9443 C   0  0  0  0  0  0  0  0  0  0  0  0 
    2.8589    1.6786   -3.4025 C   0  0  0  0  0  0  0  0  0  0  0  0 
    0.7836    2.1478   -2.1457 C   0  0  0  0  0  0  0  0  0  0  0  0 
    2.4858   -2.0589   -1.6824 C   0  0  0  0  0  0  0  0  0  0  0  0 
    2.3232   -1.3769   -3.0755 C   0  0  0  0  0  0  0  0  0  0  0  0 
    0.4005   -0.8806   -1.7504 C   0  0  0  0  0  0  0  0  0  0  0  0 
    2.1490   -0.0733   -0.1092 C   0  0  1  0  0  0  0  0  0  0  0  0 
    1.4903   -1.3193   -0.7546 C   0  0  2  0  0  0  0  0  0  0  0  0 
    1.2675   -0.2569   -2.8643 C   0  0  1  0  0  0  0  0  0  0  0  0 
    1.8878    1.0895   -2.3640 C   0  0  0  0  0  0  0  0  0  0  0  0 
    2.6598    0.8998   -1.1077 N   0  0  0  0  0  0  0  0  0  0  0  0 
    1.0486   -0.0986    1.7668 H   0  0  0  0  0  0  0  0  0  0  0  0 
    0.2907    0.9228    0.5409 H   0  0  0  0  0  0  0  0  0  0  0  0 
    1.7593    1.4786    1.3520 H   0  0  0  0  0  0  0  0  0  0  0  0 
    2.3406    1.8840   -4.3456 H   0  0  0  0  0  0  0  0  0  0  0  0 
    3.6957    1.0064   -3.6220 H   0  0  0  0  0  0  0  0  0  0  0  0 
    3.2774    2.6194   -3.0286 H   0  0  0  0  0  0  0  0  0  0  0  0 
    0.2387    2.3328   -3.0796 H   0  0  0  0  0  0  0  0  0  0  0  0 
    1.2378    3.0877   -1.8167 H   0  0  0  0  0  0  0  0  0  0  0  0 
    0.0530    1.8551   -1.3891 H   0  0  0  0  0  0  0  0  0  0  0  0 
    3.5150   -2.0010   -1.3071 H   0  0  0  0  0  0  0  0  0  0  0  0 
    2.2314   -3.1232   -1.7399 H   0  0  0  0  0  0  0  0  0  0  0  0 
    1.9442   -2.0948   -3.8117 H   0  0  0  0  0  0  0  0  0  0  0  0 
    3.2738   -1.0064   -3.4695 H   0  0  0  0  0  0  0  0  0  0  0  0 
   -0.3440   -0.2030   -1.3243 H   0  0  0  0  0  0  0  0  0  0  0  0 
   -0.1417   -1.7545   -2.1349 H   0  0  0  0  0  0  0  0  0  0  0  0 
    3.0427   -0.4205    0.4276 H   0  0  0  0  0  0  0  0  0  0  0  0 
    1.1041   -1.9720    0.0380 H   0  0  0  0  0  0  0  0  0  0  0  0 
    0.6961   -0.0642   -3.7811 H   0  0  0  0  0  0  0  0  0  0  0  0 
    3.6002    0.6120   -1.3657 H   0  0  0  0  0  0  0  0  0  0  0  0 
  1 14  1  0  0  0  0 
  1 12  1  0  0  0  0 
  2 17  1  0  0  0  0 
  2 10  1  0  0  0  0 
  3 19  1  0  0  0  0 
  3 20  1  0  0  0  0 
  4 21  1  0  0  0  0 
  4  8  1  0  0  0  0 
  5  9  1  0  0  0  0 
  5  4  1  0  0  0  0 
  6 25  1  0  0  0  0 
  6  8  1  0  0  0  0 
  7 27  1  1  0  0  0 
  7  1  1  0  0  0  0 
  8  7  1  0  0  0  0 
  8 28  1  1  0  0  0 
  9 29  1  6  0  0  0 
  9 10  1  0  0  0  0 
  9  6  1  0  0  0  0 
 10  3  1  0  0  0  0 
 10 11  1  0  0  0  0 
 11  7  1  0  0  0  0 
 13  1  1  0  0  0  0 
 15  2  1  0  0  0  0 
 16  2  1  0  0  0  0 
 18  3  1  0  0  0  0 
 22  4  1  0  0  0  0 
 23  5  1  0  0  0  0 
 24  5  1  0  0  0  0 
 26  6  1  0  0  0  0 
 30 11  1  0  0  0  0 
M  END 
>  <HBA> 
1 
 
>  <HBD> 
1 
 
>  <TPSA> 
12.03 
 
>  <cid> 
46832 
 
>  <dipole> 
1.02 
 
>  <excitation_energy_1> 
5.062 
 
>  <excitation_energy_2> 
5.553 
 
>  <excitation_energy_3> 
5.698 
 
>  <excitation_energy_4> 
5.781 
 
>  <homo_energy> 
-5.644 
 
>  <homo_lumo_gap> 
7.396 
 
>  <logP> 
2.502 
 
>  <lumo_energy> 
1.752 
 
>  <melting_point> 
54.14 
 
>  <molecular_refractivity> 
52.71 
 
>  <oscillator_strength_1> 
0.0101 
 
>  <oscillator_strength_2> 
0.0019 
 
>  <oscillator_strength_3> 
0.0021 
 
>  <oscillator_strength_4> 
0.0213 
 
>  <open_babel_can_smiles> 
C[C@@H]1NC(C)(C)[C@@H]2C[C@H]1CC2 
 
>  <mulliken_charges> 
30 
1   -0.439465 
2   -0.469524 
3   -0.43773 
4   -0.279976 
5   -0.284615 
6   -0.285191 
7   0.030276 
8   -0.084724 
9   -0.086044 
10   0.21094 
11   -0.575076 
12   0.1321 
13   0.142318 
14   0.151941 
15   0.143129 
16   0.136096 
17   0.153564 
18   0.13018 
19   0.148113 
20   0.1427 
21   0.124377 
22   0.134609 
23   0.135115 
24   0.130796 
25   0.134217 
26   0.128677 
27   0.118374 
28   0.112623 
29   0.109508 
30   0.29269 
 
>  <lowdin_charges> 
30 
1   -0.452856 
2   -0.449059 
3   -0.448483 
4   -0.285582 
5   -0.291772 
6   -0.288273 
7   -0.06452 
8   -0.146631 
9   -0.144645 
10   0.064101 
11   -0.367347 
12   0.146022 
13   0.145834 
14   0.157229 
15   0.151991 
16   0.144213 
17   0.155381 
18   0.144376 
19   0.154621 
20   0.14892 
21   0.137086 
22   0.143408 
23   0.146867 
24   0.141902 
25   0.144801 
26   0.142928 
27   0.137679 
28   0.140633 
29   0.13835 
30   0.252826 
 
$$$$ 
 
