PCCDB-ID:  70034 
public computational chemistry database (PCCDB) project, http://pccdb.org 
 
 32 33  0  0  0  0  0  0  0  0999 V2000 
    4.2492   -3.8414   -0.9437 C   0  0  0  0  0  0  0  0  0  0  0  0 
    2.8612   -3.6731   -0.9473 C   0  0  0  0  0  0  0  0  0  0  0  0 
    5.0845   -2.7404   -0.7460 C   0  0  0  0  0  0  0  0  0  0  0  0 
    3.7538    6.0580    0.3241 C   0  0  0  0  0  0  0  0  0  0  0  0 
    4.7897    5.3156    1.2165 C   0  0  0  0  0  0  0  0  0  0  0  0 
    2.3134   -2.4088   -0.7543 C   0  0  0  0  0  0  0  0  0  0  0  0 
    4.5354   -1.4730   -0.5520 C   0  0  0  0  0  0  0  0  0  0  0  0 
    3.3764    1.2627   -0.1218 C   0  0  0  0  0  0  0  0  0  0  0  0 
    2.6892    4.9903    0.0181 C   0  0  0  0  0  0  0  0  0  0  0  0 
    4.2610    3.8685    1.2939 C   0  0  0  0  0  0  0  0  0  0  0  0 
    2.5731    2.5510    0.0678 C   0  0  0  0  0  0  0  0  0  0  0  0 
    3.1437   -1.2944   -0.5548 C   0  0  0  0  0  0  0  0  0  0  0  0 
    2.4925    0.0443   -0.3582 C   0  0  0  0  0  0  0  0  0  0  0  0 
    3.4294    3.7289    0.0962 N   0  0  0  0  0  0  0  0  0  0  0  0 
    1.2746    0.1510   -0.3907 O   0  0  0  0  0  0  0  0  0  0  0  0 
    4.6785   -4.8284   -1.0946 H   0  0  0  0  0  0  0  0  0  0  0  0 
    2.2097   -4.5291   -1.1013 H   0  0  0  0  0  0  0  0  0  0  0  0 
    6.1635   -2.8685   -0.7431 H   0  0  0  0  0  0  0  0  0  0  0  0 
    4.2244    6.4038   -0.6013 H   0  0  0  0  0  0  0  0  0  0  0  0 
    3.3190    6.9319    0.8188 H   0  0  0  0  0  0  0  0  0  0  0  0 
    4.8796    5.7581    2.2133 H   0  0  0  0  0  0  0  0  0  0  0  0 
    5.7826    5.3411    0.7574 H   0  0  0  0  0  0  0  0  0  0  0  0 
    1.2395   -2.2533   -0.7538 H   0  0  0  0  0  0  0  0  0  0  0  0 
    5.1973   -0.6259   -0.4014 H   0  0  0  0  0  0  0  0  0  0  0  0 
    4.0177    1.0647    0.7478 H   0  0  0  0  0  0  0  0  0  0  0  0 
    4.0591    1.3861   -0.9740 H   0  0  0  0  0  0  0  0  0  0  0  0 
    2.2279    5.1036   -0.9694 H   0  0  0  0  0  0  0  0  0  0  0  0 
    1.8766    5.0327    0.7720 H   0  0  0  0  0  0  0  0  0  0  0  0 
    3.6619    3.7259    2.2171 H   0  0  0  0  0  0  0  0  0  0  0  0 
    5.0645    3.1241    1.3074 H   0  0  0  0  0  0  0  0  0  0  0  0 
    1.9511    2.4711    0.9805 H   0  0  0  0  0  0  0  0  0  0  0  0 
    1.8757    2.6528   -0.7698 H   0  0  0  0  0  0  0  0  0  0  0  0 
  1  3  1  0  0  0  0 
  2  1  2  0  0  0  0 
  2  6  1  0  0  0  0 
  3 18  1  0  0  0  0 
  3  7  2  0  0  0  0 
  4 20  1  0  0  0  0 
  4  5  1  0  0  0  0 
  5 10  1  0  0  0  0 
  5 21  1  0  0  0  0 
  6 23  1  0  0  0  0 
  6 12  2  0  0  0  0 
  7 24  1  0  0  0  0 
  8 11  1  0  0  0  0 
  8 25  1  0  0  0  0 
  9 14  1  0  0  0  0 
  9  4  1  0  0  0  0 
  9 28  1  0  0  0  0 
 10 30  1  0  0  0  0 
 10 29  1  0  0  0  0 
 11 14  1  0  0  0  0 
 11 31  1  0  0  0  0 
 12  7  1  0  0  0  0 
 12 13  1  0  0  0  0 
 13  8  1  0  0  0  0 
 14 10  1  0  0  0  0 
 15 13  2  0  0  0  0 
 16  1  1  0  0  0  0 
 17  2  1  0  0  0  0 
 19  4  1  0  0  0  0 
 22  5  1  0  0  0  0 
 26  8  1  0  0  0  0 
 27  9  1  0  0  0  0 
 32 11  1  0  0  0  0 
M  END 
>  <HBA> 
2 
 
>  <HBD> 
0 
 
>  <TPSA> 
20.31 
 
>  <cid> 
70034 
 
>  <dipole> 
2.55 
 
>  <excitation_energy_1> 
3.51 
 
>  <excitation_energy_2> 
3.829 
 
>  <excitation_energy_3> 
4.729 
 
>  <excitation_energy_4> 
4.872 
 
>  <homo_energy> 
-5.69 
 
>  <homo_lumo_gap> 
4.237 
 
>  <logP> 
2.293 
 
>  <lumo_energy> 
-1.453 
 
>  <melting_point> 
60.1 
 
>  <molecular_refractivity> 
65.37 
 
>  <oscillator_strength_1> 
0.0009 
 
>  <oscillator_strength_2> 
0.0004 
 
>  <oscillator_strength_3> 
0.0221 
 
>  <oscillator_strength_4> 
0.0003 
 
>  <open_babel_can_smiles> 
O=C(c1ccccc1)CCN1CCCC1 
 
>  <mulliken_charges> 
32 
1   -0.118744 
2   -0.133589 
3   -0.134466 
4   -0.279892 
5   -0.281784 
6   -0.155395 
7   -0.182444 
8   -0.383358 
9   -0.113086 
10   -0.119347 
11   -0.100074 
12   0.080281 
13   0.408489 
14   -0.408671 
15   -0.470195 
16   0.137284 
17   0.138102 
18   0.135825 
19   0.146334 
20   0.137568 
21   0.138287 
22   0.145017 
23   0.163572 
24   0.138239 
25   0.163779 
26   0.17467 
27   0.140174 
28   0.110291 
29   0.108541 
30   0.135431 
31   0.123448 
32   0.155715 
 
>  <lowdin_charges> 
32 
1   -0.139633 
2   -0.155962 
3   -0.154977 
4   -0.286132 
5   -0.284041 
6   -0.125709 
7   -0.151528 
8   -0.31484 
9   -0.201072 
10   -0.205348 
11   -0.196124 
12   -0.049233 
13   0.159354 
14   -0.192442 
15   -0.243888 
16   0.160917 
17   0.162347 
18   0.158618 
19   0.149782 
20   0.14755 
21   0.146282 
22   0.148249 
23   0.174879 
24   0.163478 
25   0.162368 
26   0.169286 
27   0.144812 
28   0.115675 
29   0.114044 
30   0.141684 
31   0.125553 
32   0.15605 
 
$$$$ 
 
