PCCDB-ID:  10867 
public computational chemistry database (PCCDB) project, http://pccdb.org 
 
 29 30  0  0  0  0  0  0  0  0999 V2000 
    1.1673   -1.7084    3.6841 C   0  0  0  0  0  0  0  0  0  0  0  0 
    7.7586    2.0236    1.3158 C   0  0  0  0  0  0  0  0  0  0  0  0 
    0.8273   -2.1437    2.3999 C   0  0  0  0  0  0  0  0  0  0  0  0 
    2.0284   -0.6224    3.8366 C   0  0  0  0  0  0  0  0  0  0  0  0 
    7.0661    1.2683    2.2612 C   0  0  0  0  0  0  0  0  0  0  0  0 
    7.6005    1.7399   -0.0441 C   0  0  0  0  0  0  0  0  0  0  0  0 
    1.3454   -1.4976    1.2792 C   0  0  0  0  0  0  0  0  0  0  0  0 
    2.5459    0.0240    2.7110 C   0  0  0  0  0  0  0  0  0  0  0  0 
    6.2205    0.2348    1.8489 C   0  0  0  0  0  0  0  0  0  0  0  0 
    6.7559    0.7097   -0.4521 C   0  0  0  0  0  0  0  0  0  0  0  0 
    2.7524    0.3296    0.2124 C   0  0  0  0  0  0  0  0  0  0  0  0 
    5.1574   -1.1944    0.0563 C   0  0  0  0  0  0  0  0  0  0  0  0 
    2.2104   -0.4024    1.4198 C   0  0  0  0  0  0  0  0  0  0  0  0 
    6.0562   -0.0594    0.4897 C   0  0  0  0  0  0  0  0  0  0  0  0 
    3.7102   -0.7027   -0.9797 S   0  0  0  0  0  0  0  0  0  0  0  0 
    0.7639   -2.2142    4.5572 H   0  0  0  0  0  0  0  0  0  0  0  0 
    8.4168    2.8280    1.6330 H   0  0  0  0  0  0  0  0  0  0  0  0 
    0.1560   -2.9890    2.2720 H   0  0  0  0  0  0  0  0  0  0  0  0 
    2.2998   -0.2756    4.8304 H   0  0  0  0  0  0  0  0  0  0  0  0 
    7.1821    1.4800    3.3210 H   0  0  0  0  0  0  0  0  0  0  0  0 
    8.1379    2.3228   -0.7875 H   0  0  0  0  0  0  0  0  0  0  0  0 
    1.0883   -1.8478    0.2828 H   0  0  0  0  0  0  0  0  0  0  0  0 
    3.2144    0.8728    2.8347 H   0  0  0  0  0  0  0  0  0  0  0  0 
    5.6853   -0.3541    2.5900 H   0  0  0  0  0  0  0  0  0  0  0  0 
    6.6283    0.4999   -1.5112 H   0  0  0  0  0  0  0  0  0  0  0  0 
    3.3756    1.1742    0.5210 H   0  0  0  0  0  0  0  0  0  0  0  0 
    1.9373    0.7321   -0.4000 H   0  0  0  0  0  0  0  0  0  0  0  0 
    4.7912   -1.7531    0.9229 H   0  0  0  0  0  0  0  0  0  0  0  0 
    5.6985   -1.9007   -0.5833 H   0  0  0  0  0  0  0  0  0  0  0  0 
  1  4  1  0  0  0  0 
  1 16  1  0  0  0  0 
  2 17  1  0  0  0  0 
  2  5  2  0  0  0  0 
  3  1  2  0  0  0  0 
  4 19  1  0  0  0  0 
  5 20  1  0  0  0  0 
  6  2  1  0  0  0  0 
  7 13  2  0  0  0  0 
  7  3  1  0  0  0  0 
  8 23  1  0  0  0  0 
  8  4  2  0  0  0  0 
  9  5  1  0  0  0  0 
  9 24  1  0  0  0  0 
 10  6  2  0  0  0  0 
 10 14  1  0  0  0  0 
 11 26  1  0  0  0  0 
 11 13  1  0  0  0  0 
 12 14  1  0  0  0  0 
 12 28  1  0  0  0  0 
 13  8  1  0  0  0  0 
 14  9  2  0  0  0  0 
 15 12  1  0  0  0  0 
 15 11  1  0  0  0  0 
 18  3  1  0  0  0  0 
 21  6  1  0  0  0  0 
 22  7  1  0  0  0  0 
 25 10  1  0  0  0  0 
 27 11  1  0  0  0  0 
 29 12  1  0  0  0  0 
M  END 
>  <HBA> 
1 
 
>  <HBD> 
0 
 
>  <TPSA> 
25.3 
 
>  <cid> 
10867 
 
>  <dipole> 
1.46 
 
>  <excitation_energy_1> 
4.628 
 
>  <excitation_energy_2> 
4.732 
 
>  <excitation_energy_3> 
4.889 
 
>  <excitation_energy_4> 
5.092 
 
>  <homo_energy> 
-5.921 
 
>  <homo_lumo_gap> 
5.627 
 
>  <logP> 
4.12 
 
>  <lumo_energy> 
-0.294 
 
>  <melting_point> 
45.85 
 
>  <molecular_refractivity> 
68.29 
 
>  <oscillator_strength_1> 
0.0166 
 
>  <oscillator_strength_2> 
0.0013 
 
>  <oscillator_strength_3> 
0.0145 
 
>  <oscillator_strength_4> 
0.0044 
 
>  <open_babel_can_smiles> 
S(Cc1ccccc1)Cc1ccccc1 
 
>  <mulliken_charges> 
29 
1   -0.129543 
2   -0.129554 
3   -0.131228 
4   -0.128526 
5   -0.128746 
6   -0.130985 
7   -0.165454 
8   -0.189963 
9   -0.190524 
10   -0.164218 
11   -0.51559 
12   -0.516137 
13   0.173097 
14   0.174955 
15   0.094218 
16   0.129657 
17   0.12958 
18   0.131311 
19   0.129382 
20   0.12927 
21   0.131214 
22   0.140827 
23   0.132564 
24   0.133825 
25   0.138109 
26   0.18844 
27   0.188233 
28   0.188636 
29   0.18715 
 
>  <lowdin_charges> 
29 
1   -0.159944 
2   -0.158512 
3   -0.153344 
4   -0.157562 
5   -0.15628 
6   -0.155976 
7   -0.156744 
8   -0.169827 
9   -0.172579 
10   -0.154641 
11   -0.375954 
12   -0.376379 
13   -0.014522 
14   -0.012754 
15   0.091644 
16   0.158583 
17   0.158343 
18   0.158432 
19   0.157072 
20   0.15588 
21   0.15972 
22   0.163654 
23   0.158048 
24   0.159972 
25   0.161356 
26   0.168145 
27   0.178108 
28   0.168252 
29   0.17781 
 
$$$$ 
 
