PCCDB-ID:  66149 
public computational chemistry database (PCCDB) project, http://pccdb.org 
 
 25 25  0  0  0  0  0  0  0  0999 V2000 
    3.9766   -1.3888    3.9682 C   0  0  0  0  0  0  0  0  0  0  0  0 
    5.7791    7.0984    3.7213 C   0  0  0  0  0  0  0  0  0  0  0  0 
    4.6812   -0.6211    2.8625 C   0  0  0  0  0  0  0  0  0  0  0  0 
    4.9027    3.9993    1.9410 C   0  0  0  0  0  0  0  0  0  0  0  0 
    5.3680    1.5605    2.2494 C   0  0  0  0  0  0  0  0  0  0  0  0 
    5.6149    5.6578    3.3244 C   0  0  0  0  0  0  0  0  0  0  0  0 
    5.4103    2.9902    2.7021 C   0  0  0  0  0  0  0  0  0  0  0  0 
    6.0865    3.3282    3.9551 C   0  0  0  0  0  0  0  0  0  0  0  0 
    6.6132    2.5855    4.8594 N   0  0  0  0  0  0  0  0  0  0  0  0 
    4.9808    5.3458    2.2268 N   0  0  0  0  0  0  0  0  0  0  0  0 
    6.1587    4.7240    4.1509 N   0  0  0  0  0  0  0  0  0  0  0  0 
    4.7221    0.7521    3.2251 O   0  0  0  0  0  0  0  0  0  0  0  0 
    3.9215   -2.4540    3.7179 H   0  0  0  0  0  0  0  0  0  0  0  0 
    2.9590   -1.0109    4.1088 H   0  0  0  0  0  0  0  0  0  0  0  0 
    4.5156   -1.2818    4.9151 H   0  0  0  0  0  0  0  0  0  0  0  0 
    5.2518    7.7250    3.0015 H   0  0  0  0  0  0  0  0  0  0  0  0 
    6.8385    7.3834    3.7332 H   0  0  0  0  0  0  0  0  0  0  0  0 
    5.3736    7.2824    4.7235 H   0  0  0  0  0  0  0  0  0  0  0  0 
    4.1470   -0.7400    1.9045 H   0  0  0  0  0  0  0  0  0  0  0  0 
    5.7052   -1.0041    2.7120 H   0  0  0  0  0  0  0  0  0  0  0  0 
    4.3920    3.7659    1.0080 H   0  0  0  0  0  0  0  0  0  0  0  0 
    6.3964    1.1869    2.0903 H   0  0  0  0  0  0  0  0  0  0  0  0 
    4.8443    1.4915    1.2822 H   0  0  0  0  0  0  0  0  0  0  0  0 
    6.4364    1.6050    4.6411 H   0  0  0  0  0  0  0  0  0  0  0  0 
    6.6278    5.0009    5.0068 H   0  0  0  0  0  0  0  0  0  0  0  0 
  1 14  1  0  0  0  0 
  1 15  1  0  0  0  0 
  2 17  1  0  0  0  0 
  2 18  1  0  0  0  0 
  3 12  1  0  0  0  0 
  3  1  1  0  0  0  0 
  4 10  1  0  0  0  0 
  4  7  2  0  0  0  0 
  5  7  1  0  0  0  0 
  5 12  1  0  0  0  0 
  6  2  1  0  0  0  0 
  6 11  1  0  0  0  0 
  7  8  1  0  0  0  0 
  8 11  1  0  0  0  0 
  8  9  2  0  0  0  0 
 10  6  2  0  0  0  0 
 11 25  1  0  0  0  0 
 13  1  1  0  0  0  0 
 16  2  1  0  0  0  0 
 19  3  1  0  0  0  0 
 20  3  1  0  0  0  0 
 21  4  1  0  0  0  0 
 22  5  1  0  0  0  0 
 23  5  1  0  0  0  0 
 24  9  1  0  0  0  0 
M  END 
>  <HBA> 
4 
 
>  <HBD> 
1 
 
>  <TPSA> 
61.03 
 
>  <cid> 
66149 
 
>  <dipole> 
0.92 
 
>  <excitation_energy_1> 
4.038 
 
>  <excitation_energy_2> 
4.921 
 
>  <excitation_energy_3> 
5.036 
 
>  <excitation_energy_4> 
5.21 
 
>  <homo_energy> 
-5.655 
 
>  <homo_lumo_gap> 
4.727 
 
>  <logP> 
1.485 
 
>  <lumo_energy> 
-0.928 
 
>  <melting_point> 
82.88 
 
>  <molecular_refractivity> 
47.07 
 
>  <oscillator_strength_1> 
0.0961 
 
>  <oscillator_strength_2> 
0.0002 
 
>  <oscillator_strength_3> 
0.0016 
 
>  <oscillator_strength_4> 
0.0008 
 
>  <open_babel_can_smiles> 
CCOCc1cnc([nH]c1=N)C 
 
>  <mulliken_charges> 
25 
1   -0.45394 
2   -0.533715 
3   -0.00439 
4   -0.038975 
5   -0.112986 
6   0.533384 
7   0.11695 
8   0.454112 
9   -0.676121 
10   -0.485158 
11   -0.638941 
12   -0.46896 
13   0.144515 
14   0.161992 
15   0.16161 
16   0.198719 
17   0.17615 
18   0.173261 
19   0.121483 
20   0.121373 
21   0.14162 
22   0.134718 
23   0.13414 
24   0.298677 
25   0.340482 
 
>  <lowdin_charges> 
25 
1   -0.445606 
2   -0.450379 
3   -0.12355 
4   -0.083004 
5   -0.124074 
6   0.121597 
7   -0.077212 
8   0.092924 
9   -0.454706 
10   -0.216176 
11   -0.197132 
12   -0.275833 
13   0.153612 
14   0.158213 
15   0.158431 
16   0.186165 
17   0.169506 
18   0.168345 
19   0.126204 
20   0.125294 
21   0.158301 
22   0.133558 
23   0.137482 
24   0.259696 
25   0.298345 
 
$$$$ 
 
