PCCDB-ID:  43452 
public computational chemistry database (PCCDB) project, http://pccdb.org 
 
 39 39  0  0  0  0  0  0  0  0999 V2000 
    5.8598   -2.6451    3.1098 C   0  0  0  0  0  0  0  0  0  0  0  0 
    2.1888   -3.2163   -0.2307 C   0  0  0  0  0  0  0  0  0  0  0  0 
    2.0400   -2.0484    3.2417 C   0  0  0  0  0  0  0  0  0  0  0  0 
    4.1252    1.9141   -4.5021 C   0  0  0  0  0  0  0  0  0  0  0  0 
    4.9503   -2.3997    2.3509 C   0  0  0  0  0  0  0  0  0  0  0  0 
    3.3503   -3.3849    0.7541 C   0  0  0  0  0  0  0  0  0  0  0  0 
    2.7518   -1.2773    2.1272 C   0  0  0  0  0  0  0  0  0  0  0  0 
    5.6169    1.6771   -4.2429 C   0  0  0  0  0  0  0  0  0  0  0  0 
    5.5397   -1.6345   -0.5017 C   0  0  0  0  0  0  0  0  0  0  0  0 
    5.0325    0.0891    0.6190 C   0  0  0  0  0  0  0  0  0  0  0  0 
    6.0615   -0.1884   -0.4958 C   0  0  0  0  0  0  0  0  0  0  0  0 
    6.1200    1.7302   -1.9411 C   0  0  0  0  0  0  0  0  0  0  0  0 
    3.8696   -2.0627    1.3871 C   0  0  0  0  0  0  0  0  0  0  0  0 
    6.0660    2.3629   -3.0358 N   0  0  0  0  0  0  0  0  0  0  0  0 
    4.3712   -1.2015    0.3028 N   0  0  0  0  0  0  0  0  0  0  0  0 
    6.5426    2.3361   -0.8002 O   0  0  0  0  0  0  0  0  0  0  0  0 
    5.7812    0.4368   -1.7576 O   0  0  0  0  0  0  0  0  0  0  0  0 
    6.6591   -2.8757    3.7775 H   0  0  0  0  0  0  0  0  0  0  0  0 
    1.9659   -4.1727   -0.7169 H   0  0  0  0  0  0  0  0  0  0  0  0 
    2.4325   -2.4838   -1.0057 H   0  0  0  0  0  0  0  0  0  0  0  0 
    1.2731   -2.8824    0.2693 H   0  0  0  0  0  0  0  0  0  0  0  0 
    1.3273   -1.3965    3.7589 H   0  0  0  0  0  0  0  0  0  0  0  0 
    2.7533   -2.4219    3.9841 H   0  0  0  0  0  0  0  0  0  0  0  0 
    1.4777   -2.9045    2.8527 H   0  0  0  0  0  0  0  0  0  0  0  0 
    3.8213    1.4680   -5.4567 H   0  0  0  0  0  0  0  0  0  0  0  0 
    3.9060    2.9867   -4.5369 H   0  0  0  0  0  0  0  0  0  0  0  0 
    3.5176    1.4676   -3.7072 H   0  0  0  0  0  0  0  0  0  0  0  0 
    4.1961   -3.8645    0.2456 H   0  0  0  0  0  0  0  0  0  0  0  0 
    3.0683   -4.0662    1.5641 H   0  0  0  0  0  0  0  0  0  0  0  0 
    3.2036   -0.3727    2.5519 H   0  0  0  0  0  0  0  0  0  0  0  0 
    2.0330   -0.9400    1.3722 H   0  0  0  0  0  0  0  0  0  0  0  0 
    6.1968    2.0830   -5.0809 H   0  0  0  0  0  0  0  0  0  0  0  0 
    5.8161    0.5971   -4.2018 H   0  0  0  0  0  0  0  0  0  0  0  0 
    6.2216   -2.3137    0.0303 H   0  0  0  0  0  0  0  0  0  0  0  0 
    5.2925   -2.0494   -1.4847 H   0  0  0  0  0  0  0  0  0  0  0  0 
    4.4014    0.9745    0.4960 H   0  0  0  0  0  0  0  0  0  0  0  0 
    5.5144    0.1128    1.6075 H   0  0  0  0  0  0  0  0  0  0  0  0 
    7.1105   -0.0381   -0.2379 H   0  0  0  0  0  0  0  0  0  0  0  0 
    6.7611    3.2448   -1.0734 H   0  0  0  0  0  0  0  0  0  0  0  0 
  1 18  1  0  0  0  0 
  2 21  1  0  0  0  0 
  2  6  1  0  0  0  0 
  3 22  1  0  0  0  0 
  3 23  1  0  0  0  0 
  4  8  1  0  0  0  0 
  4 27  1  0  0  0  0 
  5  1  3  0  0  0  0 
  6 13  1  0  0  0  0 
  6 29  1  0  0  0  0 
  7 30  1  0  0  0  0 
  7  3  1  0  0  0  0 
  8 33  1  0  0  0  0 
  8 14  1  0  0  0  0 
  9 11  1  0  0  0  0 
  9 34  1  0  0  0  0 
  9 15  1  0  0  0  0 
 10 37  1  0  0  0  0 
 11 38  1  0  0  0  0 
 11 10  1  0  0  0  0 
 12 17  1  0  0  0  0 
 12 16  1  0  0  0  0 
 13  7  1  0  0  0  0 
 13  5  1  0  0  0  0 
 14 12  2  0  0  0  0 
 15 10  1  0  0  0  0 
 15 13  1  0  0  0  0 
 17 11  1  0  0  0  0 
 19  2  1  0  0  0  0 
 20  2  1  0  0  0  0 
 24  3  1  0  0  0  0 
 25  4  1  0  0  0  0 
 26  4  1  0  0  0  0 
 28  6  1  0  0  0  0 
 31  7  1  0  0  0  0 
 32  8  1  0  0  0  0 
 35  9  1  0  0  0  0 
 36 10  1  0  0  0  0 
 39 16  1  0  0  0  0 
M  END 
>  <HBA> 
4 
 
>  <HBD> 
1 
 
>  <TPSA> 
41.57 
 
>  <cid> 
43452 
 
>  <dipole> 
1.84 
 
>  <excitation_energy_1> 
5.53 
 
>  <excitation_energy_2> 
5.745 
 
>  <excitation_energy_3> 
5.875 
 
>  <excitation_energy_4> 
5.902 
 
>  <homo_energy> 
-6.019 
 
>  <homo_lumo_gap> 
7.257 
 
>  <logP> 
1.938 
 
>  <lumo_energy> 
1.238 
 
>  <melting_point> 
72.33 
 
>  <molecular_refractivity> 
71.98 
 
>  <oscillator_strength_1> 
0.0024 
 
>  <oscillator_strength_2> 
0.0044 
 
>  <oscillator_strength_3> 
0.0107 
 
>  <oscillator_strength_4> 
0.0461 
 
>  <open_babel_can_smiles> 
CC/N=C(\OC1CN(C1)C(C#C)(CC)CC)/O 
 
>  <mulliken_charges> 
39 
1   -0.552369 
2   -0.455242 
3   -0.458509 
4   -0.437757 
5   0.361023 
6   -0.264666 
7   -0.264178 
8   -0.142218 
9   -0.136521 
10   -0.122458 
11   0.090234 
12   0.7258 
13   0.083846 
14   -0.496179 
15   -0.420641 
16   -0.609892 
17   -0.491698 
18   0.190061 
19   0.142417 
20   0.169079 
21   0.146423 
22   0.146343 
23   0.159236 
24   0.14838 
25   0.136095 
26   0.150809 
27   0.150273 
28   0.144654 
29   0.14865 
30   0.14483 
31   0.153243 
32   0.137561 
33   0.137438 
34   0.143927 
35   0.159091 
36   0.158568 
37   0.142762 
38   0.159953 
39   0.421634 
 
>  <lowdin_charges> 
39 
1   -0.273185 
2   -0.450686 
3   -0.451854 
4   -0.447475 
5   -0.045937 
6   -0.273449 
7   -0.272332 
8   -0.191794 
9   -0.208754 
10   -0.210339 
11   0.004445 
12   0.186724 
13   0.067914 
14   -0.27202 
15   -0.186652 
16   -0.371316 
17   -0.187972 
18   0.205227 
19   0.15172 
20   0.161375 
21   0.148751 
22   0.155045 
23   0.158244 
24   0.149662 
25   0.147846 
26   0.150039 
27   0.151834 
28   0.151049 
29   0.15346 
30   0.151059 
31   0.154995 
32   0.143242 
33   0.133325 
34   0.146584 
35   0.152758 
36   0.15361 
37   0.145026 
38   0.149812 
39   0.370017 
 
$$$$ 
 
