PCCDB-ID:  72507 
public computational chemistry database (PCCDB) project, http://pccdb.org 
 
 22 22  0  0  0  0  0  0  0  0999 V2000 
    2.8951   -0.7595   -3.5339 C   0  0  0  0  0  0  0  0  0  0  0  0 
    4.2256   -0.1175   -3.1303 C   0  0  0  0  0  0  0  0  0  0  0  0 
    0.5649    5.7064   -2.1130 C   0  0  0  0  0  0  0  0  0  0  0  0 
    0.2823    4.3856   -1.7508 C   0  0  0  0  0  0  0  0  0  0  0  0 
    4.1885    0.5587   -1.7632 C   0  0  0  0  0  0  0  0  0  0  0  0 
    2.7354    5.1511   -2.4595 C   0  0  0  0  0  0  0  0  0  0  0  0 
    2.4537    3.8271   -2.0953 C   0  0  0  0  0  0  0  0  0  0  0  0 
    3.5741    2.8251   -2.1229 C   0  0  0  0  0  0  0  0  0  0  0  0 
    1.7927    6.0989   -2.4693 N   0  0  0  0  0  0  0  0  0  0  0  0 
    1.2221    3.4387   -1.7389 N   0  0  0  0  0  0  0  0  0  0  0  0 
    4.6994    3.1180   -2.4807 O   0  0  0  0  0  0  0  0  0  0  0  0 
    3.1867    1.6077   -1.7200 O   0  0  0  0  0  0  0  0  0  0  0  0 
    2.9689   -1.2243   -4.5230 H   0  0  0  0  0  0  0  0  0  0  0  0 
    2.0937   -0.0144   -3.5686 H   0  0  0  0  0  0  0  0  0  0  0  0 
    2.5966   -1.5367   -2.8197 H   0  0  0  0  0  0  0  0  0  0  0  0 
    4.5376    0.6229   -3.8764 H   0  0  0  0  0  0  0  0  0  0  0  0 
    5.0180   -0.8778   -3.0961 H   0  0  0  0  0  0  0  0  0  0  0  0 
   -0.2163    6.4641   -2.1160 H   0  0  0  0  0  0  0  0  0  0  0  0 
   -0.7243    4.0869   -1.4648 H   0  0  0  0  0  0  0  0  0  0  0  0 
    5.1594    0.9901   -1.5088 H   0  0  0  0  0  0  0  0  0  0  0  0 
    3.8755   -0.1375   -0.9805 H   0  0  0  0  0  0  0  0  0  0  0  0 
    3.7434    5.4354   -2.7465 H   0  0  0  0  0  0  0  0  0  0  0  0 
  1  2  1  0  0  0  0 
  1 15  1  0  0  0  0 
  2 17  1  0  0  0  0 
  2  5  1  0  0  0  0 
  3  4  2  0  0  0  0 
  4 10  1  0  0  0  0 
  4 19  1  0  0  0  0 
  5 12  1  0  0  0  0 
  5 20  1  0  0  0  0 
  5 21  1  0  0  0  0 
  6  7  1  0  0  0  0 
  7 10  2  0  0  0  0 
  8  7  1  0  0  0  0 
  8 12  1  0  0  0  0 
  9  6  2  0  0  0  0 
  9  3  1  0  0  0  0 
 11  8  2  0  0  0  0 
 13  1  1  0  0  0  0 
 14  1  1  0  0  0  0 
 16  2  1  0  0  0  0 
 18  3  1  0  0  0  0 
 22  6  1  0  0  0  0 
M  END 
>  <HBA> 
4 
 
>  <HBD> 
0 
 
>  <TPSA> 
52.08 
 
>  <cid> 
72507 
 
>  <dipole> 
1.91 
 
>  <excitation_energy_1> 
3.644 
 
>  <excitation_energy_2> 
4.275 
 
>  <excitation_energy_3> 
4.664 
 
>  <excitation_energy_4> 
5.142 
 
>  <homo_energy> 
-6.923 
 
>  <homo_lumo_gap> 
4.936 
 
>  <logP> 
1.043 
 
>  <lumo_energy> 
-1.986 
 
>  <melting_point> 
58.94 
 
>  <molecular_refractivity> 
42.93 
 
>  <oscillator_strength_1> 
0.0026 
 
>  <oscillator_strength_2> 
0.0017 
 
>  <oscillator_strength_3> 
0.001 
 
>  <oscillator_strength_4> 
0.2028 
 
>  <open_babel_can_smiles> 
CCCOC(=O)c1cnccn1 
 
>  <mulliken_charges> 
22 
1   -0.444275 
2   -0.277061 
3   0.039974 
4   0.036176 
5   -0.050194 
6   0.035992 
7   0.199322 
8   0.616313 
9   -0.379896 
10   -0.425312 
11   -0.488084 
12   -0.452398 
13   0.147192 
14   0.164806 
15   0.142773 
16   0.162656 
17   0.142259 
18   0.159555 
19   0.157446 
20   0.17217 
21   0.154497 
22   0.186091 
 
>  <lowdin_charges> 
22 
1   -0.448344 
2   -0.284984 
3   -0.093907 
4   -0.101346 
5   -0.130725 
6   -0.078069 
7   -0.004636 
8   0.188409 
9   -0.1159 
10   -0.099568 
11   -0.268013 
12   -0.164837 
13   0.152168 
14   0.158272 
15   0.148601 
16   0.157172 
17   0.152162 
18   0.168821 
19   0.166189 
20   0.161362 
21   0.155054 
22   0.182118 
 
$$$$ 
 
