PCCDB-ID:  7900 
public computational chemistry database (PCCDB) project, http://pccdb.org 
 
 16 15  0  0  1  0  0  0  0  0999 V2000 
    4.0751   -1.1821   -1.2931 C   0  0  0  0  0  0  0  0  0  0  0  0 
    1.9754    0.6457    2.7270 C   0  0  0  0  0  0  0  0  0  0  0  0 
    2.9329   -0.4012    0.8303 C   0  0  0  0  0  0  0  0  0  0  0  0 
    3.2014   -0.1172   -0.6454 C   0  0  1  0  0  0  0  0  0  0  0  0 
    3.8661    1.1337   -0.7761 O   0  0  0  0  0  0  0  0  0  0  0  0 
    2.1829    0.6968    1.3306 O   0  0  0  0  0  0  0  0  0  0  0  0 
    3.5839   -2.1614   -1.2724 H   0  0  0  0  0  0  0  0  0  0  0  0 
    5.0378   -1.2573   -0.7753 H   0  0  0  0  0  0  0  0  0  0  0  0 
    4.2718   -0.9155   -2.3359 H   0  0  0  0  0  0  0  0  0  0  0  0 
    1.4027    1.5354    3.0017 H   0  0  0  0  0  0  0  0  0  0  0  0 
    2.9283    0.6460    3.2794 H   0  0  0  0  0  0  0  0  0  0  0  0 
    1.4051   -0.2502    3.0183 H   0  0  0  0  0  0  0  0  0  0  0  0 
    3.8891   -0.4879    1.3727 H   0  0  0  0  0  0  0  0  0  0  0  0 
    2.3748   -1.3435    0.9585 H   0  0  0  0  0  0  0  0  0  0  0  0 
    2.2257   -0.0813   -1.1602 H   0  0  0  0  0  0  0  0  0  0  0  0 
    3.3790    1.7453   -0.1978 H   0  0  0  0  0  0  0  0  0  0  0  0 
  1  7  1  0  0  0  0 
  1  8  1  0  0  0  0 
  1  4  1  0  0  0  0 
  2 10  1  0  0  0  0 
  2 12  1  0  0  0  0 
  2 11  1  0  0  0  0 
  3 14  1  0  0  0  0 
  3  6  1  0  0  0  0 
  3 13  1  0  0  0  0 
  4 15  1  6  0  0  0 
  4  3  1  0  0  0  0 
  5  4  1  0  0  0  0 
  5 16  1  0  0  0  0 
  6  2  1  0  0  0  0 
  9  1  1  0  0  0  0 
M  END 
>  <HBA> 
2 
 
>  <HBD> 
1 
 
>  <TPSA> 
29.46 
 
>  <cid> 
7900 
 
>  <dipole> 
2.34 
 
>  <excitation_energy_1> 
6.773 
 
>  <excitation_energy_2> 
6.808 
 
>  <excitation_energy_3> 
7.161 
 
>  <excitation_energy_4> 
7.19 
 
>  <homo_energy> 
-6.98 
 
>  <homo_lumo_gap> 
9.255 
 
>  <logP> 
0.014 
 
>  <lumo_energy> 
2.275 
 
>  <melting_point> 
-15.57 
 
>  <molecular_refractivity> 
23.59 
 
>  <oscillator_strength_1> 
0.0191 
 
>  <oscillator_strength_2> 
0.0144 
 
>  <oscillator_strength_3> 
0.007 
 
>  <oscillator_strength_4> 
0.0069 
 
>  <open_babel_can_smiles> 
COC[C@@H](O)C 
 
>  <mulliken_charges> 
16 
1   -0.452854 
2   -0.192171 
3   -0.02527 
4   0.136261 
5   -0.636628 
6   -0.481401 
7   0.138981 
8   0.151864 
9   0.164134 
10   0.160677 
11   0.136045 
12   0.134998 
13   0.124933 
14   0.119382 
15   0.119964 
16   0.401085 
 
>  <lowdin_charges> 
16 
1   -0.446313 
2   -0.27849 
3   -0.150776 
4   -0.002012 
5   -0.472255 
6   -0.279645 
7   0.150763 
8   0.15401 
9   0.162299 
10   0.156971 
11   0.135304 
12   0.13533 
13   0.131078 
14   0.130937 
15   0.127232 
16   0.345565 
 
$$$$ 
 
