PCCDB-ID:  31245 
public computational chemistry database (PCCDB) project, http://pccdb.org 
 
 19 18  0  0  1  0  0  0  0  0999 V2000 
    1.2187   -0.1686   -0.0306 C   0  0  0  0  0  0  0  0  0  0  0  0 
    5.9151    1.0319    1.5596 C   0  0  0  0  0  0  0  0  0  0  0  0 
    2.7040   -0.1251   -0.4029 C   0  0  0  0  0  0  0  0  0  0  0  0 
    3.5943    0.3489    0.7542 C   0  0  0  0  0  0  0  0  0  0  0  0 
    5.6292   -0.9822    0.1330 C   0  0  0  0  0  0  0  0  0  0  0  0 
    5.0974    0.4112    0.4096 C   0  0  2  0  0  0  0  0  0  0  0  0 
    6.1869   -1.3348   -0.8821 O   0  0  0  0  0  0  0  0  0  0  0  0 
    0.6065   -0.5015   -0.8760 H   0  0  0  0  0  0  0  0  0  0  0  0 
    0.8568    0.8213    0.2738 H   0  0  0  0  0  0  0  0  0  0  0  0 
    1.0380   -0.8577    0.8035 H   0  0  0  0  0  0  0  0  0  0  0  0 
    5.5449    2.0371    1.7894 H   0  0  0  0  0  0  0  0  0  0  0  0 
    6.9758    1.1113    1.2984 H   0  0  0  0  0  0  0  0  0  0  0  0 
    5.8349    0.4303    2.4737 H   0  0  0  0  0  0  0  0  0  0  0  0 
    2.8490    0.5416   -1.2640 H   0  0  0  0  0  0  0  0  0  0  0  0 
    3.0278   -1.1206   -0.7363 H   0  0  0  0  0  0  0  0  0  0  0  0 
    3.4525   -0.3112    1.6239 H   0  0  0  0  0  0  0  0  0  0  0  0 
    3.2723    1.3480    1.0791 H   0  0  0  0  0  0  0  0  0  0  0  0 
    5.4775   -1.7005    0.9761 H   0  0  0  0  0  0  0  0  0  0  0  0 
    5.2453    0.9984   -0.5049 H   0  0  0  0  0  0  0  0  0  0  0  0 
  1  9  1  0  0  0  0 
  1 10  1  0  0  0  0 
  2 11  1  0  0  0  0 
  2 13  1  0  0  0  0 
  3  1  1  0  0  0  0 
  3  4  1  0  0  0  0 
  4 17  1  0  0  0  0 
  4 16  1  0  0  0  0 
  5  6  1  0  0  0  0 
  5 18  1  0  0  0  0 
  6 19  1  6  0  0  0 
  6  4  1  0  0  0  0 
  6  2  1  0  0  0  0 
  7  5  2  0  0  0  0 
  8  1  1  0  0  0  0 
 12  2  1  0  0  0  0 
 14  3  1  0  0  0  0 
 15  3  1  0  0  0  0 
M  END 
>  <HBA> 
1 
 
>  <HBD> 
0 
 
>  <TPSA> 
17.07 
 
>  <cid> 
31245 
 
>  <dipole> 
2.73 
 
>  <excitation_energy_1> 
4.208 
 
>  <excitation_energy_2> 
6.471 
 
>  <excitation_energy_3> 
6.768 
 
>  <excitation_energy_4> 
6.915 
 
>  <homo_energy> 
-6.713 
 
>  <homo_lumo_gap> 
6.158 
 
>  <logP> 
1.621 
 
>  <lumo_energy> 
-0.555 
 
>  <melting_point> 
5.16 
 
>  <molecular_refractivity> 
31.16 
 
>  <oscillator_strength_1> 
0.0003 
 
>  <oscillator_strength_2> 
0.0092 
 
>  <oscillator_strength_3> 
0.0279 
 
>  <oscillator_strength_4> 
0.0033 
 
>  <open_babel_can_smiles> 
C[C@@H](C=O)CCC 
 
>  <mulliken_charges> 
19 
1   -0.44314 
2   -0.464786 
3   -0.255996 
4   -0.266813 
5   0.260516 
6   -0.141228 
7   -0.388904 
8   0.148033 
9   0.143162 
10   0.143282 
11   0.15742 
12   0.162038 
13   0.148966 
14   0.140418 
15   0.144997 
16   0.132033 
17   0.138996 
18   0.092123 
19   0.148882 
 
>  <lowdin_charges> 
19 
1   -0.444819 
2   -0.438735 
3   -0.275183 
4   -0.273856 
5   0.053086 
6   -0.157587 
7   -0.21718 
8   0.153589 
9   0.146858 
10   0.147882 
11   0.157189 
12   0.15703 
13   0.151201 
14   0.14486 
15   0.145073 
16   0.140547 
17   0.145798 
18   0.110106 
19   0.154139 
 
$$$$ 
 
