PCCDB-ID:  10450 
public computational chemistry database (PCCDB) project, http://pccdb.org 
 
 14 14  0  0  0  0  0  0  0  0999 V2000 
    0.6984    1.2421   -0.2277 C   0  0  0  0  0  0  0  0  0  0  0  0 
    1.3982   -0.0436    0.2225 C   0  0  0  0  0  0  0  0  0  0  0  0 
   -0.7594    1.1979    0.2396 C   0  0  0  0  0  0  0  0  0  0  0  0 
   -0.6654   -1.1349    0.2765 C   0  0  0  0  0  0  0  0  0  0  0  0 
    0.6567   -1.1863   -0.2021 O   0  0  0  0  0  0  0  0  0  0  0  0 
   -1.3799   -0.0146   -0.1859 O   0  0  0  0  0  0  0  0  0  0  0  0 
    0.7244    1.3024   -1.3216 H   0  0  0  0  0  0  0  0  0  0  0  0 
    1.2092    2.1245    0.1783 H   0  0  0  0  0  0  0  0  0  0  0  0 
    1.5008   -0.0551    1.3221 H   0  0  0  0  0  0  0  0  0  0  0  0 
    2.3958   -0.1430   -0.2139 H   0  0  0  0  0  0  0  0  0  0  0  0 
   -1.3520    2.0133   -0.1841 H   0  0  0  0  0  0  0  0  0  0  0  0 
   -0.8075    1.2728    1.3405 H   0  0  0  0  0  0  0  0  0  0  0  0 
   -0.6593   -1.1395    1.3846 H   0  0  0  0  0  0  0  0  0  0  0  0 
   -1.1774   -2.0198   -0.1048 H   0  0  0  0  0  0  0  0  0  0  0  0 
  1  8  1  0  0  0  0 
  1  2  1  0  0  0  0 
  1  3  1  0  0  0  0 
  2  9  1  0  0  0  0 
  3 12  1  0  0  0  0 
  4 13  1  0  0  0  0 
  5  2  1  0  0  0  0 
  5  4  1  0  0  0  0 
  6  3  1  0  0  0  0 
  6  4  1  0  0  0  0 
  7  1  1  0  0  0  0 
 10  2  1  0  0  0  0 
 11  3  1  0  0  0  0 
 14  4  1  0  0  0  0 
M  END 
>  <HBA> 
2 
 
>  <HBD> 
0 
 
>  <TPSA> 
18.46 
 
>  <cid> 
10450 
 
>  <dipole> 
1.98 
 
>  <excitation_energy_1> 
6.783 
 
>  <excitation_energy_2> 
6.996 
 
>  <excitation_energy_3> 
7.163 
 
>  <excitation_energy_4> 
7.341 
 
>  <homo_energy> 
-7.08 
 
>  <homo_lumo_gap> 
9.578 
 
>  <logP> 
0.381 
 
>  <lumo_energy> 
2.498 
 
>  <melting_point> 
-20.56 
 
>  <molecular_refractivity> 
21.4 
 
>  <oscillator_strength_1> 
0.0001 
 
>  <oscillator_strength_2> 
0.0308 
 
>  <oscillator_strength_3> 
0.0002 
 
>  <oscillator_strength_4> 
0.0066 
 
>  <open_babel_can_smiles> 
C1CCOCO1 
 
>  <mulliken_charges> 
14 
1   -0.283322 
2   -0.04301 
3   -0.042935 
4   0.177118 
5   -0.458241 
6   -0.45819 
7   0.159123 
8   0.136085 
9   0.121534 
10   0.1536 
11   0.15361 
12   0.121503 
13   0.106847 
14   0.156279 
 
>  <lowdin_charges> 
14 
1   -0.307042 
2   -0.13118 
3   -0.132867 
4   -0.021703 
5   -0.26736 
6   -0.266714 
7   0.153828 
8   0.152568 
9   0.1242 
10   0.152981 
11   0.154935 
12   0.124174 
13   0.107655 
14   0.156525 
 
$$$$ 
 
