PCCDB-ID:  32379 
public computational chemistry database (PCCDB) project, http://pccdb.org 
 
 21 21  0  0  1  0  0  0  0  0999 V2000 
   -1.8498   -0.1631   -0.1267 C   0  0  0  0  0  0  0  0  0  0  0  0 
   -1.2290    1.0783   -0.2783 C   0  0  0  0  0  0  0  0  0  0  0  0 
   -1.0770   -1.2990    0.1230 C   0  0  0  0  0  0  0  0  0  0  0  0 
    0.1592    1.1796   -0.1841 C   0  0  0  0  0  0  0  0  0  0  0  0 
    0.3107   -1.1949    0.2233 C   0  0  0  0  0  0  0  0  0  0  0  0 
    0.9437    0.0472    0.0695 C   0  0  0  0  0  0  0  0  0  0  0  0 
    2.4599    0.1612    0.0785 C   0  0  1  0  0  0  0  0  0  0  0  0 
    3.1563   -0.7433    1.1141 C   0  0  0  0  0  0  0  0  0  0  0  0 
    4.1500   -1.5043    0.8584 N   0  0  0  0  0  0  0  0  0  0  0  0 
    2.6196   -0.6868    2.3867 N   0  0  0  0  0  0  0  0  0  0  0  0 
    3.0028   -0.0606   -1.2236 O   0  0  0  0  0  0  0  0  0  0  0  0 
   -2.9311   -0.2442   -0.1980 H   0  0  0  0  0  0  0  0  0  0  0  0 
   -1.8244    1.9666   -0.4716 H   0  0  0  0  0  0  0  0  0  0  0  0 
   -1.5551   -2.2666    0.2497 H   0  0  0  0  0  0  0  0  0  0  0  0 
    0.6423    2.1452   -0.3152 H   0  0  0  0  0  0  0  0  0  0  0  0 
    0.9048   -2.0781    0.4429 H   0  0  0  0  0  0  0  0  0  0  0  0 
    2.7336    1.1973    0.3167 H   0  0  0  0  0  0  0  0  0  0  0  0 
    4.3760   -1.4120   -0.1352 H   0  0  0  0  0  0  0  0  0  0  0  0 
    2.0824    0.1296    2.6434 H   0  0  0  0  0  0  0  0  0  0  0  0 
    3.2246   -1.0492    3.1130 H   0  0  0  0  0  0  0  0  0  0  0  0 
    2.5440   -0.8317   -1.5958 H   0  0  0  0  0  0  0  0  0  0  0  0 
  1  3  2  0  0  0  0 
  2  4  2  0  0  0  0 
  2  1  1  0  0  0  0 
  3  5  1  0  0  0  0 
  3 14  1  0  0  0  0 
  4  6  1  0  0  0  0 
  5 16  1  0  0  0  0 
  6  7  1  0  0  0  0 
  6  5  2  0  0  0  0 
  7 17  1  1  0  0  0 
  7  8  1  0  0  0  0 
  8 10  1  0  0  0  0 
  9  8  2  0  0  0  0 
 10 19  1  0  0  0  0 
 10 20  1  0  0  0  0 
 11  7  1  0  0  0  0 
 12  1  1  0  0  0  0 
 13  2  1  0  0  0  0 
 15  4  1  0  0  0  0 
 18  9  1  0  0  0  0 
 21 11  1  0  0  0  0 
M  END 
>  <HBA> 
3 
 
>  <HBD> 
3 
 
>  <TPSA> 
70.1 
 
>  <cid> 
32379 
 
>  <dipole> 
3.42 
 
>  <excitation_energy_1> 
5.052 
 
>  <excitation_energy_2> 
5.22 
 
>  <excitation_energy_3> 
5.375 
 
>  <excitation_energy_4> 
5.602 
 
>  <homo_energy> 
-6.242 
 
>  <homo_lumo_gap> 
5.782 
 
>  <logP> 
1.456 
 
>  <lumo_energy> 
-0.46 
 
>  <melting_point> 
110.65 
 
>  <molecular_refractivity> 
43.67 
 
>  <oscillator_strength_1> 
0.0044 
 
>  <oscillator_strength_2> 
0.0039 
 
>  <oscillator_strength_3> 
0.0084 
 
>  <oscillator_strength_4> 
0.0419 
 
>  <open_babel_can_smiles> 
O[C@@H](c1ccccc1)C(=N)N 
 
>  <mulliken_charges> 
21 
1   -0.126541 
2   -0.128998 
3   -0.132447 
4   -0.183096 
5   -0.177502 
6   0.125066 
7   -0.006596 
8   0.422306 
9   -0.643311 
10   -0.731916 
11   -0.610893 
12   0.13497 
13   0.135137 
14   0.13696 
15   0.134621 
16   0.155494 
17   0.154167 
18   0.290291 
19   0.323819 
20   0.335029 
21   0.393441 
 
>  <lowdin_charges> 
21 
1   -0.148997 
2   -0.155652 
3   -0.153488 
4   -0.158912 
5   -0.161427 
6   -0.033756 
7   -0.023339 
8   0.062992 
9   -0.434912 
10   -0.481594 
11   -0.444191 
12   0.158349 
13   0.161041 
14   0.160977 
15   0.159568 
16   0.169606 
17   0.156502 
18   0.253555 
19   0.279693 
20   0.287725 
21   0.346259 
 
$$$$ 
 
