PCCDB-ID:  18126 
public computational chemistry database (PCCDB) project, http://pccdb.org 
 
 25 25  0  0  1  0  0  0  0  0999 V2000 
    1.4761    2.0035    0.7387 C   0  0  0  0  0  0  0  0  0  0  0  0 
    2.9452    1.5702    0.7779 C   0  0  0  0  0  0  0  0  0  0  0  0 
    3.1764    0.2883    1.5883 C   0  0  0  0  0  0  0  0  0  0  0  0 
    4.6449   -0.1534    1.6333 C   0  0  0  0  0  0  0  0  0  0  0  0 
    4.8649   -1.4306    2.4577 C   0  0  0  0  0  0  0  0  0  0  0  0 
    6.3357   -1.8654    2.5915 C   0  0  0  0  0  0  0  0  0  0  0  0 
    6.9760   -3.7225    0.8752 C   0  0  0  0  0  0  0  0  0  0  0  0 
    6.9673   -2.3116    1.2910 C   0  0  2  0  0  0  0  0  0  0  0  0 
    8.1594   -3.1046    1.3969 O   0  0  0  0  0  0  0  0  0  0  0  0 
    1.3449    2.9207    0.1534 H   0  0  0  0  0  0  0  0  0  0  0  0 
    1.0919    2.1946    1.7483 H   0  0  0  0  0  0  0  0  0  0  0  0 
    0.8459    1.2272    0.2873 H   0  0  0  0  0  0  0  0  0  0  0  0 
    3.5552    2.3806    1.2016 H   0  0  0  0  0  0  0  0  0  0  0  0 
    3.3097    1.4204   -0.2485 H   0  0  0  0  0  0  0  0  0  0  0  0 
    2.5656   -0.5234    1.1655 H   0  0  0  0  0  0  0  0  0  0  0  0 
    2.8114    0.4384    2.6155 H   0  0  0  0  0  0  0  0  0  0  0  0 
    5.2560    0.6583    2.0556 H   0  0  0  0  0  0  0  0  0  0  0  0 
    5.0042   -0.3013    0.6050 H   0  0  0  0  0  0  0  0  0  0  0  0 
    4.2817   -2.2534    2.0194 H   0  0  0  0  0  0  0  0  0  0  0  0 
    4.4588   -1.2739    3.4664 H   0  0  0  0  0  0  0  0  0  0  0  0 
    6.4160   -2.6946    3.3054 H   0  0  0  0  0  0  0  0  0  0  0  0 
    6.9283   -1.0380    3.0072 H   0  0  0  0  0  0  0  0  0  0  0  0 
    7.0115   -3.9838   -0.1831 H   0  0  0  0  0  0  0  0  0  0  0  0 
    6.5207   -4.4743    1.5218 H   0  0  0  0  0  0  0  0  0  0  0  0 
    7.0200   -1.5598    0.5007 H   0  0  0  0  0  0  0  0  0  0  0  0 
  1  2  1  0  0  0  0 
  1 11  1  0  0  0  0 
  2 13  1  0  0  0  0 
  2  3  1  0  0  0  0 
  3  4  1  0  0  0  0 
  3 16  1  0  0  0  0 
  4 17  1  0  0  0  0 
  4  5  1  0  0  0  0 
  5  6  1  0  0  0  0 
  5 20  1  0  0  0  0 
  6 22  1  0  0  0  0 
  6 21  1  0  0  0  0 
  7  8  1  0  0  0  0 
  7  9  1  0  0  0  0 
  7 24  1  0  0  0  0 
  8 25  1  6  0  0  0 
  8  9  1  0  0  0  0 
  8  6  1  0  0  0  0 
 10  1  1  0  0  0  0 
 12  1  1  0  0  0  0 
 14  2  1  0  0  0  0 
 15  3  1  0  0  0  0 
 18  4  1  0  0  0  0 
 19  5  1  0  0  0  0 
 23  7  1  0  0  0  0 
M  END 
>  <HBA> 
1 
 
>  <HBD> 
0 
 
>  <TPSA> 
12.53 
 
>  <cid> 
18126 
 
>  <dipole> 
2.11 
 
>  <excitation_energy_1> 
6.774 
 
>  <excitation_energy_2> 
6.988 
 
>  <excitation_energy_3> 
7.095 
 
>  <excitation_energy_4> 
7.289 
 
>  <homo_energy> 
-7.056 
 
>  <homo_lumo_gap> 
9.271 
 
>  <logP> 
2.356 
 
>  <lumo_energy> 
2.215 
 
>  <melting_point> 
-14.26 
 
>  <molecular_refractivity> 
39.54 
 
>  <oscillator_strength_1> 
0.0114 
 
>  <oscillator_strength_2> 
0.0131 
 
>  <oscillator_strength_3> 
0.0063 
 
>  <oscillator_strength_4> 
0.0004 
 
>  <open_babel_can_smiles> 
CCCCCC[C@H]1OC1 
 
>  <mulliken_charges> 
25 
1   -0.441472 
2   -0.247779 
3   -0.245979 
4   -0.258134 
5   -0.261049 
6   -0.285964 
7   -0.110989 
8   0.110726 
9   -0.451159 
10   0.14263 
11   0.141821 
12   0.141451 
13   0.131193 
14   0.130229 
15   0.127543 
16   0.127956 
17   0.13035 
18   0.131831 
19   0.131644 
20   0.134797 
21   0.142404 
22   0.144112 
23   0.146646 
24   0.145683 
25   0.141511 
 
>  <lowdin_charges> 
25 
1   -0.445085 
2   -0.272228 
3   -0.274298 
4   -0.277895 
5   -0.275072 
6   -0.281628 
7   -0.169856 
8   -0.025558 
9   -0.289456 
10   0.149907 
11   0.145904 
12   0.147465 
13   0.140292 
14   0.137776 
15   0.138794 
16   0.13689 
17   0.139983 
18   0.137001 
19   0.14094 
20   0.143757 
21   0.153637 
22   0.150591 
23   0.15012 
24   0.151174 
25   0.146844 
 
$$$$ 
 
