PCCDB-ID:  59146 
public computational chemistry database (PCCDB) project, http://pccdb.org 
 
 35 37  0  0  0  0  0  0  0  0999 V2000 
   -2.5381    0.8269   -0.5020 C   0  0  0  0  0  0  0  0  0  0  0  0 
   -2.5950   -0.5436    0.1767 C   0  0  0  0  0  0  0  0  0  0  0  0 
    2.3857    0.8321    0.1602 C   0  0  0  0  0  0  0  0  0  0  0  0 
   -1.3370    1.6148    0.0289 C   0  0  0  0  0  0  0  0  0  0  0  0 
    1.1719    1.5071    0.1301 C   0  0  0  0  0  0  0  0  0  0  0  0 
    2.3911   -0.5607    0.0853 C   0  0  0  0  0  0  0  0  0  0  0  0 
   -1.3453   -1.3669   -0.1612 C   0  0  0  0  0  0  0  0  0  0  0  0 
    0.2052   -6.7125   -1.5330 C   0  0  0  0  0  0  0  0  0  0  0  0 
    0.3369   -6.3265   -3.0346 C   0  0  0  0  0  0  0  0  0  0  0  0 
    1.2723   -2.7875   -0.1156 C   0  0  0  0  0  0  0  0  0  0  0  0 
   -0.0437    0.8144    0.0336 C   0  0  0  0  0  0  0  0  0  0  0  0 
    1.1965   -1.2780   -0.0160 C   0  0  0  0  0  0  0  0  0  0  0  0 
   -0.0415   -0.5918   -0.0372 C   0  0  0  0  0  0  0  0  0  0  0  0 
    0.6880   -4.5760   -1.6786 C   0  0  0  0  0  0  0  0  0  0  0  0 
    0.4884   -5.4796   -0.7935 N   0  0  0  0  0  0  0  0  0  0  0  0 
    0.9205   -3.2489   -1.4597 N   0  0  0  0  0  0  0  0  0  0  0  0 
    0.6363   -4.9118   -3.0067 O   0  0  0  0  0  0  0  0  0  0  0  0 
   -3.4625    1.3912   -0.3291 H   0  0  0  0  0  0  0  0  0  0  0  0 
   -2.4453    0.6927   -1.5891 H   0  0  0  0  0  0  0  0  0  0  0  0 
   -3.4910   -1.0974   -0.1284 H   0  0  0  0  0  0  0  0  0  0  0  0 
   -2.6664   -0.4029    1.2648 H   0  0  0  0  0  0  0  0  0  0  0  0 
    3.3201    1.3819    0.2361 H   0  0  0  0  0  0  0  0  0  0  0  0 
   -1.5546    1.9429    1.0572 H   0  0  0  0  0  0  0  0  0  0  0  0 
   -1.1918    2.5341   -0.5528 H   0  0  0  0  0  0  0  0  0  0  0  0 
    1.1547    2.5942    0.1805 H   0  0  0  0  0  0  0  0  0  0  0  0 
    3.3346   -1.1019    0.1071 H   0  0  0  0  0  0  0  0  0  0  0  0 
   -1.4286   -1.7520   -1.1869 H   0  0  0  0  0  0  0  0  0  0  0  0 
   -1.3105   -2.2591    0.4760 H   0  0  0  0  0  0  0  0  0  0  0  0 
    0.9139   -7.5010   -1.2498 H   0  0  0  0  0  0  0  0  0  0  0  0 
   -0.7999   -7.0844   -1.2944 H   0  0  0  0  0  0  0  0  0  0  0  0 
   -0.5849   -6.4673   -3.6070 H   0  0  0  0  0  0  0  0  0  0  0  0 
    1.1563   -6.8389   -3.5487 H   0  0  0  0  0  0  0  0  0  0  0  0 
    0.5802   -3.2809    0.5728 H   0  0  0  0  0  0  0  0  0  0  0  0 
    2.2807   -3.1257    0.1642 H   0  0  0  0  0  0  0  0  0  0  0  0 
    1.3520   -2.7585   -2.2325 H   0  0  0  0  0  0  0  0  0  0  0  0 
  1 18  1  0  0  0  0 
  1  4  1  0  0  0  0 
  1  2  1  0  0  0  0 
  2 21  1  0  0  0  0 
  3 22  1  0  0  0  0 
  4 11  1  0  0  0  0 
  4 23  1  0  0  0  0 
  5  3  1  0  0  0  0 
  5 25  1  0  0  0  0 
  6 26  1  0  0  0  0 
  6  3  2  0  0  0  0 
  7 13  1  0  0  0  0 
  7  2  1  0  0  0  0 
  7 28  1  0  0  0  0 
  8 30  1  0  0  0  0 
  8 29  1  0  0  0  0 
  8 15  1  0  0  0  0 
  9 17  1  0  0  0  0 
  9  8  1  0  0  0  0 
 10 12  1  0  0  0  0 
 10 34  1  0  0  0  0 
 10 33  1  0  0  0  0 
 11  5  2  0  0  0  0 
 12  6  1  0  0  0  0 
 13 12  2  0  0  0  0 
 13 11  1  0  0  0  0 
 14 16  1  0  0  0  0 
 14 15  2  0  0  0  0 
 16 10  1  0  0  0  0 
 17 14  1  0  0  0  0 
 19  1  1  0  0  0  0 
 20  2  1  0  0  0  0 
 24  4  1  0  0  0  0 
 27  7  1  0  0  0  0 
 31  9  1  0  0  0  0 
 32  9  1  0  0  0  0 
 35 16  1  0  0  0  0 
M  END 
>  <HBA> 
3 
 
>  <HBD> 
1 
 
>  <TPSA> 
33.62 
 
>  <cid> 
59146 
 
>  <dipole> 
1.26 
 
>  <excitation_energy_1> 
5.019 
 
>  <excitation_energy_2> 
5.102 
 
>  <excitation_energy_3> 
5.288 
 
>  <excitation_energy_4> 
5.486 
 
>  <homo_energy> 
-5.807 
 
>  <homo_lumo_gap> 
5.731 
 
>  <logP> 
1.868 
 
>  <lumo_energy> 
-0.076 
 
>  <melting_point> 
94.76 
 
>  <molecular_refractivity> 
72.04 
 
>  <oscillator_strength_1> 
0.0022 
 
>  <oscillator_strength_2> 
0.0062 
 
>  <oscillator_strength_3> 
0.0136 
 
>  <oscillator_strength_4> 
0.0036 
 
>  <open_babel_can_smiles> 
C1CN=C(O1)NCc1cccc2c1CCCC2 
 
>  <mulliken_charges> 
35 
1   -0.263899 
2   -0.266499 
3   -0.125961 
4   -0.341437 
5   -0.185041 
6   -0.192766 
7   -0.339733 
8   -0.165432 
9   -0.056422 
10   -0.205163 
11   0.115716 
12   0.079466 
13   0.078803 
14   0.728014 
15   -0.501308 
16   -0.633011 
17   -0.507803 
18   0.132036 
19   0.13633 
20   0.134042 
21   0.134931 
22   0.12592 
23   0.150387 
24   0.14342 
25   0.11927 
26   0.122819 
27   0.163477 
28   0.150958 
29   0.146483 
30   0.146069 
31   0.15335 
32   0.15176 
33   0.189394 
34   0.149441 
35   0.332389 
 
>  <lowdin_charges> 
35 
1   -0.274509 
2   -0.274713 
3   -0.161972 
4   -0.275429 
5   -0.160354 
6   -0.172393 
7   -0.278179 
8   -0.208662 
9   -0.139805 
10   -0.185743 
11   -0.014134 
12   -0.026195 
13   -0.013061 
14   0.153017 
15   -0.289762 
16   -0.283973 
17   -0.231909 
18   0.145023 
19   0.139282 
20   0.146567 
21   0.138349 
22   0.156789 
23   0.150121 
24   0.15103 
25   0.151122 
26   0.153806 
27   0.157461 
28   0.156067 
29   0.145982 
30   0.14353 
31   0.149301 
32   0.148978 
33   0.172815 
34   0.143395 
35   0.288157 
 
$$$$ 
 
