PCCDB-ID:  15306 
public computational chemistry database (PCCDB) project, http://pccdb.org 
 
 16 15  0  0  0  0  0  0  0  0999 V2000 
    2.2313   -0.8603   -1.3985 C   0  0  0  0  0  0  0  0  0  0  0  0 
    3.1311   -0.3367   -0.2657 C   0  0  0  0  0  0  0  0  0  0  0  0 
    3.2003    1.1655   -0.2265 C   0  0  0  0  0  0  0  0  0  0  0  0 
    4.3070    1.8995   -0.3780 C   0  0  0  0  0  0  0  0  0  0  0  0 
    4.3428    3.4010   -0.3387 C   0  0  0  0  0  0  0  0  0  0  0  0 
    5.2182    3.8968    0.6763 O   0  0  0  0  0  0  0  0  0  0  0  0 
    2.1759   -1.9545   -1.3814 H   0  0  0  0  0  0  0  0  0  0  0  0 
    2.6153   -0.5527   -2.3774 H   0  0  0  0  0  0  0  0  0  0  0  0 
    1.2099   -0.4722   -1.3044 H   0  0  0  0  0  0  0  0  0  0  0  0 
    4.1418   -0.7501   -0.3718 H   0  0  0  0  0  0  0  0  0  0  0  0 
    2.7400   -0.7066    0.6940 H   0  0  0  0  0  0  0  0  0  0  0  0 
    2.2465    1.6809   -0.0841 H   0  0  0  0  0  0  0  0  0  0  0  0 
    5.2714    1.4088   -0.5196 H   0  0  0  0  0  0  0  0  0  0  0  0 
    3.3223    3.8007   -0.2212 H   0  0  0  0  0  0  0  0  0  0  0  0 
    4.7455    3.8052   -1.2751 H   0  0  0  0  0  0  0  0  0  0  0  0 
    4.9279    3.4998    1.5128 H   0  0  0  0  0  0  0  0  0  0  0  0 
  1  7  1  0  0  0  0 
  1  9  1  0  0  0  0 
  1  2  1  0  0  0  0 
  2  3  1  0  0  0  0 
  2 11  1  0  0  0  0 
  3 12  1  0  0  0  0 
  4  5  1  0  0  0  0 
  4  3  2  0  0  0  0 
  5 14  1  0  0  0  0 
  5  6  1  0  0  0  0 
  6 16  1  0  0  0  0 
  8  1  1  0  0  0  0 
 10  2  1  0  0  0  0 
 13  4  1  0  0  0  0 
 15  5  1  0  0  0  0 
M  END 
>  <HBA> 
1 
 
>  <HBD> 
1 
 
>  <TPSA> 
20.23 
 
>  <cid> 
15306 
 
>  <dipole> 
2.04 
 
>  <excitation_energy_1> 
6.215 
 
>  <excitation_energy_2> 
6.448 
 
>  <excitation_energy_3> 
6.73 
 
>  <excitation_energy_4> 
6.826 
 
>  <homo_energy> 
-6.735 
 
>  <homo_lumo_gap> 
7.089 
 
>  <logP> 
0.945 
 
>  <lumo_energy> 
0.354 
 
>  <melting_point> 
2.51 
 
>  <molecular_refractivity> 
26.84 
 
>  <oscillator_strength_1> 
0.1411 
 
>  <oscillator_strength_2> 
0.0196 
 
>  <oscillator_strength_3> 
0.0703 
 
>  <oscillator_strength_4> 
0.0428 
 
>  <open_babel_can_smiles> 
CC/C=C/CO 
 
>  <mulliken_charges> 
16 
1   -0.440584 
2   -0.296364 
3   -0.086246 
4   -0.133783 
5   -0.06831 
6   -0.612364 
7   0.146219 
8   0.152426 
9   0.144659 
10   0.142863 
11   0.144088 
12   0.119492 
13   0.129167 
14   0.123207 
15   0.151409 
16   0.384121 
 
>  <lowdin_charges> 
16 
1   -0.438709 
2   -0.268159 
3   -0.158538 
4   -0.195836 
5   -0.130229 
6   -0.469333 
7   0.149316 
8   0.151493 
9   0.147262 
10   0.147095 
11   0.149065 
12   0.145774 
13   0.152193 
14   0.127479 
15   0.151519 
16   0.33961 
 
$$$$ 
 
