PCCDB-ID:  7500 
public computational chemistry database (PCCDB) project, http://pccdb.org 
 
 18 18  0  0  0  0  0  0  0  0999 V2000 
    3.7378    0.3679    0.7190 C   0  0  0  0  0  0  0  0  0  0  0  0 
    2.5043   -0.0715   -0.0903 C   0  0  0  0  0  0  0  0  0  0  0  0 
    3.5055   -3.0695   -3.0538 C   0  0  0  0  0  0  0  0  0  0  0  0 
    3.1236   -3.4527   -1.7668 C   0  0  0  0  0  0  0  0  0  0  0  0 
    3.5479   -1.7136   -3.3832 C   0  0  0  0  0  0  0  0  0  0  0  0 
    2.7883   -2.4851   -0.8188 C   0  0  0  0  0  0  0  0  0  0  0  0 
    3.2111   -0.7506   -2.4308 C   0  0  0  0  0  0  0  0  0  0  0  0 
    2.8285   -1.1202   -1.1342 C   0  0  0  0  0  0  0  0  0  0  0  0 
    3.4683    1.1245    1.4653 H   0  0  0  0  0  0  0  0  0  0  0  0 
    4.5055    0.7939    0.0636 H   0  0  0  0  0  0  0  0  0  0  0  0 
    4.1859   -0.4836    1.2436 H   0  0  0  0  0  0  0  0  0  0  0  0 
    2.0616    0.8069   -0.5771 H   0  0  0  0  0  0  0  0  0  0  0  0 
    1.7432   -0.4614    0.5974 H   0  0  0  0  0  0  0  0  0  0  0  0 
    3.7624   -3.8214   -3.7952 H   0  0  0  0  0  0  0  0  0  0  0  0 
    3.0816   -4.5061   -1.5016 H   0  0  0  0  0  0  0  0  0  0  0  0 
    3.8378   -1.4046   -4.3844 H   0  0  0  0  0  0  0  0  0  0  0  0 
    2.4874   -2.7925    0.1809 H   0  0  0  0  0  0  0  0  0  0  0  0 
    3.2420    0.3041   -2.6972 H   0  0  0  0  0  0  0  0  0  0  0  0 
  1 11  1  0  0  0  0 
  1  9  1  0  0  0  0 
  2 13  1  0  0  0  0 
  2  1  1  0  0  0  0 
  3  4  1  0  0  0  0 
  4 15  1  0  0  0  0 
  4  6  2  0  0  0  0 
  5  3  2  0  0  0  0 
  5  7  1  0  0  0  0 
  6 17  1  0  0  0  0 
  7  8  2  0  0  0  0 
  8  6  1  0  0  0  0 
  8  2  1  0  0  0  0 
 10  1  1  0  0  0  0 
 12  2  1  0  0  0  0 
 14  3  1  0  0  0  0 
 16  5  1  0  0  0  0 
 18  7  1  0  0  0  0 
M  END 
>  <HBA> 
0 
 
>  <HBD> 
0 
 
>  <TPSA> 
0.0 
 
>  <cid> 
7500 
 
>  <dipole> 
0.28 
 
>  <excitation_energy_1> 
5.299 
 
>  <excitation_energy_2> 
5.846 
 
>  <excitation_energy_3> 
6.035 
 
>  <excitation_energy_4> 
6.186 
 
>  <homo_energy> 
-6.416 
 
>  <homo_lumo_gap> 
6.558 
 
>  <logP> 
2.249 
 
>  <lumo_energy> 
0.142 
 
>  <melting_point> 
6.49 
 
>  <molecular_refractivity> 
36.22 
 
>  <oscillator_strength_1> 
0.0007 
 
>  <oscillator_strength_2> 
0.0506 
 
>  <oscillator_strength_3> 
0.001 
 
>  <oscillator_strength_4> 
0.0068 
 
>  <open_babel_can_smiles> 
CCc1ccccc1 
 
>  <mulliken_charges> 
18 
1   -0.432745 
2   -0.339733 
3   -0.132356 
4   -0.127051 
5   -0.127 
6   -0.181889 
7   -0.18212 
8   0.176525 
9   0.142709 
10   0.149226 
11   0.149136 
12   0.142161 
13   0.142324 
14   0.126255 
15   0.126713 
16   0.126693 
17   0.120574 
18   0.120579 
 
>  <lowdin_charges> 
18 
1   -0.443031 
2   -0.272804 
3   -0.164163 
4   -0.154055 
5   -0.154602 
6   -0.167323 
7   -0.166813 
8   -0.000205 
9   0.149662 
10   0.151704 
11   0.151421 
12   0.149084 
13   0.149516 
14   0.157302 
15   0.154684 
16   0.155418 
17   0.152478 
18   0.151726 
 
$$$$ 
 
