PCCDB-ID:  23844 
public computational chemistry database (PCCDB) project, http://pccdb.org 
 
 34 34  0  0  1  0  0  0  0  0999 V2000 
    2.5547   -0.2945    1.6524 C   0  0  0  0  0  0  0  0  0  0  0  0 
    1.8666    0.1815   -0.7283 C   0  0  0  0  0  0  0  0  0  0  0  0 
    0.6865    1.3124    1.1838 C   0  0  0  0  0  0  0  0  0  0  0  0 
    7.3327    3.1960    1.1918 C   0  0  0  0  0  0  0  0  0  0  0  0 
    7.5065    0.8226    0.8560 C   0  0  0  0  0  0  0  0  0  0  0  0 
    8.6633    3.3487    0.8030 C   0  0  0  0  0  0  0  0  0  0  0  0 
    8.8335    0.9605    0.4579 C   0  0  0  0  0  0  0  0  0  0  0  0 
    4.3785    1.7581    0.3191 C   0  0  0  0  0  0  0  0  0  0  0  0 
    6.7341    1.9327    1.2228 C   0  0  0  0  0  0  0  0  0  0  0  0 
    9.4169    2.2311    0.4310 C   0  0  0  0  0  0  0  0  0  0  0  0 
    5.2746    1.7684    1.5890 C   0  0  1  0  0  0  0  0  0  0  0  0 
    2.0410    0.7822    0.6838 C   0  0  0  0  0  0  0  0  0  0  0  0 
    2.9647    1.9459    0.6856 N   0  0  0  0  0  0  0  0  0  0  0  0 
   10.7273    2.3180    0.0400 O   0  0  0  0  0  0  0  0  0  0  0  0 
    4.8497    2.8280    2.4263 O   0  0  0  0  0  0  0  0  0  0  0  0 
    1.8257   -1.1086    1.7310 H   0  0  0  0  0  0  0  0  0  0  0  0 
    2.7116    0.1250    2.6517 H   0  0  0  0  0  0  0  0  0  0  0  0 
    3.4991   -0.7322    1.3115 H   0  0  0  0  0  0  0  0  0  0  0  0 
    1.1583   -0.6553   -0.7151 H   0  0  0  0  0  0  0  0  0  0  0  0 
    2.8145   -0.1953   -1.1277 H   0  0  0  0  0  0  0  0  0  0  0  0 
    1.4806    0.9347   -1.4265 H   0  0  0  0  0  0  0  0  0  0  0  0 
   -0.0584    0.5099    1.2178 H   0  0  0  0  0  0  0  0  0  0  0  0 
    0.2999    2.0956    0.5187 H   0  0  0  0  0  0  0  0  0  0  0  0 
    0.7865    1.7393    2.1871 H   0  0  0  0  0  0  0  0  0  0  0  0 
    6.7496    4.0590    1.4952 H   0  0  0  0  0  0  0  0  0  0  0  0 
    7.0668   -0.1725    0.8906 H   0  0  0  0  0  0  0  0  0  0  0  0 
    9.1190    4.3381    0.7936 H   0  0  0  0  0  0  0  0  0  0  0  0 
    9.4317    0.0997    0.1759 H   0  0  0  0  0  0  0  0  0  0  0  0 
    4.5644    0.8471   -0.2663 H   0  0  0  0  0  0  0  0  0  0  0  0 
    4.6842    2.6061   -0.3034 H   0  0  0  0  0  0  0  0  0  0  0  0 
    5.1515    0.8035    2.1093 H   0  0  0  0  0  0  0  0  0  0  0  0 
    2.5585    2.6648    0.0923 H   0  0  0  0  0  0  0  0  0  0  0  0 
   11.0034    3.2465    0.0834 H   0  0  0  0  0  0  0  0  0  0  0  0 
    3.8791    2.8439    2.2856 H   0  0  0  0  0  0  0  0  0  0  0  0 
  1 16  1  0  0  0  0 
  1 17  1  0  0  0  0 
  2 19  1  0  0  0  0 
  2 12  1  0  0  0  0 
  3 22  1  0  0  0  0 
  3 24  1  0  0  0  0 
  4  9  1  0  0  0  0 
  4 25  1  0  0  0  0 
  5 26  1  0  0  0  0 
  5  9  2  0  0  0  0 
  6  4  2  0  0  0  0 
  7  5  1  0  0  0  0 
  8 13  1  0  0  0  0 
  8 11  1  0  0  0  0 
  9 11  1  0  0  0  0 
 10  7  2  0  0  0  0 
 10  6  1  0  0  0  0 
 11 31  1  1  0  0  0 
 11 15  1  0  0  0  0 
 12 13  1  0  0  0  0 
 12  3  1  0  0  0  0 
 12  1  1  0  0  0  0 
 14 33  1  0  0  0  0 
 14 10  1  0  0  0  0 
 18  1  1  0  0  0  0 
 20  2  1  0  0  0  0 
 21  2  1  0  0  0  0 
 23  3  1  0  0  0  0 
 27  6  1  0  0  0  0 
 28  7  1  0  0  0  0 
 29  8  1  0  0  0  0 
 30  8  1  0  0  0  0 
 32 13  1  0  0  0  0 
 34 15  1  0  0  0  0 
M  END 
>  <HBA> 
3 
 
>  <HBD> 
3 
 
>  <TPSA> 
52.49 
 
>  <cid> 
23844 
 
>  <dipole> 
2.87 
 
>  <excitation_energy_1> 
4.914 
 
>  <excitation_energy_2> 
5.071 
 
>  <excitation_energy_3> 
5.259 
 
>  <excitation_energy_4> 
5.457 
 
>  <homo_energy> 
-5.616 
 
>  <homo_lumo_gap> 
5.782 
 
>  <logP> 
2.205 
 
>  <lumo_energy> 
0.166 
 
>  <melting_point> 
101.63 
 
>  <molecular_refractivity> 
61.47 
 
>  <oscillator_strength_1> 
0.0279 
 
>  <oscillator_strength_2> 
0.0001 
 
>  <oscillator_strength_3> 
0.0038 
 
>  <oscillator_strength_4> 
0.0689 
 
>  <open_babel_can_smiles> 
O[C@H](c1ccc(cc1)O)CNC(C)(C)C 
 
>  <mulliken_charges> 
34 
1   -0.446002 
2   -0.444173 
3   -0.44335 
4   -0.178576 
5   -0.188346 
6   -0.197575 
7   -0.162502 
8   -0.159199 
9   0.134013 
10   0.350578 
11   0.096236 
12   0.205533 
13   -0.590701 
14   -0.646195 
15   -0.655855 
16   0.144214 
17   0.158388 
18   0.145655 
19   0.144172 
20   0.147505 
21   0.134344 
22   0.144287 
23   0.133686 
24   0.154062 
25   0.149425 
26   0.119081 
27   0.114912 
28   0.135405 
29   0.134914 
30   0.144221 
31   0.115239 
32   0.302834 
33   0.405512 
34   0.398259 
 
>  <lowdin_charges> 
34 
1   -0.447066 
2   -0.458612 
3   -0.445391 
4   -0.147765 
5   -0.156411 
6   -0.214408 
7   -0.188907 
8   -0.228593 
9   -0.031485 
10   0.101584 
11   -0.007275 
12   0.071226 
13   -0.361053 
14   -0.382664 
15   -0.470949 
16   0.153766 
17   0.156562 
18   0.149796 
19   0.152622 
20   0.150551 
21   0.146759 
22   0.152423 
23   0.145934 
24   0.154795 
25   0.170247 
26   0.152503 
27   0.150759 
28   0.166145 
29   0.138772 
30   0.151826 
31   0.126678 
32   0.260382 
33   0.354632 
34   0.332614 
 
$$$$ 
 
