PCCDB-ID:  19692 
public computational chemistry database (PCCDB) project, http://pccdb.org 
 
 28 29  0  0  0  0  0  0  0  0999 V2000 
    2.0155   -0.1246   -2.1174 C   0  0  0  0  0  0  0  0  0  0  0  0 
    3.8624   -2.1639    0.5491 C   0  0  0  0  0  0  0  0  0  0  0  0 
    2.8688    4.9158    2.4755 C   0  0  0  0  0  0  0  0  0  0  0  0 
    3.9430   -1.2410    1.5898 C   0  0  0  0  0  0  0  0  0  0  0  0 
    3.9117    4.4539    1.6692 C   0  0  0  0  0  0  0  0  0  0  0  0 
    3.2378   -1.7984   -0.6458 C   0  0  0  0  0  0  0  0  0  0  0  0 
    1.6339    4.2705    2.4786 C   0  0  0  0  0  0  0  0  0  0  0  0 
    3.4057    0.0392    1.4390 C   0  0  0  0  0  0  0  0  0  0  0  0 
    3.7036    3.3357    0.8603 C   0  0  0  0  0  0  0  0  0  0  0  0 
    2.6911   -0.5258   -0.8301 C   0  0  0  0  0  0  0  0  0  0  0  0 
    1.4106    3.1387    1.6774 C   0  0  0  0  0  0  0  0  0  0  0  0 
    2.7899    0.3856    0.2365 C   0  0  0  0  0  0  0  0  0  0  0  0 
    2.4730    2.6869    0.8717 C   0  0  0  0  0  0  0  0  0  0  0  0 
    0.2066    2.4382    1.6975 N   0  0  0  0  0  0  0  0  0  0  0  0 
    2.2113    1.6254    0.0093 O   0  0  0  0  0  0  0  0  0  0  0  0 
    2.0726   -0.9319   -2.8539 H   0  0  0  0  0  0  0  0  0  0  0  0 
    2.4772    0.7708   -2.5496 H   0  0  0  0  0  0  0  0  0  0  0  0 
    0.9570    0.1173   -1.9596 H   0  0  0  0  0  0  0  0  0  0  0  0 
    4.2814   -3.1597    0.6621 H   0  0  0  0  0  0  0  0  0  0  0  0 
    3.0143    5.7872    3.1081 H   0  0  0  0  0  0  0  0  0  0  0  0 
    4.4219   -1.5098    2.5275 H   0  0  0  0  0  0  0  0  0  0  0  0 
    4.8725    4.9594    1.6628 H   0  0  0  0  0  0  0  0  0  0  0  0 
    3.1724   -2.5149   -1.4616 H   0  0  0  0  0  0  0  0  0  0  0  0 
    0.8273    4.6353    3.1107 H   0  0  0  0  0  0  0  0  0  0  0  0 
    3.4614    0.7615    2.2457 H   0  0  0  0  0  0  0  0  0  0  0  0 
    4.4864    2.9573    0.2094 H   0  0  0  0  0  0  0  0  0  0  0  0 
   -0.6063    2.9921    1.9355 H   0  0  0  0  0  0  0  0  0  0  0  0 
    0.0569    1.8638    0.8771 H   0  0  0  0  0  0  0  0  0  0  0  0 
  1 18  1  0  0  0  0 
  1 10  1  0  0  0  0 
  2 19  1  0  0  0  0 
  2  4  2  0  0  0  0 
  3  7  1  0  0  0  0 
  3 20  1  0  0  0  0 
  4 21  1  0  0  0  0 
  5  3  2  0  0  0  0 
  6  2  1  0  0  0  0 
  7 24  1  0  0  0  0 
  8  4  1  0  0  0  0 
  8 25  1  0  0  0  0 
  9 13  2  0  0  0  0 
  9  5  1  0  0  0  0 
 10  6  2  0  0  0  0 
 10 12  1  0  0  0  0 
 11 14  1  0  0  0  0 
 11  7  2  0  0  0  0 
 12  8  2  0  0  0  0 
 13 11  1  0  0  0  0 
 14 27  1  0  0  0  0 
 15 12  1  0  0  0  0 
 15 13  1  0  0  0  0 
 16  1  1  0  0  0  0 
 17  1  1  0  0  0  0 
 22  5  1  0  0  0  0 
 23  6  1  0  0  0  0 
 26  9  1  0  0  0  0 
 28 14  1  0  0  0  0 
M  END 
>  <HBA> 
2 
 
>  <HBD> 
1 
 
>  <TPSA> 
35.25 
 
>  <cid> 
19692 
 
>  <dipole> 
1.22 
 
>  <excitation_energy_1> 
4.584 
 
>  <excitation_energy_2> 
4.899 
 
>  <excitation_energy_3> 
4.926 
 
>  <excitation_energy_4> 
5.001 
 
>  <homo_energy> 
-5.448 
 
>  <homo_lumo_gap> 
5.459 
 
>  <logP> 
3.951 
 
>  <lumo_energy> 
0.011 
 
>  <melting_point> 
95.75 
 
>  <molecular_refractivity> 
62.33 
 
>  <oscillator_strength_1> 
0.0519 
 
>  <oscillator_strength_2> 
0.0194 
 
>  <oscillator_strength_3> 
0.0299 
 
>  <oscillator_strength_4> 
0.0011 
 
>  <open_babel_can_smiles> 
Cc1ccccc1Oc1ccccc1N 
 
>  <mulliken_charges> 
28 
1   -0.511936 
2   -0.124281 
3   -0.129294 
4   -0.144682 
5   -0.151723 
6   -0.194492 
7   -0.188916 
8   -0.170532 
9   -0.157835 
10   0.128704 
11   0.284115 
12   0.295168 
13   0.292587 
14   -0.793542 
15   -0.603387 
16   0.148549 
17   0.166374 
18   0.157032 
19   0.123753 
20   0.126757 
21   0.129366 
22   0.126971 
23   0.121297 
24   0.121025 
25   0.1525 
26   0.140495 
27   0.320401 
28   0.335526 
 
>  <lowdin_charges> 
28 
1   -0.436606 
2   -0.173825 
3   -0.151607 
4   -0.151799 
5   -0.182317 
6   -0.162029 
7   -0.198065 
8   -0.197807 
9   -0.166859 
10   -0.026451 
11   0.042233 
12   0.097277 
13   0.057205 
14   -0.48572 
15   -0.181651 
16   0.155218 
17   0.163893 
18   0.156763 
19   0.155512 
20   0.157859 
21   0.157812 
22   0.15775 
23   0.155331 
24   0.155853 
25   0.173248 
26   0.168534 
27   0.277373 
28   0.282875 
 
$$$$ 
 
