PCCDB-ID:  14079 
public computational chemistry database (PCCDB) project, http://pccdb.org 
 
 15 15  0  0  0  0  0  0  0  0999 V2000 
    1.1503   -0.0985    0.6960 C   0  0  0  0  0  0  0  0  0  0  0  0 
    4.7758   -2.6505   -1.0797 C   0  0  0  0  0  0  0  0  0  0  0  0 
    4.4613   -1.2769   -0.9987 C   0  0  0  0  0  0  0  0  0  0  0  0 
    3.7371   -3.3467   -0.4802 C   0  0  0  0  0  0  0  0  0  0  0  0 
    2.4841    0.0588   -0.0283 C   0  0  0  0  0  0  0  0  0  0  0  0 
    3.2362   -1.1544   -0.3514 C   0  0  0  0  0  0  0  0  0  0  0  0 
    2.8148   -2.4402   -0.0453 N   0  0  0  0  0  0  0  0  0  0  0  0 
    2.9116    1.1662   -0.3297 O   0  0  0  0  0  0  0  0  0  0  0  0 
    0.4459   -0.6995    0.1060 H   0  0  0  0  0  0  0  0  0  0  0  0 
    0.7211    0.8917    0.8578 H   0  0  0  0  0  0  0  0  0  0  0  0 
    1.2819   -0.5921    1.6677 H   0  0  0  0  0  0  0  0  0  0  0  0 
    5.6563   -3.0930   -1.5249 H   0  0  0  0  0  0  0  0  0  0  0  0 
    5.0405   -0.4411   -1.3645 H   0  0  0  0  0  0  0  0  0  0  0  0 
    3.5894   -4.4078   -0.3362 H   0  0  0  0  0  0  0  0  0  0  0  0 
    1.9589   -2.6713    0.4355 H   0  0  0  0  0  0  0  0  0  0  0  0 
  1 10  1  0  0  0  0 
  1 11  1  0  0  0  0 
  2  3  1  0  0  0  0 
  2  4  2  0  0  0  0 
  3  6  2  0  0  0  0 
  4 14  1  0  0  0  0 
  4  7  1  0  0  0  0 
  5  1  1  0  0  0  0 
  6  7  1  0  0  0  0 
  6  5  1  0  0  0  0 
  7 15  1  0  0  0  0 
  8  5  2  0  0  0  0 
  9  1  1  0  0  0  0 
 12  2  1  0  0  0  0 
 13  3  1  0  0  0  0 
M  END 
>  <HBA> 
1 
 
>  <HBD> 
1 
 
>  <TPSA> 
32.86 
 
>  <cid> 
14079 
 
>  <dipole> 
4.41 
 
>  <excitation_energy_1> 
3.976 
 
>  <excitation_energy_2> 
4.807 
 
>  <excitation_energy_3> 
5.15 
 
>  <excitation_energy_4> 
5.232 
 
>  <homo_energy> 
-6.052 
 
>  <homo_lumo_gap> 
5.078 
 
>  <logP> 
1.217 
 
>  <lumo_energy> 
-0.974 
 
>  <melting_point> 
85.49 
 
>  <molecular_refractivity> 
30.99 
 
>  <oscillator_strength_1> 
0.0002 
 
>  <oscillator_strength_2> 
0.3625 
 
>  <oscillator_strength_3> 
0.002 
 
>  <oscillator_strength_4> 
0.0266 
 
>  <open_babel_can_smiles> 
CC(=O)c1ccc[nH]1 
 
>  <mulliken_charges> 
15 
1   -0.559918 
2   -0.184078 
3   -0.169731 
4   0.053661 
5   0.417803 
6   0.255123 
7   -0.633752 
8   -0.47006 
9   0.161586 
10   0.188213 
11   0.161687 
12   0.135549 
13   0.154847 
14   0.154148 
15   0.33492 
 
>  <lowdin_charges> 
15 
1   -0.483342 
2   -0.208079 
3   -0.167492 
4   -0.128952 
5   0.148298 
6   -0.044106 
7   -0.166932 
8   -0.257592 
9   0.16428 
10   0.178549 
11   0.162847 
12   0.16568 
13   0.178143 
14   0.165798 
15   0.2929 
 
$$$$ 
 
