PCCDB-ID:  44432 
public computational chemistry database (PCCDB) project, http://pccdb.org 
 
 39 39  0  0  1  0  0  0  0  0999 V2000 
    0.6393   -0.2638    0.8160 C   0  0  0  0  0  0  0  0  0  0  0  0 
    2.9077    3.3959   -4.5886 C   0  0  0  0  0  0  0  0  0  0  0  0 
    4.9674    3.9671   -3.5053 C   0  0  0  0  0  0  0  0  0  0  0  0 
    3.8924   -4.1303   -0.1281 C   0  0  0  0  0  0  0  0  0  0  0  0 
    3.7499   -3.3090   -1.2465 C   0  0  0  0  0  0  0  0  0  0  0  0 
    3.4384   -3.6833    1.1146 C   0  0  0  0  0  0  0  0  0  0  0  0 
    3.1581   -2.0506   -1.1204 C   0  0  0  0  0  0  0  0  0  0  0  0 
    2.8473   -2.4258    1.2351 C   0  0  0  0  0  0  0  0  0  0  0  0 
    3.6721    2.8980   -0.9241 C   0  0  0  0  0  0  0  0  0  0  0  0 
    2.9908    3.4644   -2.1809 C   0  0  0  0  0  0  0  0  0  0  0  0 
    2.9946    0.7448    1.0445 C   0  0  0  0  0  0  0  0  0  0  0  0 
    2.0647   -0.2082    0.2370 C   0  0  1  0  0  0  0  0  0  0  0  0 
    2.6963   -1.5893    0.1190 C   0  0  0  0  0  0  0  0  0  0  0  0 
    2.5329    2.1962    1.0399 C   0  0  0  0  0  0  0  0  0  0  0  0 
    2.8097    3.1197    0.2198 N   0  0  0  0  0  0  0  0  0  0  0  0 
    3.7373    3.1904   -3.4082 N   0  0  0  0  0  0  0  0  0  0  0  0 
    1.6710    2.5352    2.0551 O   0  0  0  0  0  0  0  0  0  0  0  0 
    0.1753    0.7277    0.8242 H   0  0  0  0  0  0  0  0  0  0  0  0 
    0.6381   -0.6489    1.8439 H   0  0  0  0  0  0  0  0  0  0  0  0 
    0.0079   -0.9301    0.2195 H   0  0  0  0  0  0  0  0  0  0  0  0 
    3.4715    3.1205   -5.4870 H   0  0  0  0  0  0  0  0  0  0  0  0 
    2.5664    4.4435   -4.7100 H   0  0  0  0  0  0  0  0  0  0  0  0 
    2.0201    2.7561   -4.5350 H   0  0  0  0  0  0  0  0  0  0  0  0 
    5.4957    3.6995   -4.4270 H   0  0  0  0  0  0  0  0  0  0  0  0 
    5.6324    3.7429   -2.6662 H   0  0  0  0  0  0  0  0  0  0  0  0 
    4.7896    5.0614   -3.5181 H   0  0  0  0  0  0  0  0  0  0  0  0 
    4.3526   -5.1101   -0.2224 H   0  0  0  0  0  0  0  0  0  0  0  0 
    4.0985   -3.6455   -2.2194 H   0  0  0  0  0  0  0  0  0  0  0  0 
    3.5446   -4.3151    1.9927 H   0  0  0  0  0  0  0  0  0  0  0  0 
    3.0525   -1.4158   -1.9977 H   0  0  0  0  0  0  0  0  0  0  0  0 
    2.4972   -2.0976    2.2111 H   0  0  0  0  0  0  0  0  0  0  0  0 
    4.6142    3.4319   -0.7394 H   0  0  0  0  0  0  0  0  0  0  0  0 
    3.9293    1.8467   -1.1230 H   0  0  0  0  0  0  0  0  0  0  0  0 
    2.7984    4.5443   -2.0324 H   0  0  0  0  0  0  0  0  0  0  0  0 
    2.0100    2.9821   -2.2702 H   0  0  0  0  0  0  0  0  0  0  0  0 
    4.0051    0.6820    0.6326 H   0  0  0  0  0  0  0  0  0  0  0  0 
    3.0696    0.3874    2.0812 H   0  0  0  0  0  0  0  0  0  0  0  0 
    1.9928    0.2055   -0.7767 H   0  0  0  0  0  0  0  0  0  0  0  0 
    1.5615    1.7726    2.6418 H   0  0  0  0  0  0  0  0  0  0  0  0 
  1 18  1  0  0  0  0 
  1 19  1  0  0  0  0 
  2 23  1  0  0  0  0 
  2 16  1  0  0  0  0 
  3 16  1  0  0  0  0 
  3 25  1  0  0  0  0 
  4  6  2  0  0  0  0 
  5  7  2  0  0  0  0 
  5  4  1  0  0  0  0 
  6  8  1  0  0  0  0 
  6 29  1  0  0  0  0 
  7 13  1  0  0  0  0 
  8 31  1  0  0  0  0 
  9 32  1  0  0  0  0 
  9 15  1  0  0  0  0 
 10 34  1  0  0  0  0 
 10  9  1  0  0  0  0 
 11 37  1  0  0  0  0 
 12 38  1  6  0  0  0 
 12  1  1  0  0  0  0 
 12 11  1  0  0  0  0 
 13 12  1  0  0  0  0 
 13  8  2  0  0  0  0 
 14 11  1  0  0  0  0 
 14 17  1  0  0  0  0 
 15 14  2  0  0  0  0 
 16 10  1  0  0  0  0 
 17 39  1  0  0  0  0 
 20  1  1  0  0  0  0 
 21  2  1  0  0  0  0 
 22  2  1  0  0  0  0 
 24  3  1  0  0  0  0 
 26  3  1  0  0  0  0 
 27  4  1  0  0  0  0 
 28  5  1  0  0  0  0 
 30  7  1  0  0  0  0 
 33  9  1  0  0  0  0 
 35 10  1  0  0  0  0 
 36 11  1  0  0  0  0 
M  END 
>  <HBA> 
3 
 
>  <HBD> 
1 
 
>  <TPSA> 
32.34 
 
>  <cid> 
44432 
 
>  <dipole> 
2.98 
 
>  <excitation_energy_1> 
4.864 
 
>  <excitation_energy_2> 
4.953 
 
>  <excitation_energy_3> 
5.17 
 
>  <excitation_energy_4> 
5.253 
 
>  <homo_energy> 
-5.619 
 
>  <homo_lumo_gap> 
5.44 
 
>  <logP> 
2.249 
 
>  <lumo_energy> 
-0.18 
 
>  <melting_point> 
53.71 
 
>  <molecular_refractivity> 
70.95 
 
>  <oscillator_strength_1> 
0.0028 
 
>  <oscillator_strength_2> 
0.0016 
 
>  <oscillator_strength_3> 
0.0006 
 
>  <oscillator_strength_4> 
0.0052 
 
>  <open_babel_can_smiles> 
C[C@H](c1ccccc1)C/C(=N\CCN(C)C)/O 
 
>  <mulliken_charges> 
39 
1   -0.472714 
2   -0.291903 
3   -0.300736 
4   -0.130145 
5   -0.125833 
6   -0.129114 
7   -0.197482 
8   -0.183544 
9   -0.158725 
10   -0.108363 
11   -0.368878 
12   -0.165273 
13   0.182176 
14   0.48851 
15   -0.420072 
16   -0.373716 
17   -0.584907 
18   0.169446 
19   0.135378 
20   0.161158 
21   0.144726 
22   0.11884 
23   0.146159 
24   0.146223 
25   0.151912 
26   0.119096 
27   0.130709 
28   0.132251 
29   0.130218 
30   0.133046 
31   0.119997 
32   0.145654 
33   0.127856 
34   0.126216 
35   0.135458 
36   0.176282 
37   0.136078 
38   0.151327 
39   0.402689 
 
>  <lowdin_charges> 
39 
1   -0.452614 
2   -0.354876 
3   -0.356483 
4   -0.157481 
5   -0.152938 
6   -0.154603 
7   -0.169173 
8   -0.168142 
9   -0.205282 
10   -0.20114 
11   -0.308096 
12   -0.115585 
13   -0.002988 
14   0.12491 
15   -0.20343 
16   -0.187259 
17   -0.374229 
18   0.160251 
19   0.141514 
20   0.161378 
21   0.147983 
22   0.119549 
23   0.14844 
24   0.149536 
25   0.150289 
26   0.118827 
27   0.157693 
28   0.158796 
29   0.158344 
30   0.158511 
31   0.151301 
32   0.145557 
33   0.127056 
34   0.124353 
35   0.143636 
36   0.168335 
37   0.146632 
38   0.150983 
39   0.350447 
 
$$$$ 
 
