PCCDB-ID:  26433 
public computational chemistry database (PCCDB) project, http://pccdb.org 
 
 27 28  0  0  0  0  0  0  0  0999 V2000 
    1.2530    0.2085    1.1677 C   0  0  0  0  0  0  0  0  0  0  0  0 
    2.3751   -7.0530   -0.0388 C   0  0  0  0  0  0  0  0  0  0  0  0 
    1.8469   -2.3649   -0.9641 C   0  0  0  0  0  0  0  0  0  0  0  0 
    3.6448   -3.0528    0.4922 C   0  0  0  0  0  0  0  0  0  0  0  0 
    1.4504   -3.6876   -1.1037 C   0  0  0  0  0  0  0  0  0  0  0  0 
    3.2641   -4.3877    0.3432 C   0  0  0  0  0  0  0  0  0  0  0  0 
    3.4164    1.4779    0.4426 C   0  0  0  0  0  0  0  0  0  0  0  0 
    2.6022    0.3864    0.5561 C   0  0  0  0  0  0  0  0  0  0  0  0 
    2.9442   -2.0367   -0.1565 C   0  0  0  0  0  0  0  0  0  0  0  0 
    2.1580   -4.7099   -0.4528 C   0  0  0  0  0  0  0  0  0  0  0  0 
    4.5314   -0.1206   -0.4029 C   0  0  0  0  0  0  0  0  0  0  0  0 
    4.6252    1.1586   -0.1614 N   0  0  0  0  0  0  0  0  0  0  0  0 
    3.3446   -0.6752   -0.0044 N   0  0  0  0  0  0  0  0  0  0  0  0 
    5.4695   -0.8932   -0.9928 O   0  0  0  0  0  0  0  0  0  0  0  0 
    1.6930   -5.9745   -0.6603 O   0  0  0  0  0  0  0  0  0  0  0  0 
    0.9212    1.1648    1.5830 H   0  0  0  0  0  0  0  0  0  0  0  0 
    1.2628   -0.5260    1.9836 H   0  0  0  0  0  0  0  0  0  0  0  0 
    0.4942   -0.1214    0.4469 H   0  0  0  0  0  0  0  0  0  0  0  0 
    1.8421   -7.9566   -0.3396 H   0  0  0  0  0  0  0  0  0  0  0  0 
    2.3540   -6.9667    1.0556 H   0  0  0  0  0  0  0  0  0  0  0  0 
    3.4182   -7.1176   -0.3753 H   0  0  0  0  0  0  0  0  0  0  0  0 
    1.3150   -1.5780   -1.4900 H   0  0  0  0  0  0  0  0  0  0  0  0 
    4.4969   -2.7994    1.1147 H   0  0  0  0  0  0  0  0  0  0  0  0 
    0.6024   -3.9575   -1.7249 H   0  0  0  0  0  0  0  0  0  0  0  0 
    3.8288   -5.1583    0.8547 H   0  0  0  0  0  0  0  0  0  0  0  0 
    3.2085    2.4877    0.7712 H   0  0  0  0  0  0  0  0  0  0  0  0 
    6.1998   -0.2877   -1.2065 H   0  0  0  0  0  0  0  0  0  0  0  0 
  1 16  1  0  0  0  0 
  1 17  1  0  0  0  0 
  2 20  1  0  0  0  0 
  3  9  1  0  0  0  0 
  4 23  1  0  0  0  0 
  5  3  2  0  0  0  0 
  5 10  1  0  0  0  0 
  6  4  1  0  0  0  0 
  6 25  1  0  0  0  0 
  7  8  2  0  0  0  0 
  7 26  1  0  0  0  0 
  8  1  1  0  0  0  0 
  9 13  1  0  0  0  0 
  9  4  2  0  0  0  0 
 10  6  2  0  0  0  0 
 11 12  2  0  0  0  0 
 11 13  1  0  0  0  0 
 12  7  1  0  0  0  0 
 13  8  1  0  0  0  0 
 14 11  1  0  0  0  0 
 15 10  1  0  0  0  0 
 15  2  1  0  0  0  0 
 18  1  1  0  0  0  0 
 19  2  1  0  0  0  0 
 21  2  1  0  0  0  0 
 22  3  1  0  0  0  0 
 24  5  1  0  0  0  0 
 27 14  1  0  0  0  0 
M  END 
>  <HBA> 
3 
 
>  <HBD> 
1 
 
>  <TPSA> 
47.02 
 
>  <cid> 
26433 
 
>  <dipole> 
3.47 
 
>  <excitation_energy_1> 
4.201 
 
>  <excitation_energy_2> 
4.413 
 
>  <excitation_energy_3> 
4.808 
 
>  <excitation_energy_4> 
4.915 
 
>  <homo_energy> 
-5.238 
 
>  <homo_lumo_gap> 
4.95 
 
>  <logP> 
1.483 
 
>  <lumo_energy> 
-0.288 
 
>  <melting_point> 
131.39 
 
>  <molecular_refractivity> 
57.85 
 
>  <oscillator_strength_1> 
0.0021 
 
>  <oscillator_strength_2> 
0.0223 
 
>  <oscillator_strength_3> 
0.0012 
 
>  <oscillator_strength_4> 
0.0233 
 
>  <open_babel_can_smiles> 
COc1ccc(cc1)n1c(O)ncc1C 
 
>  <mulliken_charges> 
27 
1   -0.525721 
2   -0.217647 
3   -0.140178 
4   -0.135268 
5   -0.187351 
6   -0.210917 
7   -0.087463 
8   0.310901 
9   0.261919 
10   0.388497 
11   0.661851 
12   -0.506976 
13   -0.584158 
14   -0.622951 
15   -0.506224 
16   0.165739 
17   0.163759 
18   0.157464 
19   0.173181 
20   0.15388 
21   0.155466 
22   0.147932 
23   0.149678 
24   0.145511 
25   0.138535 
26   0.126775 
27   0.423767 
 
>  <lowdin_charges> 
27 
1   -0.440994 
2   -0.274357 
3   -0.151713 
4   -0.141837 
5   -0.177134 
6   -0.21093 
7   -0.165162 
8   -0.015905 
9   0.025281 
10   0.106051 
11   0.122067 
12   -0.243158 
13   -0.024772 
14   -0.364426 
15   -0.19598 
16   0.168328 
17   0.161152 
18   0.157307 
19   0.165131 
20   0.143866 
21   0.145685 
22   0.169966 
23   0.170901 
24   0.170917 
25   0.167269 
26   0.157447 
27   0.375 
 
$$$$ 
 
