PCCDB-ID:  30694 
public computational chemistry database (PCCDB) project, http://pccdb.org 
 
 20 19  0  0  1  0  0  0  0  0999 V2000 
    1.8534    0.8131    0.0489 C   0  0  0  0  0  0  0  0  0  0  0  0 
   -0.0813    2.4332    0.4526 C   0  0  0  0  0  0  0  0  0  0  0  0 
    1.4111    2.1537    0.6293 C   0  0  1  0  0  0  0  0  0  0  0  0 
    3.3472    0.5178    0.2483 C   0  0  1  0  0  0  0  0  0  0  0  0 
    4.2312    1.5518   -0.4843 C   0  0  0  0  0  0  0  0  0  0  0  0 
   -0.4455    3.5946    1.2050 O   0  0  0  0  0  0  0  0  0  0  0  0 
    1.7029    2.1498    2.0329 O   0  0  0  0  0  0  0  0  0  0  0  0 
    3.7414    0.4177    1.6185 O   0  0  0  0  0  0  0  0  0  0  0  0 
    3.9969    1.9513   -1.6022 O   0  0  0  0  0  0  0  0  0  0  0  0 
    5.2957    1.9429    0.2313 O   0  0  0  0  0  0  0  0  0  0  0  0 
    1.6540    0.8072   -1.0275 H   0  0  0  0  0  0  0  0  0  0  0  0 
    1.2731    0.0066    0.5125 H   0  0  0  0  0  0  0  0  0  0  0  0 
   -0.6665    1.6118    0.8776 H   0  0  0  0  0  0  0  0  0  0  0  0 
   -0.3423    2.5366   -0.6093 H   0  0  0  0  0  0  0  0  0  0  0  0 
    1.9785    2.9630    0.1393 H   0  0  0  0  0  0  0  0  0  0  0  0 
    3.5726   -0.4538   -0.2095 H   0  0  0  0  0  0  0  0  0  0  0  0 
   -0.1407    4.3754    0.7153 H   0  0  0  0  0  0  0  0  0  0  0  0 
    1.1784    2.8748    2.4198 H   0  0  0  0  0  0  0  0  0  0  0  0 
    3.1612    1.0262    2.1222 H   0  0  0  0  0  0  0  0  0  0  0  0 
    5.2050    1.4781    1.0958 H   0  0  0  0  0  0  0  0  0  0  0  0 
  1  4  1  0  0  0  0 
  1 12  1  0  0  0  0 
  1  3  1  0  0  0  0 
  2  3  1  0  0  0  0 
  2 13  1  0  0  0  0 
  2  6  1  0  0  0  0 
  3 15  1  6  0  0  0 
  3  7  1  0  0  0  0 
  4 16  1  6  0  0  0 
  4  8  1  0  0  0  0 
  5 10  1  0  0  0  0 
  5  4  1  0  0  0  0 
  7 18  1  0  0  0  0 
  8 19  1  0  0  0  0 
  9  5  2  0  0  0  0 
 10 20  1  0  0  0  0 
 11  1  1  0  0  0  0 
 14  2  1  0  0  0  0 
 17  6  1  0  0  0  0 
M  END 
>  <HBA> 
5 
 
>  <HBD> 
4 
 
>  <TPSA> 
97.99 
 
>  <cid> 
30694 
 
>  <dipole> 
3.38 
 
>  <excitation_energy_1> 
5.466 
 
>  <excitation_energy_2> 
6.197 
 
>  <excitation_energy_3> 
6.578 
 
>  <excitation_energy_4> 
6.741 
 
>  <homo_energy> 
-6.904 
 
>  <homo_lumo_gap> 
7.252 
 
>  <logP> 
-1.825 
 
>  <lumo_energy> 
0.348 
 
>  <melting_point> 
107.11 
 
>  <molecular_refractivity> 
31.41 
 
>  <oscillator_strength_1> 
0.0011 
 
>  <oscillator_strength_2> 
0.0012 
 
>  <oscillator_strength_3> 
0.0033 
 
>  <oscillator_strength_4> 
0.003 
 
>  <open_babel_can_smiles> 
OC[C@H](C[C@@H](C(=O)O)O)O 
 
>  <mulliken_charges> 
20 
1   -0.306432 
2   -0.066108 
3   0.111274 
4   0.033327 
5   0.582848 
6   -0.620141 
7   -0.665756 
8   -0.672792 
9   -0.471837 
10   -0.576256 
11   0.174969 
12   0.159096 
13   0.163845 
14   0.14539 
15   0.140821 
16   0.178371 
17   0.401973 
18   0.417091 
19   0.441562 
20   0.428757 
 
>  <lowdin_charges> 
20 
1   -0.292911 
2   -0.151601 
3   -0.022882 
4   -0.040517 
5   0.163943 
6   -0.462382 
7   -0.478056 
8   -0.475873 
9   -0.263468 
10   -0.345669 
11   0.173129 
12   0.160424 
13   0.157776 
14   0.143288 
15   0.137686 
16   0.169263 
17   0.351459 
18   0.354615 
19   0.358186 
20   0.363589 
 
$$$$ 
 
