PCCDB-ID:  32283 
public computational chemistry database (PCCDB) project, http://pccdb.org 
 
 20 19  0  0  0  0  0  0  0  0999 V2000 
    3.3903    1.2538   -1.2148 C   0  0  0  0  0  0  0  0  0  0  0  0 
    1.6367    0.5046    0.4511 C   0  0  0  0  0  0  0  0  0  0  0  0 
    3.8187   -0.7661    0.3029 C   0  0  0  0  0  0  0  0  0  0  0  0 
    3.1397    0.6213    0.1623 C   0  0  0  0  0  0  0  0  0  0  0  0 
    5.3252   -0.7512    0.1951 C   0  0  0  0  0  0  0  0  0  0  0  0 
    5.6010   -0.5799    2.4543 N   0  0  0  0  0  0  0  0  0  0  0  0 
    6.1630   -0.6601    1.1517 N   0  0  0  0  0  0  0  0  0  0  0  0 
    5.8718   -0.8237   -1.0620 O   0  0  0  0  0  0  0  0  0  0  0  0 
    2.9187    2.2407   -1.2818 H   0  0  0  0  0  0  0  0  0  0  0  0 
    2.9587    0.6329   -2.0127 H   0  0  0  0  0  0  0  0  0  0  0  0 
    4.4586    1.3775   -1.4191 H   0  0  0  0  0  0  0  0  0  0  0  0 
    1.1470    1.4837    0.3937 H   0  0  0  0  0  0  0  0  0  0  0  0 
    1.4496    0.0918    1.4492 H   0  0  0  0  0  0  0  0  0  0  0  0 
    1.1488   -0.1539   -0.2793 H   0  0  0  0  0  0  0  0  0  0  0  0 
    3.4059   -1.4411   -0.4631 H   0  0  0  0  0  0  0  0  0  0  0  0 
    3.5665   -1.1994    1.2776 H   0  0  0  0  0  0  0  0  0  0  0  0 
    3.5804    1.2874    0.9194 H   0  0  0  0  0  0  0  0  0  0  0  0 
    5.0177    0.2543    2.5443 H   0  0  0  0  0  0  0  0  0  0  0  0 
    6.3928   -0.4375    3.0759 H   0  0  0  0  0  0  0  0  0  0  0  0 
    5.1596   -1.0007   -1.6936 H   0  0  0  0  0  0  0  0  0  0  0  0 
  1  4  1  0  0  0  0 
  2 13  1  0  0  0  0 
  3 16  1  0  0  0  0 
  4  3  1  0  0  0  0 
  4  2  1  0  0  0  0 
  4 17  1  0  0  0  0 
  5  3  1  0  0  0  0 
  5  7  2  0  0  0  0 
  6 18  1  0  0  0  0 
  6 19  1  0  0  0  0 
  7  6  1  0  0  0  0 
  8  5  1  0  0  0  0 
  9  1  1  0  0  0  0 
 10  1  1  0  0  0  0 
 11  1  1  0  0  0  0 
 12  2  1  0  0  0  0 
 14  2  1  0  0  0  0 
 15  3  1  0  0  0  0 
 20  8  1  0  0  0  0 
M  END 
>  <HBA> 
3 
 
>  <HBD> 
2 
 
>  <TPSA> 
55.12 
 
>  <cid> 
32283 
 
>  <dipole> 
3.4 
 
>  <excitation_energy_1> 
4.934 
 
>  <excitation_energy_2> 
5.135 
 
>  <excitation_energy_3> 
5.593 
 
>  <excitation_energy_4> 
5.861 
 
>  <homo_energy> 
-5.54 
 
>  <homo_lumo_gap> 
6.226 
 
>  <logP> 
1.114 
 
>  <lumo_energy> 
0.686 
 
>  <melting_point> 
76.92 
 
>  <molecular_refractivity> 
31.86 
 
>  <oscillator_strength_1> 
0.0165 
 
>  <oscillator_strength_2> 
0.005 
 
>  <oscillator_strength_3> 
0.0691 
 
>  <oscillator_strength_4> 
0.0023 
 
>  <open_babel_can_smiles> 
CC(C/C(=N\N)/O)C 
 
>  <mulliken_charges> 
20 
1   -0.466203 
2   -0.441614 
3   -0.371517 
4   -0.066619 
5   0.504529 
6   -0.590876 
7   -0.338869 
8   -0.591734 
9   0.150093 
10   0.132186 
11   0.167232 
12   0.147221 
13   0.147379 
14   0.142689 
15   0.130356 
16   0.183739 
17   0.129554 
18   0.302403 
19   0.325207 
20   0.404845 
 
>  <lowdin_charges> 
20 
1   -0.454393 
2   -0.445167 
3   -0.313253 
4   -0.11666 
5   0.098783 
6   -0.462515 
7   -0.163784 
8   -0.376019 
9   0.153559 
10   0.14253 
11   0.157866 
12   0.151786 
13   0.150783 
14   0.149004 
15   0.146922 
16   0.171791 
17   0.138485 
18   0.248284 
19   0.268111 
20   0.353886 
 
$$$$ 
 
