PCCDB-ID:  11249 
public computational chemistry database (PCCDB) project, http://pccdb.org 
 
 18 17  0  0  0  0  0  0  0  0999 V2000 
    1.3071   -0.4272    0.5850 C   0  0  0  0  0  0  0  0  0  0  0  0 
    2.8355    1.4959    0.2308 C   0  0  0  0  0  0  0  0  0  0  0  0 
    2.8626    0.0022   -2.5717 C   0  0  0  0  0  0  0  0  0  0  0  0 
    4.5192   -0.9210   -0.8893 C   0  0  0  0  0  0  0  0  0  0  0  0 
    2.3333    0.1061   -0.0867 C   0  0  0  0  0  0  0  0  0  0  0  0 
    3.0295   -0.6728   -1.1960 C   0  0  0  0  0  0  0  0  0  0  0  0 
    0.7960    0.1149    1.3774 H   0  0  0  0  0  0  0  0  0  0  0  0 
    0.9383   -1.4271    0.3677 H   0  0  0  0  0  0  0  0  0  0  0  0 
    2.2447    1.9560    1.0286 H   0  0  0  0  0  0  0  0  0  0  0  0 
    2.7872    2.1554   -0.6453 H   0  0  0  0  0  0  0  0  0  0  0  0 
    3.8840    1.4827    0.5552 H   0  0  0  0  0  0  0  0  0  0  0  0 
    3.2925   -0.6255   -3.3613 H   0  0  0  0  0  0  0  0  0  0  0  0 
    3.3722    0.9722   -2.6106 H   0  0  0  0  0  0  0  0  0  0  0  0 
    1.8050    0.1664   -2.8061 H   0  0  0  0  0  0  0  0  0  0  0  0 
    4.9652   -1.5671   -1.6546 H   0  0  0  0  0  0  0  0  0  0  0  0 
    4.6479   -1.4087    0.0835 H   0  0  0  0  0  0  0  0  0  0  0  0 
    5.0908    0.0147   -0.8770 H   0  0  0  0  0  0  0  0  0  0  0  0 
    2.5387   -1.6539   -1.2513 H   0  0  0  0  0  0  0  0  0  0  0  0 
  1  7  1  0  0  0  0 
  2 11  1  0  0  0  0 
  2  9  1  0  0  0  0 
  3  6  1  0  0  0  0 
  4 17  1  0  0  0  0 
  4 16  1  0  0  0  0 
  5  2  1  0  0  0  0 
  5  1  2  0  0  0  0 
  6  4  1  0  0  0  0 
  6  5  1  0  0  0  0 
  8  1  1  0  0  0  0 
 10  2  1  0  0  0  0 
 12  3  1  0  0  0  0 
 13  3  1  0  0  0  0 
 14  3  1  0  0  0  0 
 15  4  1  0  0  0  0 
 18  6  1  0  0  0  0 
M  END 
>  <HBA> 
0 
 
>  <HBD> 
0 
 
>  <TPSA> 
0.0 
 
>  <cid> 
11249 
 
>  <dipole> 
0.47 
 
>  <excitation_energy_1> 
6.084 
 
>  <excitation_energy_2> 
6.614 
 
>  <excitation_energy_3> 
6.627 
 
>  <excitation_energy_4> 
6.657 
 
>  <homo_energy> 
-6.501 
 
>  <homo_lumo_gap> 
7.342 
 
>  <logP> 
2.219 
 
>  <lumo_energy> 
0.841 
 
>  <melting_point> 
-43.74 
 
>  <molecular_refractivity> 
30.48 
 
>  <oscillator_strength_1> 
0.0184 
 
>  <oscillator_strength_2> 
0.177 
 
>  <oscillator_strength_3> 
0.0433 
 
>  <oscillator_strength_4> 
0.0047 
 
>  <open_babel_can_smiles> 
CC(=C)C(C)C 
 
>  <mulliken_charges> 
18 
1   -0.409048 
2   -0.521736 
3   -0.445811 
4   -0.446875 
5   0.247369 
6   -0.137394 
7   0.128549 
8   0.129688 
9   0.152203 
10   0.155096 
11   0.155926 
12   0.141904 
13   0.141751 
14   0.14879 
15   0.142071 
16   0.14855 
17   0.142085 
18   0.126882 
 
>  <lowdin_charges> 
18 
1   -0.368123 
2   -0.444483 
3   -0.444386 
4   -0.446383 
5   0.010021 
6   -0.117813 
7   0.152668 
8   0.1511 
9   0.158129 
10   0.156136 
11   0.155091 
12   0.150497 
13   0.145761 
14   0.150885 
15   0.150787 
16   0.151702 
17   0.146356 
18   0.142055 
 
$$$$ 
 
