PCCDB-ID:  19763 
public computational chemistry database (PCCDB) project, http://pccdb.org 
 
 19 19  0  0  0  0  0  0  0  0999 V2000 
    0.9025    0.1766    0.1413 C   0  0  0  0  0  0  0  0  0  0  0  0 
    3.2041    0.4024    1.1783 C   0  0  0  0  0  0  0  0  0  0  0  0 
    3.3842   -1.3977   -1.9480 C   0  0  0  0  0  0  0  0  0  0  0  0 
    3.5081    0.0714   -2.3819 C   0  0  0  0  0  0  0  0  0  0  0  0 
    2.7622   -1.3935   -0.5429 C   0  0  0  0  0  0  0  0  0  0  0  0 
    2.8658    0.9166   -1.2710 C   0  0  0  0  0  0  0  0  0  0  0  0 
    2.4196    0.0340   -0.0988 C   0  0  0  0  0  0  0  0  0  0  0  0 
    2.5659   -2.3870    0.1225 O   0  0  0  0  0  0  0  0  0  0  0  0 
    2.7334    2.1203   -1.3155 O   0  0  0  0  0  0  0  0  0  0  0  0 
    0.5946   -0.4922    0.9508 H   0  0  0  0  0  0  0  0  0  0  0  0 
    0.3221   -0.0799   -0.7523 H   0  0  0  0  0  0  0  0  0  0  0  0 
    0.6701    1.2111    0.4119 H   0  0  0  0  0  0  0  0  0  0  0  0 
    2.9124   -0.2675    1.9930 H   0  0  0  0  0  0  0  0  0  0  0  0 
    2.9840    1.4371    1.4582 H   0  0  0  0  0  0  0  0  0  0  0  0 
    4.2868    0.3110    1.0338 H   0  0  0  0  0  0  0  0  0  0  0  0 
    4.3420   -1.9278   -1.9089 H   0  0  0  0  0  0  0  0  0  0  0  0 
    2.7353   -1.9858   -2.6077 H   0  0  0  0  0  0  0  0  0  0  0  0 
    3.0075    0.2953   -3.3300 H   0  0  0  0  0  0  0  0  0  0  0  0 
    4.5488    0.3959   -2.5007 H   0  0  0  0  0  0  0  0  0  0  0  0 
  1 12  1  0  0  0  0 
  1 10  1  0  0  0  0 
  2 14  1  0  0  0  0 
  2 13  1  0  0  0  0 
  3 16  1  0  0  0  0 
  3  5  1  0  0  0  0 
  4  3  1  0  0  0  0 
  4  6  1  0  0  0  0 
  5  7  1  0  0  0  0 
  5  8  2  0  0  0  0 
  6  7  1  0  0  0  0 
  7  1  1  0  0  0  0 
  7  2  1  0  0  0  0 
  9  6  2  0  0  0  0 
 11  1  1  0  0  0  0 
 15  2  1  0  0  0  0 
 17  3  1  0  0  0  0 
 18  4  1  0  0  0  0 
 19  4  1  0  0  0  0 
M  END 
>  <HBA> 
2 
 
>  <HBD> 
0 
 
>  <TPSA> 
34.14 
 
>  <cid> 
19763 
 
>  <dipole> 
1.39 
 
>  <excitation_energy_1> 
3.811 
 
>  <excitation_energy_2> 
4.249 
 
>  <excitation_energy_3> 
5.079 
 
>  <excitation_energy_4> 
5.474 
 
>  <homo_energy> 
-6.474 
 
>  <homo_lumo_gap> 
5.309 
 
>  <logP> 
0.945 
 
>  <lumo_energy> 
-1.165 
 
>  <melting_point> 
56.82 
 
>  <molecular_refractivity> 
33.79 
 
>  <oscillator_strength_1> 
0.0 
 
>  <oscillator_strength_2> 
0.0004 
 
>  <oscillator_strength_3> 
0.0012 
 
>  <oscillator_strength_4> 
0.0 
 
>  <open_babel_can_smiles> 
O=C1CCC(=O)C1(C)C 
 
>  <mulliken_charges> 
19 
1   -0.444187 
2   -0.444601 
3   -0.375684 
4   -0.375813 
5   0.444869 
6   0.444747 
7   -0.073261 
8   -0.452349 
9   -0.452231 
10   0.171973 
11   0.147826 
12   0.172615 
13   0.173031 
14   0.17228 
15   0.147686 
16   0.185362 
17   0.186226 
18   0.185483 
19   0.186028 
 
>  <lowdin_charges> 
19 
1   -0.426135 
2   -0.423538 
3   -0.321328 
4   -0.317702 
5   0.159022 
6   0.155174 
7   -0.05633 
8   -0.224111 
9   -0.222457 
10   0.16637 
11   0.153265 
12   0.164923 
13   0.16675 
14   0.164623 
15   0.150824 
16   0.177265 
17   0.179259 
18   0.177314 
19   0.176812 
 
$$$$ 
 
