PCCDB-ID:  25869 
public computational chemistry database (PCCDB) project, http://pccdb.org 
 
 23 22  0  0  1  0  0  0  0  0999 V2000 
    0.9900   -2.2214    0.6471 C   0  0  0  0  0  0  0  0  0  0  0  0 
    4.5558    1.9985    0.3966 C   0  0  0  0  0  0  0  0  0  0  0  0 
    2.5129   -2.0623    0.6828 C   0  0  0  0  0  0  0  0  0  0  0  0 
    2.9605   -0.6298    1.0010 C   0  0  0  0  0  0  0  0  0  0  0  0 
    4.9907    0.9382    1.4143 C   0  0  2  0  0  0  0  0  0  0  0  0 
    4.4900   -0.4950    1.1060 C   0  0  1  0  0  0  0  0  0  0  0  0 
    4.6272    1.2456    2.8136 N   0  0  0  0  0  0  0  0  0  0  0  0 
    5.0136   -1.3661    2.1006 O   0  0  0  0  0  0  0  0  0  0  0  0 
    0.7018   -3.2532    0.4150 H   0  0  0  0  0  0  0  0  0  0  0  0 
    0.5360   -1.5711   -0.1116 H   0  0  0  0  0  0  0  0  0  0  0  0 
    0.5416   -1.9615    1.6143 H   0  0  0  0  0  0  0  0  0  0  0  0 
    4.8188    1.7024   -0.6266 H   0  0  0  0  0  0  0  0  0  0  0  0 
    5.0470    2.9569    0.6031 H   0  0  0  0  0  0  0  0  0  0  0  0 
    3.4725    2.1662    0.4271 H   0  0  0  0  0  0  0  0  0  0  0  0 
    2.9366   -2.3637   -0.2862 H   0  0  0  0  0  0  0  0  0  0  0  0 
    2.9465   -2.7359    1.4301 H   0  0  0  0  0  0  0  0  0  0  0  0 
    2.5042   -0.3158    1.9521 H   0  0  0  0  0  0  0  0  0  0  0  0 
    2.5789    0.0507    0.2263 H   0  0  0  0  0  0  0  0  0  0  0  0 
    6.0857    0.8686    1.4024 H   0  0  0  0  0  0  0  0  0  0  0  0 
    4.9333   -0.8126    0.1518 H   0  0  0  0  0  0  0  0  0  0  0  0 
    3.6646    1.5776    2.8627 H   0  0  0  0  0  0  0  0  0  0  0  0 
    5.2095    1.9978    3.1754 H   0  0  0  0  0  0  0  0  0  0  0  0 
    4.9332   -0.8444    2.9250 H   0  0  0  0  0  0  0  0  0  0  0  0 
  1  3  1  0  0  0  0 
  1 11  1  0  0  0  0 
  2 14  1  0  0  0  0 
  2 13  1  0  0  0  0 
  2  5  1  0  0  0  0 
  3  4  1  0  0  0  0 
  3 16  1  0  0  0  0 
  4  6  1  0  0  0  0 
  4 17  1  0  0  0  0 
  5 19  1  6  0  0  0 
  5  7  1  0  0  0  0 
  6 20  1  6  0  0  0 
  6  5  1  0  0  0  0 
  6  8  1  0  0  0  0 
  7 21  1  0  0  0  0 
  7 22  1  0  0  0  0 
  8 23  1  0  0  0  0 
  9  1  1  0  0  0  0 
 10  1  1  0  0  0  0 
 12  2  1  0  0  0  0 
 15  3  1  0  0  0  0 
 18  4  1  0  0  0  0 
M  END 
>  <HBA> 
2 
 
>  <HBD> 
2 
 
>  <TPSA> 
46.25 
 
>  <cid> 
25869 
 
>  <dipole> 
3.1 
 
>  <excitation_energy_1> 
5.976 
 
>  <excitation_energy_2> 
6.32 
 
>  <excitation_energy_3> 
6.653 
 
>  <excitation_energy_4> 
6.847 
 
>  <homo_energy> 
-6.596 
 
>  <homo_lumo_gap> 
8.359 
 
>  <logP> 
1.195 
 
>  <lumo_energy> 
1.763 
 
>  <melting_point> 
46.3 
 
>  <molecular_refractivity> 
34.83 
 
>  <oscillator_strength_1> 
0.032 
 
>  <oscillator_strength_2> 
0.0155 
 
>  <oscillator_strength_3> 
0.006 
 
>  <oscillator_strength_4> 
0.0079 
 
>  <open_babel_can_smiles> 
CCC[C@@H]([C@H](N)C)O 
 
>  <mulliken_charges> 
23 
1   -0.442926 
2   -0.456306 
3   -0.246704 
4   -0.270303 
5   -0.00474 
6   0.160606 
7   -0.74546 
8   -0.646809 
9   0.141747 
10   0.135386 
11   0.138387 
12   0.148857 
13   0.14024 
14   0.144615 
15   0.125416 
16   0.1588 
17   0.118453 
18   0.121751 
19   0.142937 
20   0.119803 
21   0.303628 
22   0.30839 
23   0.404234 
 
>  <lowdin_charges> 
23 
1   -0.445033 
2   -0.458097 
3   -0.273135 
4   -0.297399 
5   -0.082325 
6   -0.009771 
7   -0.551885 
8   -0.473328 
9   0.148171 
10   0.143736 
11   0.144384 
12   0.153366 
13   0.149131 
14   0.146219 
15   0.137197 
16   0.154848 
17   0.135371 
18   0.139163 
19   0.144845 
20   0.136233 
21   0.254866 
22   0.263069 
23   0.340373 
 
$$$$ 
 
