PCCDB-ID:  70109 
public computational chemistry database (PCCDB) project, http://pccdb.org 
 
 20 20  0  0  0  0  0  0  0  0999 V2000 
    0.9832    0.0950   -0.0020 C   0  0  0  0  0  0  0  0  0  0  0  0 
    3.0897    0.0940   -1.3989 C   0  0  0  0  0  0  0  0  0  0  0  0 
    3.0386   -1.1374    0.7976 C   0  0  0  0  0  0  0  0  0  0  0  0 
    3.0381    1.3301    0.7949 C   0  0  0  0  0  0  0  0  0  0  0  0 
    3.1961    0.0985    2.7686 C   0  0  0  0  0  0  0  0  0  0  0  0 
    2.5204    0.0954    0.0261 C   0  0  0  0  0  0  0  0  0  0  0  0 
    2.6908   -1.0743    2.1797 O   0  0  0  0  0  0  0  0  0  0  0  0 
    2.6903    1.2699    2.1771 O   0  0  0  0  0  0  0  0  0  0  0  0 
    0.6039   -0.7918   -0.5243 H   0  0  0  0  0  0  0  0  0  0  0  0 
    0.6035    0.9806   -0.5261 H   0  0  0  0  0  0  0  0  0  0  0  0 
    0.5758    0.0960    1.0120 H   0  0  0  0  0  0  0  0  0  0  0  0 
    2.7550   -0.7909   -1.9538 H   0  0  0  0  0  0  0  0  0  0  0  0 
    4.1869    0.0942   -1.3976 H   0  0  0  0  0  0  0  0  0  0  0  0 
    2.7547    0.9775   -1.9558 H   0  0  0  0  0  0  0  0  0  0  0  0 
    4.1363   -1.2075    0.6965 H   0  0  0  0  0  0  0  0  0  0  0  0 
    2.6004   -2.0632    0.4114 H   0  0  0  0  0  0  0  0  0  0  0  0 
    2.5995    2.2549    0.4066 H   0  0  0  0  0  0  0  0  0  0  0  0 
    4.1358    1.4004    0.6937 H   0  0  0  0  0  0  0  0  0  0  0  0 
    4.3022    0.0987    2.7057 H   0  0  0  0  0  0  0  0  0  0  0  0 
    2.8728    0.0996    3.8108 H   0  0  0  0  0  0  0  0  0  0  0  0 
  1  6  1  0  0  0  0 
  1 11  1  0  0  0  0 
  2 13  1  0  0  0  0 
  2  6  1  0  0  0  0 
  3  7  1  0  0  0  0 
  4  8  1  0  0  0  0 
  5 20  1  0  0  0  0 
  6  4  1  0  0  0  0 
  6  3  1  0  0  0  0 
  7  5  1  0  0  0  0 
  8  5  1  0  0  0  0 
  9  1  1  0  0  0  0 
 10  1  1  0  0  0  0 
 12  2  1  0  0  0  0 
 14  2  1  0  0  0  0 
 15  3  1  0  0  0  0 
 16  3  1  0  0  0  0 
 17  4  1  0  0  0  0 
 18  4  1  0  0  0  0 
 19  5  1  0  0  0  0 
M  END 
>  <HBA> 
2 
 
>  <HBD> 
0 
 
>  <TPSA> 
18.46 
 
>  <cid> 
70109 
 
>  <dipole> 
1.87 
 
>  <excitation_energy_1> 
6.561 
 
>  <excitation_energy_2> 
6.891 
 
>  <excitation_energy_3> 
7.033 
 
>  <excitation_energy_4> 
7.101 
 
>  <homo_energy> 
-6.955 
 
>  <homo_lumo_gap> 
9.07 
 
>  <logP> 
1.017 
 
>  <lumo_energy> 
2.114 
 
>  <melting_point> 
-3.2 
 
>  <molecular_refractivity> 
30.75 
 
>  <oscillator_strength_1> 
0.0134 
 
>  <oscillator_strength_2> 
0.036 
 
>  <oscillator_strength_3> 
0.0197 
 
>  <oscillator_strength_4> 
0.0 
 
>  <open_babel_can_smiles> 
CC1(C)COCOC1 
 
>  <mulliken_charges> 
20 
1   -0.445035 
2   -0.459046 
3   -0.040342 
4   -0.040365 
5   0.178015 
6   0.054615 
7   -0.463224 
8   -0.463217 
9   0.136815 
10   0.136814 
11   0.173044 
12   0.148045 
13   0.14217 
14   0.148044 
15   0.118112 
16   0.146889 
17   0.146892 
18   0.118116 
19   0.107867 
20   0.15579 
 
>  <lowdin_charges> 
20 
1   -0.445216 
2   -0.442434 
3   -0.135005 
4   -0.135019 
5   -0.0202 
6   -0.021552 
7   -0.2643 
8   -0.264295 
9   0.147643 
10   0.147651 
11   0.163534 
12   0.153654 
13   0.146094 
14   0.153662 
15   0.124868 
16   0.151591 
17   0.151603 
18   0.124869 
19   0.108831 
20   0.15402 
 
$$$$ 
 
