PCCDB-ID:  62009 
public computational chemistry database (PCCDB) project, http://pccdb.org 
 
 27 26  0  0  0  0  0  0  0  0999 V2000 
    4.8151    1.0068   -2.8285 C   0  0  0  0  0  0  0  0  0  0  0  0 
    5.0293   -0.2090   -1.9201 C   0  0  0  0  0  0  0  0  0  0  0  0 
    5.2332    0.1801   -0.4504 C   0  0  0  0  0  0  0  0  0  0  0  0 
    5.4565   -1.0200    0.4612 C   0  0  0  0  0  0  0  0  0  0  0  0 
    5.8536   -1.5656    2.7350 C   0  0  0  0  0  0  0  0  0  0  0  0 
    5.9889   -0.8715    4.0815 C   0  0  0  0  0  0  0  0  0  0  0  0 
    7.6761   -0.4167    6.6088 O   0  0  0  0  0  0  0  0  0  0  0  0 
    5.1952   -0.6293    6.9265 O   0  0  0  0  0  0  0  0  0  0  0  0 
    6.7664   -2.6990    7.4655 O   0  0  0  0  0  0  0  0  0  0  0  0 
    5.6309   -0.5450    1.7873 O   0  0  0  0  0  0  0  0  0  0  0  0 
    6.2318   -1.8966    5.0715 O   0  0  0  0  0  0  0  0  0  0  0  0 
    6.4939   -1.5343    6.6042 P   0  0  0  0  0  0  0  0  0  0  0  0 
    4.6699    0.7048   -3.8717 H   0  0  0  0  0  0  0  0  0  0  0  0 
    5.6778    1.6827   -2.7925 H   0  0  0  0  0  0  0  0  0  0  0  0 
    3.9320    1.5787   -2.5194 H   0  0  0  0  0  0  0  0  0  0  0  0 
    5.8993   -0.7806   -2.2730 H   0  0  0  0  0  0  0  0  0  0  0  0 
    4.1666   -0.8844   -2.0051 H   0  0  0  0  0  0  0  0  0  0  0  0 
    4.3595    0.7362   -0.0859 H   0  0  0  0  0  0  0  0  0  0  0  0 
    6.0955    0.8530   -0.3567 H   0  0  0  0  0  0  0  0  0  0  0  0 
    6.3453   -1.5904    0.1410 H   0  0  0  0  0  0  0  0  0  0  0  0 
    4.5954   -1.7087    0.4143 H   0  0  0  0  0  0  0  0  0  0  0  0 
    5.0167   -2.2817    2.7651 H   0  0  0  0  0  0  0  0  0  0  0  0 
    6.7701   -2.1356    2.5107 H   0  0  0  0  0  0  0  0  0  0  0  0 
    5.0697   -0.3332    4.3282 H   0  0  0  0  0  0  0  0  0  0  0  0 
    6.8263   -0.1676    4.0666 H   0  0  0  0  0  0  0  0  0  0  0  0 
    8.5106   -0.8347    6.8795 H   0  0  0  0  0  0  0  0  0  0  0  0 
    5.1663   -0.3716    7.8623 H   0  0  0  0  0  0  0  0  0  0  0  0 
  1 14  1  0  0  0  0 
  1 15  1  0  0  0  0 
  1  2  1  0  0  0  0 
  2  3  1  0  0  0  0 
  3 19  1  0  0  0  0 
  3 18  1  0  0  0  0 
  3  4  1  0  0  0  0 
  4 10  1  0  0  0  0 
  5 22  1  0  0  0  0 
  5  6  1  0  0  0  0 
  6 24  1  0  0  0  0 
  6 11  1  0  0  0  0 
  7 26  1  0  0  0  0 
  8 27  1  0  0  0  0 
 10  5  1  0  0  0  0 
 11 12  1  0  0  0  0 
 12  7  1  0  0  0  0 
 12  8  1  0  0  0  0 
 12  9  2  0  0  0  0 
 13  1  1  0  0  0  0 
 16  2  1  0  0  0  0 
 17  2  1  0  0  0  0 
 20  4  1  0  0  0  0 
 21  4  1  0  0  0  0 
 23  5  1  0  0  0  0 
 25  6  1  0  0  0  0 
M  END 
>  <HBA> 
5 
 
>  <HBD> 
2 
 
>  <TPSA> 
85.8 
 
>  <cid> 
62009 
 
>  <dipole> 
2.64 
 
>  <excitation_energy_1> 
6.256 
 
>  <excitation_energy_2> 
6.801 
 
>  <excitation_energy_3> 
6.81 
 
>  <excitation_energy_4> 
6.975 
 
>  <homo_energy> 
-7.113 
 
>  <homo_lumo_gap> 
7.886 
 
>  <logP> 
0.912 
 
>  <lumo_energy> 
0.773 
 
>  <melting_point> 
44.22 
 
>  <molecular_refractivity> 
44.11 
 
>  <oscillator_strength_1> 
0.0002 
 
>  <oscillator_strength_2> 
0.0058 
 
>  <oscillator_strength_3> 
0.0353 
 
>  <oscillator_strength_4> 
0.0175 
 
>  <open_babel_can_smiles> 
CCCCOCCOP(=O)(O)O 
 
>  <mulliken_charges> 
27 
1   -0.440118 
2   -0.25818 
3   -0.26596 
4   -0.004374 
5   -0.02191 
6   -0.058748 
7   -0.661186 
8   -0.649608 
9   -0.531933 
10   -0.487804 
11   -0.511779 
12   1.153663 
13   0.144395 
14   0.144527 
15   0.14483 
16   0.133765 
17   0.134333 
18   0.144726 
19   0.144031 
20   0.119638 
21   0.120726 
22   0.138828 
23   0.135135 
24   0.178924 
25   0.171904 
26   0.440059 
27   0.442116 
 
>  <lowdin_charges> 
27 
1   -0.442368 
2   -0.273756 
3   -0.281807 
4   -0.126934 
5   -0.134462 
6   -0.125009 
7   -0.578047 
8   -0.560595 
9   -0.576032 
10   -0.272665 
11   -0.38468 
12   1.110846 
13   0.149511 
14   0.148511 
15   0.148782 
16   0.140871 
17   0.140915 
18   0.148902 
19   0.148312 
20   0.126975 
21   0.127117 
22   0.137336 
23   0.134905 
24   0.162539 
25   0.159549 
26   0.386173 
27   0.385111 
 
$$$$ 
 
