PCCDB-ID:  66518 
public computational chemistry database (PCCDB) project, http://pccdb.org 
 
 26 27  0  0  0  0  0  0  0  0999 V2000 
    0.9188   -0.0749   -0.4457 C   0  0  0  0  0  0  0  0  0  0  0  0 
    5.6256    1.5865    0.3163 C   0  0  0  0  0  0  0  0  0  0  0  0 
    1.7971    4.9708   -0.1612 C   0  0  0  0  0  0  0  0  0  0  0  0 
    2.5552    4.4701   -1.2216 C   0  0  0  0  0  0  0  0  0  0  0  0 
    1.5020    4.1502    0.9293 C   0  0  0  0  0  0  0  0  0  0  0  0 
    3.0116    3.1520   -1.1970 C   0  0  0  0  0  0  0  0  0  0  0  0 
    1.9679    2.8356    0.9646 C   0  0  0  0  0  0  0  0  0  0  0  0 
    3.2241   -1.2452   -0.1228 C   0  0  0  0  0  0  0  0  0  0  0  0 
    4.5543   -0.7762    0.0738 C   0  0  0  0  0  0  0  0  0  0  0  0 
    2.3936   -0.1504   -0.2062 C   0  0  0  0  0  0  0  0  0  0  0  0 
    4.5218    0.5999    0.1011 C   0  0  0  0  0  0  0  0  0  0  0  0 
    2.7217    2.3314   -0.1011 C   0  0  0  0  0  0  0  0  0  0  0  0 
    3.1925    0.9843   -0.0707 N   0  0  0  0  0  0  0  0  0  0  0  0 
    0.5282   -1.0848   -0.6008 H   0  0  0  0  0  0  0  0  0  0  0  0 
    0.6711    0.5200   -1.3346 H   0  0  0  0  0  0  0  0  0  0  0  0 
    0.3693    0.3664    0.3961 H   0  0  0  0  0  0  0  0  0  0  0  0 
    6.5574    1.0462    0.5074 H   0  0  0  0  0  0  0  0  0  0  0  0 
    5.4364    2.2415    1.1769 H   0  0  0  0  0  0  0  0  0  0  0  0 
    5.7934    2.2388   -0.5506 H   0  0  0  0  0  0  0  0  0  0  0  0 
    1.4377    5.9958   -0.1848 H   0  0  0  0  0  0  0  0  0  0  0  0 
    2.7852    5.1032   -2.0743 H   0  0  0  0  0  0  0  0  0  0  0  0 
    0.9154    4.5354    1.7589 H   0  0  0  0  0  0  0  0  0  0  0  0 
    3.5857    2.7465   -2.0248 H   0  0  0  0  0  0  0  0  0  0  0  0 
    1.7602    2.1945    1.8161 H   0  0  0  0  0  0  0  0  0  0  0  0 
    2.9029   -2.2759   -0.2008 H   0  0  0  0  0  0  0  0  0  0  0  0 
    5.4456   -1.3788    0.1918 H   0  0  0  0  0  0  0  0  0  0  0  0 
  1 10  1  0  0  0  0 
  1 16  1  0  0  0  0 
  2 17  1  0  0  0  0 
  2 18  1  0  0  0  0 
  3  5  2  0  0  0  0 
  4  6  2  0  0  0  0 
  4  3  1  0  0  0  0 
  5  7  1  0  0  0  0 
  5 22  1  0  0  0  0 
  6 12  1  0  0  0  0 
  7 24  1  0  0  0  0 
  8  9  1  0  0  0  0 
  9 11  2  0  0  0  0 
  9 26  1  0  0  0  0 
 10  8  2  0  0  0  0 
 10 13  1  0  0  0  0 
 11  2  1  0  0  0  0 
 12 13  1  0  0  0  0 
 12  7  2  0  0  0  0 
 13 11  1  0  0  0  0 
 14  1  1  0  0  0  0 
 15  1  1  0  0  0  0 
 19  2  1  0  0  0  0 
 20  3  1  0  0  0  0 
 21  4  1  0  0  0  0 
 23  6  1  0  0  0  0 
 25  8  1  0  0  0  0 
M  END 
>  <HBA> 
1 
 
>  <HBD> 
0 
 
>  <TPSA> 
4.93 
 
>  <cid> 
66518 
 
>  <dipole> 
2.14 
 
>  <excitation_energy_1> 
3.818 
 
>  <excitation_energy_2> 
3.945 
 
>  <excitation_energy_3> 
4.62 
 
>  <excitation_energy_4> 
4.771 
 
>  <homo_energy> 
-5.026 
 
>  <homo_lumo_gap> 
4.678 
 
>  <logP> 
3.094 
 
>  <lumo_energy> 
-0.348 
 
>  <melting_point> 
47.4 
 
>  <molecular_refractivity> 
55.7 
 
>  <oscillator_strength_1> 
0.0031 
 
>  <oscillator_strength_2> 
0.0001 
 
>  <oscillator_strength_3> 
0.0002 
 
>  <oscillator_strength_4> 
0.0707 
 
>  <open_babel_can_smiles> 
Cc1ccc(n1c1ccccc1)C 
 
>  <mulliken_charges> 
26 
1   -0.522286 
2   -0.522396 
3   -0.11939 
4   -0.143487 
5   -0.143403 
6   -0.135678 
7   -0.135789 
8   -0.224422 
9   -0.224471 
10   0.314489 
11   0.314569 
12   0.242773 
13   -0.578518 
14   0.161525 
15   0.159356 
16   0.154189 
17   0.161513 
18   0.159342 
19   0.154261 
20   0.134487 
21   0.137153 
22   0.13712 
23   0.146921 
24   0.146957 
25   0.112596 
26   0.112587 
 
>  <lowdin_charges> 
26 
1   -0.443373 
2   -0.443476 
3   -0.152916 
4   -0.152964 
5   -0.152607 
6   -0.161471 
7   -0.161821 
8   -0.226845 
9   -0.228858 
10   0.001943 
11   0.001346 
12   0.046138 
13   -0.014208 
14   0.164671 
15   0.158839 
16   0.155618 
17   0.165371 
18   0.158921 
19   0.1553 
20   0.159519 
21   0.16215 
22   0.162248 
23   0.168879 
24   0.168716 
25   0.153677 
26   0.155203 
 
$$$$ 
 
