PCCDB-ID:  8314 
public computational chemistry database (PCCDB) project, http://pccdb.org 
 
 17 16  0  0  1  0  0  0  0  0999 V2000 
    2.9064    1.1269    0.7040 C   0  0  0  0  0  0  0  0  0  0  0  0 
    2.5143   -2.5376   -0.6644 C   0  0  0  0  0  0  0  0  0  0  0  0 
    2.4973   -0.0254   -0.2187 C   0  0  0  0  0  0  0  0  0  0  0  0 
    3.1082   -1.3806    0.1687 C   0  0  2  0  0  0  0  0  0  0  0  0 
    4.6287   -1.3770   -0.0186 C   0  0  0  0  0  0  0  0  0  0  0  0 
    5.2228   -0.6710   -0.7949 O   0  0  0  0  0  0  0  0  0  0  0  0 
    5.3170   -2.2906    0.7246 O   0  0  0  0  0  0  0  0  0  0  0  0 
    2.4144    2.0583    0.4035 H   0  0  0  0  0  0  0  0  0  0  0  0 
    3.9874    1.2948    0.6671 H   0  0  0  0  0  0  0  0  0  0  0  0 
    2.6252    0.9249    1.7455 H   0  0  0  0  0  0  0  0  0  0  0  0 
    1.4288   -2.5844   -0.5281 H   0  0  0  0  0  0  0  0  0  0  0  0 
    2.9346   -3.5086   -0.3782 H   0  0  0  0  0  0  0  0  0  0  0  0 
    2.7197   -2.3846   -1.7293 H   0  0  0  0  0  0  0  0  0  0  0  0 
    2.7960    0.2026   -1.2482 H   0  0  0  0  0  0  0  0  0  0  0  0 
    1.4047   -0.1319   -0.2160 H   0  0  0  0  0  0  0  0  0  0  0  0 
    2.8924   -1.5722    1.2319 H   0  0  0  0  0  0  0  0  0  0  0  0 
    4.7060   -2.7659    1.3113 H   0  0  0  0  0  0  0  0  0  0  0  0 
  1 10  1  0  0  0  0 
  2 11  1  0  0  0  0 
  2 12  1  0  0  0  0 
  2  4  1  0  0  0  0 
  3 15  1  0  0  0  0 
  3  4  1  0  0  0  0 
  3  1  1  0  0  0  0 
  4 16  1  1  0  0  0 
  5  4  1  0  0  0  0 
  5  7  1  0  0  0  0 
  6  5  2  0  0  0  0 
  7 17  1  0  0  0  0 
  8  1  1  0  0  0  0 
  9  1  1  0  0  0  0 
 13  2  1  0  0  0  0 
 14  3  1  0  0  0  0 
M  END 
>  <HBA> 
2 
 
>  <HBD> 
1 
 
>  <TPSA> 
37.3 
 
>  <cid> 
8314 
 
>  <dipole> 
4.07 
 
>  <excitation_energy_1> 
5.623 
 
>  <excitation_energy_2> 
6.407 
 
>  <excitation_energy_3> 
7.296 
 
>  <excitation_energy_4> 
7.446 
 
>  <homo_energy> 
-7.285 
 
>  <homo_lumo_gap> 
7.54 
 
>  <logP> 
1.117 
 
>  <lumo_energy> 
0.256 
 
>  <melting_point> 
51.26 
 
>  <molecular_refractivity> 
27.92 
 
>  <oscillator_strength_1> 
0.0019 
 
>  <oscillator_strength_2> 
0.0085 
 
>  <oscillator_strength_3> 
0.0019 
 
>  <oscillator_strength_4> 
0.0095 
 
>  <open_babel_can_smiles> 
C[C@@H](C(=O)O)CC 
 
>  <mulliken_charges> 
17 
1   -0.45859 
2   -0.451732 
3   -0.242838 
4   -0.197074 
5   0.608692 
6   -0.445413 
7   -0.570453 
8   0.148894 
9   0.170882 
10   0.135273 
11   0.159602 
12   0.143503 
13   0.172704 
14   0.162769 
15   0.129955 
16   0.126057 
17   0.407769 
 
>  <lowdin_charges> 
17 
1   -0.446191 
2   -0.435763 
3   -0.266465 
4   -0.163813 
5   0.196578 
6   -0.24168 
7   -0.360068 
8   0.154628 
9   0.158866 
10   0.141667 
11   0.156092 
12   0.148993 
13   0.161863 
14   0.157453 
15   0.140927 
16   0.138796 
17   0.358118 
 
$$$$ 
 
