PCCDB-ID:  7967 
public computational chemistry database (PCCDB) project, http://pccdb.org 
 
 17 17  0  0  0  0  0  0  0  0999 V2000 
    0.7280    1.2636   -0.2486 C   0  0  0  0  0  0  0  0  0  0  0  0 
    1.4690    0.0084    0.2339 C   0  0  0  0  0  0  0  0  0  0  0  0 
   -0.7259    1.2732    0.2452 C   0  0  0  0  0  0  0  0  0  0  0  0 
    0.7453   -1.2821   -0.2059 C   0  0  0  0  0  0  0  0  0  0  0  0 
   -1.4837    0.0026   -0.1954 C   0  0  0  0  0  0  0  0  0  0  0  0 
   -0.7289   -1.2666    0.1835 C   0  0  0  0  0  0  0  0  0  0  0  0 
   -1.2634   -2.1986    0.7538 O   0  0  0  0  0  0  0  0  0  0  0  0 
    0.7418    1.2970   -1.3482 H   0  0  0  0  0  0  0  0  0  0  0  0 
    1.2489    2.1645    0.0985 H   0  0  0  0  0  0  0  0  0  0  0  0 
    1.5355    0.0262    1.3307 H   0  0  0  0  0  0  0  0  0  0  0  0 
    2.4995   -0.0011   -0.1410 H   0  0  0  0  0  0  0  0  0  0  0  0 
   -1.2534    2.1625   -0.1203 H   0  0  0  0  0  0  0  0  0  0  0  0 
   -0.7348    1.3332    1.3425 H   0  0  0  0  0  0  0  0  0  0  0  0 
    1.2081   -2.1791    0.2158 H   0  0  0  0  0  0  0  0  0  0  0  0 
    0.7975   -1.3630   -1.3029 H   0  0  0  0  0  0  0  0  0  0  0  0 
   -1.5876    0.0121   -1.2917 H   0  0  0  0  0  0  0  0  0  0  0  0 
   -2.4890   -0.0478    0.2331 H   0  0  0  0  0  0  0  0  0  0  0  0 
  1  9  1  0  0  0  0 
  1  2  1  0  0  0  0 
  1  3  1  0  0  0  0 
  2 10  1  0  0  0  0 
  3 13  1  0  0  0  0 
  4  6  1  0  0  0  0 
  4 14  1  0  0  0  0 
  4  2  1  0  0  0  0 
  5  6  1  0  0  0  0 
  5 17  1  0  0  0  0 
  5  3  1  0  0  0  0 
  6  7  2  0  0  0  0 
  8  1  1  0  0  0  0 
 11  2  1  0  0  0  0 
 12  3  1  0  0  0  0 
 15  4  1  0  0  0  0 
 16  5  1  0  0  0  0 
M  END 
>  <HBA> 
1 
 
>  <HBD> 
0 
 
>  <TPSA> 
17.07 
 
>  <cid> 
7967 
 
>  <dipole> 
3.07 
 
>  <excitation_energy_1> 
4.205 
 
>  <excitation_energy_2> 
6.082 
 
>  <excitation_energy_3> 
6.466 
 
>  <excitation_energy_4> 
6.539 
 
>  <homo_energy> 
-6.378 
 
>  <homo_lumo_gap> 
6.055 
 
>  <logP> 
1.52 
 
>  <lumo_energy> 
-0.324 
 
>  <melting_point> 
17.41 
 
>  <molecular_refractivity> 
29.04 
 
>  <oscillator_strength_1> 
0.0 
 
>  <oscillator_strength_2> 
0.0067 
 
>  <oscillator_strength_3> 
0.0092 
 
>  <oscillator_strength_4> 
0.0128 
 
>  <open_babel_can_smiles> 
O=C1CCCCC1 
 
>  <mulliken_charges> 
17 
1   -0.262062 
2   -0.269997 
3   -0.269675 
4   -0.342035 
5   -0.342434 
6   0.451511 
7   -0.445521 
8   0.13261 
9   0.140833 
10   0.144939 
11   0.143024 
12   0.142984 
13   0.144866 
14   0.162935 
15   0.152466 
16   0.152561 
17   0.162994 
 
>  <lowdin_charges> 
17 
1   -0.277897 
2   -0.271678 
3   -0.273447 
4   -0.307431 
5   -0.305734 
6   0.159064 
7   -0.235239 
8   0.137206 
9   0.149937 
10   0.142995 
11   0.148661 
12   0.150323 
13   0.142972 
14   0.164036 
15   0.156717 
16   0.156745 
17   0.162771 
 
$$$$ 
 
