PCCDB-ID:  21276 
public computational chemistry database (PCCDB) project, http://pccdb.org 
 
 16 16  0  0  0  0  0  0  0  0999 V2000 
    1.0613   -0.0573    0.0725 C   0  0  0  0  0  0  0  0  0  0  0  0 
    3.3453   -1.0898    0.0752 C   0  0  0  0  0  0  0  0  0  0  0  0 
    4.6322   -0.5849    0.0750 C   0  0  0  0  0  0  0  0  0  0  0  0 
    3.3807    1.0895    0.0697 C   0  0  0  0  0  0  0  0  0  0  0  0 
    4.6508    0.7636    0.0709 N   0  0  0  0  0  0  0  0  0  0  0  0 
    2.5295    0.0013    0.0713 N   0  0  0  0  0  0  0  0  0  0  0  0 
    5.8366   -1.3892    0.0779 N   0  0  0  0  0  0  0  0  0  0  0  0 
    2.9137    2.4610    0.0646 N   0  0  0  0  0  0  0  0  0  0  0  0 
    5.6571   -2.6116    0.0863 O   0  0  0  0  0  0  0  0  0  0  0  0 
    6.9171   -0.8170    0.0717 O   0  0  0  0  0  0  0  0  0  0  0  0 
    1.6868    2.6250    0.0721 O   0  0  0  0  0  0  0  0  0  0  0  0 
    3.7565    3.3434    0.0538 O   0  0  0  0  0  0  0  0  0  0  0  0 
    0.7774   -1.1105    0.0749 H   0  0  0  0  0  0  0  0  0  0  0  0 
    0.6660    0.4377   -0.8143 H   0  0  0  0  0  0  0  0  0  0  0  0 
    0.6674    0.4417    0.9576 H   0  0  0  0  0  0  0  0  0  0  0  0 
    2.9746   -2.1024    0.0775 H   0  0  0  0  0  0  0  0  0  0  0  0 
  1 13  1  0  0  0  0 
  1 15  1  0  0  0  0 
  2 16  1  0  0  0  0 
  3  2  2  0  0  0  0 
  3  7  1  0  0  0  0 
  4  5  2  0  0  0  0 
  4  6  1  0  0  0  0 
  5  3  1  0  0  0  0 
  6  1  1  0  0  0  0 
  6  2  1  0  0  0  0 
  7  9  2  0  0  0  0 
  8  4  1  0  0  0  0 
  8 11  2  0  0  0  0 
 10  7  2  0  0  0  0 
 12  8  2  0  0  0  0 
 14  1  1  0  0  0  0 
M  END 
>  <HBA> 
2 
 
>  <HBD> 
0 
 
>  <TPSA> 
109.46 
 
>  <cid> 
21276 
 
>  <dipole> 
6.7 
 
>  <excitation_energy_1> 
3.749 
 
>  <excitation_energy_2> 
3.796 
 
>  <excitation_energy_3> 
4.232 
 
>  <excitation_energy_4> 
4.317 
 
>  <homo_energy> 
-8.041 
 
>  <homo_lumo_gap> 
4.928 
 
>  <logP> 
1.283 
 
>  <lumo_energy> 
-3.113 
 
>  <melting_point> 
100.58 
 
>  <molecular_refractivity> 
41.13 
 
>  <oscillator_strength_1> 
0.0 
 
>  <oscillator_strength_2> 
0.0 
 
>  <oscillator_strength_3> 
0.0 
 
>  <oscillator_strength_4> 
0.0004 
 
>  <open_babel_can_smiles> 
O=N(=O)c1cn(c(n1)N(=O)=O)C 
 
>  <mulliken_charges> 
16 
1   -0.31407 
2   0.07098 
3   0.404874 
4   0.702814 
5   -0.43211 
6   -0.448117 
7   0.353326 
8   0.368533 
9   -0.403573 
10   -0.364737 
11   -0.409752 
12   -0.35043 
13   0.180496 
14   0.212717 
15   0.213053 
16   0.215996 
 
>  <lowdin_charges> 
16 
1   -0.339711 
2   -0.105104 
3   0.007806 
4   0.054941 
5   -0.096442 
6   0.030009 
7   0.304966 
8   0.303495 
9   -0.254741 
10   -0.205951 
11   -0.253401 
12   -0.191553 
13   0.170215 
14   0.186778 
15   0.186948 
16   0.201743 
 
$$$$ 
 
