PCCDB-ID:  20240 
public computational chemistry database (PCCDB) project, http://pccdb.org 
 
 28 28  0  0  0  0  0  0  0  0999 V2000 
    4.8154   -2.0364    0.9707 C   0  0  0  0  0  0  0  0  0  0  0  0 
    2.6599   -0.8803    0.2888 C   0  0  0  0  0  0  0  0  0  0  0  0 
    2.6251    0.9440   -4.3251 C   0  0  0  0  0  0  0  0  0  0  0  0 
    3.2662   -0.9721   -5.6548 C   0  0  0  0  0  0  0  0  0  0  0  0 
    1.9023    1.4477   -5.4017 C   0  0  0  0  0  0  0  0  0  0  0  0 
    2.5494   -0.4772   -6.7341 C   0  0  0  0  0  0  0  0  0  0  0  0 
    4.7897   -0.5730   -1.0584 C   0  0  0  0  0  0  0  0  0  0  0  0 
    3.9596   -1.5325   -0.2003 C   0  0  0  0  0  0  0  0  0  0  0  0 
    3.3140   -0.2712   -4.4387 C   0  0  0  0  0  0  0  0  0  0  0  0 
    1.8628    0.7385   -6.6092 C   0  0  0  0  0  0  0  0  0  0  0  0 
    4.1000   -0.8558   -3.3234 C   0  0  0  0  0  0  0  0  0  0  0  0 
    1.1726    1.1810   -7.6976 O   0  0  0  0  0  0  0  0  0  0  0  0 
    4.7170   -1.9028   -3.3935 O   0  0  0  0  0  0  0  0  0  0  0  0 
    4.0573   -0.0873   -2.2051 O   0  0  0  0  0  0  0  0  0  0  0  0 
    4.2540   -2.7526    1.5808 H   0  0  0  0  0  0  0  0  0  0  0  0 
    5.1172   -1.2089    1.6264 H   0  0  0  0  0  0  0  0  0  0  0  0 
    5.7252   -2.5370    0.6191 H   0  0  0  0  0  0  0  0  0  0  0  0 
    2.0601   -1.5926    0.8671 H   0  0  0  0  0  0  0  0  0  0  0  0 
    2.0518   -0.5270   -0.5498 H   0  0  0  0  0  0  0  0  0  0  0  0 
    2.8716   -0.0196    0.9374 H   0  0  0  0  0  0  0  0  0  0  0  0 
    2.6566    1.4922   -3.3904 H   0  0  0  0  0  0  0  0  0  0  0  0 
    3.8034   -1.9115   -5.7318 H   0  0  0  0  0  0  0  0  0  0  0  0 
    1.3685    2.3917   -5.3081 H   0  0  0  0  0  0  0  0  0  0  0  0 
    2.5050   -1.0104   -7.6782 H   0  0  0  0  0  0  0  0  0  0  0  0 
    5.7048   -1.0588   -1.4063 H   0  0  0  0  0  0  0  0  0  0  0  0 
    5.0477    0.3300   -0.4953 H   0  0  0  0  0  0  0  0  0  0  0  0 
    3.7067   -2.3913   -0.8357 H   0  0  0  0  0  0  0  0  0  0  0  0 
    0.7465    2.0258   -7.4831 H   0  0  0  0  0  0  0  0  0  0  0  0 
  1 15  1  0  0  0  0 
  1 16  1  0  0  0  0 
  2 18  1  0  0  0  0 
  2 20  1  0  0  0  0 
  3 21  1  0  0  0  0 
  4  9  2  0  0  0  0 
  5 23  1  0  0  0  0 
  5  3  2  0  0  0  0 
  6 10  2  0  0  0  0 
  6  4  1  0  0  0  0 
  7 26  1  0  0  0  0 
  7  8  1  0  0  0  0 
  8  2  1  0  0  0  0 
  8  1  1  0  0  0  0 
  9  3  1  0  0  0  0 
  9 11  1  0  0  0  0 
 10  5  1  0  0  0  0 
 11 14  1  0  0  0  0 
 12 28  1  0  0  0  0 
 12 10  1  0  0  0  0 
 13 11  2  0  0  0  0 
 14  7  1  0  0  0  0 
 17  1  1  0  0  0  0 
 19  2  1  0  0  0  0 
 22  4  1  0  0  0  0 
 24  6  1  0  0  0  0 
 25  7  1  0  0  0  0 
 27  8  1  0  0  0  0 
M  END 
>  <HBA> 
3 
 
>  <HBD> 
1 
 
>  <TPSA> 
46.53 
 
>  <cid> 
20240 
 
>  <dipole> 
3.14 
 
>  <excitation_energy_1> 
4.934 
 
>  <excitation_energy_2> 
4.977 
 
>  <excitation_energy_3> 
5.022 
 
>  <excitation_energy_4> 
5.417 
 
>  <homo_energy> 
-6.31 
 
>  <homo_lumo_gap> 
5.388 
 
>  <logP> 
2.205 
 
>  <lumo_energy> 
-0.922 
 
>  <melting_point> 
68.24 
 
>  <molecular_refractivity> 
54.17 
 
>  <oscillator_strength_1> 
0.0082 
 
>  <oscillator_strength_2> 
0.0095 
 
>  <oscillator_strength_3> 
0.3611 
 
>  <oscillator_strength_4> 
0.0002 
 
>  <open_babel_can_smiles> 
CC(COC(=O)c1ccc(cc1)O)C 
 
>  <mulliken_charges> 
28 
1   -0.451982 
2   -0.443453 
3   -0.165738 
4   -0.160048 
5   -0.201425 
6   -0.166946 
7   -0.035388 
8   -0.097049 
9   0.045077 
10   0.363417 
11   0.593974 
12   -0.633505 
13   -0.499245 
14   -0.490161 
15   0.149177 
16   0.139195 
17   0.150475 
18   0.143236 
19   0.155097 
20   0.135225 
21   0.158944 
22   0.16542 
23   0.12487 
24   0.147727 
25   0.166698 
26   0.14134 
27   0.153682 
28   0.411386 
 
>  <lowdin_charges> 
28 
1   -0.446244 
2   -0.4498 
3   -0.127042 
4   -0.117068 
5   -0.215074 
6   -0.186067 
7   -0.134517 
8   -0.134282 
9   -0.066954 
10   0.115559 
11   0.195933 
12   -0.365452 
13   -0.279235 
14   -0.196353 
15   0.155398 
16   0.146391 
17   0.152975 
18   0.151571 
19   0.155467 
20   0.144447 
21   0.173807 
22   0.178498 
23   0.155708 
24   0.171225 
25   0.15944 
26   0.148381 
27   0.152942 
28   0.360344 
 
$$$$ 
 
