PCCDB-ID:  33275 
public computational chemistry database (PCCDB) project, http://pccdb.org 
 
 27 27  0  0  1  0  0  0  0  0999 V2000 
    0.8957   -0.5999   -0.2909 C   0  0  0  0  0  0  0  0  0  0  0  0 
    0.0573   -0.2084    0.6902 C   0  0  0  0  0  0  0  0  0  0  0  0 
    3.7912   -2.9059   -5.1889 C   0  0  0  0  0  0  0  0  0  0  0  0 
    4.5616   -2.1254   -4.4116 C   0  0  0  0  0  0  0  0  0  0  0  0 
    2.2863   -0.2249   -0.3565 C   0  0  0  0  0  0  0  0  0  0  0  0 
   -1.3891   -0.5962    0.7726 C   0  0  0  0  0  0  0  0  0  0  0  0 
    4.2664   -3.5662   -6.4502 C   0  0  0  0  0  0  0  0  0  0  0  0 
    2.9657   -1.3966   -2.5226 C   0  0  0  0  0  0  0  0  0  0  0  0 
    4.1522   -1.4676   -3.1851 C   0  0  2  0  0  0  0  0  0  0  0  0 
    3.1464   -0.5954   -1.3381 C   0  0  0  0  0  0  0  0  0  0  0  0 
    5.1316   -0.6765   -2.3955 C   0  0  0  0  0  0  0  0  0  0  0  0 
   -1.7101   -1.2132    2.0189 O   0  0  0  0  0  0  0  0  0  0  0  0 
    4.0455   -4.9759   -6.4299 O   0  0  0  0  0  0  0  0  0  0  0  0 
    6.2989   -0.4583   -2.5985 O   0  0  0  0  0  0  0  0  0  0  0  0 
    4.4627   -0.1728   -1.2852 O   0  0  0  0  0  0  0  0  0  0  0  0 
    0.5033   -1.2339   -1.0863 H   0  0  0  0  0  0  0  0  0  0  0  0 
    0.4262    0.4202    1.5008 H   0  0  0  0  0  0  0  0  0  0  0  0 
    2.7566   -3.1159   -4.9161 H   0  0  0  0  0  0  0  0  0  0  0  0 
    5.5986   -1.9452   -4.6923 H   0  0  0  0  0  0  0  0  0  0  0  0 
    2.6832    0.4030    0.4374 H   0  0  0  0  0  0  0  0  0  0  0  0 
   -1.6616   -1.2379   -0.0811 H   0  0  0  0  0  0  0  0  0  0  0  0 
   -2.0287    0.2937    0.7285 H   0  0  0  0  0  0  0  0  0  0  0  0 
    5.3238   -3.3205   -6.6350 H   0  0  0  0  0  0  0  0  0  0  0  0 
    3.6911   -3.2040   -7.3108 H   0  0  0  0  0  0  0  0  0  0  0  0 
    2.0254   -1.8492   -2.8097 H   0  0  0  0  0  0  0  0  0  0  0  0 
   -1.1313   -1.9867    2.1116 H   0  0  0  0  0  0  0  0  0  0  0  0 
    4.5482   -5.3322   -5.6801 H   0  0  0  0  0  0  0  0  0  0  0  0 
  1  2  2  0  0  0  0 
  2  6  1  0  0  0  0 
  2 17  1  0  0  0  0 
  3 18  1  0  0  0  0 
  3  4  2  0  0  0  0 
  5  1  1  0  0  0  0 
  5 20  1  0  0  0  0 
  6 12  1  0  0  0  0 
  7 13  1  0  0  0  0 
  7  3  1  0  0  0  0 
  8 10  2  0  0  0  0 
  9  4  1  6  0  0  0 
  9  8  1  0  0  0  0 
  9 11  1  0  0  0  0 
 10 15  1  0  0  0  0 
 10  5  1  0  0  0  0 
 11 15  1  0  0  0  0 
 12 26  1  0  0  0  0 
 13 27  1  0  0  0  0 
 14 11  2  0  0  0  0 
 16  1  1  0  0  0  0 
 19  4  1  0  0  0  0 
 21  6  1  0  0  0  0 
 22  6  1  0  0  0  0 
 23  7  1  0  0  0  0 
 24  7  1  0  0  0  0 
 25  8  1  0  0  0  0 
M  RAD  2   5   2   9   2 
M  END 
>  <HBA> 
4 
 
>  <HBD> 
2 
 
>  <TPSA> 
66.76 
 
>  <cid> 
33275 
 
>  <dipole> 
2.67 
 
>  <excitation_energy_1> 
3.338 
 
>  <excitation_energy_2> 
3.966 
 
>  <excitation_energy_3> 
4.03 
 
>  <excitation_energy_4> 
4.515 
 
>  <homo_energy> 
-6.022 
 
>  <homo_lumo_gap> 
3.306 
 
>  <logP> 
0.451 
 
>  <lumo_energy> 
-2.716 
 
>  <melting_point> 
88.37 
 
>  <molecular_refractivity> 
54.59 
 
>  <oscillator_strength_1> 
0.8963 
 
>  <oscillator_strength_2> 
0.0067 
 
>  <oscillator_strength_3> 
0.0313 
 
>  <oscillator_strength_4> 
0.0069 
 
>  <open_babel_can_smiles> 
OC/C=C/[CH]C1=C[C](C(=O)O1)/C=C/CO 
 
>  <mulliken_charges> 
27 
1   -0.097415 
2   -0.139766 
3   -0.124222 
4   -0.160319 
5   -0.226915 
6   -0.075 
7   -0.07609 
8   -0.220754 
9   0.069678 
10   0.382663 
11   0.5734 
12   -0.605552 
13   -0.606784 
14   -0.457413 
15   -0.511566 
16   0.129908 
17   0.147462 
18   0.139281 
19   0.161559 
20   0.16257 
21   0.129287 
22   0.163407 
23   0.139582 
24   0.162185 
25   0.162729 
26   0.388282 
27   0.389803 
 
>  <lowdin_charges> 
27 
1   -0.157272 
2   -0.169318 
3   -0.154564 
4   -0.160653 
5   -0.161249 
6   -0.131943 
7   -0.129433 
8   -0.155111 
9   -0.039096 
10   0.097002 
11   0.18949 
12   -0.462383 
13   -0.464189 
14   -0.222321 
15   -0.150139 
16   0.154207 
17   0.162598 
18   0.155148 
19   0.172377 
20   0.179728 
21   0.132505 
22   0.158821 
23   0.135704 
24   0.159 
25   0.175005 
26   0.342342 
27   0.343746 
 
$$$$ 
 
