PCCDB-ID:  40899 
public computational chemistry database (PCCDB) project, http://pccdb.org 
 
 18 17  0  0  0  0  0  0  0  0999 V2000 
    0.7935    0.8310   -0.1782 C   0  0  0  0  0  0  0  0  0  0  0  0 
    3.3234   -1.4911    4.5858 C   0  0  0  0  0  0  0  0  0  0  0  0 
    5.0550    0.3242    1.2191 C   0  0  0  0  0  0  0  0  0  0  0  0 
    1.6652   -0.3723    0.0994 C   0  0  0  0  0  0  0  0  0  0  0  0 
    2.6314   -1.3123    3.4544 C   0  0  0  0  0  0  0  0  0  0  0  0 
    2.4347   -0.5275    1.1473 C   0  0  0  0  0  0  0  0  0  0  0  0 
    3.1668   -0.6865    2.2400 C   0  0  0  0  0  0  0  0  0  0  0  0 
    4.4795   -0.2958    2.3577 O   0  0  0  0  0  0  0  0  0  0  0  0 
   -0.2595    0.5334   -0.2673 H   0  0  0  0  0  0  0  0  0  0  0  0 
    1.0730    1.3031   -1.1294 H   0  0  0  0  0  0  0  0  0  0  0  0 
    0.8785    1.5757    0.6177 H   0  0  0  0  0  0  0  0  0  0  0  0 
    2.8668   -1.9620    5.4510 H   0  0  0  0  0  0  0  0  0  0  0  0 
    4.3565   -1.1733    4.6755 H   0  0  0  0  0  0  0  0  0  0  0  0 
    6.0869    0.5574    1.4894 H   0  0  0  0  0  0  0  0  0  0  0  0 
    4.5217    1.2475    0.9566 H   0  0  0  0  0  0  0  0  0  0  0  0 
    5.0410   -0.3474    0.3509 H   0  0  0  0  0  0  0  0  0  0  0  0 
    1.6255   -1.1648   -0.6550 H   0  0  0  0  0  0  0  0  0  0  0  0 
    1.5954   -1.6334    3.3815 H   0  0  0  0  0  0  0  0  0  0  0  0 
  1  4  1  0  0  0  0 
  1 11  1  0  0  0  0 
  2 13  1  0  0  0  0 
  2 12  1  0  0  0  0 
  3 14  1  0  0  0  0 
  3  8  1  0  0  0  0 
  4  6  2  0  0  0  0 
  5  2  2  0  0  0  0 
  6  7  2  0  0  0  0 
  7  8  1  0  0  0  0 
  7  5  1  0  0  0  0 
  9  1  1  0  0  0  0 
 10  1  1  0  0  0  0 
 15  3  1  0  0  0  0 
 16  3  1  0  0  0  0 
 17  4  1  0  0  0  0 
 18  5  1  0  0  0  0 
M  END 
>  <HBA> 
1 
 
>  <HBD> 
0 
 
>  <TPSA> 
9.23 
 
>  <cid> 
40899 
 
>  <dipole> 
1.56 
 
>  <excitation_energy_1> 
4.517 
 
>  <excitation_energy_2> 
5.056 
 
>  <excitation_energy_3> 
5.4 
 
>  <excitation_energy_4> 
5.478 
 
>  <homo_energy> 
-5.63 
 
>  <homo_lumo_gap> 
5.396 
 
>  <logP> 
1.878 
 
>  <lumo_energy> 
-0.234 
 
>  <melting_point> 
-42.9 
 
>  <molecular_refractivity> 
34.61 
 
>  <oscillator_strength_1> 
0.0003 
 
>  <oscillator_strength_2> 
0.4414 
 
>  <oscillator_strength_3> 
0.0651 
 
>  <oscillator_strength_4> 
0.0002 
 
>  <open_babel_can_smiles> 
CC=C=C(C=C)OC 
 
>  <mulliken_charges> 
18 
1   -0.465011 
2   -0.342937 
3   -0.208693 
4   -0.320938 
5   -0.101746 
6   0.207434 
7   0.194995 
8   -0.485685 
9   0.158972 
10   0.156946 
11   0.162194 
12   0.138583 
13   0.159659 
14   0.161419 
15   0.14889 
16   0.150257 
17   0.148807 
18   0.136854 
 
>  <lowdin_charges> 
18 
1   -0.432988 
2   -0.330048 
3   -0.275702 
4   -0.156222 
5   -0.148946 
6   -0.111478 
7   0.079966 
8   -0.204001 
9   0.158143 
10   0.158288 
11   0.161539 
12   0.161203 
13   0.167388 
14   0.156913 
15   0.145375 
16   0.146622 
17   0.16215 
18   0.161798 
 
$$$$ 
 
