PCCDB-ID:  36180 
public computational chemistry database (PCCDB) project, http://pccdb.org 
 
 14 14  0  0  0  0  0  0  0  0999 V2000 
    1.1481    0.2188    0.0042 C   0  0  0  0  0  0  0  0  0  0  0  0 
    2.6285   -0.0084    0.0127 C   0  0  0  0  0  0  0  0  0  0  0  0 
    3.3823   -1.2328   -0.0423 C   0  0  0  0  0  0  0  0  0  0  0  0 
    2.9244   -2.6504   -0.0782 C   0  0  0  0  0  0  0  0  0  0  0  0 
    3.5508   -3.6505    0.3803 N   0  0  0  0  0  0  0  0  0  0  0  0 
    3.4760    0.9857    0.0953 N   0  0  0  0  0  0  0  0  0  0  0  0 
    4.6597   -0.9395    0.0051 N   0  0  0  0  0  0  0  0  0  0  0  0 
    1.6839   -2.8495   -0.6110 O   0  0  0  0  0  0  0  0  0  0  0  0 
    4.7285    0.4175    0.0872 O   0  0  0  0  0  0  0  0  0  0  0  0 
    0.6387   -0.4832    0.6707 H   0  0  0  0  0  0  0  0  0  0  0  0 
    0.7281    0.0944   -1.0023 H   0  0  0  0  0  0  0  0  0  0  0  0 
    0.9304    1.2396    0.3254 H   0  0  0  0  0  0  0  0  0  0  0  0 
    4.4341   -3.3529    0.7976 H   0  0  0  0  0  0  0  0  0  0  0  0 
    1.4451   -2.1105   -1.1904 H   0  0  0  0  0  0  0  0  0  0  0  0 
  1  2  1  0  0  0  0 
  1 12  1  0  0  0  0 
  1 10  1  0  0  0  0 
  2  6  2  0  0  0  0 
  3  7  2  0  0  0  0 
  3  2  1  0  0  0  0 
  4  3  1  0  0  0  0 
  4  5  2  0  0  0  0 
  5 13  1  0  0  0  0 
  7  9  1  0  0  0  0 
  8  4  1  0  0  0  0 
  9  6  1  0  0  0  0 
 11  1  1  0  0  0  0 
 14  8  1  0  0  0  0 
M  END 
>  <HBA> 
5 
 
>  <HBD> 
1 
 
>  <TPSA> 
82.01 
 
>  <cid> 
36180 
 
>  <dipole> 
3.54 
 
>  <excitation_energy_1> 
4.673 
 
>  <excitation_energy_2> 
5.067 
 
>  <excitation_energy_3> 
5.636 
 
>  <excitation_energy_4> 
6.041 
 
>  <homo_energy> 
-7.753 
 
>  <homo_lumo_gap> 
5.66 
 
>  <logP> 
0.177 
 
>  <lumo_energy> 
-2.093 
 
>  <melting_point> 
128.2 
 
>  <molecular_refractivity> 
27.36 
 
>  <oscillator_strength_1> 
0.0007 
 
>  <oscillator_strength_2> 
0.0403 
 
>  <oscillator_strength_3> 
0.0001 
 
>  <oscillator_strength_4> 
0.008 
 
>  <open_babel_can_smiles> 
Cc1nonc1C(=N)O 
 
>  <mulliken_charges> 
14 
1   -0.546499 
2   0.270069 
3   0.169577 
4   0.481408 
5   -0.565318 
6   -0.158986 
7   -0.177726 
8   -0.585414 
9   -0.195815 
10   0.199818 
11   0.175603 
12   0.203601 
13   0.31567 
14   0.414012 
 
>  <lowdin_charges> 
14 
1   -0.445738 
2   -0.003264 
3   -0.057503 
4   0.12445 
5   -0.34984 
6   -0.041057 
7   -0.027261 
8   -0.358702 
9   -0.013924 
10   0.18329 
11   0.168384 
12   0.186934 
13   0.274594 
14   0.359638 
 
$$$$ 
 
