PCCDB-ID:  20618 
public computational chemistry database (PCCDB) project, http://pccdb.org 
 
 21 22  0  0  1  0  0  0  0  0999 V2000 
    1.0851   -0.0213   -0.0093 C   0  0  0  0  0  0  0  0  0  0  0  0 
    5.1780    0.4512    1.2074 C   0  0  0  0  0  0  0  0  0  0  0  0 
    4.5589   -0.9723    1.0118 C   0  0  0  0  0  0  0  0  0  0  0  0 
    3.1341    0.3000    2.4606 C   0  0  0  0  0  0  0  0  0  0  0  0 
    3.0227    1.4440    0.3923 C   0  0  0  0  0  0  0  0  0  0  0  0 
    3.9514    1.3030    1.6175 C   0  0  2  0  0  0  0  0  0  0  0  0 
    3.0641   -0.7226    1.3062 C   0  0  1  0  0  0  0  0  0  0  0  0 
    2.5263    0.0594    0.1625 N   0  0  0  0  0  0  0  0  0  0  0  0 
    0.7924    0.5647   -0.8881 H   0  0  0  0  0  0  0  0  0  0  0  0 
    0.4983    0.3555    0.8525 H   0  0  0  0  0  0  0  0  0  0  0  0 
    0.7912   -1.0609   -0.1924 H   0  0  0  0  0  0  0  0  0  0  0  0 
    5.6541    0.8322    0.2974 H   0  0  0  0  0  0  0  0  0  0  0  0 
    5.9352    0.4540    1.9999 H   0  0  0  0  0  0  0  0  0  0  0  0 
    4.9841   -1.6960    1.7172 H   0  0  0  0  0  0  0  0  0  0  0  0 
    4.6938   -1.3598   -0.0015 H   0  0  0  0  0  0  0  0  0  0  0  0 
    2.1534    0.6823    2.7658 H   0  0  0  0  0  0  0  0  0  0  0  0 
    3.6668   -0.0658    3.3460 H   0  0  0  0  0  0  0  0  0  0  0  0 
    3.5453    1.8297   -0.4930 H   0  0  0  0  0  0  0  0  0  0  0  0 
    2.1931    2.1326    0.6184 H   0  0  0  0  0  0  0  0  0  0  0  0 
    4.1989    2.2585    2.0886 H   0  0  0  0  0  0  0  0  0  0  0  0 
    2.4758   -1.6290    1.4700 H   0  0  0  0  0  0  0  0  0  0  0  0 
  1  8  1  0  0  0  0 
  1 10  1  0  0  0  0 
  2  6  1  0  0  0  0 
  2 13  1  0  0  0  0 
  3  2  1  0  0  0  0 
  3  7  1  0  0  0  0 
  3 14  1  0  0  0  0 
  4 16  1  0  0  0  0 
  4 17  1  0  0  0  0 
  5 19  1  0  0  0  0 
  5  6  1  0  0  0  0 
  6 20  1  1  0  0  0 
  6  4  1  0  0  0  0 
  7 21  1  1  0  0  0 
  7  4  1  0  0  0  0 
  8  5  1  0  0  0  0 
  8  7  1  0  0  0  0 
  9  1  1  0  0  0  0 
 11  1  1  0  0  0  0 
 12  2  1  0  0  0  0 
 15  3  1  0  0  0  0 
 18  5  1  0  0  0  0 
M  END 
>  <HBA> 
1 
 
>  <HBD> 
0 
 
>  <TPSA> 
3.24 
 
>  <cid> 
20618 
 
>  <dipole> 
0.84 
 
>  <excitation_energy_1> 
4.908 
 
>  <excitation_energy_2> 
5.406 
 
>  <excitation_energy_3> 
5.482 
 
>  <excitation_energy_4> 
5.588 
 
>  <homo_energy> 
-5.38 
 
>  <homo_lumo_gap> 
7.625 
 
>  <logP> 
1.038 
 
>  <lumo_energy> 
2.245 
 
>  <melting_point> 
20.57 
 
>  <molecular_refractivity> 
38.35 
 
>  <oscillator_strength_1> 
0.0059 
 
>  <oscillator_strength_2> 
0.0088 
 
>  <oscillator_strength_3> 
0.0134 
 
>  <oscillator_strength_4> 
0.0245 
 
>  <open_babel_can_smiles> 
CN1C[C@H]2C[C@@H]1CC2 
 
>  <mulliken_charges> 
21 
1   -0.299452 
2   -0.270805 
3   -0.250366 
4   -0.275863 
5   -0.118889 
6   -0.126459 
7   0.009857 
8   -0.380615 
9   0.149205 
10   0.113104 
11   0.146492 
12   0.136752 
13   0.133274 
14   0.127711 
15   0.145442 
16   0.134708 
17   0.132343 
18   0.135495 
19   0.12133 
20   0.119418 
21   0.117321 
 
>  <lowdin_charges> 
21 
1   -0.358046 
2   -0.285607 
3   -0.290309 
4   -0.298787 
5   -0.205415 
6   -0.139788 
7   -0.067802 
8   -0.199682 
9   0.149847 
10   0.116807 
11   0.146799 
12   0.14566 
13   0.144024 
14   0.142381 
15   0.151184 
16   0.143814 
17   0.145636 
18   0.140509 
19   0.13256 
20   0.143733 
21   0.14248 
 
$$$$ 
 
