PCCDB-ID:  22333 
public computational chemistry database (PCCDB) project, http://pccdb.org 
 
 20 20  0  0  0  0  0  0  0  0999 V2000 
    1.9265   -0.4234    1.4590 C   0  0  0  0  0  0  0  0  0  0  0  0 
    3.5544   -0.1325   -2.1142 C   0  0  0  0  0  0  0  0  0  0  0  0 
    2.4459    0.1337    0.1341 C   0  0  0  0  0  0  0  0  0  0  0  0 
    3.3866   -3.5007   -0.0411 C   0  0  0  0  0  0  0  0  0  0  0  0 
    2.4838   -3.6076   -1.2651 C   0  0  0  0  0  0  0  0  0  0  0  0 
    2.9818   -0.8830   -0.9017 C   0  0  0  0  0  0  0  0  0  0  0  0 
    4.3511   -1.9528   -0.2048 S   0  0  0  0  0  0  0  0  0  0  0  0 
    1.5902   -2.0170   -1.4412 S   0  0  0  0  0  0  0  0  0  0  0  0 
    1.6038    0.3969    2.1100 H   0  0  0  0  0  0  0  0  0  0  0  0 
    2.7092   -0.9807    1.9842 H   0  0  0  0  0  0  0  0  0  0  0  0 
    1.0715   -1.0882    1.3027 H   0  0  0  0  0  0  0  0  0  0  0  0 
    4.4111    0.4838   -1.8131 H   0  0  0  0  0  0  0  0  0  0  0  0 
    2.7949    0.5318   -2.5424 H   0  0  0  0  0  0  0  0  0  0  0  0 
    3.8848   -0.8276   -2.8891 H   0  0  0  0  0  0  0  0  0  0  0  0 
    3.2576    0.8472    0.3320 H   0  0  0  0  0  0  0  0  0  0  0  0 
    1.6494    0.7100   -0.3585 H   0  0  0  0  0  0  0  0  0  0  0  0 
    4.1059   -4.3259    0.0013 H   0  0  0  0  0  0  0  0  0  0  0  0 
    2.7987   -3.4948    0.8811 H   0  0  0  0  0  0  0  0  0  0  0  0 
    1.7280   -4.3912   -1.1421 H   0  0  0  0  0  0  0  0  0  0  0  0 
    3.0698   -3.8197   -2.1641 H   0  0  0  0  0  0  0  0  0  0  0  0 
  1 10  1  0  0  0  0 
  1  9  1  0  0  0  0 
  2 12  1  0  0  0  0 
  2  6  1  0  0  0  0 
  3 15  1  0  0  0  0 
  3  1  1  0  0  0  0 
  4 17  1  0  0  0  0 
  4 18  1  0  0  0  0 
  5 19  1  0  0  0  0 
  5  4  1  0  0  0  0 
  6  7  1  0  0  0  0 
  6  3  1  0  0  0  0 
  7  4  1  0  0  0  0 
  8  5  1  0  0  0  0 
  8  6  1  0  0  0  0 
 11  1  1  0  0  0  0 
 13  2  1  0  0  0  0 
 14  2  1  0  0  0  0 
 16  3  1  0  0  0  0 
 20  5  1  0  0  0  0 
M  END 
>  <HBA> 
2 
 
>  <HBD> 
0 
 
>  <TPSA> 
50.6 
 
>  <cid> 
22333 
 
>  <dipole> 
0.8 
 
>  <excitation_energy_1> 
4.725 
 
>  <excitation_energy_2> 
4.791 
 
>  <excitation_energy_3> 
5.666 
 
>  <excitation_energy_4> 
5.728 
 
>  <homo_energy> 
-6.098 
 
>  <homo_lumo_gap> 
6.125 
 
>  <logP> 
2.593 
 
>  <lumo_energy> 
0.027 
 
>  <melting_point> 
24.98 
 
>  <molecular_refractivity> 
44.06 
 
>  <oscillator_strength_1> 
0.0011 
 
>  <oscillator_strength_2> 
0.001 
 
>  <oscillator_strength_3> 
0.0354 
 
>  <oscillator_strength_4> 
0.0101 
 
>  <open_babel_can_smiles> 
CCC1(C)SCCS1 
 
>  <mulliken_charges> 
20 
1   -0.4525 
2   -0.4242 
3   -0.236494 
4   -0.415614 
5   -0.410869 
6   -0.243315 
7   0.102958 
8   0.09951 
9   0.141763 
10   0.161774 
11   0.164637 
12   0.154544 
13   0.156064 
14   0.168594 
15   0.147065 
16   0.14668 
17   0.181806 
18   0.188793 
19   0.181371 
20   0.187434 
 
>  <lowdin_charges> 
20 
1   -0.454673 
2   -0.446598 
3   -0.277455 
4   -0.375818 
5   -0.374942 
6   -0.169846 
7   0.090159 
8   0.088645 
9   0.152632 
10   0.157922 
11   0.157869 
12   0.155227 
13   0.157028 
14   0.165216 
15   0.150754 
16   0.150598 
17   0.172743 
18   0.164006 
19   0.172368 
20   0.164166 
 
$$$$ 
 
