PCCDB-ID:  7613 
public computational chemistry database (PCCDB) project, http://pccdb.org 
 
 22 22  0  0  0  0  0  0  0  0999 V2000 
    0.8928   -0.4522    0.2013 C   0  0  0  0  0  0  0  0  0  0  0  0 
    6.9207   -3.9834    2.6107 C   0  0  0  0  0  0  0  0  0  0  0  0 
    4.2334   -0.8546    1.6047 C   0  0  0  0  0  0  0  0  0  0  0  0 
    5.1398   -1.8570    1.9561 C   0  0  0  0  0  0  0  0  0  0  0  0 
    2.6647   -2.5495    0.8747 C   0  0  0  0  0  0  0  0  0  0  0  0 
    2.9949   -1.2018    1.0615 C   0  0  0  0  0  0  0  0  0  0  0  0 
    3.5693   -3.5591    1.2277 C   0  0  0  0  0  0  0  0  0  0  0  0 
    4.8206   -3.2004    1.7721 C   0  0  0  0  0  0  0  0  0  0  0  0 
    3.2408   -4.9116    1.1042 N   0  0  0  0  0  0  0  0  0  0  0  0 
    2.1667   -0.1564    0.7411 O   0  0  0  0  0  0  0  0  0  0  0  0 
    5.6449   -4.2668    2.0693 O   0  0  0  0  0  0  0  0  0  0  0  0 
    0.4071    0.5108    0.0300 H   0  0  0  0  0  0  0  0  0  0  0  0 
    0.2825   -1.0447    0.8971 H   0  0  0  0  0  0  0  0  0  0  0  0 
    0.9691   -0.9909   -0.7536 H   0  0  0  0  0  0  0  0  0  0  0  0 
    7.4038   -4.9494    2.7728 H   0  0  0  0  0  0  0  0  0  0  0  0 
    6.8435   -3.4531    3.5696 H   0  0  0  0  0  0  0  0  0  0  0  0 
    7.5309   -3.3850    1.9198 H   0  0  0  0  0  0  0  0  0  0  0  0 
    4.4746    0.1934    1.7449 H   0  0  0  0  0  0  0  0  0  0  0  0 
    6.1012   -1.5748    2.3709 H   0  0  0  0  0  0  0  0  0  0  0  0 
    1.7028   -2.8390    0.4650 H   0  0  0  0  0  0  0  0  0  0  0  0 
    2.6092   -5.1238    0.3420 H   0  0  0  0  0  0  0  0  0  0  0  0 
    4.0503   -5.5198    1.1112 H   0  0  0  0  0  0  0  0  0  0  0  0 
  1 10  1  0  0  0  0 
  1 13  1  0  0  0  0 
  2 15  1  0  0  0  0 
  2 16  1  0  0  0  0 
  3 18  1  0  0  0  0 
  3  4  2  0  0  0  0 
  4 19  1  0  0  0  0 
  5  6  2  0  0  0  0 
  5  7  1  0  0  0  0 
  6  3  1  0  0  0  0 
  7  8  2  0  0  0  0 
  8  4  1  0  0  0  0 
  8 11  1  0  0  0  0 
  9 22  1  0  0  0  0 
  9  7  1  0  0  0  0 
 10  6  1  0  0  0  0 
 11  2  1  0  0  0  0 
 12  1  1  0  0  0  0 
 14  1  1  0  0  0  0 
 17  2  1  0  0  0  0 
 20  5  1  0  0  0  0 
 21  9  1  0  0  0  0 
M  END 
>  <HBA> 
3 
 
>  <HBD> 
1 
 
>  <TPSA> 
44.48 
 
>  <cid> 
7613 
 
>  <dipole> 
1.68 
 
>  <excitation_energy_1> 
4.347 
 
>  <excitation_energy_2> 
4.572 
 
>  <excitation_energy_3> 
4.717 
 
>  <excitation_energy_4> 
4.859 
 
>  <homo_energy> 
-4.792 
 
>  <homo_lumo_gap> 
5.301 
 
>  <logP> 
1.867 
 
>  <lumo_energy> 
0.509 
 
>  <melting_point> 
64.69 
 
>  <molecular_refractivity> 
43.83 
 
>  <oscillator_strength_1> 
0.0162 
 
>  <oscillator_strength_2> 
0.0731 
 
>  <oscillator_strength_3> 
0.0051 
 
>  <oscillator_strength_4> 
0.0014 
 
>  <open_babel_can_smiles> 
COc1ccc(c(c1)N)OC 
 
>  <mulliken_charges> 
22 
1   -0.208568 
2   -0.208941 
3   -0.194188 
4   -0.202627 
5   -0.258623 
6   0.375897 
7   0.257533 
8   0.34302 
9   -0.790793 
10   -0.514986 
11   -0.540712 
12   0.16484 
13   0.148451 
14   0.144214 
15   0.16335 
16   0.151373 
17   0.148314 
18   0.127719 
19   0.128453 
20   0.117023 
21   0.313899 
22   0.33535 
 
>  <lowdin_charges> 
22 
1   -0.27843 
2   -0.276545 
3   -0.206506 
4   -0.192914 
5   -0.248976 
6   0.09644 
7   0.046211 
8   0.047899 
9   -0.490115 
10   -0.204816 
11   -0.220343 
12   0.160111 
13   0.144183 
14   0.140073 
15   0.159283 
16   0.144012 
17   0.144053 
18   0.162193 
19   0.161077 
20   0.157512 
21   0.273197 
22   0.282402 
 
$$$$ 
 
