PCCDB-ID:  36153 
public computational chemistry database (PCCDB) project, http://pccdb.org 
 
 28 28  0  0  1  0  0  0  0  0999 V2000 
    1.5316    0.6191   -1.3281 C   0  0  0  0  0  0  0  0  0  0  0  0 
    2.1074    0.1065    1.0905 C   0  0  0  0  0  0  0  0  0  0  0  0 
    6.4166   -2.7394    0.6226 C   0  0  0  0  0  0  0  0  0  0  0  0 
    5.8640   -2.2678   -1.8091 C   0  0  0  0  0  0  0  0  0  0  0  0 
    3.8023   -0.2011   -0.7658 C   0  0  0  0  0  0  0  0  0  0  0  0 
    2.5742    0.1465   -0.3434 C   0  0  0  0  0  0  0  0  0  0  0  0 
    4.9323   -0.6802    0.0630 C   0  0  2  0  0  0  0  0  0  0  0  0 
    6.3704   -0.2491   -0.2626 C   0  0  1  0  0  0  0  0  0  0  0  0 
    7.2301    0.2277    0.8604 C   0  0  0  0  0  0  0  0  0  0  0  0 
    5.9353   -1.7162   -0.3931 C   0  0  0  0  0  0  0  0  0  0  0  0 
    7.0703   -0.0512    2.0271 O   0  0  0  0  0  0  0  0  0  0  0  0 
    8.2680    1.0384    0.5046 O   0  0  0  0  0  0  0  0  0  0  0  0 
    1.1801    1.6299   -1.0769 H   0  0  0  0  0  0  0  0  0  0  0  0 
    0.6447   -0.0301   -1.3081 H   0  0  0  0  0  0  0  0  0  0  0  0 
    1.9135    0.6383   -2.3538 H   0  0  0  0  0  0  0  0  0  0  0  0 
    1.2436   -0.5647    1.1960 H   0  0  0  0  0  0  0  0  0  0  0  0 
    1.7676    1.1004    1.4129 H   0  0  0  0  0  0  0  0  0  0  0  0 
    2.8757   -0.2261    1.7915 H   0  0  0  0  0  0  0  0  0  0  0  0 
    5.7156   -3.5827    0.6580 H   0  0  0  0  0  0  0  0  0  0  0  0 
    6.4999   -2.3125    1.6235 H   0  0  0  0  0  0  0  0  0  0  0  0 
    7.3995   -3.1367    0.3381 H   0  0  0  0  0  0  0  0  0  0  0  0 
    5.1256   -3.0769   -1.8670 H   0  0  0  0  0  0  0  0  0  0  0  0 
    6.8355   -2.6821   -2.1050 H   0  0  0  0  0  0  0  0  0  0  0  0 
    5.5859   -1.5114   -2.5490 H   0  0  0  0  0  0  0  0  0  0  0  0 
    4.0006   -0.1196   -1.8341 H   0  0  0  0  0  0  0  0  0  0  0  0 
    4.7630   -0.6947    1.1359 H   0  0  0  0  0  0  0  0  0  0  0  0 
    6.5013    0.2702   -1.2113 H   0  0  0  0  0  0  0  0  0  0  0  0 
    8.2788    1.1602   -0.4585 H   0  0  0  0  0  0  0  0  0  0  0  0 
  1 14  1  0  0  0  0 
  1 13  1  0  0  0  0 
  1  6  1  0  0  0  0 
  2 16  1  0  0  0  0 
  2 17  1  0  0  0  0 
  2 18  1  0  0  0  0 
  3 19  1  0  0  0  0 
  3 20  1  0  0  0  0 
  4 10  1  0  0  0  0 
  5  6  2  0  0  0  0 
  5  7  1  0  0  0  0 
  6  2  1  0  0  0  0 
  7 26  1  1  0  0  0 
  8 27  1  6  0  0  0 
  8  7  1  0  0  0  0 
  8  9  1  0  0  0  0 
  9 11  2  0  0  0  0 
 10  8  1  0  0  0  0 
 10  7  1  0  0  0  0 
 10  3  1  0  0  0  0 
 12  9  1  0  0  0  0 
 15  1  1  0  0  0  0 
 21  3  1  0  0  0  0 
 22  4  1  0  0  0  0 
 23  4  1  0  0  0  0 
 24  4  1  0  0  0  0 
 25  5  1  0  0  0  0 
 28 12  1  0  0  0  0 
M  END 
>  <HBA> 
2 
 
>  <HBD> 
1 
 
>  <TPSA> 
37.3 
 
>  <cid> 
36153 
 
>  <dipole> 
4.18 
 
>  <excitation_energy_1> 
5.266 
 
>  <excitation_energy_2> 
5.363 
 
>  <excitation_energy_3> 
5.619 
 
>  <excitation_energy_4> 
5.76 
 
>  <homo_energy> 
-6.123 
 
>  <homo_lumo_gap> 
6.131 
 
>  <logP> 
2.309 
 
>  <lumo_energy> 
0.008 
 
>  <melting_point> 
102.41 
 
>  <molecular_refractivity> 
49.11 
 
>  <oscillator_strength_1> 
0.1633 
 
>  <oscillator_strength_2> 
0.0276 
 
>  <oscillator_strength_3> 
0.0072 
 
>  <oscillator_strength_4> 
0.0012 
 
>  <open_babel_can_smiles> 
CC(=C[C@@H]1[C@H](C1(C)C)C(=O)O)C 
 
>  <mulliken_charges> 
28 
1   -0.509539 
2   -0.51489 
3   -0.480325 
4   -0.464583 
5   -0.150759 
6   0.176096 
7   -0.157205 
8   -0.283503 
9   0.632312 
10   0.120415 
11   -0.465725 
12   -0.578867 
13   0.15262 
14   0.152321 
15   0.150183 
16   0.154443 
17   0.156208 
18   0.163487 
19   0.146502 
20   0.190659 
21   0.143231 
22   0.157888 
23   0.149866 
24   0.144297 
25   0.106928 
26   0.173811 
27   0.127727 
28   0.406403 
 
>  <lowdin_charges> 
28 
1   -0.43725 
2   -0.444939 
3   -0.44361 
4   -0.436801 
5   -0.188577 
6   -0.004467 
7   -0.133256 
8   -0.21729 
9   0.200884 
10   0.019565 
11   -0.258646 
12   -0.3555 
13   0.153739 
14   0.154458 
15   0.152438 
16   0.157363 
17   0.157628 
18   0.160695 
19   0.153979 
20   0.174031 
21   0.149924 
22   0.158316 
23   0.153807 
24   0.150676 
25   0.144464 
26   0.172073 
27   0.153005 
28   0.353289 
 
$$$$ 
 
