PCCDB-ID:  69523 
public computational chemistry database (PCCDB) project, http://pccdb.org 
 
 20 20  0  0  0  0  0  0  0  0999 V2000 
    0.8411    0.1213    0.2368 C   0  0  0  0  0  0  0  0  0  0  0  0 
    3.1987    0.9875    0.6042 C   0  0  0  0  0  0  0  0  0  0  0  0 
    3.5919   -3.7378    0.4241 C   0  0  0  0  0  0  0  0  0  0  0  0 
    3.4291   -3.8760    1.8012 C   0  0  0  0  0  0  0  0  0  0  0  0 
    3.2426   -2.5286   -0.1749 C   0  0  0  0  0  0  0  0  0  0  0  0 
    2.9202   -2.7874    2.5111 C   0  0  0  0  0  0  0  0  0  0  0  0 
    2.3409   -0.1493    0.0199 C   0  0  0  0  0  0  0  0  0  0  0  0 
    2.7395   -1.4895    0.6187 C   0  0  0  0  0  0  0  0  0  0  0  0 
    2.5819   -1.6240    1.9474 N   0  0  0  0  0  0  0  0  0  0  0  0 
    0.5562    1.0865   -0.1980 H   0  0  0  0  0  0  0  0  0  0  0  0 
    0.6119    0.1401    1.3070 H   0  0  0  0  0  0  0  0  0  0  0  0 
    0.2244   -0.6567   -0.2277 H   0  0  0  0  0  0  0  0  0  0  0  0 
    2.9058    1.9523    0.1736 H   0  0  0  0  0  0  0  0  0  0  0  0 
    4.2634    0.8311    0.3961 H   0  0  0  0  0  0  0  0  0  0  0  0 
    3.0703    1.0377    1.6901 H   0  0  0  0  0  0  0  0  0  0  0  0 
    3.9852   -4.5559   -0.1740 H   0  0  0  0  0  0  0  0  0  0  0  0 
    3.6870   -4.7977    2.3142 H   0  0  0  0  0  0  0  0  0  0  0  0 
    3.3562   -2.3867   -1.2462 H   0  0  0  0  0  0  0  0  0  0  0  0 
    2.7759   -2.8537    3.5890 H   0  0  0  0  0  0  0  0  0  0  0  0 
    2.5285   -0.2013   -1.0613 H   0  0  0  0  0  0  0  0  0  0  0  0 
  1 11  1  0  0  0  0 
  2 15  1  0  0  0  0 
  3  4  1  0  0  0  0 
  4 17  1  0  0  0  0 
  4  6  2  0  0  0  0 
  5  3  2  0  0  0  0 
  5  8  1  0  0  0  0 
  6 19  1  0  0  0  0 
  7  1  1  0  0  0  0 
  7  2  1  0  0  0  0 
  7  8  1  0  0  0  0 
  8  9  2  0  0  0  0 
  9  6  1  0  0  0  0 
 10  1  1  0  0  0  0 
 12  1  1  0  0  0  0 
 13  2  1  0  0  0  0 
 14  2  1  0  0  0  0 
 16  3  1  0  0  0  0 
 18  5  1  0  0  0  0 
 20  7  1  0  0  0  0 
M  END 
>  <HBA> 
1 
 
>  <HBD> 
0 
 
>  <TPSA> 
12.89 
 
>  <cid> 
69523 
 
>  <dipole> 
1.75 
 
>  <excitation_energy_1> 
4.813 
 
>  <excitation_energy_2> 
5.174 
 
>  <excitation_energy_3> 
5.361 
 
>  <excitation_energy_4> 
6.14 
 
>  <homo_energy> 
-6.743 
 
>  <homo_lumo_gap> 
6.202 
 
>  <logP> 
2.205 
 
>  <lumo_energy> 
-0.542 
 
>  <melting_point> 
21.33 
 
>  <molecular_refractivity> 
38.82 
 
>  <oscillator_strength_1> 
0.0041 
 
>  <oscillator_strength_2> 
0.0003 
 
>  <oscillator_strength_3> 
0.059 
 
>  <oscillator_strength_4> 
0.0708 
 
>  <open_babel_can_smiles> 
CC(c1ccccn1)C 
 
>  <mulliken_charges> 
20 
1   -0.442103 
2   -0.442431 
3   -0.099817 
4   -0.144332 
5   -0.182451 
6   0.036488 
7   -0.132886 
8   0.318464 
9   -0.470256 
10   0.137783 
11   0.167505 
12   0.140159 
13   0.137808 
14   0.140173 
15   0.167627 
16   0.14046 
17   0.135371 
18   0.132418 
19   0.138117 
20   0.121903 
 
>  <lowdin_charges> 
20 
1   -0.441172 
2   -0.438029 
3   -0.128818 
4   -0.182986 
5   -0.183773 
6   -0.084265 
7   -0.120326 
8   0.056244 
9   -0.158002 
10   0.147047 
11   0.158598 
12   0.149468 
13   0.146986 
14   0.146744 
15   0.158306 
16   0.16312 
17   0.163349 
18   0.158854 
19   0.152546 
20   0.13611 
 
$$$$ 
 
