PCCDB-ID:  61260 
public computational chemistry database (PCCDB) project, http://pccdb.org 
 
 18 18  0  0  0  0  0  0  0  0999 V2000 
    3.4919   -0.0885    0.9735 C   0  0  0  0  0  0  0  0  0  0  0  0 
    2.3691   -0.0024   -0.0588 C   0  0  0  0  0  0  0  0  0  0  0  0 
    0.0246    0.9273   -3.8143 C   0  0  0  0  0  0  0  0  0  0  0  0 
    0.4573    0.4836   -2.5445 C   0  0  0  0  0  0  0  0  0  0  0  0 
    1.0928    1.5915   -4.4038 C   0  0  0  0  0  0  0  0  0  0  0  0 
    1.7817    0.8871   -2.3863 C   0  0  0  0  0  0  0  0  0  0  0  0 
    2.7748    0.7444   -1.3234 C   0  0  0  0  0  0  0  0  0  0  0  0 
    2.1384    1.5590   -3.5362 N   0  0  0  0  0  0  0  0  0  0  0  0 
    3.9002    1.2206   -1.4665 O   0  0  0  0  0  0  0  0  0  0  0  0 
    3.1559   -0.6346    1.8612 H   0  0  0  0  0  0  0  0  0  0  0  0 
    3.8176    0.9090    1.2824 H   0  0  0  0  0  0  0  0  0  0  0  0 
    4.3654   -0.6015    0.5606 H   0  0  0  0  0  0  0  0  0  0  0  0 
    1.4857    0.4962    0.3646 H   0  0  0  0  0  0  0  0  0  0  0  0 
    2.0261   -1.0057   -0.3488 H   0  0  0  0  0  0  0  0  0  0  0  0 
   -0.9518    0.7829   -4.2563 H   0  0  0  0  0  0  0  0  0  0  0  0 
   -0.1260   -0.0692   -1.8205 H   0  0  0  0  0  0  0  0  0  0  0  0 
    1.1744    2.0756   -5.3668 H   0  0  0  0  0  0  0  0  0  0  0  0 
    3.0631    1.9503   -3.6537 H   0  0  0  0  0  0  0  0  0  0  0  0 
  1 11  1  0  0  0  0 
  1 10  1  0  0  0  0 
  2 13  1  0  0  0  0 
  2  1  1  0  0  0  0 
  3  4  1  0  0  0  0 
  4  6  2  0  0  0  0 
  4 16  1  0  0  0  0 
  5  3  2  0  0  0  0 
  5  8  1  0  0  0  0 
  6  7  1  0  0  0  0 
  7  2  1  0  0  0  0 
  8  6  1  0  0  0  0 
  9  7  2  0  0  0  0 
 12  1  1  0  0  0  0 
 14  2  1  0  0  0  0 
 15  3  1  0  0  0  0 
 17  5  1  0  0  0  0 
 18  8  1  0  0  0  0 
M  END 
>  <HBA> 
1 
 
>  <HBD> 
1 
 
>  <TPSA> 
32.86 
 
>  <cid> 
61260 
 
>  <dipole> 
1.9 
 
>  <excitation_energy_1> 
4.112 
 
>  <excitation_energy_2> 
4.747 
 
>  <excitation_energy_3> 
5.216 
 
>  <excitation_energy_4> 
5.519 
 
>  <homo_energy> 
-6.055 
 
>  <homo_lumo_gap> 
5.072 
 
>  <logP> 
1.607 
 
>  <lumo_energy> 
-0.982 
 
>  <melting_point> 
84.82 
 
>  <molecular_refractivity> 
35.79 
 
>  <oscillator_strength_1> 
0.0001 
 
>  <oscillator_strength_2> 
0.3316 
 
>  <oscillator_strength_3> 
0.0473 
 
>  <oscillator_strength_4> 
0.0037 
 
>  <open_babel_can_smiles> 
CCC(=O)c1ccc[nH]1 
 
>  <mulliken_charges> 
18 
1   -0.433703 
2   -0.356662 
3   -0.194573 
4   -0.1996 
5   0.066015 
6   0.255987 
7   0.410235 
8   -0.593374 
9   -0.509918 
10   0.138016 
11   0.160484 
12   0.160529 
13   0.162328 
14   0.162236 
15   0.134238 
16   0.134769 
17   0.154743 
18   0.34825 
 
>  <lowdin_charges> 
18 
1   -0.439609 
2   -0.303628 
3   -0.21072 
4   -0.192096 
5   -0.123685 
6   -0.045108 
7   0.147187 
8   -0.143724 
9   -0.279672 
10   0.149729 
11   0.158202 
12   0.159292 
13   0.162722 
14   0.161696 
15   0.163544 
16   0.166474 
17   0.16803 
18   0.301367 
 
$$$$ 
 
