PCCDB-ID:  61362 
public computational chemistry database (PCCDB) project, http://pccdb.org 
 
 27 27  0  0  1  0  0  0  0  0999 V2000 
    0.8989    0.0907   -0.5789 C   0  0  0  0  0  0  0  0  0  0  0  0 
    2.9745   -1.1304    0.1432 C   0  0  0  0  0  0  0  0  0  0  0  0 
    4.0267    3.9838    2.8943 C   0  0  0  0  0  0  0  0  0  0  0  0 
    4.6098    1.9449    1.4442 C   0  0  0  0  0  0  0  0  0  0  0  0 
    4.5712    1.4494   -0.0078 C   0  0  0  0  0  0  0  0  0  0  0  0 
    2.7850    3.5044    0.7816 C   0  0  0  0  0  0  0  0  0  0  0  0 
    2.2612    0.2321    0.1199 C   0  0  0  0  0  0  0  0  0  0  0  0 
    3.7510    3.1696    1.6610 C   0  0  0  0  0  0  0  0  0  0  0  0 
    3.1337    1.3400   -0.5539 C   0  0  1  0  0  0  0  0  0  0  0  0 
    2.4513    2.7048   -0.4153 C   0  0  0  0  0  0  0  0  0  0  0  0 
    1.6331    3.1086   -1.2329 O   0  0  0  0  0  0  0  0  0  0  0  0 
    0.3523    1.0360   -0.6166 H   0  0  0  0  0  0  0  0  0  0  0  0 
    1.0291   -0.2538   -1.6128 H   0  0  0  0  0  0  0  0  0  0  0  0 
    0.2785   -0.6473   -0.0569 H   0  0  0  0  0  0  0  0  0  0  0  0 
    2.3067   -1.8997    0.5481 H   0  0  0  0  0  0  0  0  0  0  0  0 
    3.8791   -1.1254    0.7601 H   0  0  0  0  0  0  0  0  0  0  0  0 
    3.2595   -1.4412   -0.8704 H   0  0  0  0  0  0  0  0  0  0  0  0 
    3.9472    3.3611    3.7962 H   0  0  0  0  0  0  0  0  0  0  0  0 
    3.3334    4.8239    2.9945 H   0  0  0  0  0  0  0  0  0  0  0  0 
    5.0517    4.3788    2.8804 H   0  0  0  0  0  0  0  0  0  0  0  0 
    5.6440    2.1697    1.7393 H   0  0  0  0  0  0  0  0  0  0  0  0 
    4.2776    1.1546    2.1359 H   0  0  0  0  0  0  0  0  0  0  0  0 
    5.0994    0.4950   -0.0984 H   0  0  0  0  0  0  0  0  0  0  0  0 
    5.1202    2.1668   -0.6323 H   0  0  0  0  0  0  0  0  0  0  0  0 
    2.1862    4.4022    0.9200 H   0  0  0  0  0  0  0  0  0  0  0  0 
    2.0750    0.5331    1.1616 H   0  0  0  0  0  0  0  0  0  0  0  0 
    3.1713    1.1187   -1.6283 H   0  0  0  0  0  0  0  0  0  0  0  0 
  1 14  1  0  0  0  0 
  1  7  1  0  0  0  0 
  2 15  1  0  0  0  0 
  2 16  1  0  0  0  0 
  3 19  1  0  0  0  0 
  3 18  1  0  0  0  0 
  4  8  1  0  0  0  0 
  4 21  1  0  0  0  0 
  4 22  1  0  0  0  0 
  5  4  1  0  0  0  0 
  6 25  1  0  0  0  0 
  6  8  2  0  0  0  0 
  7  2  1  0  0  0  0 
  7 26  1  0  0  0  0 
  8  3  1  0  0  0  0 
  9 27  1  6  0  0  0 
  9 10  1  0  0  0  0 
  9  5  1  0  0  0  0 
  9  7  1  0  0  0  0 
 10  6  1  0  0  0  0 
 11 10  2  0  0  0  0 
 12  1  1  0  0  0  0 
 13  1  1  0  0  0  0 
 17  2  1  0  0  0  0 
 20  3  1  0  0  0  0 
 23  5  1  0  0  0  0 
 24  5  1  0  0  0  0 
M  END 
>  <HBA> 
1 
 
>  <HBD> 
0 
 
>  <TPSA> 
17.07 
 
>  <cid> 
61362 
 
>  <dipole> 
3.96 
 
>  <excitation_energy_1> 
3.578 
 
>  <excitation_energy_2> 
5.54 
 
>  <excitation_energy_3> 
5.76 
 
>  <excitation_energy_4> 
6.195 
 
>  <homo_energy> 
-6.218 
 
>  <homo_lumo_gap> 
5.04 
 
>  <logP> 
2.568 
 
>  <lumo_energy> 
-1.178 
 
>  <melting_point> 
27.96 
 
>  <molecular_refractivity> 
47.8 
 
>  <oscillator_strength_1> 
0.001 
 
>  <oscillator_strength_2> 
0.3149 
 
>  <oscillator_strength_3> 
0.0053 
 
>  <oscillator_strength_4> 
0.0029 
 
>  <open_babel_can_smiles> 
CC1=CC(=O)[C@@H](CC1)C(C)C 
 
>  <mulliken_charges> 
27 
1   -0.449135 
2   -0.449384 
3   -0.51957 
4   -0.338005 
5   -0.295598 
6   -0.226367 
7   -0.081898 
8   0.188814 
9   -0.15697 
10   0.442637 
11   -0.489422 
12   0.172633 
13   0.14161 
14   0.13444 
15   0.145132 
16   0.141093 
17   0.143617 
18   0.163756 
19   0.166829 
20   0.164682 
21   0.149057 
22   0.159928 
23   0.143339 
24   0.147285 
25   0.135057 
26   0.124753 
27   0.141688 
 
>  <lowdin_charges> 
27 
1   -0.447885 
2   -0.446737 
3   -0.440592 
4   -0.281583 
5   -0.278732 
6   -0.222387 
7   -0.117916 
8   0.035379 
9   -0.154946 
10   0.149398 
11   -0.254612 
12   0.163806 
13   0.146973 
14   0.146943 
15   0.153016 
16   0.146164 
17   0.147569 
18   0.163425 
19   0.163254 
20   0.1624 
21   0.153673 
22   0.15804 
23   0.150408 
24   0.151048 
25   0.164771 
26   0.135577 
27   0.153545 
 
$$$$ 
 
