PCCDB-ID:  20909 
public computational chemistry database (PCCDB) project, http://pccdb.org 
 
 20 20  0  0  1  0  0  0  0  0999 V2000 
    1.0236    0.6015    0.4784 C   0  0  0  0  0  0  0  0  0  0  0  0 
    0.4977    0.9748   -0.9331 C   0  0  0  0  0  0  0  0  0  0  0  0 
    0.8223   -0.8150    0.7960 C   0  0  0  0  0  0  0  0  0  0  0  0 
   -1.0090    0.9592   -1.0670 C   0  0  1  0  0  0  0  0  0  0  0  0 
   -3.0222    2.0508   -1.4236 C   0  0  0  0  0  0  0  0  0  0  0  0 
   -3.0385   -0.3951   -1.0278 C   0  0  0  0  0  0  0  0  0  0  0  0 
    0.6262   -1.9451    0.9794 N   0  0  0  0  0  0  0  0  0  0  0  0 
   -3.7424    3.0798   -1.6528 N   0  0  0  0  0  0  0  0  0  0  0  0 
   -3.7150   -1.4682   -0.8931 N   0  0  0  0  0  0  0  0  0  0  0  0 
   -1.6220    2.0718   -1.2927 N   0  0  0  0  0  0  0  0  0  0  0  0 
   -1.6380   -0.2602   -0.9497 N   0  0  0  0  0  0  0  0  0  0  0  0 
   -3.6531    0.8098   -1.2879 N   0  0  0  0  0  0  0  0  0  0  0  0 
    0.5336    1.2156    1.2427 H   0  0  0  0  0  0  0  0  0  0  0  0 
    2.0966    0.8184    0.5294 H   0  0  0  0  0  0  0  0  0  0  0  0 
    0.9463    0.3019   -1.6742 H   0  0  0  0  0  0  0  0  0  0  0  0 
    0.8163    1.9931   -1.1619 H   0  0  0  0  0  0  0  0  0  0  0  0 
   -3.1291    3.8932   -1.7241 H   0  0  0  0  0  0  0  0  0  0  0  0 
   -3.1199   -2.2754   -0.7073 H   0  0  0  0  0  0  0  0  0  0  0  0 
   -1.1071   -1.0862   -0.7028 H   0  0  0  0  0  0  0  0  0  0  0  0 
   -4.6618    0.7920   -1.3684 H   0  0  0  0  0  0  0  0  0  0  0  0 
  1 14  1  0  0  0  0 
  1  3  1  0  0  0  0 
  1 13  1  0  0  0  0 
  2  1  1  0  0  0  0 
  3  7  3  0  0  0  0 
  4 11  1  0  0  0  0 
  4  2  1  6  0  0  0 
  5 10  2  0  0  0  0 
  5 12  1  0  0  0  0 
  6 11  1  0  0  0  0 
  6  9  2  0  0  0  0 
  8  5  1  0  0  0  0 
  9 18  1  0  0  0  0 
 10  4  1  0  0  0  0 
 11 19  1  0  0  0  0 
 12  6  1  0  0  0  0 
 15  2  1  0  0  0  0 
 16  2  1  0  0  0  0 
 17  8  1  0  0  0  0 
 20 12  1  0  0  0  0 
M  RAD  2   4   2   8   2 
M  END 
>  <HBA> 
6 
 
>  <HBD> 
2 
 
>  <TPSA> 
114.5 
 
>  <cid> 
20909 
 
>  <dipole> 
5.33 
 
>  <excitation_energy_1> 
4.601 
 
>  <excitation_energy_2> 
5.012 
 
>  <excitation_energy_3> 
5.202 
 
>  <excitation_energy_4> 
5.452 
 
>  <homo_energy> 
-6.441 
 
>  <homo_lumo_gap> 
5.279 
 
>  <logP> 
0.655 
 
>  <lumo_energy> 
-1.162 
 
>  <melting_point> 
186.56 
 
>  <molecular_refractivity> 
42.96 
 
>  <oscillator_strength_1> 
0.0211 
 
>  <oscillator_strength_2> 
0.0999 
 
>  <oscillator_strength_3> 
0.0026 
 
>  <oscillator_strength_4> 
0.0054 
 
>  <open_babel_can_smiles> 
N#CCC[C]1NC(=N)NC(=N1)[NH] 
 
>  <mulliken_charges> 
20 
1   -0.353318 
2   -0.362772 
3   0.365252 
4   0.52659 
5   0.605993 
6   0.686435 
7   -0.473892 
8   -0.641603 
9   -0.643085 
10   -0.506119 
11   -0.688911 
12   -0.643439 
13   0.220474 
14   0.214428 
15   0.187662 
16   0.205616 
17   0.296264 
18   0.287376 
19   0.356628 
20   0.36042 
 
>  <lowdin_charges> 
20 
1   -0.269238 
2   -0.273024 
3   -0.019107 
4   0.114427 
5   0.11696 
6   0.139892 
7   -0.125687 
8   -0.420697 
9   -0.44676 
10   -0.223231 
11   -0.253819 
12   -0.231001 
13   0.195004 
14   0.192464 
15   0.174025 
16   0.187407 
17   0.264686 
18   0.262057 
19   0.304417 
20   0.311224 
 
$$$$ 
 
