PCCDB-ID:  23234 
public computational chemistry database (PCCDB) project, http://pccdb.org 
 
 17 16  0  0  0  0  0  0  0  0999 V2000 
    2.0407   -0.9565   -1.1844 C   0  0  0  0  0  0  0  0  0  0  0  0 
    2.8276   -0.2694   -0.0552 C   0  0  0  0  0  0  0  0  0  0  0  0 
    3.0201    1.2036   -0.2921 C   0  0  0  0  0  0  0  0  0  0  0  0 
    4.1999    1.8201   -0.4106 C   0  0  0  0  0  0  0  0  0  0  0  0 
    4.3828    3.3019   -0.6293 C   0  0  0  0  0  0  0  0  0  0  0  0 
    4.9309    3.9722    0.6232 C   0  0  0  0  0  0  0  0  0  0  0  0 
    5.9791    4.5737    0.6820 O   0  0  0  0  0  0  0  0  0  0  0  0 
    1.8826   -2.0177   -0.9624 H   0  0  0  0  0  0  0  0  0  0  0  0 
    2.5774   -0.8832   -2.1366 H   0  0  0  0  0  0  0  0  0  0  0  0 
    1.0562   -0.4930   -1.3203 H   0  0  0  0  0  0  0  0  0  0  0  0 
    3.8044   -0.7538    0.0679 H   0  0  0  0  0  0  0  0  0  0  0  0 
    2.2864   -0.4145    0.8918 H   0  0  0  0  0  0  0  0  0  0  0  0 
    2.1051    1.7930   -0.3912 H   0  0  0  0  0  0  0  0  0  0  0  0 
    5.1175    1.2379   -0.3157 H   0  0  0  0  0  0  0  0  0  0  0  0 
    3.4123    3.7652   -0.8584 H   0  0  0  0  0  0  0  0  0  0  0  0 
    5.0744    3.5127   -1.4529 H   0  0  0  0  0  0  0  0  0  0  0  0 
    4.2849    3.8538    1.5227 H   0  0  0  0  0  0  0  0  0  0  0  0 
  1  8  1  0  0  0  0 
  1  2  1  0  0  0  0 
  2 11  1  0  0  0  0 
  2 12  1  0  0  0  0 
  3  2  1  0  0  0  0 
  4 14  1  0  0  0  0 
  4  3  2  0  0  0  0 
  5  4  1  0  0  0  0 
  5  6  1  0  0  0  0 
  6  7  2  0  0  0  0 
  6 17  1  0  0  0  0 
  9  1  1  0  0  0  0 
 10  1  1  0  0  0  0 
 13  3  1  0  0  0  0 
 15  5  1  0  0  0  0 
 16  5  1  0  0  0  0 
M  END 
>  <HBA> 
1 
 
>  <HBD> 
0 
 
>  <TPSA> 
17.07 
 
>  <cid> 
23234 
 
>  <dipole> 
3.02 
 
>  <excitation_energy_1> 
4.13 
 
>  <excitation_energy_2> 
5.371 
 
>  <excitation_energy_3> 
6.231 
 
>  <excitation_energy_4> 
6.42 
 
>  <homo_energy> 
-6.602 
 
>  <homo_lumo_gap> 
5.815 
 
>  <logP> 
1.542 
 
>  <lumo_energy> 
-0.786 
 
>  <melting_point> 
14.95 
 
>  <molecular_refractivity> 
30.68 
 
>  <oscillator_strength_1> 
0.0088 
 
>  <oscillator_strength_2> 
0.0708 
 
>  <oscillator_strength_3> 
0.0713 
 
>  <oscillator_strength_4> 
0.0577 
 
>  <open_babel_can_smiles> 
CC/C=C/CC=O 
 
>  <mulliken_charges> 
17 
1   -0.441233 
2   -0.299026 
3   -0.077967 
4   -0.115625 
5   -0.376157 
6   0.257753 
7   -0.377763 
8   0.147734 
9   0.153027 
10   0.145234 
11   0.143777 
12   0.14736 
13   0.120594 
14   0.135628 
15   0.160853 
16   0.169956 
17   0.105855 
 
>  <lowdin_charges> 
17 
1   -0.440162 
2   -0.268045 
3   -0.155499 
4   -0.174936 
5   -0.304015 
6   0.05404 
7   -0.213206 
8   0.150742 
9   0.15201 
10   0.148089 
11   0.148162 
12   0.150915 
13   0.147109 
14   0.154322 
15   0.165497 
16   0.167613 
17   0.117364 
 
$$$$ 
 
