PCCDB-ID:  35035 
public computational chemistry database (PCCDB) project, http://pccdb.org 
 
 19 19  0  0  1  0  0  0  0  0999 V2000 
    2.4088    0.8381    0.1100 C   0  0  0  0  0  0  0  0  0  0  0  0 
    3.7328   -6.4953   -0.1185 C   0  0  0  0  0  0  0  0  0  0  0  0 
    4.9300   -2.4180    0.2628 C   0  0  0  0  0  0  0  0  0  0  0  0 
    2.8270   -1.4784    0.0352 C   0  0  0  0  0  0  0  0  0  0  0  0 
    3.1085   -3.8173   -0.0539 C   0  0  2  0  0  0  0  0  0  0  0  0 
    6.1938   -2.3264    0.4276 N   0  0  0  0  0  0  0  0  0  0  0  0 
    4.0793   -1.2812    0.2155 N   0  0  0  0  0  0  0  0  0  0  0  0 
    4.3692   -3.7112    0.1239 N   0  0  0  0  0  0  0  0  0  0  0  0 
    2.2530   -2.7236   -0.1145 N   0  0  0  0  0  0  0  0  0  0  0  0 
    1.9114   -0.5048   -0.0313 O   0  0  0  0  0  0  0  0  0  0  0  0 
    2.2911   -5.3822   -0.2454 S   0  0  0  0  0  0  0  0  0  0  0  0 
    1.5282    1.4755    0.0295 H   0  0  0  0  0  0  0  0  0  0  0  0 
    3.1271    1.0630   -0.6819 H   0  0  0  0  0  0  0  0  0  0  0  0 
    2.8944    0.9637    1.0805 H   0  0  0  0  0  0  0  0  0  0  0  0 
    3.3386   -7.5060   -0.2476 H   0  0  0  0  0  0  0  0  0  0  0  0 
    4.2048   -6.3896    0.8586 H   0  0  0  0  0  0  0  0  0  0  0  0 
    4.4555   -6.2623   -0.9008 H   0  0  0  0  0  0  0  0  0  0  0  0 
    6.4294   -1.3334    0.5096 H   0  0  0  0  0  0  0  0  0  0  0  0 
    1.2558   -2.8100   -0.2563 H   0  0  0  0  0  0  0  0  0  0  0  0 
  1 14  1  0  0  0  0 
  2 16  1  0  0  0  0 
  3  6  1  0  0  0  0 
  4  7  2  0  0  0  0 
  5 11  1  1  0  0  0 
  5  8  1  0  0  0  0 
  6 18  1  0  0  0  0 
  7  3  2  0  0  0  0 
  8  3  2  0  0  0  0 
  9  5  1  0  0  0  0 
  9  4  1  0  0  0  0 
 10  4  1  0  0  0  0 
 10  1  1  0  0  0  0 
 11  2  1  0  0  0  0 
 12  1  1  0  0  0  0 
 13  1  1  0  0  0  0 
 15  2  1  0  0  0  0 
 17  2  1  0  0  0  0 
 19  9  1  0  0  0  0 
M  RAD  2   5   2   6   2 
M  END 
>  <HBA> 
6 
 
>  <HBD> 
1 
 
>  <TPSA> 
99.22 
 
>  <cid> 
35035 
 
>  <dipole> 
4.74 
 
>  <excitation_energy_1> 
4.785 
 
>  <excitation_energy_2> 
5.073 
 
>  <excitation_energy_3> 
5.194 
 
>  <excitation_energy_4> 
5.36 
 
>  <homo_energy> 
-6.076 
 
>  <homo_lumo_gap> 
5.641 
 
>  <logP> 
0.765 
 
>  <lumo_energy> 
-0.435 
 
>  <melting_point> 
118.91 
 
>  <molecular_refractivity> 
42.44 
 
>  <oscillator_strength_1> 
0.0149 
 
>  <oscillator_strength_2> 
0.0015 
 
>  <oscillator_strength_3> 
0.0016 
 
>  <oscillator_strength_4> 
0.0043 
 
>  <open_babel_can_smiles> 
CS[C]1NC(=[N]=[C](=N1)[NH])OC 
 
>  <mulliken_charges> 
19 
1   -0.212774 
2   -0.573649 
3   0.510534 
4   0.768354 
5   0.323768 
6   -0.608359 
7   -0.52607 
8   -0.441451 
9   -0.671551 
10   -0.492157 
11   0.134256 
12   0.170589 
13   0.180724 
14   0.180958 
15   0.182749 
16   0.215031 
17   0.216164 
18   0.281975 
19   0.36091 
 
>  <lowdin_charges> 
19 
1   -0.269276 
2   -0.525475 
3   0.102488 
4   0.178401 
5   -0.009244 
6   -0.389828 
7   -0.249941 
8   -0.193816 
9   -0.235725 
10   -0.183886 
11   0.169857 
12   0.164522 
13   0.166155 
14   0.165153 
15   0.177248 
16   0.185589 
17   0.1876 
18   0.250886 
19   0.309292 
 
$$$$ 
 
