PCCDB-ID:  62752 
public computational chemistry database (PCCDB) project, http://pccdb.org 
 
 19 19  0  0  0  0  0  0  0  0999 V2000 
    3.7364    0.3110    0.9275 C   0  0  0  0  0  0  0  0  0  0  0  0 
    2.6199    0.0206   -0.0947 C   0  0  0  0  0  0  0  0  0  0  0  0 
    2.8693   -2.5857   -0.4143 C   0  0  0  0  0  0  0  0  0  0  0  0 
    3.2093   -3.4914   -1.6168 C   0  0  0  0  0  0  0  0  0  0  0  0 
    2.8954   -1.1731   -0.9636 C   0  0  0  0  0  0  0  0  0  0  0  0 
    3.4112   -2.5412   -2.7996 C   0  0  0  0  0  0  0  0  0  0  0  0 
    3.1974   -1.1670   -2.2815 C   0  0  0  0  0  0  0  0  0  0  0  0 
    3.6925   -2.8498   -3.9404 O   0  0  0  0  0  0  0  0  0  0  0  0 
    3.3181   -0.1335   -3.1509 O   0  0  0  0  0  0  0  0  0  0  0  0 
    3.4733    1.1704    1.5536 H   0  0  0  0  0  0  0  0  0  0  0  0 
    4.6837    0.5317    0.4238 H   0  0  0  0  0  0  0  0  0  0  0  0 
    3.9011   -0.5464    1.5885 H   0  0  0  0  0  0  0  0  0  0  0  0 
    2.4574    0.9176   -0.7106 H   0  0  0  0  0  0  0  0  0  0  0  0 
    1.6762   -0.1403    0.4464 H   0  0  0  0  0  0  0  0  0  0  0  0 
    3.5886   -2.7089    0.4065 H   0  0  0  0  0  0  0  0  0  0  0  0 
    1.8824   -2.8177    0.0108 H   0  0  0  0  0  0  0  0  0  0  0  0 
    2.4108   -4.2023   -1.8548 H   0  0  0  0  0  0  0  0  0  0  0  0 
    4.1208   -4.0796   -1.4649 H   0  0  0  0  0  0  0  0  0  0  0  0 
    3.1491    0.6996   -2.6822 H   0  0  0  0  0  0  0  0  0  0  0  0 
  1 10  1  0  0  0  0 
  1 12  1  0  0  0  0 
  2 14  1  0  0  0  0 
  2  1  1  0  0  0  0 
  3 16  1  0  0  0  0 
  3 15  1  0  0  0  0 
  4 18  1  0  0  0  0 
  4  3  1  0  0  0  0 
  5  3  1  0  0  0  0 
  5  2  1  0  0  0  0 
  6  7  1  0  0  0  0 
  6  4  1  0  0  0  0 
  7  5  2  0  0  0  0 
  8  6  2  0  0  0  0 
  9 19  1  0  0  0  0 
  9  7  1  0  0  0  0 
 11  1  1  0  0  0  0 
 13  2  1  0  0  0  0 
 17  4  1  0  0  0  0 
M  END 
>  <HBA> 
2 
 
>  <HBD> 
1 
 
>  <TPSA> 
37.3 
 
>  <cid> 
62752 
 
>  <dipole> 
5.05 
 
>  <excitation_energy_1> 
3.899 
 
>  <excitation_energy_2> 
4.983 
 
>  <excitation_energy_3> 
5.24 
 
>  <excitation_energy_4> 
5.658 
 
>  <homo_energy> 
-6.253 
 
>  <homo_lumo_gap> 
5.301 
 
>  <logP> 
1.571 
 
>  <lumo_energy> 
-0.952 
 
>  <melting_point> 
44.66 
 
>  <molecular_refractivity> 
34.95 
 
>  <oscillator_strength_1> 
0.0003 
 
>  <oscillator_strength_2> 
0.2489 
 
>  <oscillator_strength_3> 
0.0328 
 
>  <oscillator_strength_4> 
0.0017 
 
>  <open_babel_can_smiles> 
CCC1=C(O)C(=O)CC1 
 
>  <mulliken_charges> 
19 
1   -0.438885 
2   -0.338866 
3   -0.340538 
4   -0.371336 
5   0.112198 
6   0.4165 
7   0.225247 
8   -0.459668 
9   -0.619819 
10   0.152755 
11   0.155761 
12   0.155323 
13   0.124123 
14   0.157661 
15   0.155225 
16   0.152542 
17   0.176716 
18   0.176343 
19   0.40872 
 
>  <lowdin_charges> 
19 
1   -0.441345 
2   -0.271873 
3   -0.271142 
4   -0.306385 
5   -0.048245 
6   0.136299 
7   0.027887 
8   -0.232789 
9   -0.356071 
10   0.155372 
11   0.153974 
12   0.153805 
13   0.138242 
14   0.156883 
15   0.152484 
16   0.15125 
17   0.172475 
18   0.171581 
19   0.357599 
 
$$$$ 
 
