PCCDB-ID:  72491 
public computational chemistry database (PCCDB) project, http://pccdb.org 
 
 20 19  0  0  0  0  0  0  0  0999 V2000 
    1.0172    0.7296   -0.0203 C   0  0  0  0  0  0  0  0  0  0  0  0 
    0.1963    1.2879    1.1820 C   0  0  0  0  0  0  0  0  0  0  0  0 
    2.4282    0.3337    0.3846 C   0  0  0  0  0  0  0  0  0  0  0  0 
    0.8077    0.9054    2.5208 C   0  0  0  0  0  0  0  0  0  0  0  0 
    3.0080    2.5119    0.7750 N   0  0  0  0  0  0  0  0  0  0  0  0 
    0.3140   -1.3035    2.1978 N   0  0  0  0  0  0  0  0  0  0  0  0 
    3.3659    1.1314    0.7268 N   0  0  0  0  0  0  0  0  0  0  0  0 
    0.8502   -0.2693    3.0215 N   0  0  0  0  0  0  0  0  0  0  0  0 
    2.6884   -0.9973    0.4076 O   0  0  0  0  0  0  0  0  0  0  0  0 
    1.3832    1.9144    3.2213 O   0  0  0  0  0  0  0  0  0  0  0  0 
    1.0477    1.4825   -0.8190 H   0  0  0  0  0  0  0  0  0  0  0  0 
    0.5321   -0.1484   -0.4510 H   0  0  0  0  0  0  0  0  0  0  0  0 
   -0.8365    0.9209    1.1176 H   0  0  0  0  0  0  0  0  0  0  0  0 
    0.1336    2.3770    1.1397 H   0  0  0  0  0  0  0  0  0  0  0  0 
    3.8890    3.0159    0.8429 H   0  0  0  0  0  0  0  0  0  0  0  0 
    2.5604    2.8256   -0.0928 H   0  0  0  0  0  0  0  0  0  0  0  0 
    0.2196   -2.1122    2.8075 H   0  0  0  0  0  0  0  0  0  0  0  0 
   -0.6291   -1.0809    1.8618 H   0  0  0  0  0  0  0  0  0  0  0  0 
    1.9037   -1.4196    0.8299 H   0  0  0  0  0  0  0  0  0  0  0  0 
    1.8922    2.4446    2.5641 H   0  0  0  0  0  0  0  0  0  0  0  0 
  1  3  1  0  0  0  0 
  1  2  1  0  0  0  0 
  2  4  1  0  0  0  0 
  3  9  1  0  0  0  0 
  3  7  2  0  0  0  0 
  4  8  2  0  0  0  0 
  4 10  1  0  0  0  0 
  5 15  1  0  0  0  0 
  6 17  1  0  0  0  0 
  6  8  1  0  0  0  0 
  7  5  1  0  0  0  0 
  9 19  1  0  0  0  0 
 11  1  1  0  0  0  0 
 12  1  1  0  0  0  0 
 13  2  1  0  0  0  0 
 14  2  1  0  0  0  0 
 16  5  1  0  0  0  0 
 18  6  1  0  0  0  0 
 20 10  1  0  0  0  0 
M  END 
>  <HBA> 
6 
 
>  <HBD> 
4 
 
>  <TPSA> 
110.24 
 
>  <cid> 
72491 
 
>  <dipole> 
5.33 
 
>  <excitation_energy_1> 
5.023 
 
>  <excitation_energy_2> 
5.246 
 
>  <excitation_energy_3> 
5.417 
 
>  <excitation_energy_4> 
5.632 
 
>  <homo_energy> 
-5.91 
 
>  <homo_lumo_gap> 
6.392 
 
>  <logP> 
-0.071 
 
>  <lumo_energy> 
0.482 
 
>  <melting_point> 
180.4 
 
>  <molecular_refractivity> 
32.76 
 
>  <oscillator_strength_1> 
0.0083 
 
>  <oscillator_strength_2> 
0.006 
 
>  <oscillator_strength_3> 
0.0003 
 
>  <oscillator_strength_4> 
0.0135 
 
>  <open_babel_can_smiles> 
N/N=C(\CC/C(=N\N)/O)/O 
 
>  <mulliken_charges> 
20 
1   -0.352998 
2   -0.353765 
3   0.493223 
4   0.493699 
5   -0.626836 
6   -0.627167 
7   -0.301861 
8   -0.301539 
9   -0.617966 
10   -0.617636 
11   0.157247 
12   0.16439 
13   0.157399 
14   0.164508 
15   0.340657 
16   0.304389 
17   0.340769 
18   0.304541 
19   0.439661 
20   0.439285 
 
>  <lowdin_charges> 
20 
1   -0.308708 
2   -0.305356 
3   0.102233 
4   0.102132 
5   -0.461474 
6   -0.459161 
7   -0.155714 
8   -0.157623 
9   -0.382942 
10   -0.381577 
11   0.15903 
12   0.165767 
13   0.157423 
14   0.163062 
15   0.275573 
16   0.249843 
17   0.276138 
18   0.248762 
19   0.355824 
20   0.356767 
 
$$$$ 
 
