PCCDB-ID:  54460 
public computational chemistry database (PCCDB) project, http://pccdb.org 
 
 26 25  0  0  0  0  0  0  0  0999 V2000 
    0.8699   -1.6213    1.6148 C   0  0  0  0  0  0  0  0  0  0  0  0 
    4.6106    7.5615    3.9967 C   0  0  0  0  0  0  0  0  0  0  0  0 
    3.2415    2.5269    2.4352 C   0  0  0  0  0  0  0  0  0  0  0  0 
    2.2376    3.4162    3.1658 C   0  0  0  0  0  0  0  0  0  0  0  0 
    2.0795    0.4966    2.1342 C   0  0  0  0  0  0  0  0  0  0  0  0 
    3.4003    5.4453    3.4719 C   0  0  0  0  0  0  0  0  0  0  0  0 
    1.4092    0.0438   -0.1202 N   0  0  0  0  0  0  0  0  0  0  0  0 
    4.0660    5.8945    5.7283 N   0  0  0  0  0  0  0  0  0  0  0  0 
    1.4560   -0.3483    1.1997 N   0  0  0  0  0  0  0  0  0  0  0  0 
    4.0247    6.2873    4.4084 N   0  0  0  0  0  0  0  0  0  0  0  0 
    2.1683    0.2136    3.3099 O   0  0  0  0  0  0  0  0  0  0  0  0 
    3.3120    5.7313    2.2969 O   0  0  0  0  0  0  0  0  0  0  0  0 
    0.8489   -0.7667   -0.8296 O   0  0  0  0  0  0  0  0  0  0  0  0 
    4.6241    6.7042    6.4404 O   0  0  0  0  0  0  0  0  0  0  0  0 
    2.5442    1.6160    1.5595 O   0  0  0  0  0  0  0  0  0  0  0  0 
    2.9352    4.3247    4.0439 O   0  0  0  0  0  0  0  0  0  0  0  0 
    1.0189   -1.7188    2.6876 H   0  0  0  0  0  0  0  0  0  0  0  0 
    1.3577   -2.4407    1.0805 H   0  0  0  0  0  0  0  0  0  0  0  0 
   -0.1948   -1.6320    1.3676 H   0  0  0  0  0  0  0  0  0  0  0  0 
    4.4614    7.6620    2.9243 H   0  0  0  0  0  0  0  0  0  0  0  0 
    5.6755    7.5714    4.2432 H   0  0  0  0  0  0  0  0  0  0  0  0 
    4.1232    8.3793    4.5340 H   0  0  0  0  0  0  0  0  0  0  0  0 
    3.8514    1.9681    3.1479 H   0  0  0  0  0  0  0  0  0  0  0  0 
    3.8714    3.1210    1.7727 H   0  0  0  0  0  0  0  0  0  0  0  0 
    1.6060    2.8219    3.8264 H   0  0  0  0  0  0  0  0  0  0  0  0 
    1.6295    3.9772    2.4533 H   0  0  0  0  0  0  0  0  0  0  0  0 
  1 17  1  0  0  0  0 
  2 21  1  0  0  0  0 
  2 10  1  0  0  0  0 
  2 22  1  0  0  0  0 
  3 23  1  0  0  0  0 
  3  4  1  0  0  0  0 
  4 25  1  0  0  0  0 
  4 16  1  0  0  0  0 
  5 11  2  0  0  0  0 
  6 16  1  0  0  0  0 
  6 10  1  0  0  0  0 
  7  9  1  0  0  0  0 
  8 14  1  0  0  0  0 
  9  1  1  0  0  0  0 
  9  5  1  0  0  0  0 
 10  8  1  0  0  0  0 
 12  6  2  0  0  0  0 
 13  7  1  0  0  0  0 
 15  5  1  0  0  0  0 
 15  3  1  0  0  0  0 
 18  1  1  0  0  0  0 
 19  1  1  0  0  0  0 
 20  2  1  0  0  0  0 
 24  3  1  0  0  0  0 
 26  4  1  0  0  0  0 
M  RAD  4   7   2   8   2  13   2  14   2 
M  END 
>  <HBA> 
10 
 
>  <HBD> 
0 
 
>  <TPSA> 
117.94 
 
>  <cid> 
54460 
 
>  <dipole> 
0.01 
 
>  <excitation_energy_1> 
2.985 
 
>  <excitation_energy_2> 
2.985 
 
>  <excitation_energy_3> 
4.465 
 
>  <excitation_energy_4> 
4.465 
 
>  <homo_energy> 
-6.95 
 
>  <homo_lumo_gap> 
4.816 
 
>  <logP> 
0.486 
 
>  <lumo_energy> 
-2.133 
 
>  <melting_point> 
62.36 
 
>  <molecular_refractivity> 
49.57 
 
>  <oscillator_strength_1> 
0.0001 
 
>  <oscillator_strength_2> 
0.0022 
 
>  <oscillator_strength_3> 
0.0 
 
>  <oscillator_strength_4> 
0.0001 
 
>  <open_babel_can_smiles> 
[O][N]N(C(=O)OCCOC(=O)N([N][O])C)C 
 
>  <mulliken_charges> 
26 
1   -0.328702 
2   -0.328694 
3   -0.069383 
4   -0.069517 
5   0.828328 
6   0.828324 
7   0.200698 
8   0.200719 
9   -0.348257 
10   -0.348236 
11   -0.486065 
12   -0.486106 
13   -0.315863 
14   -0.315871 
15   -0.452754 
16   -0.45272 
17   0.20984 
18   0.190841 
19   0.19007 
20   0.209837 
21   0.190023 
22   0.190886 
23   0.189246 
24   0.192024 
25   0.192066 
26   0.189267 
 
>  <lowdin_charges> 
26 
1   -0.363949 
2   -0.363948 
3   -0.141078 
4   -0.141105 
5   0.213825 
6   0.213871 
7   0.092844 
8   0.092861 
9   -0.045334 
10   -0.045339 
11   -0.272104 
12   -0.272171 
13   -0.201171 
14   -0.201184 
15   -0.16384 
16   -0.163822 
17   0.188514 
18   0.174828 
19   0.171827 
20   0.188519 
21   0.171787 
22   0.174871 
23   0.1702 
24   0.175433 
25   0.175444 
26   0.17022 
 
$$$$ 
 
