PCCDB-ID:  66172 
public computational chemistry database (PCCDB) project, http://pccdb.org 
 
 13 13  0  0  0  0  0  0  0  0999 V2000 
    0.9377   -0.1657    0.0798 C   0  0  0  0  0  0  0  0  0  0  0  0 
    3.2055    1.1019   -0.0106 C   0  0  0  0  0  0  0  0  0  0  0  0 
    2.4154    0.0099    0.0222 C   0  0  0  0  0  0  0  0  0  0  0  0 
    4.5900    0.6435   -0.0365 C   0  0  0  0  0  0  0  0  0  0  0  0 
    5.7410    1.1939    0.0684 N   0  0  0  0  0  0  0  0  0  0  0  0 
    4.4924   -0.7655   -0.2356 N   0  0  0  0  0  0  0  0  0  0  0  0 
    3.1266   -1.1510   -0.0176 O   0  0  0  0  0  0  0  0  0  0  0  0 
    0.4428    0.8051    0.1557 H   0  0  0  0  0  0  0  0  0  0  0  0 
    0.6539   -0.7765    0.9444 H   0  0  0  0  0  0  0  0  0  0  0  0 
    0.5759   -0.6780   -0.8191 H   0  0  0  0  0  0  0  0  0  0  0  0 
    2.8849    2.1327    0.0258 H   0  0  0  0  0  0  0  0  0  0  0  0 
    5.6370    2.2062    0.1526 H   0  0  0  0  0  0  0  0  0  0  0  0 
    5.0575   -1.3284    0.3957 H   0  0  0  0  0  0  0  0  0  0  0  0 
  1  8  1  0  0  0  0 
  1  9  1  0  0  0  0 
  2  3  2  0  0  0  0 
  2 11  1  0  0  0  0 
  3  1  1  0  0  0  0 
  4  2  1  0  0  0  0 
  4  5  2  0  0  0  0 
  5 12  1  0  0  0  0 
  6  4  1  0  0  0  0 
  6  7  1  0  0  0  0 
  6 13  1  0  0  0  0 
  7  3  1  0  0  0  0 
 10  1  1  0  0  0  0 
M  END 
>  <HBA> 
3 
 
>  <HBD> 
1 
 
>  <TPSA> 
52.05 
 
>  <cid> 
66172 
 
>  <dipole> 
3.77 
 
>  <excitation_energy_1> 
4.995 
 
>  <excitation_energy_2> 
5.222 
 
>  <excitation_energy_3> 
5.41 
 
>  <excitation_energy_4> 
5.516 
 
>  <homo_energy> 
-5.766 
 
>  <homo_lumo_gap> 
5.385 
 
>  <logP> 
1.146 
 
>  <lumo_energy> 
-0.381 
 
>  <melting_point> 
72.04 
 
>  <molecular_refractivity> 
25.87 
 
>  <oscillator_strength_1> 
0.1516 
 
>  <oscillator_strength_2> 
0.0098 
 
>  <oscillator_strength_3> 
0.0073 
 
>  <oscillator_strength_4> 
0.0255 
 
>  <open_babel_can_smiles> 
Cc1cc(=N)[nH]o1 
 
>  <mulliken_charges> 
13 
1   -0.526684 
2   -0.276462 
3   0.42941 
4   0.438215 
5   -0.666492 
6   -0.323768 
7   -0.404722 
8   0.176888 
9   0.18442 
10   0.189799 
11   0.147297 
12   0.28177 
13   0.35033 
 
>  <lowdin_charges> 
13 
1   -0.442379 
2   -0.271699 
3   0.120119 
4   0.078655 
5   -0.441722 
6   -0.161842 
7   -0.134137 
8   0.174262 
9   0.177056 
10   0.179576 
11   0.175218 
12   0.255265 
13   0.291628 
 
$$$$ 
 
