PCCDB-ID:  22639 
public computational chemistry database (PCCDB) project, http://pccdb.org 
 
 21 21  0  0  0  0  0  0  0  0999 V2000 
    0.9077   -0.4991   -0.2809 C   0  0  0  0  0  0  0  0  0  0  0  0 
    1.4188    2.4874    0.8879 C   0  0  0  0  0  0  0  0  0  0  0  0 
    3.2378   -1.4527   -0.1301 C   0  0  0  0  0  0  0  0  0  0  0  0 
    4.6294   -1.3573   -0.1148 C   0  0  0  0  0  0  0  0  0  0  0  0 
    4.4153    1.0470   -0.1777 C   0  0  0  0  0  0  0  0  0  0  0  0 
    2.4048   -0.3320   -0.1776 C   0  0  0  0  0  0  0  0  0  0  0  0 
    5.2195   -0.0928   -0.1523 C   0  0  0  0  0  0  0  0  0  0  0  0 
    3.0182    0.9438   -0.1885 C   0  0  0  0  0  0  0  0  0  0  0  0 
    2.2359    2.1242   -0.2747 N   0  0  0  0  0  0  0  0  0  0  0  0 
    6.5771    0.0961   -0.1497 O   0  0  0  0  0  0  0  0  0  0  0  0 
    0.6572   -1.4787   -0.7018 H   0  0  0  0  0  0  0  0  0  0  0  0 
    0.4748    0.2733   -0.9258 H   0  0  0  0  0  0  0  0  0  0  0  0 
    0.4031   -0.4320    0.6931 H   0  0  0  0  0  0  0  0  0  0  0  0 
    0.9240    3.4415    0.6807 H   0  0  0  0  0  0  0  0  0  0  0  0 
    2.0006    2.5876    1.8188 H   0  0  0  0  0  0  0  0  0  0  0  0 
    0.6397    1.7411    1.0558 H   0  0  0  0  0  0  0  0  0  0  0  0 
    2.7817   -2.4404   -0.1313 H   0  0  0  0  0  0  0  0  0  0  0  0 
    5.2448   -2.2546   -0.0918 H   0  0  0  0  0  0  0  0  0  0  0  0 
    4.8957    2.0221   -0.1822 H   0  0  0  0  0  0  0  0  0  0  0  0 
    2.8327    2.9081   -0.5219 H   0  0  0  0  0  0  0  0  0  0  0  0 
    7.0097   -0.7709   -0.1137 H   0  0  0  0  0  0  0  0  0  0  0  0 
  1  6  1  0  0  0  0 
  1 13  1  0  0  0  0 
  2 16  1  0  0  0  0 
  2 15  1  0  0  0  0 
  3  4  1  0  0  0  0 
  4 18  1  0  0  0  0 
  5  7  1  0  0  0  0 
  6  3  2  0  0  0  0 
  7 10  1  0  0  0  0 
  7  4  2  0  0  0  0 
  8  5  2  0  0  0  0 
  8  6  1  0  0  0  0 
  9  8  1  0  0  0  0 
  9  2  1  0  0  0  0 
 10 21  1  0  0  0  0 
 11  1  1  0  0  0  0 
 12  1  1  0  0  0  0 
 14  2  1  0  0  0  0 
 17  3  1  0  0  0  0 
 19  5  1  0  0  0  0 
 20  9  1  0  0  0  0 
M  END 
>  <HBA> 
2 
 
>  <HBD> 
2 
 
>  <TPSA> 
32.26 
 
>  <cid> 
22639 
 
>  <dipole> 
0.8 
 
>  <excitation_energy_1> 
4.697 
 
>  <excitation_energy_2> 
4.868 
 
>  <excitation_energy_3> 
5.02 
 
>  <excitation_energy_4> 
5.316 
 
>  <homo_energy> 
-5.391 
 
>  <homo_lumo_gap> 
5.674 
 
>  <logP> 
1.815 
 
>  <lumo_energy> 
0.283 
 
>  <melting_point> 
83.68 
 
>  <molecular_refractivity> 
42.74 
 
>  <oscillator_strength_1> 
0.0547 
 
>  <oscillator_strength_2> 
0.0018 
 
>  <oscillator_strength_3> 
0.0263 
 
>  <oscillator_strength_4> 
0.024 
 
>  <open_babel_can_smiles> 
CNc1cc(O)ccc1C 
 
>  <mulliken_charges> 
21 
1   -0.540101 
2   -0.314102 
3   -0.205591 
4   -0.194733 
5   -0.227316 
6   0.167192 
7   0.348823 
8   0.235677 
9   -0.621842 
10   -0.649529 
11   0.149477 
12   0.173241 
13   0.15299 
14   0.151283 
15   0.139451 
16   0.165755 
17   0.120484 
18   0.11088 
19   0.123659 
20   0.308871 
21   0.405431 
 
>  <lowdin_charges> 
21 
1   -0.444373 
2   -0.355832 
3   -0.15029 
4   -0.232977 
5   -0.225272 
6   -0.039156 
7   0.105731 
8   0.04816 
9   -0.320695 
10   -0.385031 
11   0.154603 
12   0.166332 
13   0.151225 
14   0.152294 
15   0.132638 
16   0.157161 
17   0.153832 
18   0.151456 
19   0.159713 
20   0.264731 
21   0.355751 
 
$$$$ 
 
