PCCDB-ID:  65161 
public computational chemistry database (PCCDB) project, http://pccdb.org 
 
 27 28  0  0  1  0  0  0  0  0999 V2000 
   -0.0719   -0.4776   -0.0649 C   0  0  0  0  0  0  0  0  0  0  0  0 
    0.5233   -1.2271    1.1380 C   0  0  0  0  0  0  0  0  0  0  0  0 
    3.5571    2.2972    1.5180 C   0  0  0  0  0  0  0  0  0  0  0  0 
    2.3008    1.7677    1.5911 C   0  0  0  0  0  0  0  0  0  0  0  0 
   -2.3353    0.3627    0.8462 C   0  0  0  0  0  0  0  0  0  0  0  0 
   -0.8593    0.6628    0.5936 C   0  0  1  0  0  0  0  0  0  0  0  0 
    4.6209    1.4472    1.9515 C   0  0  0  0  0  0  0  0  0  0  0  0 
    0.7497   -0.1031    2.1570 C   0  0  1  0  0  0  0  0  0  0  0  0 
    3.2023   -0.3020    2.5009 C   0  0  0  0  0  0  0  0  0  0  0  0 
    4.4596    0.2375    2.4121 N   0  0  0  0  0  0  0  0  0  0  0  0 
    2.1077    0.5057    2.0346 N   0  0  0  0  0  0  0  0  0  0  0  0 
   -2.9398    1.3751    1.6265 O   0  0  0  0  0  0  0  0  0  0  0  0 
    5.9000    1.8821    1.9045 O   0  0  0  0  0  0  0  0  0  0  0  0 
    2.9469   -1.4151    2.9395 O   0  0  0  0  0  0  0  0  0  0  0  0 
   -0.2345    0.8731    1.8971 O   0  0  0  0  0  0  0  0  0  0  0  0 
   -0.7098   -1.1155   -0.6849 H   0  0  0  0  0  0  0  0  0  0  0  0 
    0.7212   -0.0785   -0.7058 H   0  0  0  0  0  0  0  0  0  0  0  0 
    1.4386   -1.7779    0.9235 H   0  0  0  0  0  0  0  0  0  0  0  0 
   -0.1998   -1.9347    1.5572 H   0  0  0  0  0  0  0  0  0  0  0  0 
    3.7175    3.3101    1.1667 H   0  0  0  0  0  0  0  0  0  0  0  0 
    1.4070    2.3172    1.3227 H   0  0  0  0  0  0  0  0  0  0  0  0 
   -2.4335   -0.6289    1.3204 H   0  0  0  0  0  0  0  0  0  0  0  0 
   -2.8735    0.3314   -0.1075 H   0  0  0  0  0  0  0  0  0  0  0  0 
   -0.7815    1.6109    0.0494 H   0  0  0  0  0  0  0  0  0  0  0  0 
    0.6646   -0.4432    3.1903 H   0  0  0  0  0  0  0  0  0  0  0  0 
   -2.3804    1.4693    2.4158 H   0  0  0  0  0  0  0  0  0  0  0  0 
    5.9191    2.7861    1.5527 H   0  0  0  0  0  0  0  0  0  0  0  0 
  1  6  1  0  0  0  0 
  1  2  1  0  0  0  0 
  2 19  1  0  0  0  0 
  2  8  1  0  0  0  0 
  3  4  2  0  0  0  0 
  3  7  1  0  0  0  0 
  4 11  1  0  0  0  0 
  5 22  1  0  0  0  0 
  5 12  1  0  0  0  0 
  6 24  1  6  0  0  0 
  6  5  1  0  0  0  0 
  6 15  1  0  0  0  0 
  7 10  2  0  0  0  0 
  8 25  1  1  0  0  0 
  9 14  2  0  0  0  0 
 10  9  1  0  0  0  0 
 11  8  1  0  0  0  0 
 11  9  1  0  0  0  0 
 12 26  1  0  0  0  0 
 13  7  1  0  0  0  0 
 15  8  1  0  0  0  0 
 16  1  1  0  0  0  0 
 17  1  1  0  0  0  0 
 18  2  1  0  0  0  0 
 20  3  1  0  0  0  0 
 21  4  1  0  0  0  0 
 23  5  1  0  0  0  0 
 27 13  1  0  0  0  0 
M  END 
>  <HBA> 
5 
 
>  <HBD> 
2 
 
>  <TPSA> 
84.32 
 
>  <cid> 
65161 
 
>  <dipole> 
5.46 
 
>  <excitation_energy_1> 
4.641 
 
>  <excitation_energy_2> 
4.782 
 
>  <excitation_energy_3> 
5.131 
 
>  <excitation_energy_4> 
5.461 
 
>  <homo_energy> 
-6.43 
 
>  <homo_lumo_gap> 
5.306 
 
>  <logP> 
-0.793 
 
>  <lumo_energy> 
-1.124 
 
>  <melting_point> 
153.23 
 
>  <molecular_refractivity> 
51.95 
 
>  <oscillator_strength_1> 
0.0971 
 
>  <oscillator_strength_2> 
0.0007 
 
>  <oscillator_strength_3> 
0.0008 
 
>  <oscillator_strength_4> 
0.0092 
 
>  <open_babel_can_smiles> 
OC[C@@H]1CC[C@H](O1)n1ccc(nc1=O)O 
 
>  <mulliken_charges> 
27 
1   -0.32676 
2   -0.3024 
3   -0.267571 
4   0.119391 
5   -0.030529 
6   0.117987 
7   0.526141 
8   0.287168 
9   0.714666 
10   -0.51455 
11   -0.499052 
12   -0.618347 
13   -0.578134 
14   -0.524745 
15   -0.536444 
16   0.162851 
17   0.158674 
18   0.19612 
19   0.162297 
20   0.14134 
21   0.194065 
22   0.1238 
23   0.148103 
24   0.145158 
25   0.184373 
26   0.402848 
27   0.413551 
 
>  <lowdin_charges> 
27 
1   -0.297794 
2   -0.291901 
3   -0.28583 
4   -0.048202 
5   -0.145514 
6   -0.01689 
7   0.16361 
8   0.068198 
9   0.167469 
10   -0.19534 
11   -0.062759 
12   -0.461405 
13   -0.332346 
14   -0.303998 
15   -0.274075 
16   0.16442 
17   0.157109 
18   0.18021 
19   0.161383 
20   0.168035 
21   0.18595 
22   0.128382 
23   0.151453 
24   0.14547 
25   0.167767 
26   0.346467 
27   0.360131 
 
$$$$ 
 
