PCCDB-ID:  7579 
public computational chemistry database (PCCDB) project, http://pccdb.org 
 
 27 28  0  0  0  0  0  0  0  0999 V2000 
    1.0022    1.1392   -1.5867 C   0  0  0  0  0  0  0  0  0  0  0  0 
   -0.8343    2.3470   -2.5725 C   0  0  0  0  0  0  0  0  0  0  0  0 
   -4.2229   -1.9374   -3.7610 C   0  0  0  0  0  0  0  0  0  0  0  0 
   -5.4799   -1.8609   -1.7054 C   0  0  0  0  0  0  0  0  0  0  0  0 
    0.1273    0.1290   -1.1961 C   0  0  0  0  0  0  0  0  0  0  0  0 
   -1.7149    1.3437   -2.1735 C   0  0  0  0  0  0  0  0  0  0  0  0 
   -3.0957   -1.4637   -3.0947 C   0  0  0  0  0  0  0  0  0  0  0  0 
   -4.3572   -1.3755   -1.0386 C   0  0  0  0  0  0  0  0  0  0  0  0 
    0.5376    2.2645   -2.2863 C   0  0  0  0  0  0  0  0  0  0  0  0 
   -5.4334   -2.1463   -3.0791 C   0  0  0  0  0  0  0  0  0  0  0  0 
   -1.2342    0.2262   -1.4866 C   0  0  0  0  0  0  0  0  0  0  0  0 
   -3.1619   -1.1761   -1.7289 C   0  0  0  0  0  0  0  0  0  0  0  0 
    1.4298    3.2497   -2.7424 N   0  0  0  0  0  0  0  0  0  0  0  0 
   -6.5472   -2.6864   -3.7413 N   0  0  0  0  0  0  0  0  0  0  0  0 
   -2.0563   -0.7747   -0.9961 O   0  0  0  0  0  0  0  0  0  0  0  0 
    2.0616    1.0501   -1.3560 H   0  0  0  0  0  0  0  0  0  0  0  0 
   -1.2180    3.2103   -3.1122 H   0  0  0  0  0  0  0  0  0  0  0  0 
   -4.1609   -2.1627   -4.8235 H   0  0  0  0  0  0  0  0  0  0  0  0 
   -6.4044   -2.0202   -1.1547 H   0  0  0  0  0  0  0  0  0  0  0  0 
    0.4876   -0.7405   -0.6549 H   0  0  0  0  0  0  0  0  0  0  0  0 
   -2.7741    1.4303   -2.3931 H   0  0  0  0  0  0  0  0  0  0  0  0 
   -2.1652   -1.3152   -3.6334 H   0  0  0  0  0  0  0  0  0  0  0  0 
   -4.3944   -1.1526    0.0232 H   0  0  0  0  0  0  0  0  0  0  0  0 
    2.2767    3.3242   -2.1908 H   0  0  0  0  0  0  0  0  0  0  0  0 
    1.0074    4.1630   -2.8638 H   0  0  0  0  0  0  0  0  0  0  0  0 
   -6.5673   -2.5027   -4.7375 H   0  0  0  0  0  0  0  0  0  0  0  0 
   -7.4369   -2.4502   -3.3178 H   0  0  0  0  0  0  0  0  0  0  0  0 
  1 16  1  0  0  0  0 
  1  5  2  0  0  0  0 
  2  9  2  0  0  0  0 
  2  6  1  0  0  0  0 
  3  7  2  0  0  0  0 
  3 10  1  0  0  0  0 
  4 19  1  0  0  0  0 
  4  8  1  0  0  0  0 
  5 20  1  0  0  0  0 
  6 11  2  0  0  0  0 
  7 12  1  0  0  0  0 
  8 23  1  0  0  0  0 
  9  1  1  0  0  0  0 
 10  4  2  0  0  0  0 
 11  5  1  0  0  0  0 
 11 15  1  0  0  0  0 
 12  8  2  0  0  0  0 
 12 15  1  0  0  0  0 
 13  9  1  0  0  0  0 
 13 24  1  0  0  0  0 
 14 27  1  0  0  0  0 
 14 10  1  0  0  0  0 
 17  2  1  0  0  0  0 
 18  3  1  0  0  0  0 
 21  6  1  0  0  0  0 
 22  7  1  0  0  0  0 
 25 13  1  0  0  0  0 
 26 14  1  0  0  0  0 
M  END 
>  <HBA> 
3 
 
>  <HBD> 
2 
 
>  <TPSA> 
61.27 
 
>  <cid> 
7579 
 
>  <dipole> 
2.82 
 
>  <excitation_energy_1> 
4.035 
 
>  <excitation_energy_2> 
4.414 
 
>  <excitation_energy_3> 
4.422 
 
>  <excitation_energy_4> 
4.457 
 
>  <homo_energy> 
-4.871 
 
>  <homo_lumo_gap> 
4.841 
 
>  <logP> 
3.806 
 
>  <lumo_energy> 
-0.03 
 
>  <melting_point> 
141.06 
 
>  <molecular_refractivity> 
61.77 
 
>  <oscillator_strength_1> 
0.0322 
 
>  <oscillator_strength_2> 
0.0117 
 
>  <oscillator_strength_3> 
0.0156 
 
>  <oscillator_strength_4> 
0.0413 
 
>  <open_babel_can_smiles> 
Nc1ccc(cc1)Oc1ccc(cc1)N 
 
>  <mulliken_charges> 
27 
1   -0.180675 
2   -0.181562 
3   -0.182365 
4   -0.182344 
5   -0.180726 
6   -0.174391 
7   -0.168081 
8   -0.179225 
9   0.304768 
10   0.307906 
11   0.339718 
12   0.336184 
13   -0.787258 
14   -0.787581 
15   -0.587587 
16   0.118957 
17   0.118271 
18   0.120284 
19   0.119225 
20   0.137287 
21   0.14243 
22   0.144877 
23   0.136966 
24   0.316012 
25   0.315649 
26   0.31671 
27   0.316553 
 
>  <lowdin_charges> 
27 
1   -0.190337 
2   -0.192103 
3   -0.190514 
4   -0.193638 
5   -0.170692 
6   -0.178624 
7   -0.174119 
8   -0.167497 
9   0.046303 
10   0.049342 
11   0.078303 
12   0.076282 
13   -0.494512 
14   -0.492 
15   -0.174732 
16   0.152219 
17   0.153757 
18   0.152391 
19   0.154194 
20   0.166959 
21   0.166247 
22   0.169069 
23   0.164715 
24   0.272782 
25   0.271807 
26   0.271391 
27   0.273006 
 
$$$$ 
 
