PCCDB-ID:  70534 
public computational chemistry database (PCCDB) project, http://pccdb.org 
 
 20 20  0  0  0  0  0  0  0  0999 V2000 
   -1.7766    0.3356   -0.3412 C   0  0  0  0  0  0  0  0  0  0  0  0 
   -0.8588    0.7149   -1.3229 C   0  0  0  0  0  0  0  0  0  0  0  0 
   -1.3226   -0.1738    0.8798 C   0  0  0  0  0  0  0  0  0  0  0  0 
    0.5044    0.5840   -1.0809 C   0  0  0  0  0  0  0  0  0  0  0  0 
    0.0392   -0.3067    1.1258 C   0  0  0  0  0  0  0  0  0  0  0  0 
    2.4226   -0.0266    0.2972 C   0  0  0  0  0  0  0  0  0  0  0  0 
    2.7287   -0.9725    2.5668 C   0  0  0  0  0  0  0  0  0  0  0  0 
    0.9814    0.0711    0.1447 C   0  0  0  0  0  0  0  0  0  0  0  0 
    3.2027   -0.4685    1.3208 C   0  0  0  0  0  0  0  0  0  0  0  0 
    4.7019   -0.4242    1.1253 C   0  0  0  0  0  0  0  0  0  0  0  0 
    2.4487   -1.3984    3.6163 N   0  0  0  0  0  0  0  0  0  0  0  0 
    5.2125   -0.0137    0.1101 O   0  0  0  0  0  0  0  0  0  0  0  0 
    5.4601   -0.8703    2.1489 O   0  0  0  0  0  0  0  0  0  0  0  0 
   -2.8427    0.4349   -0.5256 H   0  0  0  0  0  0  0  0  0  0  0  0 
   -1.2051    1.1114   -2.2728 H   0  0  0  0  0  0  0  0  0  0  0  0 
   -2.0354   -0.4686    1.6444 H   0  0  0  0  0  0  0  0  0  0  0  0 
    1.2205    0.8790   -1.8436 H   0  0  0  0  0  0  0  0  0  0  0  0 
    0.3677   -0.7038    2.0789 H   0  0  0  0  0  0  0  0  0  0  0  0 
    3.0063    0.3120   -0.5572 H   0  0  0  0  0  0  0  0  0  0  0  0 
    4.9100   -1.1699    2.8954 H   0  0  0  0  0  0  0  0  0  0  0  0 
  1  3  2  0  0  0  0 
  2  4  2  0  0  0  0 
  2  1  1  0  0  0  0 
  3  5  1  0  0  0  0 
  3 16  1  0  0  0  0 
  4  8  1  0  0  0  0 
  5 18  1  0  0  0  0 
  6  9  2  0  0  0  0 
  7 11  3  0  0  0  0 
  8  6  1  0  0  0  0 
  8  5  2  0  0  0  0 
  9  7  1  0  0  0  0 
 10  9  1  0  0  0  0 
 10 13  1  0  0  0  0 
 12 10  2  0  0  0  0 
 13 20  1  0  0  0  0 
 14  1  1  0  0  0  0 
 15  2  1  0  0  0  0 
 17  4  1  0  0  0  0 
 19  6  1  0  0  0  0 
M  END 
>  <HBA> 
3 
 
>  <HBD> 
1 
 
>  <TPSA> 
61.09 
 
>  <cid> 
70534 
 
>  <dipole> 
5.05 
 
>  <excitation_energy_1> 
4.043 
 
>  <excitation_energy_2> 
4.065 
 
>  <excitation_energy_3> 
4.108 
 
>  <excitation_energy_4> 
5.324 
 
>  <homo_energy> 
-7.042 
 
>  <homo_lumo_gap> 
4.261 
 
>  <logP> 
1.678 
 
>  <lumo_energy> 
-2.781 
 
>  <melting_point> 
139.99 
 
>  <molecular_refractivity> 
47.67 
 
>  <oscillator_strength_1> 
0.3891 
 
>  <oscillator_strength_2> 
0.0005 
 
>  <oscillator_strength_3> 
0.2248 
 
>  <oscillator_strength_4> 
0.0022 
 
>  <open_babel_can_smiles> 
N#C/C(=C\c1ccccc1)/C(=O)O 
 
>  <mulliken_charges> 
20 
1   -0.115814 
2   -0.13283 
3   -0.133211 
4   -0.173365 
5   -0.178582 
6   -0.190582 
7   0.235904 
8   0.1717 
9   0.052376 
10   0.608277 
11   -0.51241 
12   -0.449738 
13   -0.580202 
14   0.14864 
15   0.14812 
16   0.150879 
17   0.153009 
18   0.17522 
19   0.195202 
20   0.427407 
 
>  <lowdin_charges> 
20 
1   -0.127064 
2   -0.151927 
3   -0.149107 
4   -0.136024 
5   -0.138953 
6   -0.061326 
7   -0.027412 
8   -0.016457 
9   -0.105191 
10   0.202906 
11   -0.122953 
12   -0.242733 
13   -0.339618 
14   0.165357 
15   0.167003 
16   0.169231 
17   0.169 
18   0.181156 
19   0.193913 
20   0.3702 
 
$$$$ 
 
