PCCDB-ID:  16504 
public computational chemistry database (PCCDB) project, http://pccdb.org 
 
 26 26  0  0  0  0  0  0  0  0999 V2000 
    2.0582    1.0132    0.1485 C   0  0  0  0  0  0  0  0  0  0  0  0 
    4.5837    1.1453   -0.0253 C   0  0  0  0  0  0  0  0  0  0  0  0 
    4.2475    0.6777   -5.2390 C   0  0  0  0  0  0  0  0  0  0  0  0 
    2.9558   -2.8004   -1.6253 C   0  0  0  0  0  0  0  0  0  0  0  0 
    3.3733   -2.8718   -2.9529 C   0  0  0  0  0  0  0  0  0  0  0  0 
    2.9272   -1.5699   -0.9721 C   0  0  0  0  0  0  0  0  0  0  0  0 
    3.7611   -1.7040   -3.5995 C   0  0  0  0  0  0  0  0  0  0  0  0 
    3.2680    0.9274   -0.8003 C   0  0  0  0  0  0  0  0  0  0  0  0 
    4.2549    0.7351   -3.7138 C   0  0  0  0  0  0  0  0  0  0  0  0 
    3.3251   -0.3774   -1.5944 C   0  0  0  0  0  0  0  0  0  0  0  0 
    3.7640   -0.4573   -2.9455 C   0  0  0  0  0  0  0  0  0  0  0  0 
    4.6698    1.7457   -3.1627 O   0  0  0  0  0  0  0  0  0  0  0  0 
    1.9895    2.0266    0.5601 H   0  0  0  0  0  0  0  0  0  0  0  0 
    2.1414    0.3286    1.0008 H   0  0  0  0  0  0  0  0  0  0  0  0 
    1.1179    0.7947   -0.3703 H   0  0  0  0  0  0  0  0  0  0  0  0 
    4.5493    2.0958    0.5207 H   0  0  0  0  0  0  0  0  0  0  0  0 
    5.4343    1.1788   -0.7104 H   0  0  0  0  0  0  0  0  0  0  0  0 
    4.7496    0.3418    0.7034 H   0  0  0  0  0  0  0  0  0  0  0  0 
    5.0410    0.0168   -5.6093 H   0  0  0  0  0  0  0  0  0  0  0  0 
    4.4390    1.6844   -5.6146 H   0  0  0  0  0  0  0  0  0  0  0  0 
    3.2964    0.3057   -5.6342 H   0  0  0  0  0  0  0  0  0  0  0  0 
    2.6442   -3.6985   -1.0981 H   0  0  0  0  0  0  0  0  0  0  0  0 
    3.3953   -3.8221   -3.4787 H   0  0  0  0  0  0  0  0  0  0  0  0 
    2.5843   -1.5371    0.0568 H   0  0  0  0  0  0  0  0  0  0  0  0 
    4.0854   -1.7642   -4.6328 H   0  0  0  0  0  0  0  0  0  0  0  0 
    3.1837    1.7492   -1.5135 H   0  0  0  0  0  0  0  0  0  0  0  0 
  1 13  1  0  0  0  0 
  1 14  1  0  0  0  0 
  2 16  1  0  0  0  0 
  2 18  1  0  0  0  0 
  3  9  1  0  0  0  0 
  4 22  1  0  0  0  0 
  4  6  2  0  0  0  0 
  5  4  1  0  0  0  0 
  6 24  1  0  0  0  0 
  7  5  2  0  0  0  0 
  7 11  1  0  0  0  0 
  8  2  1  0  0  0  0 
  8  1  1  0  0  0  0 
  9 12  2  0  0  0  0 
  9 11  1  0  0  0  0 
 10  6  1  0  0  0  0 
 10  8  1  0  0  0  0 
 11 10  2  0  0  0  0 
 15  1  1  0  0  0  0 
 17  2  1  0  0  0  0 
 19  3  1  0  0  0  0 
 20  3  1  0  0  0  0 
 21  3  1  0  0  0  0 
 23  5  1  0  0  0  0 
 25  7  1  0  0  0  0 
 26  8  1  0  0  0  0 
M  END 
>  <HBA> 
1 
 
>  <HBD> 
0 
 
>  <TPSA> 
17.07 
 
>  <cid> 
16504 
 
>  <dipole> 
2.57 
 
>  <excitation_energy_1> 
3.709 
 
>  <excitation_energy_2> 
4.56 
 
>  <excitation_energy_3> 
5.111 
 
>  <excitation_energy_4> 
5.498 
 
>  <homo_energy> 
-6.555 
 
>  <homo_lumo_gap> 
5.181 
 
>  <logP> 
3.013 
 
>  <lumo_energy> 
-1.374 
 
>  <melting_point> 
41.72 
 
>  <molecular_refractivity> 
51.22 
 
>  <oscillator_strength_1> 
0.0006 
 
>  <oscillator_strength_2> 
0.0462 
 
>  <oscillator_strength_3> 
0.1727 
 
>  <oscillator_strength_4> 
0.0147 
 
>  <open_babel_can_smiles> 
CC(=O)c1ccccc1C(C)C 
 
>  <mulliken_charges> 
26 
1   -0.454246 
2   -0.437307 
3   -0.538776 
4   -0.118414 
5   -0.132986 
6   -0.186776 
7   -0.182786 
8   -0.13924 
9   0.390908 
10   0.124443 
11   0.038723 
12   -0.452603 
13   0.146046 
14   0.139741 
15   0.145791 
16   0.140027 
17   0.167795 
18   0.132454 
19   0.173457 
20   0.1806 
21   0.168536 
22   0.135281 
23   0.133427 
24   0.131946 
25   0.133097 
26   0.160862 
 
>  <lowdin_charges> 
26 
1   -0.445771 
2   -0.43951 
3   -0.477452 
4   -0.139771 
5   -0.164227 
6   -0.164053 
7   -0.14781 
8   -0.127449 
9   0.163699 
10   0.027763 
11   -0.058499 
12   -0.24322 
13   0.151871 
14   0.143627 
15   0.150088 
16   0.148423 
17   0.161955 
18   0.142533 
19   0.172314 
20   0.174038 
21   0.166582 
22   0.160912 
23   0.159855 
24   0.15965 
25   0.160258 
26   0.164191 
 
$$$$ 
 
