PCCDB-ID:  62000 
public computational chemistry database (PCCDB) project, http://pccdb.org 
 
 17 16  0  0  0  0  0  0  0  0999 V2000 
    3.4319    1.9803   -2.7494 C   0  0  0  0  0  0  0  0  0  0  0  0 
    6.3230   -1.1079   -2.9256 C   0  0  0  0  0  0  0  0  0  0  0  0 
    5.2871   -0.7509   -1.8569 C   0  0  0  0  0  0  0  0  0  0  0  0 
    6.3471   -2.5684   -3.3141 C   0  0  0  0  0  0  0  0  0  0  0  0 
    3.8318   -0.7875   -2.3467 C   0  0  0  0  0  0  0  0  0  0  0  0 
    5.6257   -3.4254   -2.8496 O   0  0  0  0  0  0  0  0  0  0  0  0 
    3.4032    0.4060   -3.6781 S   0  0  0  0  0  0  0  0  0  0  0  0 
    4.4314    2.2213   -2.3764 H   0  0  0  0  0  0  0  0  0  0  0  0 
    2.7236    1.9562   -1.9151 H   0  0  0  0  0  0  0  0  0  0  0  0 
    3.1241    2.7635   -3.4473 H   0  0  0  0  0  0  0  0  0  0  0  0 
    7.3413   -0.8506   -2.5953 H   0  0  0  0  0  0  0  0  0  0  0  0 
    6.1610   -0.5208   -3.8425 H   0  0  0  0  0  0  0  0  0  0  0  0 
    5.5180    0.2406   -1.4493 H   0  0  0  0  0  0  0  0  0  0  0  0 
    5.3740   -1.4608   -1.0245 H   0  0  0  0  0  0  0  0  0  0  0  0 
    7.1071   -2.8311   -4.0850 H   0  0  0  0  0  0  0  0  0  0  0  0 
    3.1470   -0.6225   -1.5071 H   0  0  0  0  0  0  0  0  0  0  0  0 
    3.6032   -1.7733   -2.7610 H   0  0  0  0  0  0  0  0  0  0  0  0 
  1  8  1  0  0  0  0 
  1  9  1  0  0  0  0 
  2 11  1  0  0  0  0 
  2  3  1  0  0  0  0 
  3 13  1  0  0  0  0 
  3 14  1  0  0  0  0 
  4  2  1  0  0  0  0 
  4  6  2  0  0  0  0 
  5  3  1  0  0  0  0 
  5 16  1  0  0  0  0 
  7  1  1  0  0  0  0 
  7  5  1  0  0  0  0 
 10  1  1  0  0  0  0 
 12  2  1  0  0  0  0 
 15  4  1  0  0  0  0 
 17  5  1  0  0  0  0 
M  END 
>  <HBA> 
2 
 
>  <HBD> 
0 
 
>  <TPSA> 
42.37 
 
>  <cid> 
62000 
 
>  <dipole> 
3.0 
 
>  <excitation_energy_1> 
4.308 
 
>  <excitation_energy_2> 
4.498 
 
>  <excitation_energy_3> 
5.165 
 
>  <excitation_energy_4> 
5.51 
 
>  <homo_energy> 
-6.014 
 
>  <homo_lumo_gap> 
5.404 
 
>  <logP> 
1.329 
 
>  <lumo_energy> 
-0.61 
 
>  <melting_point> 
14.8 
 
>  <molecular_refractivity> 
33.94 
 
>  <oscillator_strength_1> 
0.0004 
 
>  <oscillator_strength_2> 
0.0027 
 
>  <oscillator_strength_3> 
0.0011 
 
>  <oscillator_strength_4> 
0.0128 
 
>  <open_babel_can_smiles> 
CSCCCC=O 
 
>  <mulliken_charges> 
17 
1   -0.582572 
2   -0.352004 
3   -0.253769 
4   0.254818 
5   -0.420405 
6   -0.386668 
7   0.076319 
8   0.17538 
9   0.176396 
10   0.184739 
11   0.162281 
12   0.190429 
13   0.140316 
14   0.160872 
15   0.108179 
16   0.167018 
17   0.198671 
 
>  <lowdin_charges> 
17 
1   -0.549094 
2   -0.318839 
3   -0.278476 
4   0.059623 
5   -0.379637 
6   -0.225688 
7   0.08752 
8   0.158299 
9   0.162055 
10   0.177552 
11   0.166308 
12   0.178367 
13   0.146686 
14   0.159752 
15   0.118238 
16   0.159009 
17   0.178325 
 
$$$$ 
 
