PCCDB-ID:  26306 
public computational chemistry database (PCCDB) project, http://pccdb.org 
 
 27 27  0  0  0  0  0  0  0  0999 V2000 
    3.9353    4.2619    2.0954 C   0  0  0  0  0  0  0  0  0  0  0  0 
    5.4342    4.5275    2.2635 C   0  0  0  0  0  0  0  0  0  0  0  0 
    7.4899    5.7974   -2.9234 C   0  0  0  0  0  0  0  0  0  0  0  0 
    7.0848    5.4308   -1.6432 C   0  0  0  0  0  0  0  0  0  0  0  0 
    6.1703    4.6656    0.9363 C   0  0  0  0  0  0  0  0  0  0  0  0 
    5.7550    7.4485   -3.0030 C   0  0  0  0  0  0  0  0  0  0  0  0 
    6.8337    6.8164   -3.6276 C   0  0  0  0  0  0  0  0  0  0  0  0 
    5.3214    7.0906   -1.7177 C   0  0  0  0  0  0  0  0  0  0  0  0 
    6.0032    6.0648   -1.0160 C   0  0  0  0  0  0  0  0  0  0  0  0 
    4.1369    7.7759   -1.1369 C   0  0  0  0  0  0  0  0  0  0  0  0 
    7.2854    7.2331   -4.8915 N   0  0  0  0  0  0  0  0  0  0  0  0 
    3.5233    7.4715   -0.1344 O   0  0  0  0  0  0  0  0  0  0  0  0 
    3.7521    8.8536   -1.8867 O   0  0  0  0  0  0  0  0  0  0  0  0 
    5.5845    5.7617    0.2370 O   0  0  0  0  0  0  0  0  0  0  0  0 
    3.4458    4.1572    3.0700 H   0  0  0  0  0  0  0  0  0  0  0  0 
    3.7587    3.3364    1.5322 H   0  0  0  0  0  0  0  0  0  0  0  0 
    3.4605    5.0855    1.5549 H   0  0  0  0  0  0  0  0  0  0  0  0 
    5.9122    3.7139    2.8258 H   0  0  0  0  0  0  0  0  0  0  0  0 
    5.5882    5.4468    2.8422 H   0  0  0  0  0  0  0  0  0  0  0  0 
    8.3366    5.2880   -3.3785 H   0  0  0  0  0  0  0  0  0  0  0  0 
    7.6240    4.6437   -1.1303 H   0  0  0  0  0  0  0  0  0  0  0  0 
    6.0713    3.7474    0.3370 H   0  0  0  0  0  0  0  0  0  0  0  0 
    7.2418    4.8515    1.1013 H   0  0  0  0  0  0  0  0  0  0  0  0 
    5.2270    8.2412   -3.5214 H   0  0  0  0  0  0  0  0  0  0  0  0 
    7.7478    6.5057   -5.4244 H   0  0  0  0  0  0  0  0  0  0  0  0 
    6.5723    7.6825   -5.4540 H   0  0  0  0  0  0  0  0  0  0  0  0 
    2.9655    9.2031   -1.4294 H   0  0  0  0  0  0  0  0  0  0  0  0 
  1  2  1  0  0  0  0 
  1 15  1  0  0  0  0 
  2 18  1  0  0  0  0 
  2 19  1  0  0  0  0 
  3  4  2  0  0  0  0 
  4 21  1  0  0  0  0 
  4  9  1  0  0  0  0 
  5 23  1  0  0  0  0 
  5  2  1  0  0  0  0 
  6  8  1  0  0  0  0 
  7  6  2  0  0  0  0 
  7  3  1  0  0  0  0 
  8 10  1  0  0  0  0 
  8  9  2  0  0  0  0 
  9 14  1  0  0  0  0 
 10 12  2  0  0  0  0 
 11  7  1  0  0  0  0 
 13 27  1  0  0  0  0 
 13 10  1  0  0  0  0 
 14  5  1  0  0  0  0 
 16  1  1  0  0  0  0 
 17  1  1  0  0  0  0 
 20  3  1  0  0  0  0 
 22  5  1  0  0  0  0 
 24  6  1  0  0  0  0 
 25 11  1  0  0  0  0 
 26 11  1  0  0  0  0 
M  END 
>  <HBA> 
4 
 
>  <HBD> 
2 
 
>  <TPSA> 
72.55 
 
>  <cid> 
26306 
 
>  <dipole> 
3.05 
 
>  <excitation_energy_1> 
3.594 
 
>  <excitation_energy_2> 
4.568 
 
>  <excitation_energy_3> 
4.654 
 
>  <excitation_energy_4> 
5.046 
 
>  <homo_energy> 
-5.23 
 
>  <homo_lumo_gap> 
4.204 
 
>  <logP> 
2.337 
 
>  <lumo_energy> 
-1.026 
 
>  <melting_point> 
149.58 
 
>  <molecular_refractivity> 
53.91 
 
>  <oscillator_strength_1> 
0.0855 
 
>  <oscillator_strength_2> 
0.0052 
 
>  <oscillator_strength_3> 
0.0009 
 
>  <oscillator_strength_4> 
0.0156 
 
>  <open_babel_can_smiles> 
CCCOc1ccc(cc1C(=O)O)N 
 
>  <mulliken_charges> 
27 
1   -0.454317 
2   -0.269112 
3   -0.16809 
4   -0.204769 
5   -0.03271 
6   -0.226164 
7   0.310766 
8   0.015085 
9   0.340388 
10   0.545214 
11   -0.789227 
12   -0.465685 
13   -0.591302 
14   -0.495679 
15   0.139355 
16   0.132589 
17   0.197765 
18   0.132177 
19   0.15358 
20   0.125219 
21   0.139081 
22   0.134169 
23   0.135634 
24   0.154041 
25   0.316456 
26   0.319054 
27   0.406479 
 
>  <lowdin_charges> 
27 
1   -0.450988 
2   -0.278199 
3   -0.17061 
4   -0.2044 
5   -0.125485 
6   -0.172284 
7   0.04004 
8   -0.068209 
9   0.104237 
10   0.200207 
11   -0.498334 
12   -0.264448 
13   -0.37596 
14   -0.177801 
15   0.148805 
16   0.14302 
17   0.173957 
18   0.146496 
19   0.152878 
20   0.157483 
21   0.167118 
22   0.135197 
23   0.135067 
24   0.17309 
25   0.274293 
26   0.275634 
27   0.359196 
 
$$$$ 
 
