PCCDB-ID:  47538 
public computational chemistry database (PCCDB) project, http://pccdb.org 
 
 32 33  0  0  0  0  0  0  0  0999 V2000 
    1.0285    0.0937    0.5075 C   0  0  0  0  0  0  0  0  0  0  0  0 
    4.8238    1.3292   -3.3050 C   0  0  0  0  0  0  0  0  0  0  0  0 
    6.2537   -0.5456   -2.8851 C   0  0  0  0  0  0  0  0  0  0  0  0 
    4.7385    0.1010    4.3508 C   0  0  0  0  0  0  0  0  0  0  0  0 
    4.6393   -1.2811    4.1962 C   0  0  0  0  0  0  0  0  0  0  0  0 
    4.2564    0.9824    3.3647 C   0  0  0  0  0  0  0  0  0  0  0  0 
    4.0537   -1.8470    3.0480 C   0  0  0  0  0  0  0  0  0  0  0  0 
    3.0029    0.1385   -1.1168 C   0  0  0  0  0  0  0  0  0  0  0  0 
    4.5167   -0.0141   -1.3001 C   0  0  0  0  0  0  0  0  0  0  0  0 
    3.6833    0.4128    2.2442 C   0  0  0  0  0  0  0  0  0  0  0  0 
    3.5845   -0.9694    2.0896 C   0  0  0  0  0  0  0  0  0  0  0  0 
    2.5404    0.0054    0.3322 C   0  0  0  0  0  0  0  0  0  0  0  0 
    4.9144    0.0019   -2.7098 N   0  0  0  0  0  0  0  0  0  0  0  0 
    3.1657    1.0413    1.1398 O   0  0  0  0  0  0  0  0  0  0  0  0 
    3.0012   -1.2596    0.8812 O   0  0  0  0  0  0  0  0  0  0  0  0 
    0.6607    1.0572    0.1422 H   0  0  0  0  0  0  0  0  0  0  0  0 
    0.7766   -0.0017    1.5678 H   0  0  0  0  0  0  0  0  0  0  0  0 
    0.5350   -0.7107   -0.0462 H   0  0  0  0  0  0  0  0  0  0  0  0 
    5.0968    1.2729   -4.3643 H   0  0  0  0  0  0  0  0  0  0  0  0 
    5.4900    2.0695   -2.8179 H   0  0  0  0  0  0  0  0  0  0  0  0 
    3.7990    1.7088   -3.2488 H   0  0  0  0  0  0  0  0  0  0  0  0 
    6.4972   -0.5827   -3.9528 H   0  0  0  0  0  0  0  0  0  0  0  0 
    6.2938   -1.5672   -2.4925 H   0  0  0  0  0  0  0  0  0  0  0  0 
    7.0403    0.0480   -2.3778 H   0  0  0  0  0  0  0  0  0  0  0  0 
    5.1932    0.5111    5.2478 H   0  0  0  0  0  0  0  0  0  0  0  0 
    5.0175   -1.9381    4.9739 H   0  0  0  0  0  0  0  0  0  0  0  0 
    4.3303    2.0594    3.4726 H   0  0  0  0  0  0  0  0  0  0  0  0 
    3.9730   -2.9206    2.9148 H   0  0  0  0  0  0  0  0  0  0  0  0 
    2.4920   -0.6254   -1.7139 H   0  0  0  0  0  0  0  0  0  0  0  0 
    2.6550    1.1137   -1.4753 H   0  0  0  0  0  0  0  0  0  0  0  0 
    4.8103   -0.9833   -0.8841 H   0  0  0  0  0  0  0  0  0  0  0  0 
    5.0440    0.7633   -0.7153 H   0  0  0  0  0  0  0  0  0  0  0  0 
  1 17  1  0  0  0  0 
  2 21  1  0  0  0  0 
  2 20  1  0  0  0  0 
  2 13  1  0  0  0  0 
  3 13  1  0  0  0  0 
  3 23  1  0  0  0  0 
  3 24  1  0  0  0  0 
  4 25  1  0  0  0  0 
  5  4  1  0  0  0  0 
  5 26  1  0  0  0  0 
  6 27  1  0  0  0  0 
  6  4  2  0  0  0  0 
  7  5  2  0  0  0  0 
  8 12  1  0  0  0  0 
  9  8  1  0  0  0  0 
  9 31  1  0  0  0  0 
  9 32  1  0  0  0  0 
 10  6  1  0  0  0  0 
 11 10  2  0  0  0  0 
 11  7  1  0  0  0  0 
 12  1  1  0  0  0  0 
 12 15  1  0  0  0  0 
 12 14  1  0  0  0  0 
 13  9  1  0  0  0  0 
 14 10  1  0  0  0  0 
 15 11  1  0  0  0  0 
 16  1  1  0  0  0  0 
 18  1  1  0  0  0  0 
 19  2  1  0  0  0  0 
 22  3  1  0  0  0  0 
 28  7  1  0  0  0  0 
 29  8  1  0  0  0  0 
 30  8  1  0  0  0  0 
M  END 
>  <HBA> 
3 
 
>  <HBD> 
0 
 
>  <TPSA> 
21.7 
 
>  <cid> 
47538 
 
>  <dipole> 
0.53 
 
>  <excitation_energy_1> 
4.774 
 
>  <excitation_energy_2> 
5.153 
 
>  <excitation_energy_3> 
5.239 
 
>  <excitation_energy_4> 
5.35 
 
>  <homo_energy> 
-5.464 
 
>  <homo_lumo_gap> 
5.641 
 
>  <logP> 
2.126 
 
>  <lumo_energy> 
0.177 
 
>  <melting_point> 
48.11 
 
>  <molecular_refractivity> 
59.47 
 
>  <oscillator_strength_1> 
0.0863 
 
>  <oscillator_strength_2> 
0.0012 
 
>  <oscillator_strength_3> 
0.0029 
 
>  <oscillator_strength_4> 
0.0166 
 
>  <open_babel_can_smiles> 
CN(CCC1(C)Oc2c(O1)cccc2)C 
 
>  <mulliken_charges> 
32 
1   -0.442595 
2   -0.300926 
3   -0.294078 
4   -0.144066 
5   -0.144571 
6   -0.193665 
7   -0.193366 
8   -0.279152 
9   -0.128908 
10   0.341797 
11   0.339497 
12   0.480942 
13   -0.373707 
14   -0.555424 
15   -0.556363 
16   0.158128 
17   0.16459 
18   0.159976 
19   0.148623 
20   0.118866 
21   0.149139 
22   0.146372 
23   0.150545 
24   0.118087 
25   0.128284 
26   0.128335 
27   0.140355 
28   0.140654 
29   0.159237 
30   0.149574 
31   0.154861 
32   0.128958 
 
>  <lowdin_charges> 
32 
1   -0.453597 
2   -0.357592 
3   -0.354268 
4   -0.166873 
5   -0.167964 
6   -0.184279 
7   -0.184829 
8   -0.290921 
9   -0.204966 
10   0.068511 
11   0.069377 
12   0.24071 
13   -0.184297 
14   -0.20542 
15   -0.206075 
16   0.162784 
17   0.165017 
18   0.164863 
19   0.148853 
20   0.121937 
21   0.147457 
22   0.147143 
23   0.149284 
24   0.121617 
25   0.159208 
26   0.159971 
27   0.165934 
28   0.166132 
29   0.164088 
30   0.156112 
31   0.153728 
32   0.128359 
 
$$$$ 
 
