PCCDB-ID:  26422 
public computational chemistry database (PCCDB) project, http://pccdb.org 
 
 31 31  0  0  0  0  0  0  0  0999 V2000 
    4.3357    0.9979    1.2220 C   0  0  0  0  0  0  0  0  0  0  0  0 
    4.9116    2.0542   -1.0159 C   0  0  0  0  0  0  0  0  0  0  0  0 
   -2.0144    4.8704   -3.7485 C   0  0  0  0  0  0  0  0  0  0  0  0 
    0.6917    7.0720   -1.1821 C   0  0  0  0  0  0  0  0  0  0  0  0 
    0.4679    2.1109   -1.7267 C   0  0  0  0  0  0  0  0  0  0  0  0 
   -0.3873    2.9936   -2.3796 C   0  0  0  0  0  0  0  0  0  0  0  0 
    1.9520    3.9305   -1.1905 C   0  0  0  0  0  0  0  0  0  0  0  0 
    3.8782    1.9706    0.1296 C   0  0  0  0  0  0  0  0  0  0  0  0 
    1.6525    2.5577   -1.1273 C   0  0  0  0  0  0  0  0  0  0  0  0 
   -0.0754    4.3576   -2.4494 C   0  0  0  0  0  0  0  0  0  0  0  0 
    1.1100    4.8267   -1.8356 C   0  0  0  0  0  0  0  0  0  0  0  0 
    2.5218    1.5452   -0.4479 C   0  0  0  0  0  0  0  0  0  0  0  0 
    2.1661    0.3751   -0.3842 O   0  0  0  0  0  0  0  0  0  0  0  0 
   -0.8322    5.2941   -3.0819 O   0  0  0  0  0  0  0  0  0  0  0  0 
    1.4878    6.1446   -1.9242 O   0  0  0  0  0  0  0  0  0  0  0  0 
    5.3067    1.3083    1.6243 H   0  0  0  0  0  0  0  0  0  0  0  0 
    4.4284   -0.0156    0.8221 H   0  0  0  0  0  0  0  0  0  0  0  0 
    3.6180    0.9614    2.0482 H   0  0  0  0  0  0  0  0  0  0  0  0 
    5.8842    2.3742   -0.6257 H   0  0  0  0  0  0  0  0  0  0  0  0 
    4.6072    2.7615   -1.7943 H   0  0  0  0  0  0  0  0  0  0  0  0 
    5.0400    1.0712   -1.4834 H   0  0  0  0  0  0  0  0  0  0  0  0 
   -2.4402    5.7697   -4.1963 H   0  0  0  0  0  0  0  0  0  0  0  0 
   -2.7374    4.4342   -3.0475 H   0  0  0  0  0  0  0  0  0  0  0  0 
   -1.7887    4.1422   -4.5373 H   0  0  0  0  0  0  0  0  0  0  0  0 
    1.1589    8.0493   -1.3228 H   0  0  0  0  0  0  0  0  0  0  0  0 
    0.6931    6.8195   -0.1132 H   0  0  0  0  0  0  0  0  0  0  0  0 
   -0.3383    7.1020   -1.5504 H   0  0  0  0  0  0  0  0  0  0  0  0 
    0.2329    1.0533   -1.6740 H   0  0  0  0  0  0  0  0  0  0  0  0 
   -1.2925    2.6150   -2.8407 H   0  0  0  0  0  0  0  0  0  0  0  0 
    2.8529    4.3406   -0.7476 H   0  0  0  0  0  0  0  0  0  0  0  0 
    3.7760    2.9706    0.5702 H   0  0  0  0  0  0  0  0  0  0  0  0 
  1 16  1  0  0  0  0 
  1 18  1  0  0  0  0 
  2 19  1  0  0  0  0 
  2  8  1  0  0  0  0 
  3 14  1  0  0  0  0 
  3 23  1  0  0  0  0 
  4 26  1  0  0  0  0 
  5 28  1  0  0  0  0 
  5  9  2  0  0  0  0 
  6  5  1  0  0  0  0 
  7  9  1  0  0  0  0 
  7 30  1  0  0  0  0 
  8 31  1  0  0  0  0 
  8  1  1  0  0  0  0 
  9 12  1  0  0  0  0 
 10  6  2  0  0  0  0 
 10 11  1  0  0  0  0 
 11  7  2  0  0  0  0 
 12 13  2  0  0  0  0 
 12  8  1  0  0  0  0 
 14 10  1  0  0  0  0 
 15 11  1  0  0  0  0 
 15  4  1  0  0  0  0 
 17  1  1  0  0  0  0 
 20  2  1  0  0  0  0 
 21  2  1  0  0  0  0 
 22  3  1  0  0  0  0 
 24  3  1  0  0  0  0 
 25  4  1  0  0  0  0 
 27  4  1  0  0  0  0 
 29  6  1  0  0  0  0 
M  END 
>  <HBA> 
3 
 
>  <HBD> 
0 
 
>  <TPSA> 
35.53 
 
>  <cid> 
26422 
 
>  <dipole> 
3.53 
 
>  <excitation_energy_1> 
3.743 
 
>  <excitation_energy_2> 
4.397 
 
>  <excitation_energy_3> 
4.739 
 
>  <excitation_energy_4> 
5.389 
 
>  <homo_energy> 
-6.052 
 
>  <homo_lumo_gap> 
4.849 
 
>  <logP> 
2.542 
 
>  <lumo_energy> 
-1.203 
 
>  <melting_point> 
49.1 
 
>  <molecular_refractivity> 
59.23 
 
>  <oscillator_strength_1> 
0.0003 
 
>  <oscillator_strength_2> 
0.1861 
 
>  <oscillator_strength_3> 
0.1172 
 
>  <oscillator_strength_4> 
0.0052 
 
>  <open_babel_can_smiles> 
COc1cc(ccc1OC)C(=O)C(C)C 
 
>  <mulliken_charges> 
31 
1   -0.435353 
2   -0.452387 
3   -0.220055 
4   -0.21185 
5   -0.164535 
6   -0.20677 
7   -0.239892 
8   -0.164055 
9   0.075523 
10   0.357349 
11   0.313263 
12   0.399038 
13   -0.479256 
14   -0.502216 
15   -0.520404 
16   0.133586 
17   0.16531 
18   0.147798 
19   0.150821 
20   0.154901 
21   0.159978 
22   0.175284 
23   0.157739 
24   0.161055 
25   0.161151 
26   0.139964 
27   0.161848 
28   0.162082 
29   0.140406 
30   0.144408 
31   0.135268 
 
>  <lowdin_charges> 
31 
1   -0.438747 
2   -0.440766 
3   -0.279033 
4   -0.272041 
5   -0.125077 
6   -0.208309 
7   -0.166372 
8   -0.151418 
9   -0.064273 
10   0.089402 
11   0.067228 
12   0.158408 
13   -0.253647 
14   -0.184558 
15   -0.223925 
16   0.146123 
17   0.160037 
18   0.154024 
19   0.153512 
20   0.15521 
21   0.156215 
22   0.166645 
23   0.149866 
24   0.15142 
25   0.156969 
26   0.137046 
27   0.148029 
28   0.175855 
29   0.165962 
30   0.170889 
31   0.145328 
 
$$$$ 
 
