PCCDB-ID:  15643 
public computational chemistry database (PCCDB) project, http://pccdb.org 
 
 26 26  0  0  0  0  0  0  0  0999 V2000 
    1.2354    0.6804   -0.6759 C   0  0  0  0  0  0  0  0  0  0  0  0 
    3.2612   -3.3842    0.8619 C   0  0  0  0  0  0  0  0  0  0  0  0 
    4.7861   -1.0581   -6.0097 C   0  0  0  0  0  0  0  0  0  0  0  0 
    3.6144   -1.6906   -5.5888 C   0  0  0  0  0  0  0  0  0  0  0  0 
    5.7177   -0.6331   -5.0606 C   0  0  0  0  0  0  0  0  0  0  0  0 
    3.3624   -1.9063   -4.2328 C   0  0  0  0  0  0  0  0  0  0  0  0 
    5.4777   -0.8333   -3.7013 C   0  0  0  0  0  0  0  0  0  0  0  0 
    4.3003   -1.4643   -3.2968 C   0  0  0  0  0  0  0  0  0  0  0  0 
    2.4629    0.0596   -1.1645 N   0  0  0  0  0  0  0  0  0  0  0  0 
    3.1634   -1.9826    0.4448 N   0  0  0  0  0  0  0  0  0  0  0  0 
    1.6093   -2.4249   -1.6244 O   0  0  0  0  0  0  0  0  0  0  0  0 
    4.1521   -1.6732   -1.9273 O   0  0  0  0  0  0  0  0  0  0  0  0 
    2.7208   -1.5829   -1.1149 P   0  0  0  0  0  0  0  0  0  0  0  0 
    1.2828    0.9449    0.3895 H   0  0  0  0  0  0  0  0  0  0  0  0 
    0.4092   -0.0188   -0.8251 H   0  0  0  0  0  0  0  0  0  0  0  0 
    1.0208    1.5843   -1.2555 H   0  0  0  0  0  0  0  0  0  0  0  0 
    3.1633   -3.4481    1.9505 H   0  0  0  0  0  0  0  0  0  0  0  0 
    4.2050   -3.8603    0.5614 H   0  0  0  0  0  0  0  0  0  0  0  0 
    2.4328   -3.9311    0.4073 H   0  0  0  0  0  0  0  0  0  0  0  0 
    4.9731   -0.9009   -7.0681 H   0  0  0  0  0  0  0  0  0  0  0  0 
    2.8867   -2.0299   -6.3213 H   0  0  0  0  0  0  0  0  0  0  0  0 
    6.6360   -0.1440   -5.3750 H   0  0  0  0  0  0  0  0  0  0  0  0 
    2.4599   -2.4032   -3.8953 H   0  0  0  0  0  0  0  0  0  0  0  0 
    6.1923   -0.5156   -2.9479 H   0  0  0  0  0  0  0  0  0  0  0  0 
    3.2659    0.6609   -1.2934 H   0  0  0  0  0  0  0  0  0  0  0  0 
    3.8584   -1.3727    0.8629 H   0  0  0  0  0  0  0  0  0  0  0  0 
  1 14  1  0  0  0  0 
  2 17  1  0  0  0  0 
  3  4  2  0  0  0  0 
  3  5  1  0  0  0  0 
  4  6  1  0  0  0  0 
  5  7  2  0  0  0  0 
  6 23  1  0  0  0  0 
  6  8  2  0  0  0  0 
  7  8  1  0  0  0  0 
  7 24  1  0  0  0  0 
  8 12  1  0  0  0  0 
  9 13  1  0  0  0  0 
  9  1  1  0  0  0  0 
 10  2  1  0  0  0  0 
 10 26  1  0  0  0  0 
 11 13  2  0  0  0  0 
 12 13  1  0  0  0  0 
 13 10  1  0  0  0  0 
 15  1  1  0  0  0  0 
 16  1  1  0  0  0  0 
 18  2  1  0  0  0  0 
 19  2  1  0  0  0  0 
 20  3  1  0  0  0  0 
 21  4  1  0  0  0  0 
 22  5  1  0  0  0  0 
 25  9  1  0  0  0  0 
M  END 
>  <HBA> 
4 
 
>  <HBD> 
2 
 
>  <TPSA> 
60.17 
 
>  <cid> 
15643 
 
>  <dipole> 
3.86 
 
>  <excitation_energy_1> 
5.205 
 
>  <excitation_energy_2> 
5.542 
 
>  <excitation_energy_3> 
5.773 
 
>  <excitation_energy_4> 
5.849 
 
>  <homo_energy> 
-6.272 
 
>  <homo_lumo_gap> 
6.286 
 
>  <logP> 
2.394 
 
>  <lumo_energy> 
0.014 
 
>  <melting_point> 
72.85 
 
>  <molecular_refractivity> 
52.01 
 
>  <oscillator_strength_1> 
0.0105 
 
>  <oscillator_strength_2> 
0.0045 
 
>  <oscillator_strength_3> 
0.0026 
 
>  <oscillator_strength_4> 
0.0484 
 
>  <open_babel_can_smiles> 
CNP(=O)(Oc1ccccc1)NC 
 
>  <mulliken_charges> 
26 
1   -0.304471 
2   -0.312727 
3   -0.125369 
4   -0.145794 
5   -0.138982 
6   -0.169149 
7   -0.16922 
8   0.339579 
9   -0.673673 
10   -0.642273 
11   -0.58061 
12   -0.611751 
13   1.142314 
14   0.150407 
15   0.195038 
16   0.15891 
17   0.153748 
18   0.153824 
19   0.198891 
20   0.127768 
21   0.135641 
22   0.130379 
23   0.19324 
24   0.130738 
25   0.337109 
26   0.326431 
 
>  <lowdin_charges> 
26 
1   -0.34525 
2   -0.34948 
3   -0.16806 
4   -0.148012 
5   -0.150542 
6   -0.181913 
7   -0.186656 
8   0.105631 
9   -0.5199 
10   -0.508858 
11   -0.606418 
12   -0.369379 
13   1.071283 
14   0.140092 
15   0.178294 
16   0.15534 
17   0.150189 
18   0.143424 
19   0.180238 
20   0.156125 
21   0.161727 
22   0.158447 
23   0.191776 
24   0.16337 
25   0.292897 
26   0.285635 
 
$$$$ 
 
