PCCDB-ID:  13381 
public computational chemistry database (PCCDB) project, http://pccdb.org 
 
 30 29  0  0  0  0  0  0  0  0999 V2000 
    1.8760   -1.8891    1.8017 C   0  0  0  0  0  0  0  0  0  0  0  0 
   11.4618   -3.4755    3.6313 C   0  0  0  0  0  0  0  0  0  0  0  0 
    2.6623   -0.8411    1.5519 C   0  0  0  0  0  0  0  0  0  0  0  0 
    9.9801   -3.6943    3.3084 C   0  0  0  0  0  0  0  0  0  0  0  0 
    3.5358   -0.6692    0.3382 C   0  0  0  0  0  0  0  0  0  0  0  0 
    9.3176   -2.4784    2.6480 C   0  0  0  0  0  0  0  0  0  0  0  0 
    5.0289   -0.4706    0.6740 C   0  0  0  0  0  0  0  0  0  0  0  0 
    7.8340   -2.6900    2.3203 C   0  0  0  0  0  0  0  0  0  0  0  0 
    5.6874   -1.6881    1.3344 C   0  0  0  0  0  0  0  0  0  0  0  0 
    7.1700   -1.4726    1.6640 C   0  0  0  0  0  0  0  0  0  0  0  0 
    1.2645   -1.9462    2.6985 H   0  0  0  0  0  0  0  0  0  0  0  0 
    1.8095   -2.7304    1.1145 H   0  0  0  0  0  0  0  0  0  0  0  0 
   11.9045   -4.3606    4.1024 H   0  0  0  0  0  0  0  0  0  0  0  0 
   11.5975   -2.6303    4.3175 H   0  0  0  0  0  0  0  0  0  0  0  0 
   12.0378   -3.2589    2.7231 H   0  0  0  0  0  0  0  0  0  0  0  0 
    2.6952   -0.0227    2.2748 H   0  0  0  0  0  0  0  0  0  0  0  0 
    9.4374   -3.9449    4.2310 H   0  0  0  0  0  0  0  0  0  0  0  0 
    9.8745   -4.5671    2.6482 H   0  0  0  0  0  0  0  0  0  0  0  0 
    3.1908    0.2109   -0.2256 H   0  0  0  0  0  0  0  0  0  0  0  0 
    3.4174   -1.5342   -0.3282 H   0  0  0  0  0  0  0  0  0  0  0  0 
    9.8619   -2.2260    1.7255 H   0  0  0  0  0  0  0  0  0  0  0  0 
    9.4233   -1.6053    3.3094 H   0  0  0  0  0  0  0  0  0  0  0  0 
    5.1369    0.4052    1.3312 H   0  0  0  0  0  0  0  0  0  0  0  0 
    5.5673   -0.2234   -0.2516 H   0  0  0  0  0  0  0  0  0  0  0  0 
    7.2912   -2.9454    3.2426 H   0  0  0  0  0  0  0  0  0  0  0  0 
    7.7296   -3.5617    1.6571 H   0  0  0  0  0  0  0  0  0  0  0  0 
    5.5858   -2.5577    0.6676 H   0  0  0  0  0  0  0  0  0  0  0  0 
    5.1405   -1.9466    2.2513 H   0  0  0  0  0  0  0  0  0  0  0  0 
    7.7150   -1.2145    0.7436 H   0  0  0  0  0  0  0  0  0  0  0  0 
    7.2716   -0.6018    2.3290 H   0  0  0  0  0  0  0  0  0  0  0  0 
  1 11  1  0  0  0  0 
  2 13  1  0  0  0  0 
  2 14  1  0  0  0  0 
  3  1  2  0  0  0  0 
  3 16  1  0  0  0  0 
  4  2  1  0  0  0  0 
  4 17  1  0  0  0  0 
  5  7  1  0  0  0  0 
  5  3  1  0  0  0  0 
  6  4  1  0  0  0  0 
  6 22  1  0  0  0  0 
  7 23  1  0  0  0  0 
  7  9  1  0  0  0  0 
  8  6  1  0  0  0  0 
  8 25  1  0  0  0  0 
  9 10  1  0  0  0  0 
  9 28  1  0  0  0  0 
 10  8  1  0  0  0  0 
 10 30  1  0  0  0  0 
 12  1  1  0  0  0  0 
 15  2  1  0  0  0  0 
 18  4  1  0  0  0  0 
 19  5  1  0  0  0  0 
 20  5  1  0  0  0  0 
 21  6  1  0  0  0  0 
 24  7  1  0  0  0  0 
 26  8  1  0  0  0  0 
 27  9  1  0  0  0  0 
 29 10  1  0  0  0  0 
M  END 
>  <HBA> 
0 
 
>  <HBD> 
0 
 
>  <TPSA> 
0.0 
 
>  <cid> 
13381 
 
>  <dipole> 
0.26 
 
>  <excitation_energy_1> 
6.38 
 
>  <excitation_energy_2> 
6.667 
 
>  <excitation_energy_3> 
6.831 
 
>  <excitation_energy_4> 
7.087 
 
>  <homo_energy> 
-6.762 
 
>  <homo_lumo_gap> 
7.459 
 
>  <logP> 
3.923 
 
>  <lumo_energy> 
0.697 
 
>  <melting_point> 
-49.82 
 
>  <molecular_refractivity> 
49.71 
 
>  <oscillator_strength_1> 
0.051 
 
>  <oscillator_strength_2> 
0.0987 
 
>  <oscillator_strength_3> 
0.0082 
 
>  <oscillator_strength_4> 
0.1382 
 
>  <open_babel_can_smiles> 
CCCCCCCCC=C 
 
>  <mulliken_charges> 
30 
1   -0.342167 
2   -0.441203 
3   -0.036634 
4   -0.246194 
5   -0.301496 
6   -0.245249 
7   -0.260374 
8   -0.252179 
9   -0.248413 
10   -0.252406 
11   0.1365 
12   0.133798 
13   0.140803 
14   0.14071 
15   0.140622 
16   0.121453 
17   0.129635 
18   0.129432 
19   0.141114 
20   0.135391 
21   0.125424 
22   0.125561 
23   0.128165 
24   0.129816 
25   0.127234 
26   0.126158 
27   0.124619 
28   0.139015 
29   0.125173 
30   0.125692 
 
>  <lowdin_charges> 
30 
1   -0.346525 
2   -0.446142 
3   -0.144317 
4   -0.272587 
5   -0.274113 
6   -0.275166 
7   -0.273976 
8   -0.274751 
9   -0.277538 
10   -0.274454 
11   0.157011 
12   0.153686 
13   0.149392 
14   0.146356 
15   0.146215 
16   0.147884 
17   0.1388 
18   0.13874 
19   0.151213 
20   0.145393 
21   0.136999 
22   0.137101 
23   0.138279 
24   0.141237 
25   0.138012 
26   0.137528 
27   0.137303 
28   0.144621 
29   0.136642 
30   0.137157 
 
$$$$ 
 
