PCCDB-ID:  14070 
public computational chemistry database (PCCDB) project, http://pccdb.org 
 
 32 31  0  0  0  0  0  0  0  0999 V2000 
    0.9340   -0.2287    0.2525 C   0  0  0  0  0  0  0  0  0  0  0  0 
    2.9257   -0.5039    1.7785 C   0  0  0  0  0  0  0  0  0  0  0  0 
    6.8280   -2.7009   -4.5125 C   0  0  0  0  0  0  0  0  0  0  0  0 
    8.8044   -3.0223   -2.9762 C   0  0  0  0  0  0  0  0  0  0  0  0 
    4.6014   -1.1604   -0.8111 C   0  0  0  0  0  0  0  0  0  0  0  0 
    5.1390   -2.0815   -1.9157 C   0  0  0  0  0  0  0  0  0  0  0  0 
    3.0725   -1.2041   -0.6808 C   0  0  0  0  0  0  0  0  0  0  0  0 
    6.6681   -2.0412   -2.0431 C   0  0  0  0  0  0  0  0  0  0  0  0 
    2.4676   -0.2193    0.3397 C   0  0  0  0  0  0  0  0  0  0  0  0 
    7.2715   -3.0149   -3.0752 C   0  0  0  0  0  0  0  0  0  0  0  0 
    0.4908    0.4942    0.9478 H   0  0  0  0  0  0  0  0  0  0  0  0 
    0.5336   -1.2196    0.5047 H   0  0  0  0  0  0  0  0  0  0  0  0 
    0.5887    0.0217   -0.7578 H   0  0  0  0  0  0  0  0  0  0  0  0 
    2.4673    0.2011    2.4822 H   0  0  0  0  0  0  0  0  0  0  0  0 
    4.0121   -0.4205    1.8898 H   0  0  0  0  0  0  0  0  0  0  0  0 
    2.6346   -1.5170    2.0875 H   0  0  0  0  0  0  0  0  0  0  0  0 
    7.2818   -3.4009   -5.2242 H   0  0  0  0  0  0  0  0  0  0  0  0 
    7.1354   -1.6872   -4.8029 H   0  0  0  0  0  0  0  0  0  0  0  0 
    5.7414   -2.7673   -4.6331 H   0  0  0  0  0  0  0  0  0  0  0  0 
    9.2459   -3.7364   -3.6816 H   0  0  0  0  0  0  0  0  0  0  0  0 
    9.1396   -3.2949   -1.9682 H   0  0  0  0  0  0  0  0  0  0  0  0 
    9.2161   -2.0308   -3.2068 H   0  0  0  0  0  0  0  0  0  0  0  0 
    4.9189   -0.1268   -1.0165 H   0  0  0  0  0  0  0  0  0  0  0  0 
    5.0691   -1.4383    0.1430 H   0  0  0  0  0  0  0  0  0  0  0  0 
    4.6735   -1.8015   -2.8704 H   0  0  0  0  0  0  0  0  0  0  0  0 
    4.8190   -3.1147   -1.7121 H   0  0  0  0  0  0  0  0  0  0  0  0 
    2.7583   -2.2266   -0.4191 H   0  0  0  0  0  0  0  0  0  0  0  0 
    2.6312   -0.9964   -1.6668 H   0  0  0  0  0  0  0  0  0  0  0  0 
    7.1070   -2.2624   -1.0590 H   0  0  0  0  0  0  0  0  0  0  0  0 
    6.9862   -1.0165   -2.2917 H   0  0  0  0  0  0  0  0  0  0  0  0 
    2.8128    0.7914    0.0701 H   0  0  0  0  0  0  0  0  0  0  0  0 
    6.9140   -4.0265   -2.8258 H   0  0  0  0  0  0  0  0  0  0  0  0 
  1  9  1  0  0  0  0 
  1 12  1  0  0  0  0 
  1 11  1  0  0  0  0 
  2 15  1  0  0  0  0 
  2 16  1  0  0  0  0 
  2 14  1  0  0  0  0 
  3 10  1  0  0  0  0 
  4 21  1  0  0  0  0 
  5  7  1  0  0  0  0 
  5 24  1  0  0  0  0 
  6 26  1  0  0  0  0 
  6  5  1  0  0  0  0 
  7 27  1  0  0  0  0 
  7  9  1  0  0  0  0 
  8  6  1  0  0  0  0 
  8 29  1  0  0  0  0 
  9  2  1  0  0  0  0 
 10  4  1  0  0  0  0 
 10 32  1  0  0  0  0 
 10  8  1  0  0  0  0 
 13  1  1  0  0  0  0 
 17  3  1  0  0  0  0 
 18  3  1  0  0  0  0 
 19  3  1  0  0  0  0 
 20  4  1  0  0  0  0 
 22  4  1  0  0  0  0 
 23  5  1  0  0  0  0 
 25  6  1  0  0  0  0 
 28  7  1  0  0  0  0 
 30  8  1  0  0  0  0 
 31  9  1  0  0  0  0 
M  END 
>  <HBA> 
0 
 
>  <HBD> 
0 
 
>  <TPSA> 
0.0 
 
>  <cid> 
14070 
 
>  <dipole> 
0.0 
 
>  <excitation_energy_1> 
7.542 
 
>  <excitation_energy_2> 
7.737 
 
>  <excitation_energy_3> 
7.869 
 
>  <excitation_energy_4> 
8.002 
 
>  <homo_energy> 
-7.913 
 
>  <homo_lumo_gap> 
10.267 
 
>  <logP> 
3.859 
 
>  <lumo_energy> 
2.354 
 
>  <melting_point> 
-29.22 
 
>  <molecular_refractivity> 
50.18 
 
>  <oscillator_strength_1> 
0.0 
 
>  <oscillator_strength_2> 
0.0641 
 
>  <oscillator_strength_3> 
0.0058 
 
>  <oscillator_strength_4> 
0.0068 
 
>  <open_babel_can_smiles> 
CC(CCCCC(C)C)C 
 
>  <mulliken_charges> 
32 
1   -0.441588 
2   -0.444535 
3   -0.444486 
4   -0.441647 
5   -0.259393 
6   -0.259575 
7   -0.24572 
8   -0.245699 
9   -0.065072 
10   -0.065087 
11   0.138173 
12   0.137636 
13   0.138478 
14   0.138677 
15   0.144764 
16   0.136664 
17   0.138709 
18   0.136716 
19   0.144664 
20   0.138175 
21   0.138496 
22   0.137646 
23   0.12585 
24   0.131519 
25   0.131461 
26   0.125907 
27   0.122257 
28   0.123703 
29   0.123721 
30   0.122244 
31   0.118665 
32   0.118677 
 
>  <lowdin_charges> 
32 
1   -0.444761 
2   -0.44573 
3   -0.445688 
4   -0.444772 
5   -0.274892 
6   -0.274894 
7   -0.274025 
8   -0.27401 
9   -0.118932 
10   -0.118931 
11   0.148064 
12   0.144493 
13   0.145965 
14   0.14883 
15   0.146655 
16   0.143791 
17   0.148829 
18   0.143794 
19   0.146572 
20   0.14806 
21   0.145993 
22   0.144494 
23   0.135977 
24   0.138881 
25   0.138817 
26   0.136013 
27   0.135068 
28   0.137731 
29   0.137771 
30   0.13504 
31   0.132896 
32   0.132901 
 
$$$$ 
 
