PCCDB-ID:  8995 
public computational chemistry database (PCCDB) project, http://pccdb.org 
 
 27 27  0  0  0  0  0  0  0  0999 V2000 
    3.5456    0.2152    0.9075 C   0  0  0  0  0  0  0  0  0  0  0  0 
    3.8226    0.6116   -0.5485 C   0  0  0  0  0  0  0  0  0  0  0  0 
    8.4670   -1.3754   -1.6127 C   0  0  0  0  0  0  0  0  0  0  0  0 
    7.9933   -0.4016   -0.7334 C   0  0  0  0  0  0  0  0  0  0  0  0 
    7.5437   -2.0517   -2.4091 C   0  0  0  0  0  0  0  0  0  0  0  0 
    3.1404   -0.7428   -3.5622 C   0  0  0  0  0  0  0  0  0  0  0  0 
    6.6351   -0.1063   -0.6457 C   0  0  0  0  0  0  0  0  0  0  0  0 
    6.1824   -1.7635   -2.3394 C   0  0  0  0  0  0  0  0  0  0  0  0 
    2.1346   -1.5238   -4.2839 C   0  0  0  0  0  0  0  0  0  0  0  0 
    3.3450   -1.2536   -2.1065 C   0  0  0  0  0  0  0  0  0  0  0  0 
    5.6897   -0.7791   -1.4526 C   0  0  0  0  0  0  0  0  0  0  0  0 
    1.3304   -2.1659   -4.8216 N   0  0  0  0  0  0  0  0  0  0  0  0 
    4.3270   -0.4805   -1.3780 N   0  0  0  0  0  0  0  0  0  0  0  0 
    3.1497    1.0695    1.4694 H   0  0  0  0  0  0  0  0  0  0  0  0 
    4.4572   -0.1313    1.4042 H   0  0  0  0  0  0  0  0  0  0  0  0 
    2.8085   -0.5942    0.9580 H   0  0  0  0  0  0  0  0  0  0  0  0 
    4.5257    1.4503   -0.5910 H   0  0  0  0  0  0  0  0  0  0  0  0 
    2.8971    0.9778   -1.0090 H   0  0  0  0  0  0  0  0  0  0  0  0 
    9.5268   -1.6028   -1.6736 H   0  0  0  0  0  0  0  0  0  0  0  0 
    8.6873    0.1392   -0.0947 H   0  0  0  0  0  0  0  0  0  0  0  0 
    7.8805   -2.8156   -3.1056 H   0  0  0  0  0  0  0  0  0  0  0  0 
    2.8311    0.3089   -3.5428 H   0  0  0  0  0  0  0  0  0  0  0  0 
    4.0899   -0.7858   -4.1068 H   0  0  0  0  0  0  0  0  0  0  0  0 
    6.3144    0.6431    0.0679 H   0  0  0  0  0  0  0  0  0  0  0  0 
    5.5089   -2.3104   -2.9893 H   0  0  0  0  0  0  0  0  0  0  0  0 
    3.6235   -2.3117   -2.1251 H   0  0  0  0  0  0  0  0  0  0  0  0 
    2.3892   -1.1978   -1.5763 H   0  0  0  0  0  0  0  0  0  0  0  0 
  1 16  1  0  0  0  0 
  1 15  1  0  0  0  0 
  1 14  1  0  0  0  0 
  2  1  1  0  0  0  0 
  3  4  2  0  0  0  0 
  4  7  1  0  0  0  0 
  4 20  1  0  0  0  0 
  5  8  2  0  0  0  0 
  5  3  1  0  0  0  0 
  6 22  1  0  0  0  0 
  6 10  1  0  0  0  0 
  7 24  1  0  0  0  0 
  8 11  1  0  0  0  0 
  9  6  1  0  0  0  0 
 10 27  1  0  0  0  0 
 10 13  1  0  0  0  0 
 11 13  1  0  0  0  0 
 11  7  2  0  0  0  0 
 12  9  3  0  0  0  0 
 13  2  1  0  0  0  0 
 17  2  1  0  0  0  0 
 18  2  1  0  0  0  0 
 19  3  1  0  0  0  0 
 21  5  1  0  0  0  0 
 23  6  1  0  0  0  0 
 25  8  1  0  0  0  0 
 26 10  1  0  0  0  0 
M  END 
>  <HBA> 
2 
 
>  <HBD> 
0 
 
>  <TPSA> 
27.03 
 
>  <cid> 
8995 
 
>  <dipole> 
3.76 
 
>  <excitation_energy_1> 
4.473 
 
>  <excitation_energy_2> 
4.545 
 
>  <excitation_energy_3> 
4.926 
 
>  <excitation_energy_4> 
5.117 
 
>  <homo_energy> 
-5.35 
 
>  <homo_lumo_gap> 
5.328 
 
>  <logP> 
2.427 
 
>  <lumo_energy> 
-0.022 
 
>  <melting_point> 
44.57 
 
>  <molecular_refractivity> 
54.82 
 
>  <oscillator_strength_1> 
0.0267 
 
>  <oscillator_strength_2> 
0.0202 
 
>  <oscillator_strength_3> 
0.1353 
 
>  <oscillator_strength_4> 
0.003 
 
>  <open_babel_can_smiles> 
N#CCCN(c1ccccc1)CC 
 
>  <mulliken_charges> 
27 
1   -0.442784 
2   -0.154767 
3   -0.136104 
4   -0.136662 
5   -0.136827 
6   -0.347694 
7   -0.192307 
8   -0.197461 
9   0.345087 
10   -0.158247 
11   0.36278 
12   -0.467191 
13   -0.48348 
14   0.147549 
15   0.165186 
16   0.152443 
17   0.159098 
18   0.145703 
19   0.123085 
20   0.126445 
21   0.128218 
22   0.195 
23   0.207436 
24   0.125376 
25   0.122148 
26   0.178312 
27   0.169658 
 
>  <lowdin_charges> 
27 
1   -0.458021 
2   -0.196091 
3   -0.18748 
4   -0.145571 
5   -0.14404 
6   -0.289703 
7   -0.212403 
8   -0.218824 
9   -0.019282 
10   -0.188403 
11   0.062452 
12   -0.126303 
13   -0.118829 
14   0.155052 
15   0.159078 
16   0.153579 
17   0.152783 
18   0.147463 
19   0.154625 
20   0.157912 
21   0.158003 
22   0.180273 
23   0.187223 
24   0.158775 
25   0.157354 
26   0.160298 
27   0.160079 
 
$$$$ 
 
