PCCDB-ID:  16116 
public computational chemistry database (PCCDB) project, http://pccdb.org 
 
 37 38  0  0  1  0  0  0  0  0999 V2000 
    0.8748    1.7091    0.0235 C   0  0  0  0  0  0  0  0  0  0  0  0 
    0.9565    0.3228    6.6143 C   0  0  0  0  0  0  0  0  0  0  0  0 
    0.2352    0.4276    5.4242 C   0  0  0  0  0  0  0  0  0  0  0  0 
    2.0562   -0.5384    6.6712 C   0  0  0  0  0  0  0  0  0  0  0  0 
    4.4562    2.8514    1.1465 C   0  0  0  0  0  0  0  0  0  0  0  0 
    5.0439    1.4758    1.4950 C   0  0  0  0  0  0  0  0  0  0  0  0 
    2.9208    2.8124    1.0834 C   0  0  0  0  0  0  0  0  0  0  0  0 
    0.6113   -0.3085    4.2996 C   0  0  0  0  0  0  0  0  0  0  0  0 
    2.4339   -1.2798    5.5543 C   0  0  0  0  0  0  0  0  0  0  0  0 
    4.5367    0.3927    0.5316 C   0  0  0  0  0  0  0  0  0  0  0  0 
    2.4045    1.7204    0.1236 C   0  0  1  0  0  0  0  0  0  0  0  0 
    1.7252   -1.1708    4.3438 C   0  0  0  0  0  0  0  0  0  0  0  0 
    2.9941    0.3325    0.4763 C   0  0  2  0  0  0  0  0  0  0  0  0 
    2.3788   -1.4765    2.1075 C   0  0  0  0  0  0  0  0  0  0  0  0 
    2.1049   -1.9781    3.2604 N   0  0  0  0  0  0  0  0  0  0  0  0 
    2.4112   -0.1671    1.7297 N   0  0  0  0  0  0  0  0  0  0  0  0 
    2.6868   -2.3249    1.0935 O   0  0  0  0  0  0  0  0  0  0  0  0 
    0.5023    2.6814   -0.3195 H   0  0  0  0  0  0  0  0  0  0  0  0 
    0.4100    1.4947    0.9920 H   0  0  0  0  0  0  0  0  0  0  0  0 
    0.5293    0.9464   -0.6843 H   0  0  0  0  0  0  0  0  0  0  0  0 
    0.6611    0.8959    7.4888 H   0  0  0  0  0  0  0  0  0  0  0  0 
   -0.6319    1.0815    5.3688 H   0  0  0  0  0  0  0  0  0  0  0  0 
    2.6216   -0.6365    7.5948 H   0  0  0  0  0  0  0  0  0  0  0  0 
    4.8456    3.1723    0.1690 H   0  0  0  0  0  0  0  0  0  0  0  0 
    4.7850    3.6037    1.8744 H   0  0  0  0  0  0  0  0  0  0  0  0 
    4.7689    1.2086    2.5256 H   0  0  0  0  0  0  0  0  0  0  0  0 
    6.1399    1.5129    1.4718 H   0  0  0  0  0  0  0  0  0  0  0  0 
    2.5297    3.7870    0.7639 H   0  0  0  0  0  0  0  0  0  0  0  0 
    2.5130    2.6490    2.0935 H   0  0  0  0  0  0  0  0  0  0  0  0 
    0.0266   -0.2450    3.3854 H   0  0  0  0  0  0  0  0  0  0  0  0 
    3.2815   -1.9577    5.5954 H   0  0  0  0  0  0  0  0  0  0  0  0 
    4.9247   -0.5937    0.8097 H   0  0  0  0  0  0  0  0  0  0  0  0 
    4.9067    0.6042   -0.4822 H   0  0  0  0  0  0  0  0  0  0  0  0 
    2.8049    1.9564   -0.8741 H   0  0  0  0  0  0  0  0  0  0  0  0 
    2.6965   -0.3770   -0.3007 H   0  0  0  0  0  0  0  0  0  0  0  0 
    2.3132    0.4829    2.4983 H   0  0  0  0  0  0  0  0  0  0  0  0 
    2.6037   -3.2111    1.4893 H   0  0  0  0  0  0  0  0  0  0  0  0 
  1 11  1  0  0  0  0 
  1 19  1  0  0  0  0 
  2  4  1  0  0  0  0 
  2 21  1  0  0  0  0 
  3  2  2  0  0  0  0 
  4 23  1  0  0  0  0 
  5  6  1  0  0  0  0 
  5 25  1  0  0  0  0 
  6 26  1  0  0  0  0 
  7  5  1  0  0  0  0 
  7 29  1  0  0  0  0 
  8 12  2  0  0  0  0 
  8  3  1  0  0  0  0 
  9 31  1  0  0  0  0 
  9  4  2  0  0  0  0 
 10 32  1  0  0  0  0 
 10  6  1  0  0  0  0 
 11 34  1  6  0  0  0 
 11 13  1  0  0  0  0 
 11  7  1  0  0  0  0 
 12  9  1  0  0  0  0 
 13 35  1  6  0  0  0 
 13 10  1  0  0  0  0 
 13 16  1  0  0  0  0 
 14 15  2  0  0  0  0 
 15 12  1  0  0  0  0 
 16 14  1  0  0  0  0 
 16 36  1  0  0  0  0 
 17 37  1  0  0  0  0 
 17 14  1  0  0  0  0 
 18  1  1  0  0  0  0 
 20  1  1  0  0  0  0 
 22  3  1  0  0  0  0 
 24  5  1  0  0  0  0 
 27  6  1  0  0  0  0 
 28  7  1  0  0  0  0 
 30  8  1  0  0  0  0 
 33 10  1  0  0  0  0 
M  END 
>  <HBA> 
3 
 
>  <HBD> 
2 
 
>  <TPSA> 
41.13 
 
>  <cid> 
16116 
 
>  <dipole> 
2.54 
 
>  <excitation_energy_1> 
4.744 
 
>  <excitation_energy_2> 
4.91 
 
>  <excitation_energy_3> 
5.014 
 
>  <excitation_energy_4> 
5.315 
 
>  <homo_energy> 
-5.459 
 
>  <homo_lumo_gap> 
5.69 
 
>  <logP> 
3.851 
 
>  <lumo_energy> 
0.231 
 
>  <melting_point> 
114.7 
 
>  <molecular_refractivity> 
70.67 
 
>  <oscillator_strength_1> 
0.0199 
 
>  <oscillator_strength_2> 
0.2347 
 
>  <oscillator_strength_3> 
0.0092 
 
>  <oscillator_strength_4> 
0.0038 
 
>  <open_babel_can_smiles> 
C[C@H]1CCCC[C@H]1N/C(=N\c1ccccc1)/O 
 
>  <mulliken_charges> 
37 
1   -0.444409 
2   -0.13392 
3   -0.137916 
4   -0.137726 
5   -0.259767 
6   -0.268554 
7   -0.273138 
8   -0.181717 
9   -0.149464 
10   -0.263055 
11   -0.099337 
12   0.233705 
13   0.045699 
14   0.701453 
15   -0.577509 
16   -0.636585 
17   -0.61073 
18   0.141927 
19   0.149334 
20   0.144887 
21   0.121761 
22   0.124249 
23   0.125004 
24   0.129966 
25   0.135406 
26   0.134167 
27   0.137329 
28   0.137138 
29   0.127611 
30   0.133977 
31   0.125504 
32   0.148819 
33   0.129414 
34   0.128146 
35   0.158629 
36   0.341298 
37   0.418403 
 
>  <lowdin_charges> 
37 
1   -0.445583 
2   -0.178245 
3   -0.155483 
4   -0.153712 
5   -0.279009 
6   -0.278881 
7   -0.28191 
8   -0.201543 
9   -0.175976 
10   -0.287242 
11   -0.131653 
12   0.046205 
13   -0.059736 
14   0.175356 
15   -0.277505 
16   -0.282645 
17   -0.3688 
18   0.149659 
19   0.149773 
20   0.152607 
21   0.155202 
22   0.154762 
23   0.155537 
24   0.138625 
25   0.147097 
26   0.138801 
27   0.145791 
28   0.147316 
29   0.134736 
30   0.157919 
31   0.159891 
32   0.152385 
33   0.141708 
34   0.14207 
35   0.160172 
36   0.286049 
37   0.366264 
 
$$$$ 
 
