PCCDB-ID:  36704 
public computational chemistry database (PCCDB) project, http://pccdb.org 
 
 25 24  0  0  0  0  0  0  0  0999 V2000 
    0.7975   -0.1867   -1.6715 C   0  0  0  0  0  0  0  0  0  0  0  0 
    6.8498    1.0671   -3.2347 C   0  0  0  0  0  0  0  0  0  0  0  0 
    2.2637   -0.4555   -1.9467 C   0  0  0  0  0  0  0  0  0  0  0  0 
    6.6160    0.1390   -2.0585 C   0  0  0  0  0  0  0  0  0  0  0  0 
    4.9003   -0.1482    1.1060 C   0  0  0  0  0  0  0  0  0  0  0  0 
    4.7455    1.3531    1.3773 C   0  0  0  0  0  0  0  0  0  0  0  0 
    5.6021    2.0042    1.9203 O   0  0  0  0  0  0  0  0  0  0  0  0 
    3.5682    1.9016    1.0139 O   0  0  0  0  0  0  0  0  0  0  0  0 
    4.8564   -2.1457   -0.8637 O   0  0  0  0  0  0  0  0  0  0  0  0 
    3.0002   -0.2523   -0.7047 O   0  0  0  0  0  0  0  0  0  0  0  0 
    5.2531    0.3434   -1.5938 O   0  0  0  0  0  0  0  0  0  0  0  0 
    4.5560   -0.7191   -0.5948 P   0  0  0  0  0  0  0  0  0  0  0  0 
    0.2172   -0.3363   -2.5885 H   0  0  0  0  0  0  0  0  0  0  0  0 
    0.6433    0.8436   -1.3343 H   0  0  0  0  0  0  0  0  0  0  0  0 
    0.4147   -0.8677   -0.9052 H   0  0  0  0  0  0  0  0  0  0  0  0 
    7.8761    0.9498   -3.5997 H   0  0  0  0  0  0  0  0  0  0  0  0 
    6.7033    2.1110   -2.9413 H   0  0  0  0  0  0  0  0  0  0  0  0 
    6.1625    0.8344   -4.0543 H   0  0  0  0  0  0  0  0  0  0  0  0 
    2.6709    0.2283   -2.6978 H   0  0  0  0  0  0  0  0  0  0  0  0 
    2.4290   -1.4857   -2.2759 H   0  0  0  0  0  0  0  0  0  0  0  0 
    7.3006    0.3687   -1.2333 H   0  0  0  0  0  0  0  0  0  0  0  0 
    6.7402   -0.9119   -2.3358 H   0  0  0  0  0  0  0  0  0  0  0  0 
    4.2239   -0.7103    1.7623 H   0  0  0  0  0  0  0  0  0  0  0  0 
    5.9220   -0.4350    1.3646 H   0  0  0  0  0  0  0  0  0  0  0  0 
    3.0436    1.2574    0.4959 H   0  0  0  0  0  0  0  0  0  0  0  0 
  1 14  1  0  0  0  0 
  1 15  1  0  0  0  0 
  2 17  1  0  0  0  0 
  2  4  1  0  0  0  0 
  3  1  1  0  0  0  0 
  3 10  1  0  0  0  0 
  4 11  1  0  0  0  0 
  4 21  1  0  0  0  0 
  5 24  1  0  0  0  0 
  5  6  1  0  0  0  0 
  5 23  1  0  0  0  0 
  6  7  2  0  0  0  0 
  8  6  1  0  0  0  0 
  9 12  2  0  0  0  0 
 10 12  1  0  0  0  0 
 11 12  1  0  0  0  0 
 12  5  1  0  0  0  0 
 13  1  1  0  0  0  0 
 16  2  1  0  0  0  0 
 18  2  1  0  0  0  0 
 19  3  1  0  0  0  0 
 20  3  1  0  0  0  0 
 22  4  1  0  0  0  0 
 25  8  1  0  0  0  0 
M  END 
>  <HBA> 
5 
 
>  <HBD> 
1 
 
>  <TPSA> 
82.64 
 
>  <cid> 
36704 
 
>  <dipole> 
3.8 
 
>  <excitation_energy_1> 
5.605 
 
>  <excitation_energy_2> 
6.726 
 
>  <excitation_energy_3> 
7.259 
 
>  <excitation_energy_4> 
7.307 
 
>  <homo_energy> 
-7.29 
 
>  <homo_lumo_gap> 
7.451 
 
>  <logP> 
1.337 
 
>  <lumo_energy> 
0.161 
 
>  <melting_point> 
48.13 
 
>  <molecular_refractivity> 
43.56 
 
>  <oscillator_strength_1> 
0.0042 
 
>  <oscillator_strength_2> 
0.0163 
 
>  <oscillator_strength_3> 
0.0103 
 
>  <oscillator_strength_4> 
0.0085 
 
>  <open_babel_can_smiles> 
CCOP(=O)(CC(=O)O)OCC 
 
>  <mulliken_charges> 
25 
1   -0.463575 
2   -0.456272 
3   -0.038956 
4   -0.047347 
5   -0.62001 
6   0.596003 
7   -0.43447 
8   -0.575671 
9   -0.540813 
10   -0.579606 
11   -0.541292 
12   1.145009 
13   0.161843 
14   0.165719 
15   0.171506 
16   0.156501 
17   0.172014 
18   0.162478 
19   0.170588 
20   0.181072 
21   0.159266 
22   0.178905 
23   0.21869 
24   0.221634 
25   0.436783 
 
>  <lowdin_charges> 
25 
1   -0.448561 
2   -0.445455 
3   -0.116141 
4   -0.114328 
5   -0.499481 
6   0.199428 
7   -0.240905 
8   -0.36071 
9   -0.580697 
10   -0.419689 
11   -0.409239 
12   1.057154 
13   0.165375 
14   0.159406 
15   0.164912 
16   0.161275 
17   0.162962 
18   0.160129 
19   0.157913 
20   0.163474 
21   0.150745 
22   0.161278 
23   0.206402 
24   0.203568 
25   0.361183 
 
$$$$ 
 
