PCCDB-ID:  20622 
public computational chemistry database (PCCDB) project, http://pccdb.org 
 
 18 18  0  0  0  0  0  0  0  0999 V2000 
    1.1132   -0.4265   -0.4888 C   0  0  0  0  0  0  0  0  0  0  0  0 
    2.6028   -0.2508   -0.5372 C   0  0  0  0  0  0  0  0  0  0  0  0 
    3.2425    0.8513   -0.9329 C   0  0  0  0  0  0  0  0  0  0  0  0 
    5.3296    2.6684   -2.3891 C   0  0  0  0  0  0  0  0  0  0  0  0 
    5.3121    3.1916   -0.9304 C   0  0  0  0  0  0  0  0  0  0  0  0 
    4.7416    0.9683   -0.9617 C   0  0  0  0  0  0  0  0  0  0  0  0 
    5.2349    1.2528   -2.2645 O   0  0  0  0  0  0  0  0  0  0  0  0 
    5.2168    2.0183   -0.1290 O   0  0  0  0  0  0  0  0  0  0  0  0 
    0.7925   -1.2581   -1.1306 H   0  0  0  0  0  0  0  0  0  0  0  0 
    0.5888    0.4774   -0.8160 H   0  0  0  0  0  0  0  0  0  0  0  0 
    0.7762   -0.6674    0.5283 H   0  0  0  0  0  0  0  0  0  0  0  0 
    3.1970   -1.1102   -0.2195 H   0  0  0  0  0  0  0  0  0  0  0  0 
    2.6798    1.7276   -1.2573 H   0  0  0  0  0  0  0  0  0  0  0  0 
    6.2598    2.8996   -2.9175 H   0  0  0  0  0  0  0  0  0  0  0  0 
    4.4901    3.0699   -2.9734 H   0  0  0  0  0  0  0  0  0  0  0  0 
    4.4606    3.8626   -0.7510 H   0  0  0  0  0  0  0  0  0  0  0  0 
    6.2306    3.7173   -0.6512 H   0  0  0  0  0  0  0  0  0  0  0  0 
    5.2086    0.0369   -0.6238 H   0  0  0  0  0  0  0  0  0  0  0  0 
  1 11  1  0  0  0  0 
  2  1  1  0  0  0  0 
  2 12  1  0  0  0  0 
  3  2  2  0  0  0  0 
  4  7  1  0  0  0  0 
  4  5  1  0  0  0  0 
  5 16  1  0  0  0  0 
  5 17  1  0  0  0  0 
  5  8  1  0  0  0  0 
  6  3  1  0  0  0  0 
  6 18  1  0  0  0  0 
  6  8  1  0  0  0  0 
  7  6  1  0  0  0  0 
  9  1  1  0  0  0  0 
 10  1  1  0  0  0  0 
 13  3  1  0  0  0  0 
 14  4  1  0  0  0  0 
 15  4  1  0  0  0  0 
M  END 
>  <HBA> 
2 
 
>  <HBD> 
0 
 
>  <TPSA> 
18.46 
 
>  <cid> 
20622 
 
>  <dipole> 
1.43 
 
>  <excitation_energy_1> 
6.245 
 
>  <excitation_energy_2> 
6.287 
 
>  <excitation_energy_3> 
6.481 
 
>  <excitation_energy_4> 
6.518 
 
>  <homo_energy> 
-6.585 
 
>  <homo_lumo_gap> 
7.059 
 
>  <logP> 
0.935 
 
>  <lumo_energy> 
0.473 
 
>  <melting_point> 
-12.09 
 
>  <molecular_refractivity> 
30.54 
 
>  <oscillator_strength_1> 
0.0046 
 
>  <oscillator_strength_2> 
0.0004 
 
>  <oscillator_strength_3> 
0.2215 
 
>  <oscillator_strength_4> 
0.0017 
 
>  <open_babel_can_smiles> 
C/C=C/C1OCCO1 
 
>  <mulliken_charges> 
18 
1   -0.490275 
2   -0.094015 
3   -0.074714 
4   -0.053509 
5   -0.054137 
6   0.28321 
7   -0.480691 
8   -0.480251 
9   0.160006 
10   0.154605 
11   0.1598 
12   0.126816 
13   0.118487 
14   0.153123 
15   0.138584 
16   0.138585 
17   0.153302 
18   0.141073 
 
>  <lowdin_charges> 
18 
1   -0.439267 
2   -0.148439 
3   -0.19563 
4   -0.149366 
5   -0.148606 
6   0.104614 
7   -0.264604 
8   -0.262682 
9   0.1607 
10   0.156238 
11   0.159172 
12   0.15068 
13   0.150844 
14   0.151819 
15   0.137357 
16   0.136837 
17   0.152182 
18   0.148152 
 
$$$$ 
 
