PCCDB-ID:  34590 
public computational chemistry database (PCCDB) project, http://pccdb.org 
 
 19 19  0  0  0  0  0  0  0  0999 V2000 
    0.8283    0.0238   -0.2545 C   0  0  0  0  0  0  0  0  0  0  0  0 
    3.1224    0.0748   -1.3446 C   0  0  0  0  0  0  0  0  0  0  0  0 
    3.4908    3.1869    2.5027 C   0  0  0  0  0  0  0  0  0  0  0  0 
    2.8711    3.4147    1.2728 C   0  0  0  0  0  0  0  0  0  0  0  0 
    3.3771    0.9533    2.1305 C   0  0  0  0  0  0  0  0  0  0  0  0 
    2.3489    0.0187   -0.0143 C   0  0  0  0  0  0  0  0  0  0  0  0 
    2.7558    1.1663    0.8908 C   0  0  0  0  0  0  0  0  0  0  0  0 
    3.7480    1.9498    2.9401 N   0  0  0  0  0  0  0  0  0  0  0  0 
    2.5039    2.4156    0.4662 N   0  0  0  0  0  0  0  0  0  0  0  0 
    0.5397   -0.8107   -0.9036 H   0  0  0  0  0  0  0  0  0  0  0  0 
    0.5232    0.9590   -0.7350 H   0  0  0  0  0  0  0  0  0  0  0  0 
    0.2749   -0.0700    0.6868 H   0  0  0  0  0  0  0  0  0  0  0  0 
    2.8305   -0.7585   -1.9939 H   0  0  0  0  0  0  0  0  0  0  0  0 
    4.2043    0.0148   -1.1806 H   0  0  0  0  0  0  0  0  0  0  0  0 
    2.9103    1.0129   -1.8682 H   0  0  0  0  0  0  0  0  0  0  0  0 
    3.7848    4.0136    3.1464 H   0  0  0  0  0  0  0  0  0  0  0  0 
    2.6659    4.4273    0.9292 H   0  0  0  0  0  0  0  0  0  0  0  0 
    3.5804   -0.0588    2.4777 H   0  0  0  0  0  0  0  0  0  0  0  0 
    2.6146   -0.9148    0.5004 H   0  0  0  0  0  0  0  0  0  0  0  0 
  1  6  1  0  0  0  0 
  1 12  1  0  0  0  0 
  2 14  1  0  0  0  0 
  2  6  1  0  0  0  0 
  3  8  1  0  0  0  0 
  3 16  1  0  0  0  0 
  4  3  2  0  0  0  0 
  5 18  1  0  0  0  0 
  5  8  2  0  0  0  0 
  6 19  1  0  0  0  0 
  6  7  1  0  0  0  0 
  7  5  1  0  0  0  0 
  9  7  2  0  0  0  0 
  9  4  1  0  0  0  0 
 10  1  1  0  0  0  0 
 11  1  1  0  0  0  0 
 13  2  1  0  0  0  0 
 15  2  1  0  0  0  0 
 17  4  1  0  0  0  0 
M  END 
>  <HBA> 
2 
 
>  <HBD> 
0 
 
>  <TPSA> 
25.78 
 
>  <cid> 
34590 
 
>  <dipole> 
0.61 
 
>  <excitation_energy_1> 
3.958 
 
>  <excitation_energy_2> 
4.72 
 
>  <excitation_energy_3> 
5.195 
 
>  <excitation_energy_4> 
5.586 
 
>  <homo_energy> 
-6.645 
 
>  <homo_lumo_gap> 
5.353 
 
>  <logP> 
1.6 
 
>  <lumo_energy> 
-1.293 
 
>  <melting_point> 
36.83 
 
>  <molecular_refractivity> 
36.61 
 
>  <oscillator_strength_1> 
0.0056 
 
>  <oscillator_strength_2> 
0.0003 
 
>  <oscillator_strength_3> 
0.1187 
 
>  <oscillator_strength_4> 
0.0 
 
>  <open_babel_can_smiles> 
CC(c1nccnc1)C 
 
>  <mulliken_charges> 
19 
1   -0.443937 
2   -0.44379 
3   0.027692 
4   0.033628 
5   -0.013484 
6   -0.141858 
7   0.316587 
8   -0.375811 
9   -0.443903 
10   0.143109 
11   0.168144 
12   0.144341 
13   0.143521 
14   0.144397 
15   0.167493 
16   0.149016 
17   0.148047 
18   0.145913 
19   0.130893 
 
>  <lowdin_charges> 
19 
1   -0.442352 
2   -0.44004 
3   -0.114198 
4   -0.101952 
5   -0.117777 
6   -0.123411 
7   0.040169 
8   -0.118718 
9   -0.13076 
10   0.150946 
11   0.160627 
12   0.150496 
13   0.15105 
14   0.148584 
15   0.1602 
16   0.163786 
17   0.161037 
18   0.159449 
19   0.142863 
 
$$$$ 
 
