PCCDB-ID:  7099 
public computational chemistry database (PCCDB) project, http://pccdb.org 
 
 27 29  0  0  0  0  0  0  0  0999 V2000 
   -2.4792   -1.4164    0.0154 C   0  0  0  0  0  0  0  0  0  0  0  0 
    2.4925   -1.3953    0.0121 C   0  0  0  0  0  0  0  0  0  0  0  0 
   -3.6376   -0.6920   -0.0045 C   0  0  0  0  0  0  0  0  0  0  0  0 
    3.6447   -0.6611   -0.0097 C   0  0  0  0  0  0  0  0  0  0  0  0 
    0.0069   -1.4623    0.0144 C   0  0  0  0  0  0  0  0  0  0  0  0 
   -2.3863    1.3946   -0.0564 C   0  0  0  0  0  0  0  0  0  0  0  0 
    2.3757    1.4147   -0.0603 C   0  0  0  0  0  0  0  0  0  0  0  0 
   -1.2062   -0.7721   -0.0042 C   0  0  0  0  0  0  0  0  0  0  0  0 
    1.2140   -0.7618   -0.0059 C   0  0  0  0  0  0  0  0  0  0  0  0 
   -3.6034    0.7425   -0.0408 C   0  0  0  0  0  0  0  0  0  0  0  0 
    3.5983    0.7730   -0.0464 C   0  0  0  0  0  0  0  0  0  0  0  0 
   -1.1598    0.6736   -0.0436 C   0  0  0  0  0  0  0  0  0  0  0  0 
    1.1553    0.6834   -0.0454 C   0  0  0  0  0  0  0  0  0  0  0  0 
   -4.8121    1.4322   -0.1169 N   0  0  0  0  0  0  0  0  0  0  0  0 
    4.8010    1.4729   -0.1248 N   0  0  0  0  0  0  0  0  0  0  0  0 
   -0.0051    1.3654   -0.0613 N   0  0  0  0  0  0  0  0  0  0  0  0 
   -2.5149   -2.5033    0.0450 H   0  0  0  0  0  0  0  0  0  0  0  0 
    2.5375   -2.4818    0.0420 H   0  0  0  0  0  0  0  0  0  0  0  0 
   -4.6021   -1.1946   -0.0017 H   0  0  0  0  0  0  0  0  0  0  0  0 
    4.6134   -1.1556   -0.0080 H   0  0  0  0  0  0  0  0  0  0  0  0 
    0.0115   -2.5512    0.0445 H   0  0  0  0  0  0  0  0  0  0  0  0 
   -2.3283    2.4791   -0.0826 H   0  0  0  0  0  0  0  0  0  0  0  0 
    2.3085    2.4988   -0.0867 H   0  0  0  0  0  0  0  0  0  0  0  0 
   -5.6045    0.9701    0.3111 H   0  0  0  0  0  0  0  0  0  0  0  0 
   -4.7652    2.4120    0.1339 H   0  0  0  0  0  0  0  0  0  0  0  0 
    5.5980    1.0177    0.3021 H   0  0  0  0  0  0  0  0  0  0  0  0 
    4.7462    2.4523    0.1257 H   0  0  0  0  0  0  0  0  0  0  0  0 
  1 17  1  0  0  0  0 
  2 18  1  0  0  0  0 
  3 19  1  0  0  0  0 
  3  1  1  0  0  0  0 
  4 20  1  0  0  0  0 
  4  2  2  0  0  0  0 
  5 21  1  0  0  0  0 
  6 12  2  0  0  0  0 
  6 10  1  0  0  0  0 
  7 11  2  0  0  0  0 
  7 13  1  0  0  0  0 
  8  5  1  0  0  0  0 
  8  1  2  0  0  0  0 
  9  2  1  0  0  0  0 
  9  5  2  0  0  0  0 
 10  3  2  0  0  0  0 
 11  4  1  0  0  0  0 
 12  8  1  0  0  0  0 
 13  9  1  0  0  0  0 
 14 10  1  0  0  0  0 
 14 25  1  0  0  0  0 
 14 24  1  0  0  0  0 
 15 11  1  0  0  0  0 
 15 27  1  0  0  0  0 
 15 26  1  0  0  0  0 
 16 13  2  0  0  0  0 
 16 12  1  0  0  0  0 
 22  6  1  0  0  0  0 
 23  7  1  0  0  0  0 
M  END 
>  <HBA> 
3 
 
>  <HBD> 
2 
 
>  <TPSA> 
64.93 
 
>  <cid> 
7099 
 
>  <dipole> 
2.32 
 
>  <excitation_energy_1> 
3.077 
 
>  <excitation_energy_2> 
3.403 
 
>  <excitation_energy_3> 
3.883 
 
>  <excitation_energy_4> 
4.316 
 
>  <homo_energy> 
-4.993 
 
>  <homo_lumo_gap> 
3.532 
 
>  <logP> 
3.715 
 
>  <lumo_energy> 
-1.461 
 
>  <melting_point> 
208.81 
 
>  <molecular_refractivity> 
68.06 
 
>  <oscillator_strength_1> 
0.0195 
 
>  <oscillator_strength_2> 
0.2123 
 
>  <oscillator_strength_3> 
0.0005 
 
>  <oscillator_strength_4> 
0.1754 
 
>  <open_babel_can_smiles> 
Nc1ccc2c(c1)nc1c(c2)ccc(c1)N 
 
>  <mulliken_charges> 
27 
1   -0.193392 
2   -0.193416 
3   -0.174299 
4   -0.174276 
5   -0.234632 
6   -0.228671 
7   -0.228667 
8   0.146943 
9   0.147017 
10   0.325634 
11   0.325656 
12   0.265566 
13   0.265568 
14   -0.791435 
15   -0.791468 
16   -0.636137 
17   0.129482 
18   0.129467 
19   0.121801 
20   0.121797 
21   0.129728 
22   0.122515 
23   0.122505 
24   0.320897 
25   0.325454 
26   0.320903 
27   0.32546 
 
>  <lowdin_charges> 
27 
1   -0.142024 
2   -0.142035 
3   -0.188994 
4   -0.188927 
5   -0.124461 
6   -0.219142 
7   -0.219129 
8   -0.038481 
9   -0.03847 
10   0.064027 
11   0.063977 
12   0.05755 
13   0.057536 
14   -0.479292 
15   -0.47923 
16   -0.186604 
17   0.155648 
18   0.155652 
19   0.15507 
20   0.155017 
21   0.154635 
22   0.159522 
23   0.159529 
24   0.277294 
25   0.277031 
26   0.277261 
27   0.277039 
 
$$$$ 
 
