PCCDB-ID:  69334 
public computational chemistry database (PCCDB) project, http://pccdb.org 
 
 19 19  0  0  0  0  0  0  0  0999 V2000 
    0.9490   -0.1222    0.1696 C   0  0  0  0  0  0  0  0  0  0  0  0 
    7.2576   -0.0282   -2.1988 C   0  0  0  0  0  0  0  0  0  0  0  0 
    3.1758   -1.3141   -0.0549 C   0  0  0  0  0  0  0  0  0  0  0  0 
    3.1699    1.0878    0.0139 C   0  0  0  0  0  0  0  0  0  0  0  0 
    4.5640   -1.3115   -0.1918 C   0  0  0  0  0  0  0  0  0  0  0  0 
    4.5571    1.1000   -0.1221 C   0  0  0  0  0  0  0  0  0  0  0  0 
    2.4548   -0.1175    0.0461 C   0  0  0  0  0  0  0  0  0  0  0  0 
    5.2678   -0.1021   -0.2349 C   0  0  0  0  0  0  0  0  0  0  0  0 
    7.0597   -0.0931   -0.3744 S   0  0  0  0  0  0  0  0  0  0  0  0 
    0.5824   -1.0731    0.5696 H   0  0  0  0  0  0  0  0  0  0  0  0 
    0.4702    0.0277   -0.8074 H   0  0  0  0  0  0  0  0  0  0  0  0 
    0.5978    0.6804    0.8273 H   0  0  0  0  0  0  0  0  0  0  0  0 
    8.3333   -0.0181   -2.3966 H   0  0  0  0  0  0  0  0  0  0  0  0 
    6.8097    0.8800   -2.6104 H   0  0  0  0  0  0  0  0  0  0  0  0 
    6.8148   -0.9077   -2.6735 H   0  0  0  0  0  0  0  0  0  0  0  0 
    2.6447   -2.2628   -0.0197 H   0  0  0  0  0  0  0  0  0  0  0  0 
    2.6340    2.0304    0.1034 H   0  0  0  0  0  0  0  0  0  0  0  0 
    5.1078   -2.2494   -0.2579 H   0  0  0  0  0  0  0  0  0  0  0  0 
    5.0963    2.0428   -0.1338 H   0  0  0  0  0  0  0  0  0  0  0  0 
  1 10  1  0  0  0  0 
  1 12  1  0  0  0  0 
  2  9  1  0  0  0  0 
  3 16  1  0  0  0  0 
  3  7  2  0  0  0  0 
  4  7  1  0  0  0  0 
  4 17  1  0  0  0  0 
  5  3  1  0  0  0  0 
  6  4  2  0  0  0  0 
  7  1  1  0  0  0  0 
  8  5  2  0  0  0  0 
  8  6  1  0  0  0  0 
  9  8  1  0  0  0  0 
 11  1  1  0  0  0  0 
 13  2  1  0  0  0  0 
 14  2  1  0  0  0  0 
 15  2  1  0  0  0  0 
 18  5  1  0  0  0  0 
 19  6  1  0  0  0  0 
M  END 
>  <HBA> 
1 
 
>  <HBD> 
0 
 
>  <TPSA> 
25.3 
 
>  <cid> 
69334 
 
>  <dipole> 
2.18 
 
>  <excitation_energy_1> 
4.483 
 
>  <excitation_energy_2> 
4.872 
 
>  <excitation_energy_3> 
5.165 
 
>  <excitation_energy_4> 
5.511 
 
>  <homo_energy> 
-6.033 
 
>  <homo_lumo_gap> 
5.657 
 
>  <logP> 
2.717 
 
>  <lumo_energy> 
-0.376 
 
>  <melting_point> 
20.97 
 
>  <molecular_refractivity> 
43.13 
 
>  <oscillator_strength_1> 
0.0001 
 
>  <oscillator_strength_2> 
0.0003 
 
>  <oscillator_strength_3> 
0.0003 
 
>  <oscillator_strength_4> 
0.0002 
 
>  <open_babel_can_smiles> 
CSc1ccc(cc1)C 
 
>  <mulliken_charges> 
19 
1   -0.529543 
2   -0.574651 
3   -0.170644 
4   -0.168373 
5   -0.138997 
6   -0.139434 
7   0.174703 
8   -0.096023 
9   0.072961 
10   0.158384 
11   0.167573 
12   0.160581 
13   0.1795 
14   0.180475 
15   0.180575 
16   0.125913 
17   0.125872 
18   0.14562 
19   0.14551 
 
>  <lowdin_charges> 
19 
1   -0.443226 
2   -0.541495 
3   -0.167995 
4   -0.16709 
5   -0.152058 
6   -0.151841 
7   0.008419 
8   -0.134759 
9   0.120998 
10   0.158899 
11   0.163069 
12   0.161067 
13   0.171457 
14   0.163999 
15   0.164292 
16   0.156564 
17   0.156672 
18   0.166599 
19   0.166431 
 
$$$$ 
 
