PCCDB-ID:  12439 
public computational chemistry database (PCCDB) project, http://pccdb.org 
 
 21 21  0  0  0  0  0  0  0  0999 V2000 
    0.8487    0.2541   -0.0414 C   0  0  0  0  0  0  0  0  0  0  0  0 
    5.1937   -2.4599    0.2033 C   0  0  0  0  0  0  0  0  0  0  0  0 
    4.4953    1.2830    0.2939 C   0  0  0  0  0  0  0  0  0  0  0  0 
    3.1084    1.3265    0.1905 C   0  0  0  0  0  0  0  0  0  0  0  0 
    5.1560    0.0558    0.2860 C   0  0  0  0  0  0  0  0  0  0  0  0 
    2.3594    0.1512    0.0562 C   0  0  0  0  0  0  0  0  0  0  0  0 
    4.4481   -1.1447    0.1776 C   0  0  0  0  0  0  0  0  0  0  0  0 
    3.0425   -1.0846    0.0415 C   0  0  0  0  0  0  0  0  0  0  0  0 
    2.2790   -2.3783   -0.0702 C   0  0  0  0  0  0  0  0  0  0  0  0 
    2.3749   -3.3021    0.7008 O   0  0  0  0  0  0  0  0  0  0  0  0 
    1.4369   -2.4809   -1.1384 O   0  0  0  0  0  0  0  0  0  0  0  0 
    0.5052    1.1842    0.4211 H   0  0  0  0  0  0  0  0  0  0  0  0 
    0.3375   -0.5761    0.4538 H   0  0  0  0  0  0  0  0  0  0  0  0 
    0.4985    0.2755   -1.0831 H   0  0  0  0  0  0  0  0  0  0  0  0 
    6.2736   -2.2869    0.2227 H   0  0  0  0  0  0  0  0  0  0  0  0 
    4.9660   -3.0777   -0.6732 H   0  0  0  0  0  0  0  0  0  0  0  0 
    4.9169   -3.0513    1.0809 H   0  0  0  0  0  0  0  0  0  0  0  0 
    5.0620    2.2052    0.3912 H   0  0  0  0  0  0  0  0  0  0  0  0 
    2.5915    2.2826    0.2198 H   0  0  0  0  0  0  0  0  0  0  0  0 
    6.2387    0.0231    0.3754 H   0  0  0  0  0  0  0  0  0  0  0  0 
    1.5367   -1.6950   -1.7007 H   0  0  0  0  0  0  0  0  0  0  0  0 
  1  6  1  0  0  0  0 
  1 12  1  0  0  0  0 
  1 13  1  0  0  0  0 
  2 15  1  0  0  0  0 
  2 17  1  0  0  0  0 
  3 18  1  0  0  0  0 
  4 19  1  0  0  0  0 
  4  3  2  0  0  0  0 
  5  3  1  0  0  0  0 
  5 20  1  0  0  0  0 
  6  4  1  0  0  0  0 
  7  2  1  0  0  0  0 
  7  5  2  0  0  0  0 
  8  6  2  0  0  0  0 
  8  7  1  0  0  0  0 
  9  8  1  0  0  0  0 
  9 10  2  0  0  0  0 
 11  9  1  0  0  0  0 
 14  1  1  0  0  0  0 
 16  2  1  0  0  0  0 
 21 11  1  0  0  0  0 
M  END 
>  <HBA> 
2 
 
>  <HBD> 
1 
 
>  <TPSA> 
37.3 
 
>  <cid> 
12439 
 
>  <dipole> 
4.15 
 
>  <excitation_energy_1> 
4.856 
 
>  <excitation_energy_2> 
4.985 
 
>  <excitation_energy_3> 
5.482 
 
>  <excitation_energy_4> 
5.995 
 
>  <homo_energy> 
-6.787 
 
>  <homo_lumo_gap> 
5.799 
 
>  <logP> 
2.002 
 
>  <lumo_energy> 
-0.988 
 
>  <melting_point> 
104.32 
 
>  <molecular_refractivity> 
43.33 
 
>  <oscillator_strength_1> 
0.0272 
 
>  <oscillator_strength_2> 
0.0293 
 
>  <oscillator_strength_3> 
0.0434 
 
>  <oscillator_strength_4> 
0.1155 
 
>  <open_babel_can_smiles> 
OC(=O)c1c(C)cccc1C 
 
>  <mulliken_charges> 
21 
1   -0.54825 
2   -0.526508 
3   -0.109341 
4   -0.188645 
5   -0.193875 
6   0.141401 
7   0.155899 
8   -0.074357 
9   0.518073 
10   -0.437167 
11   -0.565405 
12   0.16733 
13   0.186617 
14   0.155292 
15   0.149576 
16   0.164042 
17   0.197506 
18   0.136506 
19   0.128849 
20   0.131022 
21   0.411434 
 
>  <lowdin_charges> 
21 
1   -0.451042 
2   -0.443777 
3   -0.142931 
4   -0.170219 
5   -0.165947 
6   -0.00087 
7   0.021242 
8   -0.08044 
9   0.1968 
10   -0.232326 
11   -0.356001 
12   0.164946 
13   0.172035 
14   0.154321 
15   0.153306 
16   0.163798 
17   0.180632 
18   0.162038 
19   0.158057 
20   0.157103 
21   0.359275 
 
$$$$ 
 
