PCCDB-ID:  66192 
public computational chemistry database (PCCDB) project, http://pccdb.org 
 
 27 26  0  0  0  0  0  0  0  0999 V2000 
    0.6630    2.0162    0.1319 C   0  0  0  0  0  0  0  0  0  0  0  0 
    7.4924    0.9581   -1.1559 C   0  0  0  0  0  0  0  0  0  0  0  0 
    4.8924   -1.9265    1.0690 C   0  0  0  0  0  0  0  0  0  0  0  0 
    2.1602    2.2987    0.2871 C   0  0  0  0  0  0  0  0  0  0  0  0 
    6.8244    0.5860    0.1707 C   0  0  0  0  0  0  0  0  0  0  0  0 
    4.9989   -1.0845   -0.2086 C   0  0  0  0  0  0  0  0  0  0  0  0 
    3.0215    1.0705   -0.0215 C   0  0  0  0  0  0  0  0  0  0  0  0 
    4.5194    1.3636    0.1153 C   0  0  0  0  0  0  0  0  0  0  0  0 
    5.3910    0.3033    0.0320 N   0  0  0  0  0  0  0  0  0  0  0  0 
    4.9276    2.5101    0.2903 O   0  0  0  0  0  0  0  0  0  0  0  0 
    0.0686    2.9091    0.3559 H   0  0  0  0  0  0  0  0  0  0  0  0 
    0.3308    1.2189    0.8089 H   0  0  0  0  0  0  0  0  0  0  0  0 
    0.4177    1.7030   -0.8910 H   0  0  0  0  0  0  0  0  0  0  0  0 
    8.5628    1.1424   -1.0062 H   0  0  0  0  0  0  0  0  0  0  0  0 
    7.0403    1.8685   -1.5599 H   0  0  0  0  0  0  0  0  0  0  0  0 
    7.3891    0.1578   -1.8985 H   0  0  0  0  0  0  0  0  0  0  0  0 
    4.6324   -2.9629    0.8234 H   0  0  0  0  0  0  0  0  0  0  0  0 
    4.1227   -1.5292    1.7394 H   0  0  0  0  0  0  0  0  0  0  0  0 
    5.8408   -1.9378    1.6172 H   0  0  0  0  0  0  0  0  0  0  0  0 
    2.3762    2.6399    1.3062 H   0  0  0  0  0  0  0  0  0  0  0  0 
    2.4633    3.1201   -0.3704 H   0  0  0  0  0  0  0  0  0  0  0  0 
    6.9322    1.4076    0.8817 H   0  0  0  0  0  0  0  0  0  0  0  0 
    7.2998   -0.3011    0.6047 H   0  0  0  0  0  0  0  0  0  0  0  0 
    4.0504   -1.1049   -0.7501 H   0  0  0  0  0  0  0  0  0  0  0  0 
    5.7418   -1.5286   -0.8830 H   0  0  0  0  0  0  0  0  0  0  0  0 
    2.8186    0.7256   -1.0466 H   0  0  0  0  0  0  0  0  0  0  0  0 
    2.7369    0.2375    0.6352 H   0  0  0  0  0  0  0  0  0  0  0  0 
  1  4  1  0  0  0  0 
  1 11  1  0  0  0  0 
  1 12  1  0  0  0  0 
  2 14  1  0  0  0  0 
  2  5  1  0  0  0  0 
  3 19  1  0  0  0  0 
  3 18  1  0  0  0  0 
  4 20  1  0  0  0  0 
  5 23  1  0  0  0  0 
  5 22  1  0  0  0  0 
  6  9  1  0  0  0  0 
  6  3  1  0  0  0  0 
  7  8  1  0  0  0  0 
  7  4  1  0  0  0  0 
  7 27  1  0  0  0  0 
  8 10  2  0  0  0  0 
  9  8  1  0  0  0  0 
  9  5  1  0  0  0  0 
 13  1  1  0  0  0  0 
 15  2  1  0  0  0  0 
 16  2  1  0  0  0  0 
 17  3  1  0  0  0  0 
 21  4  1  0  0  0  0 
 24  6  1  0  0  0  0 
 25  6  1  0  0  0  0 
 26  7  1  0  0  0  0 
M  END 
>  <HBA> 
2 
 
>  <HBD> 
0 
 
>  <TPSA> 
20.31 
 
>  <cid> 
66192 
 
>  <dipole> 
3.46 
 
>  <excitation_energy_1> 
5.578 
 
>  <excitation_energy_2> 
5.667 
 
>  <excitation_energy_3> 
6.02 
 
>  <excitation_energy_4> 
6.123 
 
>  <homo_energy> 
-6.253 
 
>  <homo_lumo_gap> 
7.238 
 
>  <logP> 
1.655 
 
>  <lumo_energy> 
0.985 
 
>  <melting_point> 
-3.86 
 
>  <molecular_refractivity> 
43.67 
 
>  <oscillator_strength_1> 
0.0017 
 
>  <oscillator_strength_2> 
0.0157 
 
>  <oscillator_strength_3> 
0.0134 
 
>  <oscillator_strength_4> 
0.0456 
 
>  <open_babel_can_smiles> 
CCCC(=O)N(CC)CC 
 
>  <mulliken_charges> 
27 
1   -0.448197 
2   -0.44424 
3   -0.442175 
4   -0.236036 
5   -0.142223 
6   -0.151904 
7   -0.373703 
8   0.601701 
9   -0.411859 
10   -0.528587 
11   0.146338 
12   0.13699 
13   0.137785 
14   0.143876 
15   0.175601 
16   0.138451 
17   0.147446 
18   0.156608 
19   0.156005 
20   0.147818 
21   0.156798 
22   0.180439 
23   0.135111 
24   0.158391 
25   0.152021 
26   0.156756 
27   0.150788 
 
>  <lowdin_charges> 
27 
1   -0.44681 
2   -0.450905 
3   -0.453839 
4   -0.266403 
5   -0.195631 
6   -0.19786 
7   -0.30834 
8   0.156091 
9   -0.110086 
10   -0.320488 
11   0.152246 
12   0.144501 
13   0.143421 
14   0.151028 
15   0.164882 
16   0.145086 
17   0.153151 
18   0.154401 
19   0.153835 
20   0.149605 
21   0.155784 
22   0.169171 
23   0.142459 
24   0.155438 
25   0.150489 
26   0.155442 
27   0.153329 
 
$$$$ 
 
