PCCDB-ID:  17502 
public computational chemistry database (PCCDB) project, http://pccdb.org 
 
 23 24  0  0  0  0  0  0  0  0999 V2000 
    0.9341    0.0670   -0.0839 C   0  0  0  0  0  0  0  0  0  0  0  0 
    6.8224    0.1448   -0.0978 C   0  0  0  0  0  0  0  0  0  0  0  0 
    3.3392   -3.5700   -0.1218 C   0  0  0  0  0  0  0  0  0  0  0  0 
    2.5666   -2.4312   -0.1103 C   0  0  0  0  0  0  0  0  0  0  0  0 
    3.1513    1.2527   -0.0796 C   0  0  0  0  0  0  0  0  0  0  0  0 
    4.5668    1.2782   -0.0837 C   0  0  0  0  0  0  0  0  0  0  0  0 
    4.7457   -3.4308   -0.1257 C   0  0  0  0  0  0  0  0  0  0  0  0 
    2.4443    0.0698   -0.0882 C   0  0  0  0  0  0  0  0  0  0  0  0 
    5.3166    0.1219   -0.0958 C   0  0  0  0  0  0  0  0  0  0  0  0 
    3.1857   -1.1550   -0.1016 C   0  0  0  0  0  0  0  0  0  0  0  0 
    4.6199   -1.1293   -0.1052 C   0  0  0  0  0  0  0  0  0  0  0  0 
    5.3696   -2.2694   -0.1179 N   0  0  0  0  0  0  0  0  0  0  0  0 
    0.5459    1.0899   -0.0782 H   0  0  0  0  0  0  0  0  0  0  0  0 
    0.5273   -0.4456    0.7974 H   0  0  0  0  0  0  0  0  0  0  0  0 
    0.5224   -0.4376   -0.9676 H   0  0  0  0  0  0  0  0  0  0  0  0 
    7.1965    1.1736   -0.1143 H   0  0  0  0  0  0  0  0  0  0  0  0 
    7.2262   -0.3893   -0.9647 H   0  0  0  0  0  0  0  0  0  0  0  0 
    7.2278   -0.3595    0.7867 H   0  0  0  0  0  0  0  0  0  0  0  0 
    2.8886   -4.5581   -0.1270 H   0  0  0  0  0  0  0  0  0  0  0  0 
    1.4833   -2.5050   -0.1084 H   0  0  0  0  0  0  0  0  0  0  0  0 
    2.6102    2.1961   -0.0688 H   0  0  0  0  0  0  0  0  0  0  0  0 
    5.0724    2.2411   -0.0778 H   0  0  0  0  0  0  0  0  0  0  0  0 
    5.3778   -4.3189   -0.1366 H   0  0  0  0  0  0  0  0  0  0  0  0 
  1 13  1  0  0  0  0 
  1 14  1  0  0  0  0 
  2  9  1  0  0  0  0 
  2 18  1  0  0  0  0 
  3  4  1  0  0  0  0 
  4 20  1  0  0  0  0 
  4 10  2  0  0  0  0 
  5 21  1  0  0  0  0 
  6  5  1  0  0  0  0 
  6 22  1  0  0  0  0 
  7  3  2  0  0  0  0 
  7 12  1  0  0  0  0 
  8  1  1  0  0  0  0 
  8  5  2  0  0  0  0 
  9  6  2  0  0  0  0 
 10  8  1  0  0  0  0 
 11 10  1  0  0  0  0 
 11  9  1  0  0  0  0 
 12 11  2  0  0  0  0 
 15  1  1  0  0  0  0 
 16  2  1  0  0  0  0 
 17  2  1  0  0  0  0 
 19  3  1  0  0  0  0 
 23  7  1  0  0  0  0 
M  END 
>  <HBA> 
1 
 
>  <HBD> 
0 
 
>  <TPSA> 
12.89 
 
>  <cid> 
17502 
 
>  <dipole> 
1.93 
 
>  <excitation_energy_1> 
4.026 
 
>  <excitation_energy_2> 
4.244 
 
>  <excitation_energy_3> 
4.406 
 
>  <excitation_energy_4> 
5.171 
 
>  <homo_energy> 
-5.916 
 
>  <homo_lumo_gap> 
4.631 
 
>  <logP> 
2.852 
 
>  <lumo_energy> 
-1.284 
 
>  <melting_point> 
72.83 
 
>  <molecular_refractivity> 
51.67 
 
>  <oscillator_strength_1> 
0.0731 
 
>  <oscillator_strength_2> 
0.0014 
 
>  <oscillator_strength_3> 
0.0066 
 
>  <oscillator_strength_4> 
0.0 
 
>  <open_babel_can_smiles> 
Cc1ccc(c2c1nccc2)C 
 
>  <mulliken_charges> 
23 
1   -0.537422 
2   -0.508599 
3   -0.149799 
4   -0.157969 
5   -0.192846 
6   -0.202232 
7   0.043776 
8   0.127677 
9   0.172586 
10   0.113573 
11   0.172458 
12   -0.50256 
13   0.159071 
14   0.161925 
15   0.161863 
16   0.140846 
17   0.169961 
18   0.16886 
19   0.134845 
20   0.13934 
21   0.122755 
22   0.124196 
23   0.137695 
 
>  <lowdin_charges> 
23 
1   -0.444205 
2   -0.436528 
3   -0.181592 
4   -0.129637 
5   -0.166905 
6   -0.165677 
7   -0.087044 
8   -0.005657 
9   0.001008 
10   -0.022716 
11   0.035889 
12   -0.151991 
13   0.159303 
14   0.159784 
15   0.159732 
16   0.149323 
17   0.168142 
18   0.167431 
19   0.162722 
20   0.161493 
21   0.155595 
22   0.156434 
23   0.155095 
 
$$$$ 
 
