PCCDB-ID:  13143 
public computational chemistry database (PCCDB) project, http://pccdb.org 
 
 14 13  0  0  0  0  0  0  0  0999 V2000 
    0.9835   -0.0688    0.0681 C   0  0  0  0  0  0  0  0  0  0  0  0 
    3.1654    0.4667    1.1738 C   0  0  0  0  0  0  0  0  0  0  0  0 
    2.3335   -0.9199   -2.4338 C   0  0  0  0  0  0  0  0  0  0  0  0 
    2.3223   -0.0093    0.0193 C   0  0  0  0  0  0  0  0  0  0  0  0 
    3.0831   -0.4254   -1.2053 C   0  0  0  0  0  0  0  0  0  0  0  0 
    4.3040   -0.3644   -1.2066 O   0  0  0  0  0  0  0  0  0  0  0  0 
    0.4365    0.2314    0.9583 H   0  0  0  0  0  0  0  0  0  0  0  0 
    0.3825   -0.4149   -0.7669 H   0  0  0  0  0  0  0  0  0  0  0  0 
    2.5427    0.7502    2.0272 H   0  0  0  0  0  0  0  0  0  0  0  0 
    3.7776    1.3264    0.8799 H   0  0  0  0  0  0  0  0  0  0  0  0 
    3.8668   -0.3134    1.4897 H   0  0  0  0  0  0  0  0  0  0  0  0 
    1.6409   -0.1584   -2.8104 H   0  0  0  0  0  0  0  0  0  0  0  0 
    1.7444   -1.8155   -2.2048 H   0  0  0  0  0  0  0  0  0  0  0  0 
    3.0628   -1.1588   -3.2097 H   0  0  0  0  0  0  0  0  0  0  0  0 
  1  7  1  0  0  0  0 
  2 11  1  0  0  0  0 
  2  9  1  0  0  0  0 
  3 13  1  0  0  0  0 
  3  5  1  0  0  0  0 
  4  1  2  0  0  0  0 
  4  2  1  0  0  0  0 
  5  4  1  0  0  0  0 
  6  5  2  0  0  0  0 
  8  1  1  0  0  0  0 
 10  2  1  0  0  0  0 
 12  3  1  0  0  0  0 
 14  3  1  0  0  0  0 
M  END 
>  <HBA> 
1 
 
>  <HBD> 
0 
 
>  <TPSA> 
17.07 
 
>  <cid> 
13143 
 
>  <dipole> 
2.7 
 
>  <excitation_energy_1> 
3.672 
 
>  <excitation_energy_2> 
5.666 
 
>  <excitation_energy_3> 
6.373 
 
>  <excitation_energy_4> 
6.79 
 
>  <homo_energy> 
-6.71 
 
>  <homo_lumo_gap> 
5.304 
 
>  <logP> 
1.151 
 
>  <lumo_energy> 
-1.407 
 
>  <melting_point> 
-21.69 
 
>  <molecular_refractivity> 
25.88 
 
>  <oscillator_strength_1> 
0.0003 
 
>  <oscillator_strength_2> 
0.2399 
 
>  <oscillator_strength_3> 
0.0191 
 
>  <oscillator_strength_4> 
0.0005 
 
>  <open_babel_can_smiles> 
CC(=O)C(=C)C 
 
>  <mulliken_charges> 
14 
1   -0.386837 
2   -0.500156 
3   -0.544121 
4   0.147167 
5   0.415342 
6   -0.446298 
7   0.152677 
8   0.151067 
9   0.144125 
10   0.172602 
11   0.172953 
12   0.170016 
13   0.170529 
14   0.180935 
 
>  <lowdin_charges> 
14 
1   -0.316063 
2   -0.438603 
3   -0.477259 
4   -0.02615 
5   0.155147 
6   -0.237392 
7   0.165458 
8   0.16505 
9   0.154146 
10   0.169586 
11   0.170105 
12   0.170317 
13   0.170116 
14   0.175542 
 
$$$$ 
 
