PCCDB-ID:  6658 
public computational chemistry database (PCCDB) project, http://pccdb.org 
 
 15 14  0  0  0  0  0  0  0  0999 V2000 
    0.8457   -0.2128    0.1381 C   0  0  0  0  0  0  0  0  0  0  0  0 
    3.1501   -1.1998    0.3116 C   0  0  0  0  0  0  0  0  0  0  0  0 
    2.4841    3.5481   -0.6015 C   0  0  0  0  0  0  0  0  0  0  0  0 
    2.1765   -0.0701    0.1016 C   0  0  0  0  0  0  0  0  0  0  0  0 
    2.8085    1.2588   -0.1605 C   0  0  0  0  0  0  0  0  0  0  0  0 
    4.0116    1.4326   -0.2019 O   0  0  0  0  0  0  0  0  0  0  0  0 
    1.9133    2.2565   -0.3482 O   0  0  0  0  0  0  0  0  0  0  0  0 
    0.3914   -1.1815    0.3296 H   0  0  0  0  0  0  0  0  0  0  0  0 
    0.1778    0.6263   -0.0201 H   0  0  0  0  0  0  0  0  0  0  0  0 
    2.6228   -2.1386    0.5027 H   0  0  0  0  0  0  0  0  0  0  0  0 
    3.8168   -0.9900    1.1556 H   0  0  0  0  0  0  0  0  0  0  0  0 
    3.7946   -1.3285   -0.5652 H   0  0  0  0  0  0  0  0  0  0  0  0 
    1.6364    4.2225   -0.7285 H   0  0  0  0  0  0  0  0  0  0  0  0 
    3.0981    3.5280   -1.5061 H   0  0  0  0  0  0  0  0  0  0  0  0 
    3.1061    3.8667    0.2395 H   0  0  0  0  0  0  0  0  0  0  0  0 
  1  8  1  0  0  0  0 
  2 10  1  0  0  0  0 
  2 11  1  0  0  0  0 
  3  7  1  0  0  0  0 
  3 15  1  0  0  0  0 
  4  1  2  0  0  0  0 
  4  2  1  0  0  0  0 
  5  4  1  0  0  0  0 
  6  5  2  0  0  0  0 
  7  5  1  0  0  0  0 
  9  1  1  0  0  0  0 
 12  2  1  0  0  0  0 
 13  3  1  0  0  0  0 
 14  3  1  0  0  0  0 
M  END 
>  <HBA> 
2 
 
>  <HBD> 
0 
 
>  <TPSA> 
26.3 
 
>  <cid> 
6658 
 
>  <dipole> 
1.68 
 
>  <excitation_energy_1> 
4.813 
 
>  <excitation_energy_2> 
5.842 
 
>  <excitation_energy_3> 
6.499 
 
>  <excitation_energy_4> 
6.872 
 
>  <homo_energy> 
-7.285 
 
>  <homo_lumo_gap> 
6.245 
 
>  <logP> 
0.736 
 
>  <lumo_energy> 
-1.039 
 
>  <melting_point> 
-30.64 
 
>  <molecular_refractivity> 
26.96 
 
>  <oscillator_strength_1> 
0.0 
 
>  <oscillator_strength_2> 
0.2166 
 
>  <oscillator_strength_3> 
0.1341 
 
>  <oscillator_strength_4> 
0.0161 
 
>  <open_babel_can_smiles> 
COC(=O)C(=C)C 
 
>  <mulliken_charges> 
15 
1   -0.369368 
2   -0.500149 
3   -0.215607 
4   0.129239 
5   0.590337 
6   -0.485254 
7   -0.464997 
8   0.148059 
9   0.171868 
10   0.147047 
11   0.173013 
12   0.172865 
13   0.1627 
14   0.170175 
15   0.170073 
 
>  <lowdin_charges> 
15 
1   -0.303105 
2   -0.435367 
3   -0.277727 
4   -0.026875 
5   0.18816 
6   -0.265931 
7   -0.191293 
8   0.162979 
9   0.175848 
10   0.155423 
11   0.169286 
12   0.169058 
13   0.160244 
14   0.159275 
15   0.160026 
 
$$$$ 
 
