PCCDB-ID:  7499 
public computational chemistry database (PCCDB) project, http://pccdb.org 
 
 20 20  0  0  1  0  0  0  0  0999 V2000 
    1.3992   -0.4058    0.7091 C   0  0  0  0  0  0  0  0  0  0  0  0 
    2.4477    0.2797    0.2513 C   0  0  0  0  0  0  0  0  0  0  0  0 
    5.3309    1.7839   -0.8554 C   0  0  0  0  0  0  0  0  0  0  0  0 
    4.2722    2.5502   -1.1388 C   0  0  0  0  0  0  0  0  0  0  0  0 
    5.3004    0.2767   -0.9081 C   0  0  0  0  0  0  0  0  0  0  0  0 
    2.9208    2.0030   -1.5322 C   0  0  0  0  0  0  0  0  0  0  0  0 
    4.0533   -0.2484   -1.6377 C   0  0  0  0  0  0  0  0  0  0  0  0 
    2.7658    0.4963   -1.2084 C   0  0  1  0  0  0  0  0  0  0  0  0 
    1.2158   -0.5324    1.7731 H   0  0  0  0  0  0  0  0  0  0  0  0 
    0.6797   -0.8688    0.0357 H   0  0  0  0  0  0  0  0  0  0  0  0 
    3.1371    0.7328    0.9647 H   0  0  0  0  0  0  0  0  0  0  0  0 
    6.2713    2.2522   -0.5665 H   0  0  0  0  0  0  0  0  0  0  0  0 
    4.3680    3.6346   -1.0935 H   0  0  0  0  0  0  0  0  0  0  0  0 
    5.3422   -0.1282    0.1151 H   0  0  0  0  0  0  0  0  0  0  0  0 
    6.2064   -0.0975   -1.4045 H   0  0  0  0  0  0  0  0  0  0  0  0 
    2.7633    2.1615   -2.6108 H   0  0  0  0  0  0  0  0  0  0  0  0 
    2.1267    2.5735   -1.0319 H   0  0  0  0  0  0  0  0  0  0  0  0 
    3.9378   -1.3249   -1.4666 H   0  0  0  0  0  0  0  0  0  0  0  0 
    4.1864   -0.1054   -2.7188 H   0  0  0  0  0  0  0  0  0  0  0  0 
    1.9280    0.0982   -1.7958 H   0  0  0  0  0  0  0  0  0  0  0  0 
  1  9  1  0  0  0  0 
  2  1  2  0  0  0  0 
  2 11  1  0  0  0  0 
  3 12  1  0  0  0  0 
  4 13  1  0  0  0  0 
  4  3  2  0  0  0  0 
  5  3  1  0  0  0  0 
  5 14  1  0  0  0  0 
  6  8  1  0  0  0  0 
  6  4  1  0  0  0  0 
  6 17  1  0  0  0  0 
  7 18  1  0  0  0  0 
  7  8  1  0  0  0  0 
  7  5  1  0  0  0  0 
  8 20  1  6  0  0  0 
  8  2  1  0  0  0  0 
 10  1  1  0  0  0  0 
 15  5  1  0  0  0  0 
 16  6  1  0  0  0  0 
 19  7  1  0  0  0  0 
M  END 
>  <HBA> 
0 
 
>  <HBD> 
0 
 
>  <TPSA> 
0.0 
 
>  <cid> 
7499 
 
>  <dipole> 
0.32 
 
>  <excitation_energy_1> 
5.875 
 
>  <excitation_energy_2> 
6.013 
 
>  <excitation_energy_3> 
6.335 
 
>  <excitation_energy_4> 
6.382 
 
>  <homo_energy> 
-6.411 
 
>  <homo_lumo_gap> 
7.059 
 
>  <logP> 
2.529 
 
>  <lumo_energy> 
0.648 
 
>  <melting_point> 
-16.12 
 
>  <molecular_refractivity> 
37.51 
 
>  <oscillator_strength_1> 
0.0151 
 
>  <oscillator_strength_2> 
0.005 
 
>  <oscillator_strength_3> 
0.034 
 
>  <oscillator_strength_4> 
0.0114 
 
>  <open_babel_can_smiles> 
C=C[C@@H]1CCC=CC1 
 
>  <mulliken_charges> 
20 
1   -0.35205 
2   -0.034968 
3   -0.102163 
4   -0.111328 
5   -0.307508 
6   -0.301556 
7   -0.260718 
8   -0.144238 
9   0.136581 
10   0.132749 
11   0.131856 
12   0.119044 
13   0.119746 
14   0.147919 
15   0.14169 
16   0.145114 
17   0.146238 
18   0.136452 
19   0.135228 
20   0.12191 
 
>  <lowdin_charges> 
20 
1   -0.346207 
2   -0.146961 
3   -0.17792 
4   -0.175205 
5   -0.278865 
6   -0.276686 
7   -0.269361 
8   -0.124931 
9   0.15521 
10   0.153141 
11   0.155286 
12   0.150514 
13   0.148832 
14   0.148168 
15   0.151443 
16   0.149355 
17   0.153475 
18   0.14491 
19   0.141513 
20   0.144289 
 
$$$$ 
 
