PCCDB-ID:  71211 
public computational chemistry database (PCCDB) project, http://pccdb.org 
 
 16 16  0  0  0  0  0  0  0  0999 V2000 
   -0.8425    1.1701    0.0145 C   0  0  0  0  0  0  0  0  0  0  0  0 
   -1.4008   -0.1031   -0.0459 C   0  0  0  0  0  0  0  0  0  0  0  0 
    0.5477    1.2846    0.0146 C   0  0  0  0  0  0  0  0  0  0  0  0 
    0.8330   -0.9852   -0.0825 C   0  0  0  0  0  0  0  0  0  0  0  0 
   -0.5543   -1.2212   -0.0909 C   0  0  0  0  0  0  0  0  0  0  0  0 
   -1.1389   -2.5798   -0.1891 C   0  0  0  0  0  0  0  0  0  0  0  0 
    1.3767    0.2336   -0.0387 N   0  0  0  0  0  0  0  0  0  0  0  0 
   -0.7367   -3.6834    0.3251 N   0  0  0  0  0  0  0  0  0  0  0  0 
   -2.3207   -2.6862   -0.8778 O   0  0  0  0  0  0  0  0  0  0  0  0 
    0.3986   -3.5119    1.1420 O   0  0  0  0  0  0  0  0  0  0  0  0 
   -1.4697    2.0552    0.0625 H   0  0  0  0  0  0  0  0  0  0  0  0 
   -2.4789   -0.2387   -0.0374 H   0  0  0  0  0  0  0  0  0  0  0  0 
    1.0207    2.2642    0.0576 H   0  0  0  0  0  0  0  0  0  0  0  0 
    1.5235   -1.8207   -0.1175 H   0  0  0  0  0  0  0  0  0  0  0  0 
   -2.3169   -2.0256   -1.5888 H   0  0  0  0  0  0  0  0  0  0  0  0 
    0.5413   -4.4150    1.4645 H   0  0  0  0  0  0  0  0  0  0  0  0 
  1  3  1  0  0  0  0 
  1 11  1  0  0  0  0 
  2 12  1  0  0  0  0 
  2  1  2  0  0  0  0 
  3 13  1  0  0  0  0 
  4  7  1  0  0  0  0 
  5  4  2  0  0  0  0 
  5  2  1  0  0  0  0 
  6  5  1  0  0  0  0 
  6  8  2  0  0  0  0 
  7  3  2  0  0  0  0 
  8 10  1  0  0  0  0 
  9  6  1  0  0  0  0 
 10 16  1  0  0  0  0 
 14  4  1  0  0  0  0 
 15  9  1  0  0  0  0 
M  END 
>  <HBA> 
4 
 
>  <HBD> 
2 
 
>  <TPSA> 
62.22 
 
>  <cid> 
71211 
 
>  <dipole> 
2.14 
 
>  <excitation_energy_1> 
4.384 
 
>  <excitation_energy_2> 
4.557 
 
>  <excitation_energy_3> 
4.673 
 
>  <excitation_energy_4> 
4.932 
 
>  <homo_energy> 
-6.308 
 
>  <homo_lumo_gap> 
4.953 
 
>  <logP> 
0.592 
 
>  <lumo_energy> 
-1.355 
 
>  <melting_point> 
135.47 
 
>  <molecular_refractivity> 
33.16 
 
>  <oscillator_strength_1> 
0.0909 
 
>  <oscillator_strength_2> 
0.0329 
 
>  <oscillator_strength_3> 
0.0192 
 
>  <oscillator_strength_4> 
0.0033 
 
>  <open_babel_can_smiles> 
O/N=C(\c1cccnc1)/O 
 
>  <mulliken_charges> 
16 
1   -0.141977 
2   -0.154902 
3   0.046686 
4   0.03586 
5   0.059777 
6   0.440069 
7   -0.41209 
8   -0.231912 
9   -0.591543 
10   -0.512671 
11   0.145724 
12   0.159146 
13   0.149961 
14   0.175051 
15   0.408701 
16   0.42412 
 
>  <lowdin_charges> 
16 
1   -0.174762 
2   -0.133092 
3   -0.078293 
4   -0.07153 
5   -0.058392 
6   0.095404 
7   -0.143294 
8   -0.080456 
9   -0.369811 
10   -0.376937 
11   0.168824 
12   0.167876 
13   0.160461 
14   0.175664 
15   0.359582 
16   0.358758 
 
$$$$ 
 
