PCCDB-ID:  48151 
public computational chemistry database (PCCDB) project, http://pccdb.org 
 
 35 35  0  0  1  0  0  0  0  0999 V2000 
    5.3362   -1.2019    1.8608 C   0  0  0  0  0  0  0  0  0  0  0  0 
    7.2684    3.0347   -3.5268 C   0  0  0  0  0  0  0  0  0  0  0  0 
    2.2401    0.9835    0.0274 C   0  0  0  0  0  0  0  0  0  0  0  0 
    4.3604   -1.2386    0.6699 C   0  0  0  0  0  0  0  0  0  0  0  0 
    5.8351    3.1906   -3.0067 C   0  0  0  0  0  0  0  0  0  0  0  0 
    4.5345   -0.0509   -0.2400 C   0  0  0  0  0  0  0  0  0  0  0  0 
    5.4478    2.0373   -2.0689 C   0  0  0  0  0  0  0  0  0  0  0  0 
    3.6485    0.9225   -0.5294 C   0  0  0  0  0  0  0  0  0  0  0  0 
    3.8192    3.4119   -0.7365 C   0  0  0  0  0  0  0  0  0  0  0  0 
    3.0003    2.0992   -2.6420 C   0  0  0  0  0  0  0  0  0  0  0  0 
    2.5659    4.3663   -2.4360 C   0  0  0  0  0  0  0  0  0  0  0  0 
    3.9967    2.0893   -1.4825 C   0  0  1  0  0  0  0  0  0  0  0  0 
    3.1891    4.4326   -1.1590 N   0  0  0  0  0  0  0  0  0  0  0  0 
    2.3630    3.1112   -3.0745 N   0  0  0  0  0  0  0  0  0  0  0  0 
    4.4305    3.4903    0.4641 O   0  0  0  0  0  0  0  0  0  0  0  0 
    2.8278    0.9185   -3.2727 O   0  0  0  0  0  0  0  0  0  0  0  0 
    2.1781    5.3806   -2.9686 O   0  0  0  0  0  0  0  0  0  0  0  0 
    5.2357   -2.1056    2.4710 H   0  0  0  0  0  0  0  0  0  0  0  0 
    5.1410   -0.3364    2.5037 H   0  0  0  0  0  0  0  0  0  0  0  0 
    6.3771   -1.1409    1.5220 H   0  0  0  0  0  0  0  0  0  0  0  0 
    7.5292    3.8612   -4.1957 H   0  0  0  0  0  0  0  0  0  0  0  0 
    7.3915    2.1005   -4.0883 H   0  0  0  0  0  0  0  0  0  0  0  0 
    7.9951    3.0297   -2.7052 H   0  0  0  0  0  0  0  0  0  0  0  0 
    2.0259    0.1610    0.7109 H   0  0  0  0  0  0  0  0  0  0  0  0 
    1.4962    0.9508   -0.7777 H   0  0  0  0  0  0  0  0  0  0  0  0 
    2.0727    1.9208    0.5714 H   0  0  0  0  0  0  0  0  0  0  0  0 
    3.3342   -1.3215    1.0382 H   0  0  0  0  0  0  0  0  0  0  0  0 
    4.5543   -2.1503    0.0865 H   0  0  0  0  0  0  0  0  0  0  0  0 
    5.1424    3.2324   -3.8554 H   0  0  0  0  0  0  0  0  0  0  0  0 
    5.7400    4.1479   -2.4810 H   0  0  0  0  0  0  0  0  0  0  0  0 
    5.5251    0.0009   -0.6884 H   0  0  0  0  0  0  0  0  0  0  0  0 
    6.1555    2.0095   -1.2307 H   0  0  0  0  0  0  0  0  0  0  0  0 
    5.5661    1.0882   -2.6068 H   0  0  0  0  0  0  0  0  0  0  0  0 
    4.7782    2.6099    0.6952 H   0  0  0  0  0  0  0  0  0  0  0  0 
    3.2940    0.2254   -2.7714 H   0  0  0  0  0  0  0  0  0  0  0  0 
  1 18  1  0  0  0  0 
  1 19  1  0  0  0  0 
  2  5  1  0  0  0  0 
  2 23  1  0  0  0  0 
  3 26  1  0  0  0  0 
  3 24  1  0  0  0  0 
  4 27  1  0  0  0  0 
  4  1  1  0  0  0  0 
  5 30  1  0  0  0  0 
  5  7  1  0  0  0  0 
  6  4  1  0  0  0  0 
  7 12  1  0  0  0  0 
  7 32  1  0  0  0  0 
  8  6  2  0  0  0  0 
  8  3  1  0  0  0  0 
  9 15  1  0  0  0  0 
 10 12  1  0  0  0  0 
 11 13  2  0  0  0  0 
 12  9  1  0  0  0  0 
 12  8  1  1  0  0  0 
 13  9  2  0  0  0  0 
 14 10  2  0  0  0  0 
 14 11  1  0  0  0  0 
 15 34  1  0  0  0  0 
 16 35  1  0  0  0  0 
 16 10  1  0  0  0  0 
 17 11  2  0  0  0  0 
 20  1  1  0  0  0  0 
 21  2  1  0  0  0  0 
 22  2  1  0  0  0  0 
 25  3  1  0  0  0  0 
 28  4  1  0  0  0  0 
 29  5  1  0  0  0  0 
 31  6  1  0  0  0  0 
 33  7  1  0  0  0  0 
M  END 
>  <HBA> 
5 
 
>  <HBD> 
2 
 
>  <TPSA> 
75.27 
 
>  <cid> 
48151 
 
>  <dipole> 
10.38 
 
>  <excitation_energy_1> 
4.015 
 
>  <excitation_energy_2> 
4.229 
 
>  <excitation_energy_3> 
5.127 
 
>  <excitation_energy_4> 
5.493 
 
>  <homo_energy> 
-6.778 
 
>  <homo_lumo_gap> 
5.372 
 
>  <logP> 
2.153 
 
>  <lumo_energy> 
-1.407 
 
>  <melting_point> 
152.79 
 
>  <molecular_refractivity> 
71.37 
 
>  <oscillator_strength_1> 
0.0004 
 
>  <oscillator_strength_2> 
0.0002 
 
>  <oscillator_strength_3> 
0.0393 
 
>  <oscillator_strength_4> 
0.0003 
 
>  <open_babel_can_smiles> 
CC/C=C(/[C@@]1(CCC)C(=N[C](=[N]=C1O)=O)O)\C 
 
>  <mulliken_charges> 
35 
1   -0.445807 
2   -0.447448 
3   -0.535883 
4   -0.30072 
5   -0.283983 
6   -0.172693 
7   -0.269111 
8   0.070027 
9   0.544365 
10   0.543519 
11   0.616851 
12   -0.168719 
13   -0.472236 
14   -0.471929 
15   -0.580595 
16   -0.579973 
17   -0.431626 
18   0.160708 
19   0.152909 
20   0.151146 
21   0.161994 
22   0.144888 
23   0.144691 
24   0.169201 
25   0.189205 
26   0.189268 
27   0.155354 
28   0.157434 
29   0.171557 
30   0.171762 
31   0.143635 
32   0.146115 
33   0.146196 
34   0.414582 
35   0.415315 
 
>  <lowdin_charges> 
35 
1   -0.440463 
2   -0.443171 
3   -0.457011 
4   -0.273169 
5   -0.284287 
6   -0.179618 
7   -0.270269 
8   -0.048501 
9   0.145328 
10   0.146062 
11   0.176157 
12   -0.062442 
13   -0.187159 
14   -0.187 
15   -0.331538 
16   -0.333365 
17   -0.211742 
18   0.159541 
19   0.152295 
20   0.150167 
21   0.161532 
22   0.147965 
23   0.148383 
24   0.16605 
25   0.175195 
26   0.174584 
27   0.15247 
28   0.157926 
29   0.160084 
30   0.159547 
31   0.159156 
32   0.148567 
33   0.147979 
34   0.358876 
35   0.361874 
 
$$$$ 
 
