PCCDB-ID:  14245 
public computational chemistry database (PCCDB) project, http://pccdb.org 
 
 19 18  0  0  0  0  0  0  0  0999 V2000 
    1.1593   -0.0356   -0.4270 C   0  0  0  0  0  0  0  0  0  0  0  0 
    5.6674    1.2223    5.3188 C   0  0  0  0  0  0  0  0  0  0  0  0 
    2.6776   -0.0134   -0.2249 C   0  0  0  0  0  0  0  0  0  0  0  0 
    5.3064    0.9136    3.9367 C   0  0  0  0  0  0  0  0  0  0  0  0 
    3.0837    0.3132    1.2166 C   0  0  0  0  0  0  0  0  0  0  0  0 
    5.0080    0.6577    2.7924 C   0  0  0  0  0  0  0  0  0  0  0  0 
    4.6137    0.3398    1.4180 C   0  0  0  0  0  0  0  0  0  0  0  0 
    0.8967   -0.2699   -1.4649 H   0  0  0  0  0  0  0  0  0  0  0  0 
    0.7131    0.9363   -0.1822 H   0  0  0  0  0  0  0  0  0  0  0  0 
    0.6849   -0.7876    0.2153 H   0  0  0  0  0  0  0  0  0  0  0  0 
    4.7753    1.3701    5.9402 H   0  0  0  0  0  0  0  0  0  0  0  0 
    6.2686    2.1377    5.3824 H   0  0  0  0  0  0  0  0  0  0  0  0 
    6.2522    0.4113    5.7705 H   0  0  0  0  0  0  0  0  0  0  0  0 
    3.1261    0.7245   -0.9055 H   0  0  0  0  0  0  0  0  0  0  0  0 
    3.0992   -0.9877   -0.5116 H   0  0  0  0  0  0  0  0  0  0  0  0 
    2.6476   -0.4234    1.9043 H   0  0  0  0  0  0  0  0  0  0  0  0 
    2.6716    1.2884    1.5081 H   0  0  0  0  0  0  0  0  0  0  0  0 
    5.0546    1.0735    0.7273 H   0  0  0  0  0  0  0  0  0  0  0  0 
    5.0341   -0.6342    1.1277 H   0  0  0  0  0  0  0  0  0  0  0  0 
  1  3  1  0  0  0  0 
  1  9  1  0  0  0  0 
  1 10  1  0  0  0  0 
  2 12  1  0  0  0  0 
  2 13  1  0  0  0  0 
  2 11  1  0  0  0  0 
  3  5  1  0  0  0  0 
  4  2  1  0  0  0  0 
  5  7  1  0  0  0  0 
  5 17  1  0  0  0  0 
  5 16  1  0  0  0  0 
  6  4  3  0  0  0  0 
  7  6  1  0  0  0  0 
  8  1  1  0  0  0  0 
 14  3  1  0  0  0  0 
 15  3  1  0  0  0  0 
 18  7  1  0  0  0  0 
 19  7  1  0  0  0  0 
M  END 
>  <HBA> 
0 
 
>  <HBD> 
0 
 
>  <TPSA> 
0.0 
 
>  <cid> 
14245 
 
>  <dipole> 
0.14 
 
>  <excitation_energy_1> 
6.207 
 
>  <excitation_energy_2> 
6.232 
 
>  <excitation_energy_3> 
6.444 
 
>  <excitation_energy_4> 
6.558 
 
>  <homo_energy> 
-6.501 
 
>  <homo_lumo_gap> 
8.264 
 
>  <logP> 
2.2 
 
>  <lumo_energy> 
1.763 
 
>  <melting_point> 
-9.88 
 
>  <molecular_refractivity> 
33.92 
 
>  <oscillator_strength_1> 
0.005 
 
>  <oscillator_strength_2> 
0.0164 
 
>  <oscillator_strength_3> 
0.0001 
 
>  <oscillator_strength_4> 
0.015 
 
>  <open_babel_can_smiles> 
CCCCC#CC 
 
>  <mulliken_charges> 
19 
1   -0.441929 
2   -0.573781 
3   -0.245022 
4   -0.023682 
5   -0.247222 
6   0.11232 
7   -0.40203 
8   0.142861 
9   0.143346 
10   0.143398 
11   0.1757 
12   0.175513 
13   0.175513 
14   0.131386 
15   0.131426 
16   0.141392 
17   0.141344 
18   0.159539 
19   0.159927 
 
>  <lowdin_charges> 
19 
1   -0.44371 
2   -0.425689 
3   -0.274478 
4   -0.091002 
5   -0.269081 
6   -0.087548 
7   -0.259874 
8   0.148988 
9   0.147176 
10   0.148589 
11   0.171186 
12   0.170614 
13   0.171538 
14   0.140628 
15   0.139202 
16   0.146915 
17   0.145486 
18   0.161128 
19   0.159931 
 
$$$$ 
 
