PCCDB-ID:  20913 
public computational chemistry database (PCCDB) project, http://pccdb.org 
 
 10  9  0  0  0  0  0  0  0  0999 V2000 
    0.9130    0.0111   -0.1371 C   0  0  0  0  0  0  0  0  0  0  0  0 
    2.4177    0.0316   -0.0979 C   0  0  0  0  0  0  0  0  0  0  0  0 
    3.1387    0.5187    0.9253 C   0  0  0  0  0  0  0  0  0  0  0  0 
    4.5670    0.5242    0.9301 C   0  0  0  0  0  0  0  0  0  0  0  0 
    5.7308    0.5380    0.9534 N   0  0  0  0  0  0  0  0  0  0  0  0 
    0.5453   -0.4446   -1.0598 H   0  0  0  0  0  0  0  0  0  0  0  0 
    0.4998    1.0254   -0.0770 H   0  0  0  0  0  0  0  0  0  0  0  0 
    0.5004   -0.5570    0.7055 H   0  0  0  0  0  0  0  0  0  0  0  0 
    2.9505   -0.3747   -0.9553 H   0  0  0  0  0  0  0  0  0  0  0  0 
    2.6562    0.9365    1.8073 H   0  0  0  0  0  0  0  0  0  0  0  0 
  1  2  1  0  0  0  0 
  1  7  1  0  0  0  0 
  1  8  1  0  0  0  0 
  2  3  2  0  0  0  0 
  3  4  1  0  0  0  0 
  3 10  1  0  0  0  0 
  4  5  3  0  0  0  0 
  6  1  1  0  0  0  0 
  9  2  1  0  0  0  0 
M  END 
>  <HBA> 
1 
 
>  <HBD> 
0 
 
>  <TPSA> 
23.79 
 
>  <cid> 
20913 
 
>  <dipole> 
4.62 
 
>  <excitation_energy_1> 
5.893 
 
>  <excitation_energy_2> 
6.126 
 
>  <excitation_energy_3> 
6.487 
 
>  <excitation_energy_4> 
6.894 
 
>  <homo_energy> 
-7.383 
 
>  <homo_lumo_gap> 
6.063 
 
>  <logP> 
1.086 
 
>  <lumo_energy> 
-1.32 
 
>  <melting_point> 
18.46 
 
>  <molecular_refractivity> 
20.62 
 
>  <oscillator_strength_1> 
0.3845 
 
>  <oscillator_strength_2> 
0.0 
 
>  <oscillator_strength_3> 
0.0011 
 
>  <oscillator_strength_4> 
0.0 
 
>  <open_babel_can_smiles> 
C/C=C/C#N 
 
>  <mulliken_charges> 
10 
1   -0.496064 
2   -0.076276 
3   -0.137459 
4   0.309628 
5   -0.474227 
6   0.169122 
7   0.180979 
8   0.180557 
9   0.168349 
10   0.175391 
 
>  <lowdin_charges> 
10 
1   -0.447359 
2   -0.098047 
3   -0.181761 
4   -0.01552 
5   -0.122819 
6   0.166917 
7   0.172059 
8   0.173254 
9   0.172113 
10   0.181162 
 
$$$$ 
 
