PCCDB-ID:  48945 
public computational chemistry database (PCCDB) project, http://pccdb.org 
 
 36 37  0  0  0  0  0  0  0  0999 V2000 
   -0.6799   -0.4854    2.7885 C   0  0  0  0  0  0  0  0  0  0  0  0 
    0.2172   -0.9870    3.7350 C   0  0  0  0  0  0  0  0  0  0  0  0 
   -0.2375   -0.1775    1.4998 C   0  0  0  0  0  0  0  0  0  0  0  0 
   10.0170   -2.0468    1.2691 C   0  0  0  0  0  0  0  0  0  0  0  0 
    9.0430   -2.5534    2.3724 C   0  0  0  0  0  0  0  0  0  0  0  0 
    5.4360   -2.3560   -0.2818 C   0  0  0  0  0  0  0  0  0  0  0  0 
    1.5532   -1.1803    3.3930 C   0  0  0  0  0  0  0  0  0  0  0  0 
    1.0994   -0.3684    1.1538 C   0  0  0  0  0  0  0  0  0  0  0  0 
    9.2410   -2.2591   -0.0416 C   0  0  0  0  0  0  0  0  0  0  0  0 
    7.7631   -2.9520    1.6085 C   0  0  0  0  0  0  0  0  0  0  0  0 
    6.9033   -2.5704   -0.6747 C   0  0  0  0  0  0  0  0  0  0  0  0 
    5.1465   -0.9191    0.1410 C   0  0  0  0  0  0  0  0  0  0  0  0 
    2.0015   -0.8715    2.1015 C   0  0  0  0  0  0  0  0  0  0  0  0 
    3.4439   -1.0955    1.7965 C   0  0  0  0  0  0  0  0  0  0  0  0 
    7.8393   -2.1737    0.3671 N   0  0  0  0  0  0  0  0  0  0  0  0 
    4.2481   -1.5321    2.6007 O   0  0  0  0  0  0  0  0  0  0  0  0 
    3.7608   -0.7573    0.5272 O   0  0  0  0  0  0  0  0  0  0  0  0 
   -1.7228   -0.3344    3.0548 H   0  0  0  0  0  0  0  0  0  0  0  0 
   -0.1245   -1.2279    4.7378 H   0  0  0  0  0  0  0  0  0  0  0  0 
   -0.9347    0.2131    0.7635 H   0  0  0  0  0  0  0  0  0  0  0  0 
   10.9706   -2.5835    1.2654 H   0  0  0  0  0  0  0  0  0  0  0  0 
   10.2384   -0.9848    1.4131 H   0  0  0  0  0  0  0  0  0  0  0  0 
    8.8326   -1.7583    3.0938 H   0  0  0  0  0  0  0  0  0  0  0  0 
    9.4477   -3.4013    2.9337 H   0  0  0  0  0  0  0  0  0  0  0  0 
    5.1658   -3.0256    0.5412 H   0  0  0  0  0  0  0  0  0  0  0  0 
    4.7996   -2.6223   -1.1347 H   0  0  0  0  0  0  0  0  0  0  0  0 
    2.2672   -1.5687    4.1117 H   0  0  0  0  0  0  0  0  0  0  0  0 
    1.4484   -0.1289    0.1557 H   0  0  0  0  0  0  0  0  0  0  0  0 
    9.4758   -3.2557   -0.4702 H   0  0  0  0  0  0  0  0  0  0  0  0 
    9.4654   -1.5109   -0.8110 H   0  0  0  0  0  0  0  0  0  0  0  0 
    6.8459   -2.7206    2.1577 H   0  0  0  0  0  0  0  0  0  0  0  0 
    7.7669   -4.0416    1.3980 H   0  0  0  0  0  0  0  0  0  0  0  0 
    7.1332   -1.9758   -1.5694 H   0  0  0  0  0  0  0  0  0  0  0  0 
    7.0388   -3.6349   -0.9598 H   0  0  0  0  0  0  0  0  0  0  0  0 
    5.2791   -0.2245   -0.6933 H   0  0  0  0  0  0  0  0  0  0  0  0 
    5.7922   -0.6157    0.9655 H   0  0  0  0  0  0  0  0  0  0  0  0 
  1 18  1  0  0  0  0 
  1  2  2  0  0  0  0 
  2 19  1  0  0  0  0 
  3  1  1  0  0  0  0 
  4 22  1  0  0  0  0 
  4  5  1  0  0  0  0 
  5 24  1  0  0  0  0 
  5 23  1  0  0  0  0 
  6 12  1  0  0  0  0 
  6 25  1  0  0  0  0 
  7  2  1  0  0  0  0 
  7 27  1  0  0  0  0 
  8  3  2  0  0  0  0 
  8 13  1  0  0  0  0 
  9 15  1  0  0  0  0 
  9  4  1  0  0  0  0 
 10 31  1  0  0  0  0 
 10  5  1  0  0  0  0 
 11  6  1  0  0  0  0 
 11 15  1  0  0  0  0 
 12 17  1  0  0  0  0 
 12 36  1  0  0  0  0 
 13  7  2  0  0  0  0 
 14 13  1  0  0  0  0 
 14 16  2  0  0  0  0 
 15 10  1  0  0  0  0 
 17 14  1  0  0  0  0 
 20  3  1  0  0  0  0 
 21  4  1  0  0  0  0 
 26  6  1  0  0  0  0 
 28  8  1  0  0  0  0 
 29  9  1  0  0  0  0 
 30  9  1  0  0  0  0 
 32 10  1  0  0  0  0 
 33 11  1  0  0  0  0 
 34 11  1  0  0  0  0 
 35 12  1  0  0  0  0 
M  END 
>  <HBA> 
3 
 
>  <HBD> 
0 
 
>  <TPSA> 
29.54 
 
>  <cid> 
48945 
 
>  <dipole> 
1.39 
 
>  <excitation_energy_1> 
3.955 
 
>  <excitation_energy_2> 
4.848 
 
>  <excitation_energy_3> 
4.918 
 
>  <excitation_energy_4> 
5.021 
 
>  <homo_energy> 
-5.679 
 
>  <homo_lumo_gap> 
4.539 
 
>  <logP> 
2.267 
 
>  <lumo_energy> 
-1.14 
 
>  <melting_point> 
50.49 
 
>  <molecular_refractivity> 
71.26 
 
>  <oscillator_strength_1> 
0.0064 
 
>  <oscillator_strength_2> 
0.0001 
 
>  <oscillator_strength_3> 
0.0165 
 
>  <oscillator_strength_4> 
0.0012 
 
>  <open_babel_can_smiles> 
O=C(c1ccccc1)OCCCN1CCCC1 
 
>  <mulliken_charges> 
36 
1   -0.117121 
2   -0.138447 
3   -0.137162 
4   -0.279253 
5   -0.283921 
6   -0.302195 
7   -0.152069 
8   -0.158096 
9   -0.112081 
10   -0.136226 
11   -0.114314 
12   -0.035476 
13   0.04724 
14   0.595393 
15   -0.401802 
16   -0.495859 
17   -0.483943 
18   0.136094 
19   0.13702 
20   0.135557 
21   0.136316 
22   0.145797 
23   0.149848 
24   0.137654 
25   0.168759 
26   0.14206 
27   0.162425 
28   0.155688 
29   0.106125 
30   0.136017 
31   0.17398 
32   0.105234 
33   0.132878 
34   0.111991 
35   0.145601 
36   0.186285 
 
>  <lowdin_charges> 
36 
1   -0.139214 
2   -0.155797 
3   -0.15928 
4   -0.283599 
5   -0.285869 
6   -0.29608 
7   -0.13258 
8   -0.138587 
9   -0.201535 
10   -0.206782 
11   -0.196757 
12   -0.131202 
13   -0.045408 
14   0.201416 
15   -0.194014 
16   -0.281079 
17   -0.192381 
18   0.159396 
19   0.160556 
20   0.161846 
21   0.146017 
22   0.147589 
23   0.152061 
24   0.147608 
25   0.159491 
26   0.151196 
27   0.177869 
28   0.171309 
29   0.112409 
30   0.143504 
31   0.159019 
32   0.110817 
33   0.141388 
34   0.117903 
35   0.151134 
36   0.167636 
 
$$$$ 
 
