PCCDB-ID:  69089 
public computational chemistry database (PCCDB) project, http://pccdb.org 
 
 21 22  0  0  0  0  0  0  0  0999 V2000 
    0.9659   -0.0814    0.2022 C   0  0  0  0  0  0  0  0  0  0  0  0 
    7.3530   -1.1914   -0.0596 C   0  0  0  0  0  0  0  0  0  0  0  0 
    6.6253   -2.3937   -0.0513 C   0  0  0  0  0  0  0  0  0  0  0  0 
    6.6780    0.0187   -0.0161 C   0  0  0  0  0  0  0  0  0  0  0  0 
    5.2397   -2.3814    0.0010 C   0  0  0  0  0  0  0  0  0  0  0  0 
    3.1110    1.2620    0.1387 C   0  0  0  0  0  0  0  0  0  0  0  0 
    2.4614    0.0643    0.1451 C   0  0  0  0  0  0  0  0  0  0  0  0 
    5.2757    0.0615    0.0362 C   0  0  0  0  0  0  0  0  0  0  0  0 
    4.5577   -1.1520    0.0448 C   0  0  0  0  0  0  0  0  0  0  0  0 
    4.5628    1.3651    0.0812 C   0  0  0  0  0  0  0  0  0  0  0  0 
    3.1724   -1.1119    0.0987 N   0  0  0  0  0  0  0  0  0  0  0  0 
    5.1657    2.4421    0.0714 O   0  0  0  0  0  0  0  0  0  0  0  0 
    0.4868    0.8988    0.2394 H   0  0  0  0  0  0  0  0  0  0  0  0 
    0.6561   -0.6466    1.0909 H   0  0  0  0  0  0  0  0  0  0  0  0 
    0.5850   -0.6144   -0.6787 H   0  0  0  0  0  0  0  0  0  0  0  0 
    8.4380   -1.2144   -0.0994 H   0  0  0  0  0  0  0  0  0  0  0  0 
    7.1486   -3.3455   -0.0863 H   0  0  0  0  0  0  0  0  0  0  0  0 
    7.2019    0.9694   -0.0217 H   0  0  0  0  0  0  0  0  0  0  0  0 
    4.6776   -3.3131    0.0069 H   0  0  0  0  0  0  0  0  0  0  0  0 
    2.5449    2.1859    0.1763 H   0  0  0  0  0  0  0  0  0  0  0  0 
    2.6686   -1.9879    0.1034 H   0  0  0  0  0  0  0  0  0  0  0  0 
  1 13  1  0  0  0  0 
  1 14  1  0  0  0  0 
  2  3  2  0  0  0  0 
  2  4  1  0  0  0  0 
  3  5  1  0  0  0  0 
  4  8  2  0  0  0  0 
  5 19  1  0  0  0  0 
  5  9  2  0  0  0  0 
  6  7  2  0  0  0  0 
  6 20  1  0  0  0  0 
  7  1  1  0  0  0  0 
  8  9  1  0  0  0  0 
  8 10  1  0  0  0  0 
  9 11  1  0  0  0  0 
 10  6  1  0  0  0  0 
 11 21  1  0  0  0  0 
 11  7  1  0  0  0  0 
 12 10  2  0  0  0  0 
 15  1  1  0  0  0  0 
 16  2  1  0  0  0  0 
 17  3  1  0  0  0  0 
 18  4  1  0  0  0  0 
M  END 
>  <HBA> 
1 
 
>  <HBD> 
1 
 
>  <TPSA> 
32.86 
 
>  <cid> 
69089 
 
>  <dipole> 
6.13 
 
>  <excitation_energy_1> 
3.742 
 
>  <excitation_energy_2> 
4.181 
 
>  <excitation_energy_3> 
4.693 
 
>  <excitation_energy_4> 
4.793 
 
>  <homo_energy> 
-5.712 
 
>  <homo_lumo_gap> 
4.689 
 
>  <logP> 
1.837 
 
>  <lumo_energy> 
-1.023 
 
>  <melting_point> 
135.21 
 
>  <molecular_refractivity> 
49.53 
 
>  <oscillator_strength_1> 
0.0 
 
>  <oscillator_strength_2> 
0.1052 
 
>  <oscillator_strength_3> 
0.0339 
 
>  <oscillator_strength_4> 
0.0 
 
>  <open_babel_can_smiles> 
Cc1cc(=O)c2c([nH]1)cccc2 
 
>  <mulliken_charges> 
21 
1   -0.539197 
2   -0.132305 
3   -0.132666 
4   -0.183831 
5   -0.179065 
6   -0.298543 
7   0.409944 
8   0.031442 
9   0.340873 
10   0.435492 
11   -0.765817 
12   -0.538795 
13   0.18697 
14   0.171188 
15   0.171323 
16   0.134218 
17   0.135164 
18   0.165767 
19   0.124256 
20   0.136446 
21   0.327138 
 
>  <lowdin_charges> 
21 
1   -0.446455 
2   -0.166391 
3   -0.138411 
4   -0.122641 
5   -0.193431 
6   -0.25059 
7   0.071028 
8   -0.060452 
9   0.06007 
10   0.131419 
11   -0.201995 
12   -0.307589 
13   0.176433 
14   0.166031 
15   0.166238 
16   0.158842 
17   0.161294 
18   0.179453 
19   0.155333 
20   0.171639 
21   0.290175 
 
$$$$ 
 
