PCCDB-ID:  13885 
public computational chemistry database (PCCDB) project, http://pccdb.org 
 
 34 35  0  0  1  0  0  0  0  0999 V2000 
    0.9324   -0.1433    0.1027 C   0  0  0  0  0  0  0  0  0  0  0  0 
    2.3861    1.3695   -2.1462 C   0  0  0  0  0  0  0  0  0  0  0  0 
    6.6688   -2.6886   -1.2986 C   0  0  0  0  0  0  0  0  0  0  0  0 
    7.2160   -1.4442   -2.0145 C   0  0  0  0  0  0  0  0  0  0  0  0 
    5.1329   -2.6909   -1.2690 C   0  0  0  0  0  0  0  0  0  0  0  0 
    6.6460   -0.1512   -1.4116 C   0  0  0  0  0  0  0  0  0  0  0  0 
    3.0313   -1.3902   -0.6134 C   0  0  0  0  0  0  0  0  0  0  0  0 
    4.5326    1.1342   -0.7804 C   0  0  0  0  0  0  0  0  0  0  0  0 
    2.4622   -0.0944   -0.0045 C   0  0  1  0  0  0  0  0  0  0  0  0 
    2.9889    1.1650   -0.7449 C   0  0  2  0  0  0  0  0  0  0  0  0 
    4.5678   -1.3981   -0.6571 C   0  0  2  0  0  0  0  0  0  0  0  0 
    5.1077   -0.1530   -1.3951 C   0  0  2  0  0  0  0  0  0  0  0  0 
    0.6152   -0.9613    0.7605 H   0  0  0  0  0  0  0  0  0  0  0  0 
    0.4607   -0.3080   -0.8731 H   0  0  0  0  0  0  0  0  0  0  0  0 
    0.5305    0.7909    0.5146 H   0  0  0  0  0  0  0  0  0  0  0  0 
    2.8197    2.2590   -2.6192 H   0  0  0  0  0  0  0  0  0  0  0  0 
    1.3023    1.5193   -2.0999 H   0  0  0  0  0  0  0  0  0  0  0  0 
    2.5732    0.5214   -2.8141 H   0  0  0  0  0  0  0  0  0  0  0  0 
    7.0487   -2.7069   -0.2662 H   0  0  0  0  0  0  0  0  0  0  0  0 
    7.0415   -3.6009   -1.7822 H   0  0  0  0  0  0  0  0  0  0  0  0 
    6.9482   -1.4934   -3.0804 H   0  0  0  0  0  0  0  0  0  0  0  0 
    8.3128   -1.4323   -1.9706 H   0  0  0  0  0  0  0  0  0  0  0  0 
    4.7655   -3.5609   -0.7074 H   0  0  0  0  0  0  0  0  0  0  0  0 
    4.7479   -2.8002   -2.2947 H   0  0  0  0  0  0  0  0  0  0  0  0 
    7.0116    0.7209   -1.9708 H   0  0  0  0  0  0  0  0  0  0  0  0 
    7.0153   -0.0346   -0.3809 H   0  0  0  0  0  0  0  0  0  0  0  0 
    2.6354   -1.5307   -1.6307 H   0  0  0  0  0  0  0  0  0  0  0  0 
    2.6760   -2.2522   -0.0306 H   0  0  0  0  0  0  0  0  0  0  0  0 
    4.9139    1.2281    0.2479 H   0  0  0  0  0  0  0  0  0  0  0  0 
    4.9093    2.0094   -1.3287 H   0  0  0  0  0  0  0  0  0  0  0  0 
    2.8570   -0.0275    1.0223 H   0  0  0  0  0  0  0  0  0  0  0  0 
    2.6922    2.0384   -0.1445 H   0  0  0  0  0  0  0  0  0  0  0  0 
    4.9288   -1.3377    0.3848 H   0  0  0  0  0  0  0  0  0  0  0  0 
    4.7694   -0.2197   -2.4426 H   0  0  0  0  0  0  0  0  0  0  0  0 
  1 15  1  0  0  0  0 
  1 13  1  0  0  0  0 
  2 17  1  0  0  0  0 
  2 10  1  0  0  0  0 
  3  5  1  0  0  0  0 
  3 19  1  0  0  0  0 
  4 22  1  0  0  0  0 
  4  6  1  0  0  0  0 
  4  3  1  0  0  0  0 
  5 23  1  0  0  0  0 
  5 11  1  0  0  0  0 
  6 12  1  0  0  0  0 
  6 26  1  0  0  0  0 
  7 28  1  0  0  0  0 
  7  9  1  0  0  0  0 
  8 10  1  0  0  0  0 
  8 29  1  0  0  0  0 
  9  1  1  0  0  0  0 
  9 31  1  1  0  0  0 
 10 32  1  1  0  0  0 
 10  9  1  0  0  0  0 
 11  7  1  0  0  0  0 
 11 33  1  1  0  0  0 
 12 34  1  6  0  0  0 
 12  8  1  0  0  0  0 
 12 11  1  0  0  0  0 
 14  1  1  0  0  0  0 
 16  2  1  0  0  0  0 
 18  2  1  0  0  0  0 
 20  3  1  0  0  0  0 
 21  4  1  0  0  0  0 
 24  5  1  0  0  0  0 
 25  6  1  0  0  0  0 
 27  7  1  0  0  0  0 
 30  8  1  0  0  0  0 
M  END 
>  <HBA> 
0 
 
>  <HBD> 
0 
 
>  <TPSA> 
0.0 
 
>  <cid> 
13885 
 
>  <dipole> 
0.06 
 
>  <excitation_energy_1> 
6.926 
 
>  <excitation_energy_2> 
7.046 
 
>  <excitation_energy_3> 
7.071 
 
>  <excitation_energy_4> 
7.172 
 
>  <homo_energy> 
-7.366 
 
>  <homo_lumo_gap> 
9.598 
 
>  <logP> 
3.859 
 
>  <lumo_energy> 
2.231 
 
>  <melting_point> 
14.61 
 
>  <molecular_refractivity> 
55.57 
 
>  <oscillator_strength_1> 
0.0085 
 
>  <oscillator_strength_2> 
0.0013 
 
>  <oscillator_strength_3> 
0.0082 
 
>  <oscillator_strength_4> 
0.006 
 
>  <open_babel_can_smiles> 
C[C@@H]1C[C@H]2CCCC[C@@H]2C[C@@H]1C 
 
>  <mulliken_charges> 
34 
1   -0.452949 
2   -0.45882 
3   -0.258874 
4   -0.259265 
5   -0.260715 
6   -0.260236 
7   -0.264656 
8   -0.270223 
9   -0.072645 
10   -0.072043 
11   -0.078921 
12   -0.079321 
13   0.138478 
14   0.142622 
15   0.137531 
16   0.138882 
17   0.144705 
18   0.144626 
19   0.126442 
20   0.12798 
21   0.12627 
22   0.12799 
23   0.125225 
24   0.122566 
25   0.125384 
26   0.122738 
27   0.123523 
28   0.123002 
29   0.12101 
30   0.121849 
31   0.114061 
32   0.113514 
33   0.107161 
34   0.113112 
 
>  <lowdin_charges> 
34 
1   -0.447153 
2   -0.451221 
3   -0.277156 
4   -0.273681 
5   -0.277103 
6   -0.276737 
7   -0.278776 
8   -0.277808 
9   -0.125073 
10   -0.12735 
11   -0.129169 
12   -0.131226 
13   0.148748 
14   0.146451 
15   0.146936 
16   0.148977 
17   0.148214 
18   0.146186 
19   0.135793 
20   0.142756 
21   0.135049 
22   0.140152 
23   0.14153 
24   0.134682 
25   0.141573 
26   0.13462 
27   0.13547 
28   0.14105 
29   0.135994 
30   0.139765 
31   0.132855 
32   0.136891 
33   0.128104 
34   0.130657 
 
$$$$ 
 
