PCCDB-ID:  25282 
public computational chemistry database (PCCDB) project, http://pccdb.org 
 
 22 22  0  0  0  0  0  0  0  0999 V2000 
    0.9676    0.3766   -0.1188 C   0  0  0  0  0  0  0  0  0  0  0  0 
    2.9685   -3.4246    0.1558 C   0  0  0  0  0  0  0  0  0  0  0  0 
    5.2957    0.1821   -0.1351 C   0  0  0  0  0  0  0  0  0  0  0  0 
    4.5537   -0.9818   -0.0034 C   0  0  0  0  0  0  0  0  0  0  0  0 
    3.2354    1.4606   -0.2672 C   0  0  0  0  0  0  0  0  0  0  0  0 
    2.4750    0.3094   -0.1321 C   0  0  0  0  0  0  0  0  0  0  0  0 
    4.6328    1.4007   -0.2678 C   0  0  0  0  0  0  0  0  0  0  0  0 
    3.1419   -0.9445    0.0020 C   0  0  0  0  0  0  0  0  0  0  0  0 
    2.4007   -2.0906    0.1588 N   0  0  0  0  0  0  0  0  0  0  0  0 
    5.4014    2.6262   -0.4104 N   0  0  0  0  0  0  0  0  0  0  0  0 
    6.6337    2.5419   -0.4021 O   0  0  0  0  0  0  0  0  0  0  0  0 
    4.7823    3.6884   -0.5327 O   0  0  0  0  0  0  0  0  0  0  0  0 
    0.6246    1.4117   -0.1937 H   0  0  0  0  0  0  0  0  0  0  0  0 
    0.5497   -0.0449    0.8058 H   0  0  0  0  0  0  0  0  0  0  0  0 
    0.5207   -0.1743   -0.9600 H   0  0  0  0  0  0  0  0  0  0  0  0 
    2.1579   -4.1480    0.2691 H   0  0  0  0  0  0  0  0  0  0  0  0 
    3.6575   -3.5583    0.9980 H   0  0  0  0  0  0  0  0  0  0  0  0 
    3.5119   -3.6526   -0.7732 H   0  0  0  0  0  0  0  0  0  0  0  0 
    6.3785    0.1607   -0.1412 H   0  0  0  0  0  0  0  0  0  0  0  0 
    5.0706   -1.9295    0.0947 H   0  0  0  0  0  0  0  0  0  0  0  0 
    2.7561    2.4270   -0.3721 H   0  0  0  0  0  0  0  0  0  0  0  0 
    1.4163   -2.0224   -0.0462 H   0  0  0  0  0  0  0  0  0  0  0  0 
  1 14  1  0  0  0  0 
  2  9  1  0  0  0  0 
  2 16  1  0  0  0  0 
  2 17  1  0  0  0  0 
  3  4  2  0  0  0  0 
  4  8  1  0  0  0  0 
  4 20  1  0  0  0  0 
  5  6  1  0  0  0  0 
  6  1  1  0  0  0  0 
  6  8  2  0  0  0  0 
  7  5  2  0  0  0  0 
  7  3  1  0  0  0  0 
  8  9  1  0  0  0  0 
 10 11  2  0  0  0  0 
 10  7  1  0  0  0  0 
 12 10  2  0  0  0  0 
 13  1  1  0  0  0  0 
 15  1  1  0  0  0  0 
 18  2  1  0  0  0  0 
 19  3  1  0  0  0  0 
 21  5  1  0  0  0  0 
 22  9  1  0  0  0  0 
M  END 
>  <HBA> 
1 
 
>  <HBD> 
1 
 
>  <TPSA> 
57.85 
 
>  <cid> 
25282 
 
>  <dipole> 
7.89 
 
>  <excitation_energy_1> 
3.698 
 
>  <excitation_energy_2> 
3.777 
 
>  <excitation_energy_3> 
4.334 
 
>  <excitation_energy_4> 
4.351 
 
>  <homo_energy> 
-5.902 
 
>  <homo_lumo_gap> 
4.093 
 
>  <logP> 
2.541 
 
>  <lumo_energy> 
-1.81 
 
>  <melting_point> 
82.51 
 
>  <molecular_refractivity> 
49.54 
 
>  <oscillator_strength_1> 
0.3508 
 
>  <oscillator_strength_2> 
0.0024 
 
>  <oscillator_strength_3> 
0.0053 
 
>  <oscillator_strength_4> 
0.0004 
 
>  <open_babel_can_smiles> 
CNc1ccc(cc1C)N(=O)=O 
 
>  <mulliken_charges> 
22 
1   -0.561223 
2   -0.303678 
3   -0.164799 
4   -0.19629 
5   -0.235097 
6   0.147616 
7   0.285405 
8   0.332278 
9   -0.655895 
10   0.363424 
11   -0.414334 
12   -0.414934 
13   0.176364 
14   0.165749 
15   0.15735 
16   0.164056 
17   0.173335 
18   0.163607 
19   0.175934 
20   0.137922 
21   0.170626 
22   0.332583 
 
>  <lowdin_charges> 
22 
1   -0.447441 
2   -0.352564 
3   -0.126254 
4   -0.206173 
5   -0.141782 
6   -0.034901 
7   -0.029451 
8   0.070576 
9   -0.272891 
10   0.305922 
11   -0.266063 
12   -0.268906 
13   0.168964 
14   0.159496 
15   0.15519 
16   0.164444 
17   0.158954 
18   0.149404 
19   0.18301 
20   0.16522 
21   0.182109 
22   0.283139 
 
$$$$ 
 
