PCCDB-ID:  26321 
public computational chemistry database (PCCDB) project, http://pccdb.org 
 
 31 31  0  0  0  0  0  0  0  0999 V2000 
    1.7278   -0.4306    0.1622 C   0  0  0  0  0  0  0  0  0  0  0  0 
   -2.1546   -2.6862    1.3785 C   0  0  0  0  0  0  0  0  0  0  0  0 
   -2.6486   -2.6940    3.7278 C   0  0  0  0  0  0  0  0  0  0  0  0 
    2.9337   -4.2618    0.8687 C   0  0  0  0  0  0  0  0  0  0  0  0 
    2.1394   -5.4020    0.9353 C   0  0  0  0  0  0  0  0  0  0  0  0 
    1.2277   -3.0303    2.0422 C   0  0  0  0  0  0  0  0  0  0  0  0 
   -0.9056   -4.1271    2.8684 C   0  0  0  0  0  0  0  0  0  0  0  0 
    2.9975   -0.8128    0.8925 C   0  0  0  0  0  0  0  0  0  0  0  0 
    0.4208   -4.1687    2.1298 C   0  0  0  0  0  0  0  0  0  0  0  0 
    2.4790   -3.0478    1.4055 C   0  0  0  0  0  0  0  0  0  0  0  0 
    0.8906   -5.3639    1.5641 C   0  0  0  0  0  0  0  0  0  0  0  0 
    3.3366   -1.9343    1.3781 N   0  0  0  0  0  0  0  0  0  0  0  0 
   -1.6078   -2.8482    2.7204 N   0  0  0  0  0  0  0  0  0  0  0  0 
    3.9125    0.1956    1.0123 O   0  0  0  0  0  0  0  0  0  0  0  0 
    0.0964   -6.4828    1.6691 O   0  0  0  0  0  0  0  0  0  0  0  0 
    1.0892   -1.2996    0.0020 H   0  0  0  0  0  0  0  0  0  0  0  0 
    1.9764    0.0089   -0.8127 H   0  0  0  0  0  0  0  0  0  0  0  0 
    1.1590    0.3158    0.7304 H   0  0  0  0  0  0  0  0  0  0  0  0 
   -2.5969   -1.6886    1.2784 H   0  0  0  0  0  0  0  0  0  0  0  0 
   -2.9361   -3.4344    1.1386 H   0  0  0  0  0  0  0  0  0  0  0  0 
   -1.3553   -2.7844    0.6382 H   0  0  0  0  0  0  0  0  0  0  0  0 
   -3.1200   -1.7108    3.6195 H   0  0  0  0  0  0  0  0  0  0  0  0 
   -2.2088   -2.7525    4.7293 H   0  0  0  0  0  0  0  0  0  0  0  0 
   -3.4449   -3.4615    3.6570 H   0  0  0  0  0  0  0  0  0  0  0  0 
    3.9118   -4.2978    0.3990 H   0  0  0  0  0  0  0  0  0  0  0  0 
    2.4980   -6.3373    0.5073 H   0  0  0  0  0  0  0  0  0  0  0  0 
    0.8636   -2.1150    2.4986 H   0  0  0  0  0  0  0  0  0  0  0  0 
   -0.7148   -4.2715    3.9408 H   0  0  0  0  0  0  0  0  0  0  0  0 
   -1.5328   -4.9782    2.5514 H   0  0  0  0  0  0  0  0  0  0  0  0 
    3.5688    0.9890    0.5740 H   0  0  0  0  0  0  0  0  0  0  0  0 
    0.5438   -7.2197    1.2256 H   0  0  0  0  0  0  0  0  0  0  0  0 
  1 18  1  0  0  0  0 
  1  8  1  0  0  0  0 
  2 13  1  0  0  0  0 
  3 23  1  0  0  0  0 
  4  5  2  0  0  0  0 
  4 10  1  0  0  0  0 
  5 11  1  0  0  0  0 
  6  9  1  0  0  0  0 
  6 27  1  0  0  0  0 
  7 28  1  0  0  0  0 
  8 14  1  0  0  0  0 
  8 12  2  0  0  0  0 
  9  7  1  0  0  0  0 
 10  6  2  0  0  0  0 
 11 15  1  0  0  0  0 
 11  9  2  0  0  0  0 
 12 10  1  0  0  0  0 
 13  7  1  0  0  0  0 
 13  3  1  0  0  0  0 
 16  1  1  0  0  0  0 
 17  1  1  0  0  0  0 
 19  2  1  0  0  0  0 
 20  2  1  0  0  0  0 
 21  2  1  0  0  0  0 
 22  3  1  0  0  0  0 
 24  3  1  0  0  0  0 
 25  4  1  0  0  0  0 
 26  5  1  0  0  0  0 
 29  7  1  0  0  0  0 
 30 14  1  0  0  0  0 
 31 15  1  0  0  0  0 
M  END 
>  <HBA> 
4 
 
>  <HBD> 
2 
 
>  <TPSA> 
52.57 
 
>  <cid> 
26321 
 
>  <dipole> 
3.31 
 
>  <excitation_energy_1> 
4.458 
 
>  <excitation_energy_2> 
4.571 
 
>  <excitation_energy_3> 
4.617 
 
>  <excitation_energy_4> 
4.684 
 
>  <homo_energy> 
-5.211 
 
>  <homo_lumo_gap> 
5.252 
 
>  <logP> 
1.485 
 
>  <lumo_energy> 
0.041 
 
>  <melting_point> 
105.72 
 
>  <molecular_refractivity> 
60.25 
 
>  <oscillator_strength_1> 
0.0627 
 
>  <oscillator_strength_2> 
0.0471 
 
>  <oscillator_strength_3> 
0.0892 
 
>  <oscillator_strength_4> 
0.0129 
 
>  <open_babel_can_smiles> 
CN(Cc1cc(ccc1O)/N=C(/O)\C)C 
 
>  <mulliken_charges> 
31 
1   -0.55685 
2   -0.302258 
3   -0.291795 
4   -0.158557 
5   -0.197549 
6   -0.221681 
7   -0.186748 
8   0.481439 
9   0.097455 
10   0.247966 
11   0.286102 
12   -0.473373 
13   -0.370825 
14   -0.572313 
15   -0.653312 
16   0.198706 
17   0.164719 
18   0.178438 
19   0.142584 
20   0.119364 
21   0.157059 
22   0.145264 
23   0.149988 
24   0.118084 
25   0.133088 
26   0.114734 
27   0.140454 
28   0.15324 
29   0.145035 
30   0.405643 
31   0.405897 
 
>  <lowdin_charges> 
31 
1   -0.485199 
2   -0.361086 
3   -0.355416 
4   -0.162775 
5   -0.209022 
6   -0.180859 
7   -0.196467 
8   0.142936 
9   -0.040112 
10   0.02923 
11   0.081429 
12   -0.173945 
13   -0.182218 
14   -0.363942 
15   -0.391643 
16   0.183514 
17   0.164238 
18   0.172441 
19   0.146092 
20   0.122285 
21   0.154064 
22   0.14793 
23   0.149154 
24   0.121126 
25   0.163239 
26   0.151549 
27   0.166557 
28   0.153538 
29   0.14008 
30   0.355485 
31   0.357796 
 
$$$$ 
 
