PCCDB-ID:  20121 
public computational chemistry database (PCCDB) project, http://pccdb.org 
 
 30 29  0  0  0  0  0  0  0  0999 V2000 
    8.6405   -0.1809    2.4553 C   0  0  0  0  0  0  0  0  0  0  0  0 
    3.1142    6.5637    1.2936 C   0  0  0  0  0  0  0  0  0  0  0  0 
    7.3201    0.3235    3.0519 C   0  0  0  0  0  0  0  0  0  0  0  0 
    3.2193    5.3226    2.1891 C   0  0  0  0  0  0  0  0  0  0  0  0 
    7.0665    1.8285    2.8614 C   0  0  0  0  0  0  0  0  0  0  0  0 
    4.6448    4.7686    2.3536 C   0  0  0  0  0  0  0  0  0  0  0  0 
    6.8573    2.2238    1.3916 C   0  0  0  0  0  0  0  0  0  0  0  0 
    5.2312    4.2091    1.0481 C   0  0  0  0  0  0  0  0  0  0  0  0 
    6.5759    3.6457    1.1837 N   0  0  0  0  0  0  0  0  0  0  0  0 
    7.6328    4.5131    1.1967 N   0  0  0  0  0  0  0  0  0  0  0  0 
    7.3820    5.7150    1.0546 O   0  0  0  0  0  0  0  0  0  0  0  0 
    8.7612    4.0297    1.3408 O   0  0  0  0  0  0  0  0  0  0  0  0 
    8.7948   -1.2399    2.6910 H   0  0  0  0  0  0  0  0  0  0  0  0 
    9.4929    0.3797    2.8568 H   0  0  0  0  0  0  0  0  0  0  0  0 
    8.6667   -0.0830    1.3642 H   0  0  0  0  0  0  0  0  0  0  0  0 
    2.0873    6.9458    1.2782 H   0  0  0  0  0  0  0  0  0  0  0  0 
    3.3982    6.3524    0.2567 H   0  0  0  0  0  0  0  0  0  0  0  0 
    3.7653    7.3677    1.6566 H   0  0  0  0  0  0  0  0  0  0  0  0 
    7.3120    0.1106    4.1286 H   0  0  0  0  0  0  0  0  0  0  0  0 
    6.4806   -0.2460    2.6265 H   0  0  0  0  0  0  0  0  0  0  0  0 
    2.5611    4.5312    1.8014 H   0  0  0  0  0  0  0  0  0  0  0  0 
    2.8348    5.5707    3.1867 H   0  0  0  0  0  0  0  0  0  0  0  0 
    7.9117    2.4020    3.2589 H   0  0  0  0  0  0  0  0  0  0  0  0 
    6.1788    2.1214    3.4361 H   0  0  0  0  0  0  0  0  0  0  0  0 
    4.6363    3.9723    3.1089 H   0  0  0  0  0  0  0  0  0  0  0  0 
    5.3101    5.5569    2.7240 H   0  0  0  0  0  0  0  0  0  0  0  0 
    6.0012    1.6846    0.9719 H   0  0  0  0  0  0  0  0  0  0  0  0 
    7.7370    1.9722    0.7963 H   0  0  0  0  0  0  0  0  0  0  0  0 
    5.2766    4.9860    0.2827 H   0  0  0  0  0  0  0  0  0  0  0  0 
    4.6027    3.3971    0.6665 H   0  0  0  0  0  0  0  0  0  0  0  0 
  1 13  1  0  0  0  0 
  1 14  1  0  0  0  0 
  1  3  1  0  0  0  0 
  2 18  1  0  0  0  0 
  2  4  1  0  0  0  0 
  3 19  1  0  0  0  0 
  4  6  1  0  0  0  0 
  4 22  1  0  0  0  0 
  5  3  1  0  0  0  0 
  5 23  1  0  0  0  0 
  5 24  1  0  0  0  0 
  6 26  1  0  0  0  0 
  6 25  1  0  0  0  0 
  7  5  1  0  0  0  0 
  8  9  1  0  0  0  0 
  8  6  1  0  0  0  0 
  9 10  1  0  0  0  0 
  9  7  1  0  0  0  0 
 10 12  2  0  0  0  0 
 11 10  2  0  0  0  0 
 15  1  1  0  0  0  0 
 16  2  1  0  0  0  0 
 17  2  1  0  0  0  0 
 20  3  1  0  0  0  0 
 21  4  1  0  0  0  0 
 27  7  1  0  0  0  0 
 28  7  1  0  0  0  0 
 29  8  1  0  0  0  0 
 30  8  1  0  0  0  0 
M  END 
>  <HBA> 
1 
 
>  <HBD> 
0 
 
>  <TPSA> 
49.06 
 
>  <cid> 
20121 
 
>  <dipole> 
4.61 
 
>  <excitation_energy_1> 
4.621 
 
>  <excitation_energy_2> 
5.451 
 
>  <excitation_energy_3> 
5.642 
 
>  <excitation_energy_4> 
6.362 
 
>  <homo_energy> 
-7.002 
 
>  <homo_lumo_gap> 
6.158 
 
>  <logP> 
2.603 
 
>  <lumo_energy> 
-0.844 
 
>  <melting_point> 
5.5 
 
>  <molecular_refractivity> 
51.57 
 
>  <oscillator_strength_1> 
0.0 
 
>  <oscillator_strength_2> 
0.1176 
 
>  <oscillator_strength_3> 
0.0466 
 
>  <oscillator_strength_4> 
0.005 
 
>  <open_babel_can_smiles> 
CCCCN(N(=O)=O)CCCC 
 
>  <mulliken_charges> 
30 
1   -0.446239 
2   -0.445926 
3   -0.25732 
4   -0.257574 
5   -0.263557 
6   -0.262925 
7   -0.136298 
8   -0.136902 
9   -0.272585 
10   0.646136 
11   -0.444738 
12   -0.444542 
13   0.146365 
14   0.155716 
15   0.146954 
16   0.146312 
17   0.146883 
18   0.15568 
19   0.141615 
20   0.129545 
21   0.129627 
22   0.141605 
23   0.166119 
24   0.137798 
25   0.137685 
26   0.165686 
27   0.148111 
28   0.189101 
29   0.189443 
30   0.148225 
 
>  <lowdin_charges> 
30 
1   -0.444559 
2   -0.446074 
3   -0.272199 
4   -0.273719 
5   -0.289567 
6   -0.289707 
7   -0.202377 
8   -0.203202 
9   -0.062225 
10   0.331932 
11   -0.290013 
12   -0.291097 
13   0.15101 
14   0.154545 
15   0.145522 
16   0.151529 
17   0.146393 
18   0.154679 
19   0.146474 
20   0.138858 
21   0.139055 
22   0.147775 
23   0.158592 
24   0.144224 
25   0.144205 
26   0.158596 
27   0.154099 
28   0.171338 
29   0.1716 
30   0.154313 
 
$$$$ 
 
