PCCDB-ID:  7392 
public computational chemistry database (PCCDB) project, http://pccdb.org 
 
 29 29  0  0  0  0  0  0  0  0999 V2000 
    3.1944   -1.0079   -0.9154 C   0  0  0  0  0  0  0  0  0  0  0  0 
    0.9211   -0.1328   -0.3085 C   0  0  0  0  0  0  0  0  0  0  0  0 
    2.7266   -0.3038    1.4253 C   0  0  0  0  0  0  0  0  0  0  0  0 
    2.3131    2.5841    0.4774 C   0  0  0  0  0  0  0  0  0  0  0  0 
    2.8067    1.8685   -1.8743 C   0  0  0  0  0  0  0  0  0  0  0  0 
    2.9636    3.9609    0.2258 C   0  0  0  0  0  0  0  0  0  0  0  0 
    3.4641    3.2318   -2.1780 C   0  0  0  0  0  0  0  0  0  0  0  0 
    2.9467    1.4720   -0.3879 C   0  0  0  0  0  0  0  0  0  0  0  0 
    2.9671    4.3304   -1.2501 C   0  0  0  0  0  0  0  0  0  0  0  0 
    2.4344    0.0260   -0.0553 C   0  0  0  0  0  0  0  0  0  0  0  0 
    2.6019    5.4177   -1.6560 O   0  0  0  0  0  0  0  0  0  0  0  0 
    2.9351   -2.0261   -0.6020 H   0  0  0  0  0  0  0  0  0  0  0  0 
    4.2807   -0.8946   -0.8069 H   0  0  0  0  0  0  0  0  0  0  0  0 
    2.9517   -0.9263   -1.9798 H   0  0  0  0  0  0  0  0  0  0  0  0 
    0.6040   -1.1556   -0.0716 H   0  0  0  0  0  0  0  0  0  0  0  0 
    0.6576    0.0553   -1.3554 H   0  0  0  0  0  0  0  0  0  0  0  0 
    0.3274    0.5445    0.3154 H   0  0  0  0  0  0  0  0  0  0  0  0 
    2.4835   -1.3520    1.6353 H   0  0  0  0  0  0  0  0  0  0  0  0 
    2.1359    0.3086    2.1141 H   0  0  0  0  0  0  0  0  0  0  0  0 
    3.7872   -0.1553    1.6649 H   0  0  0  0  0  0  0  0  0  0  0  0 
    1.2399    2.6571    0.2558 H   0  0  0  0  0  0  0  0  0  0  0  0 
    2.3965    2.3506    1.5432 H   0  0  0  0  0  0  0  0  0  0  0  0 
    3.2566    1.1149   -2.5279 H   0  0  0  0  0  0  0  0  0  0  0  0 
    1.7429    1.9211   -2.1427 H   0  0  0  0  0  0  0  0  0  0  0  0 
    4.0112    3.9294    0.5637 H   0  0  0  0  0  0  0  0  0  0  0  0 
    2.4606    4.7563    0.7839 H   0  0  0  0  0  0  0  0  0  0  0  0 
    3.2938    3.5442   -3.2127 H   0  0  0  0  0  0  0  0  0  0  0  0 
    4.5521    3.1430   -2.0328 H   0  0  0  0  0  0  0  0  0  0  0  0 
    4.0261    1.4632   -0.1585 H   0  0  0  0  0  0  0  0  0  0  0  0 
  1 13  1  0  0  0  0 
  1 12  1  0  0  0  0 
  1 10  1  0  0  0  0 
  2 15  1  0  0  0  0 
  2 10  1  0  0  0  0 
  2 17  1  0  0  0  0 
  3 18  1  0  0  0  0 
  3 20  1  0  0  0  0 
  3 19  1  0  0  0  0 
  4 22  1  0  0  0  0 
  5  8  1  0  0  0  0 
  6  4  1  0  0  0  0 
  6 25  1  0  0  0  0 
  6 26  1  0  0  0  0 
  7 28  1  0  0  0  0 
  7  5  1  0  0  0  0 
  7  9  1  0  0  0  0 
  8 29  1  0  0  0  0 
  8 10  1  0  0  0  0 
  8  4  1  0  0  0  0 
  9  6  1  0  0  0  0 
 10  3  1  0  0  0  0 
 11  9  2  0  0  0  0 
 14  1  1  0  0  0  0 
 16  2  1  0  0  0  0 
 21  4  1  0  0  0  0 
 23  5  1  0  0  0  0 
 24  5  1  0  0  0  0 
 27  7  1  0  0  0  0 
M  END 
>  <HBA> 
1 
 
>  <HBD> 
0 
 
>  <TPSA> 
17.07 
 
>  <cid> 
7392 
 
>  <dipole> 
3.22 
 
>  <excitation_energy_1> 
4.195 
 
>  <excitation_energy_2> 
5.98 
 
>  <excitation_energy_3> 
6.316 
 
>  <excitation_energy_4> 
6.401 
 
>  <homo_energy> 
-6.34 
 
>  <homo_lumo_gap> 
6.038 
 
>  <logP> 
2.792 
 
>  <lumo_energy> 
-0.302 
 
>  <melting_point> 
33.44 
 
>  <molecular_refractivity> 
48.01 
 
>  <oscillator_strength_1> 
0.0001 
 
>  <oscillator_strength_2> 
0.0076 
 
>  <oscillator_strength_3> 
0.0064 
 
>  <oscillator_strength_4> 
0.0076 
 
>  <open_babel_can_smiles> 
CC(C1CCC(=O)CC1)(C)C 
 
>  <mulliken_charges> 
29 
1   -0.4525 
2   -0.456377 
3   -0.452325 
4   -0.287927 
5   -0.287753 
6   -0.347437 
7   -0.347342 
8   -0.070828 
9   0.45368 
10   0.102387 
11   -0.447558 
12   0.14042 
13   0.1376 
14   0.144699 
15   0.141024 
16   0.144151 
17   0.144281 
18   0.140582 
19   0.144484 
20   0.137639 
21   0.144936 
22   0.144829 
23   0.145003 
24   0.14472 
25   0.152838 
26   0.161716 
27   0.161709 
28   0.152775 
29   0.110572 
 
>  <lowdin_charges> 
29 
1   -0.440002 
2   -0.446567 
3   -0.443686 
4   -0.275577 
5   -0.279036 
6   -0.306899 
7   -0.303681 
8   -0.128691 
9   0.1572 
10   0.015138 
11   -0.235669 
12   0.148057 
13   0.144463 
14   0.146431 
15   0.14925 
16   0.147237 
17   0.14991 
18   0.147795 
19   0.149256 
20   0.145015 
21   0.143437 
22   0.149243 
23   0.152295 
24   0.143532 
25   0.157621 
26   0.1643 
27   0.162063 
28   0.157066 
29   0.130498 
 
$$$$ 
 
