PCCDB-ID:  70934 
public computational chemistry database (PCCDB) project, http://pccdb.org 
 
 11 11  0  0  0  0  0  0  0  0999 V2000 
    1.0256    0.6841    0.0516 C   0  0  0  0  0  0  0  0  0  0  0  0 
   -0.3727    1.2645    0.0469 C   0  0  0  0  0  0  0  0  0  0  0  0 
    0.9415   -0.6369   -0.1084 C   0  0  0  0  0  0  0  0  0  0  0  0 
   -1.2359   -0.0122   -0.1479 C   0  0  0  0  0  0  0  0  0  0  0  0 
   -0.3233   -1.1409   -0.2335 O   0  0  0  0  0  0  0  0  0  0  0  0 
    1.9381    1.2537    0.1655 H   0  0  0  0  0  0  0  0  0  0  0  0 
   -0.5252    1.9885   -0.7646 H   0  0  0  0  0  0  0  0  0  0  0  0 
   -0.6162    1.7831    0.9837 H   0  0  0  0  0  0  0  0  0  0  0  0 
    1.7227   -1.3864   -0.1560 H   0  0  0  0  0  0  0  0  0  0  0  0 
   -1.8227    0.0070   -1.0716 H   0  0  0  0  0  0  0  0  0  0  0  0 
   -1.9134   -0.2003    0.6909 H   0  0  0  0  0  0  0  0  0  0  0  0 
  1  6  1  0  0  0  0 
  2  1  1  0  0  0  0 
  2  8  1  0  0  0  0 
  3  1  2  0  0  0  0 
  4  2  1  0  0  0  0 
  4 11  1  0  0  0  0 
  5  4  1  0  0  0  0 
  5  3  1  0  0  0  0 
  7  2  1  0  0  0  0 
  9  3  1  0  0  0  0 
 10  4  1  0  0  0  0 
M  END 
>  <HBA> 
1 
 
>  <HBD> 
0 
 
>  <TPSA> 
9.23 
 
>  <cid> 
70934 
 
>  <dipole> 
1.17 
 
>  <excitation_energy_1> 
5.235 
 
>  <excitation_energy_2> 
5.753 
 
>  <excitation_energy_3> 
5.931 
 
>  <excitation_energy_4> 
5.955 
 
>  <homo_energy> 
-5.546 
 
>  <homo_lumo_gap> 
6.721 
 
>  <logP> 
0.92 
 
>  <lumo_energy> 
1.176 
 
>  <melting_point> 
-1.82 
 
>  <molecular_refractivity> 
19.84 
 
>  <oscillator_strength_1> 
0.0112 
 
>  <oscillator_strength_2> 
0.0056 
 
>  <oscillator_strength_3> 
0.0019 
 
>  <oscillator_strength_4> 
0.0882 
 
>  <open_babel_can_smiles> 
C1CC=CO1 
 
>  <mulliken_charges> 
11 
1   -0.191195 
2   -0.327177 
3   0.137128 
4   -0.035959 
5   -0.467295 
6   0.132229 
7   0.150726 
8   0.150728 
9   0.147518 
10   0.151656 
11   0.151641 
 
>  <lowdin_charges> 
11 
1   -0.251387 
2   -0.283323 
3   -0.046815 
4   -0.123135 
5   -0.224935 
6   0.165465 
7   0.150895 
8   0.150415 
9   0.165062 
10   0.14866 
11   0.149096 
 
$$$$ 
 
