PCCDB-ID:  30248 
public computational chemistry database (PCCDB) project, http://pccdb.org 
 
 34 34  0  0  1  0  0  0  0  0999 V2000 
    2.1629    0.9717   -0.7134 C   0  0  0  0  0  0  0  0  0  0  0  0 
    0.4411   -0.1769    0.6566 C   0  0  0  0  0  0  0  0  0  0  0  0 
    4.7351   -5.0241    1.4428 C   0  0  0  0  0  0  0  0  0  0  0  0 
    5.4383   -2.3957    5.3781 C   0  0  0  0  0  0  0  0  0  0  0  0 
    3.2998   -3.6999   -0.1864 C   0  0  0  0  0  0  0  0  0  0  0  0 
    2.2676   -2.5793   -0.3732 C   0  0  0  0  0  0  0  0  0  0  0  0 
    3.1439   -1.4548    1.7090 C   0  0  0  0  0  0  0  0  0  0  0  0 
    1.8078   -0.0913    0.0165 C   0  0  0  0  0  0  0  0  0  0  0  0 
    3.6889   -3.9138    1.2896 C   0  0  2  0  0  0  0  0  0  0  0  0 
    5.3301   -2.0376    3.9128 C   0  0  0  0  0  0  0  0  0  0  0  0 
    2.7755   -1.2477    0.2223 C   0  0  2  0  0  0  0  0  0  0  0  0 
    4.1646   -2.5828    1.8844 C   0  0  2  0  0  0  0  0  0  0  0  0 
    5.9888   -1.1897    3.3508 O   0  0  0  0  0  0  0  0  0  0  0  0 
    4.3928   -2.8025    3.3051 O   0  0  0  0  0  0  0  0  0  0  0  0 
    1.4864    1.8077   -0.8747 H   0  0  0  0  0  0  0  0  0  0  0  0 
    3.1443    1.0478   -1.1757 H   0  0  0  0  0  0  0  0  0  0  0  0 
   -0.1577    0.7088    0.4238 H   0  0  0  0  0  0  0  0  0  0  0  0 
    0.5091   -0.2568    1.7492 H   0  0  0  0  0  0  0  0  0  0  0  0 
   -0.1157   -1.0579    0.3122 H   0  0  0  0  0  0  0  0  0  0  0  0 
    4.3628   -5.9684    1.0291 H   0  0  0  0  0  0  0  0  0  0  0  0 
    4.9865   -5.1899    2.4946 H   0  0  0  0  0  0  0  0  0  0  0  0 
    5.6598   -4.7683    0.9094 H   0  0  0  0  0  0  0  0  0  0  0  0 
    6.1894   -1.7629    5.8520 H   0  0  0  0  0  0  0  0  0  0  0  0 
    5.7163   -3.4491    5.4891 H   0  0  0  0  0  0  0  0  0  0  0  0 
    4.4705   -2.2607    5.8720 H   0  0  0  0  0  0  0  0  0  0  0  0 
    4.2053   -3.4606   -0.7644 H   0  0  0  0  0  0  0  0  0  0  0  0 
    2.9139   -4.6416   -0.5971 H   0  0  0  0  0  0  0  0  0  0  0  0 
    1.3277   -2.8697    0.1165 H   0  0  0  0  0  0  0  0  0  0  0  0 
    2.0411   -2.4464   -1.4383 H   0  0  0  0  0  0  0  0  0  0  0  0 
    2.2482   -1.7127    2.2893 H   0  0  0  0  0  0  0  0  0  0  0  0 
    3.5543   -0.5301    2.1284 H   0  0  0  0  0  0  0  0  0  0  0  0 
    2.7836   -4.2091    1.8421 H   0  0  0  0  0  0  0  0  0  0  0  0 
    3.7017   -0.9875   -0.3107 H   0  0  0  0  0  0  0  0  0  0  0  0 
    5.1205   -2.2891    1.4366 H   0  0  0  0  0  0  0  0  0  0  0  0 
  1  8  2  0  0  0  0 
  2 18  1  0  0  0  0 
  3 21  1  0  0  0  0 
  4 24  1  0  0  0  0 
  4 23  1  0  0  0  0 
  4 25  1  0  0  0  0 
  5  9  1  0  0  0  0 
  6  5  1  0  0  0  0 
  6 28  1  0  0  0  0 
  6 11  1  0  0  0  0 
  7 12  1  0  0  0  0 
  7 31  1  0  0  0  0 
  7 30  1  0  0  0  0 
  8 11  1  0  0  0  0 
  8  2  1  0  0  0  0 
  9  3  1  0  0  0  0 
  9 32  1  1  0  0  0 
  9 12  1  0  0  0  0 
 10  4  1  0  0  0  0 
 11 33  1  6  0  0  0 
 11  7  1  0  0  0  0 
 12 34  1  6  0  0  0 
 12 14  1  0  0  0  0 
 13 10  2  0  0  0  0 
 14 10  1  0  0  0  0 
 15  1  1  0  0  0  0 
 16  1  1  0  0  0  0 
 17  2  1  0  0  0  0 
 19  2  1  0  0  0  0 
 20  3  1  0  0  0  0 
 22  3  1  0  0  0  0 
 26  5  1  0  0  0  0 
 27  5  1  0  0  0  0 
 29  6  1  0  0  0  0 
M  END 
>  <HBA> 
2 
 
>  <HBD> 
0 
 
>  <TPSA> 
26.3 
 
>  <cid> 
30248 
 
>  <dipole> 
2.27 
 
>  <excitation_energy_1> 
5.789 
 
>  <excitation_energy_2> 
6.075 
 
>  <excitation_energy_3> 
6.354 
 
>  <excitation_energy_4> 
6.438 
 
>  <homo_energy> 
-6.566 
 
>  <homo_lumo_gap> 
7.01 
 
>  <logP> 
2.93 
 
>  <lumo_energy> 
0.444 
 
>  <melting_point> 
-12.71 
 
>  <molecular_refractivity> 
58.49 
 
>  <oscillator_strength_1> 
0.0009 
 
>  <oscillator_strength_2> 
0.012 
 
>  <oscillator_strength_3> 
0.0052 
 
>  <oscillator_strength_4> 
0.0229 
 
>  <open_babel_can_smiles> 
CC(=O)O[C@@H]1C[C@@H](CC[C@H]1C)C(=C)C 
 
>  <mulliken_charges> 
34 
1   -0.409157 
2   -0.5246 
3   -0.453006 
4   -0.525395 
5   -0.270805 
6   -0.267527 
7   -0.291469 
8   0.248816 
9   -0.090954 
10   0.606599 
11   -0.166615 
12   0.133318 
13   -0.470253 
14   -0.47696 
15   0.130764 
16   0.134264 
17   0.153945 
18   0.157694 
19   0.156073 
20   0.142134 
21   0.154927 
22   0.141511 
23   0.181537 
24   0.179709 
25   0.179771 
26   0.131615 
27   0.136183 
28   0.131082 
29   0.139844 
30   0.135992 
31   0.162723 
32   0.127264 
33   0.127737 
34   0.153238 
 
>  <lowdin_charges> 
34 
1   -0.362717 
2   -0.443428 
3   -0.444598 
4   -0.465461 
5   -0.277249 
6   -0.277512 
7   -0.288983 
8   0.009737 
9   -0.132684 
10   0.201039 
11   -0.125139 
12   0.001664 
13   -0.268406 
14   -0.198558 
15   0.153649 
16   0.153367 
17   0.158585 
18   0.154613 
19   0.156267 
20   0.150232 
21   0.153887 
22   0.147536 
23   0.176169 
24   0.175169 
25   0.176341 
26   0.140355 
27   0.147573 
28   0.139484 
29   0.147441 
30   0.144391 
31   0.161173 
32   0.140773 
33   0.143754 
34   0.151535 
 
$$$$ 
 
