PCCDB-ID:  14050 
public computational chemistry database (PCCDB) project, http://pccdb.org 
 
 32 31  0  0  1  0  0  0  0  0999 V2000 
    0.6049    0.9740   -0.9263 C   0  0  0  0  0  0  0  0  0  0  0  0 
    3.3636    2.4855    5.2101 C   0  0  0  0  0  0  0  0  0  0  0  0 
    1.7941    0.3692   -0.1730 C   0  0  0  0  0  0  0  0  0  0  0  0 
    3.0785    1.4271    4.1364 C   0  0  0  0  0  0  0  0  0  0  0  0 
    2.2793    1.2386    0.9949 C   0  0  0  0  0  0  0  0  0  0  0  0 
    3.4814    0.6304    1.7305 C   0  0  0  0  0  0  0  0  0  0  0  0 
    5.4172    1.0027    3.3102 C   0  0  0  0  0  0  0  0  0  0  0  0 
    4.0175    1.4692    2.9100 C   0  0  2  0  0  0  0  0  0  0  0  0 
    8.3630    1.4427    3.5901 O   0  0  0  0  0  0  0  0  0  0  0  0 
    7.8243   -0.8095    2.6123 O   0  0  0  0  0  0  0  0  0  0  0  0 
    8.5880    1.0609    0.9771 O   0  0  0  0  0  0  0  0  0  0  0  0 
    6.3197    1.2384    2.1959 O   0  0  0  0  0  0  0  0  0  0  0  0 
    7.8423    0.7697    2.2158 P   0  0  0  0  0  0  0  0  0  0  0  0 
    0.2861    0.3286   -1.7525 H   0  0  0  0  0  0  0  0  0  0  0  0 
    0.8598    1.9540   -1.3481 H   0  0  0  0  0  0  0  0  0  0  0  0 
   -0.2566    1.1146   -0.2617 H   0  0  0  0  0  0  0  0  0  0  0  0 
    2.6227    2.4308    6.0157 H   0  0  0  0  0  0  0  0  0  0  0  0 
    3.3193    3.4963    4.7868 H   0  0  0  0  0  0  0  0  0  0  0  0 
    4.3508    2.3621    5.6690 H   0  0  0  0  0  0  0  0  0  0  0  0 
    2.6266    0.2078   -0.8721 H   0  0  0  0  0  0  0  0  0  0  0  0 
    1.5185   -0.6251    0.2068 H   0  0  0  0  0  0  0  0  0  0  0  0 
    2.0476    1.5567    3.7871 H   0  0  0  0  0  0  0  0  0  0  0  0 
    3.1171    0.4228    4.5842 H   0  0  0  0  0  0  0  0  0  0  0  0 
    1.4425    1.3995    1.6890 H   0  0  0  0  0  0  0  0  0  0  0  0 
    2.5552    2.2335    0.6153 H   0  0  0  0  0  0  0  0  0  0  0  0 
    4.2941    0.4905    1.0077 H   0  0  0  0  0  0  0  0  0  0  0  0 
    3.2157   -0.3726    2.0997 H   0  0  0  0  0  0  0  0  0  0  0  0 
    5.4181   -0.0686    3.5454 H   0  0  0  0  0  0  0  0  0  0  0  0 
    5.7978    1.5539    4.1742 H   0  0  0  0  0  0  0  0  0  0  0  0 
    4.1092    2.5141    2.5785 H   0  0  0  0  0  0  0  0  0  0  0  0 
    9.3225    1.3349    3.6950 H   0  0  0  0  0  0  0  0  0  0  0  0 
    7.9927   -1.3382    1.8144 H   0  0  0  0  0  0  0  0  0  0  0  0 
  1 16  1  0  0  0  0 
  1  3  1  0  0  0  0 
  2 19  1  0  0  0  0 
  2 17  1  0  0  0  0 
  3 21  1  0  0  0  0 
  3  5  1  0  0  0  0 
  4 23  1  0  0  0  0 
  4  2  1  0  0  0  0 
  5 24  1  0  0  0  0 
  5  6  1  0  0  0  0 
  6 27  1  0  0  0  0 
  6  8  1  0  0  0  0 
  7 28  1  0  0  0  0 
  7 29  1  0  0  0  0 
  8 30  1  6  0  0  0 
  8  7  1  0  0  0  0 
  8  4  1  0  0  0  0 
  9 31  1  0  0  0  0 
 11 13  2  0  0  0  0 
 12 13  1  0  0  0  0 
 12  7  1  0  0  0  0 
 13 10  1  0  0  0  0 
 13  9  1  0  0  0  0 
 14  1  1  0  0  0  0 
 15  1  1  0  0  0  0 
 18  2  1  0  0  0  0 
 20  3  1  0  0  0  0 
 22  4  1  0  0  0  0 
 25  5  1  0  0  0  0 
 26  6  1  0  0  0  0 
 32 10  1  0  0  0  0 
M  END 
>  <HBA> 
4 
 
>  <HBD> 
2 
 
>  <TPSA> 
76.57 
 
>  <cid> 
14050 
 
>  <dipole> 
3.03 
 
>  <excitation_energy_1> 
6.775 
 
>  <excitation_energy_2> 
6.939 
 
>  <excitation_energy_3> 
7.168 
 
>  <excitation_energy_4> 
7.415 
 
>  <homo_energy> 
-7.921 
 
>  <homo_lumo_gap> 
8.773 
 
>  <logP> 
2.312 
 
>  <lumo_energy> 
0.852 
 
>  <melting_point> 
51.84 
 
>  <molecular_refractivity> 
52.64 
 
>  <oscillator_strength_1> 
0.0205 
 
>  <oscillator_strength_2> 
0.0179 
 
>  <oscillator_strength_3> 
0.0013 
 
>  <oscillator_strength_4> 
0.0021 
 
>  <open_babel_can_smiles> 
CCCC[C@H](COP(=O)(O)O)CC 
 
>  <mulliken_charges> 
32 
1   -0.442301 
2   -0.452073 
3   -0.247641 
4   -0.270204 
5   -0.255267 
6   -0.269845 
7   -0.050313 
8   -0.0939 
9   -0.651827 
10   -0.662659 
11   -0.536484 
12   -0.513141 
13   1.152809 
14   0.14245 
15   0.143293 
16   0.140169 
17   0.147165 
18   0.149026 
19   0.147742 
20   0.134573 
21   0.129006 
22   0.145831 
23   0.131331 
24   0.129013 
25   0.133238 
26   0.156239 
27   0.12141 
28   0.155218 
29   0.168254 
30   0.138432 
31   0.441596 
32   0.438864 
 
>  <lowdin_charges> 
32 
1   -0.44538 
2   -0.446794 
3   -0.27165 
4   -0.274181 
5   -0.275852 
6   -0.279834 
7   -0.120628 
8   -0.13216 
9   -0.563598 
10   -0.584554 
11   -0.580614 
12   -0.386008 
13   1.115776 
14   0.150536 
15   0.146879 
16   0.145977 
17   0.153428 
18   0.149378 
19   0.146732 
20   0.1415 
21   0.137546 
22   0.147942 
23   0.139119 
24   0.136907 
25   0.139831 
26   0.153959 
27   0.135271 
28   0.148599 
29   0.157718 
30   0.144812 
31   0.38451 
32   0.384832 
 
$$$$ 
 
