PCCDB-ID:  72824 
public computational chemistry database (PCCDB) project, http://pccdb.org 
 
 24 24  0  0  0  0  0  0  0  0999 V2000 
    1.0128   -0.1190    0.1017 C   0  0  0  0  0  0  0  0  0  0  0  0 
    3.1502    0.0892    1.4012 C   0  0  0  0  0  0  0  0  0  0  0  0 
    3.4510    2.4880   -0.2669 C   0  0  0  0  0  0  0  0  0  0  0  0 
    2.0425    1.5101   -2.0910 C   0  0  0  0  0  0  0  0  0  0  0  0 
    3.1975   -1.1572   -0.7417 C   0  0  0  0  0  0  0  0  0  0  0  0 
    4.2570    0.4997   -1.6458 C   0  0  0  0  0  0  0  0  0  0  0  0 
    2.5410    0.0242   -0.0217 C   0  0  0  0  0  0  0  0  0  0  0  0 
    3.0432    1.1820   -0.9570 C   0  0  0  0  0  0  0  0  0  0  0  0 
    4.1475   -0.9124   -1.5719 N   0  0  0  0  0  0  0  0  0  0  0  0 
    2.8403   -2.4209   -0.4817 O   0  0  0  0  0  0  0  0  0  0  0  0 
    5.1502    1.0888   -2.2109 O   0  0  0  0  0  0  0  0  0  0  0  0 
    0.7396   -0.9192    0.8038 H   0  0  0  0  0  0  0  0  0  0  0  0 
    0.5270   -0.3289   -0.8547 H   0  0  0  0  0  0  0  0  0  0  0  0 
    0.5789    0.8017    0.5064 H   0  0  0  0  0  0  0  0  0  0  0  0 
    2.9168   -0.8239    1.9620 H   0  0  0  0  0  0  0  0  0  0  0  0 
    2.7381    0.9357    1.9596 H   0  0  0  0  0  0  0  0  0  0  0  0 
    4.2393    0.1893    1.3735 H   0  0  0  0  0  0  0  0  0  0  0  0 
    3.8799    3.1646   -1.0115 H   0  0  0  0  0  0  0  0  0  0  0  0 
    4.2077    2.3380    0.5075 H   0  0  0  0  0  0  0  0  0  0  0  0 
    2.5843    2.9834    0.1882 H   0  0  0  0  0  0  0  0  0  0  0  0 
    2.5188    2.1934   -2.8007 H   0  0  0  0  0  0  0  0  0  0  0  0 
    1.1436    1.9990   -1.6992 H   0  0  0  0  0  0  0  0  0  0  0  0 
    1.7368    0.6168   -2.6466 H   0  0  0  0  0  0  0  0  0  0  0  0 
    2.1028   -2.4257    0.1503 H   0  0  0  0  0  0  0  0  0  0  0  0 
  1 14  1  0  0  0  0 
  1 12  1  0  0  0  0 
  2 16  1  0  0  0  0 
  2 15  1  0  0  0  0 
  3 20  1  0  0  0  0 
  3 19  1  0  0  0  0 
  4 22  1  0  0  0  0 
  4  8  1  0  0  0  0 
  5 10  1  0  0  0  0 
  5  7  1  0  0  0  0 
  6  9  1  0  0  0  0 
  6  8  1  0  0  0  0 
  7  1  1  0  0  0  0 
  7  2  1  0  0  0  0 
  8  3  1  0  0  0  0 
  8  7  1  0  0  0  0 
  9  5  2  0  0  0  0 
 10 24  1  0  0  0  0 
 11  6  2  0  0  0  0 
 13  1  1  0  0  0  0 
 17  2  1  0  0  0  0 
 18  3  1  0  0  0  0 
 21  4  1  0  0  0  0 
 23  4  1  0  0  0  0 
M  END 
>  <HBA> 
3 
 
>  <HBD> 
1 
 
>  <TPSA> 
46.17 
 
>  <cid> 
72824 
 
>  <dipole> 
6.68 
 
>  <excitation_energy_1> 
4.203 
 
>  <excitation_energy_2> 
5.356 
 
>  <excitation_energy_3> 
5.595 
 
>  <excitation_energy_4> 
6.192 
 
>  <homo_energy> 
-6.534 
 
>  <homo_lumo_gap> 
5.679 
 
>  <logP> 
1.024 
 
>  <lumo_energy> 
-0.854 
 
>  <melting_point> 
102.02 
 
>  <molecular_refractivity> 
45.05 
 
>  <oscillator_strength_1> 
0.0006 
 
>  <oscillator_strength_2> 
0.0001 
 
>  <oscillator_strength_3> 
0.0002 
 
>  <oscillator_strength_4> 
0.0017 
 
>  <open_babel_can_smiles> 
OC1=NC(=O)C(C1(C)C)(C)C 
 
>  <mulliken_charges> 
24 
1   -0.483037 
2   -0.451086 
3   -0.459264 
4   -0.460028 
5   0.52733 
6   0.544115 
7   -0.017809 
8   -0.006885 
9   -0.46445 
10   -0.574877 
11   -0.469744 
12   0.132033 
13   0.171276 
14   0.170066 
15   0.138886 
16   0.165773 
17   0.174502 
18   0.175435 
19   0.152973 
20   0.136339 
21   0.174723 
22   0.148052 
23   0.152803 
24   0.422875 
 
>  <lowdin_charges> 
24 
1   -0.451152 
2   -0.437256 
3   -0.442942 
4   -0.439962 
5   0.147582 
6   0.158002 
7   -0.02578 
8   -0.024306 
9   -0.19515 
10   -0.315209 
11   -0.233296 
12   0.144091 
13   0.162613 
14   0.165731 
15   0.148391 
16   0.162105 
17   0.162525 
18   0.170693 
19   0.156286 
20   0.147216 
21   0.168589 
22   0.151509 
23   0.153565 
24   0.366153 
 
$$$$ 
 
