PCCDB-ID:  17155 
public computational chemistry database (PCCDB) project, http://pccdb.org 
 
 19 20  0  0  0  0  0  0  0  0999 V2000 
   -1.4359   -0.0320    0.0530 C   0  0  0  0  0  0  0  0  0  0  0  0 
   -0.7623    1.1836    0.1986 C   0  0  0  0  0  0  0  0  0  0  0  0 
   -0.7042   -1.1978   -0.1774 C   0  0  0  0  0  0  0  0  0  0  0  0 
    0.6265    1.2343    0.1139 C   0  0  0  0  0  0  0  0  0  0  0  0 
    0.6867   -1.1489   -0.2620 C   0  0  0  0  0  0  0  0  0  0  0  0 
    3.7625   -0.9332   -0.4481 C   0  0  0  0  0  0  0  0  0  0  0  0 
    5.0066   -0.3413   -0.4281 C   0  0  0  0  0  0  0  0  0  0  0  0 
    1.3733    0.0665   -0.1175 C   0  0  0  0  0  0  0  0  0  0  0  0 
    2.8428    0.1252   -0.2046 C   0  0  0  0  0  0  0  0  0  0  0  0 
    4.7921    0.9785   -0.1870 N   0  0  0  0  0  0  0  0  0  0  0  0 
    3.4898    1.2886   -0.0462 N   0  0  0  0  0  0  0  0  0  0  0  0 
   -2.5200   -0.0698    0.1190 H   0  0  0  0  0  0  0  0  0  0  0  0 
   -1.3227    2.0979    0.3765 H   0  0  0  0  0  0  0  0  0  0  0  0 
   -1.2160   -2.1499   -0.2916 H   0  0  0  0  0  0  0  0  0  0  0  0 
    1.1518    2.1769    0.2263 H   0  0  0  0  0  0  0  0  0  0  0  0 
    1.2410   -2.0658   -0.4417 H   0  0  0  0  0  0  0  0  0  0  0  0 
    3.5509   -1.9779   -0.6193 H   0  0  0  0  0  0  0  0  0  0  0  0 
    6.0002   -0.7437   -0.5650 H   0  0  0  0  0  0  0  0  0  0  0  0 
    5.4778    1.7126   -0.0963 H   0  0  0  0  0  0  0  0  0  0  0  0 
  1 12  1  0  0  0  0 
  1  2  2  0  0  0  0 
  2 13  1  0  0  0  0 
  3  1  1  0  0  0  0 
  4  2  1  0  0  0  0 
  4 15  1  0  0  0  0 
  5  3  2  0  0  0  0 
  5  8  1  0  0  0  0 
  6  7  2  0  0  0  0 
  6  9  1  0  0  0  0 
  7 10  1  0  0  0  0 
  8  4  2  0  0  0  0 
  9  8  1  0  0  0  0 
  9 11  2  0  0  0  0 
 10 19  1  0  0  0  0 
 10 11  1  0  0  0  0 
 14  3  1  0  0  0  0 
 16  5  1  0  0  0  0 
 17  6  1  0  0  0  0 
 18  7  1  0  0  0  0 
M  END 
>  <HBA> 
1 
 
>  <HBD> 
1 
 
>  <TPSA> 
28.68 
 
>  <cid> 
17155 
 
>  <dipole> 
2.43 
 
>  <excitation_energy_1> 
4.866 
 
>  <excitation_energy_2> 
4.95 
 
>  <excitation_energy_3> 
5.335 
 
>  <excitation_energy_4> 
5.53 
 
>  <homo_energy> 
-5.812 
 
>  <homo_lumo_gap> 
5.404 
 
>  <logP> 
2.077 
 
>  <lumo_energy> 
-0.408 
 
>  <melting_point> 
103.37 
 
>  <molecular_refractivity> 
44.02 
 
>  <oscillator_strength_1> 
0.0318 
 
>  <oscillator_strength_2> 
0.3545 
 
>  <oscillator_strength_3> 
0.0015 
 
>  <oscillator_strength_4> 
0.0063 
 
>  <open_babel_can_smiles> 
c1ccc(cc1)c1n[nH]cc1 
 
>  <mulliken_charges> 
19 
1   -0.126611 
2   -0.133631 
3   -0.138356 
4   -0.174981 
5   -0.1833 
6   -0.262638 
7   0.083057 
8   0.125184 
9   0.261187 
10   -0.386036 
11   -0.361303 
12   0.125682 
13   0.127438 
14   0.126082 
15   0.153221 
16   0.122594 
17   0.138638 
18   0.159329 
19   0.344443 
 
>  <lowdin_charges> 
19 
1   -0.157645 
2   -0.156316 
3   -0.157316 
4   -0.151098 
5   -0.162695 
6   -0.230891 
7   -0.134482 
8   -0.002626 
9   0.004672 
10   -0.116461 
11   -0.16395 
12   0.154079 
13   0.157061 
14   0.156064 
15   0.170791 
16   0.155102 
17   0.167038 
18   0.171235 
19   0.29744 
 
$$$$ 
 
