PCCDB-ID:  15144 
public computational chemistry database (PCCDB) project, http://pccdb.org 
 
 24 24  0  0  1  0  0  0  0  0999 V2000 
    0.9951    1.0296   -0.9963 C   0  0  0  0  0  0  0  0  0  0  0  0 
    1.9279   -0.0583   -0.4431 C   0  0  0  0  0  0  0  0  0  0  0  0 
   -0.2786    1.1536   -0.1441 C   0  0  0  0  0  0  0  0  0  0  0  0 
   -2.2319   -0.1366    0.9045 C   0  0  0  0  0  0  0  0  0  0  0  0 
    1.1697   -1.3821   -0.2626 C   0  0  0  0  0  0  0  0  0  0  0  0 
   -3.0239   -1.4506    0.9624 C   0  0  0  0  0  0  0  0  0  0  0  0 
   -0.9759   -0.2098    0.0240 C   0  0  2  0  0  0  0  0  0  0  0  0 
   -0.0557   -1.2508    0.5429 N   0  0  0  0  0  0  0  0  0  0  0  0 
   -2.3224   -2.4958    1.6084 O   0  0  0  0  0  0  0  0  0  0  0  0 
    0.7130    0.7710   -2.0277 H   0  0  0  0  0  0  0  0  0  0  0  0 
    1.5161    1.9935   -1.0493 H   0  0  0  0  0  0  0  0  0  0  0  0 
    2.3311    0.2607    0.5296 H   0  0  0  0  0  0  0  0  0  0  0  0 
    2.7888   -0.2053   -1.1083 H   0  0  0  0  0  0  0  0  0  0  0  0 
   -0.9729    1.8739   -0.5966 H   0  0  0  0  0  0  0  0  0  0  0  0 
   -0.0224    1.5464    0.8520 H   0  0  0  0  0  0  0  0  0  0  0  0 
   -1.9485    0.1526    1.9274 H   0  0  0  0  0  0  0  0  0  0  0  0 
   -2.8815    0.6610    0.5183 H   0  0  0  0  0  0  0  0  0  0  0  0 
    1.8065   -2.1402    0.2075 H   0  0  0  0  0  0  0  0  0  0  0  0 
    0.8749   -1.7773   -1.2442 H   0  0  0  0  0  0  0  0  0  0  0  0 
   -3.3182   -1.7355   -0.0651 H   0  0  0  0  0  0  0  0  0  0  0  0 
   -3.9515   -1.2961    1.5263 H   0  0  0  0  0  0  0  0  0  0  0  0 
   -1.2816   -0.5577   -0.9759 H   0  0  0  0  0  0  0  0  0  0  0  0 
    0.2062   -0.9915    1.4967 H   0  0  0  0  0  0  0  0  0  0  0  0 
   -1.4357   -2.5011    1.1886 H   0  0  0  0  0  0  0  0  0  0  0  0 
  1  2  1  0  0  0  0 
  1  3  1  0  0  0  0 
  2  5  1  0  0  0  0 
  2 12  1  0  0  0  0 
  3  7  1  0  0  0  0 
  3 15  1  0  0  0  0 
  4  6  1  0  0  0  0 
  4 16  1  0  0  0  0 
  5 18  1  0  0  0  0 
  5  8  1  0  0  0  0 
  6 21  1  0  0  0  0 
  6  9  1  0  0  0  0 
  7 22  1  6  0  0  0 
  7  8  1  0  0  0  0 
  7  4  1  0  0  0  0 
  8 23  1  0  0  0  0 
 10  1  1  0  0  0  0 
 11  1  1  0  0  0  0 
 13  2  1  0  0  0  0 
 14  3  1  0  0  0  0 
 17  4  1  0  0  0  0 
 19  5  1  0  0  0  0 
 20  6  1  0  0  0  0 
 24  9  1  0  0  0  0 
M  END 
>  <HBA> 
2 
 
>  <HBD> 
2 
 
>  <TPSA> 
32.26 
 
>  <cid> 
15144 
 
>  <dipole> 
3.44 
 
>  <excitation_energy_1> 
5.665 
 
>  <excitation_energy_2> 
5.808 
 
>  <excitation_energy_3> 
6.156 
 
>  <excitation_energy_4> 
6.267 
 
>  <homo_energy> 
-6.174 
 
>  <homo_lumo_gap> 
8.185 
 
>  <logP> 
0.84 
 
>  <lumo_energy> 
2.011 
 
>  <melting_point> 
41.15 
 
>  <molecular_refractivity> 
41.53 
 
>  <oscillator_strength_1> 
0.0134 
 
>  <oscillator_strength_2> 
0.0151 
 
>  <oscillator_strength_3> 
0.0181 
 
>  <oscillator_strength_4> 
0.0064 
 
>  <open_babel_can_smiles> 
OCC[C@H]1CCCCN1 
 
>  <mulliken_charges> 
24 
1   -0.264413 
2   -0.265215 
3   -0.260482 
4   -0.291117 
5   -0.140558 
6   -0.013194 
7   0.032819 
8   -0.572949 
9   -0.646201 
10   0.131952 
11   0.137377 
12   0.128545 
13   0.135665 
14   0.133503 
15   0.125055 
16   0.133552 
17   0.130507 
18   0.145083 
19   0.144495 
20   0.104936 
21   0.132978 
22   0.129472 
23   0.300077 
24   0.408112 
 
>  <lowdin_charges> 
24 
1   -0.27816 
2   -0.293219 
3   -0.292764 
4   -0.300608 
5   -0.210926 
6   -0.129383 
7   -0.069841 
8   -0.350581 
9   -0.495113 
10   0.138649 
11   0.14648 
12   0.137665 
13   0.148318 
14   0.148009 
15   0.136997 
16   0.142182 
17   0.149788 
18   0.150098 
19   0.143324 
20   0.115849 
21   0.141008 
22   0.136007 
23   0.253046 
24   0.333174 
 
$$$$ 
 
