PCCDB-ID:  67105 
public computational chemistry database (PCCDB) project, http://pccdb.org 
 
 24 23  0  0  0  0  0  0  0  0999 V2000 
    1.0124   -0.1844   -0.1196 C   0  0  0  0  0  0  0  0  0  0  0  0 
    8.4371    2.5701    3.3600 C   0  0  0  0  0  0  0  0  0  0  0  0 
    2.5390   -0.1516   -0.1101 C   0  0  0  0  0  0  0  0  0  0  0  0 
    6.9106    2.5738    3.3228 C   0  0  0  0  0  0  0  0  0  0  0  0 
    4.4957    0.7343    1.0543 C   0  0  0  0  0  0  0  0  0  0  0  0 
    4.9532    1.6417    2.1961 C   0  0  0  0  0  0  0  0  0  0  0  0 
    3.0395    0.6897    0.9750 N   0  0  0  0  0  0  0  0  0  0  0  0 
    6.4095    1.7077    2.2577 N   0  0  0  0  0  0  0  0  0  0  0  0 
    0.6397   -0.7814   -0.9592 H   0  0  0  0  0  0  0  0  0  0  0  0 
    0.6071    0.8292   -0.2027 H   0  0  0  0  0  0  0  0  0  0  0  0 
    0.6201   -0.6308    0.8034 H   0  0  0  0  0  0  0  0  0  0  0  0 
    8.8110    3.2535    4.1303 H   0  0  0  0  0  0  0  0  0  0  0  0 
    8.8455    2.8759    2.3914 H   0  0  0  0  0  0  0  0  0  0  0  0 
    8.8249    1.5691    3.5896 H   0  0  0  0  0  0  0  0  0  0  0  0 
    2.9042    0.2733   -1.0546 H   0  0  0  0  0  0  0  0  0  0  0  0 
    2.9334   -1.1867   -0.0649 H   0  0  0  0  0  0  0  0  0  0  0  0 
    6.5495    3.5911    3.1207 H   0  0  0  0  0  0  0  0  0  0  0  0 
    6.5132    2.2980    4.3203 H   0  0  0  0  0  0  0  0  0  0  0  0 
    4.9518   -0.2710    1.1775 H   0  0  0  0  0  0  0  0  0  0  0  0 
    4.8839    1.1346    0.1102 H   0  0  0  0  0  0  0  0  0  0  0  0 
    4.4971    1.2953    3.1478 H   0  0  0  0  0  0  0  0  0  0  0  0 
    4.5653    2.6520    2.0190 H   0  0  0  0  0  0  0  0  0  0  0  0 
    2.6712    0.3357    1.8584 H   0  0  0  0  0  0  0  0  0  0  0  0 
    6.7767    0.7668    2.4032 H   0  0  0  0  0  0  0  0  0  0  0  0 
  1  3  1  0  0  0  0 
  1 11  1  0  0  0  0 
  2 14  1  0  0  0  0 
  2 12  1  0  0  0  0 
  3 16  1  0  0  0  0 
  3  7  1  0  0  0  0 
  4  2  1  0  0  0  0 
  4 18  1  0  0  0  0 
  5 19  1  0  0  0  0 
  5  6  1  0  0  0  0 
  6  8  1  0  0  0  0 
  6 21  1  0  0  0  0 
  7  5  1  0  0  0  0 
  7 23  1  0  0  0  0 
  8 24  1  0  0  0  0 
  8  4  1  0  0  0  0 
  9  1  1  0  0  0  0 
 10  1  1  0  0  0  0 
 13  2  1  0  0  0  0 
 15  3  1  0  0  0  0 
 17  4  1  0  0  0  0 
 20  5  1  0  0  0  0 
 22  6  1  0  0  0  0 
M  END 
>  <HBA> 
2 
 
>  <HBD> 
2 
 
>  <TPSA> 
24.06 
 
>  <cid> 
67105 
 
>  <dipole> 
1.58 
 
>  <excitation_energy_1> 
5.377 
 
>  <excitation_energy_2> 
5.522 
 
>  <excitation_energy_3> 
5.839 
 
>  <excitation_energy_4> 
5.93 
 
>  <homo_energy> 
-5.799 
 
>  <homo_lumo_gap> 
8.115 
 
>  <logP> 
0.987 
 
>  <lumo_energy> 
2.316 
 
>  <melting_point> 
27.8 
 
>  <molecular_refractivity> 
36.56 
 
>  <oscillator_strength_1> 
0.0027 
 
>  <oscillator_strength_2> 
0.0031 
 
>  <oscillator_strength_3> 
0.0626 
 
>  <oscillator_strength_4> 
0.03 
 
>  <open_babel_can_smiles> 
CCNCCNCC 
 
>  <mulliken_charges> 
24 
1   -0.450694 
2   -0.450994 
3   -0.103677 
4   -0.103558 
5   -0.118251 
6   -0.118559 
7   -0.552978 
8   -0.552876 
9   0.143564 
10   0.159479 
11   0.136787 
12   0.14365 
13   0.159516 
14   0.136819 
15   0.140568 
16   0.10773 
17   0.140594 
18   0.107698 
19   0.098627 
20   0.15322 
21   0.098692 
22   0.153279 
23   0.285704 
24   0.285661 
 
>  <lowdin_charges> 
24 
1   -0.448851 
2   -0.44879 
3   -0.19527 
4   -0.194938 
5   -0.203515 
6   -0.203583 
7   -0.364319 
8   -0.363183 
9   0.153169 
10   0.155689 
11   0.144408 
12   0.153389 
13   0.156257 
14   0.143571 
15   0.141501 
16   0.112255 
17   0.140477 
18   0.112833 
19   0.10856 
20   0.149126 
21   0.109272 
22   0.148333 
23   0.247331 
24   0.246276 
 
$$$$ 
 
