PCCDB-ID:  8003 
public computational chemistry database (PCCDB) project, http://pccdb.org 
 
 17 16  0  0  0  0  0  0  0  0999 V2000 
    1.0181   -0.0242    0.1296 C   0  0  0  0  0  0  0  0  0  0  0  0 
    5.1908    2.8506   -0.6183 C   0  0  0  0  0  0  0  0  0  0  0  0 
    2.5492    0.0208    0.0986 C   0  0  0  0  0  0  0  0  0  0  0  0 
    4.6410    1.4612   -0.2799 C   0  0  0  0  0  0  0  0  0  0  0  0 
    3.1084    1.4073   -0.2448 C   0  0  0  0  0  0  0  0  0  0  0  0 
    0.6511   -1.0263    0.3794 H   0  0  0  0  0  0  0  0  0  0  0  0 
    0.5937    0.2529   -0.8434 H   0  0  0  0  0  0  0  0  0  0  0  0 
    0.6159    0.6731    0.8750 H   0  0  0  0  0  0  0  0  0  0  0  0 
    6.2867    2.8543   -0.6391 H   0  0  0  0  0  0  0  0  0  0  0  0 
    4.8693    3.5948    0.1209 H   0  0  0  0  0  0  0  0  0  0  0  0 
    4.8381    3.1886   -1.6006 H   0  0  0  0  0  0  0  0  0  0  0  0 
    2.9221   -0.7106   -0.6326 H   0  0  0  0  0  0  0  0  0  0  0  0 
    2.9445   -0.2973    1.0740 H   0  0  0  0  0  0  0  0  0  0  0  0 
    5.0365    1.1385    0.6938 H   0  0  0  0  0  0  0  0  0  0  0  0 
    5.0119    0.7319   -1.0143 H   0  0  0  0  0  0  0  0  0  0  0  0 
    2.7360    2.1400    0.4870 H   0  0  0  0  0  0  0  0  0  0  0  0 
    2.7119    1.7267   -1.2206 H   0  0  0  0  0  0  0  0  0  0  0  0 
  1  6  1  0  0  0  0 
  1  8  1  0  0  0  0 
  2  4  1  0  0  0  0 
  2 10  1  0  0  0  0 
  3  1  1  0  0  0  0 
  3 13  1  0  0  0  0 
  4  5  1  0  0  0  0 
  4 14  1  0  0  0  0 
  5  3  1  0  0  0  0 
  5 16  1  0  0  0  0 
  7  1  1  0  0  0  0 
  9  2  1  0  0  0  0 
 11  2  1  0  0  0  0 
 12  3  1  0  0  0  0 
 15  4  1  0  0  0  0 
 17  5  1  0  0  0  0 
M  END 
>  <HBA> 
0 
 
>  <HBD> 
0 
 
>  <TPSA> 
0.0 
 
>  <cid> 
8003 
 
>  <dipole> 
0.05 
 
>  <excitation_energy_1> 
8.24 
 
>  <excitation_energy_2> 
8.381 
 
>  <excitation_energy_3> 
8.406 
 
>  <excitation_energy_4> 
8.523 
 
>  <homo_energy> 
-8.457 
 
>  <homo_lumo_gap> 
11.004 
 
>  <logP> 
2.196 
 
>  <lumo_energy> 
2.547 
 
>  <melting_point> 
-25.9 
 
>  <molecular_refractivity> 
26.15 
 
>  <oscillator_strength_1> 
0.0362 
 
>  <oscillator_strength_2> 
0.0001 
 
>  <oscillator_strength_3> 
0.0003 
 
>  <oscillator_strength_4> 
0.0 
 
>  <open_babel_can_smiles> 
CCCCC 
 
>  <mulliken_charges> 
17 
1   -0.441359 
2   -0.441343 
3   -0.246665 
4   -0.246634 
5   -0.238725 
6   0.140975 
7   0.140904 
8   0.14089 
9   0.140963 
10   0.140912 
11   0.140877 
12   0.129563 
13   0.129553 
14   0.129539 
15   0.129558 
16   0.125496 
17   0.125497 
 
>  <lowdin_charges> 
17 
1   -0.44504 
2   -0.442963 
3   -0.273075 
4   -0.273252 
5   -0.275846 
6   0.148305 
7   0.145803 
8   0.14705 
9   0.146738 
10   0.146868 
11   0.14564 
12   0.139517 
13   0.13824 
14   0.138264 
15   0.139509 
16   0.137744 
17   0.136496 
 
$$$$ 
 
