PCCDB-ID:  70610 
public computational chemistry database (PCCDB) project, http://pccdb.org 
 
 20 19  0  0  0  0  0  0  0  0999 V2000 
    2.4275   -2.7729   -2.2703 C   0  0  0  0  0  0  0  0  0  0  0  0 
    3.2096   -2.9166   -0.9749 C   0  0  0  0  0  0  0  0  0  0  0  0 
    5.4463    1.3207    0.2207 C   0  0  0  0  0  0  0  0  0  0  0  0 
    5.4496    0.0406   -0.6384 C   0  0  0  0  0  0  0  0  0  0  0  0 
    4.6907    2.5121   -0.3806 C   0  0  0  0  0  0  0  0  0  0  0  0 
    4.1742   -0.7738   -0.5541 C   0  0  0  0  0  0  0  0  0  0  0  0 
    5.2423    3.5480   -0.6704 O   0  0  0  0  0  0  0  0  0  0  0  0 
    3.3678    2.3483   -0.5640 O   0  0  0  0  0  0  0  0  0  0  0  0 
    3.0956   -0.3474   -0.1641 O   0  0  0  0  0  0  0  0  0  0  0  0 
    4.3666   -2.0320   -0.9586 O   0  0  0  0  0  0  0  0  0  0  0  0 
    1.6106   -3.5031   -2.2884 H   0  0  0  0  0  0  0  0  0  0  0  0 
    3.0705   -2.9558   -3.1369 H   0  0  0  0  0  0  0  0  0  0  0  0 
    1.9924   -1.7731   -2.3543 H   0  0  0  0  0  0  0  0  0  0  0  0 
    3.6434   -3.9134   -0.8727 H   0  0  0  0  0  0  0  0  0  0  0  0 
    2.5909   -2.6956   -0.1027 H   0  0  0  0  0  0  0  0  0  0  0  0 
    6.4756    1.6559    0.3596 H   0  0  0  0  0  0  0  0  0  0  0  0 
    5.0317    1.0945    1.2113 H   0  0  0  0  0  0  0  0  0  0  0  0 
    6.2787   -0.6107   -0.3438 H   0  0  0  0  0  0  0  0  0  0  0  0 
    5.6227    0.2813   -1.6962 H   0  0  0  0  0  0  0  0  0  0  0  0 
    3.0983    1.4392   -0.2968 H   0  0  0  0  0  0  0  0  0  0  0  0 
  1  2  1  0  0  0  0 
  2 10  1  0  0  0  0 
  2 14  1  0  0  0  0 
  2 15  1  0  0  0  0 
  3 16  1  0  0  0  0 
  3 17  1  0  0  0  0 
  4  6  1  0  0  0  0 
  4 18  1  0  0  0  0 
  4  3  1  0  0  0  0 
  5  3  1  0  0  0  0 
  6  9  2  0  0  0  0 
  7  5  2  0  0  0  0 
  8  5  1  0  0  0  0 
  8 20  1  0  0  0  0 
 10  6  1  0  0  0  0 
 11  1  1  0  0  0  0 
 12  1  1  0  0  0  0 
 13  1  1  0  0  0  0 
 19  4  1  0  0  0  0 
M  END 
>  <HBA> 
4 
 
>  <HBD> 
1 
 
>  <TPSA> 
63.6 
 
>  <cid> 
70610 
 
>  <dipole> 
6.55 
 
>  <excitation_energy_1> 
5.558 
 
>  <excitation_energy_2> 
5.696 
 
>  <excitation_energy_3> 
5.977 
 
>  <excitation_energy_4> 
6.522 
 
>  <homo_energy> 
-6.912 
 
>  <homo_lumo_gap> 
6.357 
 
>  <logP> 
0.414 
 
>  <lumo_energy> 
-0.555 
 
>  <melting_point> 
63.04 
 
>  <molecular_refractivity> 
34.01 
 
>  <oscillator_strength_1> 
0.0013 
 
>  <oscillator_strength_2> 
0.002 
 
>  <oscillator_strength_3> 
0.0009 
 
>  <oscillator_strength_4> 
0.006 
 
>  <open_babel_can_smiles> 
CCOC(=O)CCC(=O)O 
 
>  <mulliken_charges> 
20 
1   -0.465687 
2   -0.053673 
3   -0.378971 
4   -0.376208 
5   0.576263 
6   0.644853 
7   -0.448612 
8   -0.588284 
9   -0.507048 
10   -0.446623 
11   0.160942 
12   0.165181 
13   0.179414 
14   0.16497 
15   0.179453 
16   0.18264 
17   0.175121 
18   0.190236 
19   0.203447 
20   0.442585 
 
>  <lowdin_charges> 
20 
1   -0.454396 
2   -0.125848 
3   -0.313202 
4   -0.299331 
5   0.186511 
6   0.211395 
7   -0.255607 
8   -0.369143 
9   -0.28765 
10   -0.174237 
11   0.165449 
12   0.160948 
13   0.166484 
14   0.15838 
15   0.163678 
16   0.176664 
17   0.167827 
18   0.180743 
19   0.183256 
20   0.358079 
 
$$$$ 
 
