PCCDB-ID:  13043 
public computational chemistry database (PCCDB) project, http://pccdb.org 
 
 26 27  0  0  0  0  0  0  0  0999 V2000 
   -1.4807    0.0657    0.1266 C   0  0  0  0  0  0  0  0  0  0  0  0 
    5.6306    0.3013   -0.8853 C   0  0  0  0  0  0  0  0  0  0  0  0 
   -0.7035   -0.9353    0.7112 C   0  0  0  0  0  0  0  0  0  0  0  0 
   -0.8523    1.0980   -0.5723 C   0  0  0  0  0  0  0  0  0  0  0  0 
    4.9624    1.5382   -0.2692 C   0  0  0  0  0  0  0  0  0  0  0  0 
    5.0879   -0.9754   -0.2345 C   0  0  0  0  0  0  0  0  0  0  0  0 
    0.6863   -0.9039    0.5995 C   0  0  0  0  0  0  0  0  0  0  0  0 
    0.5368    1.1273   -0.6824 C   0  0  0  0  0  0  0  0  0  0  0  0 
    3.4742    1.3648   -0.1008 C   0  0  0  0  0  0  0  0  0  0  0  0 
    3.5737   -1.1041   -0.4553 C   0  0  0  0  0  0  0  0  0  0  0  0 
    1.3379    0.1337   -0.0905 C   0  0  0  0  0  0  0  0  0  0  0  0 
    2.8217    0.1922   -0.1997 C   0  0  0  0  0  0  0  0  0  0  0  0 
   -2.5640    0.0377    0.2086 H   0  0  0  0  0  0  0  0  0  0  0  0 
    6.7200    0.3630   -0.7749 H   0  0  0  0  0  0  0  0  0  0  0  0 
    5.4219    0.2731   -1.9639 H   0  0  0  0  0  0  0  0  0  0  0  0 
   -1.1795   -1.7436    1.2605 H   0  0  0  0  0  0  0  0  0  0  0  0 
   -1.4456    1.8765   -1.0452 H   0  0  0  0  0  0  0  0  0  0  0  0 
    5.1591    2.4257   -0.8874 H   0  0  0  0  0  0  0  0  0  0  0  0 
    5.4159    1.7613    0.7104 H   0  0  0  0  0  0  0  0  0  0  0  0 
    5.2972   -0.9461    0.8442 H   0  0  0  0  0  0  0  0  0  0  0  0 
    5.5975   -1.8622   -0.6308 H   0  0  0  0  0  0  0  0  0  0  0  0 
    1.2700   -1.6855    1.0774 H   0  0  0  0  0  0  0  0  0  0  0  0 
    1.0154    1.9176   -1.2536 H   0  0  0  0  0  0  0  0  0  0  0  0 
    2.9055    2.2651    0.1280 H   0  0  0  0  0  0  0  0  0  0  0  0 
    3.1777   -1.9035    0.1827 H   0  0  0  0  0  0  0  0  0  0  0  0 
    3.3705   -1.4318   -1.4868 H   0  0  0  0  0  0  0  0  0  0  0  0 
  1 13  1  0  0  0  0 
  1  3  2  0  0  0  0 
  2 14  1  0  0  0  0 
  2  5  1  0  0  0  0 
  2  6  1  0  0  0  0 
  3 16  1  0  0  0  0 
  4  1  1  0  0  0  0 
  5  9  1  0  0  0  0 
  5 19  1  0  0  0  0 
  6 20  1  0  0  0  0 
  7  3  1  0  0  0  0 
  7 22  1  0  0  0  0 
  8  4  2  0  0  0  0 
  8 11  1  0  0  0  0 
  9 24  1  0  0  0  0 
 10  6  1  0  0  0  0 
 10 12  1  0  0  0  0 
 10 25  1  0  0  0  0 
 11  7  2  0  0  0  0 
 12  9  2  0  0  0  0 
 12 11  1  0  0  0  0 
 15  2  1  0  0  0  0 
 17  4  1  0  0  0  0 
 18  5  1  0  0  0  0 
 21  6  1  0  0  0  0 
 23  8  1  0  0  0  0 
 26 10  1  0  0  0  0 
M  END 
>  <HBA> 
0 
 
>  <HBD> 
0 
 
>  <TPSA> 
0.0 
 
>  <cid> 
13043 
 
>  <dipole> 
0.45 
 
>  <excitation_energy_1> 
4.857 
 
>  <excitation_energy_2> 
4.958 
 
>  <excitation_energy_3> 
5.341 
 
>  <excitation_energy_4> 
5.649 
 
>  <homo_energy> 
-5.818 
 
>  <homo_lumo_gap> 
5.478 
 
>  <logP> 
3.644 
 
>  <lumo_energy> 
-0.34 
 
>  <melting_point> 
39.27 
 
>  <molecular_refractivity> 
53.65 
 
>  <oscillator_strength_1> 
0.0557 
 
>  <oscillator_strength_2> 
0.2761 
 
>  <oscillator_strength_3> 
0.0027 
 
>  <oscillator_strength_4> 
0.0505 
 
>  <open_babel_can_smiles> 
C1CCC(=CC1)c1ccccc1 
 
>  <mulliken_charges> 
26 
1   -0.128585 
2   -0.262759 
3   -0.132103 
4   -0.132936 
5   -0.296407 
6   -0.263642 
7   -0.183274 
8   -0.175184 
9   -0.168674 
10   -0.328742 
11   0.105825 
12   0.095402 
13   0.126765 
14   0.130875 
15   0.135813 
16   0.127128 
17   0.127231 
18   0.140502 
19   0.144501 
20   0.135884 
21   0.130991 
22   0.126675 
23   0.128001 
24   0.123075 
25   0.143901 
26   0.149737 
 
>  <lowdin_charges> 
26 
1   -0.158403 
2   -0.271661 
3   -0.157419 
4   -0.158085 
5   -0.275748 
6   -0.274359 
7   -0.166112 
8   -0.162598 
9   -0.181703 
10   -0.275965 
11   -0.000343 
12   -0.021203 
13   0.154467 
14   0.141922 
15   0.139709 
16   0.157263 
17   0.157721 
18   0.150213 
19   0.147919 
20   0.139632 
21   0.144903 
22   0.156623 
23   0.159164 
24   0.15302 
25   0.151324 
26   0.149722 
 
$$$$ 
 
