PCCDB-ID:  29397 
public computational chemistry database (PCCDB) project, http://pccdb.org 
 
 15 14  0  0  0  0  0  0  0  0999 V2000 
    1.1882   -0.0814   -0.3513 C   0  0  0  0  0  0  0  0  0  0  0  0 
    2.6986   -0.1737   -0.2463 C   0  0  0  0  0  0  0  0  0  0  0  0 
    5.4780    0.2909    0.3091 C   0  0  0  0  0  0  0  0  0  0  0  0 
    6.8515    0.6438    0.6510 C   0  0  0  0  0  0  0  0  0  0  0  0 
    4.4751    1.1225    0.6659 C   0  0  0  0  0  0  0  0  0  0  0  0 
    7.8320   -0.0274    0.3768 O   0  0  0  0  0  0  0  0  0  0  0  0 
    3.1608    0.9956    0.4544 O   0  0  0  0  0  0  0  0  0  0  0  0 
    0.7980   -0.9601   -0.8754 H   0  0  0  0  0  0  0  0  0  0  0  0 
    0.8917    0.8136   -0.9068 H   0  0  0  0  0  0  0  0  0  0  0  0 
    0.7323   -0.0398    0.6427 H   0  0  0  0  0  0  0  0  0  0  0  0 
    3.1719   -0.2034   -1.2361 H   0  0  0  0  0  0  0  0  0  0  0  0 
    3.0116   -1.0670    0.3092 H   0  0  0  0  0  0  0  0  0  0  0  0 
    5.3219   -0.6392   -0.2264 H   0  0  0  0  0  0  0  0  0  0  0  0 
    6.9609    1.6070    1.2030 H   0  0  0  0  0  0  0  0  0  0  0  0 
    4.6825    2.0462    1.2033 H   0  0  0  0  0  0  0  0  0  0  0  0 
  1  2  1  0  0  0  0 
  1 10  1  0  0  0  0 
  2 12  1  0  0  0  0 
  2  7  1  0  0  0  0 
  3  4  1  0  0  0  0 
  3  5  2  0  0  0  0 
  4 14  1  0  0  0  0 
  5 15  1  0  0  0  0 
  6  4  2  0  0  0  0 
  7  5  1  0  0  0  0 
  8  1  1  0  0  0  0 
  9  1  1  0  0  0  0 
 11  2  1  0  0  0  0 
 13  3  1  0  0  0  0 
M  END 
>  <HBA> 
2 
 
>  <HBD> 
0 
 
>  <TPSA> 
26.3 
 
>  <cid> 
29397 
 
>  <dipole> 
4.38 
 
>  <excitation_energy_1> 
3.959 
 
>  <excitation_energy_2> 
5.706 
 
>  <excitation_energy_3> 
6.407 
 
>  <excitation_energy_4> 
6.43 
 
>  <homo_energy> 
-6.539 
 
>  <homo_lumo_gap> 
5.513 
 
>  <logP> 
0.736 
 
>  <lumo_energy> 
-1.026 
 
>  <melting_point> 
6.67 
 
>  <molecular_refractivity> 
26.96 
 
>  <oscillator_strength_1> 
0.0001 
 
>  <oscillator_strength_2> 
0.4922 
 
>  <oscillator_strength_3> 
0.0256 
 
>  <oscillator_strength_4> 
0.0228 
 
>  <open_babel_can_smiles> 
CCO/C=C/C=O 
 
>  <mulliken_charges> 
15 
1   -0.459469 
2   -0.043438 
3   -0.214812 
4   0.231834 
5   0.144363 
6   -0.436215 
7   -0.432841 
8   0.157926 
9   0.16854 
10   0.168646 
11   0.157901 
12   0.157879 
13   0.149758 
14   0.088416 
15   0.161514 
 
>  <lowdin_charges> 
15 
1   -0.447668 
2   -0.123976 
3   -0.274514 
4   0.042011 
5   -0.006537 
6   -0.251642 
7   -0.168834 
8   0.163308 
9   0.163226 
10   0.162415 
11   0.148175 
12   0.149276 
13   0.171551 
14   0.106693 
15   0.166516 
 
$$$$ 
 
