PCCDB-ID:  42079 
public computational chemistry database (PCCDB) project, http://pccdb.org 
 
 39 39  0  0  0  0  0  0  0  0999 V2000 
    3.1937    1.6579    1.3904 C   0  0  0  0  0  0  0  0  0  0  0  0 
   -0.6053   -1.9295   -2.5173 C   0  0  0  0  0  0  0  0  0  0  0  0 
   -0.3853   -5.7071   -2.5280 C   0  0  0  0  0  0  0  0  0  0  0  0 
    3.9729    0.7751    2.3817 C   0  0  0  0  0  0  0  0  0  0  0  0 
   -1.0615   -2.9340   -1.4497 C   0  0  0  0  0  0  0  0  0  0  0  0 
    0.6004   -4.7428   -1.8707 C   0  0  0  0  0  0  0  0  0  0  0  0 
    5.5695   -2.2506    0.6844 C   0  0  0  0  0  0  0  0  0  0  0  0 
    5.3791   -0.9581    1.1762 C   0  0  0  0  0  0  0  0  0  0  0  0 
    4.5969   -3.2313    0.8673 C   0  0  0  0  0  0  0  0  0  0  0  0 
    3.2296   -1.6198    2.0421 C   0  0  0  0  0  0  0  0  0  0  0  0 
    0.9849   -3.1363   -0.0876 C   0  0  0  0  0  0  0  0  0  0  0  0 
    4.2042   -0.6307    1.8652 C   0  0  0  0  0  0  0  0  0  0  0  0 
    3.4042   -2.9203    1.5418 C   0  0  0  0  0  0  0  0  0  0  0  0 
    1.4007   -4.0269    1.0967 C   0  0  0  0  0  0  0  0  0  0  0  0 
    2.4560   -3.9281    1.7966 N   0  0  0  0  0  0  0  0  0  0  0  0 
   -0.0259   -3.8255   -0.8989 N   0  0  0  0  0  0  0  0  0  0  0  0 
    0.4973   -4.9809    1.3807 O   0  0  0  0  0  0  0  0  0  0  0  0 
    3.0473    2.6671    1.7929 H   0  0  0  0  0  0  0  0  0  0  0  0 
    2.2067    1.2314    1.1773 H   0  0  0  0  0  0  0  0  0  0  0  0 
    3.7300    1.7453    0.4386 H   0  0  0  0  0  0  0  0  0  0  0  0 
   -1.4512   -1.3040   -2.8243 H   0  0  0  0  0  0  0  0  0  0  0  0 
   -0.2227   -2.4292   -3.4137 H   0  0  0  0  0  0  0  0  0  0  0  0 
    0.1802   -1.2645   -2.1406 H   0  0  0  0  0  0  0  0  0  0  0  0 
    0.1627   -6.4362   -3.1342 H   0  0  0  0  0  0  0  0  0  0  0  0 
   -1.0924   -5.1968   -3.1905 H   0  0  0  0  0  0  0  0  0  0  0  0 
   -0.9589   -6.2550   -1.7722 H   0  0  0  0  0  0  0  0  0  0  0  0 
    3.4258    0.7331    3.3322 H   0  0  0  0  0  0  0  0  0  0  0  0 
    4.9390    1.2476    2.5991 H   0  0  0  0  0  0  0  0  0  0  0  0 
   -1.8616   -3.5624   -1.8542 H   0  0  0  0  0  0  0  0  0  0  0  0 
   -1.4982   -2.3943   -0.6011 H   0  0  0  0  0  0  0  0  0  0  0  0 
    1.1568   -4.1858   -2.6437 H   0  0  0  0  0  0  0  0  0  0  0  0 
    1.3446   -5.3244   -1.3147 H   0  0  0  0  0  0  0  0  0  0  0  0 
    6.4895   -2.5000    0.1611 H   0  0  0  0  0  0  0  0  0  0  0  0 
    6.1499   -0.2034    1.0370 H   0  0  0  0  0  0  0  0  0  0  0  0 
    4.7489   -4.2442    0.5059 H   0  0  0  0  0  0  0  0  0  0  0  0 
    2.3222   -1.3942    2.5987 H   0  0  0  0  0  0  0  0  0  0  0  0 
    1.8783   -2.8400   -0.6533 H   0  0  0  0  0  0  0  0  0  0  0  0 
    0.5478   -2.2168    0.3176 H   0  0  0  0  0  0  0  0  0  0  0  0 
   -0.1814   -4.8830    0.6660 H   0  0  0  0  0  0  0  0  0  0  0  0 
  1 18  1  0  0  0  0 
  1  4  1  0  0  0  0 
  2 23  1  0  0  0  0 
  2  5  1  0  0  0  0 
  3  6  1  0  0  0  0 
  3 26  1  0  0  0  0 
  4 28  1  0  0  0  0 
  4 27  1  0  0  0  0 
  5 16  1  0  0  0  0 
  5 30  1  0  0  0  0 
  6 32  1  0  0  0  0 
  6 16  1  0  0  0  0 
  7  9  2  0  0  0  0 
  7  8  1  0  0  0  0 
  8 12  2  0  0  0  0 
  9 13  1  0  0  0  0 
 10 36  1  0  0  0  0 
 11 38  1  0  0  0  0 
 11 14  1  0  0  0  0 
 12 10  1  0  0  0  0 
 12  4  1  0  0  0  0 
 13 15  1  0  0  0  0 
 13 10  2  0  0  0  0 
 14 17  1  0  0  0  0 
 14 15  2  0  0  0  0 
 16 11  1  0  0  0  0 
 19  1  1  0  0  0  0 
 20  1  1  0  0  0  0 
 21  2  1  0  0  0  0 
 22  2  1  0  0  0  0 
 24  3  1  0  0  0  0 
 25  3  1  0  0  0  0 
 29  5  1  0  0  0  0 
 31  6  1  0  0  0  0 
 33  7  1  0  0  0  0 
 34  8  1  0  0  0  0 
 35  9  1  0  0  0  0 
 37 11  1  0  0  0  0 
 39 17  1  0  0  0  0 
M  END 
>  <HBA> 
3 
 
>  <HBD> 
1 
 
>  <TPSA> 
32.34 
 
>  <cid> 
42079 
 
>  <dipole> 
5.3 
 
>  <excitation_energy_1> 
4.668 
 
>  <excitation_energy_2> 
4.895 
 
>  <excitation_energy_3> 
5.039 
 
>  <excitation_energy_4> 
5.337 
 
>  <homo_energy> 
-5.491 
 
>  <homo_lumo_gap> 
5.712 
 
>  <logP> 
2.602 
 
>  <lumo_energy> 
0.22 
 
>  <melting_point> 
62.75 
 
>  <molecular_refractivity> 
72.65 
 
>  <oscillator_strength_1> 
0.0183 
 
>  <oscillator_strength_2> 
0.0262 
 
>  <oscillator_strength_3> 
0.0257 
 
>  <oscillator_strength_4> 
0.0077 
 
>  <open_babel_can_smiles> 
CCN(C/C(=N\c1cccc(c1)CC)/O)CC 
 
>  <mulliken_charges> 
39 
1   -0.432006 
2   -0.460629 
3   -0.459897 
4   -0.338665 
5   -0.138405 
6   -0.124981 
7   -0.13633 
8   -0.188006 
9   -0.158833 
10   -0.217588 
11   -0.219052 
12   0.173846 
13   0.229892 
14   0.487313 
15   -0.481648 
16   -0.444333 
17   -0.590157 
18   0.142032 
19   0.140927 
20   0.147617 
21   0.153256 
22   0.15521 
23   0.157669 
24   0.157194 
25   0.153217 
26   0.158752 
27   0.144107 
28   0.141722 
29   0.153639 
30   0.148894 
31   0.13669 
32   0.162133 
33   0.12347 
34   0.113736 
35   0.123678 
36   0.115078 
37   0.172853 
38   0.177861 
39   0.419746 
 
>  <lowdin_charges> 
39 
1   -0.438996 
2   -0.465634 
3   -0.454778 
4   -0.270045 
5   -0.206303 
6   -0.205667 
7   -0.151232 
8   -0.190956 
9   -0.188741 
10   -0.200416 
11   -0.241381 
12   0.004194 
13   0.050433 
14   0.125058 
15   -0.183091 
16   -0.191539 
17   -0.36151 
18   0.147584 
19   0.145672 
20   0.1494 
21   0.159648 
22   0.153454 
23   0.155154 
24   0.162464 
25   0.152617 
26   0.157292 
27   0.148953 
28   0.148167 
29   0.151239 
30   0.149332 
31   0.132826 
32   0.156868 
33   0.15485 
34   0.151975 
35   0.157351 
36   0.153043 
37   0.161564 
38   0.17039 
39   0.35076 
 
$$$$ 
 
