PCCDB-ID:  7134 
public computational chemistry database (PCCDB) project, http://pccdb.org 
 
 22 22  0  0  0  0  0  0  0  0999 V2000 
    2.4807    1.1253    0.5368 C   0  0  0  0  0  0  0  0  0  0  0  0 
    4.1768   -0.9041   -3.7751 C   0  0  0  0  0  0  0  0  0  0  0  0 
    4.1169    0.4051   -3.3069 C   0  0  0  0  0  0  0  0  0  0  0  0 
    3.7087   -1.9444   -2.9690 C   0  0  0  0  0  0  0  0  0  0  0  0 
    3.5995    0.6776   -2.0373 C   0  0  0  0  0  0  0  0  0  0  0  0 
    2.6619   -2.8478   -0.8458 C   0  0  0  0  0  0  0  0  0  0  0  0 
    3.1814   -1.7056   -1.6983 C   0  0  0  0  0  0  0  0  0  0  0  0 
    3.1430   -0.3735   -1.2415 C   0  0  0  0  0  0  0  0  0  0  0  0 
    3.6351   -3.3083    0.2527 C   0  0  0  0  0  0  0  0  0  0  0  0 
    4.1176   -4.4132    0.2888 O   0  0  0  0  0  0  0  0  0  0  0  0 
    3.9159   -2.3891    1.2024 O   0  0  0  0  0  0  0  0  0  0  0  0 
    2.6323   -0.1995    0.0324 O   0  0  0  0  0  0  0  0  0  0  0  0 
    2.0291    1.0182    1.5241 H   0  0  0  0  0  0  0  0  0  0  0  0 
    1.8183    1.7139   -0.1079 H   0  0  0  0  0  0  0  0  0  0  0  0 
    3.4494    1.6305    0.6294 H   0  0  0  0  0  0  0  0  0  0  0  0 
    4.5800   -1.1192   -4.7600 H   0  0  0  0  0  0  0  0  0  0  0  0 
    4.4732    1.2266   -3.9220 H   0  0  0  0  0  0  0  0  0  0  0  0 
    3.7456   -2.9684   -3.3316 H   0  0  0  0  0  0  0  0  0  0  0  0 
    3.5623    1.7009   -1.6821 H   0  0  0  0  0  0  0  0  0  0  0  0 
    2.4678   -3.7207   -1.4712 H   0  0  0  0  0  0  0  0  0  0  0  0 
    1.7183   -2.5557   -0.3667 H   0  0  0  0  0  0  0  0  0  0  0  0 
    3.4388   -1.5568    1.0027 H   0  0  0  0  0  0  0  0  0  0  0  0 
  1 15  1  0  0  0  0 
  1 13  1  0  0  0  0 
  2  3  2  0  0  0  0 
  2  4  1  0  0  0  0 
  3  5  1  0  0  0  0 
  4  7  2  0  0  0  0 
  5 19  1  0  0  0  0 
  5  8  2  0  0  0  0 
  6 21  1  0  0  0  0 
  6  9  1  0  0  0  0 
  7  8  1  0  0  0  0 
  7  6  1  0  0  0  0 
  8 12  1  0  0  0  0 
  9 10  2  0  0  0  0 
  9 11  1  0  0  0  0 
 12  1  1  0  0  0  0 
 14  1  1  0  0  0  0 
 16  2  1  0  0  0  0 
 17  3  1  0  0  0  0 
 18  4  1  0  0  0  0 
 20  6  1  0  0  0  0 
 22 11  1  0  0  0  0 
M  END 
>  <HBA> 
3 
 
>  <HBD> 
1 
 
>  <TPSA> 
46.53 
 
>  <cid> 
7134 
 
>  <dipole> 
6.22 
 
>  <excitation_energy_1> 
5.052 
 
>  <excitation_energy_2> 
5.359 
 
>  <excitation_energy_3> 
5.705 
 
>  <excitation_energy_4> 
5.767 
 
>  <homo_energy> 
-6.389 
 
>  <homo_lumo_gap> 
5.924 
 
>  <logP> 
1.322 
 
>  <lumo_energy> 
-0.465 
 
>  <melting_point> 
89.75 
 
>  <molecular_refractivity> 
44.48 
 
>  <oscillator_strength_1> 
0.0401 
 
>  <oscillator_strength_2> 
0.0411 
 
>  <oscillator_strength_3> 
0.0066 
 
>  <oscillator_strength_4> 
0.0256 
 
>  <open_babel_can_smiles> 
COc1ccccc1CC(=O)O 
 
>  <mulliken_charges> 
22 
1   -0.22243 
2   -0.121944 
3   -0.140149 
4   -0.187735 
5   -0.180865 
6   -0.466186 
7   0.120352 
8   0.323631 
9   0.592984 
10   -0.443732 
11   -0.589404 
12   -0.551959 
13   0.180286 
14   0.167436 
15   0.167166 
16   0.135781 
17   0.137213 
18   0.14298 
19   0.138329 
20   0.18069 
21   0.180155 
22   0.437402 
 
>  <lowdin_charges> 
22 
1   -0.278199 
2   -0.164824 
3   -0.146554 
4   -0.146829 
5   -0.203442 
6   -0.31268 
7   -0.029574 
8   0.090108 
9   0.192421 
10   -0.247219 
11   -0.369883 
12   -0.219541 
13   0.167862 
14   0.156694 
15   0.153433 
16   0.161738 
17   0.162999 
18   0.164043 
19   0.1645 
20   0.177407 
21   0.172075 
22   0.355463 
 
$$$$ 
 
