PCCDB-ID:  20449 
public computational chemistry database (PCCDB) project, http://pccdb.org 
 
 13 13  0  0  0  0  0  0  0  0999 V2000 
   -1.1875   -0.1647   -0.3273 C   0  0  0  0  0  0  0  0  0  0  0  0 
   -0.2609   -1.1568   -0.2445 C   0  0  0  0  0  0  0  0  0  0  0  0 
   -1.0985    2.4312    0.1780 C   0  0  0  0  0  0  0  0  0  0  0  0 
    0.7519    0.6755    0.3931 C   0  0  0  0  0  0  0  0  0  0  0  0 
   -0.5260    1.0438    0.0906 C   0  0  0  0  0  0  0  0  0  0  0  0 
   -0.3590    3.2786    1.0498 O   0  0  0  0  0  0  0  0  0  0  0  0 
    0.9299   -0.6638    0.1975 O   0  0  0  0  0  0  0  0  0  0  0  0 
   -2.2176   -0.2698   -0.6407 H   0  0  0  0  0  0  0  0  0  0  0  0 
   -0.2834   -2.2170   -0.4467 H   0  0  0  0  0  0  0  0  0  0  0  0 
   -2.1604    2.3797    0.4697 H   0  0  0  0  0  0  0  0  0  0  0  0 
   -1.0658    2.9287   -0.7986 H   0  0  0  0  0  0  0  0  0  0  0  0 
    1.6135    1.2241    0.7396 H   0  0  0  0  0  0  0  0  0  0  0  0 
   -0.3621    2.8561    1.9236 H   0  0  0  0  0  0  0  0  0  0  0  0 
  1  2  2  0  0  0  0 
  1  5  1  0  0  0  0 
  2  7  1  0  0  0  0 
  3 10  1  0  0  0  0 
  3  6  1  0  0  0  0 
  4 12  1  0  0  0  0 
  5  3  1  0  0  0  0 
  5  4  2  0  0  0  0 
  6 13  1  0  0  0  0 
  7  4  1  0  0  0  0 
  8  1  1  0  0  0  0 
  9  2  1  0  0  0  0 
 11  3  1  0  0  0  0 
M  END 
>  <HBA> 
2 
 
>  <HBD> 
1 
 
>  <TPSA> 
33.37 
 
>  <cid> 
20449 
 
>  <dipole> 
1.64 
 
>  <excitation_energy_1> 
5.673 
 
>  <excitation_energy_2> 
5.924 
 
>  <excitation_energy_3> 
6.026 
 
>  <excitation_energy_4> 
6.295 
 
>  <homo_energy> 
-6.133 
 
>  <homo_lumo_gap> 
6.558 
 
>  <logP> 
0.772 
 
>  <lumo_energy> 
0.425 
 
>  <melting_point> 
25.0 
 
>  <molecular_refractivity> 
24.84 
 
>  <oscillator_strength_1> 
0.0082 
 
>  <oscillator_strength_2> 
0.1318 
 
>  <oscillator_strength_3> 
0.0215 
 
>  <oscillator_strength_4> 
0.0052 
 
>  <open_babel_can_smiles> 
OCc1cocc1 
 
>  <mulliken_charges> 
13 
1   -0.210637 
2   0.079489 
3   -0.091153 
4   0.036764 
5   0.050178 
6   -0.610606 
7   -0.397975 
8   0.138022 
9   0.157139 
10   0.132088 
11   0.166654 
12   0.16201 
13   0.388026 
 
>  <lowdin_charges> 
13 
1   -0.215535 
2   -0.0777 
3   -0.122893 
4   -0.098293 
5   -0.07449 
6   -0.46079 
7   -0.09475 
8   0.166991 
9   0.169122 
10   0.132357 
11   0.158324 
12   0.175958 
13   0.341699 
 
$$$$ 
 
