PCCDB-ID:  53569 
public computational chemistry database (PCCDB) project, http://pccdb.org 
 
 26 25  0  0  0  0  0  0  0  0999 V2000 
    0.9476   -0.0154    0.3710 C   0  0  0  0  0  0  0  0  0  0  0  0 
    2.4572   -0.1520    0.1490 C   0  0  0  0  0  0  0  0  0  0  0  0 
    2.9374    0.4939   -1.1575 C   0  0  0  0  0  0  0  0  0  0  0  0 
    4.4504    0.3533   -1.3790 C   0  0  0  0  0  0  0  0  0  0  0  0 
    4.9832    1.0649   -2.6261 C   0  0  0  0  0  0  0  0  0  0  0  0 
    4.9949    1.0507   -5.1004 C   0  0  0  0  0  0  0  0  0  0  0  0 
    4.8148    0.0730   -6.2688 C   0  0  0  0  0  0  0  0  0  0  0  0 
    4.7432    0.3635   -7.5038 N   0  0  0  0  0  0  0  0  0  0  0  0 
    4.4768    0.4596   -3.8646 N   0  0  0  0  0  0  0  0  0  0  0  0 
    4.7845   -1.2152   -5.8722 O   0  0  0  0  0  0  0  0  0  0  0  0 
    0.6395   -0.4843    1.3121 H   0  0  0  0  0  0  0  0  0  0  0  0 
    0.3824   -0.4925   -0.4390 H   0  0  0  0  0  0  0  0  0  0  0  0 
    0.6457    1.0385    0.4092 H   0  0  0  0  0  0  0  0  0  0  0  0 
    2.7336   -1.2156    0.1483 H   0  0  0  0  0  0  0  0  0  0  0  0 
    2.9953    0.3016    0.9933 H   0  0  0  0  0  0  0  0  0  0  0  0 
    2.6671    1.5608   -1.1558 H   0  0  0  0  0  0  0  0  0  0  0  0 
    2.3879    0.0373   -1.9942 H   0  0  0  0  0  0  0  0  0  0  0  0 
    4.7200   -0.7096   -1.4371 H   0  0  0  0  0  0  0  0  0  0  0  0 
    4.9772    0.7651   -0.5073 H   0  0  0  0  0  0  0  0  0  0  0  0 
    6.0770    0.9848   -2.6516 H   0  0  0  0  0  0  0  0  0  0  0  0 
    4.7454    2.1427   -2.5669 H   0  0  0  0  0  0  0  0  0  0  0  0 
    4.5490    2.0238   -5.3581 H   0  0  0  0  0  0  0  0  0  0  0  0 
    6.0713    1.2170   -4.9605 H   0  0  0  0  0  0  0  0  0  0  0  0 
    4.7812    1.3788   -7.6194 H   0  0  0  0  0  0  0  0  0  0  0  0 
    3.4591    0.5085   -3.8743 H   0  0  0  0  0  0  0  0  0  0  0  0 
    4.7662   -1.1763   -4.8877 H   0  0  0  0  0  0  0  0  0  0  0  0 
  1 13  1  0  0  0  0 
  1 11  1  0  0  0  0 
  2  1  1  0  0  0  0 
  2 15  1  0  0  0  0 
  3 16  1  0  0  0  0 
  3  2  1  0  0  0  0 
  4  3  1  0  0  0  0 
  4 19  1  0  0  0  0 
  5 21  1  0  0  0  0 
  5  4  1  0  0  0  0 
  6 23  1  0  0  0  0 
  6  9  1  0  0  0  0 
  7 10  1  0  0  0  0 
  7  6  1  0  0  0  0 
  8  7  2  0  0  0  0 
  9  5  1  0  0  0  0 
 10 26  1  0  0  0  0 
 12  1  1  0  0  0  0 
 14  2  1  0  0  0  0 
 17  3  1  0  0  0  0 
 18  4  1  0  0  0  0 
 20  5  1  0  0  0  0 
 22  6  1  0  0  0  0 
 24  8  1  0  0  0  0 
 25  9  1  0  0  0  0 
M  END 
>  <HBA> 
3 
 
>  <HBD> 
2 
 
>  <TPSA> 
55.12 
 
>  <cid> 
53569 
 
>  <dipole> 
5.81 
 
>  <excitation_energy_1> 
5.987 
 
>  <excitation_energy_2> 
6.166 
 
>  <excitation_energy_3> 
6.244 
 
>  <excitation_energy_4> 
6.382 
 
>  <homo_energy> 
-6.776 
 
>  <homo_lumo_gap> 
7.655 
 
>  <logP> 
1.343 
 
>  <lumo_energy> 
0.879 
 
>  <melting_point> 
75.59 
 
>  <molecular_refractivity> 
41.47 
 
>  <oscillator_strength_1> 
0.0046 
 
>  <oscillator_strength_2> 
0.0102 
 
>  <oscillator_strength_3> 
0.0068 
 
>  <oscillator_strength_4> 
0.014 
 
>  <open_babel_can_smiles> 
CCCCCNCC(=N)O 
 
>  <mulliken_charges> 
26 
1   -0.443496 
2   -0.247957 
3   -0.259538 
4   -0.263887 
5   -0.119415 
6   -0.211696 
7   0.47784 
8   -0.595249 
9   -0.606935 
10   -0.585987 
11   0.147005 
12   0.144339 
13   0.142893 
14   0.136863 
15   0.134126 
16   0.130459 
17   0.128464 
18   0.145457 
19   0.13823 
20   0.148209 
21   0.1242 
22   0.145949 
23   0.177902 
24   0.27315 
25   0.321535 
26   0.417541 
 
>  <lowdin_charges> 
26 
1   -0.444413 
2   -0.270179 
3   -0.279079 
4   -0.280021 
5   -0.195569 
6   -0.238882 
7   0.106345 
8   -0.404983 
9   -0.359391 
10   -0.365256 
11   0.152417 
12   0.148819 
13   0.145868 
14   0.140731 
15   0.141578 
16   0.136932 
17   0.137155 
18   0.146678 
19   0.149075 
20   0.14603 
21   0.12304 
22   0.142567 
23   0.164366 
24   0.248372 
25   0.260796 
26   0.347005 
 
$$$$ 
 
