PCCDB-ID:  22294 
public computational chemistry database (PCCDB) project, http://pccdb.org 
 
 15 15  0  0  0  0  0  0  0  0999 V2000 
   -1.4444    0.6821    0.1267 C   0  0  0  0  0  0  0  0  0  0  0  0 
   -0.2255    1.4044   -0.4467 C   0  0  0  0  0  0  0  0  0  0  0  0 
   -0.2521   -1.3523    0.4694 C   0  0  0  0  0  0  0  0  0  0  0  0 
    1.6647   -0.0008   -0.0378 C   0  0  0  0  0  0  0  0  0  0  0  0 
   -1.4068   -0.7293   -0.0334 O   0  0  0  0  0  0  0  0  0  0  0  0 
    0.9266    1.1280    0.3512 O   0  0  0  0  0  0  0  0  0  0  0  0 
    0.8771   -1.1311   -0.3528 O   0  0  0  0  0  0  0  0  0  0  0  0 
   -2.3543    1.0138   -0.3849 H   0  0  0  0  0  0  0  0  0  0  0  0 
   -1.5281    0.9449    1.1932 H   0  0  0  0  0  0  0  0  0  0  0  0 
   -0.3865    2.4869   -0.3911 H   0  0  0  0  0  0  0  0  0  0  0  0 
   -0.0630    1.1237   -1.4954 H   0  0  0  0  0  0  0  0  0  0  0  0 
   -0.4543   -2.4237    0.4290 H   0  0  0  0  0  0  0  0  0  0  0  0 
   -0.0490   -1.0351    1.5044 H   0  0  0  0  0  0  0  0  0  0  0  0 
    2.3373   -0.1998    0.8075 H   0  0  0  0  0  0  0  0  0  0  0  0 
    2.2520    0.1875   -0.9475 H   0  0  0  0  0  0  0  0  0  0  0  0 
  1  9  1  0  0  0  0 
  2 10  1  0  0  0  0 
  2  1  1  0  0  0  0 
  2  6  1  0  0  0  0 
  3 13  1  0  0  0  0 
  4  6  1  0  0  0  0 
  4 14  1  0  0  0  0 
  5  1  1  0  0  0  0 
  5  3  1  0  0  0  0 
  7  4  1  0  0  0  0 
  7  3  1  0  0  0  0 
  8  1  1  0  0  0  0 
 11  2  1  0  0  0  0 
 12  3  1  0  0  0  0 
 15  4  1  0  0  0  0 
M  END 
>  <HBA> 
3 
 
>  <HBD> 
0 
 
>  <TPSA> 
27.69 
 
>  <cid> 
22294 
 
>  <dipole> 
1.04 
 
>  <excitation_energy_1> 
6.73 
 
>  <excitation_energy_2> 
7.041 
 
>  <excitation_energy_3> 
7.079 
 
>  <excitation_energy_4> 
7.298 
 
>  <homo_energy> 
-6.955 
 
>  <homo_lumo_gap> 
9.769 
 
>  <logP> 
-0.035 
 
>  <lumo_energy> 
2.814 
 
>  <melting_point> 
-29.5 
 
>  <molecular_refractivity> 
22.48 
 
>  <oscillator_strength_1> 
0.0186 
 
>  <oscillator_strength_2> 
0.0349 
 
>  <oscillator_strength_3> 
0.0143 
 
>  <oscillator_strength_4> 
0.0191 
 
>  <open_babel_can_smiles> 
O1COCCOC1 
 
>  <mulliken_charges> 
15 
1   -0.035622 
2   -0.064481 
3   0.162229 
4   0.174102 
5   -0.450747 
6   -0.471205 
7   -0.465252 
8   0.147461 
9   0.136573 
10   0.14925 
11   0.153176 
12   0.156211 
13   0.126279 
14   0.141385 
15   0.140641 
 
>  <lowdin_charges> 
15 
1   -0.145319 
2   -0.14794 
3   -0.023079 
4   -0.023809 
5   -0.259799 
6   -0.271839 
7   -0.271551 
8   0.154962 
9   0.135113 
10   0.152939 
11   0.146665 
12   0.153693 
13   0.124661 
14   0.13845 
15   0.136853 
 
$$$$ 
 
