PCCDB-ID:  34226 
public computational chemistry database (PCCDB) project, http://pccdb.org 
 
 21 21  0  0  0  0  0  0  0  0999 V2000 
    0.8714    0.2683    0.1470 C   0  0  0  0  0  0  0  0  0  0  0  0 
    4.4890    1.3959   -0.2798 C   0  0  0  0  0  0  0  0  0  0  0  0 
    3.1063    1.4392   -0.1167 C   0  0  0  0  0  0  0  0  0  0  0  0 
    5.1702    0.1800   -0.3389 C   0  0  0  0  0  0  0  0  0  0  0  0 
    6.9201   -3.7979   -0.1771 C   0  0  0  0  0  0  0  0  0  0  0  0 
    6.5065   -2.3891   -0.1529 C   0  0  0  0  0  0  0  0  0  0  0  0 
    3.0571   -0.9682   -0.0745 C   0  0  0  0  0  0  0  0  0  0  0  0 
    2.3746    0.2476   -0.0128 C   0  0  0  0  0  0  0  0  0  0  0  0 
    4.4515   -1.0227   -0.2410 C   0  0  0  0  0  0  0  0  0  0  0  0 
    7.2426   -4.9121   -0.1741 N   0  0  0  0  0  0  0  0  0  0  0  0 
    5.0693   -2.2782   -0.3384 N   0  0  0  0  0  0  0  0  0  0  0  0 
    0.5099    1.2732    0.3861 H   0  0  0  0  0  0  0  0  0  0  0  0 
    0.5422   -0.4073    0.9452 H   0  0  0  0  0  0  0  0  0  0  0  0 
    0.3690   -0.0531   -0.7746 H   0  0  0  0  0  0  0  0  0  0  0  0 
    5.0533    2.3220   -0.3536 H   0  0  0  0  0  0  0  0  0  0  0  0 
    2.5923    2.3952   -0.0648 H   0  0  0  0  0  0  0  0  0  0  0  0 
    6.2482    0.1782   -0.4617 H   0  0  0  0  0  0  0  0  0  0  0  0 
    7.0259   -1.8701   -0.9685 H   0  0  0  0  0  0  0  0  0  0  0  0 
    6.8650   -1.9381    0.7897 H   0  0  0  0  0  0  0  0  0  0  0  0 
    2.4991   -1.9006    0.0006 H   0  0  0  0  0  0  0  0  0  0  0  0 
    4.5480   -3.0236    0.1065 H   0  0  0  0  0  0  0  0  0  0  0  0 
  1 12  1  0  0  0  0 
  1 13  1  0  0  0  0 
  2  3  1  0  0  0  0 
  3 16  1  0  0  0  0 
  3  8  2  0  0  0  0 
  4  2  2  0  0  0  0 
  4  9  1  0  0  0  0 
  5 10  3  0  0  0  0 
  5  6  1  0  0  0  0 
  6 19  1  0  0  0  0 
  7  8  1  0  0  0  0 
  7 20  1  0  0  0  0 
  8  1  1  0  0  0  0 
  9  7  2  0  0  0  0 
 11  9  1  0  0  0  0 
 11  6  1  0  0  0  0 
 11 21  1  0  0  0  0 
 14  1  1  0  0  0  0 
 15  2  1  0  0  0  0 
 17  4  1  0  0  0  0 
 18  6  1  0  0  0  0 
M  END 
>  <HBA> 
2 
 
>  <HBD> 
1 
 
>  <TPSA> 
35.82 
 
>  <cid> 
34226 
 
>  <dipole> 
3.04 
 
>  <excitation_energy_1> 
4.651 
 
>  <excitation_energy_2> 
4.869 
 
>  <excitation_energy_3> 
5.216 
 
>  <excitation_energy_4> 
5.399 
 
>  <homo_energy> 
-5.736 
 
>  <homo_lumo_gap> 
5.584 
 
>  <logP> 
2.003 
 
>  <lumo_energy> 
-0.152 
 
>  <melting_point> 
75.94 
 
>  <molecular_refractivity> 
45.27 
 
>  <oscillator_strength_1> 
0.0447 
 
>  <oscillator_strength_2> 
0.007 
 
>  <oscillator_strength_3> 
0.0428 
 
>  <oscillator_strength_4> 
0.0964 
 
>  <open_babel_can_smiles> 
N#CCNc1cccc(c1)C 
 
>  <mulliken_charges> 
21 
1   -0.53064 
2   -0.136315 
3   -0.185647 
4   -0.187191 
5   0.336026 
6   -0.156299 
7   -0.241039 
8   0.174673 
9   0.359866 
10   -0.464056 
11   -0.665836 
12   0.156728 
13   0.159281 
14   0.166964 
15   0.129202 
16   0.119133 
17   0.123149 
18   0.206475 
19   0.189229 
20   0.114909 
21   0.331388 
 
>  <lowdin_charges> 
21 
1   -0.442686 
2   -0.142482 
3   -0.192335 
4   -0.212268 
5   -0.019657 
6   -0.186756 
7   -0.204733 
8   0.01465 
9   0.057854 
10   -0.107367 
11   -0.299067 
12   0.157391 
13   0.160263 
14   0.163305 
15   0.15841 
16   0.15455 
17   0.153856 
18   0.184367 
19   0.166562 
20   0.151988 
21   0.284154 
 
$$$$ 
 
