PCCDB-ID:  61054 
public computational chemistry database (PCCDB) project, http://pccdb.org 
 
 22 22  0  0  0  0  0  0  0  0999 V2000 
    2.6793   -1.6247    0.6690 C   0  0  0  0  0  0  0  0  0  0  0  0 
    3.5898    1.6205   -2.7596 C   0  0  0  0  0  0  0  0  0  0  0  0 
    4.5345   -0.5803   -2.9872 C   0  0  0  0  0  0  0  0  0  0  0  0 
    2.9974    1.2459   -1.5623 C   0  0  0  0  0  0  0  0  0  0  0  0 
    3.9454   -0.9742   -1.7835 C   0  0  0  0  0  0  0  0  0  0  0  0 
    5.0086    1.1109   -4.7957 C   0  0  0  0  0  0  0  0  0  0  0  0 
    3.3333    1.9225   -6.2924 C   0  0  0  0  0  0  0  0  0  0  0  0 
    4.3701    0.7107   -3.4939 C   0  0  0  0  0  0  0  0  0  0  0  0 
    3.1706   -0.0557   -1.0652 C   0  0  0  0  0  0  0  0  0  0  0  0 
    3.2791    3.0097   -5.7670 O   0  0  0  0  0  0  0  0  0  0  0  0 
    2.5499   -0.3230    0.1191 O   0  0  0  0  0  0  0  0  0  0  0  0 
    4.1179    0.8962   -5.9392 O   0  0  0  0  0  0  0  0  0  0  0  0 
    2.1018   -1.6166    1.5951 H   0  0  0  0  0  0  0  0  0  0  0  0 
    3.7263   -1.8646    0.8970 H   0  0  0  0  0  0  0  0  0  0  0  0 
    2.2728   -2.3899   -0.0053 H   0  0  0  0  0  0  0  0  0  0  0  0 
    3.4427    2.6254   -3.1439 H   0  0  0  0  0  0  0  0  0  0  0  0 
    5.1361   -1.3002   -3.5378 H   0  0  0  0  0  0  0  0  0  0  0  0 
    2.3944    1.9429   -0.9889 H   0  0  0  0  0  0  0  0  0  0  0  0 
    4.0990   -1.9830   -1.4183 H   0  0  0  0  0  0  0  0  0  0  0  0 
    5.8730    0.4838   -5.0223 H   0  0  0  0  0  0  0  0  0  0  0  0 
    5.3073    2.1610   -4.7937 H   0  0  0  0  0  0  0  0  0  0  0  0 
    2.7309    1.6237   -7.1643 H   0  0  0  0  0  0  0  0  0  0  0  0 
  1 14  1  0  0  0  0 
  1 13  1  0  0  0  0 
  2  4  2  0  0  0  0 
  3  5  1  0  0  0  0 
  4  9  1  0  0  0  0 
  4 18  1  0  0  0  0 
  5 19  1  0  0  0  0 
  5  9  2  0  0  0  0 
  6 21  1  0  0  0  0 
  6  8  1  0  0  0  0 
  7 12  1  0  0  0  0 
  7 10  2  0  0  0  0 
  8  3  2  0  0  0  0 
  8  2  1  0  0  0  0 
  9 11  1  0  0  0  0 
 11  1  1  0  0  0  0 
 12  6  1  0  0  0  0 
 15  1  1  0  0  0  0 
 16  2  1  0  0  0  0 
 17  3  1  0  0  0  0 
 20  6  1  0  0  0  0 
 22  7  1  0  0  0  0 
M  END 
>  <HBA> 
3 
 
>  <HBD> 
0 
 
>  <TPSA> 
35.53 
 
>  <cid> 
61054 
 
>  <dipole> 
3.28 
 
>  <excitation_energy_1> 
5.006 
 
>  <excitation_energy_2> 
5.318 
 
>  <excitation_energy_3> 
5.557 
 
>  <excitation_energy_4> 
5.589 
 
>  <homo_energy> 
-6.041 
 
>  <homo_lumo_gap> 
5.927 
 
>  <logP> 
2.004 
 
>  <lumo_energy> 
-0.114 
 
>  <melting_point> 
-2.63 
 
>  <molecular_refractivity> 
44.38 
 
>  <oscillator_strength_1> 
0.0198 
 
>  <oscillator_strength_2> 
0.0527 
 
>  <oscillator_strength_3> 
0.1626 
 
>  <oscillator_strength_4> 
0.0173 
 
>  <open_babel_can_smiles> 
COc1ccc(cc1)COC=O 
 
>  <mulliken_charges> 
22 
1   -0.216284 
2   -0.182163 
3   -0.183134 
4   -0.173357 
5   -0.195097 
6   -0.157169 
7   0.393781 
8   0.149252 
9   0.378871 
10   -0.425101 
11   -0.503998 
12   -0.407193 
13   0.172017 
14   0.152965 
15   0.153686 
16   0.162325 
17   0.129847 
18   0.142769 
19   0.133012 
20   0.158974 
21   0.179149 
22   0.136849 
 
>  <lowdin_charges> 
22 
1   -0.277309 
2   -0.14348 
3   -0.147065 
4   -0.181709 
5   -0.21517 
6   -0.128851 
7   0.08877 
8   -0.045181 
9   0.107857 
10   -0.26033 
11   -0.195968 
12   -0.185485 
13   0.164009 
14   0.144549 
15   0.147391 
16   0.172267 
17   0.15897 
18   0.170306 
19   0.162372 
20   0.159628 
21   0.164504 
22   0.139925 
 
$$$$ 
 
