PCCDB-ID:  15279 
public computational chemistry database (PCCDB) project, http://pccdb.org 
 
 28 29  0  0  1  0  0  0  0  0999 V2000 
    0.9525   -0.4258    0.4258 C   0  0  0  0  0  0  0  0  0  0  0  0 
    4.9971   -5.3586    2.2610 C   0  0  0  0  0  0  0  0  0  0  0  0 
    5.4974    0.8663    3.7026 C   0  0  0  0  0  0  0  0  0  0  0  0 
    4.6622    1.5397    2.8031 C   0  0  0  0  0  0  0  0  0  0  0  0 
    5.5524   -0.5303    3.7086 C   0  0  0  0  0  0  0  0  0  0  0  0 
    2.9188    1.2077    0.8329 C   0  0  0  0  0  0  0  0  0  0  0  0 
    2.4409   -0.1604    0.2605 C   0  0  1  0  0  0  0  0  0  0  0  0 
    3.8952    0.7972    1.9115 C   0  0  0  0  0  0  0  0  0  0  0  0 
    4.7798   -1.2721    2.8171 C   0  0  0  0  0  0  0  0  0  0  0  0 
    3.9617   -0.5953    1.9142 C   0  0  0  0  0  0  0  0  0  0  0  0 
    3.8703   -3.4711    3.0811 C   0  0  0  0  0  0  0  0  0  0  0  0 
    3.8545   -4.7201    2.8968 N   0  0  0  0  0  0  0  0  0  0  0  0 
    2.8361   -2.8145    3.6519 O   0  0  0  0  0  0  0  0  0  0  0  0 
    3.1776   -1.1984    0.9839 O   0  0  0  0  0  0  0  0  0  0  0  0 
    4.9177   -2.6570    2.7758 O   0  0  0  0  0  0  0  0  0  0  0  0 
    0.3709    0.2944   -0.1616 H   0  0  0  0  0  0  0  0  0  0  0  0 
    0.6625   -0.3317    1.4782 H   0  0  0  0  0  0  0  0  0  0  0  0 
    0.6997   -1.4348    0.0857 H   0  0  0  0  0  0  0  0  0  0  0  0 
    4.9807   -6.4266    2.4995 H   0  0  0  0  0  0  0  0  0  0  0  0 
    5.9612   -4.9445    2.5841 H   0  0  0  0  0  0  0  0  0  0  0  0 
    4.9431   -5.2608    1.1680 H   0  0  0  0  0  0  0  0  0  0  0  0 
    6.1071    1.4284    4.4034 H   0  0  0  0  0  0  0  0  0  0  0  0 
    4.6185    2.6256    2.8015 H   0  0  0  0  0  0  0  0  0  0  0  0 
    6.1958   -1.0641    4.4010 H   0  0  0  0  0  0  0  0  0  0  0  0 
    2.0760    1.7841    1.2356 H   0  0  0  0  0  0  0  0  0  0  0  0 
    3.3897    1.8251    0.0587 H   0  0  0  0  0  0  0  0  0  0  0  0 
    2.7288   -0.2691   -0.7906 H   0  0  0  0  0  0  0  0  0  0  0  0 
    2.1653   -3.5024    3.8072 H   0  0  0  0  0  0  0  0  0  0  0  0 
  1 17  1  0  0  0  0 
  2 19  1  0  0  0  0 
  2 20  1  0  0  0  0 
  2 12  1  0  0  0  0 
  3  5  1  0  0  0  0 
  3 22  1  0  0  0  0 
  4  3  2  0  0  0  0 
  5 24  1  0  0  0  0 
  6 25  1  0  0  0  0 
  6  8  1  0  0  0  0 
  7 27  1  6  0  0  0 
  7  1  1  0  0  0  0 
  7  6  1  0  0  0  0 
  7 14  1  0  0  0  0 
  8 10  2  0  0  0  0 
  8  4  1  0  0  0  0 
  9  5  2  0  0  0  0 
 10  9  1  0  0  0  0 
 11 13  1  0  0  0  0 
 12 11  2  0  0  0  0 
 13 28  1  0  0  0  0 
 14 10  1  0  0  0  0 
 15  9  1  0  0  0  0 
 15 11  1  0  0  0  0 
 16  1  1  0  0  0  0 
 18  1  1  0  0  0  0 
 21  2  1  0  0  0  0 
 23  4  1  0  0  0  0 
 26  6  1  0  0  0  0 
M  END 
>  <HBA> 
4 
 
>  <HBD> 
1 
 
>  <TPSA> 
47.56 
 
>  <cid> 
15279 
 
>  <dipole> 
3.01 
 
>  <excitation_energy_1> 
4.782 
 
>  <excitation_energy_2> 
5.256 
 
>  <excitation_energy_3> 
5.479 
 
>  <excitation_energy_4> 
5.608 
 
>  <homo_energy> 
-5.736 
 
>  <homo_lumo_gap> 
5.652 
 
>  <logP> 
2.119 
 
>  <lumo_energy> 
-0.084 
 
>  <melting_point> 
99.52 
 
>  <molecular_refractivity> 
55.28 
 
>  <oscillator_strength_1> 
0.0735 
 
>  <oscillator_strength_2> 
0.0156 
 
>  <oscillator_strength_3> 
0.014 
 
>  <oscillator_strength_4> 
0.0105 
 
>  <open_babel_can_smiles> 
C/N=C(\Oc1cccc2c1O[C@H](C2)C)/O 
 
>  <mulliken_charges> 
28 
1   -0.452773 
2   -0.317579 
3   -0.150967 
4   -0.195736 
5   -0.170887 
6   -0.380801 
7   0.138537 
8   0.104081 
9   0.293707 
10   0.354541 
11   0.724519 
12   -0.489876 
13   -0.593775 
14   -0.542334 
15   -0.539592 
16   0.146837 
17   0.160442 
18   0.165016 
19   0.150067 
20   0.149591 
21   0.152159 
22   0.130006 
23   0.127267 
24   0.140472 
25   0.163252 
26   0.164308 
27   0.147387 
28   0.422133 
 
>  <lowdin_charges> 
28 
1   -0.44976 
2   -0.34872 
3   -0.173035 
4   -0.159868 
5   -0.164972 
6   -0.287946 
7   0.022836 
8   -0.041648 
9   0.071127 
10   0.080224 
11   0.191543 
12   -0.264812 
13   -0.358873 
14   -0.204349 
15   -0.155258 
16   0.156555 
17   0.157581 
18   0.161876 
19   0.148125 
20   0.143686 
21   0.146864 
22   0.160991 
23   0.156494 
24   0.170418 
25   0.160745 
26   0.162121 
27   0.145225 
28   0.37283 
 
$$$$ 
 
