PCCDB-ID:  17030 
public computational chemistry database (PCCDB) project, http://pccdb.org 
 
 21 21  0  0  0  0  0  0  0  0999 V2000 
    0.9218   -0.0868   -0.0124 C   0  0  0  0  0  0  0  0  0  0  0  0 
    5.3017   -2.6096    0.1163 C   0  0  0  0  0  0  0  0  0  0  0  0 
    3.1385    1.1382    0.0165 C   0  0  0  0  0  0  0  0  0  0  0  0 
    5.2479   -0.0746    0.0793 C   0  0  0  0  0  0  0  0  0  0  0  0 
    2.4323   -0.0622    0.0190 C   0  0  0  0  0  0  0  0  0  0  0  0 
    4.5731   -1.2907    0.0820 C   0  0  0  0  0  0  0  0  0  0  0  0 
    4.5307    1.1217    0.0463 C   0  0  0  0  0  0  0  0  0  0  0  0 
    3.1643   -1.2661    0.0515 C   0  0  0  0  0  0  0  0  0  0  0  0 
    5.2570    2.3902    0.0425 N   0  0  0  0  0  0  0  0  0  0  0  0 
    2.5453   -2.4806    0.0550 O   0  0  0  0  0  0  0  0  0  0  0  0 
    4.5976    3.4325    0.0204 O   0  0  0  0  0  0  0  0  0  0  0  0 
    6.4891    2.3492    0.0615 O   0  0  0  0  0  0  0  0  0  0  0  0 
    0.5190    0.9288   -0.0378 H   0  0  0  0  0  0  0  0  0  0  0  0 
    0.4977   -0.5788    0.8747 H   0  0  0  0  0  0  0  0  0  0  0  0 
    0.5352   -0.6082   -0.8998 H   0  0  0  0  0  0  0  0  0  0  0  0 
    6.3838   -2.4548    0.1430 H   0  0  0  0  0  0  0  0  0  0  0  0 
    5.0608   -3.2189   -0.7626 H   0  0  0  0  0  0  0  0  0  0  0  0 
    5.0143   -3.1992    0.9946 H   0  0  0  0  0  0  0  0  0  0  0  0 
    2.6203    2.0894   -0.0084 H   0  0  0  0  0  0  0  0  0  0  0  0 
    6.3306   -0.0410    0.1032 H   0  0  0  0  0  0  0  0  0  0  0  0 
    1.5837   -2.3578    0.0328 H   0  0  0  0  0  0  0  0  0  0  0  0 
  1  5  1  0  0  0  0 
  1 14  1  0  0  0  0 
  2 16  1  0  0  0  0 
  2 18  1  0  0  0  0 
  3  5  2  0  0  0  0 
  3  7  1  0  0  0  0 
  4  6  1  0  0  0  0 
  4 20  1  0  0  0  0 
  5  8  1  0  0  0  0 
  6  2  1  0  0  0  0 
  7  4  2  0  0  0  0 
  8 10  1  0  0  0  0 
  8  6  2  0  0  0  0 
  9  7  1  0  0  0  0 
  9 12  2  0  0  0  0 
 11  9  2  0  0  0  0 
 13  1  1  0  0  0  0 
 15  1  1  0  0  0  0 
 17  2  1  0  0  0  0 
 19  3  1  0  0  0  0 
 21 10  1  0  0  0  0 
M  END 
>  <HBA> 
1 
 
>  <HBD> 
1 
 
>  <TPSA> 
66.05 
 
>  <cid> 
17030 
 
>  <dipole> 
5.88 
 
>  <excitation_energy_1> 
3.767 
 
>  <excitation_energy_2> 
4.054 
 
>  <excitation_energy_3> 
4.178 
 
>  <excitation_energy_4> 
4.323 
 
>  <homo_energy> 
-6.621 
 
>  <homo_lumo_gap> 
4.544 
 
>  <logP> 
2.44 
 
>  <lumo_energy> 
-2.076 
 
>  <melting_point> 
92.76 
 
>  <molecular_refractivity> 
47.22 
 
>  <oscillator_strength_1> 
0.0 
 
>  <oscillator_strength_2> 
0.2114 
 
>  <oscillator_strength_3> 
0.0473 
 
>  <oscillator_strength_4> 
0.0003 
 
>  <open_babel_can_smiles> 
O=N(=O)c1cc(C)c(c(c1)C)O 
 
>  <mulliken_charges> 
21 
1   -0.582922 
2   -0.514959 
3   -0.234262 
4   -0.229516 
5   0.16411 
6   0.143363 
7   0.293391 
8   0.233511 
9   0.370046 
10   -0.631284 
11   -0.407004 
12   -0.404414 
13   0.185052 
14   0.168788 
15   0.168524 
16   0.159933 
17   0.172943 
18   0.172977 
19   0.174356 
20   0.174696 
21   0.42267 
 
>  <lowdin_charges> 
21 
1   -0.45384 
2   -0.43491 
3   -0.144629 
4   -0.141653 
5   -0.044456 
6   -0.019558 
7   -0.016667 
8   0.103043 
9   0.306805 
10   -0.359651 
11   -0.26012 
12   -0.255186 
13   0.174627 
14   0.16078 
15   0.160605 
16   0.159214 
17   0.168123 
18   0.168188 
19   0.184298 
20   0.183031 
21   0.361954 
 
$$$$ 
 
