PCCDB-ID:  17635 
public computational chemistry database (PCCDB) project, http://pccdb.org 
 
 21 20  0  0  0  0  0  0  0  0999 V2000 
    1.0210    0.8212   -2.7346 C   0  0  0  0  0  0  0  0  0  0  0  0 
    2.5274    0.8937   -2.4645 C   0  0  0  0  0  0  0  0  0  0  0  0 
    2.8516    1.1843   -0.9912 C   0  0  0  0  0  0  0  0  0  0  0  0 
    4.3497    1.1700   -0.6424 C   0  0  0  0  0  0  0  0  0  0  0  0 
    5.1258    2.2970   -1.3081 C   0  0  0  0  0  0  0  0  0  0  0  0 
    7.3916    3.0911   -1.2643 C   0  0  0  0  0  0  0  0  0  0  0  0 
    6.4942    2.2103   -0.8248 O   0  0  0  0  0  0  0  0  0  0  0  0 
    7.1551    4.3220   -2.3332 S   0  0  0  0  0  0  0  0  0  0  0  0 
    8.9866    2.7985   -0.5413 S   0  0  0  0  0  0  0  0  0  0  0  0 
    0.8149    0.6103   -3.7897 H   0  0  0  0  0  0  0  0  0  0  0  0 
    0.5269    1.7672   -2.4814 H   0  0  0  0  0  0  0  0  0  0  0  0 
    0.5489    0.0313   -2.1375 H   0  0  0  0  0  0  0  0  0  0  0  0 
    2.9702    1.6654   -3.1083 H   0  0  0  0  0  0  0  0  0  0  0  0 
    2.9989   -0.0557   -2.7560 H   0  0  0  0  0  0  0  0  0  0  0  0 
    2.3503    0.4343   -0.3649 H   0  0  0  0  0  0  0  0  0  0  0  0 
    2.4179    2.1540   -0.7058 H   0  0  0  0  0  0  0  0  0  0  0  0 
    4.7924    0.2087   -0.9344 H   0  0  0  0  0  0  0  0  0  0  0  0 
    4.4733    1.2594    0.4439 H   0  0  0  0  0  0  0  0  0  0  0  0 
    4.7309    3.2842   -1.0461 H   0  0  0  0  0  0  0  0  0  0  0  0 
    5.1462    2.2189   -2.3982 H   0  0  0  0  0  0  0  0  0  0  0  0 
    8.6311    1.7355    0.2171 H   0  0  0  0  0  0  0  0  0  0  0  0 
  1 11  1  0  0  0  0 
  1  2  1  0  0  0  0 
  1 12  1  0  0  0  0 
  2  3  1  0  0  0  0 
  3 16  1  0  0  0  0 
  3  4  1  0  0  0  0 
  3 15  1  0  0  0  0 
  4 18  1  0  0  0  0 
  5 19  1  0  0  0  0 
  5  7  1  0  0  0  0 
  5  4  1  0  0  0  0 
  6  7  1  0  0  0  0 
  6  9  1  0  0  0  0 
  8  6  2  0  0  0  0 
  9 21  1  0  0  0  0 
 10  1  1  0  0  0  0 
 13  2  1  0  0  0  0 
 14  2  1  0  0  0  0 
 17  4  1  0  0  0  0 
 20  5  1  0  0  0  0 
M  END 
>  <HBA> 
3 
 
>  <HBD> 
1 
 
>  <TPSA> 
80.12 
 
>  <cid> 
17635 
 
>  <dipole> 
3.98 
 
>  <excitation_energy_1> 
3.538 
 
>  <excitation_energy_2> 
4.916 
 
>  <excitation_energy_3> 
5.38 
 
>  <excitation_energy_4> 
5.528 
 
>  <homo_energy> 
-6.31 
 
>  <homo_lumo_gap> 
4.974 
 
>  <logP> 
2.408 
 
>  <lumo_energy> 
-1.336 
 
>  <melting_point> 
15.11 
 
>  <molecular_refractivity> 
47.76 
 
>  <oscillator_strength_1> 
0.0002 
 
>  <oscillator_strength_2> 
0.1363 
 
>  <oscillator_strength_3> 
0.0094 
 
>  <oscillator_strength_4> 
0.0 
 
>  <open_babel_can_smiles> 
CCCCCOC(=S)S 
 
>  <mulliken_charges> 
21 
1   -0.442928 
2   -0.255222 
3   -0.261662 
4   -0.282497 
5   -0.047661 
6   0.064382 
7   -0.408189 
8   -0.172546 
9   0.048661 
10   0.147766 
11   0.145531 
12   0.14407 
13   0.140621 
14   0.135364 
15   0.140781 
16   0.136389 
17   0.149474 
18   0.151025 
19   0.175523 
20   0.181462 
21   0.109655 
 
>  <lowdin_charges> 
21 
1   -0.443594 
2   -0.277407 
3   -0.276094 
4   -0.282015 
5   -0.120623 
6   -0.114106 
7   -0.169084 
8   -0.141907 
9   0.050604 
10   0.151386 
11   0.148665 
12   0.148726 
13   0.143264 
14   0.141285 
15   0.149169 
16   0.142041 
17   0.150228 
18   0.151708 
19   0.160778 
20   0.16091 
21   0.12607 
 
$$$$ 
 
