PCCDB-ID:  11510 
public computational chemistry database (PCCDB) project, http://pccdb.org 
 
 14 13  0  0  0  0  0  0  0  0999 V2000 
    0.5215    0.2220    0.3317 C   0  0  0  0  0  0  0  0  0  0  0  0 
    2.0368    0.1888    0.2678 C   0  0  0  0  0  0  0  0  0  0  0  0 
    3.7369   -1.4700    0.5684 C   0  0  0  0  0  0  0  0  0  0  0  0 
    4.2346   -2.6258    0.8045 N   0  0  0  0  0  0  0  0  0  0  0  0 
    4.5773   -0.4394    0.2980 O   0  0  0  0  0  0  0  0  0  0  0  0 
    3.2153   -3.5834    1.0661 O   0  0  0  0  0  0  0  0  0  0  0  0 
    2.4384   -1.1683    0.5617 O   0  0  0  0  0  0  0  0  0  0  0  0 
    0.1642    1.2357    0.1196 H   0  0  0  0  0  0  0  0  0  0  0  0 
    0.1686   -0.0709    1.3252 H   0  0  0  0  0  0  0  0  0  0  0  0 
    0.0868   -0.4616   -0.4039 H   0  0  0  0  0  0  0  0  0  0  0  0 
    2.4862    0.8664    1.0014 H   0  0  0  0  0  0  0  0  0  0  0  0 
    2.4046    0.4680   -0.7251 H   0  0  0  0  0  0  0  0  0  0  0  0 
    5.4752   -0.8132    0.3388 H   0  0  0  0  0  0  0  0  0  0  0  0 
    3.7468   -4.3787    1.2197 H   0  0  0  0  0  0  0  0  0  0  0  0 
  1  9  1  0  0  0  0 
  2  1  1  0  0  0  0 
  2  7  1  0  0  0  0 
  2 11  1  0  0  0  0 
  3  4  2  0  0  0  0 
  4  6  1  0  0  0  0 
  5 13  1  0  0  0  0 
  5  3  1  0  0  0  0 
  6 14  1  0  0  0  0 
  7  3  1  0  0  0  0 
  8  1  1  0  0  0  0 
 10  1  1  0  0  0  0 
 12  2  1  0  0  0  0 
M  END 
>  <HBA> 
4 
 
>  <HBD> 
2 
 
>  <TPSA> 
58.56 
 
>  <cid> 
11510 
 
>  <dipole> 
1.62 
 
>  <excitation_energy_1> 
5.192 
 
>  <excitation_energy_2> 
5.503 
 
>  <excitation_energy_3> 
5.929 
 
>  <excitation_energy_4> 
6.524 
 
>  <homo_energy> 
-5.668 
 
>  <homo_lumo_gap> 
7.285 
 
>  <logP> 
0.513 
 
>  <lumo_energy> 
1.616 
 
>  <melting_point> 
79.29 
 
>  <molecular_refractivity> 
21.74 
 
>  <oscillator_strength_1> 
0.0014 
 
>  <oscillator_strength_2> 
0.0006 
 
>  <oscillator_strength_3> 
0.0 
 
>  <oscillator_strength_4> 
0.0346 
 
>  <open_babel_can_smiles> 
CCO/C(=N\O)/O 
 
>  <mulliken_charges> 
14 
1   -0.459464 
2   -0.028227 
3   0.781581 
4   -0.352712 
5   -0.609319 
6   -0.513095 
7   -0.458808 
8   0.150447 
9   0.168328 
10   0.168201 
11   0.158299 
12   0.15814 
13   0.425627 
14   0.411003 
 
>  <lowdin_charges> 
14 
1   -0.447537 
2   -0.116126 
3   0.170453 
4   -0.18119 
5   -0.366772 
6   -0.391075 
7   -0.177148 
8   0.157926 
9   0.162106 
10   0.163583 
11   0.15116 
12   0.149162 
13   0.372658 
14   0.352798 
 
$$$$ 
 
