PCCDB-ID:  68075 
public computational chemistry database (PCCDB) project, http://pccdb.org 
 
 14 15  0  0  0  0  0  0  0  0999 V2000 
   -2.0692   -0.7288   -0.0017 C   0  0  0  0  0  0  0  0  0  0  0  0 
   -2.0955    0.7109   -0.0006 C   0  0  0  0  0  0  0  0  0  0  0  0 
   -0.9024   -1.4444   -0.0014 C   0  0  0  0  0  0  0  0  0  0  0  0 
   -0.9429    1.4511   -0.0002 C   0  0  0  0  0  0  0  0  0  0  0  0 
    0.3208   -0.7056   -0.0009 C   0  0  0  0  0  0  0  0  0  0  0  0 
    0.2694    0.7186   -0.0008 C   0  0  0  0  0  0  0  0  0  0  0  0 
    1.5701   -1.1498   -0.0003 N   0  0  0  0  0  0  0  0  0  0  0  0 
    1.5382    1.1586    0.0003 N   0  0  0  0  0  0  0  0  0  0  0  0 
    2.0701    2.2599    0.0012 O   0  0  0  0  0  0  0  0  0  0  0  0 
    2.3638   -0.0313    0.0002 O   0  0  0  0  0  0  0  0  0  0  0  0 
   -3.0174   -1.2585   -0.0033 H   0  0  0  0  0  0  0  0  0  0  0  0 
   -3.0577    1.2135    0.0011 H   0  0  0  0  0  0  0  0  0  0  0  0 
   -0.8836   -2.5286   -0.0008 H   0  0  0  0  0  0  0  0  0  0  0  0 
   -0.9325    2.5353    0.0005 H   0  0  0  0  0  0  0  0  0  0  0  0 
  1  3  2  0  0  0  0 
  1  2  1  0  0  0  0 
  2  4  1  0  0  0  0 
  2 12  1  0  0  0  0 
  3  5  1  0  0  0  0 
  3 13  1  0  0  0  0 
  4 14  1  0  0  0  0 
  5  6  1  0  0  0  0 
  5  7  2  0  0  0  0 
  6  4  2  0  0  0  0 
  6  8  1  0  0  0  0 
  7 10  1  0  0  0  0 
  8  9  1  0  0  0  0 
 10  8  1  0  0  0  0 
 11  1  1  0  0  0  0 
M  RAD  2   2   2   9   2 
M  END 
>  <HBA> 
3 
 
>  <HBD> 
0 
 
>  <TPSA> 
51.49 
 
>  <cid> 
68075 
 
>  <dipole> 
4.63 
 
>  <excitation_energy_1> 
3.354 
 
>  <excitation_energy_2> 
4.127 
 
>  <excitation_energy_3> 
4.649 
 
>  <excitation_energy_4> 
4.929 
 
>  <homo_energy> 
-6.155 
 
>  <homo_lumo_gap> 
3.573 
 
>  <logP> 
1.256 
 
>  <lumo_energy> 
-2.582 
 
>  <melting_point> 
77.89 
 
>  <molecular_refractivity> 
35.17 
 
>  <oscillator_strength_1> 
0.1005 
 
>  <oscillator_strength_2> 
0.0005 
 
>  <oscillator_strength_3> 
0.0224 
 
>  <oscillator_strength_4> 
0.003 
 
>  <open_babel_can_smiles> 
[O]n1onc2c1=C[CH]C=C2 
 
>  <mulliken_charges> 
14 
1   -0.1396 
2   -0.148381 
3   -0.132554 
4   -0.122076 
5   0.271744 
6   0.356132 
7   -0.252238 
8   0.196855 
9   -0.451984 
10   -0.224621 
11   0.152507 
12   0.152942 
13   0.165656 
14   0.175618 
 
>  <lowdin_charges> 
14 
1   -0.138271 
2   -0.149172 
3   -0.147417 
4   -0.139442 
5   0.009929 
6   -0.017652 
7   -0.069516 
8   0.263044 
9   -0.253215 
10   -0.058686 
11   0.170222 
12   0.170516 
13   0.17776 
14   0.181901 
 
$$$$ 
 
