PCCDB-ID:  38131 
public computational chemistry database (PCCDB) project, http://pccdb.org 
 
 23 23  0  0  0  0  0  0  0  0999 V2000 
    0.9964    0.1204   -0.1671 C   0  0  0  0  0  0  0  0  0  0  0  0 
    2.8877    1.5375    0.2311 C   0  0  0  0  0  0  0  0  0  0  0  0 
    5.6447   -3.9561    2.8429 C   0  0  0  0  0  0  0  0  0  0  0  0 
    5.3645   -3.4125    1.5444 C   0  0  0  0  0  0  0  0  0  0  0  0 
    4.4476   -1.0583    0.8213 C   0  0  0  0  0  0  0  0  0  0  0  0 
    2.9336   -0.7889    0.9400 C   0  0  0  0  0  0  0  0  0  0  0  0 
    5.3459   -2.9734    3.7334 C   0  0  0  0  0  0  0  0  0  0  0  0 
    4.9170   -2.1379    1.7378 C   0  0  0  0  0  0  0  0  0  0  0  0 
    2.4480    0.1756   -0.0464 N   0  0  0  0  0  0  0  0  0  0  0  0 
    4.9012   -1.8586    3.0817 O   0  0  0  0  0  0  0  0  0  0  0  0 
    0.6681    0.7999   -0.9615 H   0  0  0  0  0  0  0  0  0  0  0  0 
    0.4665    0.4046    0.7640 H   0  0  0  0  0  0  0  0  0  0  0  0 
    0.6848   -0.8941   -0.4382 H   0  0  0  0  0  0  0  0  0  0  0  0 
    2.5185    2.2058   -0.5544 H   0  0  0  0  0  0  0  0  0  0  0  0 
    3.9798    1.5992    0.2292 H   0  0  0  0  0  0  0  0  0  0  0  0 
    2.5240    1.9210    1.2057 H   0  0  0  0  0  0  0  0  0  0  0  0 
    6.0221   -4.9425    3.0746 H   0  0  0  0  0  0  0  0  0  0  0  0 
    5.4826   -3.9059    0.5894 H   0  0  0  0  0  0  0  0  0  0  0  0 
    5.0122   -0.1404    1.0275 H   0  0  0  0  0  0  0  0  0  0  0  0 
    4.6718   -1.3491   -0.2103 H   0  0  0  0  0  0  0  0  0  0  0  0 
    2.6962   -0.4789    1.9767 H   0  0  0  0  0  0  0  0  0  0  0  0 
    2.4086   -1.7353    0.7666 H   0  0  0  0  0  0  0  0  0  0  0  0 
    5.3920   -2.8997    4.8093 H   0  0  0  0  0  0  0  0  0  0  0  0 
  1  9  1  0  0  0  0 
  1 12  1  0  0  0  0 
  2 16  1  0  0  0  0 
  3 17  1  0  0  0  0 
  3  7  2  0  0  0  0 
  4  8  2  0  0  0  0 
  4  3  1  0  0  0  0 
  5  6  1  0  0  0  0 
  5 19  1  0  0  0  0 
  5  8  1  0  0  0  0 
  6 21  1  0  0  0  0 
  7 23  1  0  0  0  0 
  8 10  1  0  0  0  0 
  9  2  1  0  0  0  0 
  9  6  1  0  0  0  0 
 10  7  1  0  0  0  0 
 11  1  1  0  0  0  0 
 13  1  1  0  0  0  0 
 14  2  1  0  0  0  0 
 15  2  1  0  0  0  0 
 18  4  1  0  0  0  0 
 20  5  1  0  0  0  0 
 22  6  1  0  0  0  0 
M  END 
>  <HBA> 
2 
 
>  <HBD> 
0 
 
>  <TPSA> 
16.38 
 
>  <cid> 
38131 
 
>  <dipole> 
0.3 
 
>  <excitation_energy_1> 
5.24 
 
>  <excitation_energy_2> 
5.473 
 
>  <excitation_energy_3> 
5.596 
 
>  <excitation_energy_4> 
5.73 
 
>  <homo_energy> 
-5.652 
 
>  <homo_lumo_gap> 
6.245 
 
>  <logP> 
1.384 
 
>  <lumo_energy> 
0.593 
 
>  <melting_point> 
7.02 
 
>  <molecular_refractivity> 
40.99 
 
>  <oscillator_strength_1> 
0.0213 
 
>  <oscillator_strength_2> 
0.0033 
 
>  <oscillator_strength_3> 
0.037 
 
>  <oscillator_strength_4> 
0.0659 
 
>  <open_babel_can_smiles> 
CN(CCc1ccco1)C 
 
>  <mulliken_charges> 
23 
1   -0.294331 
2   -0.301995 
3   -0.181734 
4   -0.210941 
5   -0.352925 
6   -0.111318 
7   0.079111 
8   0.342729 
9   -0.369992 
10   -0.440091 
11   0.147389 
12   0.118206 
13   0.149122 
14   0.148759 
15   0.152813 
16   0.118763 
17   0.137264 
18   0.133999 
19   0.157377 
20   0.162047 
21   0.125212 
22   0.141032 
23   0.149506 
 
>  <lowdin_charges> 
23 
1   -0.35592 
2   -0.357587 
3   -0.205611 
4   -0.223554 
5   -0.279627 
6   -0.197872 
7   -0.084824 
8   0.068468 
9   -0.185128 
10   -0.109444 
11   0.150121 
12   0.120874 
13   0.148966 
14   0.151863 
15   0.147971 
16   0.120651 
17   0.166658 
18   0.165933 
19   0.157679 
20   0.163632 
21   0.122816 
22   0.147577 
23   0.166359 
 
$$$$ 
 
