PCCDB-ID:  31242 
public computational chemistry database (PCCDB) project, http://pccdb.org 
 
 19 19  0  0  0  0  0  0  0  0999 V2000 
    1.0543   -0.6977    0.3714 C   0  0  0  0  0  0  0  0  0  0  0  0 
    2.4402   -0.0827    0.1065 C   0  0  0  0  0  0  0  0  0  0  0  0 
    3.7338    0.1041    2.2843 C   0  0  0  0  0  0  0  0  0  0  0  0 
    2.6883    2.0799    1.4198 C   0  0  0  0  0  0  0  0  0  0  0  0 
    4.1942    0.8229    3.3880 C   0  0  0  0  0  0  0  0  0  0  0  0 
    3.1385    2.8138    2.5135 C   0  0  0  0  0  0  0  0  0  0  0  0 
    2.9721    0.7131    1.2805 C   0  0  0  0  0  0  0  0  0  0  0  0 
    3.8959    2.1833    3.5058 C   0  0  0  0  0  0  0  0  0  0  0  0 
    4.3209    2.9480    4.5600 O   0  0  0  0  0  0  0  0  0  0  0  0 
    0.7021   -1.2640   -0.4990 H   0  0  0  0  0  0  0  0  0  0  0  0 
    0.3153    0.0808    0.5925 H   0  0  0  0  0  0  0  0  0  0  0  0 
    1.0852   -1.3780    1.2301 H   0  0  0  0  0  0  0  0  0  0  0  0 
    2.3824    0.5642   -0.7784 H   0  0  0  0  0  0  0  0  0  0  0  0 
    3.1468   -0.8846   -0.1437 H   0  0  0  0  0  0  0  0  0  0  0  0 
    3.9783   -0.9532    2.2045 H   0  0  0  0  0  0  0  0  0  0  0  0 
    2.1042    2.5831    0.6519 H   0  0  0  0  0  0  0  0  0  0  0  0 
    4.7899    0.3274    4.1532 H   0  0  0  0  0  0  0  0  0  0  0  0 
    2.9194    3.8725    2.6123 H   0  0  0  0  0  0  0  0  0  0  0  0 
    4.8242    2.3869    5.1700 H   0  0  0  0  0  0  0  0  0  0  0  0 
  1 11  1  0  0  0  0 
  1 12  1  0  0  0  0 
  2  1  1  0  0  0  0 
  2  7  1  0  0  0  0 
  3  5  2  0  0  0  0 
  4  6  1  0  0  0  0 
  5  8  1  0  0  0  0 
  5 17  1  0  0  0  0 
  6 18  1  0  0  0  0 
  6  8  2  0  0  0  0 
  7  4  2  0  0  0  0 
  7  3  1  0  0  0  0 
  8  9  1  0  0  0  0 
  9 19  1  0  0  0  0 
 10  1  1  0  0  0  0 
 13  2  1  0  0  0  0 
 14  2  1  0  0  0  0 
 15  3  1  0  0  0  0 
 16  4  1  0  0  0  0 
M  END 
>  <HBA> 
1 
 
>  <HBD> 
1 
 
>  <TPSA> 
20.23 
 
>  <cid> 
31242 
 
>  <dipole> 
1.36 
 
>  <excitation_energy_1> 
4.937 
 
>  <excitation_energy_2> 
5.078 
 
>  <excitation_energy_3> 
5.445 
 
>  <excitation_energy_4> 
5.73 
 
>  <homo_energy> 
-5.755 
 
>  <homo_lumo_gap> 
5.818 
 
>  <logP> 
1.955 
 
>  <lumo_energy> 
0.063 
 
>  <melting_point> 
47.46 
 
>  <molecular_refractivity> 
38.24 
 
>  <oscillator_strength_1> 
0.0331 
 
>  <oscillator_strength_2> 
0.0006 
 
>  <oscillator_strength_3> 
0.0682 
 
>  <oscillator_strength_4> 
0.0384 
 
>  <open_babel_can_smiles> 
CCc1ccc(cc1)O 
 
>  <mulliken_charges> 
19 
1   -0.431342 
2   -0.340225 
3   -0.189254 
4   -0.189178 
5   -0.192216 
6   -0.15656 
7   0.175416 
8   0.346622 
9   -0.644972 
10   0.140988 
11   0.148252 
12   0.146846 
13   0.14109 
14   0.140102 
15   0.12263 
16   0.123345 
17   0.115486 
18   0.137303 
19   0.405667 
 
>  <lowdin_charges> 
19 
1   -0.443204 
2   -0.271221 
3   -0.15461 
4   -0.156139 
5   -0.215175 
6   -0.184179 
7   -0.021081 
8   0.099019 
9   -0.383408 
10   0.148553 
11   0.150815 
12   0.149743 
13   0.147936 
14   0.147963 
15   0.153062 
16   0.156424 
17   0.152759 
18   0.164608 
19   0.358134 
 
$$$$ 
 
