PCCDB-ID:  36912 
public computational chemistry database (PCCDB) project, http://pccdb.org 
 
 43 45  0  0  1  0  0  0  0  0999 V2000 
    1.0864    0.2230   -1.2233 C   0  0  0  0  0  0  0  0  0  0  0  0 
    2.4693   -1.9848   -4.3420 C   0  0  0  0  0  0  0  0  0  0  0  0 
    2.2195   -3.3411    2.4692 C   0  0  0  0  0  0  0  0  0  0  0  0 
    1.5171   -2.0438    2.9501 C   0  0  0  0  0  0  0  0  0  0  0  0 
    1.8206   -3.4228    0.9730 C   0  0  0  0  0  0  0  0  0  0  0  0 
    0.8472   -1.4857    1.6605 C   0  0  0  0  0  0  0  0  0  0  0  0 
    3.5697    0.9023   -1.0596 C   0  0  0  0  0  0  0  0  0  0  0  0 
    4.0146   -0.4944   -3.2344 C   0  0  0  0  0  0  0  0  0  0  0  0 
    3.2160   -2.5286   -2.1146 C   0  0  0  0  0  0  0  0  0  0  0  0 
    2.3719    0.1741   -0.3788 C   0  0  2  0  0  0  0  0  0  0  0  0 
    4.5438    0.0445   -1.8942 C   0  0  2  0  0  0  0  0  0  0  0  0 
    3.7646   -2.0127   -0.7702 C   0  0  2  0  0  0  0  0  0  0  0  0 
    2.7856   -1.2425    0.1581 C   0  0  2  0  0  0  0  0  0  0  0  0 
    5.0056   -1.1533   -1.0688 C   0  0  2  0  0  0  0  0  0  0  0  0 
    2.9365   -1.4628   -3.0712 N   0  0  0  0  0  0  0  0  0  0  0  0 
    1.5841   -2.0440    0.5081 N   0  0  0  0  0  0  0  0  0  0  0  0 
    5.6732   -0.6774    0.0997 O   0  0  0  0  0  0  0  0  0  0  0  0 
    0.8472    1.2703   -1.4508 H   0  0  0  0  0  0  0  0  0  0  0  0 
    0.2370   -0.2076   -0.6865 H   0  0  0  0  0  0  0  0  0  0  0  0 
    1.2067   -0.3198   -2.1616 H   0  0  0  0  0  0  0  0  0  0  0  0 
    2.1693   -1.1583   -4.9960 H   0  0  0  0  0  0  0  0  0  0  0  0 
    1.5958   -2.6262   -4.1808 H   0  0  0  0  0  0  0  0  0  0  0  0 
    3.2378   -2.5806   -4.8757 H   0  0  0  0  0  0  0  0  0  0  0  0 
    1.9023   -4.2296    3.0256 H   0  0  0  0  0  0  0  0  0  0  0  0 
    3.3071   -3.2637    2.5812 H   0  0  0  0  0  0  0  0  0  0  0  0 
    2.2408   -1.3308    3.3588 H   0  0  0  0  0  0  0  0  0  0  0  0 
    0.7765   -2.2329    3.7343 H   0  0  0  0  0  0  0  0  0  0  0  0 
    0.8648   -3.9576    0.8836 H   0  0  0  0  0  0  0  0  0  0  0  0 
    2.5389   -3.9588    0.3520 H   0  0  0  0  0  0  0  0  0  0  0  0 
    0.8185   -0.3959    1.6301 H   0  0  0  0  0  0  0  0  0  0  0  0 
   -0.1901   -1.8410    1.5999 H   0  0  0  0  0  0  0  0  0  0  0  0 
    4.1775    1.3703   -0.2774 H   0  0  0  0  0  0  0  0  0  0  0  0 
    3.1795    1.7202   -1.6796 H   0  0  0  0  0  0  0  0  0  0  0  0 
    4.8713   -0.9324   -3.7911 H   0  0  0  0  0  0  0  0  0  0  0  0 
    3.6353    0.3348   -3.8460 H   0  0  0  0  0  0  0  0  0  0  0  0 
    2.2855   -3.0824   -1.9495 H   0  0  0  0  0  0  0  0  0  0  0  0 
    3.9559   -3.2510   -2.5237 H   0  0  0  0  0  0  0  0  0  0  0  0 
    2.1580    0.7757    0.5157 H   0  0  0  0  0  0  0  0  0  0  0  0 
    5.4180    0.6670   -2.1269 H   0  0  0  0  0  0  0  0  0  0  0  0 
    4.1130   -2.8995   -0.2220 H   0  0  0  0  0  0  0  0  0  0  0  0 
    3.3907   -1.0401    1.0600 H   0  0  0  0  0  0  0  0  0  0  0  0 
    5.7079   -1.7562   -1.6696 H   0  0  0  0  0  0  0  0  0  0  0  0 
    5.9205   -1.4496    0.6327 H   0  0  0  0  0  0  0  0  0  0  0  0 
  1 19  1  0  0  0  0 
  1 10  1  0  0  0  0 
  2 22  1  0  0  0  0 
  2 15  1  0  0  0  0 
  3 25  1  0  0  0  0 
  3  4  1  0  0  0  0 
  3 24  1  0  0  0  0 
  4 26  1  0  0  0  0 
  4 27  1  0  0  0  0 
  5  3  1  0  0  0  0 
  6  4  1  0  0  0  0 
  7 10  1  0  0  0  0 
  7 32  1  0  0  0  0 
  8 15  1  0  0  0  0 
  8 11  1  0  0  0  0 
  9 36  1  0  0  0  0 
  9 12  1  0  0  0  0 
 10 13  1  0  0  0  0 
 10 38  1  1  0  0  0 
 11 39  1  6  0  0  0 
 11 14  1  0  0  0  0 
 11  7  1  0  0  0  0 
 12 40  1  1  0  0  0 
 12 13  1  0  0  0  0 
 13 16  1  0  0  0  0 
 13 41  1  1  0  0  0 
 14 42  1  6  0  0  0 
 14 12  1  0  0  0  0 
 14 17  1  0  0  0  0 
 15  9  1  0  0  0  0 
 16  5  1  0  0  0  0 
 16  6  1  0  0  0  0 
 17 43  1  0  0  0  0 
 18  1  1  0  0  0  0 
 20  1  1  0  0  0  0 
 21  2  1  0  0  0  0 
 23  2  1  0  0  0  0 
 28  5  1  0  0  0  0 
 29  5  1  0  0  0  0 
 30  6  1  0  0  0  0 
 31  6  1  0  0  0  0 
 33  7  1  0  0  0  0 
 34  8  1  0  0  0  0 
 35  8  1  0  0  0  0 
 37  9  1  0  0  0  0 
M  END 
>  <HBA> 
3 
 
>  <HBD> 
1 
 
>  <TPSA> 
26.71 
 
>  <cid> 
36912 
 
>  <dipole> 
1.84 
 
>  <excitation_energy_1> 
4.686 
 
>  <excitation_energy_2> 
4.865 
 
>  <excitation_energy_3> 
5.123 
 
>  <excitation_energy_4> 
5.147 
 
>  <homo_energy> 
-5.472 
 
>  <homo_lumo_gap> 
6.95 
 
>  <logP> 
0.905 
 
>  <lumo_energy> 
1.478 
 
>  <melting_point> 
59.75 
 
>  <molecular_refractivity> 
77.85 
 
>  <oscillator_strength_1> 
0.0114 
 
>  <oscillator_strength_2> 
0.0175 
 
>  <oscillator_strength_3> 
0.0233 
 
>  <oscillator_strength_4> 
0.0049 
 
>  <open_babel_can_smiles> 
CN1C[C@H]2C[C@H]([C@H]([C@@H](C1)[C@@H]2O)N1CCCC1)C 
 
>  <mulliken_charges> 
43 
1   -0.453497 
2   -0.291169 
3   -0.282048 
4   -0.285674 
5   -0.14889 
6   -0.149726 
7   -0.277224 
8   -0.118295 
9   -0.111982 
10   -0.091281 
11   -0.110221 
12   -0.178288 
13   0.081436 
14   0.138983 
15   -0.37962 
16   -0.406881 
17   -0.636101 
18   0.115672 
19   0.143913 
20   0.179612 
21   0.148124 
22   0.150779 
23   0.116094 
24   0.13592 
25   0.131147 
26   0.141689 
27   0.136607 
28   0.139985 
29   0.140081 
30   0.14904 
31   0.139344 
32   0.150593 
33   0.125454 
34   0.102844 
35   0.136991 
36   0.15711 
37   0.098795 
38   0.117686 
39   0.130814 
40   0.112386 
41   0.106942 
42   0.10526 
43   0.3876 
 
>  <lowdin_charges> 
43 
1   -0.46348 
2   -0.356925 
3   -0.301007 
4   -0.304207 
5   -0.214949 
6   -0.20835 
7   -0.281577 
8   -0.201616 
9   -0.202888 
10   -0.129866 
11   -0.140151 
12   -0.159753 
13   -0.067192 
14   -0.014274 
15   -0.174257 
16   -0.192485 
17   -0.461855 
18   0.134561 
19   0.150205 
20   0.164225 
21   0.150802 
22   0.151493 
23   0.120961 
24   0.147205 
25   0.137441 
26   0.146659 
27   0.147805 
28   0.141472 
29   0.147598 
30   0.150139 
31   0.139376 
32   0.154942 
33   0.144264 
34   0.114864 
35   0.145438 
36   0.154505 
37   0.113899 
38   0.136086 
39   0.150894 
40   0.137992 
41   0.124353 
42   0.125429 
43   0.342224 
 
$$$$ 
 
