PCCDB-ID:  66296 
public computational chemistry database (PCCDB) project, http://pccdb.org 
 
 12 11  0  0  0  0  0  0  0  0999 V2000 
    0.3079   -1.0954    1.3658 C   0  0  0  0  0  0  0  0  0  0  0  0 
    2.4337    0.4385    1.6317 C   0  0  0  0  0  0  0  0  0  0  0  0 
    1.3458   -0.2024    0.7348 C   0  0  0  0  0  0  0  0  0  0  0  0 
    2.3236    0.0541    3.0730 N   0  0  0  0  0  0  0  0  0  0  0  0 
    1.3923    0.0603   -0.4456 O   0  0  0  0  0  0  0  0  0  0  0  0 
    2.9050   -0.9699    3.4246 O   0  0  0  0  0  0  0  0  0  0  0  0 
    1.6199    0.7621    3.7895 O   0  0  0  0  0  0  0  0  0  0  0  0 
   -0.2436   -0.5478    2.1396 H   0  0  0  0  0  0  0  0  0  0  0  0 
    0.7913   -1.9467    1.8600 H   0  0  0  0  0  0  0  0  0  0  0  0 
   -0.3791   -1.4498    0.5961 H   0  0  0  0  0  0  0  0  0  0  0  0 
    2.3417    1.5241    1.5768 H   0  0  0  0  0  0  0  0  0  0  0  0 
    3.4152    0.1154    1.2827 H   0  0  0  0  0  0  0  0  0  0  0  0 
  1  9  1  0  0  0  0 
  1  8  1  0  0  0  0 
  2  4  1  0  0  0  0 
  3  1  1  0  0  0  0 
  3  2  1  0  0  0  0 
  4  6  2  0  0  0  0 
  4  7  2  0  0  0  0 
  5  3  2  0  0  0  0 
 10  1  1  0  0  0  0 
 11  2  1  0  0  0  0 
 12  2  1  0  0  0  0 
M  END 
>  <HBA> 
1 
 
>  <HBD> 
0 
 
>  <TPSA> 
62.89 
 
>  <cid> 
66296 
 
>  <dipole> 
0.9 
 
>  <excitation_energy_1> 
4.0 
 
>  <excitation_energy_2> 
4.177 
 
>  <excitation_energy_3> 
4.501 
 
>  <excitation_energy_4> 
4.732 
 
>  <homo_energy> 
-7.633 
 
>  <homo_lumo_gap> 
5.323 
 
>  <logP> 
0.375 
 
>  <lumo_energy> 
-2.31 
 
>  <melting_point> 
27.58 
 
>  <molecular_refractivity> 
24.84 
 
>  <oscillator_strength_1> 
0.0 
 
>  <oscillator_strength_2> 
0.0165 
 
>  <oscillator_strength_3> 
0.0 
 
>  <oscillator_strength_4> 
0.0269 
 
>  <open_babel_can_smiles> 
CC(=O)CN(=O)=O 
 
>  <mulliken_charges> 
12 
1   -0.548305 
2   -0.235371 
3   0.452982 
4   0.43302 
5   -0.408582 
6   -0.368766 
7   -0.368336 
8   0.19948 
9   0.200231 
10   0.195588 
11   0.223976 
12   0.224083 
 
>  <lowdin_charges> 
12 
1   -0.480797 
2   -0.252884 
3   0.173264 
4   0.295059 
5   -0.204858 
6   -0.242654 
7   -0.243389 
8   0.187555 
9   0.187752 
10   0.184541 
11   0.19733 
12   0.199082 
 
$$$$ 
 
