PCCDB-ID:  8431 
public computational chemistry database (PCCDB) project, http://pccdb.org 
 
 25 25  0  0  0  0  0  0  0  0999 V2000 
    1.6450    1.8382    0.2212 C   0  0  0  0  0  0  0  0  0  0  0  0 
    2.1736    1.0232   -0.9498 C   0  0  0  0  0  0  0  0  0  0  0  0 
    6.3850   -2.2561   -0.5014 C   0  0  0  0  0  0  0  0  0  0  0  0 
    7.8708   -0.3901   -0.8807 C   0  0  0  0  0  0  0  0  0  0  0  0 
    5.3807   -1.3479    0.2138 C   0  0  0  0  0  0  0  0  0  0  0  0 
    6.9019    0.5587   -0.1736 C   0  0  0  0  0  0  0  0  0  0  0  0 
    4.5196    0.8600   -0.6151 C   0  0  0  0  0  0  0  0  0  0  0  0 
    7.7368   -1.7302   -0.3042 N   0  0  0  0  0  0  0  0  0  0  0  0 
    5.5417    0.0294   -0.2501 N   0  0  0  0  0  0  0  0  0  0  0  0 
    4.6580    2.0259   -0.9552 O   0  0  0  0  0  0  0  0  0  0  0  0 
    3.3140    0.2249   -0.5689 O   0  0  0  0  0  0  0  0  0  0  0  0 
    0.7316    2.3680   -0.0738 H   0  0  0  0  0  0  0  0  0  0  0  0 
    2.3867    2.5782    0.5342 H   0  0  0  0  0  0  0  0  0  0  0  0 
    1.4074    1.1898    1.0713 H   0  0  0  0  0  0  0  0  0  0  0  0 
    2.4566    1.6701   -1.7834 H   0  0  0  0  0  0  0  0  0  0  0  0 
    1.4362    0.2922   -1.2928 H   0  0  0  0  0  0  0  0  0  0  0  0 
    6.0999   -2.3224   -1.5691 H   0  0  0  0  0  0  0  0  0  0  0  0 
    6.3297   -3.2640   -0.0742 H   0  0  0  0  0  0  0  0  0  0  0  0 
    8.8981   -0.0399   -0.7290 H   0  0  0  0  0  0  0  0  0  0  0  0 
    7.6599   -0.3666   -1.9670 H   0  0  0  0  0  0  0  0  0  0  0  0 
    5.5667   -1.3928    1.2972 H   0  0  0  0  0  0  0  0  0  0  0  0 
    4.3596   -1.6726    0.0216 H   0  0  0  0  0  0  0  0  0  0  0  0 
    6.9046    1.5476   -0.6318 H   0  0  0  0  0  0  0  0  0  0  0  0 
    7.1988    0.6548    0.8812 H   0  0  0  0  0  0  0  0  0  0  0  0 
    8.4160   -2.3583   -0.7280 H   0  0  0  0  0  0  0  0  0  0  0  0 
  1 13  1  0  0  0  0 
  1 14  1  0  0  0  0 
  2 11  1  0  0  0  0 
  2  1  1  0  0  0  0 
  3  8  1  0  0  0  0 
  3 18  1  0  0  0  0 
  3  5  1  0  0  0  0 
  4 19  1  0  0  0  0 
  4  8  1  0  0  0  0 
  4  6  1  0  0  0  0 
  5 21  1  0  0  0  0 
  6 24  1  0  0  0  0 
  7 11  1  0  0  0  0 
  7  9  1  0  0  0  0 
  9  6  1  0  0  0  0 
  9  5  1  0  0  0  0 
 10  7  2  0  0  0  0 
 12  1  1  0  0  0  0 
 15  2  1  0  0  0  0 
 16  2  1  0  0  0  0 
 17  3  1  0  0  0  0 
 20  4  1  0  0  0  0 
 22  5  1  0  0  0  0 
 23  6  1  0  0  0  0 
 25  8  1  0  0  0  0 
M  END 
>  <HBA> 
4 
 
>  <HBD> 
1 
 
>  <TPSA> 
41.57 
 
>  <cid> 
8431 
 
>  <dipole> 
2.4 
 
>  <excitation_energy_1> 
5.431 
 
>  <excitation_energy_2> 
5.942 
 
>  <excitation_energy_3> 
6.094 
 
>  <excitation_energy_4> 
6.208 
 
>  <homo_energy> 
-6.104 
 
>  <homo_lumo_gap> 
7.712 
 
>  <logP> 
0.315 
 
>  <lumo_energy> 
1.608 
 
>  <melting_point> 
47.94 
 
>  <molecular_refractivity> 
48.85 
 
>  <oscillator_strength_1> 
0.0015 
 
>  <oscillator_strength_2> 
0.0212 
 
>  <oscillator_strength_3> 
0.0416 
 
>  <oscillator_strength_4> 
0.083 
 
>  <open_babel_can_smiles> 
CCOC(=O)N1CCNCC1 
 
>  <mulliken_charges> 
25 
1   -0.460567 
2   -0.032365 
3   -0.135413 
4   -0.137984 
5   -0.127476 
6   -0.129228 
7   0.79523 
8   -0.553817 
9   -0.469724 
10   -0.536097 
11   -0.497111 
12   0.145223 
13   0.178132 
14   0.151725 
15   0.170044 
16   0.144674 
17   0.121376 
18   0.141618 
19   0.142662 
20   0.123368 
21   0.149088 
22   0.179855 
23   0.187681 
24   0.148212 
25   0.300895 
 
>  <lowdin_charges> 
25 
1   -0.45827 
2   -0.126835 
3   -0.208226 
4   -0.206682 
5   -0.196054 
6   -0.195104 
7   0.203427 
8   -0.372063 
9   -0.11306 
10   -0.328827 
11   -0.216163 
12   0.156477 
13   0.167339 
14   0.153867 
15   0.159601 
16   0.149268 
17   0.120246 
18   0.148875 
19   0.149358 
20   0.120793 
21   0.142665 
22   0.170474 
23   0.176796 
24   0.14319 
25   0.25891 
 
$$$$ 
 
