PCCDB-ID:  61230 
public computational chemistry database (PCCDB) project, http://pccdb.org 
 
 25 26  0  0  0  0  0  0  0  0999 V2000 
   -1.7505   -0.0037    0.0765 C   0  0  0  0  0  0  0  0  0  0  0  0 
    4.5640    4.3378   -0.6698 C   0  0  0  0  0  0  0  0  0  0  0  0 
   -0.8736   -0.8748    0.7261 C   0  0  0  0  0  0  0  0  0  0  0  0 
   -1.2323    1.0662   -0.6555 C   0  0  0  0  0  0  0  0  0  0  0  0 
    5.1204    3.1578   -1.1673 C   0  0  0  0  0  0  0  0  0  0  0  0 
    3.3286    4.2893   -0.0214 C   0  0  0  0  0  0  0  0  0  0  0  0 
    0.5027   -0.6735    0.6541 C   0  0  0  0  0  0  0  0  0  0  0  0 
    0.1442    1.2648   -0.7428 C   0  0  0  0  0  0  0  0  0  0  0  0 
    4.4467    1.9468   -1.0281 C   0  0  0  0  0  0  0  0  0  0  0  0 
    2.6557    3.0788    0.1328 C   0  0  0  0  0  0  0  0  0  0  0  0 
    1.0363    0.3997   -0.0829 C   0  0  0  0  0  0  0  0  0  0  0  0 
    3.2019    1.8855   -0.3748 C   0  0  0  0  0  0  0  0  0  0  0  0 
    2.4974    0.5984   -0.1937 C   0  0  0  0  0  0  0  0  0  0  0  0 
    3.8971   -1.4170   -0.0657 N   0  0  0  0  0  0  0  0  0  0  0  0 
    3.2432   -0.4761   -0.1255 N   0  0  0  0  0  0  0  0  0  0  0  0 
   -2.8240   -0.1577    0.1390 H   0  0  0  0  0  0  0  0  0  0  0  0 
    5.0873    5.2828   -0.7849 H   0  0  0  0  0  0  0  0  0  0  0  0 
   -1.2616   -1.7106    1.3023 H   0  0  0  0  0  0  0  0  0  0  0  0 
   -1.9021    1.7467   -1.1748 H   0  0  0  0  0  0  0  0  0  0  0  0 
    6.0800    3.1793   -1.6770 H   0  0  0  0  0  0  0  0  0  0  0  0 
    2.8877    5.1981    0.3800 H   0  0  0  0  0  0  0  0  0  0  0  0 
    1.1705   -1.3512    1.1794 H   0  0  0  0  0  0  0  0  0  0  0  0 
    0.5338    2.0868   -1.3344 H   0  0  0  0  0  0  0  0  0  0  0  0 
    4.8867    1.0405   -1.4358 H   0  0  0  0  0  0  0  0  0  0  0  0 
    1.7074    3.0528    0.6595 H   0  0  0  0  0  0  0  0  0  0  0  0 
  1 16  1  0  0  0  0 
  1  3  2  0  0  0  0 
  2  6  2  0  0  0  0 
  3 18  1  0  0  0  0 
  4  1  1  0  0  0  0 
  5  9  2  0  0  0  0 
  5  2  1  0  0  0  0 
  6 10  1  0  0  0  0 
  6 21  1  0  0  0  0 
  7  3  1  0  0  0  0 
  7 22  1  0  0  0  0 
  8  4  2  0  0  0  0 
  8 11  1  0  0  0  0 
  9 12  1  0  0  0  0 
 10 25  1  0  0  0  0 
 11  7  2  0  0  0  0 
 12 13  1  0  0  0  0 
 12 10  2  0  0  0  0 
 13 15  1  0  0  0  0 
 13 11  1  0  0  0  0 
 15 14  1  0  0  0  0 
 17  2  1  0  0  0  0 
 19  4  1  0  0  0  0 
 20  5  1  0  0  0  0 
 23  8  1  0  0  0  0 
 24  9  1  0  0  0  0 
M  RAD  3  13   2  14   3  15   2 
M  END 
>  <HBA> 
0 
 
>  <HBD> 
0 
 
>  <TPSA> 
37.39 
 
>  <cid> 
61230 
 
>  <dipole> 
1.58 
 
>  <excitation_energy_1> 
2.281 
 
>  <excitation_energy_2> 
4.053 
 
>  <excitation_energy_3> 
4.164 
 
>  <excitation_energy_4> 
4.187 
 
>  <homo_energy> 
-5.208 
 
>  <homo_lumo_gap> 
3.701 
 
>  <logP> 
2.835 
 
>  <lumo_energy> 
-1.508 
 
>  <melting_point> 
86.81 
 
>  <molecular_refractivity> 
59.55 
 
>  <oscillator_strength_1> 
0.0014 
 
>  <oscillator_strength_2> 
0.0638 
 
>  <oscillator_strength_3> 
0.2003 
 
>  <oscillator_strength_4> 
0.0862 
 
>  <open_babel_can_smiles> 
[N][N][C](c1ccccc1)c1ccccc1 
 
>  <mulliken_charges> 
25 
1   -0.12864 
2   -0.128629 
3   -0.132221 
4   -0.135755 
5   -0.132087 
6   -0.135878 
7   -0.181421 
8   -0.182776 
9   -0.182572 
10   -0.184099 
11   0.144868 
12   0.146528 
13   0.079017 
14   -0.237067 
15   0.033736 
16   0.131189 
17   0.130995 
18   0.133894 
19   0.133158 
20   0.133773 
21   0.133026 
22   0.135022 
23   0.145652 
24   0.13478 
25   0.145508 
 
>  <lowdin_charges> 
25 
1   -0.160464 
2   -0.163063 
3   -0.150186 
4   -0.153628 
5   -0.148529 
6   -0.152702 
7   -0.171146 
8   -0.167212 
9   -0.170502 
10   -0.165934 
11   0.000762 
12   6.9e-05 
13   -0.085146 
14   -0.075275 
15   0.151621 
16   0.157302 
17   0.159122 
18   0.160678 
19   0.160997 
20   0.159391 
21   0.159997 
22   0.161157 
23   0.16693 
24   0.160065 
25   0.165695 
 
$$$$ 
 
