PCCDB-ID:  21857 
public computational chemistry database (PCCDB) project, http://pccdb.org 
 
 15 15  0  0  0  0  0  0  0  0999 V2000 
   -0.6104    1.0693    0.1639 C   0  0  0  0  0  0  0  0  0  0  0  0 
   -0.6156   -1.1476   -0.1305 C   0  0  0  0  0  0  0  0  0  0  0  0 
    1.2901    0.0036   -0.3397 C   0  0  0  0  0  0  0  0  0  0  0  0 
   -3.5770    2.3175    0.8855 N   0  0  0  0  0  0  0  0  0  0  0  0 
   -0.2679   -4.3897   -0.6286 N   0  0  0  0  0  0  0  0  0  0  0  0 
    3.9054    1.9994   -0.5812 N   0  0  0  0  0  0  0  0  0  0  0  0 
   -1.3341   -0.0571    0.1514 N   0  0  0  0  0  0  0  0  0  0  0  0 
    0.7004    1.1755   -0.0716 N   0  0  0  0  0  0  0  0  0  0  0  0 
    0.6980   -1.1931   -0.3857 N   0  0  0  0  0  0  0  0  0  0  0  0 
   -1.2420    2.2811    0.4465 N   0  0  0  0  0  0  0  0  0  0  0  0 
   -1.3539   -2.3315   -0.1484 N   0  0  0  0  0  0  0  0  0  0  0  0 
    2.6600   -0.0242   -0.6037 N   0  0  0  0  0  0  0  0  0  0  0  0 
   -2.4724    2.2093    0.6655 N   0  0  0  0  0  0  0  0  0  0  0  0 
   -0.7035   -3.3686   -0.4098 N   0  0  0  0  0  0  0  0  0  0  0  0 
    3.2380    1.0857   -0.5712 N   0  0  0  0  0  0  0  0  0  0  0  0 
  1 10  1  0  0  0  0 
  2  7  2  0  0  0  0 
  3  8  2  0  0  0  0 
  5 14  2  0  0  0  0 
  6 15  2  0  0  0  0 
  7  1  2  0  0  0  0 
  8  1  2  0  0  0  0 
  9  3  2  0  0  0  0 
  9  2  2  0  0  0  0 
 10 13  2  0  0  0  0 
 11  2  1  0  0  0  0 
 12 15  2  0  0  0  0 
 12  3  1  0  0  0  0 
 13  4  2  0  0  0  0 
 14 11  2  0  0  0  0 
M  RAD  3   4   2   5   2   6   2 
M  END 
>  <HBA> 
6 
 
>  <HBD> 
0 
 
>  <TPSA> 
187.92 
 
>  <cid> 
21857 
 
>  <dipole> 
0.0 
 
>  <excitation_energy_1> 
4.608 
 
>  <excitation_energy_2> 
4.608 
 
>  <excitation_energy_3> 
4.609 
 
>  <excitation_energy_4> 
4.616 
 
>  <homo_energy> 
-7.826 
 
>  <homo_lumo_gap> 
5.573 
 
>  <logP> 
1.055 
 
>  <lumo_energy> 
-2.253 
 
>  <melting_point> 
216.73 
 
>  <molecular_refractivity> 
36.44 
 
>  <oscillator_strength_1> 
0.0 
 
>  <oscillator_strength_2> 
0.0 
 
>  <oscillator_strength_3> 
0.0 
 
>  <oscillator_strength_4> 
0.001 
 
>  <open_babel_can_smiles> 
[N]=[N]=N[C]1=[N]=[C](=[N]=[C](=[N]=1)N=[N]=[N])N=[N]=[N] 
 
>  <mulliken_charges> 
15 
1   0.663583 
2   0.663657 
3   0.663463 
4   -0.194616 
5   -0.194619 
6   -0.194587 
7   -0.504959 
8   -0.50495 
9   -0.504883 
10   -0.439849 
11   -0.439898 
12   -0.439848 
13   0.475828 
14   0.475879 
15   0.475799 
 
>  <lowdin_charges> 
15 
1   0.14407 
2   0.144834 
3   0.145475 
4   -0.015152 
5   -0.017113 
6   -0.017618 
7   -0.204698 
8   -0.204533 
9   -0.204478 
10   -0.147503 
11   -0.152893 
12   -0.152537 
13   0.223256 
14   0.229956 
15   0.228933 
 
$$$$ 
 
