PCCDB-ID:  7440 
public computational chemistry database (PCCDB) project, http://pccdb.org 
 
 20 20  0  0  0  0  0  0  0  0999 V2000 
    0.9932   -0.0162    0.1936 C   0  0  0  0  0  0  0  0  0  0  0  0 
    2.4479    2.5403   -0.1405 C   0  0  0  0  0  0  0  0  0  0  0  0 
    3.2179   -1.1973    0.0723 C   0  0  0  0  0  0  0  0  0  0  0  0 
    4.6035   -1.2201   -0.0584 C   0  0  0  0  0  0  0  0  0  0  0  0 
    4.5774    1.2052   -0.2433 C   0  0  0  0  0  0  0  0  0  0  0  0 
    2.4948    0.0026    0.0487 C   0  0  0  0  0  0  0  0  0  0  0  0 
    3.1886    1.2250   -0.1111 C   0  0  0  0  0  0  0  0  0  0  0  0 
    5.2649   -0.0067   -0.2163 C   0  0  0  0  0  0  0  0  0  0  0  0 
    6.7266    0.0013   -0.3586 N   0  0  0  0  0  0  0  0  0  0  0  0 
    7.3112   -1.0823   -0.3329 O   0  0  0  0  0  0  0  0  0  0  0  0 
    7.2836    1.0911   -0.4960 O   0  0  0  0  0  0  0  0  0  0  0  0 
    0.6160   -1.0387    0.2837 H   0  0  0  0  0  0  0  0  0  0  0  0 
    0.5001    0.4503   -0.6685 H   0  0  0  0  0  0  0  0  0  0  0  0 
    0.6680    0.5413    1.0814 H   0  0  0  0  0  0  0  0  0  0  0  0 
    3.1405    3.3798   -0.2460 H   0  0  0  0  0  0  0  0  0  0  0  0 
    1.8670    2.6978    0.7771 H   0  0  0  0  0  0  0  0  0  0  0  0 
    1.7375    2.5853   -0.9762 H   0  0  0  0  0  0  0  0  0  0  0  0 
    2.6820   -2.1346    0.1958 H   0  0  0  0  0  0  0  0  0  0  0  0 
    5.1664   -2.1449   -0.0406 H   0  0  0  0  0  0  0  0  0  0  0  0 
    5.1380    2.1243   -0.3682 H   0  0  0  0  0  0  0  0  0  0  0  0 
  1 12  1  0  0  0  0 
  1 14  1  0  0  0  0 
  2  7  1  0  0  0  0 
  2 16  1  0  0  0  0 
  3 18  1  0  0  0  0 
  4 19  1  0  0  0  0 
  4  3  2  0  0  0  0 
  5  8  2  0  0  0  0 
  5  7  1  0  0  0  0 
  6  3  1  0  0  0  0 
  6  1  1  0  0  0  0 
  7  6  2  0  0  0  0 
  8  4  1  0  0  0  0 
  9 10  2  0  0  0  0 
  9  8  1  0  0  0  0 
 11  9  2  0  0  0  0 
 13  1  1  0  0  0  0 
 15  2  1  0  0  0  0 
 17  2  1  0  0  0  0 
 20  5  1  0  0  0  0 
M  END 
>  <HBA> 
0 
 
>  <HBD> 
0 
 
>  <TPSA> 
45.82 
 
>  <cid> 
7440 
 
>  <dipole> 
5.45 
 
>  <excitation_energy_1> 
3.751 
 
>  <excitation_energy_2> 
4.077 
 
>  <excitation_energy_3> 
4.278 
 
>  <excitation_energy_4> 
4.419 
 
>  <homo_energy> 
-7.132 
 
>  <homo_lumo_gap> 
4.879 
 
>  <logP> 
2.735 
 
>  <lumo_energy> 
-2.253 
 
>  <melting_point> 
51.79 
 
>  <molecular_refractivity> 
45.2 
 
>  <oscillator_strength_1> 
0.0 
 
>  <oscillator_strength_2> 
0.0292 
 
>  <oscillator_strength_3> 
0.0003 
 
>  <oscillator_strength_4> 
0.2407 
 
>  <open_babel_can_smiles> 
O=N(=O)c1ccc(c(c1)C)C 
 
>  <mulliken_charges> 
20 
1   -0.535712 
2   -0.534506 
3   -0.196412 
4   -0.149451 
5   -0.214779 
6   0.148878 
7   0.124485 
8   0.280956 
9   0.376039 
10   -0.398151 
11   -0.399084 
12   0.16357 
13   0.169487 
14   0.170133 
15   0.167578 
16   0.166356 
17   0.167064 
18   0.139545 
19   0.179239 
20   0.174763 
 
>  <lowdin_charges> 
20 
1   -0.442111 
2   -0.441613 
3   -0.160431 
4   -0.142149 
5   -0.15054 
6   0.014978 
7   -0.001948 
8   -0.000825 
9   0.309304 
10   -0.25093 
11   -0.251465 
12   0.161255 
13   0.165837 
14   0.165814 
15   0.16441 
16   0.16302 
17   0.163494 
18   0.163287 
19   0.186781 
20   0.183831 
 
$$$$ 
 
