PCCDB-ID:  36646 
public computational chemistry database (PCCDB) project, http://pccdb.org 
 
 29 28  0  0  1  0  0  0  0  0999 V2000 
    3.9820   -1.0880    2.7148 C   0  0  0  0  0  0  0  0  0  0  0  0 
    3.2042    4.2782    0.5517 C   0  0  0  0  0  0  0  0  0  0  0  0 
    4.6631    3.2063   -2.0387 C   0  0  0  0  0  0  0  0  0  0  0  0 
    3.7311   -0.4755    1.3331 C   0  0  0  0  0  0  0  0  0  0  0  0 
    4.6838    3.9034    0.4062 C   0  0  0  0  0  0  0  0  0  0  0  0 
    4.4889    0.8413    1.1143 C   0  0  0  0  0  0  0  0  0  0  0  0 
    4.2268    1.4541   -0.2686 C   0  0  0  0  0  0  0  0  0  0  0  0 
    6.5225    2.4930   -0.5170 C   0  0  0  0  0  0  0  0  0  0  0  0 
    5.0027    2.7623   -0.5948 C   0  0  1  0  0  0  0  0  0  0  0  0 
    7.2921    3.0888    0.1952 O   0  0  0  0  0  0  0  0  0  0  0  0 
    7.0036    1.5070   -1.3284 O   0  0  0  0  0  0  0  0  0  0  0  0 
    3.4304   -2.0263    2.8413 H   0  0  0  0  0  0  0  0  0  0  0  0 
    3.6676   -0.4058    3.5140 H   0  0  0  0  0  0  0  0  0  0  0  0 
    5.0468   -1.3036    2.8645 H   0  0  0  0  0  0  0  0  0  0  0  0 
    3.1031    5.1148    1.2518 H   0  0  0  0  0  0  0  0  0  0  0  0 
    2.6019    3.4525    0.9469 H   0  0  0  0  0  0  0  0  0  0  0  0 
    2.7554    4.5952   -0.3964 H   0  0  0  0  0  0  0  0  0  0  0  0 
    3.5947    3.4246   -2.1313 H   0  0  0  0  0  0  0  0  0  0  0  0 
    4.8941    2.4312   -2.7799 H   0  0  0  0  0  0  0  0  0  0  0  0 
    5.2199    4.1081   -2.3160 H   0  0  0  0  0  0  0  0  0  0  0  0 
    2.6538   -0.3023    1.1984 H   0  0  0  0  0  0  0  0  0  0  0  0 
    4.0229   -1.1959    0.5555 H   0  0  0  0  0  0  0  0  0  0  0  0 
    5.0900    3.6327    1.3855 H   0  0  0  0  0  0  0  0  0  0  0  0 
    5.2537    4.7864    0.0954 H   0  0  0  0  0  0  0  0  0  0  0  0 
    5.5656    0.6634    1.2449 H   0  0  0  0  0  0  0  0  0  0  0  0 
    4.2006    1.5548    1.8973 H   0  0  0  0  0  0  0  0  0  0  0  0 
    3.1545    1.6578   -0.3830 H   0  0  0  0  0  0  0  0  0  0  0  0 
    4.4512    0.6962   -1.0359 H   0  0  0  0  0  0  0  0  0  0  0  0 
    6.2804    1.1151   -1.8438 H   0  0  0  0  0  0  0  0  0  0  0  0 
  1 12  1  0  0  0  0 
  1 14  1  0  0  0  0 
  1 13  1  0  0  0  0 
  2 16  1  0  0  0  0 
  2 15  1  0  0  0  0 
  3  9  1  0  0  0  0 
  4  1  1  0  0  0  0 
  5  2  1  0  0  0  0 
  5 23  1  0  0  0  0 
  6 25  1  0  0  0  0 
  6  4  1  0  0  0  0 
  6 26  1  0  0  0  0 
  7  6  1  0  0  0  0 
  8 10  2  0  0  0  0 
  9  8  1  1  0  0  0 
  9  7  1  0  0  0  0 
  9  5  1  0  0  0  0 
 11  8  1  0  0  0  0 
 17  2  1  0  0  0  0 
 18  3  1  0  0  0  0 
 19  3  1  0  0  0  0 
 20  3  1  0  0  0  0 
 21  4  1  0  0  0  0 
 22  4  1  0  0  0  0 
 24  5  1  0  0  0  0 
 27  7  1  0  0  0  0 
 28  7  1  0  0  0  0 
 29 11  1  0  0  0  0 
M  END 
>  <HBA> 
2 
 
>  <HBD> 
1 
 
>  <TPSA> 
37.3 
 
>  <cid> 
36646 
 
>  <dipole> 
4.14 
 
>  <excitation_energy_1> 
5.606 
 
>  <excitation_energy_2> 
6.409 
 
>  <excitation_energy_3> 
7.099 
 
>  <excitation_energy_4> 
7.238 
 
>  <homo_energy> 
-7.127 
 
>  <homo_lumo_gap> 
7.508 
 
>  <logP> 
2.678 
 
>  <lumo_energy> 
0.381 
 
>  <melting_point> 
67.29 
 
>  <molecular_refractivity> 
46.89 
 
>  <oscillator_strength_1> 
0.0022 
 
>  <oscillator_strength_2> 
0.0107 
 
>  <oscillator_strength_3> 
0.0121 
 
>  <oscillator_strength_4> 
0.0342 
 
>  <open_babel_can_smiles> 
CCCC[C@](C(=O)O)(CC)C 
 
>  <mulliken_charges> 
29 
1   -0.443265 
2   -0.464171 
3   -0.461846 
4   -0.250327 
5   -0.250877 
6   -0.262969 
7   -0.278735 
8   0.616978 
9   -0.038749 
10   -0.449873 
11   -0.583553 
12   0.144335 
13   0.144248 
14   0.148024 
15   0.152391 
16   0.146101 
17   0.144123 
18   0.161408 
19   0.12832 
20   0.166124 
21   0.13155 
22   0.130852 
23   0.159466 
24   0.149154 
25   0.151701 
26   0.14397 
27   0.147023 
28   0.108767 
29   0.40983 
 
>  <lowdin_charges> 
29 
1   -0.443484 
2   -0.452683 
3   -0.442584 
4   -0.270102 
5   -0.272317 
6   -0.280602 
7   -0.275911 
8   0.195159 
9   -0.032102 
10   -0.238869 
11   -0.36246 
12   0.150883 
13   0.148739 
14   0.148302 
15   0.157228 
16   0.147943 
17   0.146761 
18   0.156894 
19   0.142347 
20   0.161364 
21   0.137197 
22   0.139433 
23   0.156979 
24   0.154773 
25   0.147608 
26   0.147249 
27   0.14778 
28   0.130483 
29   0.353992 
 
$$$$ 
 
