PCCDB-ID:  12723 
public computational chemistry database (PCCDB) project, http://pccdb.org 
 
 18 17  0  0  0  0  0  0  0  0999 V2000 
    0.8633    0.1314   -0.1323 C   0  0  0  0  0  0  0  0  0  0  0  0 
    4.9491   -3.7892    1.0539 C   0  0  0  0  0  0  0  0  0  0  0  0 
    5.3021   -2.1545    2.9707 C   0  0  0  0  0  0  0  0  0  0  0  0 
    2.1972    0.0086   -0.0560 C   0  0  0  0  0  0  0  0  0  0  0  0 
    2.8797   -0.9879    0.6971 C   0  0  0  0  0  0  0  0  0  0  0  0 
    3.4894   -1.8256    1.3275 C   0  0  0  0  0  0  0  0  0  0  0  0 
    4.2648   -2.8396    2.0589 C   0  0  0  0  0  0  0  0  0  0  0  0 
    3.3243   -3.5763    2.8593 O   0  0  0  0  0  0  0  0  0  0  0  0 
    0.4116    0.9190   -0.7274 H   0  0  0  0  0  0  0  0  0  0  0  0 
    0.1966   -0.5449    0.3940 H   0  0  0  0  0  0  0  0  0  0  0  0 
    5.6267   -3.2431    0.3898 H   0  0  0  0  0  0  0  0  0  0  0  0 
    4.1928   -4.2941    0.4470 H   0  0  0  0  0  0  0  0  0  0  0  0 
    5.5338   -4.5473    1.5914 H   0  0  0  0  0  0  0  0  0  0  0  0 
    5.9954   -1.5365    2.3915 H   0  0  0  0  0  0  0  0  0  0  0  0 
    5.8867   -2.9145    3.5053 H   0  0  0  0  0  0  0  0  0  0  0  0 
    4.7932   -1.5229    3.7038 H   0  0  0  0  0  0  0  0  0  0  0  0 
    2.8271    0.7116   -0.6017 H   0  0  0  0  0  0  0  0  0  0  0  0 
    3.8372   -4.2469    3.3404 H   0  0  0  0  0  0  0  0  0  0  0  0 
  1  4  2  0  0  0  0 
  1 10  1  0  0  0  0 
  2 13  1  0  0  0  0 
  2  7  1  0  0  0  0 
  3 15  1  0  0  0  0 
  3 16  1  0  0  0  0 
  4  5  1  0  0  0  0 
  5  6  3  0  0  0  0 
  6  7  1  0  0  0  0 
  7  8  1  0  0  0  0 
  7  3  1  0  0  0  0 
  8 18  1  0  0  0  0 
  9  1  1  0  0  0  0 
 11  2  1  0  0  0  0 
 12  2  1  0  0  0  0 
 14  3  1  0  0  0  0 
 17  4  1  0  0  0  0 
M  END 
>  <HBA> 
1 
 
>  <HBD> 
1 
 
>  <TPSA> 
20.23 
 
>  <cid> 
12723 
 
>  <dipole> 
1.74 
 
>  <excitation_energy_1> 
5.19 
 
>  <excitation_energy_2> 
5.287 
 
>  <excitation_energy_3> 
5.609 
 
>  <excitation_energy_4> 
5.706 
 
>  <homo_energy> 
-6.196 
 
>  <homo_lumo_gap> 
5.704 
 
>  <logP> 
0.947 
 
>  <lumo_energy> 
-0.493 
 
>  <melting_point> 
-0.84 
 
>  <molecular_refractivity> 
34.65 
 
>  <oscillator_strength_1> 
0.04 
 
>  <oscillator_strength_2> 
0.327 
 
>  <oscillator_strength_3> 
0.006 
 
>  <oscillator_strength_4> 
0.004 
 
>  <open_babel_can_smiles> 
C=CC#CC(O)(C)C 
 
>  <mulliken_charges> 
18 
1   -0.306496 
2   -0.44876 
3   -0.44993 
4   -0.203469 
5   -0.004084 
6   0.113505 
7   0.162408 
8   -0.625708 
9   0.147259 
10   0.158124 
11   0.153541 
12   0.169805 
13   0.132827 
14   0.153705 
15   0.133194 
16   0.169722 
17   0.156674 
18   0.387686 
 
>  <lowdin_charges> 
18 
1   -0.309051 
2   -0.451364 
3   -0.451579 
4   -0.142679 
5   -0.065933 
6   -0.056572 
7   0.137537 
8   -0.452178 
9   0.164284 
10   0.169679 
11   0.160327 
12   0.16642 
13   0.146144 
14   0.160465 
15   0.14638 
16   0.166276 
17   0.170226 
18   0.34162 
 
$$$$ 
 
