PCCDB-ID:  23415 
public computational chemistry database (PCCDB) project, http://pccdb.org 
 
 35 34  0  0  0  0  0  0  0  0999 V2000 
    0.9128   -0.1655   -0.1647 C   0  0  0  0  0  0  0  0  0  0  0  0 
   10.7561    5.7868    0.6098 C   0  0  0  0  0  0  0  0  0  0  0  0 
    8.8673    6.8599   -0.6746 C   0  0  0  0  0  0  0  0  0  0  0  0 
    2.4421   -0.0855   -0.2113 C   0  0  0  0  0  0  0  0  0  0  0  0 
    2.9801    1.3407   -0.0367 C   0  0  0  0  0  0  0  0  0  0  0  0 
    4.5107    1.4303   -0.0806 C   0  0  0  0  0  0  0  0  0  0  0  0 
    5.0467    2.8581    0.0890 C   0  0  0  0  0  0  0  0  0  0  0  0 
    6.5774    2.9495    0.0490 C   0  0  0  0  0  0  0  0  0  0  0  0 
    7.1095    4.3801    0.2121 C   0  0  0  0  0  0  0  0  0  0  0  0 
    8.6420    4.4614    0.1955 C   0  0  0  0  0  0  0  0  0  0  0  0 
    9.2314    5.8653    0.4385 C   0  0  0  0  0  0  0  0  0  0  0  0 
    0.5608   -1.1951   -0.2966 H   0  0  0  0  0  0  0  0  0  0  0  0 
    0.4600    0.4453   -0.9556 H   0  0  0  0  0  0  0  0  0  0  0  0 
    0.5255    0.1984    0.7951 H   0  0  0  0  0  0  0  0  0  0  0  0 
   11.1870    6.7760    0.8055 H   0  0  0  0  0  0  0  0  0  0  0  0 
   11.2323    5.3919   -0.2975 H   0  0  0  0  0  0  0  0  0  0  0  0 
   11.0319    5.1287    1.4426 H   0  0  0  0  0  0  0  0  0  0  0  0 
    9.2991    7.8477   -0.4735 H   0  0  0  0  0  0  0  0  0  0  0  0 
    7.7845    6.9881   -0.7768 H   0  0  0  0  0  0  0  0  0  0  0  0 
    9.2570    6.5194   -1.6434 H   0  0  0  0  0  0  0  0  0  0  0  0 
    2.8007   -0.4924   -1.1677 H   0  0  0  0  0  0  0  0  0  0  0  0 
    2.8667   -0.7309    0.5709 H   0  0  0  0  0  0  0  0  0  0  0  0 
    2.6190    1.7493    0.9190 H   0  0  0  0  0  0  0  0  0  0  0  0 
    2.5557    1.9856   -0.8208 H   0  0  0  0  0  0  0  0  0  0  0  0 
    4.8706    1.0191   -1.0355 H   0  0  0  0  0  0  0  0  0  0  0  0 
    4.9348    0.7872    0.7050 H   0  0  0  0  0  0  0  0  0  0  0  0 
    4.6834    3.2714    1.0417 H   0  0  0  0  0  0  0  0  0  0  0  0 
    4.6246    3.4992   -0.6993 H   0  0  0  0  0  0  0  0  0  0  0  0 
    6.9406    2.5342   -0.9029 H   0  0  0  0  0  0  0  0  0  0  0  0 
    7.0006    2.3111    0.8388 H   0  0  0  0  0  0  0  0  0  0  0  0 
    6.7346    4.7998    1.1579 H   0  0  0  0  0  0  0  0  0  0  0  0 
    6.6898    5.0069   -0.5865 H   0  0  0  0  0  0  0  0  0  0  0  0 
    9.0174    4.0788   -0.7665 H   0  0  0  0  0  0  0  0  0  0  0  0 
    9.0365    3.7812    0.9648 H   0  0  0  0  0  0  0  0  0  0  0  0 
    8.8077    6.2448    1.3818 H   0  0  0  0  0  0  0  0  0  0  0  0 
  1 14  1  0  0  0  0 
  2 15  1  0  0  0  0 
  2 17  1  0  0  0  0 
  3 18  1  0  0  0  0 
  3 11  1  0  0  0  0 
  4  1  1  0  0  0  0 
  4  5  1  0  0  0  0 
  4 22  1  0  0  0  0 
  5 23  1  0  0  0  0 
  6  5  1  0  0  0  0 
  6  7  1  0  0  0  0 
  6 26  1  0  0  0  0 
  7 27  1  0  0  0  0 
  8  7  1  0  0  0  0 
  8  9  1  0  0  0  0 
  8 30  1  0  0  0  0 
  9 31  1  0  0  0  0 
 10  9  1  0  0  0  0 
 10 11  1  0  0  0  0 
 10 34  1  0  0  0  0 
 11  2  1  0  0  0  0 
 11 35  1  0  0  0  0 
 12  1  1  0  0  0  0 
 13  1  1  0  0  0  0 
 16  2  1  0  0  0  0 
 19  3  1  0  0  0  0 
 20  3  1  0  0  0  0 
 21  4  1  0  0  0  0 
 24  5  1  0  0  0  0 
 25  6  1  0  0  0  0 
 28  7  1  0  0  0  0 
 29  8  1  0  0  0  0 
 32  9  1  0  0  0  0 
 33 10  1  0  0  0  0 
M  END 
>  <HBA> 
0 
 
>  <HBD> 
0 
 
>  <TPSA> 
0.0 
 
>  <cid> 
23415 
 
>  <dipole> 
0.05 
 
>  <excitation_energy_1> 
7.591 
 
>  <excitation_energy_2> 
7.801 
 
>  <excitation_energy_3> 
7.902 
 
>  <excitation_energy_4> 
7.987 
 
>  <homo_energy> 
-7.853 
 
>  <homo_lumo_gap> 
10.226 
 
>  <logP> 
4.393 
 
>  <lumo_energy> 
2.373 
 
>  <melting_point> 
-29.88 
 
>  <molecular_refractivity> 
54.99 
 
>  <oscillator_strength_1> 
0.0156 
 
>  <oscillator_strength_2> 
0.01 
 
>  <oscillator_strength_3> 
0.0274 
 
>  <oscillator_strength_4> 
0.0018 
 
>  <open_babel_can_smiles> 
CCCCCCCCC(C)C 
 
>  <mulliken_charges> 
35 
1   -0.441046 
2   -0.441778 
3   -0.444612 
4   -0.246427 
5   -0.245214 
6   -0.25204 
7   -0.252562 
8   -0.252904 
9   -0.258652 
10   -0.245621 
11   -0.064632 
12   0.140826 
13   0.140742 
14   0.140753 
15   0.138059 
16   0.1376 
17   0.138509 
18   0.138699 
19   0.144567 
20   0.136744 
21   0.129445 
22   0.129458 
23   0.125741 
24   0.125726 
25   0.126122 
26   0.126179 
27   0.126151 
28   0.126047 
29   0.126602 
30   0.126088 
31   0.125449 
32   0.131299 
33   0.122264 
34   0.123882 
35   0.118537 
 
>  <lowdin_charges> 
35 
1   -0.44481 
2   -0.445397 
3   -0.444291 
4   -0.273141 
5   -0.275661 
6   -0.275442 
7   -0.275285 
8   -0.27484 
9   -0.277628 
10   -0.276375 
11   -0.119978 
12   0.147863 
13   0.146996 
14   0.145893 
15   0.14647 
16   0.145309 
17   0.147301 
18   0.147147 
19   0.1466 
20   0.144232 
21   0.138405 
22   0.139523 
23   0.136894 
24   0.137976 
25   0.137176 
26   0.138258 
27   0.137151 
28   0.138109 
29   0.13741 
30   0.137925 
31   0.136981 
32   0.140101 
33   0.135989 
34   0.139411 
35   0.13373 
 
$$$$ 
 
