PCCDB-ID:  69466 
public computational chemistry database (PCCDB) project, http://pccdb.org 
 
 20 19  0  0  1  0  0  0  0  0999 V2000 
    2.9888    0.0559    1.4311 C   0  0  0  0  0  0  0  0  0  0  0  0 
    2.7260    0.0661   -0.0780 C   0  0  0  0  0  0  0  0  0  0  0  0 
    2.9634   -1.1491   -2.3005 C   0  0  0  0  0  0  0  0  0  0  0  0 
    3.4573   -1.0540   -0.8373 C   0  0  1  0  0  0  0  0  0  0  0  0 
    3.2230   -2.4917   -2.9700 C   0  0  0  0  0  0  0  0  0  0  0  0 
    4.9857   -0.8403   -0.7999 C   0  0  0  0  0  0  0  0  0  0  0  0 
    3.8882   -3.3877   -2.4922 O   0  0  0  0  0  0  0  0  0  0  0  0 
    2.6477   -2.6730   -4.1762 O   0  0  0  0  0  0  0  0  0  0  0  0 
    5.4943    0.2239   -0.5306 O   0  0  0  0  0  0  0  0  0  0  0  0 
    5.7383   -1.9132   -1.0986 O   0  0  0  0  0  0  0  0  0  0  0  0 
    2.4123    0.8444    1.9268 H   0  0  0  0  0  0  0  0  0  0  0  0 
    4.0470    0.2290    1.6442 H   0  0  0  0  0  0  0  0  0  0  0  0 
    2.6961   -0.9018    1.8797 H   0  0  0  0  0  0  0  0  0  0  0  0 
    3.0293    1.0323   -0.4966 H   0  0  0  0  0  0  0  0  0  0  0  0 
    1.6480   -0.0432   -0.2595 H   0  0  0  0  0  0  0  0  0  0  0  0 
    3.4152   -0.3571   -2.9150 H   0  0  0  0  0  0  0  0  0  0  0  0 
    1.8792   -0.9702   -2.3237 H   0  0  0  0  0  0  0  0  0  0  0  0 
    3.2372   -2.0153   -0.3539 H   0  0  0  0  0  0  0  0  0  0  0  0 
    2.1408   -1.8845   -4.4341 H   0  0  0  0  0  0  0  0  0  0  0  0 
    5.1650   -2.6522   -1.4042 H   0  0  0  0  0  0  0  0  0  0  0  0 
  1 12  1  0  0  0  0 
  1 13  1  0  0  0  0 
  1 11  1  0  0  0  0 
  2  1  1  0  0  0  0 
  3  4  1  0  0  0  0 
  4  6  1  0  0  0  0 
  4 18  1  1  0  0  0 
  4  2  1  0  0  0  0 
  5  7  2  0  0  0  0 
  5  3  1  0  0  0  0 
  6  9  2  0  0  0  0 
  8  5  1  0  0  0  0 
 10  6  1  0  0  0  0 
 14  2  1  0  0  0  0 
 15  2  1  0  0  0  0 
 16  3  1  0  0  0  0 
 17  3  1  0  0  0  0 
 19  8  1  0  0  0  0 
 20 10  1  0  0  0  0 
M  END 
>  <HBA> 
4 
 
>  <HBD> 
2 
 
>  <TPSA> 
74.6 
 
>  <cid> 
69466 
 
>  <dipole> 
5.64 
 
>  <excitation_energy_1> 
5.508 
 
>  <excitation_energy_2> 
5.745 
 
>  <excitation_energy_3> 
5.857 
 
>  <excitation_energy_4> 
6.163 
 
>  <homo_energy> 
-7.181 
 
>  <homo_lumo_gap> 
6.476 
 
>  <logP> 
0.572 
 
>  <lumo_energy> 
-0.705 
 
>  <melting_point> 
127.75 
 
>  <molecular_refractivity> 
34.5 
 
>  <oscillator_strength_1> 
0.0018 
 
>  <oscillator_strength_2> 
0.0016 
 
>  <oscillator_strength_3> 
0.0009 
 
>  <oscillator_strength_4> 
0.0027 
 
>  <open_babel_can_smiles> 
CC[C@H](C(=O)O)CC(=O)O 
 
>  <mulliken_charges> 
20 
1   -0.458949 
2   -0.251124 
3   -0.424705 
4   -0.197599 
5   0.628076 
6   0.595199 
7   -0.461586 
8   -0.546998 
9   -0.453871 
10   -0.58899 
11   0.147908 
12   0.180678 
13   0.139047 
14   0.161502 
15   0.123749 
16   0.201377 
17   0.17669 
18   0.163618 
19   0.421956 
20   0.444024 
 
>  <lowdin_charges> 
20 
1   -0.448002 
2   -0.267976 
3   -0.32068 
4   -0.165103 
5   0.211892 
6   0.187341 
7   -0.252589 
8   -0.331421 
9   -0.255135 
10   -0.357906 
11   0.155558 
12   0.164707 
13   0.145007 
14   0.157444 
15   0.136726 
16   0.181547 
17   0.168216 
18   0.16073 
19   0.367444 
20   0.362201 
 
$$$$ 
 
