PCCDB-ID:  17726 
public computational chemistry database (PCCDB) project, http://pccdb.org 
 
 14 13  0  0  0  0  0  0  0  0999 V2000 
    0.9982    0.1219    0.1424 C   0  0  0  0  0  0  0  0  0  0  0  0 
    1.8028   -1.5967   -2.1567 C   0  0  0  0  0  0  0  0  0  0  0  0 
    2.4744   -0.1267   -0.1751 C   0  0  0  0  0  0  0  0  0  0  0  0 
    2.7026   -1.0190   -1.3629 C   0  0  0  0  0  0  0  0  0  0  0  0 
    4.1374   -1.2741   -1.6753 N   0  0  0  0  0  0  0  0  0  0  0  0 
    4.4202   -1.9934   -2.6309 O   0  0  0  0  0  0  0  0  0  0  0  0 
    4.9637   -0.7347   -0.9381 O   0  0  0  0  0  0  0  0  0  0  0  0 
    0.9113    0.7724    1.0181 H   0  0  0  0  0  0  0  0  0  0  0  0 
    0.4700   -0.8114    0.3674 H   0  0  0  0  0  0  0  0  0  0  0  0 
    0.4827    0.6139   -0.6899 H   0  0  0  0  0  0  0  0  0  0  0  0 
    0.7420   -1.4541   -1.9873 H   0  0  0  0  0  0  0  0  0  0  0  0 
    2.1152   -2.2196   -2.9855 H   0  0  0  0  0  0  0  0  0  0  0  0 
    2.9808   -0.5654    0.6933 H   0  0  0  0  0  0  0  0  0  0  0  0 
    2.9895    0.8256   -0.3508 H   0  0  0  0  0  0  0  0  0  0  0  0 
  1  9  1  0  0  0  0 
  1  8  1  0  0  0  0 
  2 11  1  0  0  0  0 
  2  4  2  0  0  0  0 
  3  1  1  0  0  0  0 
  3 13  1  0  0  0  0 
  4  3  1  0  0  0  0 
  5  4  1  0  0  0  0 
  5  7  2  0  0  0  0 
  6  5  2  0  0  0  0 
 10  1  1  0  0  0  0 
 12  2  1  0  0  0  0 
 14  3  1  0  0  0  0 
M  END 
>  <HBA> 
0 
 
>  <HBD> 
0 
 
>  <TPSA> 
45.82 
 
>  <cid> 
17726 
 
>  <dipole> 
3.98 
 
>  <excitation_energy_1> 
3.692 
 
>  <excitation_energy_2> 
4.189 
 
>  <excitation_energy_3> 
4.984 
 
>  <excitation_energy_4> 
6.002 
 
>  <homo_energy> 
-7.867 
 
>  <homo_lumo_gap> 
5.499 
 
>  <logP> 
1.71 
 
>  <lumo_energy> 
-2.367 
 
>  <melting_point> 
-11.66 
 
>  <molecular_refractivity> 
28.97 
 
>  <oscillator_strength_1> 
0.0 
 
>  <oscillator_strength_2> 
0.0005 
 
>  <oscillator_strength_3> 
0.1068 
 
>  <oscillator_strength_4> 
0.0961 
 
>  <open_babel_can_smiles> 
CCC(=C)N(=O)=O 
 
>  <mulliken_charges> 
14 
1   -0.463899 
2   -0.386808 
3   -0.316293 
4   0.334809 
5   0.4078 
6   -0.398718 
7   -0.383439 
8   0.161277 
9   0.155887 
10   0.15581 
11   0.173326 
12   0.200607 
13   0.179886 
14   0.179757 
 
>  <lowdin_charges> 
14 
1   -0.44594 
2   -0.293897 
3   -0.277079 
4   0.019273 
5   0.303049 
6   -0.247086 
7   -0.245188 
8   0.162341 
9   0.153889 
10   0.154611 
11   0.17873 
12   0.194605 
13   0.171789 
14   0.170904 
 
$$$$ 
 
