PCCDB-ID:  7918 
public computational chemistry database (PCCDB) project, http://pccdb.org 
 
 13 12  0  0  0  0  0  0  0  0999 V2000 
    1.1917    0.1469    0.1477 C   0  0  0  0  0  0  0  0  0  0  0  0 
    5.3001   -2.0019    1.0941 C   0  0  0  0  0  0  0  0  0  0  0  0 
    2.6343    0.0919   -0.2830 C   0  0  0  0  0  0  0  0  0  0  0  0 
    4.7133   -0.6642    0.7260 C   0  0  0  0  0  0  0  0  0  0  0  0 
    3.1297    0.6641   -1.2120 O   0  0  0  0  0  0  0  0  0  0  0  0 
    5.2968    0.3792    0.6439 O   0  0  0  0  0  0  0  0  0  0  0  0 
    3.3352   -0.7927    0.5392 O   0  0  0  0  0  0  0  0  0  0  0  0 
    0.6200    0.7359   -0.5703 H   0  0  0  0  0  0  0  0  0  0  0  0 
    1.1220    0.6034    1.1414 H   0  0  0  0  0  0  0  0  0  0  0  0 
    0.7782   -0.8637    0.2226 H   0  0  0  0  0  0  0  0  0  0  0  0 
    6.3493   -1.8776    1.3641 H   0  0  0  0  0  0  0  0  0  0  0  0 
    5.2142   -2.6869    0.2433 H   0  0  0  0  0  0  0  0  0  0  0  0 
    4.7446   -2.4451    1.9267 H   0  0  0  0  0  0  0  0  0  0  0  0 
  1 10  1  0  0  0  0 
  1  9  1  0  0  0  0 
  2 11  1  0  0  0  0 
  2 13  1  0  0  0  0 
  3  1  1  0  0  0  0 
  3  7  1  0  0  0  0 
  4  2  1  0  0  0  0 
  5  3  2  0  0  0  0 
  6  4  2  0  0  0  0 
  7  4  1  0  0  0  0 
  8  1  1  0  0  0  0 
 12  2  1  0  0  0  0 
M  END 
>  <HBA> 
3 
 
>  <HBD> 
0 
 
>  <TPSA> 
43.37 
 
>  <cid> 
7918 
 
>  <dipole> 
3.84 
 
>  <excitation_energy_1> 
5.071 
 
>  <excitation_energy_2> 
5.566 
 
>  <excitation_energy_3> 
6.574 
 
>  <excitation_energy_4> 
6.938 
 
>  <homo_energy> 
-7.461 
 
>  <homo_lumo_gap> 
6.716 
 
>  <logP> 
0.096 
 
>  <lumo_energy> 
-0.746 
 
>  <melting_point> 
8.6 
 
>  <molecular_refractivity> 
22.83 
 
>  <oscillator_strength_1> 
0.0019 
 
>  <oscillator_strength_2> 
0.0001 
 
>  <oscillator_strength_3> 
0.0 
 
>  <oscillator_strength_4> 
0.018 
 
>  <open_babel_can_smiles> 
CC(=O)OC(=O)C 
 
>  <mulliken_charges> 
13 
1   -0.525707 
2   -0.525866 
3   0.602532 
4   0.602638 
5   -0.402431 
6   -0.402343 
7   -0.479683 
8   0.188971 
9   0.190004 
10   0.18635 
11   0.189024 
12   0.190097 
13   0.186414 
 
>  <lowdin_charges> 
13 
1   -0.463698 
2   -0.463438 
3   0.222392 
4   0.226351 
5   -0.20136 
6   -0.202187 
7   -0.203855 
8   0.180566 
9   0.182434 
10   0.179888 
11   0.178081 
12   0.183395 
13   0.18143 
 
$$$$ 
 
