PCCDB-ID:  26057 
public computational chemistry database (PCCDB) project, http://pccdb.org 
 
 32 31  0  0  0  0  0  0  0  0999 V2000 
    1.3859   -0.3512    0.3137 C   0  0  0  0  0  0  0  0  0  0  0  0 
    4.3065   -0.9452   -3.9910 C   0  0  0  0  0  0  0  0  0  0  0  0 
    6.6922   -1.1918   -3.3238 C   0  0  0  0  0  0  0  0  0  0  0  0 
    5.0628   -3.0011   -2.7948 C   0  0  0  0  0  0  0  0  0  0  0  0 
    5.4137    0.6951   -1.4679 C   0  0  0  0  0  0  0  0  0  0  0  0 
    5.6515   -1.5103   -0.3229 C   0  0  0  0  0  0  0  0  0  0  0  0 
    2.9152   -0.4042    0.2147 C   0  0  0  0  0  0  0  0  0  0  0  0 
    3.3863   -0.7805   -1.2011 C   0  0  0  0  0  0  0  0  0  0  0  0 
    5.2384   -1.4661   -2.8718 C   0  0  0  0  0  0  0  0  0  0  0  0 
    4.9227   -0.7716   -1.4695 C   0  0  0  0  0  0  0  0  0  0  0  0 
    1.0596   -0.0960    1.3285 H   0  0  0  0  0  0  0  0  0  0  0  0 
    0.9379   -1.3184    0.0533 H   0  0  0  0  0  0  0  0  0  0  0  0 
    0.9686    0.3991   -0.3694 H   0  0  0  0  0  0  0  0  0  0  0  0 
    4.6329   -1.3442   -4.9590 H   0  0  0  0  0  0  0  0  0  0  0  0 
    4.3214    0.1477   -4.0692 H   0  0  0  0  0  0  0  0  0  0  0  0 
    3.2678   -1.2581   -3.8448 H   0  0  0  0  0  0  0  0  0  0  0  0 
    6.9209   -1.7897   -4.2143 H   0  0  0  0  0  0  0  0  0  0  0  0 
    7.4270   -1.4594   -2.5567 H   0  0  0  0  0  0  0  0  0  0  0  0 
    6.8502   -0.1415   -3.5896 H   0  0  0  0  0  0  0  0  0  0  0  0 
    5.1691   -3.4378   -3.7952 H   0  0  0  0  0  0  0  0  0  0  0  0 
    4.0759   -3.2912   -2.4180 H   0  0  0  0  0  0  0  0  0  0  0  0 
    5.8174   -3.4690   -2.1542 H   0  0  0  0  0  0  0  0  0  0  0  0 
    5.0899    1.2084   -0.5563 H   0  0  0  0  0  0  0  0  0  0  0  0 
    5.0209    1.2643   -2.3180 H   0  0  0  0  0  0  0  0  0  0  0  0 
    6.5061    0.7581   -1.4981 H   0  0  0  0  0  0  0  0  0  0  0  0 
    5.5914   -0.9331    0.6057 H   0  0  0  0  0  0  0  0  0  0  0  0 
    6.7151   -1.6518   -0.5424 H   0  0  0  0  0  0  0  0  0  0  0  0 
    5.2172   -2.4959   -0.1242 H   0  0  0  0  0  0  0  0  0  0  0  0 
    3.2938   -1.1303    0.9445 H   0  0  0  0  0  0  0  0  0  0  0  0 
    3.3255    0.5703    0.5103 H   0  0  0  0  0  0  0  0  0  0  0  0 
    2.9035   -0.0936   -1.9085 H   0  0  0  0  0  0  0  0  0  0  0  0 
    2.9825   -1.7766   -1.4269 H   0  0  0  0  0  0  0  0  0  0  0  0 
  1 11  1  0  0  0  0 
  2 16  1  0  0  0  0 
  2  9  1  0  0  0  0 
  3  9  1  0  0  0  0 
  3 18  1  0  0  0  0 
  4 21  1  0  0  0  0 
  4 22  1  0  0  0  0 
  5 23  1  0  0  0  0 
  6 28  1  0  0  0  0 
  6 26  1  0  0  0  0 
  7  1  1  0  0  0  0 
  7 30  1  0  0  0  0 
  7 29  1  0  0  0  0 
  8  7  1  0  0  0  0 
  9  4  1  0  0  0  0 
  9 10  1  0  0  0  0 
 10  5  1  0  0  0  0 
 10  8  1  0  0  0  0 
 10  6  1  0  0  0  0 
 12  1  1  0  0  0  0 
 13  1  1  0  0  0  0 
 14  2  1  0  0  0  0 
 15  2  1  0  0  0  0 
 17  3  1  0  0  0  0 
 19  3  1  0  0  0  0 
 20  4  1  0  0  0  0 
 24  5  1  0  0  0  0 
 25  5  1  0  0  0  0 
 27  6  1  0  0  0  0 
 31  8  1  0  0  0  0 
 32  8  1  0  0  0  0 
M  END 
>  <HBA> 
0 
 
>  <HBD> 
0 
 
>  <TPSA> 
0.0 
 
>  <cid> 
26057 
 
>  <dipole> 
0.04 
 
>  <excitation_energy_1> 
7.292 
 
>  <excitation_energy_2> 
7.421 
 
>  <excitation_energy_3> 
7.551 
 
>  <excitation_energy_4> 
7.658 
 
>  <homo_energy> 
-7.783 
 
>  <homo_lumo_gap> 
9.799 
 
>  <logP> 
3.859 
 
>  <lumo_energy> 
2.016 
 
>  <melting_point> 
8.15 
 
>  <molecular_refractivity> 
49.66 
 
>  <oscillator_strength_1> 
0.0019 
 
>  <oscillator_strength_2> 
0.0007 
 
>  <oscillator_strength_3> 
0.0002 
 
>  <oscillator_strength_4> 
0.1045 
 
>  <open_babel_can_smiles> 
CCCC(C(C)(C)C)(C)C 
 
>  <mulliken_charges> 
32 
1   -0.442608 
2   -0.457967 
3   -0.458495 
4   -0.458189 
5   -0.469432 
6   -0.470435 
7   -0.259924 
8   -0.268243 
9   0.109176 
10   0.121758 
11   0.14059 
12   0.140334 
13   0.140831 
14   0.135585 
15   0.139756 
16   0.143781 
17   0.136108 
18   0.139793 
19   0.143296 
20   0.136004 
21   0.140855 
22   0.143176 
23   0.140647 
24   0.139151 
25   0.14355 
26   0.142878 
27   0.139605 
28   0.142726 
29   0.136191 
30   0.133169 
31   0.129903 
32   0.126431 
 
>  <lowdin_charges> 
32 
1   -0.444113 
2   -0.443122 
3   -0.446405 
4   -0.447365 
5   -0.448035 
6   -0.445871 
7   -0.277458 
8   -0.280532 
9   0.014606 
10   0.012453 
11   0.147846 
12   0.145342 
13   0.146655 
14   0.146627 
15   0.14368 
16   0.147567 
17   0.147347 
18   0.146416 
19   0.147298 
20   0.146394 
21   0.145246 
22   0.149826 
23   0.147946 
24   0.146199 
25   0.147129 
26   0.149494 
27   0.145089 
28   0.147432 
29   0.142832 
30   0.138597 
31   0.142571 
32   0.138308 
 
$$$$ 
 
