PCCDB-ID:  72758 
public computational chemistry database (PCCDB) project, http://pccdb.org 
 
 11 11  0  0  0  0  0  0  0  0999 V2000 
   -1.3447   -0.0778    0.0432 C   0  0  0  0  0  0  0  0  0  0  0  0 
   -0.7515    1.1479    0.0043 C   0  0  0  0  0  0  0  0  0  0  0  0 
    0.6924   -1.1498    0.0322 C   0  0  0  0  0  0  0  0  0  0  0  0 
    1.4573    0.1036   -0.0116 C   0  0  0  0  0  0  0  0  0  0  0  0 
   -0.6060   -1.2364    0.0575 N   0  0  0  0  0  0  0  0  0  0  0  0 
    0.6130    1.2262   -0.0213 N   0  0  0  0  0  0  0  0  0  0  0  0 
    2.6757    0.2133   -0.0376 O   0  0  0  0  0  0  0  0  0  0  0  0 
   -2.4236   -0.1801    0.0638 H   0  0  0  0  0  0  0  0  0  0  0  0 
   -1.3002    2.0833   -0.0078 H   0  0  0  0  0  0  0  0  0  0  0  0 
    1.2791   -2.0667    0.0422 H   0  0  0  0  0  0  0  0  0  0  0  0 
    1.0844    2.1237   -0.0510 H   0  0  0  0  0  0  0  0  0  0  0  0 
  1  5  1  0  0  0  0 
  1  8  1  0  0  0  0 
  2  1  2  0  0  0  0 
  3 10  1  0  0  0  0 
  3  5  2  0  0  0  0 
  4  3  1  0  0  0  0 
  6  4  1  0  0  0  0 
  6  2  1  0  0  0  0 
  7  4  2  0  0  0  0 
  9  2  1  0  0  0  0 
 11  6  1  0  0  0  0 
M  END 
>  <HBA> 
2 
 
>  <HBD> 
1 
 
>  <TPSA> 
45.75 
 
>  <cid> 
72758 
 
>  <dipole> 
4.08 
 
>  <excitation_energy_1> 
3.74 
 
>  <excitation_energy_2> 
4.221 
 
>  <excitation_energy_3> 
5.073 
 
>  <excitation_energy_4> 
5.362 
 
>  <homo_energy> 
-6.357 
 
>  <homo_lumo_gap> 
4.648 
 
>  <logP> 
-0.23 
 
>  <lumo_energy> 
-1.709 
 
>  <melting_point> 
100.54 
 
>  <molecular_refractivity> 
24.86 
 
>  <oscillator_strength_1> 
0.0011 
 
>  <oscillator_strength_2> 
0.1116 
 
>  <oscillator_strength_3> 
0.0012 
 
>  <oscillator_strength_4> 
0.0021 
 
>  <open_babel_can_smiles> 
O=c1cncc[nH]1 
 
>  <mulliken_charges> 
11 
1   -0.021675 
2   0.094319 
3   -0.013622 
4   0.582846 
5   -0.364692 
6   -0.607907 
7   -0.518476 
8   0.156174 
9   0.174758 
10   0.16911 
11   0.349165 
 
>  <lowdin_charges> 
11 
1   -0.152965 
2   -0.088142 
3   -0.116041 
4   0.126142 
5   -0.107371 
6   -0.18245 
7   -0.300032 
8   0.167584 
9   0.177488 
10   0.174592 
11   0.301197 
 
$$$$ 
 
