PCCDB-ID:  21053 
public computational chemistry database (PCCDB) project, http://pccdb.org 
 
 23 24  0  0  0  0  0  0  0  0999 V2000 
    2.0099    1.5322    0.0732 C   0  0  0  0  0  0  0  0  0  0  0  0 
    2.5489    0.2462    0.2015 C   0  0  0  0  0  0  0  0  0  0  0  0 
    0.6291    1.7278   -0.0667 C   0  0  0  0  0  0  0  0  0  0  0  0 
    1.7261   -0.8889    0.1949 C   0  0  0  0  0  0  0  0  0  0  0  0 
   -3.2778   -1.4611   -0.1564 C   0  0  0  0  0  0  0  0  0  0  0  0 
   -0.1762    0.5988   -0.0684 C   0  0  0  0  0  0  0  0  0  0  0  0 
    0.3617   -0.6853    0.0583 C   0  0  0  0  0  0  0  0  0  0  0  0 
   -3.9734   -1.4048   -1.5198 C   0  0  0  0  0  0  0  0  0  0  0  0 
   -1.6511    0.4692   -0.2091 C   0  0  0  0  0  0  0  0  0  0  0  0 
   -0.7588   -1.6690    0.0197 C   0  0  0  0  0  0  0  0  0  0  0  0 
   -4.3704   -2.4035   -2.1967 N   0  0  0  0  0  0  0  0  0  0  0  0 
   -1.9308   -0.8946   -0.1555 N   0  0  0  0  0  0  0  0  0  0  0  0 
   -4.2040   -0.1615   -1.9944 O   0  0  0  0  0  0  0  0  0  0  0  0 
   -2.4919    1.3470   -0.3528 O   0  0  0  0  0  0  0  0  0  0  0  0 
   -0.7340   -2.8754    0.1274 O   0  0  0  0  0  0  0  0  0  0  0  0 
    2.6740    2.3915    0.0810 H   0  0  0  0  0  0  0  0  0  0  0  0 
    3.6234    0.1272    0.3067 H   0  0  0  0  0  0  0  0  0  0  0  0 
    0.2018    2.7204   -0.1688 H   0  0  0  0  0  0  0  0  0  0  0  0 
    2.1351   -1.8896    0.2919 H   0  0  0  0  0  0  0  0  0  0  0  0 
   -3.1744   -2.4957    0.1734 H   0  0  0  0  0  0  0  0  0  0  0  0 
   -3.8791   -0.9132    0.5801 H   0  0  0  0  0  0  0  0  0  0  0  0 
   -4.1246   -3.2732   -1.7228 H   0  0  0  0  0  0  0  0  0  0  0  0 
   -3.8211    0.5114   -1.3939 H   0  0  0  0  0  0  0  0  0  0  0  0 
  1 16  1  0  0  0  0 
  1  2  2  0  0  0  0 
  2 17  1  0  0  0  0 
  3  1  1  0  0  0  0 
  4  2  1  0  0  0  0 
  4 19  1  0  0  0  0 
  5 12  1  0  0  0  0 
  5 20  1  0  0  0  0 
  5 21  1  0  0  0  0 
  6  3  2  0  0  0  0 
  6  7  1  0  0  0  0 
  7  4  2  0  0  0  0 
  8  5  1  0  0  0  0 
  9 12  1  0  0  0  0 
  9  6  1  0  0  0  0 
 10  7  1  0  0  0  0 
 10 15  2  0  0  0  0 
 11 22  1  0  0  0  0 
 11  8  2  0  0  0  0 
 12 10  1  0  0  0  0 
 13  8  1  0  0  0  0 
 13 23  1  0  0  0  0 
 14  9  2  0  0  0  0 
 18  3  1  0  0  0  0 
M  END 
>  <HBA> 
5 
 
>  <HBD> 
1 
 
>  <TPSA> 
80.47 
 
>  <cid> 
21053 
 
>  <dipole> 
7.07 
 
>  <excitation_energy_1> 
3.579 
 
>  <excitation_energy_2> 
3.779 
 
>  <excitation_energy_3> 
3.915 
 
>  <excitation_energy_4> 
4.331 
 
>  <homo_energy> 
-6.953 
 
>  <homo_lumo_gap> 
4.172 
 
>  <logP> 
0.406 
 
>  <lumo_energy> 
-2.781 
 
>  <melting_point> 
174.96 
 
>  <molecular_refractivity> 
54.44 
 
>  <oscillator_strength_1> 
0.0016 
 
>  <oscillator_strength_2> 
0.0007 
 
>  <oscillator_strength_3> 
0.0002 
 
>  <oscillator_strength_4> 
0.0065 
 
>  <open_babel_can_smiles> 
OC(=N)CN1C(=O)c2c(C1=O)cccc2 
 
>  <mulliken_charges> 
23 
1   -0.127648 
2   -0.126123 
3   -0.176064 
4   -0.176725 
5   -0.265505 
6   0.055598 
7   0.047256 
8   0.495832 
9   0.591555 
10   0.582004 
11   -0.57721 
12   -0.523234 
13   -0.595043 
14   -0.514848 
15   -0.462597 
16   0.155948 
17   0.155864 
18   0.173114 
19   0.173129 
20   0.196272 
21   0.193603 
22   0.286737 
23   0.438084 
 
>  <lowdin_charges> 
23 
1   -0.134935 
2   -0.130517 
3   -0.123733 
4   -0.123281 
5   -0.229796 
6   -0.034468 
7   -0.034073 
8   0.118727 
9   0.18331 
10   0.174779 
11   -0.38996 
12   -0.088797 
13   -0.371389 
14   -0.266542 
15   -0.226908 
16   0.171667 
17   0.169009 
18   0.180848 
19   0.180764 
20   0.182693 
21   0.175441 
22   0.258906 
23   0.358256 
 
$$$$ 
 
