PCCDB-ID:  67069 
public computational chemistry database (PCCDB) project, http://pccdb.org 
 
 20 20  0  0  0  0  0  0  0  0999 V2000 
    1.3156    0.3620   -0.2716 C   0  0  0  0  0  0  0  0  0  0  0  0 
    4.3736   -2.6369   -2.9004 C   0  0  0  0  0  0  0  0  0  0  0  0 
    4.7374   -1.3007   -2.7208 C   0  0  0  0  0  0  0  0  0  0  0  0 
    3.4248   -3.2120   -2.0602 C   0  0  0  0  0  0  0  0  0  0  0  0 
    4.1321   -0.5458   -1.7172 C   0  0  0  0  0  0  0  0  0  0  0  0 
    2.8242   -2.4749   -1.0310 C   0  0  0  0  0  0  0  0  0  0  0  0 
    3.1769   -1.1194   -0.8718 C   0  0  0  0  0  0  0  0  0  0  0  0 
    1.8693   -3.2287   -0.1289 C   0  0  0  0  0  0  0  0  0  0  0  0 
    2.5472   -0.3330    0.1620 N   0  0  0  0  0  0  0  0  0  0  0  0 
    1.4905   -4.3487   -0.3986 O   0  0  0  0  0  0  0  0  0  0  0  0 
    1.4791   -2.6088    0.9958 O   0  0  0  0  0  0  0  0  0  0  0  0 
    0.5549   -0.3832   -0.5173 H   0  0  0  0  0  0  0  0  0  0  0  0 
    1.4757    1.0042   -1.1488 H   0  0  0  0  0  0  0  0  0  0  0  0 
    0.9454    0.9703    0.5586 H   0  0  0  0  0  0  0  0  0  0  0  0 
    4.8351   -3.2292   -3.6851 H   0  0  0  0  0  0  0  0  0  0  0  0 
    5.4846   -0.8433   -3.3636 H   0  0  0  0  0  0  0  0  0  0  0  0 
    3.1333   -4.2515   -2.1660 H   0  0  0  0  0  0  0  0  0  0  0  0 
    4.3984    0.5007   -1.5839 H   0  0  0  0  0  0  0  0  0  0  0  0 
    3.2113    0.3492    0.5219 H   0  0  0  0  0  0  0  0  0  0  0  0 
    1.9088   -1.7078    1.0253 H   0  0  0  0  0  0  0  0  0  0  0  0 
  1  9  1  0  0  0  0 
  1 14  1  0  0  0  0 
  2  3  2  0  0  0  0 
  2  4  1  0  0  0  0 
  3  5  1  0  0  0  0 
  4  6  2  0  0  0  0 
  5 18  1  0  0  0  0 
  5  7  2  0  0  0  0 
  6  7  1  0  0  0  0 
  6  8  1  0  0  0  0 
  7  9  1  0  0  0  0 
  8 11  1  0  0  0  0 
  9 19  1  0  0  0  0 
 10  8  2  0  0  0  0 
 11 20  1  0  0  0  0 
 12  1  1  0  0  0  0 
 13  1  1  0  0  0  0 
 15  2  1  0  0  0  0 
 16  3  1  0  0  0  0 
 17  4  1  0  0  0  0 
M  END 
>  <HBA> 
3 
 
>  <HBD> 
2 
 
>  <TPSA> 
49.33 
 
>  <cid> 
67069 
 
>  <dipole> 
6.43 
 
>  <excitation_energy_1> 
4.568 
 
>  <excitation_energy_2> 
4.75 
 
>  <excitation_energy_3> 
5.201 
 
>  <excitation_energy_4> 
5.619 
 
>  <homo_energy> 
-6.882 
 
>  <homo_lumo_gap> 
5.685 
 
>  <logP> 
1.5 
 
>  <lumo_energy> 
-1.197 
 
>  <melting_point> 
130.2 
 
>  <molecular_refractivity> 
42.71 
 
>  <oscillator_strength_1> 
0.0009 
 
>  <oscillator_strength_2> 
0.0272 
 
>  <oscillator_strength_3> 
0.0208 
 
>  <oscillator_strength_4> 
0.0126 
 
>  <open_babel_can_smiles> 
CNc1ccccc1C(=O)O 
 
>  <mulliken_charges> 
20 
1   -0.312501 
2   -0.125345 
3   -0.130673 
4   -0.177496 
5   -0.161656 
6   0.033687 
7   0.216067 
8   0.561372 
9   -0.695096 
10   -0.466659 
11   -0.605631 
12   0.184984 
13   0.155796 
14   0.16717 
15   0.141748 
16   0.141204 
17   0.175457 
18   0.12811 
19   0.326814 
20   0.442647 
 
>  <lowdin_charges> 
20 
1   -0.359027 
2   -0.157519 
3   -0.139311 
4   -0.121644 
5   -0.179578 
6   -0.066897 
7   0.036085 
8   0.183814 
9   -0.33653 
10   -0.26128 
11   -0.370637 
12   0.167541 
13   0.145087 
14   0.161566 
15   0.165513 
16   0.164634 
17   0.182146 
18   0.156392 
19   0.274273 
20   0.355372 
 
$$$$ 
 
