PCCDB-ID:  28930 
public computational chemistry database (PCCDB) project, http://pccdb.org 
 
 26 27  0  0  1  0  0  0  0  0999 V2000 
    1.0473   -0.0471    0.0918 C   0  0  0  0  0  0  0  0  0  0  0  0 
    4.1317    0.4402    2.3361 C   0  0  0  0  0  0  0  0  0  0  0  0 
    5.7062   -1.2819    1.4999 C   0  0  0  0  0  0  0  0  0  0  0  0 
    4.8816   -0.6872   -1.2816 C   0  0  0  0  0  0  0  0  0  0  0  0 
    3.9014   -1.8045   -0.7947 C   0  0  0  0  0  0  0  0  0  0  0  0 
    3.3117    1.0445   -0.4333 C   0  0  0  0  0  0  0  0  0  0  0  0 
    2.3791   -0.0681    0.0575 C   0  0  0  0  0  0  0  0  0  0  0  0 
    4.7103    0.4172   -0.2084 C   0  0  1  0  0  0  0  0  0  0  0  0 
    3.2923   -1.1968    0.5026 C   0  0  2  0  0  0  0  0  0  0  0  0 
    4.5032   -0.4077    1.1064 C   0  0  0  0  0  0  0  0  0  0  0  0 
    0.4766    0.8085   -0.2634 H   0  0  0  0  0  0  0  0  0  0  0  0 
    0.4726   -0.8871    0.4752 H   0  0  0  0  0  0  0  0  0  0  0  0 
    4.9519    1.1202    2.5988 H   0  0  0  0  0  0  0  0  0  0  0  0 
    3.9553   -0.2078    3.2035 H   0  0  0  0  0  0  0  0  0  0  0  0 
    3.2282    1.0376    2.1917 H   0  0  0  0  0  0  0  0  0  0  0  0 
    6.5445   -0.6502    1.8199 H   0  0  0  0  0  0  0  0  0  0  0  0 
    6.0698   -1.9241    0.6946 H   0  0  0  0  0  0  0  0  0  0  0  0 
    5.4467   -1.9300    2.3462 H   0  0  0  0  0  0  0  0  0  0  0  0 
    4.6276   -0.3157   -2.2802 H   0  0  0  0  0  0  0  0  0  0  0  0 
    5.9135   -1.0489   -1.3309 H   0  0  0  0  0  0  0  0  0  0  0  0 
    4.4288   -2.7397   -0.5782 H   0  0  0  0  0  0  0  0  0  0  0  0 
    3.1243   -2.0350   -1.5294 H   0  0  0  0  0  0  0  0  0  0  0  0 
    3.1758    1.9659    0.1449 H   0  0  0  0  0  0  0  0  0  0  0  0 
    3.1400    1.3015   -1.4856 H   0  0  0  0  0  0  0  0  0  0  0  0 
    5.5263    1.1468   -0.1819 H   0  0  0  0  0  0  0  0  0  0  0  0 
    2.8150   -1.9309    1.1592 H   0  0  0  0  0  0  0  0  0  0  0  0 
  1 12  1  0  0  0  0 
  2 13  1  0  0  0  0 
  2 14  1  0  0  0  0 
  3 16  1  0  0  0  0 
  3 18  1  0  0  0  0 
  4  5  1  0  0  0  0 
  4  8  1  0  0  0  0 
  5 21  1  0  0  0  0 
  5  9  1  0  0  0  0 
  6  8  1  0  0  0  0 
  6  7  1  0  0  0  0 
  6 23  1  0  0  0  0 
  7  1  2  0  0  0  0 
  7  9  1  0  0  0  0 
  8 25  1  1  0  0  0 
  8 10  1  0  0  0  0 
  9 10  1  0  0  0  0 
  9 26  1  1  0  0  0 
 10  3  1  0  0  0  0 
 10  2  1  0  0  0  0 
 11  1  1  0  0  0  0 
 15  2  1  0  0  0  0 
 17  3  1  0  0  0  0 
 19  4  1  0  0  0  0 
 20  4  1  0  0  0  0 
 22  5  1  0  0  0  0 
 24  6  1  0  0  0  0 
M  END 
>  <HBA> 
0 
 
>  <HBD> 
0 
 
>  <TPSA> 
0.0 
 
>  <cid> 
28930 
 
>  <dipole> 
0.61 
 
>  <excitation_energy_1> 
5.861 
 
>  <excitation_energy_2> 
6.125 
 
>  <excitation_energy_3> 
6.345 
 
>  <excitation_energy_4> 
6.443 
 
>  <homo_energy> 
-6.324 
 
>  <homo_lumo_gap> 
7.031 
 
>  <logP> 
2.999 
 
>  <lumo_energy> 
0.708 
 
>  <melting_point> 
17.45 
 
>  <molecular_refractivity> 
45.22 
 
>  <oscillator_strength_1> 
0.0483 
 
>  <oscillator_strength_2> 
0.1266 
 
>  <oscillator_strength_3> 
0.0152 
 
>  <oscillator_strength_4> 
0.0166 
 
>  <open_babel_can_smiles> 
C=C1C[C@H]2C([C@@H]1CC2)(C)C 
 
>  <mulliken_charges> 
26 
1   -0.444392 
2   -0.461754 
3   -0.465491 
4   -0.277775 
5   -0.275929 
6   -0.33385 
7   0.240401 
8   -0.114883 
9   -0.162369 
10   0.102622 
11   0.129161 
12   0.130623 
13   0.137328 
14   0.139575 
15   0.154819 
16   0.140925 
17   0.145401 
18   0.14057 
19   0.133988 
20   0.137605 
21   0.138208 
22   0.143005 
23   0.151986 
24   0.145368 
25   0.112235 
26   0.11262 
 
>  <lowdin_charges> 
26 
1   -0.375235 
2   -0.447706 
3   -0.447794 
4   -0.285059 
5   -0.28455 
6   -0.284626 
7   0.004587 
8   -0.136524 
9   -0.13629 
10   0.005311 
11   0.154634 
12   0.155794 
13   0.1478 
14   0.149366 
15   0.157085 
16   0.150203 
17   0.152243 
18   0.149688 
19   0.143392 
20   0.143113 
21   0.144975 
22   0.150029 
23   0.154205 
24   0.150804 
25   0.139775 
26   0.144781 
 
$$$$ 
 
