PCCDB-ID:  21900 
public computational chemistry database (PCCDB) project, http://pccdb.org 
 
 34 35  0  0  1  0  0  0  0  0999 V2000 
    2.4935    0.6241   -1.6138 C   0  0  0  0  0  0  0  0  0  0  0  0 
    1.4063    2.5117    2.9341 C   0  0  0  0  0  0  0  0  0  0  0  0 
    0.8141    1.1009    2.8014 C   0  0  0  0  0  0  0  0  0  0  0  0 
    2.0258    2.9812    1.6096 C   0  0  0  0  0  0  0  0  0  0  0  0 
    1.8445    0.0938    2.2597 C   0  0  0  0  0  0  0  0  0  0  0  0 
    3.0862    1.9844    1.1148 C   0  0  0  0  0  0  0  0  0  0  0  0 
   -0.2266   -2.3544   -1.6316 C   0  0  0  0  0  0  0  0  0  0  0  0 
   -0.4791    0.1182   -0.9135 C   0  0  0  0  0  0  0  0  0  0  0  0 
    2.5584    0.5380    0.9603 C   0  0  0  0  0  0  0  0  0  0  0  0 
   -0.0030   -1.2947   -0.5598 C   0  0  2  0  0  0  0  0  0  0  0  0 
    1.7376    0.2754   -0.3259 C   0  0  1  0  0  0  0  0  0  0  0  0 
    0.3728   -3.5861   -1.2748 O   0  0  0  0  0  0  0  0  0  0  0  0 
    0.4847    0.9555   -0.2860 O   0  0  0  0  0  0  0  0  0  0  0  0 
    1.4106   -1.1314   -0.3771 O   0  0  0  0  0  0  0  0  0  0  0  0 
    2.6827    1.6983   -1.6830 H   0  0  0  0  0  0  0  0  0  0  0  0 
    1.9034    0.3226   -2.4842 H   0  0  0  0  0  0  0  0  0  0  0  0 
    3.4501    0.0931   -1.6546 H   0  0  0  0  0  0  0  0  0  0  0  0 
    2.1843    2.5099    3.7133 H   0  0  0  0  0  0  0  0  0  0  0  0 
    0.6342    3.2174    3.2667 H   0  0  0  0  0  0  0  0  0  0  0  0 
   -0.0491    1.1389    2.1290 H   0  0  0  0  0  0  0  0  0  0  0  0 
    0.4473    0.7527    3.7761 H   0  0  0  0  0  0  0  0  0  0  0  0 
    2.4874    3.9693    1.7370 H   0  0  0  0  0  0  0  0  0  0  0  0 
    1.2382    3.0899    0.8546 H   0  0  0  0  0  0  0  0  0  0  0  0 
    1.3822   -0.8873    2.1066 H   0  0  0  0  0  0  0  0  0  0  0  0 
    2.6235   -0.0501    3.0222 H   0  0  0  0  0  0  0  0  0  0  0  0 
    3.9015    1.9533    1.8524 H   0  0  0  0  0  0  0  0  0  0  0  0 
    3.5415    2.3383    0.1829 H   0  0  0  0  0  0  0  0  0  0  0  0 
    0.1639   -1.9786   -2.5925 H   0  0  0  0  0  0  0  0  0  0  0  0 
   -1.2982   -2.5492   -1.7545 H   0  0  0  0  0  0  0  0  0  0  0  0 
   -1.4618    0.3652   -0.5044 H   0  0  0  0  0  0  0  0  0  0  0  0 
   -0.4974    0.2780   -2.0028 H   0  0  0  0  0  0  0  0  0  0  0  0 
    3.4328   -0.1162    0.8343 H   0  0  0  0  0  0  0  0  0  0  0  0 
   -0.4421   -1.6363    0.3880 H   0  0  0  0  0  0  0  0  0  0  0  0 
    1.2964   -3.3762   -1.0567 H   0  0  0  0  0  0  0  0  0  0  0  0 
  2 19  1  0  0  0  0 
  2 18  1  0  0  0  0 
  3  2  1  0  0  0  0 
  3 21  1  0  0  0  0 
  4 22  1  0  0  0  0 
  4  2  1  0  0  0  0 
  5  3  1  0  0  0  0 
  5 25  1  0  0  0  0 
  6  4  1  0  0  0  0 
  6 26  1  0  0  0  0 
  7 12  1  0  0  0  0 
  7 10  1  0  0  0  0 
  8 10  1  0  0  0  0 
  8 30  1  0  0  0  0 
  8 13  1  0  0  0  0 
  9  6  1  0  0  0  0 
  9  5  1  0  0  0  0 
 10 14  1  0  0  0  0 
 10 33  1  1  0  0  0 
 11  1  1  6  0  0  0 
 11 13  1  0  0  0  0 
 11  9  1  0  0  0  0 
 12 34  1  0  0  0  0 
 14 11  1  0  0  0  0 
 15  1  1  0  0  0  0 
 16  1  1  0  0  0  0 
 17  1  1  0  0  0  0 
 20  3  1  0  0  0  0 
 23  4  1  0  0  0  0 
 24  5  1  0  0  0  0 
 27  6  1  0  0  0  0 
 28  7  1  0  0  0  0 
 29  7  1  0  0  0  0 
 31  8  1  0  0  0  0 
 32  9  1  0  0  0  0 
M  END 
>  <HBA> 
3 
 
>  <HBD> 
1 
 
>  <TPSA> 
38.69 
 
>  <cid> 
21900 
 
>  <dipole> 
1.48 
 
>  <excitation_energy_1> 
6.34 
 
>  <excitation_energy_2> 
6.51 
 
>  <excitation_energy_3> 
6.657 
 
>  <excitation_energy_4> 
6.736 
 
>  <homo_energy> 
-6.814 
 
>  <homo_lumo_gap> 
8.719 
 
>  <logP> 
1.691 
 
>  <lumo_energy> 
1.905 
 
>  <melting_point> 
27.01 
 
>  <molecular_refractivity> 
54.13 
 
>  <oscillator_strength_1> 
0.0014 
 
>  <oscillator_strength_2> 
0.0062 
 
>  <oscillator_strength_3> 
0.037 
 
>  <oscillator_strength_4> 
0.0076 
 
>  <open_babel_can_smiles> 
OC[C@@H]1CO[C@@](O1)(C)C1CCCCC1 
 
>  <mulliken_charges> 
34 
1   -0.461149 
2   -0.256467 
3   -0.253195 
4   -0.25748 
5   -0.280592 
6   -0.280877 
7   -0.032474 
8   -0.062978 
9   -0.097951 
10   0.112096 
11   0.541011 
12   -0.61864 
13   -0.50153 
14   -0.556333 
15   0.159209 
16   0.144672 
17   0.152086 
18   0.120746 
19   0.126376 
20   0.143409 
21   0.122083 
22   0.123528 
23   0.151907 
24   0.145079 
25   0.125867 
26   0.129592 
27   0.130669 
28   0.119807 
29   0.143353 
30   0.158768 
31   0.135709 
32   0.128067 
33   0.142168 
34   0.403468 
 
>  <lowdin_charges> 
34 
1   -0.460041 
2   -0.278469 
3   -0.283241 
4   -0.283235 
5   -0.279736 
6   -0.280682 
7   -0.142471 
8   -0.142233 
9   -0.141072 
10   -0.02778 
11   0.2206 
12   -0.46043 
13   -0.255254 
14   -0.287725 
15   0.158111 
16   0.154882 
17   0.158883 
18   0.13363 
19   0.142642 
20   0.145597 
21   0.139038 
22   0.139675 
23   0.149465 
24   0.14985 
25   0.140988 
26   0.142026 
27   0.143233 
28   0.12737 
29   0.147376 
30   0.158136 
31   0.132443 
32   0.150207 
33   0.14188 
34   0.346336 
 
$$$$ 
 
