PCCDB-ID:  69833 
public computational chemistry database (PCCDB) project, http://pccdb.org 
 
 22 22  0  0  0  0  0  0  0  0999 V2000 
   -0.8517   -1.1981    0.3866 C   0  0  0  0  0  0  0  0  0  0  0  0 
    0.7026   -1.2790    0.3190 C   0  0  0  0  0  0  0  0  0  0  0  0 
   -1.1912    0.3123    0.4332 C   0  0  0  0  0  0  0  0  0  0  0  0 
    1.2014    0.1868    0.3515 C   0  0  0  0  0  0  0  0  0  0  0  0 
   -0.0473    1.0554   -1.7388 C   0  0  0  0  0  0  0  0  0  0  0  0 
    1.0301    1.9204   -2.3978 C   0  0  0  0  0  0  0  0  0  0  0  0 
    0.0245    1.0258   -0.1993 C   0  0  0  0  0  0  0  0  0  0  0  0 
    0.8848    1.9971   -3.8132 O   0  0  0  0  0  0  0  0  0  0  0  0 
   -1.2545   -1.7256    1.2576 H   0  0  0  0  0  0  0  0  0  0  0  0 
   -1.2996   -1.6690   -0.4956 H   0  0  0  0  0  0  0  0  0  0  0  0 
    1.0202   -1.7738   -0.6059 H   0  0  0  0  0  0  0  0  0  0  0  0 
    1.1245   -1.8647    1.1425 H   0  0  0  0  0  0  0  0  0  0  0  0 
   -1.2929    0.6384    1.4763 H   0  0  0  0  0  0  0  0  0  0  0  0 
   -2.1345    0.5523   -0.0708 H   0  0  0  0  0  0  0  0  0  0  0  0 
    2.1359    0.3255   -0.2032 H   0  0  0  0  0  0  0  0  0  0  0  0 
    1.4000    0.4909    1.3872 H   0  0  0  0  0  0  0  0  0  0  0  0 
    0.0202    0.0322   -2.1406 H   0  0  0  0  0  0  0  0  0  0  0  0 
   -1.0240    1.4462   -2.0525 H   0  0  0  0  0  0  0  0  0  0  0  0 
    2.0378    1.5668   -2.1263 H   0  0  0  0  0  0  0  0  0  0  0  0 
    0.9468    2.9537   -2.0425 H   0  0  0  0  0  0  0  0  0  0  0  0 
    0.0870    2.0642    0.1549 H   0  0  0  0  0  0  0  0  0  0  0  0 
    0.9884    1.0986   -4.1635 H   0  0  0  0  0  0  0  0  0  0  0  0 
  1  3  1  0  0  0  0 
  1  9  1  0  0  0  0 
  2  4  1  0  0  0  0 
  2  1  1  0  0  0  0 
  2 12  1  0  0  0  0 
  3 13  1  0  0  0  0 
  4 16  1  0  0  0  0 
  5  7  1  0  0  0  0 
  6 19  1  0  0  0  0 
  6 20  1  0  0  0  0 
  6  5  1  0  0  0  0 
  7 21  1  0  0  0  0 
  7  4  1  0  0  0  0 
  7  3  1  0  0  0  0 
  8  6  1  0  0  0  0 
 10  1  1  0  0  0  0 
 11  2  1  0  0  0  0 
 14  3  1  0  0  0  0 
 15  4  1  0  0  0  0 
 17  5  1  0  0  0  0 
 18  5  1  0  0  0  0 
 22  8  1  0  0  0  0 
M  END 
>  <HBA> 
1 
 
>  <HBD> 
1 
 
>  <TPSA> 
20.23 
 
>  <cid> 
69833 
 
>  <dipole> 
1.78 
 
>  <excitation_energy_1> 
6.334 
 
>  <excitation_energy_2> 
6.896 
 
>  <excitation_energy_3> 
7.205 
 
>  <excitation_energy_4> 
7.363 
 
>  <homo_energy> 
-7.012 
 
>  <homo_lumo_gap> 
8.942 
 
>  <logP> 
1.559 
 
>  <lumo_energy> 
1.929 
 
>  <melting_point> 
13.97 
 
>  <molecular_refractivity> 
34.81 
 
>  <oscillator_strength_1> 
0.009 
 
>  <oscillator_strength_2> 
0.0102 
 
>  <oscillator_strength_3> 
0.0134 
 
>  <oscillator_strength_4> 
0.009 
 
>  <open_babel_can_smiles> 
OCCC1CCCC1 
 
>  <mulliken_charges> 
22 
1   -0.272082 
2   -0.271827 
3   -0.269935 
4   -0.275057 
5   -0.281417 
6   -0.030186 
7   -0.094888 
8   -0.616889 
9   0.136999 
10   0.137421 
11   0.134461 
12   0.137111 
13   0.132969 
14   0.132895 
15   0.133646 
16   0.134643 
17   0.119356 
18   0.144296 
19   0.120376 
20   0.144214 
21   0.119451 
22   0.384442 
 
>  <lowdin_charges> 
22 
1   -0.289711 
2   -0.289452 
3   -0.280754 
4   -0.284925 
5   -0.295305 
6   -0.133702 
7   -0.13015 
8   -0.468976 
9   0.146756 
10   0.143734 
11   0.141387 
12   0.147323 
13   0.141029 
14   0.143981 
15   0.142308 
16   0.14213 
17   0.133601 
18   0.148467 
19   0.123672 
20   0.143987 
21   0.136802 
22   0.3378 
 
$$$$ 
 
