PCCDB-ID:  66654 
public computational chemistry database (PCCDB) project, http://pccdb.org 
 
 26 26  0  0  0  0  0  0  0  0999 V2000 
    2.3156   -1.6489   -0.4942 C   0  0  0  0  0  0  0  0  0  0  0  0 
    4.4026    5.1312   -2.9768 C   0  0  0  0  0  0  0  0  0  0  0  0 
    1.2784    3.4343    0.5295 C   0  0  0  0  0  0  0  0  0  0  0  0 
    4.8808    1.5599   -2.4460 C   0  0  0  0  0  0  0  0  0  0  0  0 
    3.3174    3.0751   -1.3697 C   0  0  0  0  0  0  0  0  0  0  0  0 
    2.8796   -0.4085    0.1744 C   0  0  0  0  0  0  0  0  0  0  0  0 
    4.3424    2.8393   -2.2929 C   0  0  0  0  0  0  0  0  0  0  0  0 
    4.3891    0.5143   -1.6667 C   0  0  0  0  0  0  0  0  0  0  0  0 
    2.8465    2.0100   -0.5890 C   0  0  0  0  0  0  0  0  0  0  0  0 
    3.3680    0.7066   -0.7214 C   0  0  0  0  0  0  0  0  0  0  0  0 
    2.8932   -0.2887    1.3853 O   0  0  0  0  0  0  0  0  0  0  0  0 
    4.9170   -0.7455   -1.7748 O   0  0  0  0  0  0  0  0  0  0  0  0 
    4.8818    3.8004   -3.0944 O   0  0  0  0  0  0  0  0  0  0  0  0 
    1.8339    2.1494    0.3073 O   0  0  0  0  0  0  0  0  0  0  0  0 
    1.3768   -1.3840   -0.9991 H   0  0  0  0  0  0  0  0  0  0  0  0 
    2.1138   -2.4100    0.2633 H   0  0  0  0  0  0  0  0  0  0  0  0 
    2.9985   -2.0364   -1.2545 H   0  0  0  0  0  0  0  0  0  0  0  0 
    4.9784    5.7192   -3.6937 H   0  0  0  0  0  0  0  0  0  0  0  0 
    4.5648    5.5300   -1.9671 H   0  0  0  0  0  0  0  0  0  0  0  0 
    3.3358    5.1996   -3.2268 H   0  0  0  0  0  0  0  0  0  0  0  0 
    0.8032    3.8337   -0.3766 H   0  0  0  0  0  0  0  0  0  0  0  0 
    2.0359    4.1444    0.8856 H   0  0  0  0  0  0  0  0  0  0  0  0 
    0.5211    3.2977    1.3031 H   0  0  0  0  0  0  0  0  0  0  0  0 
    5.6838    1.4055   -3.1612 H   0  0  0  0  0  0  0  0  0  0  0  0 
    2.8915    4.0616   -1.2611 H   0  0  0  0  0  0  0  0  0  0  0  0 
    5.6249   -0.7302   -2.4371 H   0  0  0  0  0  0  0  0  0  0  0  0 
  1  6  1  0  0  0  0 
  1 16  1  0  0  0  0 
  2 19  1  0  0  0  0 
  3 22  1  0  0  0  0 
  3 23  1  0  0  0  0 
  4  7  2  0  0  0  0 
  4  8  1  0  0  0  0 
  5 25  1  0  0  0  0 
  5  9  2  0  0  0  0 
  6 11  2  0  0  0  0 
  7  5  1  0  0  0  0 
  8 10  2  0  0  0  0 
  9 14  1  0  0  0  0 
 10  9  1  0  0  0  0 
 10  6  1  0  0  0  0 
 12  8  1  0  0  0  0 
 13  2  1  0  0  0  0 
 13  7  1  0  0  0  0 
 14  3  1  0  0  0  0 
 15  1  1  0  0  0  0 
 17  1  1  0  0  0  0 
 18  2  1  0  0  0  0 
 20  2  1  0  0  0  0 
 21  3  1  0  0  0  0 
 24  4  1  0  0  0  0 
 26 12  1  0  0  0  0 
M  END 
>  <HBA> 
4 
 
>  <HBD> 
1 
 
>  <TPSA> 
55.76 
 
>  <cid> 
66654 
 
>  <dipole> 
4.8 
 
>  <excitation_energy_1> 
4.098 
 
>  <excitation_energy_2> 
4.519 
 
>  <excitation_energy_3> 
4.727 
 
>  <excitation_energy_4> 
5.117 
 
>  <homo_energy> 
-5.774 
 
>  <homo_lumo_gap> 
5.309 
 
>  <logP> 
1.612 
 
>  <lumo_energy> 
-0.465 
 
>  <melting_point> 
91.4 
 
>  <molecular_refractivity> 
51.64 
 
>  <oscillator_strength_1> 
0.0076 
 
>  <oscillator_strength_2> 
0.0759 
 
>  <oscillator_strength_3> 
0.0727 
 
>  <oscillator_strength_4> 
0.0029 
 
>  <open_babel_can_smiles> 
COc1cc(OC)cc(c1C(=O)C)O 
 
>  <mulliken_charges> 
26 
1   -0.53434 
2   -0.215001 
3   -0.213468 
4   -0.264738 
5   -0.289234 
6   0.417192 
7   0.395977 
8   0.324769 
9   0.355169 
10   -0.042437 
11   -0.429545 
12   -0.649768 
13   -0.511811 
14   -0.496191 
15   0.16559 
16   0.167693 
17   0.186183 
18   0.172691 
19   0.155421 
20   0.153358 
21   0.147775 
22   0.154432 
23   0.177488 
24   0.125575 
25   0.133308 
26   0.413912 
 
>  <lowdin_charges> 
26 
1   -0.47753 
2   -0.27547 
3   -0.278575 
4   -0.262869 
5   -0.28786 
6   0.175045 
7   0.125552 
8   0.120944 
9   0.132467 
10   -0.118148 
11   -0.225061 
12   -0.376417 
13   -0.194171 
14   -0.180824 
15   0.168857 
16   0.167061 
17   0.177031 
18   0.166023 
19   0.146592 
20   0.14417 
21   0.143525 
22   0.148299 
23   0.167716 
24   0.163711 
25   0.168 
26   0.361931 
 
$$$$ 
 
