PCCDB-ID:  16194 
public computational chemistry database (PCCDB) project, http://pccdb.org 
 
 23 23  0  0  0  0  0  0  0  0999 V2000 
    3.1638   -1.2874    0.0800 C   0  0  0  0  0  0  0  0  0  0  0  0 
    3.1176    3.5174   -0.0117 C   0  0  0  0  0  0  0  0  0  0  0  0 
    5.2379    2.3958   -0.1044 C   0  0  0  0  0  0  0  0  0  0  0  0 
    2.4628    2.2926    0.0518 C   0  0  0  0  0  0  0  0  0  0  0  0 
    4.5977    1.1561   -0.0474 C   0  0  0  0  0  0  0  0  0  0  0  0 
    5.2244    4.9279   -0.1385 C   0  0  0  0  0  0  0  0  0  0  0  0 
    4.5156    3.5934   -0.0846 C   0  0  0  0  0  0  0  0  0  0  0  0 
    3.2005    1.1013    0.0352 C   0  0  0  0  0  0  0  0  0  0  0  0 
    6.6629    6.3548   -1.3951 N   0  0  0  0  0  0  0  0  0  0  0  0 
    6.1791    4.9634   -1.2568 N   0  0  0  0  0  0  0  0  0  0  0  0 
    2.4693   -0.0516    0.0992 O   0  0  0  0  0  0  0  0  0  0  0  0 
    2.3978   -2.0628    0.1412 H   0  0  0  0  0  0  0  0  0  0  0  0 
    3.8447   -1.3829    0.9364 H   0  0  0  0  0  0  0  0  0  0  0  0 
    3.7359   -1.4161   -0.8487 H   0  0  0  0  0  0  0  0  0  0  0  0 
    2.5311    4.4335   -0.0037 H   0  0  0  0  0  0  0  0  0  0  0  0 
    6.3208    2.4349   -0.1790 H   0  0  0  0  0  0  0  0  0  0  0  0 
    1.3804    2.2329    0.1101 H   0  0  0  0  0  0  0  0  0  0  0  0 
    5.1921    0.2495   -0.0653 H   0  0  0  0  0  0  0  0  0  0  0  0 
    5.8052    5.0871    0.7837 H   0  0  0  0  0  0  0  0  0  0  0  0 
    4.4912    5.7500   -0.1929 H   0  0  0  0  0  0  0  0  0  0  0  0 
    7.4415    6.2734   -2.0547 H   0  0  0  0  0  0  0  0  0  0  0  0 
    7.1378    6.5357   -0.5056 H   0  0  0  0  0  0  0  0  0  0  0  0 
    5.6200    4.8242   -2.1013 H   0  0  0  0  0  0  0  0  0  0  0  0 
  1 11  1  0  0  0  0 
  1 12  1  0  0  0  0 
  1 13  1  0  0  0  0 
  2 15  1  0  0  0  0 
  2  4  2  0  0  0  0 
  3  7  2  0  0  0  0 
  3  5  1  0  0  0  0 
  4 17  1  0  0  0  0 
  5  8  2  0  0  0  0 
  6  7  1  0  0  0  0 
  6 19  1  0  0  0  0 
  7  2  1  0  0  0  0 
  8  4  1  0  0  0  0 
  8 11  1  0  0  0  0 
  9 10  1  0  0  0  0 
  9 22  1  0  0  0  0 
 10  6  1  0  0  0  0 
 14  1  1  0  0  0  0 
 16  3  1  0  0  0  0 
 18  5  1  0  0  0  0 
 20  6  1  0  0  0  0 
 21  9  1  0  0  0  0 
 23 10  1  0  0  0  0 
M  END 
>  <HBA> 
3 
 
>  <HBD> 
2 
 
>  <TPSA> 
47.28 
 
>  <cid> 
16194 
 
>  <dipole> 
1.71 
 
>  <excitation_energy_1> 
4.537 
 
>  <excitation_energy_2> 
4.822 
 
>  <excitation_energy_3> 
4.948 
 
>  <excitation_energy_4> 
5.026 
 
>  <homo_energy> 
-5.32 
 
>  <homo_lumo_gap> 
5.382 
 
>  <logP> 
1.75 
 
>  <lumo_energy> 
0.063 
 
>  <melting_point> 
94.69 
 
>  <molecular_refractivity> 
43.41 
 
>  <oscillator_strength_1> 
0.0086 
 
>  <oscillator_strength_2> 
0.0081 
 
>  <oscillator_strength_3> 
0.0162 
 
>  <oscillator_strength_4> 
0.0188 
 
>  <open_babel_can_smiles> 
NNCc1ccc(cc1)OC 
 
>  <mulliken_charges> 
23 
1   -0.213844 
2   -0.190168 
3   -0.173243 
4   -0.172944 
5   -0.19663 
6   -0.195724 
7   0.130182 
8   0.375388 
9   -0.593748 
10   -0.464136 
11   -0.507648 
12   0.168616 
13   0.151143 
14   0.151191 
15   0.126762 
16   0.141544 
17   0.136087 
18   0.129901 
19   0.143343 
20   0.13671 
21   0.305193 
22   0.302146 
23   0.309881 
 
>  <lowdin_charges> 
23 
1   -0.278734 
2   -0.157205 
3   -0.144924 
4   -0.181732 
5   -0.214176 
6   -0.205801 
7   -0.035205 
8   0.100545 
9   -0.497408 
10   -0.321235 
11   -0.200503 
12   0.162985 
13   0.14505 
14   0.14475 
15   0.157057 
16   0.162637 
17   0.163858 
18   0.161669 
19   0.142347 
20   0.13353 
21   0.254835 
22   0.252112 
23   0.255549 
 
$$$$ 
 
