PCCDB-ID:  50861 
public computational chemistry database (PCCDB) project, http://pccdb.org 
 
 29 29  0  0  0  0  0  0  0  0999 V2000 
    1.4411   -3.1308   -2.3161 C   0  0  0  0  0  0  0  0  0  0  0  0 
    1.2535   -2.5025   -1.0845 C   0  0  0  0  0  0  0  0  0  0  0  0 
    2.3124   -2.5716   -3.2544 C   0  0  0  0  0  0  0  0  0  0  0  0 
    7.2554   -0.9750    0.0136 C   0  0  0  0  0  0  0  0  0  0  0  0 
    5.7628   -0.6077   -0.0719 C   0  0  0  0  0  0  0  0  0  0  0  0 
    1.9437   -1.3262   -0.7834 C   0  0  0  0  0  0  0  0  0  0  0  0 
    2.9880   -1.3863   -2.9655 C   0  0  0  0  0  0  0  0  0  0  0  0 
    7.7366   -1.9248   -1.0870 C   0  0  0  0  0  0  0  0  0  0  0  0 
    5.4113    0.2650   -1.2796 C   0  0  0  0  0  0  0  0  0  0  0  0 
    2.8167   -0.7609   -1.7219 C   0  0  0  0  0  0  0  0  0  0  0  0 
    9.5355   -3.2778   -1.8756 N   0  0  0  0  0  0  0  0  0  0  0  0 
    9.1621   -2.2182   -0.9099 N   0  0  0  0  0  0  0  0  0  0  0  0 
    3.6423    0.7904   -1.3460 S   0  0  0  0  0  0  0  0  0  0  0  0 
    0.9090   -4.0497   -2.5468 H   0  0  0  0  0  0  0  0  0  0  0  0 
    0.5768   -2.9318   -0.3504 H   0  0  0  0  0  0  0  0  0  0  0  0 
    2.4549   -3.0511   -4.2193 H   0  0  0  0  0  0  0  0  0  0  0  0 
    7.4346   -1.4498    0.9893 H   0  0  0  0  0  0  0  0  0  0  0  0 
    7.8726   -0.0674   -0.0043 H   0  0  0  0  0  0  0  0  0  0  0  0 
    5.4739   -0.0704    0.8394 H   0  0  0  0  0  0  0  0  0  0  0  0 
    5.1572   -1.5228   -0.0979 H   0  0  0  0  0  0  0  0  0  0  0  0 
    1.8106   -0.8420    0.1792 H   0  0  0  0  0  0  0  0  0  0  0  0 
    3.6422   -0.9371   -3.7074 H   0  0  0  0  0  0  0  0  0  0  0  0 
    7.6221   -1.4500   -2.0718 H   0  0  0  0  0  0  0  0  0  0  0  0 
    7.1209   -2.8416   -1.1023 H   0  0  0  0  0  0  0  0  0  0  0  0 
    5.6578   -0.2273   -2.2252 H   0  0  0  0  0  0  0  0  0  0  0  0 
    5.9694    1.2084   -1.2508 H   0  0  0  0  0  0  0  0  0  0  0  0 
    9.3864   -2.8355   -2.7874 H   0  0  0  0  0  0  0  0  0  0  0  0 
   10.5566   -3.3123   -1.8083 H   0  0  0  0  0  0  0  0  0  0  0  0 
    9.2392   -2.6984   -0.0102 H   0  0  0  0  0  0  0  0  0  0  0  0 
  1  2  2  0  0  0  0 
  2  6  1  0  0  0  0 
  2 15  1  0  0  0  0 
  3  7  2  0  0  0  0 
  3  1  1  0  0  0  0 
  4 17  1  0  0  0  0 
  5  4  1  0  0  0  0 
  5 19  1  0  0  0  0 
  6 21  1  0  0  0  0 
  7 10  1  0  0  0  0 
  8 12  1  0  0  0  0 
  8  4  1  0  0  0  0 
  9 26  1  0  0  0  0 
  9  5  1  0  0  0  0 
 10 13  1  0  0  0  0 
 10  6  2  0  0  0  0 
 11 28  1  0  0  0  0 
 11 12  1  0  0  0  0 
 12 29  1  0  0  0  0 
 13  9  1  0  0  0  0 
 14  1  1  0  0  0  0 
 16  3  1  0  0  0  0 
 18  4  1  0  0  0  0 
 20  5  1  0  0  0  0 
 22  7  1  0  0  0  0 
 23  8  1  0  0  0  0 
 24  8  1  0  0  0  0 
 25  9  1  0  0  0  0 
 27 11  1  0  0  0  0 
M  END 
>  <HBA> 
3 
 
>  <HBD> 
2 
 
>  <TPSA> 
63.35 
 
>  <cid> 
50861 
 
>  <dipole> 
1.58 
 
>  <excitation_energy_1> 
4.479 
 
>  <excitation_energy_2> 
4.519 
 
>  <excitation_energy_3> 
4.75 
 
>  <excitation_energy_4> 
4.757 
 
>  <homo_energy> 
-5.342 
 
>  <homo_lumo_gap> 
4.917 
 
>  <logP> 
3.113 
 
>  <lumo_energy> 
-0.425 
 
>  <melting_point> 
95.57 
 
>  <molecular_refractivity> 
58.09 
 
>  <oscillator_strength_1> 
0.0411 
 
>  <oscillator_strength_2> 
0.0014 
 
>  <oscillator_strength_3> 
0.003 
 
>  <oscillator_strength_4> 
0.0062 
 
>  <open_babel_can_smiles> 
NNCCCCSc1ccccc1 
 
>  <mulliken_charges> 
29 
1   -0.130648 
2   -0.120053 
3   -0.119149 
4   -0.274064 
5   -0.25359 
6   -0.148171 
7   -0.144476 
8   -0.112407 
9   -0.423943 
10   -0.082382 
11   -0.595054 
12   -0.471615 
13   0.081621 
14   0.134103 
15   0.134637 
16   0.134319 
17   0.132964 
18   0.147792 
19   0.149458 
20   0.150745 
21   0.147527 
22   0.141603 
23   0.130829 
24   0.131751 
25   0.174767 
26   0.172516 
27   0.301366 
28   0.304415 
29   0.305141 
 
>  <lowdin_charges> 
29 
1   -0.152826 
2   -0.155671 
3   -0.153835 
4   -0.279601 
5   -0.281688 
6   -0.157247 
7   -0.15838 
8   -0.211772 
9   -0.373256 
10   -0.126475 
11   -0.494408 
12   -0.321948 
13   0.121695 
14   0.159746 
15   0.161469 
16   0.159751 
17   0.143186 
18   0.148559 
19   0.153408 
20   0.150486 
21   0.16732 
22   0.164758 
23   0.133773 
24   0.128101 
25   0.15619 
26   0.165307 
27   0.251068 
28   0.251246 
29   0.251043 
 
$$$$ 
 
