PCCDB-ID:  65052 
public computational chemistry database (PCCDB) project, http://pccdb.org 
 
 17 17  0  0  0  0  0  0  0  0999 V2000 
   -0.7072    1.1279    0.0299 C   0  0  0  0  0  0  0  0  0  0  0  0 
    1.3968   -0.0399   -0.1273 C   0  0  0  0  0  0  0  0  0  0  0  0 
   -1.3852   -0.0853    0.0381 C   0  0  0  0  0  0  0  0  0  0  0  0 
    0.7312   -1.2601   -0.1142 C   0  0  0  0  0  0  0  0  0  0  0  0 
    0.6897    1.1716   -0.0657 C   0  0  0  0  0  0  0  0  0  0  0  0 
   -0.6666   -1.2854   -0.0374 C   0  0  0  0  0  0  0  0  0  0  0  0 
    1.3407    2.5194   -0.0752 C   0  0  0  0  0  0  0  0  0  0  0  0 
    2.6592    2.5616   -0.4802 N   0  0  0  0  0  0  0  0  0  0  0  0 
   -1.2715   -2.5075   -0.0336 O   0  0  0  0  0  0  0  0  0  0  0  0 
    0.7501    3.5327    0.2809 O   0  0  0  0  0  0  0  0  0  0  0  0 
   -1.2468    2.0666    0.0995 H   0  0  0  0  0  0  0  0  0  0  0  0 
    2.4830   -0.0400   -0.1506 H   0  0  0  0  0  0  0  0  0  0  0  0 
   -2.4716   -0.1057    0.1056 H   0  0  0  0  0  0  0  0  0  0  0  0 
    1.2727   -2.1998   -0.1510 H   0  0  0  0  0  0  0  0  0  0  0  0 
    3.0130    1.8548   -1.1091 H   0  0  0  0  0  0  0  0  0  0  0  0 
    3.0276    3.4945   -0.6138 H   0  0  0  0  0  0  0  0  0  0  0  0 
   -2.2314   -2.3863    0.0381 H   0  0  0  0  0  0  0  0  0  0  0  0 
  1  3  1  0  0  0  0 
  1 11  1  0  0  0  0 
  2  4  2  0  0  0  0 
  2  5  1  0  0  0  0 
  3 13  1  0  0  0  0 
  4  6  1  0  0  0  0 
  5  1  2  0  0  0  0 
  6  9  1  0  0  0  0 
  6  3  2  0  0  0  0 
  7  5  1  0  0  0  0 
  7 10  2  0  0  0  0 
  8  7  1  0  0  0  0 
  9 17  1  0  0  0  0 
 12  2  1  0  0  0  0 
 14  4  1  0  0  0  0 
 15  8  1  0  0  0  0 
 16  8  1  0  0  0  0 
M  END 
>  <HBA> 
3 
 
>  <HBD> 
2 
 
>  <TPSA> 
63.32 
 
>  <cid> 
65052 
 
>  <dipole> 
2.79 
 
>  <excitation_energy_1> 
4.642 
 
>  <excitation_energy_2> 
4.936 
 
>  <excitation_energy_3> 
5.107 
 
>  <excitation_energy_4> 
5.437 
 
>  <homo_energy> 
-6.259 
 
>  <homo_lumo_gap> 
5.516 
 
>  <logP> 
1.191 
 
>  <lumo_energy> 
-0.743 
 
>  <melting_point> 
134.1 
 
>  <molecular_refractivity> 
36.56 
 
>  <oscillator_strength_1> 
0.0091 
 
>  <oscillator_strength_2> 
0.0234 
 
>  <oscillator_strength_3> 
0.2458 
 
>  <oscillator_strength_4> 
0.0004 
 
>  <open_babel_can_smiles> 
NC(=O)c1ccc(cc1)O 
 
>  <mulliken_charges> 
17 
1   -0.166759 
2   -0.190679 
3   -0.19808 
4   -0.162254 
5   0.077562 
6   0.358675 
7   0.524302 
8   -0.753333 
9   -0.63566 
10   -0.506888 
11   0.168107 
12   0.134395 
13   0.126929 
14   0.145055 
15   0.329016 
16   0.338069 
17   0.411544 
 
>  <lowdin_charges> 
17 
1   -0.119202 
2   -0.142912 
3   -0.208931 
4   -0.186227 
5   -0.066204 
6   0.111747 
7   0.168811 
8   -0.477417 
9   -0.366629 
10   -0.306844 
11   0.180025 
12   0.157851 
13   0.154838 
14   0.170117 
15   0.28377 
16   0.288665 
17   0.358542 
 
$$$$ 
 
