PCCDB-ID:  25057 
public computational chemistry database (PCCDB) project, http://pccdb.org 
 
 34 35  0  0  0  0  0  0  0  0999 V2000 
    3.2819    0.3404   -1.3900 C   0  0  0  0  0  0  0  0  0  0  0  0 
   -2.0139   -7.1240    0.4285 C   0  0  0  0  0  0  0  0  0  0  0  0 
    2.7937    0.5038    0.0588 C   0  0  0  0  0  0  0  0  0  0  0  0 
    2.2951   -0.4997   -2.2172 C   0  0  0  0  0  0  0  0  0  0  0  0 
   -2.9525   -5.9112    0.5395 C   0  0  0  0  0  0  0  0  0  0  0  0 
   -0.5552   -6.7274    0.7097 C   0  0  0  0  0  0  0  0  0  0  0  0 
    2.4851   -0.8652    0.6852 C   0  0  0  0  0  0  0  0  0  0  0  0 
    1.9992   -1.8366   -1.5190 C   0  0  0  0  0  0  0  0  0  0  0  0 
   -2.4529   -4.7549   -0.3410 C   0  0  0  0  0  0  0  0  0  0  0  0 
   -0.1325   -5.5430   -0.1737 C   0  0  0  0  0  0  0  0  0  0  0  0 
    1.5543   -1.6576   -0.1301 N   0  0  0  0  0  0  0  0  0  0  0  0 
   -1.0533   -4.4027   -0.0634 N   0  0  0  0  0  0  0  0  0  0  0  0 
   -0.1162   -1.4804    0.1527 S   0  0  0  0  0  0  0  0  0  0  0  0 
   -0.7424   -3.2509    1.1541 S   0  0  0  0  0  0  0  0  0  0  0  0 
    4.2626   -0.1594   -1.3843 H   0  0  0  0  0  0  0  0  0  0  0  0 
    3.4354    1.3213   -1.8563 H   0  0  0  0  0  0  0  0  0  0  0  0 
   -2.0838   -7.5399   -0.5882 H   0  0  0  0  0  0  0  0  0  0  0  0 
   -2.3333   -7.9199    1.1127 H   0  0  0  0  0  0  0  0  0  0  0  0 
    1.8816    1.1163    0.0780 H   0  0  0  0  0  0  0  0  0  0  0  0 
    3.5465    1.0278    0.6625 H   0  0  0  0  0  0  0  0  0  0  0  0 
    2.6958   -0.6861   -3.2224 H   0  0  0  0  0  0  0  0  0  0  0  0 
    1.3518    0.0499   -2.3426 H   0  0  0  0  0  0  0  0  0  0  0  0 
   -2.9976   -5.5684    1.5826 H   0  0  0  0  0  0  0  0  0  0  0  0 
   -3.9741   -6.1872    0.2467 H   0  0  0  0  0  0  0  0  0  0  0  0 
    0.1157   -7.5791    0.5357 H   0  0  0  0  0  0  0  0  0  0  0  0 
   -0.4440   -6.4392    1.7642 H   0  0  0  0  0  0  0  0  0  0  0  0 
    2.0649   -0.7616    1.6886 H   0  0  0  0  0  0  0  0  0  0  0  0 
    3.4181   -1.4432    0.7779 H   0  0  0  0  0  0  0  0  0  0  0  0 
    2.9161   -2.4472   -1.4970 H   0  0  0  0  0  0  0  0  0  0  0  0 
    1.2374   -2.4084   -2.0541 H   0  0  0  0  0  0  0  0  0  0  0  0 
   -3.0674   -3.8600   -0.2148 H   0  0  0  0  0  0  0  0  0  0  0  0 
   -2.5147   -5.0492   -1.4006 H   0  0  0  0  0  0  0  0  0  0  0  0 
   -0.1237   -5.8586   -1.2292 H   0  0  0  0  0  0  0  0  0  0  0  0 
    0.8741   -5.1978    0.0738 H   0  0  0  0  0  0  0  0  0  0  0  0 
  1 15  1  0  0  0  0 
  1  3  1  0  0  0  0 
  2  5  1  0  0  0  0 
  2  6  1  0  0  0  0 
  2 18  1  0  0  0  0 
  3 19  1  0  0  0  0 
  3 20  1  0  0  0  0 
  3  7  1  0  0  0  0 
  4  8  1  0  0  0  0 
  4  1  1  0  0  0  0 
  5 23  1  0  0  0  0 
  6 26  1  0  0  0  0 
  7 28  1  0  0  0  0 
  7 27  1  0  0  0  0 
  8 29  1  0  0  0  0 
  8 11  1  0  0  0  0 
  9 31  1  0  0  0  0 
  9 12  1  0  0  0  0 
  9  5  1  0  0  0  0 
 10 12  1  0  0  0  0 
 10 34  1  0  0  0  0 
 10  6  1  0  0  0  0 
 11 13  1  0  0  0  0 
 11  7  1  0  0  0  0 
 12 14  1  0  0  0  0 
 13 14  1  0  0  0  0 
 16  1  1  0  0  0  0 
 17  2  1  0  0  0  0 
 21  4  1  0  0  0  0 
 22  4  1  0  0  0  0 
 24  5  1  0  0  0  0 
 25  6  1  0  0  0  0 
 30  8  1  0  0  0  0 
 32  9  1  0  0  0  0 
 33 10  1  0  0  0  0 
M  END 
>  <HBA> 
4 
 
>  <HBD> 
0 
 
>  <TPSA> 
57.08 
 
>  <cid> 
25057 
 
>  <dipole> 
1.89 
 
>  <excitation_energy_1> 
4.129 
 
>  <excitation_energy_2> 
4.681 
 
>  <excitation_energy_3> 
4.821 
 
>  <excitation_energy_4> 
4.875 
 
>  <homo_energy> 
-5.271 
 
>  <homo_lumo_gap> 
4.876 
 
>  <logP> 
3.045 
 
>  <lumo_energy> 
-0.395 
 
>  <melting_point> 
39.15 
 
>  <molecular_refractivity> 
74.76 
 
>  <oscillator_strength_1> 
0.1839 
 
>  <oscillator_strength_2> 
0.0034 
 
>  <oscillator_strength_3> 
0.0196 
 
>  <oscillator_strength_4> 
0.0082 
 
>  <open_babel_can_smiles> 
C1CCN(CC1)SSN1CCCCC1 
 
>  <mulliken_charges> 
34 
1   -0.262709 
2   -0.262757 
3   -0.261285 
4   -0.261342 
5   -0.261383 
6   -0.26137 
7   -0.127665 
8   -0.129802 
9   -0.128035 
10   -0.130083 
11   -0.485319 
12   -0.485249 
13   0.111334 
14   0.110219 
15   0.128055 
16   0.136788 
17   0.128033 
18   0.136714 
19   0.144601 
20   0.132244 
21   0.131508 
22   0.144985 
23   0.144721 
24   0.132148 
25   0.131388 
26   0.145268 
27   0.160737 
28   0.138457 
29   0.136763 
30   0.163596 
31   0.160627 
32   0.138497 
33   0.13696 
34   0.163355 
 
>  <lowdin_charges> 
34 
1   -0.27866 
2   -0.27939 
3   -0.292041 
4   -0.289576 
5   -0.28808 
6   -0.290036 
7   -0.202328 
8   -0.205244 
9   -0.201561 
10   -0.201949 
11   -0.319743 
12   -0.319473 
13   0.120425 
14   0.118137 
15   0.136901 
16   0.145848 
17   0.136515 
18   0.147019 
19   0.146514 
20   0.147245 
21   0.144886 
22   0.146482 
23   0.145168 
24   0.144983 
25   0.146141 
26   0.145213 
27   0.158875 
28   0.140246 
29   0.138959 
30   0.162279 
31   0.160034 
32   0.138615 
33   0.137699 
34   0.159897 
 
$$$$ 
 
