PCCDB-ID:  69294 
public computational chemistry database (PCCDB) project, http://pccdb.org 
 
 29 30  0  0  0  0  0  0  0  0999 V2000 
    0.7083   -0.3182   -2.1246 C   0  0  0  0  0  0  0  0  0  0  0  0 
    8.2702   -6.6071   -0.4073 C   0  0  0  0  0  0  0  0  0  0  0  0 
    3.0496   -1.2706   -2.3361 C   0  0  0  0  0  0  0  0  0  0  0  0 
    2.5877    0.2149   -0.5087 C   0  0  0  0  0  0  0  0  0  0  0  0 
    6.5694   -4.8101    0.1515 C   0  0  0  0  0  0  0  0  0  0  0  0 
    8.6113   -4.1486   -0.9224 C   0  0  0  0  0  0  0  0  0  0  0  0 
    4.3755   -1.3808   -1.9246 C   0  0  0  0  0  0  0  0  0  0  0  0 
    3.9072    0.0945   -0.0714 C   0  0  0  0  0  0  0  0  0  0  0  0 
    6.1529   -3.4819    0.1996 C   0  0  0  0  0  0  0  0  0  0  0  0 
    8.1956   -2.8169   -0.9029 C   0  0  0  0  0  0  0  0  0  0  0  0 
    2.1331   -0.4653   -1.6443 C   0  0  0  0  0  0  0  0  0  0  0  0 
    7.8078   -5.1689   -0.4002 C   0  0  0  0  0  0  0  0  0  0  0  0 
    4.8140   -0.7017   -0.7802 C   0  0  0  0  0  0  0  0  0  0  0  0 
    6.9632   -2.4722   -0.3362 C   0  0  0  0  0  0  0  0  0  0  0  0 
    6.5238   -0.7353   -0.2375 S   0  0  0  0  0  0  0  0  0  0  0  0 
    0.3547   -1.2290   -2.6196 H   0  0  0  0  0  0  0  0  0  0  0  0 
    0.6153    0.5016   -2.8498 H   0  0  0  0  0  0  0  0  0  0  0  0 
    0.0267   -0.0962   -1.2965 H   0  0  0  0  0  0  0  0  0  0  0  0 
    7.4240   -7.3012   -0.4463 H   0  0  0  0  0  0  0  0  0  0  0  0 
    8.8436   -6.8454    0.4988 H   0  0  0  0  0  0  0  0  0  0  0  0 
    8.9191   -6.8158   -1.2647 H   0  0  0  0  0  0  0  0  0  0  0  0 
    2.7225   -1.8130   -3.2207 H   0  0  0  0  0  0  0  0  0  0  0  0 
    1.8965    0.8372    0.0556 H   0  0  0  0  0  0  0  0  0  0  0  0 
    5.9233   -5.5831    0.5623 H   0  0  0  0  0  0  0  0  0  0  0  0 
    9.5718   -4.3982   -1.3681 H   0  0  0  0  0  0  0  0  0  0  0  0 
    5.0686   -2.0010   -2.4847 H   0  0  0  0  0  0  0  0  0  0  0  0 
    4.2321    0.6121    0.8267 H   0  0  0  0  0  0  0  0  0  0  0  0 
    5.1952   -3.2283    0.6438 H   0  0  0  0  0  0  0  0  0  0  0  0 
    8.8241   -2.0440   -1.3358 H   0  0  0  0  0  0  0  0  0  0  0  0 
  1 11  1  0  0  0  0 
  1 18  1  0  0  0  0 
  2 12  1  0  0  0  0 
  2 20  1  0  0  0  0 
  3  7  2  0  0  0  0 
  3 11  1  0  0  0  0 
  4  8  1  0  0  0  0 
  4 23  1  0  0  0  0 
  5  9  1  0  0  0  0 
  5 24  1  0  0  0  0 
  6 10  2  0  0  0  0 
  6 12  1  0  0  0  0 
  7 13  1  0  0  0  0 
  8 27  1  0  0  0  0 
  9 28  1  0  0  0  0 
 10 14  1  0  0  0  0 
 11  4  2  0  0  0  0 
 12  5  2  0  0  0  0 
 13 15  1  0  0  0  0 
 13  8  2  0  0  0  0 
 14 15  1  0  0  0  0 
 14  9  2  0  0  0  0 
 16  1  1  0  0  0  0 
 17  1  1  0  0  0  0 
 19  2  1  0  0  0  0 
 21  2  1  0  0  0  0 
 22  3  1  0  0  0  0 
 25  6  1  0  0  0  0 
 26  7  1  0  0  0  0 
 29 10  1  0  0  0  0 
M  END 
>  <HBA> 
1 
 
>  <HBD> 
0 
 
>  <TPSA> 
25.3 
 
>  <cid> 
69294 
 
>  <dipole> 
2.01 
 
>  <excitation_energy_1> 
4.262 
 
>  <excitation_energy_2> 
4.374 
 
>  <excitation_energy_3> 
4.434 
 
>  <excitation_energy_4> 
4.694 
 
>  <homo_energy> 
-5.489 
 
>  <homo_lumo_gap> 
5.146 
 
>  <logP> 
4.455 
 
>  <lumo_energy> 
-0.343 
 
>  <melting_point> 
56.87 
 
>  <molecular_refractivity> 
66.94 
 
>  <oscillator_strength_1> 
0.0369 
 
>  <oscillator_strength_2> 
0.2289 
 
>  <oscillator_strength_3> 
0.0425 
 
>  <oscillator_strength_4> 
0.0026 
 
>  <open_babel_can_smiles> 
Cc1ccc(cc1)Sc1ccc(cc1)C 
 
>  <mulliken_charges> 
29 
1   -0.529129 
2   -0.529033 
3   -0.170295 
4   -0.171134 
5   -0.170582 
6   -0.170649 
7   -0.140168 
8   -0.153521 
9   -0.139175 
10   -0.153111 
11   0.172721 
12   0.172581 
13   -0.095011 
14   -0.096505 
15   0.121558 
16   0.157655 
17   0.167452 
18   0.157405 
19   0.157415 
20   0.167664 
21   0.157869 
22   0.125645 
23   0.125395 
24   0.125843 
25   0.125563 
26   0.147141 
27   0.144298 
28   0.147389 
29   0.14472 
 
>  <lowdin_charges> 
29 
1   -0.443725 
2   -0.443453 
3   -0.162957 
4   -0.165776 
5   -0.164879 
6   -0.163295 
7   -0.156763 
8   -0.161515 
9   -0.153664 
10   -0.162566 
11   0.000302 
12   0.000815 
13   -0.131501 
14   -0.132432 
15   0.179937 
16   0.158909 
17   0.163258 
18   0.159116 
19   0.158852 
20   0.163263 
21   0.159218 
22   0.156686 
23   0.157876 
24   0.157757 
25   0.15616 
26   0.168906 
27   0.166475 
28   0.167271 
29   0.167726 
 
$$$$ 
 
