PCCDB-ID:  29178 
public computational chemistry database (PCCDB) project, http://pccdb.org 
 
 28 27  0  0  1  0  0  0  0  0999 V2000 
    0.9793    0.4470    1.3868 C   0  0  0  0  0  0  0  0  0  0  0  0 
    5.4684   -4.7608    2.1581 C   0  0  0  0  0  0  0  0  0  0  0  0 
    3.3419   -4.5994    0.7750 C   0  0  0  0  0  0  0  0  0  0  0  0 
    5.7728   -0.8763    0.2918 C   0  0  0  0  0  0  0  0  0  0  0  0 
    1.9090   -0.7104    1.0077 C   0  0  0  0  0  0  0  0  0  0  0  0 
    3.3827   -0.2890    0.9378 C   0  0  0  0  0  0  0  0  0  0  0  0 
    4.6994   -3.9446    1.1144 C   0  0  0  0  0  0  0  0  0  0  0  0 
    4.3441   -1.4161    0.5300 C   0  0  2  0  0  0  0  0  0  0  0  0 
    4.4379   -2.5137    1.5974 C   0  0  0  0  0  0  0  0  0  0  0  0 
    4.3230   -2.2558    2.7830 O   0  0  0  0  0  0  0  0  0  0  0  0 
   -0.0666    0.1222    1.4283 H   0  0  0  0  0  0  0  0  0  0  0  0 
    1.0456    1.2655    0.6592 H   0  0  0  0  0  0  0  0  0  0  0  0 
    1.2408    0.8558    2.3702 H   0  0  0  0  0  0  0  0  0  0  0  0 
    5.6206   -5.7879    1.8079 H   0  0  0  0  0  0  0  0  0  0  0  0 
    4.9166   -4.7903    3.1021 H   0  0  0  0  0  0  0  0  0  0  0  0 
    6.4503   -4.3208    2.3632 H   0  0  0  0  0  0  0  0  0  0  0  0 
    3.4974   -5.6115    0.3854 H   0  0  0  0  0  0  0  0  0  0  0  0 
    2.7864   -4.0309    0.0206 H   0  0  0  0  0  0  0  0  0  0  0  0 
    2.7182   -4.6721    1.6731 H   0  0  0  0  0  0  0  0  0  0  0  0 
    5.7656   -0.1214   -0.5022 H   0  0  0  0  0  0  0  0  0  0  0  0 
    6.4685   -1.6693   -0.0065 H   0  0  0  0  0  0  0  0  0  0  0  0 
    6.1609   -0.4103    1.2042 H   0  0  0  0  0  0  0  0  0  0  0  0 
    1.6004   -1.1235    0.0360 H   0  0  0  0  0  0  0  0  0  0  0  0 
    1.7975   -1.5190    1.7411 H   0  0  0  0  0  0  0  0  0  0  0  0 
    3.6980    0.0956    1.9155 H   0  0  0  0  0  0  0  0  0  0  0  0 
    3.4889    0.5366    0.2199 H   0  0  0  0  0  0  0  0  0  0  0  0 
    5.2845   -3.8869    0.1855 H   0  0  0  0  0  0  0  0  0  0  0  0 
    3.9976   -1.8741   -0.4079 H   0  0  0  0  0  0  0  0  0  0  0  0 
  1 11  1  0  0  0  0 
  1 13  1  0  0  0  0 
  2 16  1  0  0  0  0 
  2 15  1  0  0  0  0 
  3  7  1  0  0  0  0 
  3 19  1  0  0  0  0 
  4  8  1  0  0  0  0 
  4 22  1  0  0  0  0 
  5  1  1  0  0  0  0 
  5 24  1  0  0  0  0 
  6  5  1  0  0  0  0 
  6 25  1  0  0  0  0 
  7  9  1  0  0  0  0 
  7  2  1  0  0  0  0 
  8 28  1  6  0  0  0 
  8  6  1  0  0  0  0 
  8  9  1  0  0  0  0 
  9 10  2  0  0  0  0 
 12  1  1  0  0  0  0 
 14  2  1  0  0  0  0 
 17  3  1  0  0  0  0 
 18  3  1  0  0  0  0 
 20  4  1  0  0  0  0 
 21  4  1  0  0  0  0 
 23  5  1  0  0  0  0 
 26  6  1  0  0  0  0 
 27  7  1  0  0  0  0 
M  END 
>  <HBA> 
1 
 
>  <HBD> 
0 
 
>  <TPSA> 
17.07 
 
>  <cid> 
29178 
 
>  <dipole> 
2.43 
 
>  <excitation_energy_1> 
4.258 
 
>  <excitation_energy_2> 
5.89 
 
>  <excitation_energy_3> 
6.453 
 
>  <excitation_energy_4> 
6.543 
 
>  <homo_energy> 
-6.414 
 
>  <homo_lumo_gap> 
6.106 
 
>  <logP> 
2.648 
 
>  <lumo_energy> 
-0.307 
 
>  <melting_point> 
-7.16 
 
>  <molecular_refractivity> 
45.58 
 
>  <oscillator_strength_1> 
0.0005 
 
>  <oscillator_strength_2> 
0.0009 
 
>  <oscillator_strength_3> 
0.0046 
 
>  <oscillator_strength_4> 
0.0009 
 
>  <open_babel_can_smiles> 
CCC[C@H](C(=O)C(C)C)C 
 
>  <mulliken_charges> 
28 
1   -0.442665 
2   -0.438638 
3   -0.456078 
4   -0.460661 
5   -0.260312 
6   -0.241668 
7   -0.157011 
8   -0.161448 
9   0.465584 
10   -0.467706 
11   0.141464 
12   0.139086 
13   0.147815 
14   0.137313 
15   0.167586 
16   0.147154 
17   0.154124 
18   0.150326 
19   0.162441 
20   0.15412 
21   0.147413 
22   0.164288 
23   0.12324 
24   0.147749 
25   0.153455 
26   0.122708 
27   0.13271 
28   0.12761 
 
>  <lowdin_charges> 
28 
1   -0.442093 
2   -0.439255 
3   -0.440231 
4   -0.439711 
5   -0.276286 
6   -0.273933 
7   -0.152182 
8   -0.155036 
9   0.164341 
10   -0.242903 
11   0.148058 
12   0.145345 
13   0.1493 
14   0.14723 
15   0.161751 
16   0.152422 
17   0.15477 
18   0.152339 
19   0.157478 
20   0.155836 
21   0.151043 
22   0.158811 
23   0.134331 
24   0.147426 
25   0.153367 
26   0.139961 
27   0.144765 
28   0.143053 
 
$$$$ 
 
