PCCDB-ID:  26556 
public computational chemistry database (PCCDB) project, http://pccdb.org 
 
 28 28  0  0  1  0  0  0  0  0999 V2000 
    1.1167    0.6591   -1.6279 C   0  0  0  0  0  0  0  0  0  0  0  0 
    4.3937   -1.9812   -1.4141 C   0  0  0  0  0  0  0  0  0  0  0  0 
   -0.0669    5.4104    0.3957 C   0  0  0  0  0  0  0  0  0  0  0  0 
    1.3187    5.3007    0.2591 C   0  0  0  0  0  0  0  0  0  0  0  0 
   -0.8268    4.2635    0.6275 C   0  0  0  0  0  0  0  0  0  0  0  0 
    1.9349    4.0531    0.3532 C   0  0  0  0  0  0  0  0  0  0  0  0 
   -0.2042    3.0169    0.7199 C   0  0  0  0  0  0  0  0  0  0  0  0 
    1.8672    1.5415    0.6655 C   0  0  0  0  0  0  0  0  0  0  0  0 
    2.2998    0.9660   -0.7018 C   0  0  1  0  0  0  0  0  0  0  0  0 
    1.1840    2.8903    0.5818 C   0  0  0  0  0  0  0  0  0  0  0  0 
    3.7242   -0.7104   -1.6911 N   0  0  0  0  0  0  0  0  0  0  0  0 
    3.1715   -0.1969   -0.4233 N   0  0  0  0  0  0  0  0  0  0  0  0 
    0.5672    1.5692   -1.8900 H   0  0  0  0  0  0  0  0  0  0  0  0 
    0.4128   -0.0279   -1.1374 H   0  0  0  0  0  0  0  0  0  0  0  0 
    1.4758    0.1832   -2.5441 H   0  0  0  0  0  0  0  0  0  0  0  0 
    5.0745   -1.9431   -0.5480 H   0  0  0  0  0  0  0  0  0  0  0  0 
    4.9559   -2.2782   -2.3051 H   0  0  0  0  0  0  0  0  0  0  0  0 
    3.6399   -2.7553   -1.2229 H   0  0  0  0  0  0  0  0  0  0  0  0 
   -0.5486    6.3822    0.3267 H   0  0  0  0  0  0  0  0  0  0  0  0 
    1.9213    6.1889    0.0864 H   0  0  0  0  0  0  0  0  0  0  0  0 
   -1.9055    4.3373    0.7395 H   0  0  0  0  0  0  0  0  0  0  0  0 
    3.0162    3.9787    0.2556 H   0  0  0  0  0  0  0  0  0  0  0  0 
   -0.8041    2.1282    0.9031 H   0  0  0  0  0  0  0  0  0  0  0  0 
    2.7659    1.6118    1.2895 H   0  0  0  0  0  0  0  0  0  0  0  0 
    1.1978    0.8206    1.1556 H   0  0  0  0  0  0  0  0  0  0  0  0 
    2.9431    1.7142   -1.1877 H   0  0  0  0  0  0  0  0  0  0  0  0 
    4.4622   -0.0358   -1.9043 H   0  0  0  0  0  0  0  0  0  0  0  0 
    2.5526   -0.9513   -0.1104 H   0  0  0  0  0  0  0  0  0  0  0  0 
  1 14  1  0  0  0  0 
  1  9  1  0  0  0  0 
  2 18  1  0  0  0  0 
  2 16  1  0  0  0  0 
  3  5  2  0  0  0  0 
  4  6  2  0  0  0  0 
  4  3  1  0  0  0  0 
  5  7  1  0  0  0  0 
  5 21  1  0  0  0  0 
  6 10  1  0  0  0  0 
  7 23  1  0  0  0  0 
  8 25  1  0  0  0  0 
  8 24  1  0  0  0  0 
  9 26  1  6  0  0  0 
  9 12  1  0  0  0  0 
  9  8  1  0  0  0  0 
 10  8  1  0  0  0  0 
 10  7  2  0  0  0  0 
 11  2  1  0  0  0  0 
 11 12  1  0  0  0  0 
 12 28  1  0  0  0  0 
 13  1  1  0  0  0  0 
 15  1  1  0  0  0  0 
 17  2  1  0  0  0  0 
 19  3  1  0  0  0  0 
 20  4  1  0  0  0  0 
 22  6  1  0  0  0  0 
 27 11  1  0  0  0  0 
M  END 
>  <HBA> 
2 
 
>  <HBD> 
2 
 
>  <TPSA> 
24.06 
 
>  <cid> 
26556 
 
>  <dipole> 
0.47 
 
>  <excitation_energy_1> 
4.539 
 
>  <excitation_energy_2> 
4.66 
 
>  <excitation_energy_3> 
4.715 
 
>  <excitation_energy_4> 
4.965 
 
>  <homo_energy> 
-5.143 
 
>  <homo_lumo_gap> 
5.216 
 
>  <logP> 
2.123 
 
>  <lumo_energy> 
0.073 
 
>  <melting_point> 
59.52 
 
>  <molecular_refractivity> 
51.43 
 
>  <oscillator_strength_1> 
0.0025 
 
>  <oscillator_strength_2> 
0.0001 
 
>  <oscillator_strength_3> 
0.0045 
 
>  <oscillator_strength_4> 
0.0058 
 
>  <open_babel_can_smiles> 
CNN[C@H](Cc1ccccc1)C 
 
>  <mulliken_charges> 
28 
1   -0.453877 
2   -0.306099 
3   -0.131673 
4   -0.128457 
5   -0.127798 
6   -0.18151 
7   -0.183617 
8   -0.352984 
9   0.043311 
10   0.175734 
11   -0.427823 
12   -0.458636 
13   0.152159 
14   0.123268 
15   0.172439 
16   0.138972 
17   0.152731 
18   0.148225 
19   0.126957 
20   0.127441 
21   0.127392 
22   0.123732 
23   0.122343 
24   0.158122 
25   0.130733 
26   0.127883 
27   0.306881 
28   0.29415 
 
>  <lowdin_charges> 
28 
1   -0.467556 
2   -0.370091 
3   -0.161896 
4   -0.156378 
5   -0.153516 
6   -0.164606 
7   -0.169531 
8   -0.279754 
9   -0.067748 
10   0.000133 
11   -0.308753 
12   -0.315754 
13   0.156998 
14   0.1404 
15   0.164284 
16   0.132772 
17   0.155718 
18   0.145892 
19   0.156338 
20   0.157109 
21   0.154582 
22   0.152201 
23   0.154526 
24   0.159952 
25   0.145062 
26   0.138239 
27   0.253278 
28   0.2481 
 
$$$$ 
 
