PCCDB-ID:  56397 
public computational chemistry database (PCCDB) project, http://pccdb.org 
 
 21 21  0  0  0  0  0  0  0  0999 V2000 
    1.6260   -2.0318   -2.3454 C   0  0  0  0  0  0  0  0  0  0  0  0 
    7.4509   -1.1965    0.0991 C   0  0  0  0  0  0  0  0  0  0  0  0 
    8.2655   -1.7076    1.0350 C   0  0  0  0  0  0  0  0  0  0  0  0 
    2.8730   -1.5711   -1.6602 C   0  0  0  0  0  0  0  0  0  0  0  0 
    6.8569    0.1503    0.1619 C   0  0  0  0  0  0  0  0  0  0  0  0 
    8.8042   -3.0997    0.9635 C   0  0  0  0  0  0  0  0  0  0  0  0 
    4.7777   -0.4554   -0.6835 C   0  0  0  0  0  0  0  0  0  0  0  0 
    5.6765    0.4744   -0.2339 N   0  0  0  0  0  0  0  0  0  0  0  0 
    3.6993   -2.3841   -1.0598 N   0  0  0  0  0  0  0  0  0  0  0  0 
    4.7739   -1.7590   -0.4982 N   0  0  0  0  0  0  0  0  0  0  0  0 
    7.5953    1.1416    0.7019 O   0  0  0  0  0  0  0  0  0  0  0  0 
    9.8932   -3.3914    1.3960 O   0  0  0  0  0  0  0  0  0  0  0  0 
    8.0100   -4.0225    0.3680 O   0  0  0  0  0  0  0  0  0  0  0  0 
    3.3672    0.1096   -1.5787 S   0  0  0  0  0  0  0  0  0  0  0  0 
    0.7308   -1.6136   -1.8711 H   0  0  0  0  0  0  0  0  0  0  0  0 
    1.5808   -3.1217   -2.2836 H   0  0  0  0  0  0  0  0  0  0  0  0 
    1.6144   -1.7348   -3.4000 H   0  0  0  0  0  0  0  0  0  0  0  0 
    7.1246   -1.8019   -0.7390 H   0  0  0  0  0  0  0  0  0  0  0  0 
    8.5947   -1.1372    1.9004 H   0  0  0  0  0  0  0  0  0  0  0  0 
    8.5118    0.8364    0.8058 H   0  0  0  0  0  0  0  0  0  0  0  0 
    7.1110   -3.6699    0.2375 H   0  0  0  0  0  0  0  0  0  0  0  0 
  1 16  1  0  0  0  0 
  1 15  1  0  0  0  0 
  1  4  1  0  0  0  0 
  2  5  1  0  0  0  0 
  2  3  2  0  0  0  0 
  3 19  1  0  0  0  0 
  4 14  1  0  0  0  0 
  4  9  2  0  0  0  0 
  5 11  1  0  0  0  0 
  6  3  1  0  0  0  0 
  6 12  2  0  0  0  0 
  7 10  2  0  0  0  0 
  7  8  1  0  0  0  0 
  8  5  2  0  0  0  0 
  9 10  1  0  0  0  0 
 11 20  1  0  0  0  0 
 13  6  1  0  0  0  0 
 14  7  1  0  0  0  0 
 17  1  1  0  0  0  0 
 18  2  1  0  0  0  0 
 21 13  1  0  0  0  0 
M  END 
>  <HBA> 
7 
 
>  <HBD> 
2 
 
>  <TPSA> 
120.42 
 
>  <cid> 
56397 
 
>  <dipole> 
3.7 
 
>  <excitation_energy_1> 
3.485 
 
>  <excitation_energy_2> 
3.919 
 
>  <excitation_energy_3> 
4.153 
 
>  <excitation_energy_4> 
4.725 
 
>  <homo_energy> 
-6.874 
 
>  <homo_lumo_gap> 
4.201 
 
>  <logP> 
0.499 
 
>  <lumo_energy> 
-2.672 
 
>  <melting_point> 
179.3 
 
>  <molecular_refractivity> 
50.1 
 
>  <oscillator_strength_1> 
0.0788 
 
>  <oscillator_strength_2> 
0.1986 
 
>  <oscillator_strength_3> 
0.0089 
 
>  <oscillator_strength_4> 
0.0003 
 
>  <open_babel_can_smiles> 
Cc1nnc(s1)/N=C(\C=C\C(=O)O)/O 
 
>  <mulliken_charges> 
21 
1   -0.515261 
2   -0.153923 
3   -0.214367 
4   0.121974 
5   0.478512 
6   0.58631 
7   0.267429 
8   -0.466137 
9   -0.256313 
10   -0.326246 
11   -0.555168 
12   -0.435806 
13   -0.566258 
14   0.244115 
15   0.182939 
16   0.197731 
17   0.180462 
18   0.197489 
19   0.178474 
20   0.422918 
21   0.431125 
 
>  <lowdin_charges> 
21 
1   -0.437966 
2   -0.171086 
3   -0.182922 
4   -0.092127 
5   0.166745 
6   0.189609 
7   -0.050866 
8   -0.168858 
9   -0.12215 
10   -0.1642 
11   -0.320202 
12   -0.224772 
13   -0.34462 
14   0.284332 
15   0.17494 
16   0.182376 
17   0.172068 
18   0.190612 
19   0.181108 
20   0.366796 
21   0.371184 
 
$$$$ 
 
