PCCDB-ID:  58963 
public computational chemistry database (PCCDB) project, http://pccdb.org 
 
 35 37  0  0  1  0  0  0  0  0999 V2000 
   -1.0336    2.6973   -1.2720 C   0  0  0  0  0  0  0  0  0  0  0  0 
    0.0720    2.9955   -2.0951 C   0  0  0  0  0  0  0  0  0  0  0  0 
   -1.5096    1.3982   -1.1508 C   0  0  0  0  0  0  0  0  0  0  0  0 
    0.7242    1.9990   -2.8113 C   0  0  0  0  0  0  0  0  0  0  0  0 
   -4.0712   -0.9697   -2.6565 C   0  0  0  0  0  0  0  0  0  0  0  0 
   -4.3428   -3.1492   -1.4227 C   0  0  0  0  0  0  0  0  0  0  0  0 
   -5.3176   -1.3328   -3.4706 C   0  0  0  0  0  0  0  0  0  0  0  0 
   -5.5803   -3.4270   -2.2813 C   0  0  0  0  0  0  0  0  0  0  0  0 
   -0.1060   -1.5296   -2.8210 C   0  0  0  0  0  0  0  0  0  0  0  0 
   -3.3470   -2.2345   -2.1620 C   0  0  0  0  0  0  0  0  0  0  0  0 
   -0.8725    0.3650   -1.8625 C   0  0  0  0  0  0  0  0  0  0  0  0 
   -1.0767   -1.0609   -1.9675 C   0  0  0  0  0  0  0  0  0  0  0  0 
    0.2426    0.6918   -2.6844 C   0  0  0  0  0  0  0  0  0  0  0  0 
   -2.1197   -1.9102   -1.2862 C   0  0  2  0  0  0  0  0  0  0  0  0 
   -6.2131   -2.1638   -2.6653 N   0  0  0  0  0  0  0  0  0  0  0  0 
    0.6841   -0.4842   -3.2568 N   0  0  0  0  0  0  0  0  0  0  0  0 
   -1.5605   -3.1751   -0.8999 O   0  0  0  0  0  0  0  0  0  0  0  0 
   -1.5204    3.5003   -0.7253 H   0  0  0  0  0  0  0  0  0  0  0  0 
    0.4209    4.0217   -2.1703 H   0  0  0  0  0  0  0  0  0  0  0  0 
   -2.3654    1.1847   -0.5161 H   0  0  0  0  0  0  0  0  0  0  0  0 
    1.5777    2.2277   -3.4445 H   0  0  0  0  0  0  0  0  0  0  0  0 
   -4.3847   -0.3633   -1.7955 H   0  0  0  0  0  0  0  0  0  0  0  0 
   -3.3999   -0.3532   -3.2646 H   0  0  0  0  0  0  0  0  0  0  0  0 
   -3.8550   -4.0889   -1.1478 H   0  0  0  0  0  0  0  0  0  0  0  0 
   -4.6640   -2.6586   -0.4932 H   0  0  0  0  0  0  0  0  0  0  0  0 
   -4.9977   -1.8357   -4.4068 H   0  0  0  0  0  0  0  0  0  0  0  0 
   -5.8549   -0.4220   -3.7603 H   0  0  0  0  0  0  0  0  0  0  0  0 
   -6.3068   -4.0210   -1.7141 H   0  0  0  0  0  0  0  0  0  0  0  0 
   -5.2775   -4.0333   -3.1599 H   0  0  0  0  0  0  0  0  0  0  0  0 
    0.0871   -2.5430   -3.1437 H   0  0  0  0  0  0  0  0  0  0  0  0 
   -2.9678   -2.7785   -3.0413 H   0  0  0  0  0  0  0  0  0  0  0  0 
   -2.4791   -1.3751   -0.3898 H   0  0  0  0  0  0  0  0  0  0  0  0 
   -7.0681   -2.3509   -3.1849 H   0  0  0  0  0  0  0  0  0  0  0  0 
    1.4769   -0.5723   -3.8729 H   0  0  0  0  0  0  0  0  0  0  0  0 
   -0.7344   -2.9808   -0.4299 H   0  0  0  0  0  0  0  0  0  0  0  0 
  1  3  1  0  0  0  0 
  1 18  1  0  0  0  0 
  2  1  2  0  0  0  0 
  3 20  1  0  0  0  0 
  4 13  2  0  0  0  0 
  4  2  1  0  0  0  0 
  5 10  1  0  0  0  0 
  5 22  1  0  0  0  0 
  6 24  1  0  0  0  0 
  6 25  1  0  0  0  0 
  7 15  1  0  0  0  0 
  7  5  1  0  0  0  0 
  8 28  1  0  0  0  0 
  8  6  1  0  0  0  0 
  9 12  2  0  0  0  0 
 10  6  1  0  0  0  0 
 10 14  1  0  0  0  0 
 11  3  2  0  0  0  0 
 12 11  1  0  0  0  0 
 12 14  1  0  0  0  0 
 13 11  1  0  0  0  0 
 14 17  1  0  0  0  0 
 14 32  1  1  0  0  0 
 15  8  1  0  0  0  0 
 16  9  1  0  0  0  0 
 16 13  1  0  0  0  0 
 17 35  1  0  0  0  0 
 19  2  1  0  0  0  0 
 21  4  1  0  0  0  0 
 23  5  1  0  0  0  0 
 26  7  1  0  0  0  0 
 27  7  1  0  0  0  0 
 29  8  1  0  0  0  0 
 30  9  1  0  0  0  0 
 31 10  1  0  0  0  0 
 33 15  1  0  0  0  0 
 34 16  1  0  0  0  0 
M  END 
>  <HBA> 
2 
 
>  <HBD> 
3 
 
>  <TPSA> 
48.05 
 
>  <cid> 
58963 
 
>  <dipole> 
2.91 
 
>  <excitation_energy_1> 
4.573 
 
>  <excitation_energy_2> 
4.75 
 
>  <excitation_energy_3> 
4.834 
 
>  <excitation_energy_4> 
4.948 
 
>  <homo_energy> 
-5.415 
 
>  <homo_lumo_gap> 
5.203 
 
>  <logP> 
2.53 
 
>  <lumo_energy> 
-0.212 
 
>  <melting_point> 
164.82 
 
>  <molecular_refractivity> 
73.06 
 
>  <oscillator_strength_1> 
0.0651 
 
>  <oscillator_strength_2> 
0.0027 
 
>  <oscillator_strength_3> 
0.0256 
 
>  <oscillator_strength_4> 
0.0002 
 
>  <open_babel_can_smiles> 
O[C@@H](c1c[nH]c2c1cccc2)C1CCNCC1 
 
>  <mulliken_charges> 
35 
1   -0.1416 
2   -0.150561 
3   -0.207803 
4   -0.163096 
5   -0.262481 
6   -0.250932 
7   -0.132819 
8   -0.136013 
9   0.002257 
10   -0.09023 
11   0.076099 
12   0.005718 
13   0.315189 
14   0.090413 
15   -0.544856 
16   -0.691582 
17   -0.641774 
18   0.121696 
19   0.123224 
20   0.129551 
21   0.1209 
22   0.134556 
23   0.143921 
24   0.153672 
25   0.130703 
26   0.104483 
27   0.133171 
28   0.132251 
29   0.104507 
30   0.159115 
31   0.116949 
32   0.111173 
33   0.291847 
34   0.32716 
35   0.385192 
 
>  <lowdin_charges> 
35 
1   -0.176809 
2   -0.163268 
3   -0.163695 
4   -0.186494 
5   -0.285848 
6   -0.282733 
7   -0.2038 
8   -0.207289 
9   -0.131204 
10   -0.133343 
11   -0.037294 
12   -0.086903 
13   0.028979 
14   0.005595 
15   -0.368704 
16   -0.195533 
17   -0.467005 
18   0.156431 
19   0.154913 
20   0.157103 
21   0.155437 
22   0.143471 
23   0.153756 
24   0.156718 
25   0.142527 
26   0.111892 
27   0.143949 
28   0.144739 
29   0.112685 
30   0.16968 
31   0.138259 
32   0.129054 
33   0.252649 
34   0.291562 
35   0.340524 
 
$$$$ 
 
