PCCDB-ID:  65475 
public computational chemistry database (PCCDB) project, http://pccdb.org 
 
 26 27  0  0  0  0  0  0  0  0999 V2000 
    0.9606   -0.6644    0.0493 C   0  0  0  0  0  0  0  0  0  0  0  0 
    8.3599   -2.5857    0.0598 C   0  0  0  0  0  0  0  0  0  0  0  0 
    8.3014   -1.1914    0.0437 C   0  0  0  0  0  0  0  0  0  0  0  0 
    7.1737   -3.3249    0.0706 C   0  0  0  0  0  0  0  0  0  0  0  0 
    7.0689   -0.5403    0.0404 C   0  0  0  0  0  0  0  0  0  0  0  0 
    5.9413   -2.6792    0.0670 C   0  0  0  0  0  0  0  0  0  0  0  0 
    2.3853    2.3271    0.0576 C   0  0  0  0  0  0  0  0  0  0  0  0 
    3.4044    3.3817    0.0617 C   0  0  0  0  0  0  0  0  0  0  0  0 
    2.4145   -0.3068    0.0542 C   0  0  0  0  0  0  0  0  0  0  0  0 
    5.8725   -1.2754    0.0531 C   0  0  0  0  0  0  0  0  0  0  0  0 
    2.9933    0.9457    0.0574 C   0  0  0  0  0  0  0  0  0  0  0  0 
    4.5544   -0.6348    0.0538 C   0  0  0  0  0  0  0  0  0  0  0  0 
    4.2501    4.1769    0.0648 N   0  0  0  0  0  0  0  0  0  0  0  0 
    3.3919   -1.2714    0.0518 N   0  0  0  0  0  0  0  0  0  0  0  0 
    4.3549    0.7218    0.0564 N   0  0  0  0  0  0  0  0  0  0  0  0 
    0.3237    0.2267    0.0602 H   0  0  0  0  0  0  0  0  0  0  0  0 
    0.7041   -1.2743    0.9234 H   0  0  0  0  0  0  0  0  0  0  0  0 
    0.7044   -1.2525   -0.8398 H   0  0  0  0  0  0  0  0  0  0  0  0 
    9.3212   -3.0920    0.0639 H   0  0  0  0  0  0  0  0  0  0  0  0 
    9.2166   -0.6058    0.0329 H   0  0  0  0  0  0  0  0  0  0  0  0 
    7.2098   -4.4110    0.0828 H   0  0  0  0  0  0  0  0  0  0  0  0 
    7.0530    0.5470    0.0258 H   0  0  0  0  0  0  0  0  0  0  0  0 
    5.0137   -3.2414    0.0740 H   0  0  0  0  0  0  0  0  0  0  0  0 
    1.7454    2.4767   -0.8228 H   0  0  0  0  0  0  0  0  0  0  0  0 
    1.7408    2.4744    0.9350 H   0  0  0  0  0  0  0  0  0  0  0  0 
    5.0609    1.4451    0.0624 H   0  0  0  0  0  0  0  0  0  0  0  0 
  1  9  1  0  0  0  0 
  1 16  1  0  0  0  0 
  1 17  1  0  0  0  0 
  2 19  1  0  0  0  0 
  2  4  2  0  0  0  0 
  3  2  1  0  0  0  0 
  4 21  1  0  0  0  0 
  5  3  2  0  0  0  0 
  5 10  1  0  0  0  0 
  6  4  1  0  0  0  0 
  6 23  1  0  0  0  0 
  7  8  1  0  0  0  0 
  7 25  1  0  0  0  0 
  8 13  3  0  0  0  0 
  9 11  2  0  0  0  0 
 10 12  1  0  0  0  0 
 10  6  2  0  0  0  0 
 11  7  1  0  0  0  0 
 12 15  1  0  0  0  0 
 14 12  2  0  0  0  0 
 14  9  1  0  0  0  0 
 15 11  1  0  0  0  0 
 15 26  1  0  0  0  0 
 18  1  1  0  0  0  0 
 20  3  1  0  0  0  0 
 22  5  1  0  0  0  0 
 24  7  1  0  0  0  0 
M  END 
>  <HBA> 
2 
 
>  <HBD> 
1 
 
>  <TPSA> 
52.47 
 
>  <cid> 
65475 
 
>  <dipole> 
1.23 
 
>  <excitation_energy_1> 
4.37 
 
>  <excitation_energy_2> 
4.647 
 
>  <excitation_energy_3> 
4.768 
 
>  <excitation_energy_4> 
5.108 
 
>  <homo_energy> 
-5.63 
 
>  <homo_lumo_gap> 
4.806 
 
>  <logP> 
2.451 
 
>  <lumo_energy> 
-0.825 
 
>  <melting_point> 
146.28 
 
>  <molecular_refractivity> 
58.51 
 
>  <oscillator_strength_1> 
0.5279 
 
>  <oscillator_strength_2> 
0.0039 
 
>  <oscillator_strength_3> 
0.0 
 
>  <oscillator_strength_4> 
0.0001 
 
>  <open_babel_can_smiles> 
N#CCc1[nH]c(nc1C)c1ccccc1 
 
>  <mulliken_charges> 
26 
1   -0.523317 
2   -0.12556 
3   -0.135185 
4   -0.135852 
5   -0.19165 
6   -0.169873 
7   -0.405262 
8   0.350181 
9   0.219166 
10   0.137087 
11   0.303147 
12   0.451764 
13   -0.473406 
14   -0.538696 
15   -0.711921 
16   0.138958 
17   0.17272 
18   0.172589 
19   0.131819 
20   0.133352 
21   0.134029 
22   0.116593 
23   0.16412 
24   0.217395 
25   0.21734 
26   0.350462 
 
>  <lowdin_charges> 
26 
1   -0.441951 
2   -0.156152 
3   -0.153715 
4   -0.149324 
5   -0.164645 
6   -0.143677 
7   -0.266996 
8   -0.014151 
9   -0.003007 
10   -0.012674 
11   -0.027641 
12   0.059931 
13   -0.123327 
14   -0.199552 
15   -0.184511 
16   0.151012 
17   0.168377 
18   0.168143 
19   0.15927 
20   0.160173 
21   0.157853 
22   0.147935 
23   0.177261 
24   0.195379 
25   0.195386 
26   0.300604 
 
$$$$ 
 
