PCCDB-ID:  34769 
public computational chemistry database (PCCDB) project, http://pccdb.org 
 
 20 20  0  0  1  0  0  0  0  0999 V2000 
    1.1457    0.0040    0.5187 C   0  0  0  0  0  0  0  0  0  0  0  0 
    3.4572   -1.4781   -3.0903 C   0  0  0  0  0  0  0  0  0  0  0  0 
    3.0592    1.0990   -0.8453 C   0  0  0  0  0  0  0  0  0  0  0  0 
    2.5837   -0.0638    0.0327 C   0  0  2  0  0  0  0  0  0  0  0  0 
    3.8537   -1.0191   -1.6928 C   0  0  1  0  0  0  0  0  0  0  0  0 
    4.2555    0.4811   -1.5879 C   0  0  2  0  0  0  0  0  0  0  0  0 
    5.4946    0.6733   -0.9089 O   0  0  0  0  0  0  0  0  0  0  0  0 
    2.7329   -1.2087   -0.8131 O   0  0  0  0  0  0  0  0  0  0  0  0 
    1.0076    0.8525    1.1980 H   0  0  0  0  0  0  0  0  0  0  0  0 
    0.8773   -0.9132    1.0528 H   0  0  0  0  0  0  0  0  0  0  0  0 
    0.4636    0.1187   -0.3308 H   0  0  0  0  0  0  0  0  0  0  0  0 
    4.3203   -1.4534   -3.7652 H   0  0  0  0  0  0  0  0  0  0  0  0 
    2.6716   -0.8339   -3.5016 H   0  0  0  0  0  0  0  0  0  0  0  0 
    3.0716   -2.5020   -3.0576 H   0  0  0  0  0  0  0  0  0  0  0  0 
    3.3474    1.9972   -0.2915 H   0  0  0  0  0  0  0  0  0  0  0  0 
    2.2635    1.3633   -1.5532 H   0  0  0  0  0  0  0  0  0  0  0  0 
    3.2543   -0.1634    0.9085 H   0  0  0  0  0  0  0  0  0  0  0  0 
    4.7032   -1.6217   -1.3344 H   0  0  0  0  0  0  0  0  0  0  0  0 
    4.4123    0.9275   -2.5734 H   0  0  0  0  0  0  0  0  0  0  0  0 
    5.4280    0.2474   -0.0391 H   0  0  0  0  0  0  0  0  0  0  0  0 
  1 10  1  0  0  0  0 
  1  9  1  0  0  0  0 
  2 14  1  0  0  0  0 
  2  5  1  0  0  0  0 
  3 15  1  0  0  0  0 
  3  4  1  0  0  0  0 
  4  1  1  0  0  0  0 
  4 17  1  1  0  0  0 
  5  6  1  0  0  0  0 
  5 18  1  1  0  0  0 
  5  8  1  0  0  0  0 
  6 19  1  6  0  0  0 
  6  7  1  0  0  0  0 
  6  3  1  0  0  0  0 
  7 20  1  0  0  0  0 
  8  4  1  0  0  0  0 
 11  1  1  0  0  0  0 
 12  2  1  0  0  0  0 
 13  2  1  0  0  0  0 
 16  3  1  0  0  0  0 
M  END 
>  <HBA> 
2 
 
>  <HBD> 
1 
 
>  <TPSA> 
29.46 
 
>  <cid> 
34769 
 
>  <dipole> 
0.93 
 
>  <excitation_energy_1> 
6.296 
 
>  <excitation_energy_2> 
6.497 
 
>  <excitation_energy_3> 
6.729 
 
>  <excitation_energy_4> 
6.923 
 
>  <homo_energy> 
-6.814 
 
>  <homo_lumo_gap> 
8.632 
 
>  <logP> 
0.545 
 
>  <lumo_energy> 
1.818 
 
>  <melting_point> 
5.68 
 
>  <molecular_refractivity> 
31.09 
 
>  <oscillator_strength_1> 
0.0418 
 
>  <oscillator_strength_2> 
0.0141 
 
>  <oscillator_strength_3> 
0.0301 
 
>  <oscillator_strength_4> 
0.0416 
 
>  <open_babel_can_smiles> 
C[C@H]1O[C@H]([C@@H](C1)O)C 
 
>  <mulliken_charges> 
20 
1   -0.451853 
2   -0.458877 
3   -0.297203 
4   0.15291 
5   0.150435 
6   0.090151 
7   -0.631527 
8   -0.508874 
9   0.14323 
10   0.159567 
11   0.151608 
12   0.146265 
13   0.146255 
14   0.160456 
15   0.150378 
16   0.141445 
17   0.098954 
18   0.124627 
19   0.145012 
20   0.387042 
 
>  <lowdin_charges> 
20 
1   -0.44746 
2   -0.450341 
3   -0.313303 
4   0.002333 
5   -0.013977 
6   -0.016972 
7   -0.458249 
8   -0.285189 
9   0.154655 
10   0.160488 
11   0.155228 
12   0.154477 
13   0.152005 
14   0.159787 
15   0.158313 
16   0.152842 
17   0.113949 
18   0.134105 
19   0.15017 
20   0.337136 
 
$$$$ 
 
