PCCDB-ID:  8797 
public computational chemistry database (PCCDB) project, http://pccdb.org 
 
 21 21  0  0  0  0  0  0  0  0999 V2000 
   -0.0607    0.2253   -0.1910 C   0  0  0  0  0  0  0  0  0  0  0  0 
    7.9140   -0.0318   -0.2947 C   0  0  0  0  0  0  0  0  0  0  0  0 
    2.0690   -1.1365    0.0267 C   0  0  0  0  0  0  0  0  0  0  0  0 
    2.2574    1.2487   -0.1673 C   0  0  0  0  0  0  0  0  0  0  0  0 
    3.4585   -1.2450    0.0814 C   0  0  0  0  0  0  0  0  0  0  0  0 
    3.6472    1.1621   -0.1102 C   0  0  0  0  0  0  0  0  0  0  0  0 
    1.4434    0.1089   -0.1031 C   0  0  0  0  0  0  0  0  0  0  0  0 
    6.5057    0.3628   -0.6701 C   0  0  0  0  0  0  0  0  0  0  0  0 
    4.2392   -0.0952    0.0095 C   0  0  0  0  0  0  0  0  0  0  0  0 
    6.1951    1.1193   -1.5565 O   0  0  0  0  0  0  0  0  0  0  0  0 
    5.6182   -0.2764    0.1550 O   0  0  0  0  0  0  0  0  0  0  0  0 
   -0.5534   -0.6912    0.1493 H   0  0  0  0  0  0  0  0  0  0  0  0 
   -0.3880    0.4105   -1.2226 H   0  0  0  0  0  0  0  0  0  0  0  0 
   -0.4358    1.0551    0.4191 H   0  0  0  0  0  0  0  0  0  0  0  0 
    8.6201    0.4867   -0.9437 H   0  0  0  0  0  0  0  0  0  0  0  0 
    8.0403   -1.1149   -0.3942 H   0  0  0  0  0  0  0  0  0  0  0  0 
    8.1096    0.2232    0.7520 H   0  0  0  0  0  0  0  0  0  0  0  0 
    1.4637   -2.0378    0.0871 H   0  0  0  0  0  0  0  0  0  0  0  0 
    1.7963    2.2292   -0.2629 H   0  0  0  0  0  0  0  0  0  0  0  0 
    3.9437   -2.2104    0.1870 H   0  0  0  0  0  0  0  0  0  0  0  0 
    4.2593    2.0535   -0.1645 H   0  0  0  0  0  0  0  0  0  0  0  0 
  1  7  1  0  0  0  0 
  1 12  1  0  0  0  0 
  1 14  1  0  0  0  0 
  2 17  1  0  0  0  0 
  3  5  1  0  0  0  0 
  3 18  1  0  0  0  0 
  4  6  2  0  0  0  0 
  4  7  1  0  0  0  0 
  5 20  1  0  0  0  0 
  6  9  1  0  0  0  0 
  7  3  2  0  0  0  0 
  8  2  1  0  0  0  0 
  8 11  1  0  0  0  0 
  9  5  2  0  0  0  0 
  9 11  1  0  0  0  0 
 10  8  2  0  0  0  0 
 13  1  1  0  0  0  0 
 15  2  1  0  0  0  0 
 16  2  1  0  0  0  0 
 19  4  1  0  0  0  0 
 21  6  1  0  0  0  0 
M  END 
>  <HBA> 
2 
 
>  <HBD> 
0 
 
>  <TPSA> 
26.3 
 
>  <cid> 
8797 
 
>  <dipole> 
1.59 
 
>  <excitation_energy_1> 
5.127 
 
>  <excitation_energy_2> 
5.352 
 
>  <excitation_energy_3> 
5.606 
 
>  <excitation_energy_4> 
5.92 
 
>  <homo_energy> 
-6.283 
 
>  <homo_lumo_gap> 
6.071 
 
>  <logP> 
1.92 
 
>  <lumo_energy> 
-0.212 
 
>  <melting_point> 
33.99 
 
>  <molecular_refractivity> 
42.91 
 
>  <oscillator_strength_1> 
0.0034 
 
>  <oscillator_strength_2> 
0.1564 
 
>  <oscillator_strength_3> 
0.0107 
 
>  <oscillator_strength_4> 
0.0005 
 
>  <open_babel_can_smiles> 
CC(=O)Oc1ccc(cc1)C 
 
>  <mulliken_charges> 
21 
1   -0.530754 
2   -0.525184 
3   -0.192821 
4   -0.194906 
5   -0.160862 
6   -0.134897 
7   0.185459 
8   0.591581 
9   0.342223 
10   -0.44535 
11   -0.516099 
12   0.155335 
13   0.166929 
14   0.159585 
15   0.184425 
16   0.184665 
17   0.184718 
18   0.12655 
19   0.128372 
20   0.13775 
21   0.15328 
 
>  <lowdin_charges> 
21 
1   -0.442328 
2   -0.462152 
3   -0.163123 
4   -0.158616 
5   -0.171053 
6   -0.166589 
7   -0.002565 
8   0.207681 
9   0.099333 
10   -0.241366 
11   -0.168847 
12   0.157488 
13   0.161541 
14   0.160285 
15   0.17798 
16   0.177885 
17   0.178394 
18   0.157485 
19   0.1575 
20   0.166335 
21   0.174732 
 
$$$$ 
 
