PCCDB-ID:  11417 
public computational chemistry database (PCCDB) project, http://pccdb.org 
 
 17 17  0  0  0  0  0  0  0  0999 V2000 
    0.9881   -0.0241    0.0713 C   0  0  0  0  0  0  0  0  0  0  0  0 
    2.5075    2.5507   -0.0708 C   0  0  0  0  0  0  0  0  0  0  0  0 
    3.2367   -1.1833    0.0281 C   0  0  0  0  0  0  0  0  0  0  0  0 
    4.6290   -1.1299   -0.0258 C   0  0  0  0  0  0  0  0  0  0  0  0 
    4.6036    1.1441   -0.1019 C   0  0  0  0  0  0  0  0  0  0  0  0 
    2.4951    0.0009    0.0155 C   0  0  0  0  0  0  0  0  0  0  0  0 
    3.2070    1.2149   -0.0522 C   0  0  0  0  0  0  0  0  0  0  0  0 
    5.3189    0.0134   -0.0904 N   0  0  0  0  0  0  0  0  0  0  0  0 
    0.6110   -1.0495    0.1268 H   0  0  0  0  0  0  0  0  0  0  0  0 
    0.5460    0.4501   -0.8142 H   0  0  0  0  0  0  0  0  0  0  0  0 
    0.6094    0.5222    0.9445 H   0  0  0  0  0  0  0  0  0  0  0  0 
    3.2304    3.3708   -0.1208 H   0  0  0  0  0  0  0  0  0  0  0  0 
    1.8939    2.7012    0.8270 H   0  0  0  0  0  0  0  0  0  0  0  0 
    1.8352    2.6461   -0.9333 H   0  0  0  0  0  0  0  0  0  0  0  0 
    2.7316   -2.1447    0.0799 H   0  0  0  0  0  0  0  0  0  0  0  0 
    5.2154   -2.0476   -0.0165 H   0  0  0  0  0  0  0  0  0  0  0  0 
    5.1801    2.0683   -0.1546 H   0  0  0  0  0  0  0  0  0  0  0  0 
  1  9  1  0  0  0  0 
  1 11  1  0  0  0  0 
  2  7  1  0  0  0  0 
  2 13  1  0  0  0  0 
  3 15  1  0  0  0  0 
  4 16  1  0  0  0  0 
  4  3  2  0  0  0  0 
  5  8  2  0  0  0  0 
  5  7  1  0  0  0  0 
  6  3  1  0  0  0  0 
  6  1  1  0  0  0  0 
  7  6  2  0  0  0  0 
  8  4  1  0  0  0  0 
 10  1  1  0  0  0  0 
 12  2  1  0  0  0  0 
 14  2  1  0  0  0  0 
 17  5  1  0  0  0  0 
M  END 
>  <HBA> 
1 
 
>  <HBD> 
0 
 
>  <TPSA> 
12.89 
 
>  <cid> 
11417 
 
>  <dipole> 
2.83 
 
>  <excitation_energy_1> 
4.929 
 
>  <excitation_energy_2> 
5.215 
 
>  <excitation_energy_3> 
5.367 
 
>  <excitation_energy_4> 
6.061 
 
>  <homo_energy> 
-6.694 
 
>  <homo_lumo_gap> 
6.28 
 
>  <logP> 
1.698 
 
>  <lumo_energy> 
-0.414 
 
>  <melting_point> 
27.5 
 
>  <molecular_refractivity> 
34.17 
 
>  <oscillator_strength_1> 
0.0046 
 
>  <oscillator_strength_2> 
0.0 
 
>  <oscillator_strength_3> 
0.0364 
 
>  <oscillator_strength_4> 
0.0147 
 
>  <open_babel_can_smiles> 
Cc1cnccc1C 
 
>  <mulliken_charges> 
17 
1   -0.529925 
2   -0.537605 
3   -0.190319 
4   0.038937 
5   -0.016247 
6   0.151364 
7   0.121578 
8   -0.411552 
9   0.160061 
10   0.166769 
11   0.166498 
12   0.161929 
13   0.162136 
14   0.162181 
15   0.126602 
16   0.136542 
17   0.131052 
 
>  <lowdin_charges> 
17 
1   -0.442648 
2   -0.441903 
3   -0.187527 
4   -0.094361 
5   -0.103709 
6   0.01623 
7   -0.028257 
8   -0.153685 
9   0.159397 
10   0.164269 
11   0.164153 
12   0.161671 
13   0.160304 
14   0.160437 
15   0.158876 
16   0.154892 
17   0.151862 
 
$$$$ 
 
