PCCDB-ID:  16872 
public computational chemistry database (PCCDB) project, http://pccdb.org 
 
 32 31  0  0  0  0  0  0  0  0999 V2000 
    0.7747   -1.2041   -0.6043 C   0  0  0  0  0  0  0  0  0  0  0  0 
    6.9703    6.7716    2.1409 C   0  0  0  0  0  0  0  0  0  0  0  0 
    5.0217    5.8920    3.5293 C   0  0  0  0  0  0  0  0  0  0  0  0 
    2.2666   -0.9761   -0.3408 C   0  0  0  0  0  0  0  0  0  0  0  0 
    2.5523    0.3157    0.4356 C   0  0  0  0  0  0  0  0  0  0  0  0 
    4.0445    0.5477    0.7071 C   0  0  0  0  0  0  0  0  0  0  0  0 
    4.3226    1.8439    1.4804 C   0  0  0  0  0  0  0  0  0  0  0  0 
    5.8110    2.0472    1.7443 C   0  0  0  0  0  0  0  0  0  0  0  0 
    6.3682    5.5576    2.8539 C   0  0  0  0  0  0  0  0  0  0  0  0 
    6.1702    4.4024    1.8806 C   0  0  0  0  0  0  0  0  0  0  0  0 
    6.1012    4.5048    0.6738 O   0  0  0  0  0  0  0  0  0  0  0  0 
    6.0545    3.2272    2.5453 O   0  0  0  0  0  0  0  0  0  0  0  0 
    0.6038   -2.1328   -1.1606 H   0  0  0  0  0  0  0  0  0  0  0  0 
    0.3451   -0.3815   -1.1892 H   0  0  0  0  0  0  0  0  0  0  0  0 
    0.2118   -1.2701    0.3350 H   0  0  0  0  0  0  0  0  0  0  0  0 
    7.1119    7.5953    2.8491 H   0  0  0  0  0  0  0  0  0  0  0  0 
    6.3125    7.1129    1.3358 H   0  0  0  0  0  0  0  0  0  0  0  0 
    7.9407    6.5318    1.6942 H   0  0  0  0  0  0  0  0  0  0  0  0 
    5.1565    6.6976    4.2592 H   0  0  0  0  0  0  0  0  0  0  0  0 
    4.6126    5.0212    4.0504 H   0  0  0  0  0  0  0  0  0  0  0  0 
    4.2882    6.2276    2.7869 H   0  0  0  0  0  0  0  0  0  0  0  0 
    2.8080   -0.9511   -1.2972 H   0  0  0  0  0  0  0  0  0  0  0  0 
    2.6747   -1.8311    0.2169 H   0  0  0  0  0  0  0  0  0  0  0  0 
    2.0093    0.2914    1.3921 H   0  0  0  0  0  0  0  0  0  0  0  0 
    2.1475    1.1728   -0.1222 H   0  0  0  0  0  0  0  0  0  0  0  0 
    4.5880    0.5689   -0.2485 H   0  0  0  0  0  0  0  0  0  0  0  0 
    4.4470   -0.3085    1.2689 H   0  0  0  0  0  0  0  0  0  0  0  0 
    3.7902    1.8298    2.4408 H   0  0  0  0  0  0  0  0  0  0  0  0 
    3.9459    2.7040    0.9136 H   0  0  0  0  0  0  0  0  0  0  0  0 
    6.3674    2.1356    0.8073 H   0  0  0  0  0  0  0  0  0  0  0  0 
    6.2246    1.2250    2.3354 H   0  0  0  0  0  0  0  0  0  0  0  0 
    7.0556    5.2038    3.6326 H   0  0  0  0  0  0  0  0  0  0  0  0 
  1  4  1  0  0  0  0 
  1 15  1  0  0  0  0 
  2 16  1  0  0  0  0 
  2  9  1  0  0  0  0 
  3 20  1  0  0  0  0 
  3 19  1  0  0  0  0 
  4 23  1  0  0  0  0 
  4  5  1  0  0  0  0 
  5  6  1  0  0  0  0 
  5 24  1  0  0  0  0 
  6 27  1  0  0  0  0 
  6  7  1  0  0  0  0 
  7  8  1  0  0  0  0 
  7 28  1  0  0  0  0 
  8 31  1  0  0  0  0 
  8 12  1  0  0  0  0 
  9  3  1  0  0  0  0 
  9 32  1  0  0  0  0 
 10 12  1  0  0  0  0 
 10  9  1  0  0  0  0 
 11 10  2  0  0  0  0 
 13  1  1  0  0  0  0 
 14  1  1  0  0  0  0 
 17  2  1  0  0  0  0 
 18  2  1  0  0  0  0 
 21  3  1  0  0  0  0 
 22  4  1  0  0  0  0 
 25  5  1  0  0  0  0 
 26  6  1  0  0  0  0 
 29  7  1  0  0  0  0 
 30  8  1  0  0  0  0 
M  END 
>  <HBA> 
2 
 
>  <HBD> 
0 
 
>  <TPSA> 
26.3 
 
>  <cid> 
16872 
 
>  <dipole> 
1.67 
 
>  <excitation_energy_1> 
5.745 
 
>  <excitation_energy_2> 
6.89 
 
>  <excitation_energy_3> 
7.325 
 
>  <excitation_energy_4> 
7.393 
 
>  <homo_energy> 
-7.17 
 
>  <homo_lumo_gap> 
7.625 
 
>  <logP> 
2.766 
 
>  <lumo_energy> 
0.454 
 
>  <melting_point> 
-16.78 
 
>  <molecular_refractivity> 
51.47 
 
>  <oscillator_strength_1> 
0.0018 
 
>  <oscillator_strength_2> 
0.0076 
 
>  <oscillator_strength_3> 
0.0092 
 
>  <oscillator_strength_4> 
0.0596 
 
>  <open_babel_can_smiles> 
CCCCCCOC(=O)C(C)C 
 
>  <mulliken_charges> 
32 
1   -0.441913 
2   -0.437405 
3   -0.452117 
4   -0.247956 
5   -0.245446 
6   -0.264156 
7   -0.278551 
8   -0.044983 
9   -0.161091 
10   0.626477 
11   -0.484131 
12   -0.472657 
13   0.142607 
14   0.142767 
15   0.141415 
16   0.138886 
17   0.163622 
18   0.152464 
19   0.151998 
20   0.161187 
21   0.15558 
22   0.132232 
23   0.13009 
24   0.12812 
25   0.132134 
26   0.137136 
27   0.128633 
28   0.13995 
29   0.158502 
30   0.166819 
31   0.146864 
32   0.152923 
 
>  <lowdin_charges> 
32 
1   -0.445566 
2   -0.440776 
3   -0.440986 
4   -0.272809 
5   -0.273679 
6   -0.274805 
7   -0.28692 
8   -0.134248 
9   -0.144669 
10   0.195024 
11   -0.269317 
12   -0.196229 
13   0.149916 
14   0.147958 
15   0.146368 
16   0.149875 
17   0.161078 
18   0.15563 
19   0.154836 
20   0.158666 
21   0.154829 
22   0.139641 
23   0.139492 
24   0.137977 
25   0.140955 
26   0.142146 
27   0.138855 
28   0.144842 
29   0.155368 
30   0.157072 
31   0.150842 
32   0.158636 
 
$$$$ 
 
