PCCDB-ID:  28443 
public computational chemistry database (PCCDB) project, http://pccdb.org 
 
 31 32  0  0  0  0  0  0  0  0999 V2000 
    3.5270   -1.0849   -0.9426 C   0  0  0  0  0  0  0  0  0  0  0  0 
    0.9464    5.5652   -0.6029 C   0  0  0  0  0  0  0  0  0  0  0  0 
    2.3016    5.6609    0.1255 C   0  0  0  0  0  0  0  0  0  0  0  0 
    4.8573    1.2794   -1.7497 C   0  0  0  0  0  0  0  0  0  0  0  0 
    5.4843    2.4637   -2.1319 C   0  0  0  0  0  0  0  0  0  0  0  0 
   -0.2139    6.1191    0.2255 C   0  0  0  0  0  0  0  0  0  0  0  0 
    3.1302    2.5145   -0.5451 C   0  0  0  0  0  0  0  0  0  0  0  0 
    4.4417    5.8271   -1.2907 C   0  0  0  0  0  0  0  0  0  0  0  0 
    3.4569    5.1080   -0.6604 C   0  0  0  0  0  0  0  0  0  0  0  0 
    3.6863    1.3057   -0.9606 C   0  0  0  0  0  0  0  0  0  0  0  0 
    3.7480    3.7164   -0.9186 C   0  0  0  0  0  0  0  0  0  0  0  0 
    4.9272    3.6711   -1.7141 C   0  0  0  0  0  0  0  0  0  0  0  0 
   -1.4828    5.9726   -0.4984 N   0  0  0  0  0  0  0  0  0  0  0  0 
    5.3246    4.9778   -1.9317 N   0  0  0  0  0  0  0  0  0  0  0  0 
    3.0196    0.1754   -0.5504 O   0  0  0  0  0  0  0  0  0  0  0  0 
    2.8491   -1.8276   -0.5162 H   0  0  0  0  0  0  0  0  0  0  0  0 
    4.5400   -1.2585   -0.5527 H   0  0  0  0  0  0  0  0  0  0  0  0 
    3.5417   -1.1987   -2.0357 H   0  0  0  0  0  0  0  0  0  0  0  0 
    0.7277    4.5234   -0.8643 H   0  0  0  0  0  0  0  0  0  0  0  0 
    1.0146    6.1130   -1.5541 H   0  0  0  0  0  0  0  0  0  0  0  0 
    2.2246    5.1312    1.0867 H   0  0  0  0  0  0  0  0  0  0  0  0 
    2.5033    6.7116    0.3752 H   0  0  0  0  0  0  0  0  0  0  0  0 
    5.2831    0.3355   -2.0692 H   0  0  0  0  0  0  0  0  0  0  0  0 
    6.3857    2.4342   -2.7388 H   0  0  0  0  0  0  0  0  0  0  0  0 
    0.0174    7.1613    0.5195 H   0  0  0  0  0  0  0  0  0  0  0  0 
   -0.2971    5.5463    1.1587 H   0  0  0  0  0  0  0  0  0  0  0  0 
    2.2291    2.4950    0.0600 H   0  0  0  0  0  0  0  0  0  0  0  0 
    4.5866    6.8988   -1.3321 H   0  0  0  0  0  0  0  0  0  0  0  0 
   -1.4633    6.5557   -1.3348 H   0  0  0  0  0  0  0  0  0  0  0  0 
   -2.2481    6.3300    0.0718 H   0  0  0  0  0  0  0  0  0  0  0  0 
    6.1487    5.2641   -2.4351 H   0  0  0  0  0  0  0  0  0  0  0  0 
  1 17  1  0  0  0  0 
  1 15  1  0  0  0  0 
  1 16  1  0  0  0  0 
  2  3  1  0  0  0  0 
  2  6  1  0  0  0  0 
  3 22  1  0  0  0  0 
  3 21  1  0  0  0  0 
  4 10  1  0  0  0  0 
  5  4  2  0  0  0  0 
  5 12  1  0  0  0  0 
  6 25  1  0  0  0  0 
  6 26  1  0  0  0  0 
  7 27  1  0  0  0  0 
  8  9  2  0  0  0  0 
  9  3  1  0  0  0  0 
 10 15  1  0  0  0  0 
 10  7  2  0  0  0  0 
 11  9  1  0  0  0  0 
 11  7  1  0  0  0  0 
 12 11  2  0  0  0  0 
 13 30  1  0  0  0  0 
 13  6  1  0  0  0  0 
 14 12  1  0  0  0  0 
 14  8  1  0  0  0  0 
 18  1  1  0  0  0  0 
 19  2  1  0  0  0  0 
 20  2  1  0  0  0  0 
 23  4  1  0  0  0  0 
 24  5  1  0  0  0  0 
 28  8  1  0  0  0  0 
 29 13  1  0  0  0  0 
 31 14  1  0  0  0  0 
M  END 
>  <HBA> 
2 
 
>  <HBD> 
2 
 
>  <TPSA> 
51.04 
 
>  <cid> 
28443 
 
>  <dipole> 
2.92 
 
>  <excitation_energy_1> 
4.263 
 
>  <excitation_energy_2> 
4.478 
 
>  <excitation_energy_3> 
4.662 
 
>  <excitation_energy_4> 
4.884 
 
>  <homo_energy> 
-4.985 
 
>  <homo_lumo_gap> 
4.942 
 
>  <logP> 
2.768 
 
>  <lumo_energy> 
-0.044 
 
>  <melting_point> 
158.79 
 
>  <molecular_refractivity> 
62.08 
 
>  <oscillator_strength_1> 
0.0656 
 
>  <oscillator_strength_2> 
0.0 
 
>  <oscillator_strength_3> 
0.0849 
 
>  <oscillator_strength_4> 
0.0071 
 
>  <open_babel_can_smiles> 
NCCCc1c[nH]c2c1cc(OC)cc2 
 
>  <mulliken_charges> 
31 
1   -0.208294 
2   -0.245789 
3   -0.346951 
4   -0.217714 
5   -0.173142 
6   -0.131215 
7   -0.275635 
8   -0.006036 
9   0.075902 
10   0.376572 
11   0.088323 
12   0.317038 
13   -0.714463 
14   -0.697261 
15   -0.516247 
16   0.163887 
17   0.144561 
18   0.145269 
19   0.159404 
20   0.124111 
21   0.141091 
22   0.130064 
23   0.123964 
24   0.119955 
25   0.105829 
26   0.137196 
27   0.132706 
28   0.141453 
29   0.28977 
30   0.292877 
31   0.322776 
 
>  <lowdin_charges> 
31 
1   -0.275516 
2   -0.277106 
3   -0.265806 
4   -0.216942 
5   -0.179065 
6   -0.204122 
7   -0.193308 
8   -0.134663 
9   -0.062612 
10   0.089429 
11   -0.025619 
12   0.018805 
13   -0.559613 
14   -0.207029 
15   -0.210163 
16   0.16072 
17   0.139363 
18   0.138494 
19   0.152996 
20   0.137064 
21   0.147081 
22   0.142981 
23   0.160282 
24   0.154503 
25   0.111405 
26   0.139962 
27   0.165134 
28   0.159304 
29   0.250355 
30   0.254069 
31   0.289618 
 
$$$$ 
 
