PCCDB-ID:  21845 
public computational chemistry database (PCCDB) project, http://pccdb.org 
 
 17 17  0  0  0  0  0  0  0  0999 V2000 
    0.6608    1.3176   -0.1535 C   0  0  0  0  0  0  0  0  0  0  0  0 
   -1.4579    0.1504   -0.2113 C   0  0  0  0  0  0  0  0  0  0  0  0 
    1.4112    0.0128    0.1360 C   0  0  0  0  0  0  0  0  0  0  0  0 
   -0.7793   -1.1949    0.0676 C   0  0  0  0  0  0  0  0  0  0  0  0 
   -0.6830    1.2218    0.4201 N   0  0  0  0  0  0  0  0  0  0  0  0 
    1.2128   -1.9695   -1.1865 N   0  0  0  0  0  0  0  0  0  0  0  0 
    0.6241   -1.1182   -0.3317 N   0  0  0  0  0  0  0  0  0  0  0  0 
    0.5089   -2.8909   -1.5896 O   0  0  0  0  0  0  0  0  0  0  0  0 
    0.6530    1.4857   -1.2473 H   0  0  0  0  0  0  0  0  0  0  0  0 
    1.1905    2.1544    0.3147 H   0  0  0  0  0  0  0  0  0  0  0  0 
   -2.4671    0.1431    0.2147 H   0  0  0  0  0  0  0  0  0  0  0  0 
   -1.5515    0.2769   -1.3063 H   0  0  0  0  0  0  0  0  0  0  0  0 
    1.5746   -0.0804    1.2179 H   0  0  0  0  0  0  0  0  0  0  0  0 
    2.3743   -0.0282   -0.3790 H   0  0  0  0  0  0  0  0  0  0  0  0 
   -1.2269   -2.0111   -0.5019 H   0  0  0  0  0  0  0  0  0  0  0  0 
   -0.8319   -1.4263    1.1391 H   0  0  0  0  0  0  0  0  0  0  0  0 
   -1.1694    2.1091    0.3145 H   0  0  0  0  0  0  0  0  0  0  0  0 
  1  3  1  0  0  0  0 
  1 10  1  0  0  0  0 
  1  5  1  0  0  0  0 
  2  4  1  0  0  0  0 
  2 11  1  0  0  0  0 
  2  5  1  0  0  0  0 
  3 13  1  0  0  0  0 
  4 16  1  0  0  0  0 
  6  7  1  0  0  0  0 
  7  4  1  0  0  0  0 
  7  3  1  0  0  0  0 
  8  6  2  0  0  0  0 
  9  1  1  0  0  0  0 
 12  2  1  0  0  0  0 
 14  3  1  0  0  0  0 
 15  4  1  0  0  0  0 
 17  5  1  0  0  0  0 
M  END 
>  <HBA> 
4 
 
>  <HBD> 
1 
 
>  <TPSA> 
44.7 
 
>  <cid> 
21845 
 
>  <dipole> 
4.27 
 
>  <excitation_energy_1> 
3.404 
 
>  <excitation_energy_2> 
4.857 
 
>  <excitation_energy_3> 
5.59 
 
>  <excitation_energy_4> 
5.65 
 
>  <homo_energy> 
-5.989 
 
>  <homo_lumo_gap> 
5.252 
 
>  <logP> 
-0.16 
 
>  <lumo_energy> 
-0.737 
 
>  <melting_point> 
46.21 
 
>  <molecular_refractivity> 
37.49 
 
>  <oscillator_strength_1> 
0.0008 
 
>  <oscillator_strength_2> 
0.0237 
 
>  <oscillator_strength_3> 
0.0119 
 
>  <oscillator_strength_4> 
0.0083 
 
>  <open_babel_can_smiles> 
O=NN1CCNCC1 
 
>  <mulliken_charges> 
17 
1   -0.141179 
2   -0.142866 
3   -0.119558 
4   -0.141656 
5   -0.553648 
6   0.146529 
7   -0.231627 
8   -0.380532 
9   0.12962 
10   0.149481 
11   0.150796 
12   0.132362 
13   0.161504 
14   0.174171 
15   0.194751 
16   0.165701 
17   0.306152 
 
>  <lowdin_charges> 
17 
1   -0.209104 
2   -0.204309 
3   -0.199917 
4   -0.220027 
5   -0.369366 
6   0.0523 
7   -0.047377 
8   -0.275449 
9   0.123626 
10   0.155048 
11   0.153721 
12   0.124939 
13   0.151019 
14   0.168432 
15   0.179689 
16   0.156234 
17   0.26054 
 
$$$$ 
 
