PCCDB-ID:  26963 
public computational chemistry database (PCCDB) project, http://pccdb.org 
 
 26 25  0  0  0  0  0  0  0  0999 V2000 
    2.8979    1.3122   -1.6749 C   0  0  0  0  0  0  0  0  0  0  0  0 
    5.8695   -0.1747    0.4029 C   0  0  0  0  0  0  0  0  0  0  0  0 
    2.7364    2.0591    1.2272 C   0  0  0  0  0  0  0  0  0  0  0  0 
    3.2658   -0.2902    1.9218 C   0  0  0  0  0  0  0  0  0  0  0  0 
    2.3337   -0.9539   -0.7167 C   0  0  0  0  0  0  0  0  0  0  0  0 
    2.8387    0.2857   -0.5577 C   0  0  0  0  0  0  0  0  0  0  0  0 
    4.9425    1.0190    0.5622 C   0  0  0  0  0  0  0  0  0  0  0  0 
    1.7847   -1.5841   -1.9527 C   0  0  0  0  0  0  0  0  0  0  0  0 
    3.4243    0.7464    0.7910 C   0  0  0  0  0  0  0  0  0  0  0  0 
    5.3718    2.1553    0.5048 O   0  0  0  0  0  0  0  0  0  0  0  0 
    1.9423   -2.7572   -2.1963 O   0  0  0  0  0  0  0  0  0  0  0  0 
    1.0685   -0.8046   -2.8133 O   0  0  0  0  0  0  0  0  0  0  0  0 
    2.0436    2.0028   -1.6308 H   0  0  0  0  0  0  0  0  0  0  0  0 
    2.9088    0.8477   -2.6633 H   0  0  0  0  0  0  0  0  0  0  0  0 
    3.7916    1.9365   -1.5859 H   0  0  0  0  0  0  0  0  0  0  0  0 
    6.0993   -0.6014    1.3872 H   0  0  0  0  0  0  0  0  0  0  0  0 
    6.8039    0.1604   -0.0519 H   0  0  0  0  0  0  0  0  0  0  0  0 
    5.4180   -0.9684   -0.2002 H   0  0  0  0  0  0  0  0  0  0  0  0 
    1.6603    1.8950    1.3524 H   0  0  0  0  0  0  0  0  0  0  0  0 
    2.8924    2.8655    0.5091 H   0  0  0  0  0  0  0  0  0  0  0  0 
    3.1474    2.3971    2.1835 H   0  0  0  0  0  0  0  0  0  0  0  0 
    2.2058   -0.4796    2.1212 H   0  0  0  0  0  0  0  0  0  0  0  0 
    3.7124    0.0970    2.8441 H   0  0  0  0  0  0  0  0  0  0  0  0 
    3.7434   -1.2476    1.6965 H   0  0  0  0  0  0  0  0  0  0  0  0 
    2.3819   -1.6707    0.0950 H   0  0  0  0  0  0  0  0  0  0  0  0 
    0.9161    0.0669   -2.4144 H   0  0  0  0  0  0  0  0  0  0  0  0 
  1 13  1  0  0  0  0 
  1 15  1  0  0  0  0 
  1  6  1  0  0  0  0 
  2  7  1  0  0  0  0 
  2 16  1  0  0  0  0 
  3 19  1  0  0  0  0 
  3 21  1  0  0  0  0 
  4 22  1  0  0  0  0 
  4 23  1  0  0  0  0 
  5  6  2  0  0  0  0 
  5 25  1  0  0  0  0 
  6  9  1  0  0  0  0 
  7  9  1  0  0  0  0 
  8  5  1  0  0  0  0 
  9  3  1  0  0  0  0 
  9  4  1  0  0  0  0 
 10  7  2  0  0  0  0 
 11  8  2  0  0  0  0 
 12 26  1  0  0  0  0 
 12  8  1  0  0  0  0 
 14  1  1  0  0  0  0 
 17  2  1  0  0  0  0 
 18  2  1  0  0  0  0 
 20  3  1  0  0  0  0 
 24  4  1  0  0  0  0 
M  END 
>  <HBA> 
3 
 
>  <HBD> 
1 
 
>  <TPSA> 
54.37 
 
>  <cid> 
26963 
 
>  <dipole> 
3.39 
 
>  <excitation_energy_1> 
4.087 
 
>  <excitation_energy_2> 
4.725 
 
>  <excitation_energy_3> 
5.158 
 
>  <excitation_energy_4> 
5.696 
 
>  <homo_energy> 
-6.806 
 
>  <homo_lumo_gap> 
5.331 
 
>  <logP> 
1.633 
 
>  <lumo_energy> 
-1.475 
 
>  <melting_point> 
101.89 
 
>  <molecular_refractivity> 
46.61 
 
>  <oscillator_strength_1> 
0.0192 
 
>  <oscillator_strength_2> 
0.0201 
 
>  <oscillator_strength_3> 
0.0405 
 
>  <oscillator_strength_4> 
0.1635 
 
>  <open_babel_can_smiles> 
OC(=O)/C=C(/C(C(=O)C)(C)C)\C 
 
>  <mulliken_charges> 
26 
1   -0.580661 
2   -0.538122 
3   -0.446023 
4   -0.483064 
5   -0.278997 
6   0.174553 
7   0.45443 
8   0.5701 
9   -0.052096 
10   -0.43688 
11   -0.442761 
12   -0.572038 
13   0.168983 
14   0.184935 
15   0.195582 
16   0.181392 
17   0.184437 
18   0.179791 
19   0.143034 
20   0.170437 
21   0.159452 
22   0.163594 
23   0.158907 
24   0.163034 
25   0.163702 
26   0.414277 
 
>  <lowdin_charges> 
26 
1   -0.469 
2   -0.476484 
3   -0.436833 
4   -0.444707 
5   -0.239151 
6   0.018907 
7   0.165869 
8   0.187127 
9   -0.01811 
10   -0.228695 
11   -0.236269 
12   -0.356518 
13   0.164565 
14   0.170504 
15   0.178978 
16   0.177823 
17   0.177181 
18   0.174511 
19   0.149049 
20   0.164819 
21   0.160815 
22   0.159732 
23   0.159313 
24   0.157413 
25   0.180996 
26   0.358164 
 
$$$$ 
 
