PCCDB-ID:  14511 
public computational chemistry database (PCCDB) project, http://pccdb.org 
 
 18 18  0  0  0  0  0  0  0  0999 V2000 
    0.9641    0.0410    0.0105 C   0  0  0  0  0  0  0  0  0  0  0  0 
    4.5912    1.4154   -0.2138 C   0  0  0  0  0  0  0  0  0  0  0  0 
    3.1478    1.3582    0.3044 C   0  0  0  0  0  0  0  0  0  0  0  0 
    5.3736    0.1603    0.1899 C   0  0  0  0  0  0  0  0  0  0  0  0 
    3.1820   -1.0723   -0.2615 C   0  0  0  0  0  0  0  0  0  0  0  0 
    2.4673    0.0422   -0.0033 C   0  0  0  0  0  0  0  0  0  0  0  0 
    4.6565   -1.1222   -0.2221 C   0  0  0  0  0  0  0  0  0  0  0  0 
    5.2689   -2.1519   -0.4703 O   0  0  0  0  0  0  0  0  0  0  0  0 
    0.5669    0.7313   -0.7463 H   0  0  0  0  0  0  0  0  0  0  0  0 
    0.5848    0.3932    0.9799 H   0  0  0  0  0  0  0  0  0  0  0  0 
    0.5526   -0.9547   -0.1782 H   0  0  0  0  0  0  0  0  0  0  0  0 
    5.0909    2.3169    0.1595 H   0  0  0  0  0  0  0  0  0  0  0  0 
    4.5734    1.4932   -1.3089 H   0  0  0  0  0  0  0  0  0  0  0  0 
    2.5572    2.1830   -0.1163 H   0  0  0  0  0  0  0  0  0  0  0  0 
    3.1318    1.5120    1.3960 H   0  0  0  0  0  0  0  0  0  0  0  0 
    5.4926    0.1298    1.2844 H   0  0  0  0  0  0  0  0  0  0  0  0 
    6.3807    0.1415   -0.2378 H   0  0  0  0  0  0  0  0  0  0  0  0 
    2.6897   -2.0143   -0.4932 H   0  0  0  0  0  0  0  0  0  0  0  0 
  1 10  1  0  0  0  0 
  2 12  1  0  0  0  0 
  2  4  1  0  0  0  0 
  2  3  1  0  0  0  0 
  3 15  1  0  0  0  0 
  4 16  1  0  0  0  0 
  5  7  1  0  0  0  0 
  5  6  2  0  0  0  0 
  6  1  1  0  0  0  0 
  6  3  1  0  0  0  0 
  7  4  1  0  0  0  0 
  8  7  2  0  0  0  0 
  9  1  1  0  0  0  0 
 11  1  1  0  0  0  0 
 13  2  1  0  0  0  0 
 14  3  1  0  0  0  0 
 17  4  1  0  0  0  0 
 18  5  1  0  0  0  0 
M  END 
>  <HBA> 
1 
 
>  <HBD> 
0 
 
>  <TPSA> 
17.07 
 
>  <cid> 
14511 
 
>  <dipole> 
4.14 
 
>  <excitation_energy_1> 
3.662 
 
>  <excitation_energy_2> 
5.65 
 
>  <excitation_energy_3> 
5.838 
 
>  <excitation_energy_4> 
6.326 
 
>  <homo_energy> 
-6.297 
 
>  <homo_lumo_gap> 
5.132 
 
>  <logP> 
1.686 
 
>  <lumo_energy> 
-1.165 
 
>  <melting_point> 
29.95 
 
>  <molecular_refractivity> 
33.38 
 
>  <oscillator_strength_1> 
0.0002 
 
>  <oscillator_strength_2> 
0.3811 
 
>  <oscillator_strength_3> 
0.0037 
 
>  <oscillator_strength_4> 
0.0076 
 
>  <open_babel_can_smiles> 
CC1=CC(=O)CCC1 
 
>  <mulliken_charges> 
18 
1   -0.519372 
2   -0.277787 
3   -0.331715 
4   -0.353338 
5   -0.223935 
6   0.184952 
7   0.445827 
8   -0.480932 
9   0.164803 
10   0.164504 
11   0.167142 
12   0.14105 
13   0.150106 
14   0.149091 
15   0.157213 
16   0.160752 
17   0.165807 
18   0.135832 
 
>  <lowdin_charges> 
18 
1   -0.441179 
2   -0.271934 
3   -0.278831 
4   -0.303345 
5   -0.222745 
6   0.034923 
7   0.149142 
8   -0.253502 
9   0.164379 
10   0.163413 
11   0.162525 
12   0.150131 
13   0.146057 
14   0.154962 
15   0.155216 
16   0.160356 
17   0.165259 
18   0.165174 
 
$$$$ 
 
