PCCDB-ID:  46830 
public computational chemistry database (PCCDB) project, http://pccdb.org 
 
 33 34  0  0  1  0  0  0  0  0999 V2000 
    1.0462   -0.0829    0.1047 C   0  0  0  0  0  0  0  0  0  0  0  0 
    2.7459    2.5020    0.7152 C   0  0  0  0  0  0  0  0  0  0  0  0 
    2.3245    1.0392    2.6725 C   0  0  0  0  0  0  0  0  0  0  0  0 
    2.4462   -2.2812    1.4005 C   0  0  0  0  0  0  0  0  0  0  0  0 
    5.3881    0.9353    0.1743 C   0  0  0  0  0  0  0  0  0  0  0  0 
    5.3618   -0.5462   -0.3079 C   0  0  0  0  0  0  0  0  0  0  0  0 
    4.9121   -0.4646    2.0472 C   0  0  0  0  0  0  0  0  0  0  0  0 
    2.5647   -0.0099    0.2988 C   0  0  1  0  0  0  0  0  0  0  0  0 
    4.5837    0.9412    1.5070 C   0  0  2  0  0  0  0  0  0  0  0  0 
    4.5952   -1.3131    0.7965 C   0  0  1  0  0  0  0  0  0  0  0  0 
    3.0404    1.1054    1.3050 C   0  0  0  0  0  0  0  0  0  0  0  0 
    3.1496   -1.3541    0.5241 N   0  0  0  0  0  0  0  0  0  0  0  0 
    0.6663    0.8704   -0.2748 H   0  0  0  0  0  0  0  0  0  0  0  0 
    0.5046   -0.3114    1.0278 H   0  0  0  0  0  0  0  0  0  0  0  0 
    0.8030   -0.8550   -0.6332 H   0  0  0  0  0  0  0  0  0  0  0  0 
    1.6695    2.7020    0.6754 H   0  0  0  0  0  0  0  0  0  0  0  0 
    3.1390    2.6231   -0.3000 H   0  0  0  0  0  0  0  0  0  0  0  0 
    3.1983    3.2823    1.3404 H   0  0  0  0  0  0  0  0  0  0  0  0 
    1.2608    1.2816    2.5732 H   0  0  0  0  0  0  0  0  0  0  0  0 
    2.7602    1.7735    3.3625 H   0  0  0  0  0  0  0  0  0  0  0  0 
    2.3923    0.0591    3.1508 H   0  0  0  0  0  0  0  0  0  0  0  0 
    1.4065   -2.3926    1.0839 H   0  0  0  0  0  0  0  0  0  0  0  0 
    2.4433   -2.0218    2.4749 H   0  0  0  0  0  0  0  0  0  0  0  0 
    2.9196   -3.2664    1.3089 H   0  0  0  0  0  0  0  0  0  0  0  0 
    4.9901    1.6260   -0.5740 H   0  0  0  0  0  0  0  0  0  0  0  0 
    6.4169    1.2549    0.3768 H   0  0  0  0  0  0  0  0  0  0  0  0 
    6.3777   -0.9479   -0.3888 H   0  0  0  0  0  0  0  0  0  0  0  0 
    4.8852   -0.6781   -1.2841 H   0  0  0  0  0  0  0  0  0  0  0  0 
    4.3421   -0.7598    2.9321 H   0  0  0  0  0  0  0  0  0  0  0  0 
    5.9777   -0.5365    2.3052 H   0  0  0  0  0  0  0  0  0  0  0  0 
    2.9648    0.3067   -0.6747 H   0  0  0  0  0  0  0  0  0  0  0  0 
    4.9295    1.7418    2.1736 H   0  0  0  0  0  0  0  0  0  0  0  0 
    4.9390   -2.3500    0.8818 H   0  0  0  0  0  0  0  0  0  0  0  0 
  1  8  1  0  0  0  0 
  1 14  1  0  0  0  0 
  2 11  1  0  0  0  0 
  2 18  1  0  0  0  0 
  3 21  1  0  0  0  0 
  3 20  1  0  0  0  0 
  4 23  1  0  0  0  0 
  5 26  1  0  0  0  0 
  5  9  1  0  0  0  0 
  6  5  1  0  0  0  0 
  6 10  1  0  0  0  0 
  7 30  1  0  0  0  0 
  7 29  1  0  0  0  0 
  8 31  1  6  0  0  0 
  8 12  1  0  0  0  0 
  8 11  1  0  0  0  0 
  9  7  1  0  0  0  0 
  9 32  1  1  0  0  0 
 10 33  1  1  0  0  0 
 10  7  1  0  0  0  0 
 11  9  1  0  0  0  0 
 11  3  1  0  0  0  0 
 12 10  1  0  0  0  0 
 12  4  1  0  0  0  0 
 13  1  1  0  0  0  0 
 15  1  1  0  0  0  0 
 16  2  1  0  0  0  0 
 17  2  1  0  0  0  0 
 19  3  1  0  0  0  0 
 22  4  1  0  0  0  0 
 24  4  1  0  0  0  0 
 25  5  1  0  0  0  0 
 27  6  1  0  0  0  0 
 28  6  1  0  0  0  0 
M  END 
>  <HBA> 
1 
 
>  <HBD> 
0 
 
>  <TPSA> 
3.24 
 
>  <cid> 
46830 
 
>  <dipole> 
0.48 
 
>  <excitation_energy_1> 
4.635 
 
>  <excitation_energy_2> 
4.917 
 
>  <excitation_energy_3> 
5.084 
 
>  <excitation_energy_4> 
5.171 
 
>  <homo_energy> 
-5.127 
 
>  <homo_lumo_gap> 
7.094 
 
>  <logP> 
2.453 
 
>  <lumo_energy> 
1.967 
 
>  <melting_point> 
36.6 
 
>  <molecular_refractivity> 
57.31 
 
>  <oscillator_strength_1> 
0.0042 
 
>  <oscillator_strength_2> 
0.0031 
 
>  <oscillator_strength_3> 
0.0031 
 
>  <oscillator_strength_4> 
0.0149 
 
>  <open_babel_can_smiles> 
CN1[C@H]2CC[C@H](C2)C([C@@H]1C)(C)C 
 
>  <mulliken_charges> 
33 
1   -0.482971 
2   -0.462075 
3   -0.465895 
4   -0.303671 
5   -0.287883 
6   -0.285474 
7   -0.279002 
8   0.046113 
9   -0.097313 
10   0.031053 
11   0.1081 
12   -0.396653 
13   0.14751 
14   0.149906 
15   0.155087 
16   0.140728 
17   0.140939 
18   0.138187 
19   0.140284 
20   0.136601 
21   0.148451 
22   0.151298 
23   0.119304 
24   0.143005 
25   0.136632 
26   0.133136 
27   0.134637 
28   0.148253 
29   0.134656 
30   0.124744 
31   0.128107 
32   0.108272 
33   0.115939 
 
>  <lowdin_charges> 
33 
1   -0.452671 
2   -0.444903 
3   -0.447892 
4   -0.354846 
5   -0.29278 
6   -0.292244 
7   -0.299142 
8   -0.062474 
9   -0.134593 
10   -0.063748 
11   -0.005534 
12   -0.192374 
13   0.154405 
14   0.149783 
15   0.157215 
16   0.145427 
17   0.145241 
18   0.149082 
19   0.146273 
20   0.148385 
21   0.148749 
22   0.151183 
23   0.11541 
24   0.146035 
25   0.145574 
26   0.143886 
27   0.146559 
28   0.150537 
29   0.144711 
30   0.140135 
31   0.140353 
32   0.136888 
33   0.137367 
 
$$$$ 
 
