PCCDB-ID:  36911 
public computational chemistry database (PCCDB) project, http://pccdb.org 
 
 22 22  0  0  0  0  0  0  0  0999 V2000 
    1.0187    0.1521    0.1925 C   0  0  0  0  0  0  0  0  0  0  0  0 
    5.4791   -2.4199   -0.2780 C   0  0  0  0  0  0  0  0  0  0  0  0 
    3.2383    1.2661   -0.0029 C   0  0  0  0  0  0  0  0  0  0  0  0 
    5.3224    0.0651   -0.2003 C   0  0  0  0  0  0  0  0  0  0  0  0 
    2.5228    0.0737    0.0575 C   0  0  0  0  0  0  0  0  0  0  0  0 
    4.6547   -1.1560   -0.1815 C   0  0  0  0  0  0  0  0  0  0  0  0 
    4.6370    1.2880   -0.1219 C   0  0  0  0  0  0  0  0  0  0  0  0 
    3.2479   -1.1355   -0.0434 C   0  0  0  0  0  0  0  0  0  0  0  0 
    5.3296    2.4864   -0.1088 N   0  0  0  0  0  0  0  0  0  0  0  0 
    2.5221   -2.4007   -0.0073 N   0  0  0  0  0  0  0  0  0  0  0  0 
    1.5257   -2.4836    0.7181 O   0  0  0  0  0  0  0  0  0  0  0  0 
    2.9358   -3.3332   -0.7040 O   0  0  0  0  0  0  0  0  0  0  0  0 
    0.6824    1.1720   -0.0177 H   0  0  0  0  0  0  0  0  0  0  0  0 
    0.6994   -0.1199    1.2025 H   0  0  0  0  0  0  0  0  0  0  0  0 
    0.5036   -0.5311   -0.4883 H   0  0  0  0  0  0  0  0  0  0  0  0 
    6.5337   -2.1863   -0.1026 H   0  0  0  0  0  0  0  0  0  0  0  0 
    5.3816   -2.8806   -1.2651 H   0  0  0  0  0  0  0  0  0  0  0  0 
    5.1658   -3.1759    0.4472 H   0  0  0  0  0  0  0  0  0  0  0  0 
    2.6953    2.2067    0.0518 H   0  0  0  0  0  0  0  0  0  0  0  0 
    6.4070    0.0690   -0.2763 H   0  0  0  0  0  0  0  0  0  0  0  0 
    4.8038    3.3161   -0.3485 H   0  0  0  0  0  0  0  0  0  0  0  0 
    6.2594    2.4773   -0.5061 H   0  0  0  0  0  0  0  0  0  0  0  0 
  1 14  1  0  0  0  0 
  2  6  1  0  0  0  0 
  2 16  1  0  0  0  0 
  2 18  1  0  0  0  0 
  3 19  1  0  0  0  0 
  3  5  1  0  0  0  0 
  4  6  2  0  0  0  0 
  4  7  1  0  0  0  0 
  5  1  1  0  0  0  0 
  6  8  1  0  0  0  0 
  7  9  1  0  0  0  0 
  7  3  2  0  0  0  0 
  8 10  1  0  0  0  0 
  8  5  2  0  0  0  0 
 10 11  2  0  0  0  0 
 12 10  2  0  0  0  0 
 13  1  1  0  0  0  0 
 15  1  1  0  0  0  0 
 17  2  1  0  0  0  0 
 20  4  1  0  0  0  0 
 21  9  1  0  0  0  0 
 22  9  1  0  0  0  0 
M  END 
>  <HBA> 
1 
 
>  <HBD> 
1 
 
>  <TPSA> 
71.84 
 
>  <cid> 
36911 
 
>  <dipole> 
6.17 
 
>  <excitation_energy_1> 
3.53 
 
>  <excitation_energy_2> 
4.099 
 
>  <excitation_energy_3> 
4.15 
 
>  <excitation_energy_4> 
4.37 
 
>  <homo_energy> 
-6.014 
 
>  <homo_lumo_gap> 
4.25 
 
>  <logP> 
2.898 
 
>  <lumo_energy> 
-1.763 
 
>  <melting_point> 
101.95 
 
>  <molecular_refractivity> 
49.6 
 
>  <oscillator_strength_1> 
0.1201 
 
>  <oscillator_strength_2> 
0.1039 
 
>  <oscillator_strength_3> 
0.0112 
 
>  <oscillator_strength_4> 
0.0005 
 
>  <open_babel_can_smiles> 
Cc1cc(N)cc(c1N(=O)=O)C 
 
>  <mulliken_charges> 
22 
1   -0.510679 
2   -0.510866 
3   -0.264347 
4   -0.264533 
5   0.184818 
6   0.184808 
7   0.379574 
8   0.148115 
9   -0.797071 
10   0.322746 
11   -0.399489 
12   -0.400252 
13   0.145207 
14   0.191049 
15   0.173562 
16   0.146109 
17   0.189451 
18   0.17446 
19   0.12224 
20   0.122703 
21   0.331183 
22   0.33121 
 
>  <lowdin_charges> 
22 
1   -0.439564 
2   -0.438842 
3   -0.212863 
4   -0.21011 
5   0.03404 
6   0.034075 
7   0.079562 
8   -0.040049 
9   -0.468629 
10   0.304357 
11   -0.256884 
12   -0.258237 
13   0.151115 
14   0.177188 
15   0.170222 
16   0.15098 
17   0.176531 
18   0.170285 
19   0.156361 
20   0.154443 
21   0.283535 
22   0.282486 
 
$$$$ 
 
