PCCDB-ID:  26334 
public computational chemistry database (PCCDB) project, http://pccdb.org 
 
 22 22  0  0  0  0  0  0  0  0999 V2000 
    3.4520    0.2068   -0.9931 C   0  0  0  0  0  0  0  0  0  0  0  0 
    3.9649   -3.8136    4.0175 C   0  0  0  0  0  0  0  0  0  0  0  0 
    4.1281    0.8543    2.6679 C   0  0  0  0  0  0  0  0  0  0  0  0 
    2.4715    0.1782    0.1939 C   0  0  0  0  0  0  0  0  0  0  0  0 
    2.7988   -3.0398    1.8923 C   0  0  0  0  0  0  0  0  0  0  0  0 
    3.5726   -2.7508    3.0226 C   0  0  0  0  0  0  0  0  0  0  0  0 
    3.6417   -0.5430    2.3679 C   0  0  0  0  0  0  0  0  0  0  0  0 
    2.8598   -0.8487    1.2338 C   0  0  0  0  0  0  0  0  0  0  0  0 
    2.4459   -2.1054    1.0095 N   0  0  0  0  0  0  0  0  0  0  0  0 
    3.9865   -1.4960    3.2474 N   0  0  0  0  0  0  0  0  0  0  0  0 
    3.1327    0.9386   -1.7435 H   0  0  0  0  0  0  0  0  0  0  0  0 
    3.4983   -0.7772   -1.4710 H   0  0  0  0  0  0  0  0  0  0  0  0 
    4.4657    0.4731   -0.6715 H   0  0  0  0  0  0  0  0  0  0  0  0 
    4.5398   -4.6165    3.5400 H   0  0  0  0  0  0  0  0  0  0  0  0 
    3.0829   -4.2767    4.4768 H   0  0  0  0  0  0  0  0  0  0  0  0 
    4.5750   -3.3686    4.8067 H   0  0  0  0  0  0  0  0  0  0  0  0 
    4.7017    1.2751    1.8338 H   0  0  0  0  0  0  0  0  0  0  0  0 
    4.7660    0.8270    3.5539 H   0  0  0  0  0  0  0  0  0  0  0  0 
    3.2929    1.5392    2.8625 H   0  0  0  0  0  0  0  0  0  0  0  0 
    1.4729   -0.0816   -0.1735 H   0  0  0  0  0  0  0  0  0  0  0  0 
    2.4058    1.1749    0.6440 H   0  0  0  0  0  0  0  0  0  0  0  0 
    2.4522   -4.0542    1.6971 H   0  0  0  0  0  0  0  0  0  0  0  0 
  1 13  1  0  0  0  0 
  1  4  1  0  0  0  0 
  2 15  1  0  0  0  0 
  2 16  1  0  0  0  0 
  3 19  1  0  0  0  0 
  3 18  1  0  0  0  0 
  4 21  1  0  0  0  0 
  4  8  1  0  0  0  0 
  5  6  2  0  0  0  0 
  6 10  1  0  0  0  0 
  6  2  1  0  0  0  0 
  7  3  1  0  0  0  0 
  7 10  2  0  0  0  0 
  8  7  1  0  0  0  0 
  9  8  2  0  0  0  0 
  9  5  1  0  0  0  0 
 11  1  1  0  0  0  0 
 12  1  1  0  0  0  0 
 14  2  1  0  0  0  0 
 17  3  1  0  0  0  0 
 20  4  1  0  0  0  0 
 22  5  1  0  0  0  0 
M  END 
>  <HBA> 
2 
 
>  <HBD> 
0 
 
>  <TPSA> 
25.78 
 
>  <cid> 
26334 
 
>  <dipole> 
0.38 
 
>  <excitation_energy_1> 
4.137 
 
>  <excitation_energy_2> 
4.713 
 
>  <excitation_energy_3> 
5.025 
 
>  <excitation_energy_4> 
5.582 
 
>  <homo_energy> 
-6.433 
 
>  <homo_lumo_gap> 
5.502 
 
>  <logP> 
1.656 
 
>  <lumo_energy> 
-0.931 
 
>  <melting_point> 
47.18 
 
>  <molecular_refractivity> 
41.74 
 
>  <oscillator_strength_1> 
0.005 
 
>  <oscillator_strength_2> 
0.0001 
 
>  <oscillator_strength_3> 
0.1462 
 
>  <oscillator_strength_4> 
0.0001 
 
>  <open_babel_can_smiles> 
CCc1ncc(nc1C)C 
 
>  <mulliken_charges> 
22 
1   -0.44536 
2   -0.524913 
3   -0.529293 
4   -0.313766 
5   -0.002012 
6   0.300556 
7   0.274555 
8   0.258335 
9   -0.437871 
10   -0.490241 
11   0.147573 
12   0.164511 
13   0.145426 
14   0.16438 
15   0.164916 
16   0.177681 
17   0.16329 
18   0.177709 
19   0.165347 
20   0.161309 
21   0.139957 
22   0.13791 
 
>  <lowdin_charges> 
22 
1   -0.439375 
2   -0.450861 
3   -0.452098 
4   -0.276476 
5   -0.120257 
6   0.03363 
7   0.032417 
8   0.023732 
9   -0.129753 
10   -0.144502 
11   0.152788 
12   0.157636 
13   0.146409 
14   0.164717 
15   0.164704 
16   0.172576 
17   0.162566 
18   0.17214 
19   0.163712 
20   0.161586 
21   0.148728 
22   0.15598 
 
$$$$ 
 
