PCCDB-ID:  14312 
public computational chemistry database (PCCDB) project, http://pccdb.org 
 
 19 20  0  0  0  0  0  0  0  0999 V2000 
    2.4086    0.7214   -0.0156 C   0  0  0  0  0  0  0  0  0  0  0  0 
   -2.4234    0.6679   -0.0123 C   0  0  0  0  0  0  0  0  0  0  0  0 
    1.2150    1.4032   -0.0191 C   0  0  0  0  0  0  0  0  0  0  0  0 
   -1.2522    1.3882   -0.0172 C   0  0  0  0  0  0  0  0  0  0  0  0 
    2.4238   -0.6839   -0.0069 C   0  0  0  0  0  0  0  0  0  0  0  0 
   -2.3934   -0.7267   -0.0023 C   0  0  0  0  0  0  0  0  0  0  0  0 
   -0.0146    0.6958   -0.0139 C   0  0  0  0  0  0  0  0  0  0  0  0 
    1.2501   -1.4277   -0.0021 C   0  0  0  0  0  0  0  0  0  0  0  0 
   -0.0029   -0.7367   -0.0049 C   0  0  0  0  0  0  0  0  0  0  0  0 
   -1.2323   -1.4333    0.0022 N   0  3  0  0  0  0  0  0  0  0  0  0 
    1.2903   -2.7825    0.0045 O   0  0  0  0  0  0  0  0  0  0  0  0 
   -1.2756   -2.7035    0.0126 O   0  5  0  0  0  0  0  0  0  0  0  0 
    3.3510    1.2617   -0.0197 H   0  0  0  0  0  0  0  0  0  0  0  0 
   -3.3913    1.1593   -0.0159 H   0  0  0  0  0  0  0  0  0  0  0  0 
    1.1892    2.4886   -0.0267 H   0  0  0  0  0  0  0  0  0  0  0  0 
   -1.2532    2.4732   -0.0236 H   0  0  0  0  0  0  0  0  0  0  0  0 
    3.3745   -1.2136   -0.0037 H   0  0  0  0  0  0  0  0  0  0  0  0 
   -3.2707   -1.3587    0.0024 H   0  0  0  0  0  0  0  0  0  0  0  0 
    2.2254   -3.0476    0.0024 H   0  0  0  0  0  0  0  0  0  0  0  0 
  1  5  1  0  0  0  0 
  2  6  2  0  0  0  0 
  3  1  2  0  0  0  0 
  3  7  1  0  0  0  0 
  4  7  2  0  0  0  0 
  4  2  1  0  0  0  0 
  5 17  1  0  0  0  0 
  5  8  2  0  0  0  0 
  6 10  1  0  0  0  0 
  6 18  1  0  0  0  0 
  7  9  1  0  0  0  0 
  8 11  1  0  0  0  0 
  9  8  1  0  0  0  0 
  9 10  2  0  0  0  0 
 10 12  1  0  0  0  0 
 13  1  1  0  0  0  0 
 14  2  1  0  0  0  0 
 15  3  1  0  0  0  0 
 16  4  1  0  0  0  0 
 19 11  1  0  0  0  0 
M  CHG  2  10   1  12  -1 
M  END 
>  <HBA> 
2 
 
>  <HBD> 
1 
 
>  <TPSA> 
45.69 
 
>  <cid> 
14312 
 
>  <dipole> 
3.7 
 
>  <excitation_energy_1> 
3.553 
 
>  <excitation_energy_2> 
3.555 
 
>  <excitation_energy_3> 
3.812 
 
>  <excitation_energy_4> 
4.416 
 
>  <homo_energy> 
-5.246 
 
>  <homo_lumo_gap> 
3.788 
 
>  <logP> 
1.974 
 
>  <lumo_energy> 
-1.459 
 
>  <melting_point> 
104.13 
 
>  <molecular_refractivity> 
47.13 
 
>  <oscillator_strength_1> 
0.0 
 
>  <oscillator_strength_2> 
0.1189 
 
>  <oscillator_strength_3> 
0.0649 
 
>  <oscillator_strength_4> 
0.0138 
 
>  <open_babel_can_smiles> 
[O-][n+]1cccc2c1c(O)ccc2 
 
>  <mulliken_charges> 
19 
1   -0.120718 
2   -0.173537 
3   -0.212358 
4   -0.158779 
5   -0.219973 
6   0.051629 
7   0.117257 
8   0.361534 
9   0.274236 
10   -0.105173 
11   -0.59457 
12   -0.489397 
13   0.13905 
14   0.150502 
15   0.133752 
16   0.140405 
17   0.123712 
18   0.175473 
19   0.406957 
 
>  <lowdin_charges> 
19 
1   -0.137775 
2   -0.15414 
3   -0.179256 
4   -0.172191 
5   -0.222642 
6   -0.141264 
7   0.011067 
8   0.117468 
9   -0.004391 
10   0.216945 
11   -0.333105 
12   -0.35464 
13   0.164053 
14   0.171807 
15   0.159748 
16   0.163136 
17   0.157249 
18   0.183301 
19   0.35463 
 
$$$$ 
 
