PCCDB-ID:  16768 
public computational chemistry database (PCCDB) project, http://pccdb.org 
 
 25 24  0  0  1  0  0  0  0  0999 V2000 
    0.8753   -0.4250   -0.0200 C   0  0  0  0  0  0  0  0  0  0  0  0 
    3.3347    0.7940   -3.6999 C   0  0  0  0  0  0  0  0  0  0  0  0 
    2.3710   -0.0966    0.0424 C   0  0  0  0  0  0  0  0  0  0  0  0 
    2.5927    0.8356   -2.3592 C   0  0  0  0  0  0  0  0  0  0  0  0 
    3.0990   -0.1966   -1.3240 C   0  0  0  0  0  0  0  0  0  0  0  0 
    4.6031   -0.0825   -1.1047 C   0  0  2  0  0  0  0  0  0  0  0  0 
    5.1800   -2.2954   -1.5778 C   0  0  0  0  0  0  0  0  0  0  0  0 
    5.3164   -3.3616   -0.8923 N   0  0  0  0  0  0  0  0  0  0  0  0 
    5.4848   -0.9970   -1.1857 N   0  0  0  0  0  0  0  0  0  0  0  0 
    5.0571    1.1381   -0.7215 O   0  0  0  0  0  0  0  0  0  0  0  0 
    4.7781   -2.3854   -2.8791 O   0  0  0  0  0  0  0  0  0  0  0  0 
    0.4384   -0.4067    0.9843 H   0  0  0  0  0  0  0  0  0  0  0  0 
    0.7089   -1.4255   -0.4368 H   0  0  0  0  0  0  0  0  0  0  0  0 
    0.3183    0.2914   -0.6329 H   0  0  0  0  0  0  0  0  0  0  0  0 
    2.8736    1.4802   -4.4183 H   0  0  0  0  0  0  0  0  0  0  0  0 
    3.3179   -0.2141   -4.1263 H   0  0  0  0  0  0  0  0  0  0  0  0 
    4.3855    1.0825   -3.5870 H   0  0  0  0  0  0  0  0  0  0  0  0 
    2.8582   -0.7852    0.7438 H   0  0  0  0  0  0  0  0  0  0  0  0 
    2.5053    0.9111    0.4624 H   0  0  0  0  0  0  0  0  0  0  0  0 
    1.5261    0.6491   -2.5266 H   0  0  0  0  0  0  0  0  0  0  0  0 
    2.6440    1.8528   -1.9368 H   0  0  0  0  0  0  0  0  0  0  0  0 
    2.9162   -1.1937   -1.7357 H   0  0  0  0  0  0  0  0  0  0  0  0 
    5.6566   -3.1349    0.0425 H   0  0  0  0  0  0  0  0  0  0  0  0 
    4.3132    1.7593   -0.6806 H   0  0  0  0  0  0  0  0  0  0  0  0 
    4.6971   -3.3424   -3.0478 H   0  0  0  0  0  0  0  0  0  0  0  0 
  1  3  1  0  0  0  0 
  1 12  1  0  0  0  0 
  2 17  1  0  0  0  0 
  2  4  1  0  0  0  0 
  3 19  1  0  0  0  0 
  3 18  1  0  0  0  0 
  4 21  1  0  0  0  0 
  4  5  1  0  0  0  0 
  5  6  1  0  0  0  0 
  5  3  1  0  0  0  0 
  6  9  1  1  0  0  0 
  6 10  1  0  0  0  0 
  7  9  2  0  0  0  0 
  7  8  1  0  0  0  0 
  8 23  1  0  0  0  0 
 10 24  1  0  0  0  0 
 11  7  1  0  0  0  0 
 13  1  1  0  0  0  0 
 14  1  1  0  0  0  0 
 15  2  1  0  0  0  0 
 16  2  1  0  0  0  0 
 20  4  1  0  0  0  0 
 22  5  1  0  0  0  0 
 25 11  1  0  0  0  0 
M  RAD  2   6   2   8   2 
M  END 
>  <HBA> 
4 
 
>  <HBD> 
2 
 
>  <TPSA> 
72.19 
 
>  <cid> 
16768 
 
>  <dipole> 
4.61 
 
>  <excitation_energy_1> 
5.307 
 
>  <excitation_energy_2> 
5.95 
 
>  <excitation_energy_3> 
6.096 
 
>  <excitation_energy_4> 
6.236 
 
>  <homo_energy> 
-6.542 
 
>  <homo_lumo_gap> 
6.438 
 
>  <logP> 
1.709 
 
>  <lumo_energy> 
-0.103 
 
>  <melting_point> 
107.32 
 
>  <molecular_refractivity> 
42.06 
 
>  <oscillator_strength_1> 
0.0311 
 
>  <oscillator_strength_2> 
0.0013 
 
>  <oscillator_strength_3> 
0.0915 
 
>  <oscillator_strength_4> 
0.0008 
 
>  <open_babel_can_smiles> 
CCC([C](/N=C(\O)/[NH])O)CC 
 
>  <mulliken_charges> 
25 
1   -0.451267 
2   -0.453358 
3   -0.261111 
4   -0.280029 
5   -0.178756 
6   0.516216 
7   0.554889 
8   -0.626539 
9   -0.450105 
10   -0.579818 
11   -0.581809 
12   0.155005 
13   0.155422 
14   0.151479 
15   0.146092 
16   0.170343 
17   0.1646 
18   0.159475 
19   0.123918 
20   0.155337 
21   0.115772 
22   0.170498 
23   0.292233 
24   0.417255 
25   0.414256 
 
>  <lowdin_charges> 
25 
1   -0.445766 
2   -0.449549 
3   -0.272875 
4   -0.273497 
5   -0.162705 
6   0.164921 
7   0.151744 
8   -0.454855 
9   -0.188496 
10   -0.346752 
11   -0.380762 
12   0.157059 
13   0.153305 
14   0.151735 
15   0.154259 
16   0.161374 
17   0.156464 
18   0.156846 
19   0.134797 
20   0.152654 
21   0.128657 
22   0.167871 
23   0.263477 
24   0.358533 
25   0.361561 
 
$$$$ 
 
