PCCDB-ID:  34327 
public computational chemistry database (PCCDB) project, http://pccdb.org 
 
 28 31  0  0  1  0  0  0  0  0999 V2000 
    1.9918   -2.0339   -0.0928 C   0  0  0  0  0  0  0  0  0  0  0  0 
   -3.2696    2.7275   -0.3899 C   0  0  0  0  0  0  0  0  0  0  0  0 
    2.2836   -0.6546   -0.0190 C   0  0  0  0  0  0  0  0  0  0  0  0 
    0.6860   -2.4720   -0.1104 C   0  0  0  0  0  0  0  0  0  0  0  0 
   -1.8474    3.1526   -0.1424 C   0  0  0  0  0  0  0  0  0  0  0  0 
   -3.5835    1.3871    0.2887 C   0  0  0  0  0  0  0  0  0  0  0  0 
    1.5380    1.7157    0.1170 C   0  0  0  0  0  0  0  0  0  0  0  0 
   -1.7481   -1.9505   -0.0449 C   0  0  0  0  0  0  0  0  0  0  0  0 
    0.5443    2.6312    0.1335 C   0  0  0  0  0  0  0  0  0  0  0  0 
   -2.7623   -1.0186    0.0402 C   0  0  0  0  0  0  0  0  0  0  0  0 
    1.2676    0.2906    0.0217 C   0  0  0  0  0  0  0  0  0  0  0  0 
   -0.3905   -1.5431   -0.0591 C   0  0  0  0  0  0  0  0  0  0  0  0 
   -0.8547    2.2450    0.0340 C   0  0  0  0  0  0  0  0  0  0  0  0 
   -2.4850    0.3637    0.0873 C   0  0  0  0  0  0  0  0  0  0  0  0 
   -0.0972   -0.1458   -0.0090 C   0  0  1  0  0  0  0  0  0  0  0  0 
   -1.1608    0.8010    0.0351 C   0  0  0  0  0  0  0  0  0  0  0  0 
    2.8075   -2.7511   -0.1285 H   0  0  0  0  0  0  0  0  0  0  0  0 
   -3.4302    2.6440   -1.4797 H   0  0  0  0  0  0  0  0  0  0  0  0 
   -3.9718    3.4947   -0.0425 H   0  0  0  0  0  0  0  0  0  0  0  0 
    3.3195   -0.3246    0.0092 H   0  0  0  0  0  0  0  0  0  0  0  0 
    0.4598   -3.5345   -0.1576 H   0  0  0  0  0  0  0  0  0  0  0  0 
   -1.6031    4.2116   -0.1989 H   0  0  0  0  0  0  0  0  0  0  0  0 
   -3.6950    1.5594    1.3719 H   0  0  0  0  0  0  0  0  0  0  0  0 
   -4.5454    0.9954   -0.0617 H   0  0  0  0  0  0  0  0  0  0  0  0 
    2.5775    2.0318    0.1660 H   0  0  0  0  0  0  0  0  0  0  0  0 
   -1.9805   -3.0118   -0.0906 H   0  0  0  0  0  0  0  0  0  0  0  0 
    0.7738    3.6930    0.1868 H   0  0  0  0  0  0  0  0  0  0  0  0 
   -3.7984   -1.3489    0.0727 H   0  0  0  0  0  0  0  0  0  0  0  0 
  1  3  1  0  0  0  0 
  2  5  1  0  0  0  0 
  2 19  1  0  0  0  0 
  2  6  1  0  0  0  0 
  3 20  1  0  0  0  0 
  3 11  2  0  0  0  0 
  4  1  2  0  0  0  0 
  4 12  1  0  0  0  0 
  5 13  1  0  0  0  0 
  6 23  1  0  0  0  0 
  7  9  2  0  0  0  0 
  7 25  1  0  0  0  0 
  8 10  1  0  0  0  0 
  9 27  1  0  0  0  0 
 10 28  1  0  0  0  0 
 10 14  2  0  0  0  0 
 11  7  1  0  0  0  0 
 12  8  2  0  0  0  0 
 13 16  2  0  0  0  0 
 13  9  1  0  0  0  0 
 14  6  1  0  0  0  0 
 15 12  1  1  0  0  0 
 15 11  1  0  0  0  0 
 15 16  1  0  0  0  0 
 16 14  1  0  0  0  0 
 17  1  1  0  0  0  0 
 18  2  1  0  0  0  0 
 21  4  1  0  0  0  0 
 22  5  1  0  0  0  0 
 24  6  1  0  0  0  0 
 26  8  1  0  0  0  0 
M  RAD  2   5   2  15   2 
M  END 
>  <HBA> 
0 
 
>  <HBD> 
0 
 
>  <TPSA> 
0.0 
 
>  <cid> 
34327 
 
>  <dipole> 
0.73 
 
>  <excitation_energy_1> 
2.97 
 
>  <excitation_energy_2> 
3.742 
 
>  <excitation_energy_3> 
4.066 
 
>  <excitation_energy_4> 
4.339 
 
>  <homo_energy> 
-4.849 
 
>  <homo_lumo_gap> 
3.186 
 
>  <logP> 
3.439 
 
>  <lumo_energy> 
-1.663 
 
>  <melting_point> 
127.56 
 
>  <molecular_refractivity> 
69.85 
 
>  <oscillator_strength_1> 
0.2013 
 
>  <oscillator_strength_2> 
0.0044 
 
>  <oscillator_strength_3> 
0.0087 
 
>  <oscillator_strength_4> 
0.0491 
 
>  <open_babel_can_smiles> 
C1=CC2=CC=C3C4=C(C=CC(=C1)[C]24)[CH]CC3 
 
>  <mulliken_charges> 
28 
1   -0.124598 
2   -0.296828 
3   -0.237045 
4   -0.20688 
5   -0.238897 
6   -0.348713 
7   -0.187134 
8   -0.200837 
9   -0.187045 
10   -0.195948 
11   0.160448 
12   0.154053 
13   0.194792 
14   0.097681 
15   0.004028 
16   0.00146 
17   0.128012 
18   0.154188 
19   0.144392 
20   0.126405 
21   0.127077 
22   0.127777 
23   0.157209 
24   0.142672 
25   0.127875 
26   0.127297 
27   0.127031 
28   0.121525 
 
>  <lowdin_charges> 
28 
1   -0.159713 
2   -0.270602 
3   -0.165357 
4   -0.158141 
5   -0.168411 
6   -0.268381 
7   -0.159722 
8   -0.155578 
9   -0.151879 
10   -0.163662 
11   -0.0012 
12   -0.001081 
13   -0.011778 
14   -0.005975 
15   -0.001444 
16   -0.01308 
17   0.159072 
18   0.15048 
19   0.154558 
20   0.155333 
21   0.155497 
22   0.153312 
23   0.15266 
24   0.151745 
25   0.156736 
26   0.15571 
27   0.156533 
28   0.154367 
 
$$$$ 
 
