PCCDB-ID:  30399 
public computational chemistry database (PCCDB) project, http://pccdb.org 
 
 23 24  0  0  0  0  0  0  0  0999 V2000 
   -1.6188   -0.6076    0.2389 C   0  0  0  0  0  0  0  0  0  0  0  0 
   -0.9917    0.3438   -0.5694 C   0  0  0  0  0  0  0  0  0  0  0  0 
   -0.8358   -1.4721    1.0071 C   0  0  0  0  0  0  0  0  0  0  0  0 
    0.3979    0.4313   -0.6069 C   0  0  0  0  0  0  0  0  0  0  0  0 
    0.5555   -1.4044    0.9574 C   0  0  0  0  0  0  0  0  0  0  0  0 
    1.1947   -0.4549    0.1392 C   0  0  0  0  0  0  0  0  0  0  0  0 
    3.4152   -1.2220   -0.0693 C   0  0  0  0  0  0  0  0  0  0  0  0 
    5.6358   -1.8362   -0.2149 C   0  0  0  0  0  0  0  0  0  0  0  0 
    3.9556   -3.4249   -0.5281 C   0  0  0  0  0  0  0  0  0  0  0  0 
    2.5835   -0.2657    0.1061 N   0  0  0  0  0  0  0  0  0  0  0  0 
    4.7899   -0.9000   -0.0192 N   0  0  0  0  0  0  0  0  0  0  0  0 
    3.0338   -2.5596   -0.3371 N   0  0  0  0  0  0  0  0  0  0  0  0 
    5.3036   -3.1506   -0.4769 N   0  0  0  0  0  0  0  0  0  0  0  0 
    6.9626   -1.6407   -0.1857 O   0  0  0  0  0  0  0  0  0  0  0  0 
    3.7016   -4.7121   -0.8051 O   0  0  0  0  0  0  0  0  0  0  0  0 
   -2.7031   -0.6666    0.2789 H   0  0  0  0  0  0  0  0  0  0  0  0 
   -1.5881    1.0309   -1.1648 H   0  0  0  0  0  0  0  0  0  0  0  0 
   -1.3116   -2.2075    1.6519 H   0  0  0  0  0  0  0  0  0  0  0  0 
    0.8938    1.1816   -1.2156 H   0  0  0  0  0  0  0  0  0  0  0  0 
    1.1572   -2.0769    1.5598 H   0  0  0  0  0  0  0  0  0  0  0  0 
    6.0044   -3.8627   -0.6313 H   0  0  0  0  0  0  0  0  0  0  0  0 
    7.0860   -0.6921    0.0044 H   0  0  0  0  0  0  0  0  0  0  0  0 
    2.7299   -4.7936   -0.8235 H   0  0  0  0  0  0  0  0  0  0  0  0 
  1 16  1  0  0  0  0 
  1  3  2  0  0  0  0 
  2  1  1  0  0  0  0 
  3 18  1  0  0  0  0 
  4  2  2  0  0  0  0 
  4  6  1  0  0  0  0 
  5  3  1  0  0  0  0 
  5 20  1  0  0  0  0 
  6  5  2  0  0  0  0 
  7 11  2  0  0  0  0 
  7 10  1  0  0  0  0 
  8 14  1  0  0  0  0 
  8 11  2  0  0  0  0 
  9 13  1  0  0  0  0 
  9 12  2  0  0  0  0 
 10  6  1  0  0  0  0 
 12  7  2  0  0  0  0 
 13  8  1  0  0  0  0 
 14 22  1  0  0  0  0 
 15  9  1  0  0  0  0 
 17  2  1  0  0  0  0 
 19  4  1  0  0  0  0 
 21 13  1  0  0  0  0 
 23 15  1  0  0  0  0 
M  RAD  1  10   2 
M  END 
>  <HBA> 
3 
 
>  <HBD> 
3 
 
>  <TPSA> 
90.64 
 
>  <cid> 
30399 
 
>  <dipole> 
5.46 
 
>  <excitation_energy_1> 
4.037 
 
>  <excitation_energy_2> 
4.111 
 
>  <excitation_energy_3> 
4.4 
 
>  <excitation_energy_4> 
4.744 
 
>  <homo_energy> 
-5.282 
 
>  <homo_lumo_gap> 
4.795 
 
>  <logP> 
0.275 
 
>  <lumo_energy> 
-0.487 
 
>  <melting_point> 
258.38 
 
>  <molecular_refractivity> 
55.02 
 
>  <oscillator_strength_1> 
0.1273 
 
>  <oscillator_strength_2> 
0.1181 
 
>  <oscillator_strength_3> 
0.0009 
 
>  <oscillator_strength_4> 
0.0012 
 
>  <open_babel_can_smiles> 
OC1=[N]=[C](=[N]=C(N1)O)[N]c1ccccc1 
 
>  <mulliken_charges> 
23 
1   -0.132583 
2   -0.13786 
3   -0.145036 
4   -0.153498 
5   -0.134329 
6   0.269206 
7   0.554827 
8   0.719675 
9   0.717744 
10   -0.537931 
11   -0.49324 
12   -0.50344 
13   -0.659838 
14   -0.603864 
15   -0.601248 
16   0.116879 
17   0.120377 
18   0.11701 
19   0.126265 
20   0.117325 
21   0.369184 
22   0.436729 
23   0.437645 
 
>  <lowdin_charges> 
23 
1   -0.174117 
2   -0.159513 
3   -0.161319 
4   -0.17186 
5   -0.177682 
6   0.053117 
7   0.12702 
8   0.180052 
9   0.184142 
10   -0.178181 
11   -0.21813 
12   -0.239456 
13   -0.234757 
14   -0.342935 
15   -0.340195 
16   0.150085 
17   0.154749 
18   0.152513 
19   0.161165 
20   0.156605 
21   0.319549 
22   0.379625 
23   0.379523 
 
$$$$ 
 
