PCCDB-ID:  14536 
public computational chemistry database (PCCDB) project, http://pccdb.org 
 
 23 24  0  0  0  0  0  0  0  0999 V2000 
    0.8854   -0.0315   -0.0183 C   0  0  0  0  0  0  0  0  0  0  0  0 
    5.3004   -2.4744   -0.2110 C   0  0  0  0  0  0  0  0  0  0  0  0 
    3.2798    3.6400   -0.0990 C   0  0  0  0  0  0  0  0  0  0  0  0 
    4.6904    3.5575   -0.1580 C   0  0  0  0  0  0  0  0  0  0  0  0 
    2.5153    2.4926   -0.0731 C   0  0  0  0  0  0  0  0  0  0  0  0 
    5.3123    2.3288   -0.1898 C   0  0  0  0  0  0  0  0  0  0  0  0 
    3.1127   -1.1892   -0.1161 C   0  0  0  0  0  0  0  0  0  0  0  0 
    2.3918   -0.0181   -0.0809 C   0  0  0  0  0  0  0  0  0  0  0  0 
    4.5362   -1.1735   -0.1745 C   0  0  0  0  0  0  0  0  0  0  0  0 
    3.1254    1.2115   -0.1050 C   0  0  0  0  0  0  0  0  0  0  0  0 
    4.5526    1.1306   -0.1651 C   0  0  0  0  0  0  0  0  0  0  0  0 
    5.2341   -0.0548   -0.1978 N   0  0  0  0  0  0  0  0  0  0  0  0 
    0.5043   -1.0566   -0.0068 H   0  0  0  0  0  0  0  0  0  0  0  0 
    0.4434    0.4834   -0.8803 H   0  0  0  0  0  0  0  0  0  0  0  0 
    0.5170    0.4759    0.8818 H   0  0  0  0  0  0  0  0  0  0  0  0 
    5.0201   -3.0744   -1.0862 H   0  0  0  0  0  0  0  0  0  0  0  0 
    5.0885   -3.0833    0.6772 H   0  0  0  0  0  0  0  0  0  0  0  0 
    6.3724   -2.2710   -0.2516 H   0  0  0  0  0  0  0  0  0  0  0  0 
    2.7976    4.6135   -0.0727 H   0  0  0  0  0  0  0  0  0  0  0  0 
    5.2820    4.4688   -0.1776 H   0  0  0  0  0  0  0  0  0  0  0  0 
    1.4330    2.5685   -0.0275 H   0  0  0  0  0  0  0  0  0  0  0  0 
    6.3928    2.2340   -0.2358 H   0  0  0  0  0  0  0  0  0  0  0  0 
    2.5956   -2.1459   -0.1002 H   0  0  0  0  0  0  0  0  0  0  0  0 
  1 13  1  0  0  0  0 
  1 15  1  0  0  0  0 
  2  9  1  0  0  0  0 
  2 17  1  0  0  0  0 
  3  5  1  0  0  0  0 
  3 19  1  0  0  0  0 
  4  3  2  0  0  0  0 
  5 21  1  0  0  0  0 
  6 11  2  0  0  0  0 
  6  4  1  0  0  0  0 
  7 23  1  0  0  0  0 
  7  8  2  0  0  0  0 
  8  1  1  0  0  0  0 
  9  7  1  0  0  0  0 
 10  8  1  0  0  0  0 
 10  5  2  0  0  0  0 
 11 10  1  0  0  0  0 
 12  9  2  0  0  0  0 
 12 11  1  0  0  0  0 
 14  1  1  0  0  0  0 
 16  2  1  0  0  0  0 
 18  2  1  0  0  0  0 
 20  4  1  0  0  0  0 
 22  6  1  0  0  0  0 
M  END 
>  <HBA> 
1 
 
>  <HBD> 
0 
 
>  <TPSA> 
12.89 
 
>  <cid> 
14536 
 
>  <dipole> 
2.15 
 
>  <excitation_energy_1> 
4.361 
 
>  <excitation_energy_2> 
4.397 
 
>  <excitation_energy_3> 
4.471 
 
>  <excitation_energy_4> 
5.174 
 
>  <homo_energy> 
-6.093 
 
>  <homo_lumo_gap> 
4.917 
 
>  <logP> 
2.852 
 
>  <lumo_energy> 
-1.176 
 
>  <melting_point> 
72.83 
 
>  <molecular_refractivity> 
51.67 
 
>  <oscillator_strength_1> 
0.0012 
 
>  <oscillator_strength_2> 
0.0499 
 
>  <oscillator_strength_3> 
0.0338 
 
>  <oscillator_strength_4> 
0.0 
 
>  <open_babel_can_smiles> 
Cc1cc(C)c2c(n1)cccc2 
 
>  <mulliken_charges> 
23 
1   -0.536041 
2   -0.52361 
3   -0.130974 
4   -0.136481 
5   -0.20343 
6   -0.147102 
7   -0.244983 
8   0.171039 
9   0.324477 
10   0.101679 
11   0.234975 
12   -0.556844 
13   0.160831 
14   0.16925 
15   0.169248 
16   0.159341 
17   0.15928 
18   0.176716 
19   0.129992 
20   0.131952 
21   0.128145 
22   0.141081 
23   0.121459 
 
>  <lowdin_charges> 
23 
1   -0.44399 
2   -0.448426 
3   -0.15766 
4   -0.155174 
5   -0.160393 
6   -0.150034 
7   -0.199828 
8   0.026776 
9   0.059982 
10   -0.028438 
11   0.043592 
12   -0.167655 
13   0.16008 
14   0.165541 
15   0.16526 
16   0.161575 
17   0.161406 
18   0.169139 
19   0.158189 
20   0.160004 
21   0.156656 
22   0.166228 
23   0.157172 
 
$$$$ 
 
