PCCDB-ID:  21962 
public computational chemistry database (PCCDB) project, http://pccdb.org 
 
 28 28  0  0  0  0  0  0  0  0999 V2000 
    3.7207    3.1092   -0.6221 C   0  0  0  0  0  0  0  0  0  0  0  0 
    7.6621    2.0554    7.2513 C   0  0  0  0  0  0  0  0  0  0  0  0 
    3.6487    1.7460    0.0766 C   0  0  0  0  0  0  0  0  0  0  0  0 
    4.6159    1.5817    1.2616 C   0  0  0  0  0  0  0  0  0  0  0  0 
    4.2877    2.4840    2.4567 C   0  0  0  0  0  0  0  0  0  0  0  0 
    7.0554    1.3407    4.8943 C   0  0  0  0  0  0  0  0  0  0  0  0 
    6.2615    1.4457    3.7479 C   0  0  0  0  0  0  0  0  0  0  0  0 
    5.7168    3.0227    5.9553 C   0  0  0  0  0  0  0  0  0  0  0  0 
    6.7963    2.1315    6.0153 C   0  0  0  0  0  0  0  0  0  0  0  0 
    5.1845    2.3304    3.6705 C   0  0  0  0  0  0  0  0  0  0  0  0 
    4.9305    3.1212    4.8083 C   0  0  0  0  0  0  0  0  0  0  0  0 
    3.8697    3.9899    4.7306 O   0  0  0  0  0  0  0  0  0  0  0  0 
    3.0484    3.1433   -1.4871 H   0  0  0  0  0  0  0  0  0  0  0  0 
    4.7368    3.3137   -0.9827 H   0  0  0  0  0  0  0  0  0  0  0  0 
    3.4357    3.9288    0.0468 H   0  0  0  0  0  0  0  0  0  0  0  0 
    8.1976    1.1019    7.3040 H   0  0  0  0  0  0  0  0  0  0  0  0 
    7.0688    2.1601    8.1670 H   0  0  0  0  0  0  0  0  0  0  0  0 
    8.4157    2.8545    7.2618 H   0  0  0  0  0  0  0  0  0  0  0  0 
    3.8648    0.9594   -0.6587 H   0  0  0  0  0  0  0  0  0  0  0  0 
    2.6207    1.5648    0.4216 H   0  0  0  0  0  0  0  0  0  0  0  0 
    5.6414    1.7778    0.9166 H   0  0  0  0  0  0  0  0  0  0  0  0 
    4.5953    0.5323    1.5856 H   0  0  0  0  0  0  0  0  0  0  0  0 
    3.2472    2.3051    2.7658 H   0  0  0  0  0  0  0  0  0  0  0  0 
    4.3073    3.5375    2.1469 H   0  0  0  0  0  0  0  0  0  0  0  0 
    7.8830    0.6360    4.9114 H   0  0  0  0  0  0  0  0  0  0  0  0 
    6.4918    0.8146    2.8951 H   0  0  0  0  0  0  0  0  0  0  0  0 
    5.4852    3.6505    6.8162 H   0  0  0  0  0  0  0  0  0  0  0  0 
    3.7970    4.4662    5.5721 H   0  0  0  0  0  0  0  0  0  0  0  0 
  1 15  1  0  0  0  0 
  1  3  1  0  0  0  0 
  2 18  1  0  0  0  0 
  2 16  1  0  0  0  0 
  2 17  1  0  0  0  0 
  3 20  1  0  0  0  0 
  3  4  1  0  0  0  0 
  4 22  1  0  0  0  0 
  4  5  1  0  0  0  0 
  5 23  1  0  0  0  0 
  5 10  1  0  0  0  0 
  6 25  1  0  0  0  0 
  6  9  2  0  0  0  0 
  7  6  1  0  0  0  0 
  8  9  1  0  0  0  0 
  8 27  1  0  0  0  0 
  9  2  1  0  0  0  0 
 10  7  2  0  0  0  0 
 10 11  1  0  0  0  0 
 11  8  2  0  0  0  0 
 12 11  1  0  0  0  0 
 12 28  1  0  0  0  0 
 13  1  1  0  0  0  0 
 14  1  1  0  0  0  0 
 19  3  1  0  0  0  0 
 21  4  1  0  0  0  0 
 24  5  1  0  0  0  0 
 26  7  1  0  0  0  0 
M  END 
>  <HBA> 
1 
 
>  <HBD> 
1 
 
>  <TPSA> 
20.23 
 
>  <cid> 
21962 
 
>  <dipole> 
1.26 
 
>  <excitation_energy_1> 
4.965 
 
>  <excitation_energy_2> 
5.015 
 
>  <excitation_energy_3> 
5.619 
 
>  <excitation_energy_4> 
5.657 
 
>  <homo_energy> 
-5.679 
 
>  <homo_lumo_gap> 
5.935 
 
>  <logP> 
3.043 
 
>  <lumo_energy> 
0.256 
 
>  <melting_point> 
50.97 
 
>  <molecular_refractivity> 
52.82 
 
>  <oscillator_strength_1> 
0.0544 
 
>  <oscillator_strength_2> 
0.0004 
 
>  <oscillator_strength_3> 
0.0024 
 
>  <oscillator_strength_4> 
0.0259 
 
>  <open_babel_can_smiles> 
CCCCc1ccc(cc1O)C 
 
>  <mulliken_charges> 
28 
1   -0.445191 
2   -0.53112 
3   -0.248251 
4   -0.263667 
5   -0.322184 
6   -0.191841 
7   -0.198197 
8   -0.248093 
9   0.178625 
10   0.126305 
11   0.300223 
12   -0.64835 
13   0.141288 
14   0.140867 
15   0.149679 
16   0.156394 
17   0.153733 
18   0.163242 
19   0.129794 
20   0.130814 
21   0.132607 
22   0.134171 
23   0.151748 
24   0.157368 
25   0.114156 
26   0.125595 
27   0.104222 
28   0.406061 
 
>  <lowdin_charges> 
28 
1   -0.448087 
2   -0.441845 
3   -0.271654 
4   -0.274838 
5   -0.269046 
6   -0.191463 
7   -0.161364 
8   -0.227073 
9   0.005972 
10   -0.036086 
11   0.097219 
12   -0.38406 
13   0.149757 
14   0.145217 
15   0.149275 
16   0.157673 
17   0.15622 
18   0.160783 
19   0.142383 
20   0.138424 
21   0.138523 
22   0.141092 
23   0.153127 
24   0.154933 
25   0.152283 
26   0.158875 
27   0.147643 
28   0.356115 
 
$$$$ 
 
