PCCDB-ID:  41569 
public computational chemistry database (PCCDB) project, http://pccdb.org 
 
 16 16  0  0  0  0  0  0  0  0999 V2000 
    0.9634   -0.0300    0.0715 C   0  0  0  0  0  0  0  0  0  0  0  0 
    5.5595   -1.6239    0.0511 C   0  0  0  0  0  0  0  0  0  0  0  0 
    3.2290    1.2900    0.0839 C   0  0  0  0  0  0  0  0  0  0  0  0 
    2.4361    0.1859    0.0744 C   0  0  0  0  0  0  0  0  0  0  0  0 
    4.5325   -0.5489    0.0561 C   0  0  0  0  0  0  0  0  0  0  0  0 
    4.5902    0.8190    0.0653 C   0  0  0  0  0  0  0  0  0  0  0  0 
    3.2225   -0.9428    0.0623 O   0  0  0  0  0  0  0  0  0  0  0  0 
    6.0711    1.7960    0.1567 S   0  0  0  0  0  0  0  0  0  0  0  0 
    0.4474    0.9326    0.1260 H   0  0  0  0  0  0  0  0  0  0  0  0 
    0.6452   -0.6384    0.9270 H   0  0  0  0  0  0  0  0  0  0  0  0 
    0.6315   -0.5448   -0.8391 H   0  0  0  0  0  0  0  0  0  0  0  0 
    6.5545   -1.1781   -0.0192 H   0  0  0  0  0  0  0  0  0  0  0  0 
    5.4180   -2.3027   -0.7988 H   0  0  0  0  0  0  0  0  0  0  0  0 
    5.5148   -2.2283    0.9658 H   0  0  0  0  0  0  0  0  0  0  0  0 
    2.9048    2.3210    0.1035 H   0  0  0  0  0  0  0  0  0  0  0  0 
    6.0804    2.2575   -1.1165 H   0  0  0  0  0  0  0  0  0  0  0  0 
  1  4  1  0  0  0  0 
  1  9  1  0  0  0  0 
  1 10  1  0  0  0  0 
  2  5  1  0  0  0  0 
  2 14  1  0  0  0  0 
  3 15  1  0  0  0  0 
  4  3  2  0  0  0  0 
  5  7  1  0  0  0  0 
  5  6  2  0  0  0  0 
  6  3  1  0  0  0  0 
  6  8  1  0  0  0  0 
  7  4  1  0  0  0  0 
 11  1  1  0  0  0  0 
 12  2  1  0  0  0  0 
 13  2  1  0  0  0  0 
 16  8  1  0  0  0  0 
M  END 
>  <HBA> 
2 
 
>  <HBD> 
1 
 
>  <TPSA> 
51.94 
 
>  <cid> 
41569 
 
>  <dipole> 
1.58 
 
>  <excitation_energy_1> 
5.006 
 
>  <excitation_energy_2> 
5.437 
 
>  <excitation_energy_3> 
5.564 
 
>  <excitation_energy_4> 
5.722 
 
>  <homo_energy> 
-5.777 
 
>  <homo_lumo_gap> 
6.085 
 
>  <logP> 
2.185 
 
>  <lumo_energy> 
0.307 
 
>  <melting_point> 
36.99 
 
>  <molecular_refractivity> 
35.89 
 
>  <oscillator_strength_1> 
0.0171 
 
>  <oscillator_strength_2> 
0.0006 
 
>  <oscillator_strength_3> 
0.0063 
 
>  <oscillator_strength_4> 
0.0775 
 
>  <open_babel_can_smiles> 
Cc1oc(c(c1)S)C 
 
>  <mulliken_charges> 
16 
1   -0.529547 
2   -0.532851 
3   -0.20864 
4   0.357217 
5   0.353767 
6   -0.181565 
7   -0.465833 
8   -0.073051 
9   0.167272 
10   0.171522 
11   0.170451 
12   0.188367 
13   0.168921 
14   0.171052 
15   0.142821 
16   0.100097 
 
>  <lowdin_charges> 
16 
1   -0.441288 
2   -0.443455 
3   -0.219328 
4   0.071817 
5   0.07532 
6   -0.199308 
7   -0.113378 
8   -0.031319 
9   0.168935 
10   0.167749 
11   0.166464 
12   0.179091 
13   0.167461 
14   0.167378 
15   0.170051 
16   0.113809 
 
$$$$ 
 
