PCCDB-ID:  32104 
public computational chemistry database (PCCDB) project, http://pccdb.org 
 
 32 33  0  0  1  0  0  0  0  0999 V2000 
    1.0695    0.1815    0.1546 C   0  0  0  0  0  0  0  0  0  0  0  0 
    1.6274   -3.4796   -3.1327 C   0  0  0  0  0  0  0  0  0  0  0  0 
    6.5363   -2.4794   -1.0725 C   0  0  0  0  0  0  0  0  0  0  0  0 
    5.1556   -2.4288   -0.9040 C   0  0  0  0  0  0  0  0  0  0  0  0 
    6.6334   -0.0763   -0.8397 C   0  0  0  0  0  0  0  0  0  0  0  0 
    3.0940    1.2509   -0.7565 C   0  0  0  0  0  0  0  0  0  0  0  0 
    7.2814   -1.2949   -1.0428 C   0  0  0  0  0  0  0  0  0  0  0  0 
    4.4952   -1.2110   -0.7028 C   0  0  0  0  0  0  0  0  0  0  0  0 
    5.2484   -0.0251   -0.6730 C   0  0  0  0  0  0  0  0  0  0  0  0 
    4.5750    1.3089   -0.3892 C   0  0  2  0  0  0  0  0  0  0  0  0 
    2.9765   -1.1838   -0.5275 C   0  0  2  0  0  0  0  0  0  0  0  0 
    2.3132   -1.6148   -1.8566 C   0  0  0  0  0  0  0  0  0  0  0  0 
    2.5135    0.1087   -0.0362 N   0  0  0  0  0  0  0  0  0  0  0  0 
    8.6391   -1.2716   -1.2049 O   0  0  0  0  0  0  0  0  0  0  0  0 
    4.7240    1.6650    0.9865 O   0  0  0  0  0  0  0  0  0  0  0  0 
    1.9517   -0.8759   -2.7464 O   0  0  0  0  0  0  0  0  0  0  0  0 
    2.1808   -2.9609   -1.9094 O   0  0  0  0  0  0  0  0  0  0  0  0 
    0.8252    1.1118    0.6776 H   0  0  0  0  0  0  0  0  0  0  0  0 
    0.7443   -0.6551    0.7847 H   0  0  0  0  0  0  0  0  0  0  0  0 
    0.4968    0.1530   -0.7862 H   0  0  0  0  0  0  0  0  0  0  0  0 
    1.6019   -4.5622   -3.0067 H   0  0  0  0  0  0  0  0  0  0  0  0 
    2.2555   -3.2042   -3.9839 H   0  0  0  0  0  0  0  0  0  0  0  0 
    0.6203   -3.0861   -3.2920 H   0  0  0  0  0  0  0  0  0  0  0  0 
    7.0334   -3.4358   -1.2249 H   0  0  0  0  0  0  0  0  0  0  0  0 
    4.5824   -3.3511   -0.9313 H   0  0  0  0  0  0  0  0  0  0  0  0 
    7.2241    0.8344   -0.8051 H   0  0  0  0  0  0  0  0  0  0  0  0 
    2.9425    1.1922   -1.8434 H   0  0  0  0  0  0  0  0  0  0  0  0 
    2.6119    2.1628   -0.3902 H   0  0  0  0  0  0  0  0  0  0  0  0 
    5.0738    2.1036   -0.9536 H   0  0  0  0  0  0  0  0  0  0  0  0 
    2.6956   -1.9425    0.2138 H   0  0  0  0  0  0  0  0  0  0  0  0 
    8.9570   -2.1790   -1.3315 H   0  0  0  0  0  0  0  0  0  0  0  0 
    4.1322    1.0507    1.4581 H   0  0  0  0  0  0  0  0  0  0  0  0 
  1 18  1  0  0  0  0 
  1 19  1  0  0  0  0 
  2 21  1  0  0  0  0 
  2 17  1  0  0  0  0 
  3  7  2  0  0  0  0 
  3  4  1  0  0  0  0 
  4  8  2  0  0  0  0 
  5 26  1  0  0  0  0 
  5  9  2  0  0  0  0 
  6 28  1  0  0  0  0 
  6 10  1  0  0  0  0 
  6 13  1  0  0  0  0 
  7  5  1  0  0  0  0 
  8  9  1  0  0  0  0 
  8 11  1  0  0  0  0 
  9 10  1  0  0  0  0 
 10 29  1  6  0  0  0 
 10 15  1  0  0  0  0 
 11 13  1  0  0  0  0 
 11 30  1  1  0  0  0 
 12 11  1  0  0  0  0 
 13  1  1  0  0  0  0 
 14  7  1  0  0  0  0 
 15 32  1  0  0  0  0 
 16 12  2  0  0  0  0 
 17 12  1  0  0  0  0 
 20  1  1  0  0  0  0 
 22  2  1  0  0  0  0 
 23  2  1  0  0  0  0 
 24  3  1  0  0  0  0 
 25  4  1  0  0  0  0 
 27  6  1  0  0  0  0 
 31 14  1  0  0  0  0 
M  END 
>  <HBA> 
5 
 
>  <HBD> 
2 
 
>  <TPSA> 
70.0 
 
>  <cid> 
32104 
 
>  <dipole> 
4.25 
 
>  <excitation_energy_1> 
4.562 
 
>  <excitation_energy_2> 
4.761 
 
>  <excitation_energy_3> 
4.969 
 
>  <excitation_energy_4> 
5.108 
 
>  <homo_energy> 
-5.81 
 
>  <homo_lumo_gap> 
5.581 
 
>  <logP> 
0.523 
 
>  <lumo_energy> 
-0.229 
 
>  <melting_point> 
106.58 
 
>  <molecular_refractivity> 
64.77 
 
>  <oscillator_strength_1> 
0.0207 
 
>  <oscillator_strength_2> 
0.0111 
 
>  <oscillator_strength_3> 
0.0133 
 
>  <oscillator_strength_4> 
0.0454 
 
>  <open_babel_can_smiles> 
COC(=O)[C@@H]1N(C)C[C@H](c2c1ccc(c2)O)O 
 
>  <mulliken_charges> 
32 
1   -0.309149 
2   -0.221648 
3   -0.195071 
4   -0.182928 
5   -0.218474 
6   -0.167066 
7   0.358459 
8   0.081963 
9   0.109943 
10   0.055494 
11   -0.107723 
12   0.625912 
13   -0.420625 
14   -0.642921 
15   -0.624467 
16   -0.478487 
17   -0.451198 
18   0.156237 
19   0.147277 
20   0.15132 
21   0.165718 
22   0.174556 
23   0.173031 
24   0.118883 
25   0.141335 
26   0.145071 
27   0.164815 
28   0.147287 
29   0.137805 
30   0.167611 
31   0.40708 
32   0.38996 
 
>  <lowdin_charges> 
32 
1   -0.36129 
2   -0.277351 
3   -0.212863 
4   -0.15326 
5   -0.181235 
6   -0.219768 
7   0.106246 
8   -0.037209 
9   -0.012314 
10   -0.006302 
11   -0.085626 
12   0.189395 
13   -0.180008 
14   -0.376837 
15   -0.464729 
16   -0.260556 
17   -0.195903 
18   0.155273 
19   0.149649 
20   0.139492 
21   0.159243 
22   0.162412 
23   0.160204 
24   0.15386 
25   0.16374 
26   0.171427 
27   0.147458 
28   0.15448 
29   0.151687 
30   0.166169 
31   0.356291 
32   0.338222 
 
$$$$ 
 
