PCCDB-ID:  29835 
public computational chemistry database (PCCDB) project, http://pccdb.org 
 
 28 30  0  0  1  0  0  0  0  0999 V2000 
    2.3700    0.1923   -0.6804 C   0  0  0  0  0  0  0  0  0  0  0  0 
    2.1342    1.5558   -0.4068 C   0  0  0  0  0  0  0  0  0  0  0  0 
    1.3460   -0.7434   -0.6065 C   0  0  0  0  0  0  0  0  0  0  0  0 
    0.8702    2.0133   -0.0527 C   0  0  0  0  0  0  0  0  0  0  0  0 
    0.5707   -4.9065    1.5183 C   0  0  0  0  0  0  0  0  0  0  0  0 
    0.2076   -3.9262    2.6663 C   0  0  0  0  0  0  0  0  0  0  0  0 
   -1.4844   -2.4483   -0.2925 C   0  0  0  0  0  0  0  0  0  0  0  0 
   -2.1195   -0.0147    0.2685 C   0  0  0  0  0  0  0  0  0  0  0  0 
   -1.2132   -0.9808   -0.0918 C   0  0  0  0  0  0  0  0  0  0  0  0 
    0.0555   -0.3096   -0.2534 C   0  0  0  0  0  0  0  0  0  0  0  0 
   -0.1596    1.0689    0.0191 C   0  0  0  0  0  0  0  0  0  0  0  0 
   -0.7140   -3.3322    0.6576 C   0  0  3  0  0  0  0  0  0  0  0  0 
    0.0660   -4.2801    0.2816 N   0  0  0  0  0  0  0  0  0  0  0  0 
   -0.8790   -3.1625    2.0341 N   0  0  0  0  0  0  0  0  0  0  0  0 
   -1.4951    1.2177    0.3383 N   0  0  0  0  0  0  0  0  0  0  0  0 
    3.3718   -0.1281   -0.9532 H   0  0  0  0  0  0  0  0  0  0  0  0 
    2.9565    2.2631   -0.4728 H   0  0  0  0  0  0  0  0  0  0  0  0 
    1.5327   -1.7946   -0.8082 H   0  0  0  0  0  0  0  0  0  0  0  0 
    0.6905    3.0644    0.1585 H   0  0  0  0  0  0  0  0  0  0  0  0 
    0.0730   -5.8769    1.6553 H   0  0  0  0  0  0  0  0  0  0  0  0 
    1.6460   -5.0994    1.4462 H   0  0  0  0  0  0  0  0  0  0  0  0 
    1.0563   -3.2756    2.9255 H   0  0  0  0  0  0  0  0  0  0  0  0 
   -0.1314   -4.4310    3.5761 H   0  0  0  0  0  0  0  0  0  0  0  0 
   -1.2196   -2.7660   -1.3065 H   0  0  0  0  0  0  0  0  0  0  0  0 
   -2.5569   -2.6416   -0.1581 H   0  0  0  0  0  0  0  0  0  0  0  0 
   -3.1787   -0.1059    0.4701 H   0  0  0  0  0  0  0  0  0  0  0  0 
   -1.0277   -2.2092    2.3471 H   0  0  0  0  0  0  0  0  0  0  0  0 
   -1.9502    2.0889    0.5604 H   0  0  0  0  0  0  0  0  0  0  0  0 
  1  3  2  0  0  0  0 
  1  2  1  0  0  0  0 
  2  4  2  0  0  0  0 
  3 10  1  0  0  0  0 
  4 11  1  0  0  0  0 
  4 19  1  0  0  0  0 
  5 20  1  0  0  0  0 
  5  6  1  0  0  0  0 
  6 22  1  0  0  0  0 
  6 23  1  0  0  0  0 
  7 25  1  0  0  0  0 
  7  9  1  0  0  0  0 
  7 12  1  0  0  0  0 
  8 15  1  0  0  0  0 
  8 26  1  0  0  0  0 
  9  8  2  0  0  0  0 
 10  9  1  0  0  0  0 
 10 11  2  0  0  0  0 
 11 15  1  0  0  0  0 
 12 14  1  0  0  0  0 
 13 12  1  0  0  0  0 
 13  5  1  0  0  0  0 
 14 27  1  0  0  0  0 
 14  6  1  0  0  0  0 
 15 28  1  0  0  0  0 
 16  1  1  0  0  0  0 
 17  2  1  0  0  0  0 
 18  3  1  0  0  0  0 
 21  5  1  0  0  0  0 
 24  7  1  0  0  0  0 
M  RAD  2  12   2  13   2 
M  END 
>  <HBA> 
2 
 
>  <HBD> 
2 
 
>  <TPSA> 
40.18 
 
>  <cid> 
29835 
 
>  <dipole> 
4.25 
 
>  <excitation_energy_1> 
4.629 
 
>  <excitation_energy_2> 
4.759 
 
>  <excitation_energy_3> 
4.806 
 
>  <excitation_energy_4> 
4.852 
 
>  <homo_energy> 
-5.491 
 
>  <homo_lumo_gap> 
5.282 
 
>  <logP> 
1.476 
 
>  <lumo_energy> 
-0.21 
 
>  <melting_point> 
165.39 
 
>  <molecular_refractivity> 
69.3 
 
>  <oscillator_strength_1> 
0.0621 
 
>  <oscillator_strength_2> 
0.0032 
 
>  <oscillator_strength_3> 
0.0052 
 
>  <oscillator_strength_4> 
0.0323 
 
>  <open_babel_can_smiles> 
C1CN[C]([N]1)Cc1c[nH]c2c1cccc2 
 
>  <mulliken_charges> 
28 
1   -0.143903 
2   -0.148763 
3   -0.210483 
4   -0.165553 
5   -0.16023 
6   -0.148907 
7   -0.409617 
8   -0.012901 
9   0.048803 
10   0.073755 
11   0.316698 
12   0.496275 
13   -0.477068 
14   -0.600951 
15   -0.691177 
16   0.123017 
17   0.123227 
18   0.152315 
19   0.120473 
20   0.147853 
21   0.145982 
22   0.141898 
23   0.14675 
24   0.179642 
25   0.158734 
26   0.149585 
27   0.317454 
28   0.327093 
 
>  <lowdin_charges> 
28 
1   -0.174572 
2   -0.163552 
3   -0.159645 
4   -0.187649 
5   -0.207691 
6   -0.212689 
7   -0.270244 
8   -0.139082 
9   -0.06729 
10   -0.038565 
11   0.031868 
12   0.084978 
13   -0.248571 
14   -0.31928 
15   -0.203731 
16   0.155045 
17   0.156682 
18   0.166944 
19   0.153572 
20   0.144751 
21   0.146654 
22   0.137139 
23   0.14848 
24   0.174853 
25   0.163674 
26   0.163155 
27   0.273112 
28   0.291652 
 
$$$$ 
 
