PCCDB-ID:  61013 
public computational chemistry database (PCCDB) project, http://pccdb.org 
 
 15 14  0  0  0  0  0  0  0  0999 V2000 
    1.0261   -0.0612    0.0051 C   0  0  0  0  0  0  0  0  0  0  0  0 
    4.3144   -0.0183    1.3056 C   0  0  0  0  0  0  0  0  0  0  0  0 
    2.2352   -0.0410   -0.0536 C   0  0  0  0  0  0  0  0  0  0  0  0 
    4.3180    0.0172   -1.2486 C   0  0  0  0  0  0  0  0  0  0  0  0 
    5.7999    0.0332   -1.4879 C   0  0  0  0  0  0  0  0  0  0  0  0 
    3.6681   -0.0174   -0.0654 C   0  0  0  0  0  0  0  0  0  0  0  0 
    6.1867   -0.9567   -2.4425 O   0  0  0  0  0  0  0  0  0  0  0  0 
   -0.0389   -0.0889    0.0474 H   0  0  0  0  0  0  0  0  0  0  0  0 
    3.9446   -0.8618    1.8998 H   0  0  0  0  0  0  0  0  0  0  0  0 
    4.0485    0.8960    1.8495 H   0  0  0  0  0  0  0  0  0  0  0  0 
    5.4039   -0.0775    1.2576 H   0  0  0  0  0  0  0  0  0  0  0  0 
    3.7211    0.0217   -2.1590 H   0  0  0  0  0  0  0  0  0  0  0  0 
    6.3703   -0.0708   -0.5544 H   0  0  0  0  0  0  0  0  0  0  0  0 
    6.0962    0.9876   -1.9407 H   0  0  0  0  0  0  0  0  0  0  0  0 
    5.8916   -1.8144   -2.0978 H   0  0  0  0  0  0  0  0  0  0  0  0 
  1  8  1  0  0  0  0 
  2 10  1  0  0  0  0 
  2  9  1  0  0  0  0 
  3  1  3  0  0  0  0 
  4  6  2  0  0  0  0 
  5  4  1  0  0  0  0 
  5 13  1  0  0  0  0 
  6  3  1  0  0  0  0 
  6  2  1  0  0  0  0 
  7 15  1  0  0  0  0 
  7  5  1  0  0  0  0 
 11  2  1  0  0  0  0 
 12  4  1  0  0  0  0 
 14  5  1  0  0  0  0 
M  END 
>  <HBA> 
1 
 
>  <HBD> 
1 
 
>  <TPSA> 
20.23 
 
>  <cid> 
61013 
 
>  <dipole> 
1.67 
 
>  <excitation_energy_1> 
5.245 
 
>  <excitation_energy_2> 
5.299 
 
>  <excitation_energy_3> 
5.833 
 
>  <excitation_energy_4> 
5.887 
 
>  <homo_energy> 
-6.348 
 
>  <homo_lumo_gap> 
5.687 
 
>  <logP> 
0.558 
 
>  <lumo_energy> 
-0.661 
 
>  <melting_point> 
22.61 
 
>  <molecular_refractivity> 
29.81 
 
>  <oscillator_strength_1> 
0.2658 
 
>  <oscillator_strength_2> 
0.1011 
 
>  <oscillator_strength_3> 
0.0019 
 
>  <oscillator_strength_4> 
0.0015 
 
>  <open_babel_can_smiles> 
C/C(=C\CO)/C#C 
 
>  <mulliken_charges> 
15 
1   -0.535855 
2   -0.50671 
3   0.321417 
4   -0.176554 
5   -0.067624 
6   0.046962 
7   -0.610731 
8   0.195399 
9   0.169819 
10   0.173755 
11   0.155703 
12   0.151925 
13   0.132469 
14   0.161992 
15   0.388032 
 
>  <lowdin_charges> 
15 
1   -0.244431 
2   -0.43657 
3   -0.035471 
4   -0.179437 
5   -0.134417 
6   -0.002093 
7   -0.464399 
8   0.205264 
9   0.166677 
10   0.168424 
11   0.154668 
12   0.168203 
13   0.133962 
14   0.15783 
15   0.341791 
 
$$$$ 
 
