PCCDB-ID:  68279 
public computational chemistry database (PCCDB) project, http://pccdb.org 
 
 32 33  0  0  0  0  0  0  0  0999 V2000 
    0.9093    1.2289   -1.4648 C   0  0  0  0  0  0  0  0  0  0  0  0 
   -1.9311    0.6969    3.8911 C   0  0  0  0  0  0  0  0  0  0  0  0 
    1.5300   -0.0253   -0.8296 C   0  0  0  0  0  0  0  0  0  0  0  0 
   -0.2112    1.7999   -0.5788 C   0  0  0  0  0  0  0  0  0  0  0  0 
   -2.6168   -0.3505    2.9978 C   0  0  0  0  0  0  0  0  0  0  0  0 
   -0.7889    1.3990    3.1401 C   0  0  0  0  0  0  0  0  0  0  0  0 
    0.4349   -1.0524   -0.4902 C   0  0  0  0  0  0  0  0  0  0  0  0 
   -1.2339    0.7042   -0.2186 C   0  0  0  0  0  0  0  0  0  0  0  0 
   -1.5736   -1.3268    2.4201 C   0  0  0  0  0  0  0  0  0  0  0  0 
    0.1796    0.3630    2.5326 C   0  0  0  0  0  0  0  0  0  0  0  0 
   -0.6607   -0.5331    0.3347 N   0  0  0  0  0  0  0  0  0  0  0  0 
   -0.4514   -0.6908    1.7231 N   0  0  0  0  0  0  0  0  0  0  0  0 
    0.4880    0.9587   -2.4452 H   0  0  0  0  0  0  0  0  0  0  0  0 
    1.6756    1.9908   -1.6540 H   0  0  0  0  0  0  0  0  0  0  0  0 
   -1.5171    0.1918    4.7772 H   0  0  0  0  0  0  0  0  0  0  0  0 
   -2.6580    1.4304    4.2622 H   0  0  0  0  0  0  0  0  0  0  0  0 
    2.0820    0.2458    0.0805 H   0  0  0  0  0  0  0  0  0  0  0  0 
    2.2589   -0.4795   -1.5145 H   0  0  0  0  0  0  0  0  0  0  0  0 
   -0.7254    2.6203   -1.0974 H   0  0  0  0  0  0  0  0  0  0  0  0 
    0.2211    2.2289    0.3341 H   0  0  0  0  0  0  0  0  0  0  0  0 
   -3.1565    0.1476    2.1813 H   0  0  0  0  0  0  0  0  0  0  0  0 
   -3.3651   -0.9105    3.5746 H   0  0  0  0  0  0  0  0  0  0  0  0 
   -0.2316    2.0589    3.8189 H   0  0  0  0  0  0  0  0  0  0  0  0 
   -1.2037    2.0411    2.3523 H   0  0  0  0  0  0  0  0  0  0  0  0 
    0.8503   -1.9206    0.0271 H   0  0  0  0  0  0  0  0  0  0  0  0 
   -0.0073   -1.4076   -1.4355 H   0  0  0  0  0  0  0  0  0  0  0  0 
   -1.7622    0.4203   -1.1431 H   0  0  0  0  0  0  0  0  0  0  0  0 
   -1.9929    1.0802    0.4710 H   0  0  0  0  0  0  0  0  0  0  0  0 
   -2.0276   -2.0335    1.7218 H   0  0  0  0  0  0  0  0  0  0  0  0 
   -1.1525   -1.9087    3.2567 H   0  0  0  0  0  0  0  0  0  0  0  0 
    0.6914   -0.1463    3.3649 H   0  0  0  0  0  0  0  0  0  0  0  0 
    0.9578    0.8508    1.9416 H   0  0  0  0  0  0  0  0  0  0  0  0 
  1  3  1  0  0  0  0 
  1  4  1  0  0  0  0 
  2 16  1  0  0  0  0 
  2 15  1  0  0  0  0 
  3  7  1  0  0  0  0 
  3 17  1  0  0  0  0 
  4  8  1  0  0  0  0 
  4 20  1  0  0  0  0 
  5 22  1  0  0  0  0 
  5  2  1  0  0  0  0 
  6 23  1  0  0  0  0 
  6  2  1  0  0  0  0 
  7 25  1  0  0  0  0 
  7 11  1  0  0  0  0 
  8 11  1  0  0  0  0 
  8 28  1  0  0  0  0 
  9  5  1  0  0  0  0 
  9 30  1  0  0  0  0 
 10  6  1  0  0  0  0 
 10 31  1  0  0  0  0 
 11 12  1  0  0  0  0 
 12  9  1  0  0  0  0 
 12 10  1  0  0  0  0 
 13  1  1  0  0  0  0 
 14  1  1  0  0  0  0 
 18  3  1  0  0  0  0 
 19  4  1  0  0  0  0 
 21  5  1  0  0  0  0 
 24  6  1  0  0  0  0 
 26  7  1  0  0  0  0 
 27  8  1  0  0  0  0 
 29  9  1  0  0  0  0 
 32 10  1  0  0  0  0 
M  END 
>  <HBA> 
2 
 
>  <HBD> 
0 
 
>  <TPSA> 
6.48 
 
>  <cid> 
68279 
 
>  <dipole> 
0.89 
 
>  <excitation_energy_1> 
4.833 
 
>  <excitation_energy_2> 
4.964 
 
>  <excitation_energy_3> 
5.06 
 
>  <excitation_energy_4> 
5.139 
 
>  <homo_energy> 
-5.23 
 
>  <homo_lumo_gap> 
7.369 
 
>  <logP> 
1.749 
 
>  <lumo_energy> 
2.139 
 
>  <melting_point> 
21.21 
 
>  <molecular_refractivity> 
59.58 
 
>  <oscillator_strength_1> 
0.0024 
 
>  <oscillator_strength_2> 
0.0335 
 
>  <oscillator_strength_3> 
0.0223 
 
>  <oscillator_strength_4> 
0.0069 
 
>  <open_babel_can_smiles> 
C1CCN(CC1)N1CCCCC1 
 
>  <mulliken_charges> 
32 
1   -0.261195 
2   -0.261694 
3   -0.268272 
4   -0.268965 
5   -0.268325 
6   -0.268457 
7   -0.111145 
8   -0.138852 
9   -0.111099 
10   -0.139799 
11   -0.283754 
12   -0.282547 
13   0.12696 
14   0.131262 
15   0.126926 
16   0.131304 
17   0.135146 
18   0.127018 
19   0.127786 
20   0.136034 
21   0.134889 
22   0.127391 
23   0.127683 
24   0.135741 
25   0.145996 
26   0.125152 
27   0.13367 
28   0.14297 
29   0.146272 
30   0.124984 
31   0.133783 
32   0.143138 
 
>  <lowdin_charges> 
32 
1   -0.279666 
2   -0.281047 
3   -0.296923 
4   -0.298234 
5   -0.297828 
6   -0.299244 
7   -0.205706 
8   -0.216835 
9   -0.207115 
10   -0.218258 
11   -0.128638 
12   -0.12918 
13   0.136373 
14   0.143984 
15   0.137269 
16   0.144269 
17   0.139614 
18   0.144541 
19   0.144741 
20   0.140454 
21   0.140277 
22   0.144896 
23   0.145071 
24   0.140879 
25   0.153885 
26   0.134295 
27   0.140447 
28   0.148162 
29   0.154812 
30   0.134911 
31   0.141441 
32   0.148352 
 
$$$$ 
 
