PCCDB-ID:  27543 
public computational chemistry database (PCCDB) project, http://pccdb.org 
 
 35 37  0  0  0  0  0  0  0  0999 V2000 
    0.9971    0.0030    0.0571 C   0  0  0  0  0  0  0  0  0  0  0  0 
    7.7022    3.4913    0.1294 C   0  0  0  0  0  0  0  0  0  0  0  0 
    4.0589    3.3209    0.1908 C   0  0  0  0  0  0  0  0  0  0  0  0 
    2.9978    2.4301    0.1567 C   0  0  0  0  0  0  0  0  0  0  0  0 
    5.7411   -1.7712   -0.1861 C   0  0  0  0  0  0  0  0  0  0  0  0 
    2.6127   -2.5598   -0.1549 C   0  0  0  0  0  0  0  0  0  0  0  0 
    5.6842   -3.0200    0.7043 C   0  0  0  0  0  0  0  0  0  0  0  0 
    3.2827   -3.6192    0.7359 C   0  0  0  0  0  0  0  0  0  0  0  0 
    5.6880    1.5107    0.0432 C   0  0  0  0  0  0  0  0  0  0  0  0 
    5.3974    2.8672    0.1336 C   0  0  0  0  0  0  0  0  0  0  0  0 
    4.5628   -0.8426   -0.0697 C   0  0  0  0  0  0  0  0  0  0  0  0 
    4.6197    0.5907    0.0098 C   0  0  0  0  0  0  0  0  0  0  0  0 
    3.2839    1.0619    0.0637 C   0  0  0  0  0  0  0  0  0  0  0  0 
    3.2269   -1.1918   -0.0624 C   0  0  0  0  0  0  0  0  0  0  0  0 
    4.6364   -3.9640    0.3010 N   0  0  0  0  0  0  0  0  0  0  0  0 
    2.4448   -0.0419    0.0163 N   0  0  0  0  0  0  0  0  0  0  0  0 
    6.3399    3.8667    0.1749 O   0  0  0  0  0  0  0  0  0  0  0  0 
    0.6762    1.0450    0.0847 H   0  0  0  0  0  0  0  0  0  0  0  0 
    0.6003   -0.4973    0.9491 H   0  0  0  0  0  0  0  0  0  0  0  0 
    0.5557   -0.4634   -0.8313 H   0  0  0  0  0  0  0  0  0  0  0  0 
    8.2747    4.4202    0.1778 H   0  0  0  0  0  0  0  0  0  0  0  0 
    7.9484    2.9637   -0.8030 H   0  0  0  0  0  0  0  0  0  0  0  0 
    7.9771    2.8527    0.9809 H   0  0  0  0  0  0  0  0  0  0  0  0 
    3.8873    4.3903    0.2604 H   0  0  0  0  0  0  0  0  0  0  0  0 
    1.9785    2.8035    0.2006 H   0  0  0  0  0  0  0  0  0  0  0  0 
    5.8719   -2.1077   -1.2252 H   0  0  0  0  0  0  0  0  0  0  0  0 
    6.6520   -1.2178    0.0764 H   0  0  0  0  0  0  0  0  0  0  0  0 
    1.5534   -2.5132    0.1231 H   0  0  0  0  0  0  0  0  0  0  0  0 
    2.6496   -2.9238   -1.1922 H   0  0  0  0  0  0  0  0  0  0  0  0 
    5.5778   -2.7040    1.7598 H   0  0  0  0  0  0  0  0  0  0  0  0 
    6.6416   -3.5479    0.6171 H   0  0  0  0  0  0  0  0  0  0  0  0 
    2.6802   -4.5336    0.6767 H   0  0  0  0  0  0  0  0  0  0  0  0 
    3.2510   -3.2722    1.7866 H   0  0  0  0  0  0  0  0  0  0  0  0 
    6.7113    1.1556   -0.0039 H   0  0  0  0  0  0  0  0  0  0  0  0 
    4.8679   -4.8794    0.6784 H   0  0  0  0  0  0  0  0  0  0  0  0 
  1 18  1  0  0  0  0 
  1 19  1  0  0  0  0 
  2 17  1  0  0  0  0 
  2 21  1  0  0  0  0 
  2 23  1  0  0  0  0 
  3 24  1  0  0  0  0 
  4  3  1  0  0  0  0 
  4 25  1  0  0  0  0 
  5 11  1  0  0  0  0 
  5 27  1  0  0  0  0 
  5  7  1  0  0  0  0 
  6 14  1  0  0  0  0 
  6 28  1  0  0  0  0 
  6  8  1  0  0  0  0 
  7 30  1  0  0  0  0 
  8 33  1  0  0  0  0 
  9 10  1  0  0  0  0 
 10 17  1  0  0  0  0 
 10  3  2  0  0  0  0 
 11 14  2  0  0  0  0 
 11 12  1  0  0  0  0 
 12  9  2  0  0  0  0 
 12 13  1  0  0  0  0 
 13  4  2  0  0  0  0 
 14 16  1  0  0  0  0 
 15 35  1  0  0  0  0 
 15  7  1  0  0  0  0 
 15  8  1  0  0  0  0 
 16  1  1  0  0  0  0 
 16 13  1  0  0  0  0 
 20  1  1  0  0  0  0 
 22  2  1  0  0  0  0 
 26  5  1  0  0  0  0 
 29  6  1  0  0  0  0 
 31  7  1  0  0  0  0 
 32  8  1  0  0  0  0 
 34  9  1  0  0  0  0 
M  END 
>  <HBA> 
3 
 
>  <HBD> 
1 
 
>  <TPSA> 
26.19 
 
>  <cid> 
27543 
 
>  <dipole> 
2.59 
 
>  <excitation_energy_1> 
4.287 
 
>  <excitation_energy_2> 
4.452 
 
>  <excitation_energy_3> 
4.516 
 
>  <excitation_energy_4> 
4.65 
 
>  <homo_energy> 
-4.914 
 
>  <homo_lumo_gap> 
4.996 
 
>  <logP> 
2.204 
 
>  <lumo_energy> 
0.082 
 
>  <melting_point> 
115.03 
 
>  <molecular_refractivity> 
73.84 
 
>  <oscillator_strength_1> 
0.0507 
 
>  <oscillator_strength_2> 
0.0617 
 
>  <oscillator_strength_3> 
0.1041 
 
>  <oscillator_strength_4> 
0.0115 
 
>  <open_babel_can_smiles> 
COc1ccc2c(c1)c1CCNCCc1n2C 
 
>  <mulliken_charges> 
35 
1   -0.328438 
2   -0.205263 
3   -0.19503 
4   -0.167003 
5   -0.325076 
6   -0.333505 
7   -0.134445 
8   -0.129846 
9   -0.29367 
10   0.372666 
11   0.02796 
12   0.058079 
13   0.305443 
14   0.276304 
15   -0.544279 
16   -0.577556 
17   -0.517654 
18   0.174472 
19   0.166138 
20   0.167997 
21   0.161738 
22   0.145471 
23   0.144542 
24   0.128085 
25   0.121966 
26   0.15115 
27   0.134381 
28   0.135669 
29   0.164738 
30   0.11802 
31   0.127816 
32   0.130563 
33   0.119596 
34   0.12171 
35   0.297262 
 
>  <lowdin_charges> 
35 
1   -0.347976 
2   -0.278086 
3   -0.18853 
4   -0.17959 
5   -0.272407 
6   -0.281628 
7   -0.200707 
8   -0.197379 
9   -0.226776 
10   0.086747 
11   -0.081309 
12   -0.025575 
13   0.010491 
14   0.010701 
15   -0.367293 
16   -0.035974 
17   -0.209405 
18   0.167263 
19   0.155229 
20   0.157439 
21   0.158619 
22   0.141192 
23   0.141363 
24   0.161315 
25   0.153195 
26   0.15174 
27   0.149663 
28   0.151039 
29   0.159969 
30   0.11865 
31   0.141854 
32   0.143901 
33   0.119394 
34   0.156869 
35   0.256001 
 
$$$$ 
 
