PCCDB-ID:  10728 
public computational chemistry database (PCCDB) project, http://pccdb.org 
 
 27 27  0  0  0  0  0  0  0  0999 V2000 
    3.1505   -3.8701    0.2662 C   0  0  0  0  0  0  0  0  0  0  0  0 
    1.8689    1.1155   -0.7986 C   0  0  0  0  0  0  0  0  0  0  0  0 
    3.1628   -2.9340   -0.9327 C   0  0  0  0  0  0  0  0  0  0  0  0 
    8.2428    0.4215   -0.3983 C   0  0  0  0  0  0  0  0  0  0  0  0 
    7.6764    1.6503   -0.0541 C   0  0  0  0  0  0  0  0  0  0  0  0 
    7.4171   -0.6656   -0.6600 C   0  0  0  0  0  0  0  0  0  0  0  0 
    6.2914    1.7792    0.0165 C   0  0  0  0  0  0  0  0  0  0  0  0 
    3.3125    0.9758   -1.2074 C   0  0  0  0  0  0  0  0  0  0  0  0 
    6.0178   -0.5637   -0.5859 C   0  0  0  0  0  0  0  0  0  0  0  0 
    5.4682    0.6864   -0.2479 C   0  0  0  0  0  0  0  0  0  0  0  0 
    5.2646   -1.8252   -0.8715 C   0  0  0  0  0  0  0  0  0  0  0  0 
    3.7419    0.9461   -2.3314 O   0  0  0  0  0  0  0  0  0  0  0  0 
    5.8106   -2.8467   -1.2438 O   0  0  0  0  0  0  0  0  0  0  0  0 
    3.9337   -1.7365   -0.6613 O   0  0  0  0  0  0  0  0  0  0  0  0 
    4.1029    0.8936   -0.0846 O   0  0  0  0  0  0  0  0  0  0  0  0 
    2.5023   -4.7293    0.0580 H   0  0  0  0  0  0  0  0  0  0  0  0 
    2.7694   -3.3593    1.1567 H   0  0  0  0  0  0  0  0  0  0  0  0 
    4.1572   -4.2421    0.4741 H   0  0  0  0  0  0  0  0  0  0  0  0 
    1.7474    1.9500   -0.1011 H   0  0  0  0  0  0  0  0  0  0  0  0 
    1.5508    0.2053   -0.2794 H   0  0  0  0  0  0  0  0  0  0  0  0 
    1.2531    1.2732   -1.6845 H   0  0  0  0  0  0  0  0  0  0  0  0 
    2.1614   -2.5598   -1.1599 H   0  0  0  0  0  0  0  0  0  0  0  0 
    3.5753   -3.4243   -1.8171 H   0  0  0  0  0  0  0  0  0  0  0  0 
    9.3213    0.3110   -0.4599 H   0  0  0  0  0  0  0  0  0  0  0  0 
    8.3083    2.5085    0.1565 H   0  0  0  0  0  0  0  0  0  0  0  0 
    7.8321   -1.6305   -0.9296 H   0  0  0  0  0  0  0  0  0  0  0  0 
    5.8250    2.7240    0.2764 H   0  0  0  0  0  0  0  0  0  0  0  0 
  1 18  1  0  0  0  0 
  1 17  1  0  0  0  0 
  2 20  1  0  0  0  0 
  2 19  1  0  0  0  0 
  3 14  1  0  0  0  0 
  3  1  1  0  0  0  0 
  4  5  2  0  0  0  0 
  5  7  1  0  0  0  0 
  5 25  1  0  0  0  0 
  6  9  2  0  0  0  0 
  6  4  1  0  0  0  0 
  7 27  1  0  0  0  0 
  8  2  1  0  0  0  0 
  8 15  1  0  0  0  0 
  9 10  1  0  0  0  0 
 10 15  1  0  0  0  0 
 10  7  2  0  0  0  0 
 11 14  1  0  0  0  0 
 11  9  1  0  0  0  0 
 12  8  2  0  0  0  0 
 13 11  2  0  0  0  0 
 16  1  1  0  0  0  0 
 21  2  1  0  0  0  0 
 22  3  1  0  0  0  0 
 23  3  1  0  0  0  0 
 24  4  1  0  0  0  0 
 26  6  1  0  0  0  0 
M  END 
>  <HBA> 
4 
 
>  <HBD> 
0 
 
>  <TPSA> 
52.6 
 
>  <cid> 
10728 
 
>  <dipole> 
2.76 
 
>  <excitation_energy_1> 
4.772 
 
>  <excitation_energy_2> 
4.876 
 
>  <excitation_energy_3> 
5.362 
 
>  <excitation_energy_4> 
5.478 
 
>  <homo_energy> 
-6.893 
 
>  <homo_lumo_gap> 
5.589 
 
>  <logP> 
1.789 
 
>  <lumo_energy> 
-1.303 
 
>  <melting_point> 
55.43 
 
>  <molecular_refractivity> 
54.03 
 
>  <oscillator_strength_1> 
0.0358 
 
>  <oscillator_strength_2> 
0.0033 
 
>  <oscillator_strength_3> 
0.1872 
 
>  <oscillator_strength_4> 
0.0068 
 
>  <open_babel_can_smiles> 
CCOC(=O)c1ccccc1OC(=O)C 
 
>  <mulliken_charges> 
27 
1   -0.462888 
2   -0.530276 
3   -0.043775 
4   -0.126469 
5   -0.129515 
6   -0.177648 
7   -0.156993 
8   0.610375 
9   0.062943 
10   0.314106 
11   0.614145 
12   -0.445053 
13   -0.49185 
14   -0.481845 
15   -0.52376 
16   0.151155 
17   0.156528 
18   0.179795 
19   0.182335 
20   0.188399 
21   0.183589 
22   0.149481 
23   0.177162 
24   0.140477 
25   0.142987 
26   0.172446 
27   0.144148 
 
>  <lowdin_charges> 
27 
1   -0.45543 
2   -0.464562 
3   -0.126611 
4   -0.157716 
5   -0.133772 
6   -0.12227 
7   -0.168092 
8   0.212346 
9   -0.057038 
10   0.120782 
11   0.207904 
12   -0.239185 
13   -0.27318 
14   -0.187962 
15   -0.167262 
16   0.159901 
17   0.156272 
18   0.166709 
19   0.178702 
20   0.181394 
21   0.176809 
22   0.149664 
23   0.163156 
24   0.162198 
25   0.165469 
26   0.181668 
27   0.170107 
 
$$$$ 
 
