PCCDB-ID:  8257 
public computational chemistry database (PCCDB) project, http://pccdb.org 
 
 16 15  0  0  0  0  0  0  0  0999 V2000 
    2.7428    0.1226    1.1106 C   0  0  0  0  0  0  0  0  0  0  0  0 
    2.7533   -2.0824   -1.6873 C   0  0  0  0  0  0  0  0  0  0  0  0 
    2.8608    0.3366   -2.4406 C   0  0  0  0  0  0  0  0  0  0  0  0 
    2.2689   -0.2316   -0.0822 C   0  0  0  0  0  0  0  0  0  0  0  0 
    3.1058   -0.6402   -1.2741 C   0  0  0  0  0  0  0  0  0  0  0  0 
    4.4796   -0.5770   -0.8750 O   0  0  0  0  0  0  0  0  0  0  0  0 
    2.0755    0.4049    1.9205 H   0  0  0  0  0  0  0  0  0  0  0  0 
    3.8090    0.1397    1.3102 H   0  0  0  0  0  0  0  0  0  0  0  0 
    1.6929   -2.1798   -1.9468 H   0  0  0  0  0  0  0  0  0  0  0  0 
    2.9757   -2.7706   -0.8663 H   0  0  0  0  0  0  0  0  0  0  0  0 
    3.3392   -2.3846   -2.5658 H   0  0  0  0  0  0  0  0  0  0  0  0 
    1.8054    0.3552   -2.7359 H   0  0  0  0  0  0  0  0  0  0  0  0 
    3.4467    0.0389   -3.3206 H   0  0  0  0  0  0  0  0  0  0  0  0 
    3.1589    1.3481   -2.1491 H   0  0  0  0  0  0  0  0  0  0  0  0 
    1.1937   -0.2428   -0.2631 H   0  0  0  0  0  0  0  0  0  0  0  0 
    5.0121   -0.8366   -1.6428 H   0  0  0  0  0  0  0  0  0  0  0  0 
  1  8  1  0  0  0  0 
  1  7  1  0  0  0  0 
  2  5  1  0  0  0  0 
  2 10  1  0  0  0  0 
  3 14  1  0  0  0  0 
  3  5  1  0  0  0  0 
  4  1  2  0  0  0  0 
  5  6  1  0  0  0  0 
  5  4  1  0  0  0  0 
  9  2  1  0  0  0  0 
 11  2  1  0  0  0  0 
 12  3  1  0  0  0  0 
 13  3  1  0  0  0  0 
 15  4  1  0  0  0  0 
 16  6  1  0  0  0  0 
M  END 
>  <HBA> 
1 
 
>  <HBD> 
1 
 
>  <TPSA> 
20.23 
 
>  <cid> 
8257 
 
>  <dipole> 
1.68 
 
>  <excitation_energy_1> 
6.11 
 
>  <excitation_energy_2> 
6.565 
 
>  <excitation_energy_3> 
6.736 
 
>  <excitation_energy_4> 
6.828 
 
>  <homo_energy> 
-6.719 
 
>  <homo_lumo_gap> 
7.483 
 
>  <logP> 
0.943 
 
>  <lumo_energy> 
0.765 
 
>  <melting_point> 
-16.86 
 
>  <molecular_refractivity> 
26.87 
 
>  <oscillator_strength_1> 
0.0326 
 
>  <oscillator_strength_2> 
0.0011 
 
>  <oscillator_strength_3> 
0.1503 
 
>  <oscillator_strength_4> 
0.0126 
 
>  <open_babel_can_smiles> 
C=CC(O)(C)C 
 
>  <mulliken_charges> 
16 
1   -0.335548 
2   -0.455037 
3   -0.455131 
4   -0.075211 
5   0.289424 
6   -0.640723 
7   0.132764 
8   0.16421 
9   0.141541 
10   0.164274 
11   0.128746 
12   0.14164 
13   0.128731 
14   0.164246 
15   0.120064 
16   0.38601 
 
>  <lowdin_charges> 
16 
1   -0.332554 
2   -0.454714 
3   -0.453131 
4   -0.158172 
5   0.127251 
6   -0.457122 
7   0.157411 
8   0.169042 
9   0.150783 
10   0.162024 
11   0.14335 
12   0.150929 
13   0.143255 
14   0.160515 
15   0.148953 
16   0.342181 
 
$$$$ 
 
