PCCDB-ID:  20507 
public computational chemistry database (PCCDB) project, http://pccdb.org 
 
 24 25  0  0  0  0  0  0  0  0999 V2000 
    1.0077    0.1204    0.0968 C   0  0  0  0  0  0  0  0  0  0  0  0 
    5.3918    0.0782    3.7589 C   0  0  0  0  0  0  0  0  0  0  0  0 
    5.2733   -1.3057    3.6301 C   0  0  0  0  0  0  0  0  0  0  0  0 
    4.6766    0.9556    2.9240 C   0  0  0  0  0  0  0  0  0  0  0  0 
    4.4306   -1.8778    2.6593 C   0  0  0  0  0  0  0  0  0  0  0  0 
    3.2601    0.0473   -1.1449 C   0  0  0  0  0  0  0  0  0  0  0  0 
    3.8544    0.3794    1.9745 C   0  0  0  0  0  0  0  0  0  0  0  0 
    3.7379   -1.0014    1.8490 C   0  0  0  0  0  0  0  0  0  0  0  0 
    2.8590   -1.0087   -2.1790 C   0  0  0  0  0  0  0  0  0  0  0  0 
    2.5132   -0.0200    0.1961 C   0  0  0  0  0  0  0  0  0  0  0  0 
    2.6490   -0.7452   -3.3368 O   0  0  0  0  0  0  0  0  0  0  0  0 
    2.7805   -2.2803   -1.7249 O   0  0  0  0  0  0  0  0  0  0  0  0 
    3.0395    1.0058    1.0621 O   0  0  0  0  0  0  0  0  0  0  0  0 
    2.8312   -1.2942    0.8466 O   0  0  0  0  0  0  0  0  0  0  0  0 
    0.7538    1.0797   -0.3631 H   0  0  0  0  0  0  0  0  0  0  0  0 
    0.5685    0.0747    1.0964 H   0  0  0  0  0  0  0  0  0  0  0  0 
    0.5916   -0.6852   -0.5151 H   0  0  0  0  0  0  0  0  0  0  0  0 
    6.0515    0.4919    4.5157 H   0  0  0  0  0  0  0  0  0  0  0  0 
    5.8396   -1.9582    4.2876 H   0  0  0  0  0  0  0  0  0  0  0  0 
    4.7596    2.0330    3.0168 H   0  0  0  0  0  0  0  0  0  0  0  0 
    4.3268   -2.9523    2.5511 H   0  0  0  0  0  0  0  0  0  0  0  0 
    3.1033    1.0289   -1.5959 H   0  0  0  0  0  0  0  0  0  0  0  0 
    4.3322   -0.0569   -0.9333 H   0  0  0  0  0  0  0  0  0  0  0  0 
    2.9494   -2.2974   -0.7607 H   0  0  0  0  0  0  0  0  0  0  0  0 
  1 10  1  0  0  0  0 
  1 16  1  0  0  0  0 
  2 18  1  0  0  0  0 
  3  2  1  0  0  0  0 
  3 19  1  0  0  0  0 
  4 20  1  0  0  0  0 
  4  2  2  0  0  0  0 
  5  3  2  0  0  0  0 
  6 23  1  0  0  0  0 
  6 10  1  0  0  0  0 
  7  4  1  0  0  0  0 
  8  7  2  0  0  0  0 
  8  5  1  0  0  0  0 
  9 12  1  0  0  0  0 
  9  6  1  0  0  0  0 
 10 14  1  0  0  0  0 
 10 13  1  0  0  0  0 
 11  9  2  0  0  0  0 
 12 24  1  0  0  0  0 
 13  7  1  0  0  0  0 
 14  8  1  0  0  0  0 
 15  1  1  0  0  0  0 
 17  1  1  0  0  0  0 
 21  5  1  0  0  0  0 
 22  6  1  0  0  0  0 
M  END 
>  <HBA> 
4 
 
>  <HBD> 
1 
 
>  <TPSA> 
55.76 
 
>  <cid> 
20507 
 
>  <dipole> 
4.64 
 
>  <excitation_energy_1> 
4.866 
 
>  <excitation_energy_2> 
5.247 
 
>  <excitation_energy_3> 
5.478 
 
>  <excitation_energy_4> 
5.565 
 
>  <homo_energy> 
-6.109 
 
>  <homo_lumo_gap> 
5.72 
 
>  <logP> 
1.649 
 
>  <lumo_energy> 
-0.389 
 
>  <melting_point> 
123.96 
 
>  <molecular_refractivity> 
48.74 
 
>  <oscillator_strength_1> 
0.0865 
 
>  <oscillator_strength_2> 
0.0095 
 
>  <oscillator_strength_3> 
0.0233 
 
>  <oscillator_strength_4> 
0.0062 
 
>  <open_babel_can_smiles> 
OC(=O)CC1(C)Oc2c(O1)cccc2 
 
>  <mulliken_charges> 
24 
1   -0.456197 
2   -0.140212 
3   -0.144334 
4   -0.189319 
5   -0.185081 
6   -0.380603 
7   0.33977 
8   0.335136 
9   0.593503 
10   0.465236 
11   -0.444287 
12   -0.584641 
13   -0.545125 
14   -0.584089 
15   0.17517 
16   0.175962 
17   0.178384 
18   0.138605 
19   0.138694 
20   0.151023 
21   0.149912 
22   0.19376 
23   0.185128 
24   0.433606 
 
>  <lowdin_charges> 
24 
1   -0.450501 
2   -0.158471 
3   -0.162717 
4   -0.177851 
5   -0.178297 
6   -0.328788 
7   0.072276 
8   0.066077 
9   0.185569 
10   0.238216 
11   -0.239002 
12   -0.36182 
13   -0.192586 
14   -0.224205 
15   0.173392 
16   0.172138 
17   0.175074 
18   0.1648 
19   0.165373 
20   0.171293 
21   0.170196 
22   0.185624 
23   0.178835 
24   0.355376 
 
$$$$ 
 
