PCCDB-ID:  21627 
public computational chemistry database (PCCDB) project, http://pccdb.org 
 
 22 22  0  0  0  0  0  0  0  0999 V2000 
   -1.6161   -0.2824    0.3932 C   0  0  0  0  0  0  0  0  0  0  0  0 
   -0.7706   -1.2785   -0.1001 C   0  0  0  0  0  0  0  0  0  0  0  0 
   -1.2093    1.0523    0.3724 C   0  0  0  0  0  0  0  0  0  0  0  0 
    0.4842   -0.9429   -0.6016 C   0  0  0  0  0  0  0  0  0  0  0  0 
    5.4337    0.2005   -1.0133 C   0  0  0  0  0  0  0  0  0  0  0  0 
    4.3818   -0.2258   -3.1623 C   0  0  0  0  0  0  0  0  0  0  0  0 
    4.2583    0.4550   -1.8622 C   0  0  0  0  0  0  0  0  0  0  0  0 
    0.0479    1.4081   -0.1294 C   0  0  0  0  0  0  0  0  0  0  0  0 
    0.9010    0.3934   -0.6079 C   0  0  0  0  0  0  0  0  0  0  0  0 
    0.5142    2.8372   -0.0691 C   0  0  0  0  0  0  0  0  0  0  0  0 
    6.3538    0.0189   -0.3322 N   0  0  0  0  0  0  0  0  0  0  0  0 
    4.4371   -0.7545   -4.1927 N   0  0  0  0  0  0  0  0  0  0  0  0 
    3.0285   -0.0681   -1.1674 N   0  0  0  0  0  0  0  0  0  0  0  0 
    2.1381    0.8034   -1.1817 N   0  0  0  0  0  0  0  0  0  0  0  0 
    1.6189    3.1728    0.2748 O   0  0  0  0  0  0  0  0  0  0  0  0 
   -0.4238    3.7685   -0.3934 O   0  0  0  0  0  0  0  0  0  0  0  0 
   -2.5916   -0.5428    0.7930 H   0  0  0  0  0  0  0  0  0  0  0  0 
   -1.0897   -2.3165   -0.0968 H   0  0  0  0  0  0  0  0  0  0  0  0 
   -1.8592    1.8191    0.7857 H   0  0  0  0  0  0  0  0  0  0  0  0 
    1.1489   -1.6976   -1.0075 H   0  0  0  0  0  0  0  0  0  0  0  0 
    4.1515    1.5359   -2.0288 H   0  0  0  0  0  0  0  0  0  0  0  0 
   -1.2031    3.3352   -0.7794 H   0  0  0  0  0  0  0  0  0  0  0  0 
  1 17  1  0  0  0  0 
  2 18  1  0  0  0  0 
  2  1  2  0  0  0  0 
  3  1  1  0  0  0  0 
  3 19  1  0  0  0  0 
  4  2  1  0  0  0  0 
  5 11  3  0  0  0  0 
  6  7  1  0  0  0  0 
  7 13  1  0  0  0  0 
  7  5  1  0  0  0  0 
  8 10  1  0  0  0  0 
  8  3  2  0  0  0  0 
  9  4  2  0  0  0  0 
  9  8  1  0  0  0  0 
 10 15  2  0  0  0  0 
 12  6  3  0  0  0  0 
 14 13  1  0  0  0  0 
 14  9  1  0  0  0  0 
 16 10  1  0  0  0  0 
 20  4  1  0  0  0  0 
 21  7  1  0  0  0  0 
 22 16  1  0  0  0  0 
M  RAD  2  13   2  14   2 
M  END 
>  <HBA> 
6 
 
>  <HBD> 
1 
 
>  <TPSA> 
109.6 
 
>  <cid> 
21627 
 
>  <dipole> 
7.87 
 
>  <excitation_energy_1> 
2.958 
 
>  <excitation_energy_2> 
3.965 
 
>  <excitation_energy_3> 
4.239 
 
>  <excitation_energy_4> 
4.528 
 
>  <homo_energy> 
-7.325 
 
>  <homo_lumo_gap> 
4.267 
 
>  <logP> 
1.884 
 
>  <lumo_energy> 
-3.059 
 
>  <melting_point> 
185.02 
 
>  <molecular_refractivity> 
52.89 
 
>  <oscillator_strength_1> 
0.0053 
 
>  <oscillator_strength_2> 
0.011 
 
>  <oscillator_strength_3> 
0.0408 
 
>  <oscillator_strength_4> 
0.2621 
 
>  <open_babel_can_smiles> 
N#CC([N][N]c1ccccc1C(=O)O)C#N 
 
>  <mulliken_charges> 
22 
1   -0.111475 
2   -0.134645 
3   -0.201667 
4   -0.119469 
5   0.394611 
6   0.393722 
7   -0.107952 
8   0.018388 
9   0.240721 
10   0.5643 
11   -0.433069 
12   -0.432884 
13   -0.16665 
14   -0.243031 
15   -0.420607 
16   -0.562919 
17   0.156906 
18   0.160346 
19   0.158588 
20   0.178393 
21   0.255048 
22   0.413344 
 
>  <lowdin_charges> 
22 
1   -0.131754 
2   -0.133584 
3   -0.161129 
4   -0.136743 
5   -0.00614 
6   -0.008063 
7   -0.059535 
8   -0.043686 
9   0.025465 
10   0.194335 
11   -0.069728 
12   -0.074465 
13   -0.067906 
14   -0.03481 
15   -0.215019 
16   -0.348345 
17   0.171301 
18   0.171811 
19   0.170945 
20   0.185171 
21   0.209696 
22   0.362184 
 
$$$$ 
 
