PCCDB-ID:  50231 
public computational chemistry database (PCCDB) project, http://pccdb.org 
 
 24 24  0  0  1  0  0  0  0  0999 V2000 
    1.5689    0.7565    0.4085 C   0  0  0  0  0  0  0  0  0  0  0  0 
    3.6523   -1.5592   -1.8726 C   0  0  0  0  0  0  0  0  0  0  0  0 
    3.1660   -3.1812    3.2017 C   0  0  0  0  0  0  0  0  0  0  0  0 
    4.0522   -2.1066    3.1233 C   0  0  0  0  0  0  0  0  0  0  0  0 
    2.1421   -3.3038    2.2588 C   0  0  0  0  0  0  0  0  0  0  0  0 
    3.9141   -1.1607    2.1053 C   0  0  0  0  0  0  0  0  0  0  0  0 
    2.0044   -2.3564    1.2451 C   0  0  0  0  0  0  0  0  0  0  0  0 
    2.7176   -0.2076    0.0804 C   0  0  1  0  0  0  0  0  0  0  0  0 
    2.8887   -1.2730    1.1606 C   0  0  0  0  0  0  0  0  0  0  0  0 
    1.3637   -0.7858   -1.8347 N   0  0  0  0  0  0  0  0  0  0  0  0 
    2.5617   -0.8162   -1.2500 N   0  0  0  0  0  0  0  0  0  0  0  0 
    1.3105   -1.3892   -2.9082 O   0  0  0  0  0  0  0  0  0  0  0  0 
    1.7899    1.2427    1.3639 H   0  0  0  0  0  0  0  0  0  0  0  0 
    0.6162    0.2310    0.4992 H   0  0  0  0  0  0  0  0  0  0  0  0 
    1.4652    1.5228   -0.3652 H   0  0  0  0  0  0  0  0  0  0  0  0 
    4.5453   -1.4446   -1.2572 H   0  0  0  0  0  0  0  0  0  0  0  0 
    3.8321   -1.1753   -2.8809 H   0  0  0  0  0  0  0  0  0  0  0  0 
    3.3956   -2.6201   -1.9579 H   0  0  0  0  0  0  0  0  0  0  0  0 
    3.2735   -3.9214    3.9899 H   0  0  0  0  0  0  0  0  0  0  0  0 
    4.8550   -2.0064    3.8488 H   0  0  0  0  0  0  0  0  0  0  0  0 
    1.4510   -4.1409    2.3115 H   0  0  0  0  0  0  0  0  0  0  0  0 
    4.6097   -0.3257    2.0462 H   0  0  0  0  0  0  0  0  0  0  0  0 
    1.2092   -2.4589    0.5108 H   0  0  0  0  0  0  0  0  0  0  0  0 
    3.6451    0.3790    0.0371 H   0  0  0  0  0  0  0  0  0  0  0  0 
  1 14  1  0  0  0  0 
  1 13  1  0  0  0  0 
  2 16  1  0  0  0  0 
  2 11  1  0  0  0  0 
  3 19  1  0  0  0  0 
  4  3  1  0  0  0  0 
  4 20  1  0  0  0  0 
  5 21  1  0  0  0  0 
  5  3  2  0  0  0  0 
  6  4  2  0  0  0  0 
  7  5  1  0  0  0  0 
  8 24  1  6  0  0  0 
  8  1  1  0  0  0  0 
  8  9  1  0  0  0  0 
  9  7  2  0  0  0  0 
  9  6  1  0  0  0  0 
 10 11  1  0  0  0  0 
 11  8  1  0  0  0  0 
 12 10  1  0  0  0  0 
 15  1  1  0  0  0  0 
 17  2  1  0  0  0  0 
 18  2  1  0  0  0  0 
 22  6  1  0  0  0  0 
 23  7  1  0  0  0  0 
M  RAD  2  10   2  12   2 
M  END 
>  <HBA> 
3 
 
>  <HBD> 
0 
 
>  <TPSA> 
32.67 
 
>  <cid> 
50231 
 
>  <dipole> 
4.13 
 
>  <excitation_energy_1> 
3.373 
 
>  <excitation_energy_2> 
4.914 
 
>  <excitation_energy_3> 
5.025 
 
>  <excitation_energy_4> 
5.234 
 
>  <homo_energy> 
-5.894 
 
>  <homo_lumo_gap> 
5.162 
 
>  <logP> 
2.361 
 
>  <lumo_energy> 
-0.732 
 
>  <melting_point> 
27.51 
 
>  <molecular_refractivity> 
48.66 
 
>  <oscillator_strength_1> 
0.0008 
 
>  <oscillator_strength_2> 
0.0003 
 
>  <oscillator_strength_3> 
0.0003 
 
>  <oscillator_strength_4> 
0.0189 
 
>  <open_babel_can_smiles> 
[O][N]N([C@H](c1ccccc1)C)C 
 
>  <mulliken_charges> 
24 
1   -0.43886 
2   -0.315247 
3   -0.127761 
4   -0.127351 
5   -0.129639 
6   -0.190267 
7   -0.180028 
8   -0.057625 
9   0.165858 
10   0.144373 
11   -0.203762 
12   -0.394642 
13   0.152633 
14   0.176302 
15   0.164721 
16   0.163931 
17   0.185242 
18   0.184816 
19   0.134176 
20   0.133778 
21   0.137066 
22   0.126551 
23   0.148855 
24   0.146879 
 
>  <lowdin_charges> 
24 
1   -0.442644 
2   -0.367947 
3   -0.155541 
4   -0.153419 
5   -0.150502 
6   -0.169649 
7   -0.160786 
8   -0.052189 
9   -0.019042 
10   0.043647 
11   -0.038512 
12   -0.279362 
13   0.158285 
14   0.166786 
15   0.162818 
16   0.164684 
17   0.171365 
18   0.168446 
19   0.160596 
20   0.160208 
21   0.161463 
22   0.155474 
23   0.165902 
24   0.14992 
 
$$$$ 
 
