PCCDB-ID:  18118 
public computational chemistry database (PCCDB) project, http://pccdb.org 
 
 31 32  0  0  0  0  0  0  0  0999 V2000 
    0.2663    1.4385   -0.2643 C   0  0  0  0  0  0  0  0  0  0  0  0 
   -1.4606   -5.5245    0.4480 C   0  0  0  0  0  0  0  0  0  0  0  0 
    0.1318    0.5944   -1.5383 C   0  0  0  0  0  0  0  0  0  0  0  0 
   -0.8799    1.1225    0.7008 C   0  0  0  0  0  0  0  0  0  0  0  0 
   -2.1164   -4.4734    1.3515 C   0  0  0  0  0  0  0  0  0  0  0  0 
   -0.0887   -5.0260   -0.0213 C   0  0  0  0  0  0  0  0  0  0  0  0 
   -0.2154   -0.8459   -1.2443 C   0  0  0  0  0  0  0  0  0  0  0  0 
   -0.8436   -0.3527    1.1235 C   0  0  0  0  0  0  0  0  0  0  0  0 
   -2.1512   -3.1067    0.6602 C   0  0  0  0  0  0  0  0  0  0  0  0 
   -0.1902   -3.6373   -0.6643 C   0  0  0  0  0  0  0  0  0  0  0  0 
   -0.6416   -1.2986   -0.0492 C   0  0  0  0  0  0  0  0  0  0  0  0 
   -0.8027   -2.6785    0.2555 N   0  0  0  0  0  0  0  0  0  0  0  0 
    0.2847    2.5064   -0.5147 H   0  0  0  0  0  0  0  0  0  0  0  0 
    1.2225    1.2099    0.2271 H   0  0  0  0  0  0  0  0  0  0  0  0 
   -2.1024   -5.7018   -0.4276 H   0  0  0  0  0  0  0  0  0  0  0  0 
   -1.3679   -6.4844    0.9712 H   0  0  0  0  0  0  0  0  0  0  0  0 
    1.0633    0.6415   -2.1208 H   0  0  0  0  0  0  0  0  0  0  0  0 
   -0.6404    1.0336   -2.1915 H   0  0  0  0  0  0  0  0  0  0  0  0 
   -1.8377    1.3378    0.2062 H   0  0  0  0  0  0  0  0  0  0  0  0 
   -0.8325    1.7630    1.5902 H   0  0  0  0  0  0  0  0  0  0  0  0 
   -1.5463   -4.3817    2.2855 H   0  0  0  0  0  0  0  0  0  0  0  0 
   -3.1384   -4.7709    1.6191 H   0  0  0  0  0  0  0  0  0  0  0  0 
    0.3531   -5.7244   -0.7435 H   0  0  0  0  0  0  0  0  0  0  0  0 
    0.5947   -4.9675    0.8359 H   0  0  0  0  0  0  0  0  0  0  0  0 
   -0.0895   -1.5421   -2.0692 H   0  0  0  0  0  0  0  0  0  0  0  0 
   -1.7632   -0.5939    1.6700 H   0  0  0  0  0  0  0  0  0  0  0  0 
   -0.0270   -0.5219    1.8415 H   0  0  0  0  0  0  0  0  0  0  0  0 
   -2.5800   -2.3626    1.3345 H   0  0  0  0  0  0  0  0  0  0  0  0 
   -2.8164   -3.1597   -0.2242 H   0  0  0  0  0  0  0  0  0  0  0  0 
   -0.7620   -3.7160   -1.6106 H   0  0  0  0  0  0  0  0  0  0  0  0 
    0.8076   -3.2687   -0.9208 H   0  0  0  0  0  0  0  0  0  0  0  0 
  1 14  1  0  0  0  0 
  1  4  1  0  0  0  0 
  2 16  1  0  0  0  0 
  2  5  1  0  0  0  0 
  3  7  1  0  0  0  0 
  3  1  1  0  0  0  0 
  4  8  1  0  0  0  0 
  4 20  1  0  0  0  0 
  5 22  1  0  0  0  0 
  5 21  1  0  0  0  0 
  6  2  1  0  0  0  0 
  6 24  1  0  0  0  0 
  7 11  2  0  0  0  0 
  8 26  1  0  0  0  0 
  8 27  1  0  0  0  0 
  9 28  1  0  0  0  0 
  9  5  1  0  0  0  0 
 10  6  1  0  0  0  0 
 10 12  1  0  0  0  0 
 11 12  1  0  0  0  0 
 11  8  1  0  0  0  0 
 12  9  1  0  0  0  0 
 13  1  1  0  0  0  0 
 15  2  1  0  0  0  0 
 17  3  1  0  0  0  0 
 18  3  1  0  0  0  0 
 19  4  1  0  0  0  0 
 23  6  1  0  0  0  0 
 25  7  1  0  0  0  0 
 29  9  1  0  0  0  0 
 30 10  1  0  0  0  0 
 31 10  1  0  0  0  0 
M  END 
>  <HBA> 
1 
 
>  <HBD> 
0 
 
>  <TPSA> 
3.24 
 
>  <cid> 
18118 
 
>  <dipole> 
0.58 
 
>  <excitation_energy_1> 
4.677 
 
>  <excitation_energy_2> 
5.053 
 
>  <excitation_energy_3> 
5.118 
 
>  <excitation_energy_4> 
5.191 
 
>  <homo_energy> 
-5.108 
 
>  <homo_lumo_gap> 
6.294 
 
>  <logP> 
2.868 
 
>  <lumo_energy> 
1.186 
 
>  <melting_point> 
31.12 
 
>  <molecular_refractivity> 
57.1 
 
>  <oscillator_strength_1> 
0.0201 
 
>  <oscillator_strength_2> 
0.0054 
 
>  <oscillator_strength_3> 
0.0076 
 
>  <oscillator_strength_4> 
0.0538 
 
>  <open_babel_can_smiles> 
C1CCN(CC1)C1=CCCCC1 
 
>  <mulliken_charges> 
31 
1   -0.261218 
2   -0.263724 
3   -0.29071 
4   -0.262332 
5   -0.256901 
6   -0.261022 
7   -0.199709 
8   -0.323623 
9   -0.131834 
10   -0.123184 
11   0.315604 
12   -0.458252 
13   0.127118 
14   0.133402 
15   0.128328 
16   0.133508 
17   0.132991 
18   0.136384 
19   0.133942 
20   0.128186 
21   0.138682 
22   0.1303 
23   0.130205 
24   0.139241 
25   0.114492 
26   0.13794 
27   0.149505 
28   0.143045 
29   0.11799 
30   0.114112 
31   0.147533 
 
>  <lowdin_charges> 
31 
1   -0.273546 
2   -0.27973 
3   -0.271863 
4   -0.27523 
5   -0.281117 
6   -0.283205 
7   -0.239956 
8   -0.280606 
9   -0.197533 
10   -0.199025 
11   0.027943 
12   -0.153433 
13   0.140339 
14   0.140167 
15   0.138204 
16   0.144265 
17   0.144222 
18   0.14339 
19   0.140452 
20   0.143373 
21   0.144219 
22   0.144171 
23   0.146371 
24   0.145048 
25   0.151656 
26   0.147669 
27   0.151345 
28   0.150407 
29   0.121552 
30   0.11821 
31   0.152242 
 
$$$$ 
 
