PCCDB-ID:  25576 
public computational chemistry database (PCCDB) project, http://pccdb.org 
 
 37 37  0  0  0  0  0  0  0  0999 V2000 
    2.7606    3.8351    3.8320 C   0  0  0  0  0  0  0  0  0  0  0  0 
    4.2396    3.5150    4.0691 C   0  0  0  0  0  0  0  0  0  0  0  0 
    5.1822    4.5330    3.4140 C   0  0  0  0  0  0  0  0  0  0  0  0 
    8.0389    2.3253   -0.9032 C   0  0  0  0  0  0  0  0  0  0  0  0 
    7.6627    3.6005   -0.4905 C   0  0  0  0  0  0  0  0  0  0  0  0 
    8.0888    1.2906    0.0331 C   0  0  0  0  0  0  0  0  0  0  0  0 
    7.3243    3.8497    0.8418 C   0  0  0  0  0  0  0  0  0  0  0  0 
    6.6338   -2.3964    0.7744 C   0  0  0  0  0  0  0  0  0  0  0  0 
    6.2519   -1.0763    1.4537 C   0  0  0  0  0  0  0  0  0  0  0  0 
    6.6630    4.2164    3.6309 C   0  0  0  0  0  0  0  0  0  0  0  0 
    7.7732    1.5209    1.3760 C   0  0  0  0  0  0  0  0  0  0  0  0 
    7.3755    2.8143    1.7830 C   0  0  0  0  0  0  0  0  0  0  0  0 
    7.8797    0.4118    2.3728 C   0  0  0  0  0  0  0  0  0  0  0  0 
    7.9099   -2.2510    0.0623 N   0  0  0  0  0  0  0  0  0  0  0  0 
    7.2681   -0.7047    2.4234 N   0  0  0  0  0  0  0  0  0  0  0  0 
    8.8087    0.6807    3.3294 O   0  0  0  0  0  0  0  0  0  0  0  0 
    7.0475    2.9448    3.0994 O   0  0  0  0  0  0  0  0  0  0  0  0 
    2.1118    3.0948    4.3135 H   0  0  0  0  0  0  0  0  0  0  0  0 
    2.5222    3.8397    2.7613 H   0  0  0  0  0  0  0  0  0  0  0  0 
    2.4962    4.8212    4.2339 H   0  0  0  0  0  0  0  0  0  0  0  0 
    4.4706    2.5150    3.6834 H   0  0  0  0  0  0  0  0  0  0  0  0 
    4.4405    3.4817    5.1495 H   0  0  0  0  0  0  0  0  0  0  0  0 
    4.9932    5.5357    3.8248 H   0  0  0  0  0  0  0  0  0  0  0  0 
    4.9700    4.5920    2.3386 H   0  0  0  0  0  0  0  0  0  0  0  0 
    8.2900    2.1317   -1.9417 H   0  0  0  0  0  0  0  0  0  0  0  0 
    7.6184    4.4170   -1.2067 H   0  0  0  0  0  0  0  0  0  0  0  0 
    8.3643    0.2850   -0.2737 H   0  0  0  0  0  0  0  0  0  0  0  0 
    7.0168    4.8469    1.1330 H   0  0  0  0  0  0  0  0  0  0  0  0 
    5.8569   -2.6501    0.0428 H   0  0  0  0  0  0  0  0  0  0  0  0 
    6.6435   -3.1951    1.5360 H   0  0  0  0  0  0  0  0  0  0  0  0 
    5.3070   -1.2316    1.9933 H   0  0  0  0  0  0  0  0  0  0  0  0 
    6.0788   -0.3097    0.6871 H   0  0  0  0  0  0  0  0  0  0  0  0 
    6.8758    4.1323    4.7017 H   0  0  0  0  0  0  0  0  0  0  0  0 
    7.3092    5.0061    3.2274 H   0  0  0  0  0  0  0  0  0  0  0  0 
    8.6451   -2.1217    0.7567 H   0  0  0  0  0  0  0  0  0  0  0  0 
    8.1322   -3.1157   -0.4288 H   0  0  0  0  0  0  0  0  0  0  0  0 
    8.7658   -0.0799    3.9401 H   0  0  0  0  0  0  0  0  0  0  0  0 
  1  2  1  0  0  0  0 
  1 20  1  0  0  0  0 
  1 18  1  0  0  0  0 
  2 22  1  0  0  0  0 
  3 10  1  0  0  0  0 
  3 23  1  0  0  0  0 
  3  2  1  0  0  0  0 
  4  5  2  0  0  0  0 
  4  6  1  0  0  0  0 
  5  7  1  0  0  0  0 
  6 11  2  0  0  0  0 
  7 28  1  0  0  0  0 
  7 12  2  0  0  0  0 
  8  9  1  0  0  0  0 
  8 30  1  0  0  0  0 
  9 31  1  0  0  0  0 
  9 15  1  0  0  0  0 
 10 33  1  0  0  0  0 
 11 12  1  0  0  0  0 
 11 13  1  0  0  0  0 
 12 17  1  0  0  0  0 
 13 15  2  0  0  0  0 
 13 16  1  0  0  0  0 
 14 35  1  0  0  0  0 
 14  8  1  0  0  0  0 
 16 37  1  0  0  0  0 
 17 10  1  0  0  0  0 
 19  1  1  0  0  0  0 
 21  2  1  0  0  0  0 
 24  3  1  0  0  0  0 
 25  4  1  0  0  0  0 
 26  5  1  0  0  0  0 
 27  6  1  0  0  0  0 
 29  8  1  0  0  0  0 
 32  9  1  0  0  0  0 
 34 10  1  0  0  0  0 
 36 14  1  0  0  0  0 
M  END 
>  <HBA> 
4 
 
>  <HBD> 
2 
 
>  <TPSA> 
64.35 
 
>  <cid> 
25576 
 
>  <dipole> 
1.04 
 
>  <excitation_energy_1> 
4.721 
 
>  <excitation_energy_2> 
5.167 
 
>  <excitation_energy_3> 
5.338 
 
>  <excitation_energy_4> 
5.39 
 
>  <homo_energy> 
-5.837 
 
>  <homo_lumo_gap> 
5.54 
 
>  <logP> 
2.645 
 
>  <lumo_energy> 
-0.297 
 
>  <melting_point> 
123.09 
 
>  <molecular_refractivity> 
67.87 
 
>  <oscillator_strength_1> 
0.0843 
 
>  <oscillator_strength_2> 
0.0059 
 
>  <oscillator_strength_3> 
0.0108 
 
>  <oscillator_strength_4> 
0.0667 
 
>  <open_babel_can_smiles> 
CCCCOc1ccccc1/C(=N\CCN)/O 
 
>  <mulliken_charges> 
37 
1   -0.443523 
2   -0.247502 
3   -0.276395 
4   -0.1427 
5   -0.130777 
6   -0.178491 
7   -0.195751 
8   -0.135027 
9   -0.13729 
10   -0.046098 
11   0.017326 
12   0.364793 
13   0.438338 
14   -0.719428 
15   -0.472668 
16   -0.579826 
17   -0.520823 
18   0.145501 
19   0.144201 
20   0.13983 
21   0.15638 
22   0.130507 
23   0.133274 
24   0.146565 
25   0.12953 
26   0.130028 
27   0.179589 
28   0.134746 
29   0.135341 
30   0.121847 
31   0.136846 
32   0.143506 
33   0.154745 
34   0.143743 
35   0.305417 
36   0.29741 
37   0.396838 
 
>  <lowdin_charges> 
37 
1   -0.443519 
2   -0.271246 
3   -0.288987 
4   -0.178152 
5   -0.142292 
6   -0.142886 
7   -0.215866 
8   -0.209778 
9   -0.205881 
10   -0.128314 
11   -0.059003 
12   0.113043 
13   0.142171 
14   -0.560549 
15   -0.245914 
16   -0.362784 
17   -0.193407 
18   0.152579 
19   0.146113 
20   0.144818 
21   0.150757 
22   0.137663 
23   0.145858 
24   0.14604 
25   0.157987 
26   0.158918 
27   0.177604 
28   0.161882 
29   0.143794 
30   0.123413 
31   0.145078 
32   0.141761 
33   0.15234 
34   0.143456 
35   0.256763 
36   0.254996 
37   0.351543 
 
$$$$ 
 
