PCCDB-ID:  29773 
public computational chemistry database (PCCDB) project, http://pccdb.org 
 
 17 16  0  0  0  0  0  0  0  0999 V2000 
    1.0449    0.6864   -0.2646 C   0  0  0  0  0  0  0  0  0  0  0  0 
    2.2423   -3.1174   -0.3877 C   0  0  0  0  0  0  0  0  0  0  0  0 
    2.4898    0.3453   -0.0755 C   0  0  0  0  0  0  0  0  0  0  0  0 
    2.2700   -2.0681    0.7386 C   0  0  0  0  0  0  0  0  0  0  0  0 
    4.4992   -0.8733    0.4337 C   0  0  0  0  0  0  0  0  0  0  0  0 
    3.0228   -0.8170    0.3524 C   0  0  0  0  0  0  0  0  0  0  0  0 
    5.1372   -1.8435    0.8008 O   0  0  0  0  0  0  0  0  0  0  0  0 
    0.8500    0.9522   -1.3126 H   0  0  0  0  0  0  0  0  0  0  0  0 
    0.7761    1.5685    0.3322 H   0  0  0  0  0  0  0  0  0  0  0  0 
    0.3730   -0.1307    0.0083 H   0  0  0  0  0  0  0  0  0  0  0  0 
    1.7122   -4.0192   -0.0611 H   0  0  0  0  0  0  0  0  0  0  0  0 
    3.2595   -3.4062   -0.6688 H   0  0  0  0  0  0  0  0  0  0  0  0 
    1.7371   -2.7299   -1.2798 H   0  0  0  0  0  0  0  0  0  0  0  0 
    3.1882    1.1476   -0.3242 H   0  0  0  0  0  0  0  0  0  0  0  0 
    2.7669   -2.5054    1.6119 H   0  0  0  0  0  0  0  0  0  0  0  0 
    1.2466   -1.8201    1.0394 H   0  0  0  0  0  0  0  0  0  0  0  0 
    5.0186    0.0644    0.1303 H   0  0  0  0  0  0  0  0  0  0  0  0 
  1  3  1  0  0  0  0 
  1 10  1  0  0  0  0 
  1  9  1  0  0  0  0 
  2 11  1  0  0  0  0 
  2  4  1  0  0  0  0 
  3  6  2  0  0  0  0 
  4 16  1  0  0  0  0 
  4 15  1  0  0  0  0 
  5  7  2  0  0  0  0 
  6  5  1  0  0  0  0 
  6  4  1  0  0  0  0 
  8  1  1  0  0  0  0 
 12  2  1  0  0  0  0 
 13  2  1  0  0  0  0 
 14  3  1  0  0  0  0 
 17  5  1  0  0  0  0 
M  END 
>  <HBA> 
1 
 
>  <HBD> 
0 
 
>  <TPSA> 
17.07 
 
>  <cid> 
29773 
 
>  <dipole> 
3.51 
 
>  <excitation_energy_1> 
3.808 
 
>  <excitation_energy_2> 
5.653 
 
>  <excitation_energy_3> 
6.334 
 
>  <excitation_energy_4> 
6.494 
 
>  <homo_energy> 
-6.74 
 
>  <homo_lumo_gap> 
5.399 
 
>  <logP> 
1.542 
 
>  <lumo_energy> 
-1.342 
 
>  <melting_point> 
18.37 
 
>  <molecular_refractivity> 
30.68 
 
>  <oscillator_strength_1> 
0.0003 
 
>  <oscillator_strength_2> 
0.3499 
 
>  <oscillator_strength_3> 
0.0403 
 
>  <oscillator_strength_4> 
0.0049 
 
>  <open_babel_can_smiles> 
CC/C(=C\C)/C=O 
 
>  <mulliken_charges> 
17 
1   -0.495377 
2   -0.444245 
3   -0.150852 
4   -0.32879 
5   0.200165 
6   0.132192 
7   -0.418877 
8   0.170812 
9   0.169661 
10   0.167674 
11   0.146297 
12   0.169785 
13   0.141039 
14   0.139256 
15   0.166025 
16   0.137996 
17   0.097242 
 
>  <lowdin_charges> 
17 
1   -0.443482 
2   -0.440592 
3   -0.12714 
4   -0.272604 
5   0.038829 
6   -0.05466 
7   -0.238454 
8   0.167146 
9   0.16768 
10   0.162955 
11   0.152002 
12   0.159954 
13   0.146298 
14   0.156672 
15   0.16438 
16   0.14612 
17   0.114895 
 
$$$$ 
 
