PCCDB-ID:  28389 
public computational chemistry database (PCCDB) project, http://pccdb.org 
 
 20 21  0  0  1  0  0  0  0  0999 V2000 
   -1.5041   -0.0492    0.0623 C   0  0  0  0  0  0  0  0  0  0  0  0 
   -0.8319    1.1369    0.3687 C   0  0  0  0  0  0  0  0  0  0  0  0 
   -0.7744   -1.1799   -0.3051 C   0  0  0  0  0  0  0  0  0  0  0  0 
    0.5595    1.1907    0.3072 C   0  0  0  0  0  0  0  0  0  0  0  0 
    0.6193   -1.1234   -0.3666 C   0  0  0  0  0  0  0  0  0  0  0  0 
    3.6314    0.5876    1.1369 C   0  0  0  0  0  0  0  0  0  0  0  0 
    1.3047    0.0587   -0.0593 C   0  0  0  0  0  0  0  0  0  0  0  0 
    2.8116    0.1096   -0.1165 C   0  0  1  0  0  0  0  0  0  0  0  0 
    3.4843    1.3532   -0.6603 C   0  0  0  0  0  0  0  0  0  0  0  0 
    4.1792    1.7405    0.3478 N   0  0  0  0  0  0  0  0  0  0  0  0 
    3.4208    1.9464   -1.8666 O   0  0  0  0  0  0  0  0  0  0  0  0 
   -2.5889   -0.0898    0.1090 H   0  0  0  0  0  0  0  0  0  0  0  0 
   -1.3928    2.0228    0.6542 H   0  0  0  0  0  0  0  0  0  0  0  0 
   -1.2876   -2.1070   -0.5464 H   0  0  0  0  0  0  0  0  0  0  0  0 
    1.0759    2.1183    0.5452 H   0  0  0  0  0  0  0  0  0  0  0  0 
    1.1829   -2.0091   -0.6521 H   0  0  0  0  0  0  0  0  0  0  0  0 
    4.4051   -0.1066    1.4826 H   0  0  0  0  0  0  0  0  0  0  0  0 
    3.0159    0.9079    1.9832 H   0  0  0  0  0  0  0  0  0  0  0  0 
    3.2073   -0.8170   -0.5496 H   0  0  0  0  0  0  0  0  0  0  0  0 
    2.7562    1.4853   -2.4024 H   0  0  0  0  0  0  0  0  0  0  0  0 
  1 12  1  0  0  0  0 
  1  2  2  0  0  0  0 
  2 13  1  0  0  0  0 
  3  1  1  0  0  0  0 
  4  2  1  0  0  0  0 
  4 15  1  0  0  0  0 
  5  3  2  0  0  0  0 
  5  7  1  0  0  0  0 
  6 17  1  0  0  0  0 
  6 18  1  0  0  0  0 
  7  4  2  0  0  0  0 
  8 19  1  6  0  0  0 
  8  7  1  0  0  0  0 
  8  6  1  0  0  0  0 
  9  8  1  0  0  0  0 
  9 10  2  0  0  0  0 
 10  6  1  0  0  0  0 
 11  9  1  0  0  0  0 
 14  3  1  0  0  0  0 
 16  5  1  0  0  0  0 
 20 11  1  0  0  0  0 
M  END 
>  <HBA> 
2 
 
>  <HBD> 
1 
 
>  <TPSA> 
29.1 
 
>  <cid> 
28389 
 
>  <dipole> 
4.19 
 
>  <excitation_energy_1> 
5.25 
 
>  <excitation_energy_2> 
5.671 
 
>  <excitation_energy_3> 
5.693 
 
>  <excitation_energy_4> 
5.871 
 
>  <homo_energy> 
-6.77 
 
>  <homo_lumo_gap> 
6.343 
 
>  <logP> 
1.229 
 
>  <lumo_energy> 
-0.427 
 
>  <melting_point> 
76.97 
 
>  <molecular_refractivity> 
45.82 
 
>  <oscillator_strength_1> 
0.0009 
 
>  <oscillator_strength_2> 
0.0328 
 
>  <oscillator_strength_3> 
0.0002 
 
>  <oscillator_strength_4> 
0.0011 
 
>  <open_babel_can_smiles> 
OC1=NC[C@H]1c1ccccc1 
 
>  <mulliken_charges> 
20 
1   -0.128984 
2   -0.128388 
3   -0.128026 
4   -0.200989 
5   -0.197275 
6   -0.133487 
7   0.191754 
8   -0.325682 
9   0.504718 
10   -0.433063 
11   -0.579121 
12   0.134258 
13   0.136938 
14   0.134129 
15   0.149569 
16   0.12855 
17   0.149281 
18   0.154825 
19   0.153104 
20   0.417889 
 
>  <lowdin_charges> 
20 
1   -0.152998 
2   -0.151682 
3   -0.153918 
4   -0.16616 
5   -0.168874 
6   -0.190473 
7   -0.01423 
8   -0.16739 
9   0.099302 
10   -0.219828 
11   -0.346678 
12   0.158058 
13   0.161745 
14   0.160203 
15   0.165784 
16   0.156634 
17   0.149166 
18   0.150936 
19   0.159876 
20   0.370527 
 
$$$$ 
 
