PCCDB-ID:  69852 
public computational chemistry database (PCCDB) project, http://pccdb.org 
 
 26 26  0  0  0  0  0  0  0  0999 V2000 
    2.8813   -1.3485    0.7997 C   0  0  0  0  0  0  0  0  0  0  0  0 
    2.9907    4.9602    2.5764 C   0  0  0  0  0  0  0  0  0  0  0  0 
    0.8381    3.8645    1.8347 C   0  0  0  0  0  0  0  0  0  0  0  0 
    2.4559   -0.0800    0.0562 C   0  0  0  0  0  0  0  0  0  0  0  0 
    2.9586    3.5327    0.5013 C   0  0  0  0  0  0  0  0  0  0  0  0 
    2.7465    2.4567    2.7046 C   0  0  0  0  0  0  0  0  0  0  0  0 
    2.9307    1.1948    0.7319 C   0  0  0  0  0  0  0  0  0  0  0  0 
    2.3674    3.7248    1.9126 C   0  0  0  0  0  0  0  0  0  0  0  0 
    2.5546    2.2931   -0.0749 O   0  0  0  0  0  0  0  0  0  0  0  0 
    2.3488    1.2730    2.0183 O   0  0  0  0  0  0  0  0  0  0  0  0 
    2.5109   -2.2416    0.2852 H   0  0  0  0  0  0  0  0  0  0  0  0 
    2.4868   -1.3518    1.8200 H   0  0  0  0  0  0  0  0  0  0  0  0 
    3.9738   -1.4289    0.8601 H   0  0  0  0  0  0  0  0  0  0  0  0 
    2.7548    5.8699    2.0108 H   0  0  0  0  0  0  0  0  0  0  0  0 
    4.0831    4.8797    2.6406 H   0  0  0  0  0  0  0  0  0  0  0  0 
    2.6041    5.0953    3.5938 H   0  0  0  0  0  0  0  0  0  0  0  0 
    0.5570    4.7494    1.2507 H   0  0  0  0  0  0  0  0  0  0  0  0 
    0.4056    3.9740    2.8368 H   0  0  0  0  0  0  0  0  0  0  0  0 
    0.3918    2.9861    1.3623 H   0  0  0  0  0  0  0  0  0  0  0  0 
    1.3636   -0.0241   -0.0192 H   0  0  0  0  0  0  0  0  0  0  0  0 
    2.8503   -0.0756   -0.9664 H   0  0  0  0  0  0  0  0  0  0  0  0 
    4.0611    3.5758    0.5507 H   0  0  0  0  0  0  0  0  0  0  0  0 
    2.6185    4.3158   -0.1844 H   0  0  0  0  0  0  0  0  0  0  0  0 
    2.2483    2.4300    3.6793 H   0  0  0  0  0  0  0  0  0  0  0  0 
    3.8373    2.4361    2.8761 H   0  0  0  0  0  0  0  0  0  0  0  0 
    4.0341    1.2032    0.8463 H   0  0  0  0  0  0  0  0  0  0  0  0 
  1 13  1  0  0  0  0 
  1 12  1  0  0  0  0 
  2 15  1  0  0  0  0 
  2 16  1  0  0  0  0 
  3  8  1  0  0  0  0 
  3 18  1  0  0  0  0 
  4  7  1  0  0  0  0 
  4  1  1  0  0  0  0 
  5 22  1  0  0  0  0 
  5  8  1  0  0  0  0 
  6 25  1  0  0  0  0 
  6 24  1  0  0  0  0 
  7 26  1  0  0  0  0 
  7 10  1  0  0  0  0 
  8  2  1  0  0  0  0 
  8  6  1  0  0  0  0 
  9  5  1  0  0  0  0 
  9  7  1  0  0  0  0 
 10  6  1  0  0  0  0 
 11  1  1  0  0  0  0 
 14  2  1  0  0  0  0 
 17  3  1  0  0  0  0 
 19  3  1  0  0  0  0 
 20  4  1  0  0  0  0 
 21  4  1  0  0  0  0 
 23  5  1  0  0  0  0 
M  END 
>  <HBA> 
2 
 
>  <HBD> 
0 
 
>  <TPSA> 
18.46 
 
>  <cid> 
69852 
 
>  <dipole> 
1.6 
 
>  <excitation_energy_1> 
6.486 
 
>  <excitation_energy_2> 
6.853 
 
>  <excitation_energy_3> 
6.871 
 
>  <excitation_energy_4> 
7.013 
 
>  <homo_energy> 
-6.863 
 
>  <homo_lumo_gap> 
9.037 
 
>  <logP> 
1.796 
 
>  <lumo_energy> 
2.174 
 
>  <melting_point> 
-4.53 
 
>  <molecular_refractivity> 
40.37 
 
>  <oscillator_strength_1> 
0.0164 
 
>  <oscillator_strength_2> 
0.0379 
 
>  <oscillator_strength_3> 
0.0128 
 
>  <oscillator_strength_4> 
0.0001 
 
>  <open_babel_can_smiles> 
CCC1OCC(CO1)(C)C 
 
>  <mulliken_charges> 
26 
1   -0.451965 
2   -0.459097 
3   -0.445899 
4   -0.283192 
5   -0.034723 
6   -0.033409 
7   0.37384 
8   0.053581 
9   -0.486806 
10   -0.481689 
11   0.144611 
12   0.166634 
13   0.138819 
14   0.147484 
15   0.141835 
16   0.14733 
17   0.136438 
18   0.136207 
19   0.171901 
20   0.153917 
21   0.147038 
22   0.116893 
23   0.144368 
24   0.144184 
25   0.117441 
26   0.094258 
 
>  <lowdin_charges> 
26 
1   -0.44278 
2   -0.440521 
3   -0.445523 
4   -0.27772 
5   -0.135074 
6   -0.133698 
7   0.101537 
8   -0.022173 
9   -0.26381 
10   -0.264822 
11   0.152204 
12   0.158085 
13   0.14362 
14   0.153004 
15   0.145973 
16   0.151875 
17   0.147265 
18   0.14614 
19   0.163989 
20   0.154081 
21   0.153347 
22   0.124254 
23   0.151132 
24   0.149322 
25   0.124876 
26   0.105417 
 
$$$$ 
 
