PCCDB-ID:  19695 
public computational chemistry database (PCCDB) project, http://pccdb.org 
 
 31 30  0  0  0  0  0  0  0  0999 V2000 
    2.1193    2.6872    6.2080 C   0  0  0  0  0  0  0  0  0  0  0  0 
    3.6227   -0.3152    1.4788 C   0  0  0  0  0  0  0  0  0  0  0  0 
    3.9937    5.6968    3.4096 C   0  0  0  0  0  0  0  0  0  0  0  0 
    6.1744    5.5910    2.1409 C   0  0  0  0  0  0  0  0  0  0  0  0 
    3.3782    2.7214    5.3556 C   0  0  0  0  0  0  0  0  0  0  0  0 
    3.6098    0.1046    2.9461 C   0  0  0  0  0  0  0  0  0  0  0  0 
    5.1629    3.4415    2.9793 C   0  0  0  0  0  0  0  0  0  0  0  0 
    4.8594    4.8601    2.4548 C   0  0  0  0  0  0  0  0  0  0  0  0 
    3.9748    2.4743    3.0214 C   0  0  0  0  0  0  0  0  0  0  0  0 
    2.9735    2.7644    3.9842 O   0  0  0  0  0  0  0  0  0  0  0  0 
    4.5163    1.1817    3.2064 O   0  0  0  0  0  0  0  0  0  0  0  0 
    2.3800    2.6589    7.2721 H   0  0  0  0  0  0  0  0  0  0  0  0 
    1.5180    1.8027    5.9735 H   0  0  0  0  0  0  0  0  0  0  0  0 
    1.5038    3.5749    6.0272 H   0  0  0  0  0  0  0  0  0  0  0  0 
    4.6347   -0.5967    1.1696 H   0  0  0  0  0  0  0  0  0  0  0  0 
    3.2786    0.4938    0.8246 H   0  0  0  0  0  0  0  0  0  0  0  0 
    2.9604   -1.1751    1.3221 H   0  0  0  0  0  0  0  0  0  0  0  0 
    3.7948    6.6872    2.9827 H   0  0  0  0  0  0  0  0  0  0  0  0 
    4.5089    5.8500    4.3676 H   0  0  0  0  0  0  0  0  0  0  0  0 
    3.0368    5.2100    3.6144 H   0  0  0  0  0  0  0  0  0  0  0  0 
    5.9837    6.5905    1.7326 H   0  0  0  0  0  0  0  0  0  0  0  0 
    6.7784    5.0383    1.4114 H   0  0  0  0  0  0  0  0  0  0  0  0 
    6.7793    5.7142    3.0490 H   0  0  0  0  0  0  0  0  0  0  0  0 
    3.9973    1.8337    5.5336 H   0  0  0  0  0  0  0  0  0  0  0  0 
    3.9794    3.6079    5.6022 H   0  0  0  0  0  0  0  0  0  0  0  0 
    3.9477   -0.7235    3.5786 H   0  0  0  0  0  0  0  0  0  0  0  0 
    2.5994    0.3819    3.2716 H   0  0  0  0  0  0  0  0  0  0  0  0 
    5.6318    3.4939    3.9706 H   0  0  0  0  0  0  0  0  0  0  0  0 
    5.9018    2.9710    2.3198 H   0  0  0  0  0  0  0  0  0  0  0  0 
    4.3054    4.7510    1.5088 H   0  0  0  0  0  0  0  0  0  0  0  0 
    3.4220    2.5268    2.0720 H   0  0  0  0  0  0  0  0  0  0  0  0 
  1 12  1  0  0  0  0 
  2  6  1  0  0  0  0 
  3 20  1  0  0  0  0 
  3 19  1  0  0  0  0 
  4  8  1  0  0  0  0 
  4 23  1  0  0  0  0 
  5 24  1  0  0  0  0 
  5 25  1  0  0  0  0 
  5  1  1  0  0  0  0 
  6 11  1  0  0  0  0 
  6 27  1  0  0  0  0 
  6 26  1  0  0  0  0 
  7  9  1  0  0  0  0 
  7 28  1  0  0  0  0 
  8  7  1  0  0  0  0 
  8  3  1  0  0  0  0 
  9 11  1  0  0  0  0 
  9 10  1  0  0  0  0 
 10  5  1  0  0  0  0 
 13  1  1  0  0  0  0 
 14  1  1  0  0  0  0 
 15  2  1  0  0  0  0 
 16  2  1  0  0  0  0 
 17  2  1  0  0  0  0 
 18  3  1  0  0  0  0 
 21  4  1  0  0  0  0 
 22  4  1  0  0  0  0 
 29  7  1  0  0  0  0 
 30  8  1  0  0  0  0 
 31  9  1  0  0  0  0 
M  END 
>  <HBA> 
2 
 
>  <HBD> 
0 
 
>  <TPSA> 
18.46 
 
>  <cid> 
19695 
 
>  <dipole> 
0.37 
 
>  <excitation_energy_1> 
6.665 
 
>  <excitation_energy_2> 
6.789 
 
>  <excitation_energy_3> 
6.868 
 
>  <excitation_energy_4> 
7.003 
 
>  <homo_energy> 
-6.961 
 
>  <homo_lumo_gap> 
9.268 
 
>  <logP> 
2.432 
 
>  <lumo_energy> 
2.308 
 
>  <melting_point> 
-46.45 
 
>  <molecular_refractivity> 
47.55 
 
>  <oscillator_strength_1> 
0.0081 
 
>  <oscillator_strength_2> 
0.0195 
 
>  <oscillator_strength_3> 
0.006 
 
>  <oscillator_strength_4> 
0.0017 
 
>  <open_babel_can_smiles> 
CCOC(CC(C)C)OCC 
 
>  <mulliken_charges> 
31 
1   -0.454333 
2   -0.453487 
3   -0.450561 
4   -0.441106 
5   -0.026383 
6   -0.033988 
7   -0.289489 
8   -0.073448 
9   0.358506 
10   -0.484586 
11   -0.488306 
12   0.141592 
13   0.153283 
14   0.156327 
15   0.156497 
16   0.149537 
17   0.142484 
18   0.134683 
19   0.132164 
20   0.16826 
21   0.140151 
22   0.139202 
23   0.138954 
24   0.145576 
25   0.128155 
26   0.141107 
27   0.145551 
28   0.139962 
29   0.14688 
30   0.120408 
31   0.116407 
 
>  <lowdin_charges> 
31 
1   -0.446933 
2   -0.459183 
3   -0.45169 
4   -0.444627 
5   -0.133876 
6   -0.134554 
7   -0.2961 
8   -0.117856 
9   0.096268 
10   -0.275691 
11   -0.272182 
12   0.151343 
13   0.154251 
14   0.155525 
15   0.1547 
16   0.151192 
17   0.154155 
18   0.145168 
19   0.141481 
20   0.159846 
21   0.14732 
22   0.147967 
23   0.145771 
24   0.140789 
25   0.130631 
26   0.146164 
27   0.140306 
28   0.148512 
29   0.158226 
30   0.134017 
31   0.129063 
 
$$$$ 
 
