PCCDB-ID:  16630 
public computational chemistry database (PCCDB) project, http://pccdb.org 
 
 22 23  0  0  1  0  0  0  0  0999 V2000 
   -1.4859   -0.1213    0.1263 C   0  0  0  0  0  0  0  0  0  0  0  0 
   -0.8879    1.1407    0.1135 C   0  0  0  0  0  0  0  0  0  0  0  0 
   -0.6945   -1.2633   -0.0061 C   0  0  0  0  0  0  0  0  0  0  0  0 
    0.4952    1.2631   -0.0210 C   0  0  0  0  0  0  0  0  0  0  0  0 
    0.6879   -1.1409   -0.1509 C   0  0  0  0  0  0  0  0  0  0  0  0 
    3.5261    0.2542    1.1196 C   0  0  0  0  0  0  0  0  0  0  0  0 
    1.2935    0.1207   -0.1504 C   0  0  0  0  0  0  0  0  0  0  0  0 
    2.7961    0.2227   -0.2398 C   0  0  1  0  0  0  0  0  0  0  0  0 
    4.3690    1.8976   -0.2935 C   0  0  0  0  0  0  0  0  0  0  0  0 
    4.9534    2.9231   -0.7594 N   0  0  0  0  0  0  0  0  0  0  0  0 
    4.7069    1.0249    0.7486 N   0  0  0  0  0  0  0  0  0  0  0  0 
    3.2019    1.4585   -0.8569 O   0  0  0  0  0  0  0  0  0  0  0  0 
   -2.5636   -0.2138    0.2309 H   0  0  0  0  0  0  0  0  0  0  0  0 
   -1.5001    2.0341    0.2030 H   0  0  0  0  0  0  0  0  0  0  0  0 
   -1.1527   -2.2486   -0.0091 H   0  0  0  0  0  0  0  0  0  0  0  0 
    0.9610    2.2429   -0.0494 H   0  0  0  0  0  0  0  0  0  0  0  0 
    1.2998   -2.0329   -0.2702 H   0  0  0  0  0  0  0  0  0  0  0  0 
    3.7821   -0.7495    1.4717 H   0  0  0  0  0  0  0  0  0  0  0  0 
    2.9085    0.7527    1.8815 H   0  0  0  0  0  0  0  0  0  0  0  0 
    3.1941   -0.6035   -0.8443 H   0  0  0  0  0  0  0  0  0  0  0  0 
    5.7995    3.1282   -0.2267 H   0  0  0  0  0  0  0  0  0  0  0  0 
    5.2710    1.4219    1.4893 H   0  0  0  0  0  0  0  0  0  0  0  0 
  1 13  1  0  0  0  0 
  2  1  1  0  0  0  0 
  2 14  1  0  0  0  0 
  3  1  2  0  0  0  0 
  4  2  2  0  0  0  0 
  5  7  2  0  0  0  0 
  5  3  1  0  0  0  0 
  6 18  1  0  0  0  0 
  6 19  1  0  0  0  0 
  7  4  1  0  0  0  0 
  8 20  1  6  0  0  0 
  8  7  1  0  0  0  0 
  8  6  1  0  0  0  0 
  9 11  1  0  0  0  0 
 10  9  2  0  0  0  0 
 10 21  1  0  0  0  0 
 11  6  1  0  0  0  0 
 11 22  1  0  0  0  0 
 12  9  1  0  0  0  0 
 12  8  1  0  0  0  0 
 15  3  1  0  0  0  0 
 16  4  1  0  0  0  0 
 17  5  1  0  0  0  0 
M  END 
>  <HBA> 
3 
 
>  <HBD> 
1 
 
>  <TPSA> 
47.61 
 
>  <cid> 
16630 
 
>  <dipole> 
4.65 
 
>  <excitation_energy_1> 
5.281 
 
>  <excitation_energy_2> 
5.319 
 
>  <excitation_energy_3> 
5.528 
 
>  <excitation_energy_4> 
5.606 
 
>  <homo_energy> 
-6.348 
 
>  <homo_lumo_gap> 
6.071 
 
>  <logP> 
1.208 
 
>  <lumo_energy> 
-0.278 
 
>  <melting_point> 
91.56 
 
>  <molecular_refractivity> 
49.71 
 
>  <oscillator_strength_1> 
0.0004 
 
>  <oscillator_strength_2> 
0.0052 
 
>  <oscillator_strength_3> 
0.0063 
 
>  <oscillator_strength_4> 
0.0067 
 
>  <open_babel_can_smiles> 
N=C1NC[C@H](O1)c1ccccc1 
 
>  <mulliken_charges> 
22 
1   -0.125249 
2   -0.132101 
3   -0.131126 
4   -0.173223 
5   -0.180392 
6   -0.146429 
7   0.130064 
8   0.071189 
9   0.67756 
10   -0.647591 
11   -0.613774 
12   -0.482208 
13   0.132857 
14   0.135778 
15   0.133176 
16   0.155776 
17   0.126434 
18   0.160094 
19   0.155624 
20   0.156205 
21   0.273482 
22   0.323855 
 
>  <lowdin_charges> 
22 
1   -0.152024 
2   -0.151797 
3   -0.153207 
4   -0.155658 
5   -0.166593 
6   -0.207072 
7   -0.017581 
8   0.010299 
9   0.157065 
10   -0.44128 
11   -0.327544 
12   -0.190501 
13   0.157484 
14   0.161087 
15   0.159108 
16   0.170304 
17   0.156293 
18   0.156485 
19   0.144714 
20   0.152155 
21   0.256365 
22   0.281898 
 
$$$$ 
 
