PCCDB-ID:  23683 
public computational chemistry database (PCCDB) project, http://pccdb.org 
 
 26 25  0  0  0  0  0  0  0  0999 V2000 
    2.7577   -1.6737   -2.0234 C   0  0  0  0  0  0  0  0  0  0  0  0 
    8.5453   -1.6906    6.8084 C   0  0  0  0  0  0  0  0  0  0  0  0 
    3.5071   -0.7503   -1.0770 C   0  0  0  0  0  0  0  0  0  0  0  0 
    7.7811   -2.6085    5.8684 C   0  0  0  0  0  0  0  0  0  0  0  0 
    5.0225   -1.6069    2.1509 C   0  0  0  0  0  0  0  0  0  0  0  0 
    6.2517   -1.7425    2.6497 C   0  0  0  0  0  0  0  0  0  0  0  0 
    4.6721   -0.7373    0.9809 C   0  0  0  0  0  0  0  0  0  0  0  0 
    6.6030   -2.6140    3.8181 C   0  0  0  0  0  0  0  0  0  0  0  0 
    3.9633   -1.5137    0.0269 O   0  0  0  0  0  0  0  0  0  0  0  0 
    7.3242   -1.8425    4.7667 O   0  0  0  0  0  0  0  0  0  0  0  0 
    2.3944   -1.1174   -2.8945 H   0  0  0  0  0  0  0  0  0  0  0  0 
    1.8997   -2.1277   -1.5172 H   0  0  0  0  0  0  0  0  0  0  0  0 
    3.4133   -2.4780   -2.3727 H   0  0  0  0  0  0  0  0  0  0  0  0 
    8.9102   -2.2492    7.6774 H   0  0  0  0  0  0  0  0  0  0  0  0 
    7.8992   -0.8804    7.1616 H   0  0  0  0  0  0  0  0  0  0  0  0 
    9.4035   -1.2446    6.2954 H   0  0  0  0  0  0  0  0  0  0  0  0 
    2.8498    0.0657   -0.7284 H   0  0  0  0  0  0  0  0  0  0  0  0 
    4.3613   -0.2778   -1.5925 H   0  0  0  0  0  0  0  0  0  0  0  0 
    6.9263   -3.0727    6.3904 H   0  0  0  0  0  0  0  0  0  0  0  0 
    8.4286   -3.4309    5.5163 H   0  0  0  0  0  0  0  0  0  0  0  0 
    4.1855   -2.1396    2.6028 H   0  0  0  0  0  0  0  0  0  0  0  0 
    7.0889   -1.2108    2.1970 H   0  0  0  0  0  0  0  0  0  0  0  0 
    5.5812   -0.2999    0.5349 H   0  0  0  0  0  0  0  0  0  0  0  0 
    4.0382    0.1054    1.3151 H   0  0  0  0  0  0  0  0  0  0  0  0 
    7.2277   -3.4621    3.4805 H   0  0  0  0  0  0  0  0  0  0  0  0 
    5.6934   -3.0437    4.2707 H   0  0  0  0  0  0  0  0  0  0  0  0 
  1 12  1  0  0  0  0 
  1  3  1  0  0  0  0 
  2 15  1  0  0  0  0 
  2 14  1  0  0  0  0 
  3 17  1  0  0  0  0 
  3  9  1  0  0  0  0 
  4 19  1  0  0  0  0 
  4  2  1  0  0  0  0 
  5 21  1  0  0  0  0 
  5  6  2  0  0  0  0 
  6  8  1  0  0  0  0 
  7 24  1  0  0  0  0 
  7  5  1  0  0  0  0 
  8 26  1  0  0  0  0 
  8 10  1  0  0  0  0 
  9  7  1  0  0  0  0 
 10  4  1  0  0  0  0 
 11  1  1  0  0  0  0 
 13  1  1  0  0  0  0 
 16  2  1  0  0  0  0 
 18  3  1  0  0  0  0 
 20  4  1  0  0  0  0 
 22  6  1  0  0  0  0 
 23  7  1  0  0  0  0 
 25  8  1  0  0  0  0 
M  END 
>  <HBA> 
2 
 
>  <HBD> 
0 
 
>  <TPSA> 
18.46 
 
>  <cid> 
23683 
 
>  <dipole> 
0.01 
 
>  <excitation_energy_1> 
6.082 
 
>  <excitation_energy_2> 
6.167 
 
>  <excitation_energy_3> 
6.508 
 
>  <excitation_energy_4> 
6.564 
 
>  <homo_energy> 
-6.659 
 
>  <homo_lumo_gap> 
6.996 
 
>  <logP> 
1.616 
 
>  <lumo_energy> 
0.337 
 
>  <melting_point> 
-36.0 
 
>  <molecular_refractivity> 
42.27 
 
>  <oscillator_strength_1> 
0.0546 
 
>  <oscillator_strength_2> 
0.0 
 
>  <oscillator_strength_3> 
0.0181 
 
>  <oscillator_strength_4> 
0.0 
 
>  <open_babel_can_smiles> 
CCOC/C=C/COCC 
 
>  <mulliken_charges> 
26 
1   -0.452511 
2   -0.452506 
3   -0.001416 
4   -0.001414 
5   -0.099303 
6   -0.099321 
7   -0.054962 
8   -0.054811 
9   -0.471644 
10   -0.471767 
11   0.141886 
12   0.157481 
13   0.158979 
14   0.141891 
15   0.158972 
16   0.157493 
17   0.116902 
18   0.117628 
19   0.117647 
20   0.116907 
21   0.13491 
22   0.135118 
23   0.125528 
24   0.12622 
25   0.126494 
26   0.125601 
 
>  <lowdin_charges> 
26 
1   -0.450576 
2   -0.450568 
3   -0.127354 
4   -0.127333 
5   -0.16131 
6   -0.161076 
7   -0.125642 
8   -0.125651 
9   -0.275892 
10   -0.275848 
11   0.154124 
12   0.157291 
13   0.158279 
14   0.15414 
15   0.158265 
16   0.157297 
17   0.124526 
18   0.1254 
19   0.125402 
20   0.124519 
21   0.157107 
22   0.157229 
23   0.1312 
24   0.132562 
25   0.132661 
26   0.131246 
 
$$$$ 
 
