PCCDB-ID:  72670 
public computational chemistry database (PCCDB) project, http://pccdb.org 
 
 16 16  0  0  0  0  0  0  0  0999 V2000 
    0.9590    0.0197    0.0793 C   0  0  0  0  0  0  0  0  0  0  0  0 
    6.4375   -0.0083    0.0951 C   0  0  0  0  0  0  0  0  0  0  0  0 
    2.3087    0.0159    0.0887 C   0  0  0  0  0  0  0  0  0  0  0  0 
    5.0878   -0.0045    0.0955 C   0  0  0  0  0  0  0  0  0  0  0  0 
    3.1321   -1.2207    0.0921 C   0  0  0  0  0  0  0  0  0  0  0  0 
    4.2644    1.2321    0.0969 C   0  0  0  0  0  0  0  0  0  0  0  0 
    2.9810    1.2375    0.0942 N   0  0  0  0  0  0  0  0  0  0  0  0 
    4.4154   -1.2261    0.0951 N   0  0  0  0  0  0  0  0  0  0  0  0 
    2.5345   -2.4332    0.0910 O   0  0  0  0  0  0  0  0  0  0  0  0 
    4.8619    2.4446    0.1002 O   0  0  0  0  0  0  0  0  0  0  0  0 
    0.3455   -0.8762    0.0704 H   0  0  0  0  0  0  0  0  0  0  0  0 
    0.4314    0.9664    0.0776 H   0  0  0  0  0  0  0  0  0  0  0  0 
    7.0511    0.8876    0.0961 H   0  0  0  0  0  0  0  0  0  0  0  0 
    6.9651   -0.9551    0.0931 H   0  0  0  0  0  0  0  0  0  0  0  0 
    1.5720   -2.3258    0.0987 H   0  0  0  0  0  0  0  0  0  0  0  0 
    5.8245    2.3372    0.1039 H   0  0  0  0  0  0  0  0  0  0  0  0 
  1  3  2  0  0  0  0 
  2  4  2  0  0  0  0 
  2 13  1  0  0  0  0 
  3  5  1  0  0  0  0 
  3  7  1  0  0  0  0 
  4  6  1  0  0  0  0 
  5  8  2  0  0  0  0 
  6 10  1  0  0  0  0 
  7  6  2  0  0  0  0 
  8  4  1  0  0  0  0 
  9  5  1  0  0  0  0 
  9 15  1  0  0  0  0 
 10 16  1  0  0  0  0 
 11  1  1  0  0  0  0 
 12  1  1  0  0  0  0 
 14  2  1  0  0  0  0 
M  END 
>  <HBA> 
2 
 
>  <HBD> 
2 
 
>  <TPSA> 
65.72 
 
>  <cid> 
72670 
 
>  <dipole> 
0.01 
 
>  <excitation_energy_1> 
3.702 
 
>  <excitation_energy_2> 
4.257 
 
>  <excitation_energy_3> 
4.338 
 
>  <excitation_energy_4> 
4.877 
 
>  <homo_energy> 
-6.172 
 
>  <homo_lumo_gap> 
4.049 
 
>  <logP> 
-2.116 
 
>  <lumo_energy> 
-2.123 
 
>  <melting_point> 
184.16 
 
>  <molecular_refractivity> 
37.98 
 
>  <oscillator_strength_1> 
0.0 
 
>  <oscillator_strength_2> 
0.684 
 
>  <oscillator_strength_3> 
0.0 
 
>  <oscillator_strength_4> 
0.0007 
 
>  <open_babel_can_smiles> 
Oc1nc(=C)c(nc1=C)O 
 
>  <mulliken_charges> 
16 
1   -0.434644 
2   -0.434661 
3   0.34616 
4   0.346197 
5   0.456282 
6   0.456267 
7   -0.521554 
8   -0.521567 
9   -0.586645 
10   -0.586643 
11   0.137925 
12   0.183167 
13   0.137919 
14   0.183171 
15   0.419309 
16   0.419317 
 
>  <lowdin_charges> 
16 
1   -0.339539 
2   -0.339535 
3   0.013988 
4   0.01399 
5   0.1293 
6   0.129303 
7   -0.169143 
8   -0.169141 
9   -0.33444 
10   -0.334434 
11   0.15537 
12   0.186231 
13   0.155364 
14   0.186234 
15   0.358227 
16   0.358225 
 
$$$$ 
 
