PCCDB-ID:  50374 
public computational chemistry database (PCCDB) project, http://pccdb.org 
 
 33 33  0  0  1  0  0  0  0  0999 V2000 
    4.6273   -3.4643    1.9929 C   0  0  0  0  0  0  0  0  0  0  0  0 
    4.5196   -3.4902   -9.7033 C   0  0  0  0  0  0  0  0  0  0  0  0 
    5.2544   -2.7983    1.2066 C   0  0  0  0  0  0  0  0  0  0  0  0 
    4.4442   -4.5807   -8.6462 C   0  0  0  0  0  0  0  0  0  0  0  0 
    6.0366   -1.9754    0.2870 C   0  0  0  0  0  0  0  0  0  0  0  0 
    6.2288   -3.2908   -3.7803 C   0  0  0  0  0  0  0  0  0  0  0  0 
    7.1294   -3.9846   -6.1464 C   0  0  0  0  0  0  0  0  0  0  0  0 
    6.3431   -1.4378   -1.9866 C   0  0  0  0  0  0  0  0  0  0  0  0 
    7.2802   -3.1224   -4.8903 C   0  0  1  0  0  0  0  0  0  0  0  0 
    5.8607   -1.8416   -3.3766 C   0  0  1  0  0  0  0  0  0  0  0  0 
    5.7957   -3.7932   -6.8473 C   0  0  0  0  0  0  0  0  0  0  0  0 
    7.2402   -1.6323   -5.2373 C   0  0  0  0  0  0  0  0  0  0  0  0 
    4.9566   -2.9726   -6.5344 O   0  0  0  0  0  0  0  0  0  0  0  0 
    7.8062   -1.0858   -6.1489 O   0  0  0  0  0  0  0  0  0  0  0  0 
    5.6430   -2.2372   -1.0520 O   0  0  0  0  0  0  0  0  0  0  0  0 
    5.6674   -4.6605   -7.8690 O   0  0  0  0  0  0  0  0  0  0  0  0 
    6.4947   -0.9578   -4.3255 O   0  0  0  0  0  0  0  0  0  0  0  0 
    4.0640   -4.0564    2.6781 H   0  0  0  0  0  0  0  0  0  0  0  0 
    3.6118   -3.5110  -10.3172 H   0  0  0  0  0  0  0  0  0  0  0  0 
    5.3821   -3.6423  -10.3605 H   0  0  0  0  0  0  0  0  0  0  0  0 
    4.5980   -2.5043   -9.2377 H   0  0  0  0  0  0  0  0  0  0  0  0 
    4.3533   -5.5720   -9.0967 H   0  0  0  0  0  0  0  0  0  0  0  0 
    3.6068   -4.4170   -7.9631 H   0  0  0  0  0  0  0  0  0  0  0  0 
    7.1121   -2.1862    0.4180 H   0  0  0  0  0  0  0  0  0  0  0  0 
    5.8940   -0.9080    0.5282 H   0  0  0  0  0  0  0  0  0  0  0  0 
    6.6097   -3.8441   -2.9178 H   0  0  0  0  0  0  0  0  0  0  0  0 
    5.3438   -3.8136   -4.1458 H   0  0  0  0  0  0  0  0  0  0  0  0 
    7.2586   -5.0487   -5.9187 H   0  0  0  0  0  0  0  0  0  0  0  0 
    7.9179   -3.7200   -6.8613 H   0  0  0  0  0  0  0  0  0  0  0  0 
    6.1492   -0.3666   -1.8198 H   0  0  0  0  0  0  0  0  0  0  0  0 
    7.4328   -1.5966   -1.9063 H   0  0  0  0  0  0  0  0  0  0  0  0 
    8.2881   -3.3055   -4.4949 H   0  0  0  0  0  0  0  0  0  0  0  0 
    4.7840   -1.6669   -3.4476 H   0  0  0  0  0  0  0  0  0  0  0  0 
  1 18  1  0  0  0  0 
  2 21  1  0  0  0  0 
  2  4  1  0  0  0  0 
  3  1  3  0  0  0  0 
  4 23  1  0  0  0  0 
  4 16  1  0  0  0  0 
  5 24  1  0  0  0  0 
  5 25  1  0  0  0  0 
  5  3  1  0  0  0  0 
  6 10  1  0  0  0  0 
  6 26  1  0  0  0  0 
  7 28  1  0  0  0  0 
  7  9  1  0  0  0  0 
  8 31  1  0  0  0  0 
  8 30  1  0  0  0  0 
  8 15  1  0  0  0  0 
  9 32  1  1  0  0  0 
  9  6  1  0  0  0  0 
 10 33  1  6  0  0  0 
 10  8  1  0  0  0  0 
 11 13  2  0  0  0  0 
 11  7  1  0  0  0  0 
 12  9  1  0  0  0  0 
 12 17  1  0  0  0  0 
 14 12  2  0  0  0  0 
 15  5  1  0  0  0  0 
 16 11  1  0  0  0  0 
 17 10  1  0  0  0  0 
 19  2  1  0  0  0  0 
 20  2  1  0  0  0  0 
 22  4  1  0  0  0  0 
 27  6  1  0  0  0  0 
 29  7  1  0  0  0  0 
M  END 
>  <HBA> 
5 
 
>  <HBD> 
0 
 
>  <TPSA> 
61.83 
 
>  <cid> 
50374 
 
>  <dipole> 
3.65 
 
>  <excitation_energy_1> 
5.713 
 
>  <excitation_energy_2> 
5.846 
 
>  <excitation_energy_3> 
6.086 
 
>  <excitation_energy_4> 
6.438 
 
>  <homo_energy> 
-7.129 
 
>  <homo_lumo_gap> 
7.271 
 
>  <logP> 
0.521 
 
>  <lumo_energy> 
0.142 
 
>  <melting_point> 
25.31 
 
>  <molecular_refractivity> 
59.5 
 
>  <oscillator_strength_1> 
0.0003 
 
>  <oscillator_strength_2> 
0.0006 
 
>  <oscillator_strength_3> 
0.0003 
 
>  <oscillator_strength_4> 
0.0022 
 
>  <open_babel_can_smiles> 
CCOC(=O)C[C@@H]1C[C@H](OC1=O)COCC#C 
 
>  <mulliken_charges> 
33 
1   -0.503767 
2   -0.464315 
3   0.358214 
4   -0.046048 
5   -0.139677 
6   -0.315031 
7   -0.367667 
8   -0.020245 
9   -0.207088 
10   0.119217 
11   0.63919 
12   0.64237 
13   -0.484466 
14   -0.471613 
15   -0.476236 
16   -0.463422 
17   -0.463047 
18   0.197863 
19   0.151739 
20   0.160176 
21   0.18539 
22   0.155143 
23   0.169148 
24   0.156198 
25   0.159286 
26   0.164715 
27   0.172479 
28   0.177212 
29   0.203066 
30   0.146304 
31   0.122051 
32   0.171558 
33   0.171302 
 
>  <lowdin_charges> 
33 
1   -0.230155 
2   -0.455304 
3   -0.042493 
4   -0.126499 
5   -0.107114 
6   -0.296184 
7   -0.297105 
8   -0.137715 
9   -0.158924 
10   0.007171 
11   0.202387 
12   0.192721 
13   -0.270131 
14   -0.246787 
15   -0.263272 
16   -0.190014 
17   -0.174598 
18   0.209288 
19   0.160201 
20   0.158333 
21   0.169487 
22   0.153227 
23   0.158525 
24   0.149382 
25   0.151697 
26   0.161876 
27   0.167132 
28   0.170962 
29   0.188612 
30   0.139981 
31   0.126329 
32   0.170193 
33   0.15879 
 
$$$$ 
 
