PCCDB-ID:  35526 
public computational chemistry database (PCCDB) project, http://pccdb.org 
 
 24 24  0  0  0  0  0  0  0  0999 V2000 
    0.7459    0.1981   -0.0786 C   0  0  0  0  0  0  0  0  0  0  0  0 
    3.1114   -4.4312    4.0514 C   0  0  0  0  0  0  0  0  0  0  0  0 
    1.9644    0.0816    0.8437 C   0  0  0  0  0  0  0  0  0  0  0  0 
    1.9972   -4.3737    3.0004 C   0  0  0  0  0  0  0  0  0  0  0  0 
    2.9716   -2.1532    0.1561 C   0  0  0  0  0  0  0  0  0  0  0  0 
    3.1929   -3.4474    0.9524 C   0  0  0  0  0  0  0  0  0  0  0  0 
    1.7870   -2.0301    2.1640 C   0  0  0  0  0  0  0  0  0  0  0  0 
    2.3445   -1.2896    1.1539 N   0  0  0  0  0  0  0  0  0  0  0  0 
    2.1801   -3.3326    1.9991 N   0  0  0  0  0  0  0  0  0  0  0  0 
    0.7947   -1.4450    3.3875 S   0  0  0  0  0  0  0  0  0  0  0  0 
    0.5255    1.2536   -0.2743 H   0  0  0  0  0  0  0  0  0  0  0  0 
   -0.1313   -0.2534    0.3946 H   0  0  0  0  0  0  0  0  0  0  0  0 
    0.9144   -0.2912   -1.0449 H   0  0  0  0  0  0  0  0  0  0  0  0 
    2.9136   -5.2423    4.7612 H   0  0  0  0  0  0  0  0  0  0  0  0 
    3.1544   -3.4906    4.6088 H   0  0  0  0  0  0  0  0  0  0  0  0 
    4.0926   -4.6162    3.5990 H   0  0  0  0  0  0  0  0  0  0  0  0 
    1.7592    0.5733    1.7974 H   0  0  0  0  0  0  0  0  0  0  0  0 
    2.8385    0.5680    0.3928 H   0  0  0  0  0  0  0  0  0  0  0  0 
    1.0370   -4.1793    3.4840 H   0  0  0  0  0  0  0  0  0  0  0  0 
    1.9199   -5.3291    2.4662 H   0  0  0  0  0  0  0  0  0  0  0  0 
    2.3027   -2.3202   -0.7016 H   0  0  0  0  0  0  0  0  0  0  0  0 
    3.9040   -1.7154   -0.2150 H   0  0  0  0  0  0  0  0  0  0  0  0 
    4.2053   -3.4872    1.3817 H   0  0  0  0  0  0  0  0  0  0  0  0 
    3.0383   -4.3497    0.3519 H   0  0  0  0  0  0  0  0  0  0  0  0 
  1 12  1  0  0  0  0 
  1  3  1  0  0  0  0 
  2 15  1  0  0  0  0 
  2 14  1  0  0  0  0 
  3  8  1  0  0  0  0 
  3 17  1  0  0  0  0 
  4 19  1  0  0  0  0 
  4  2  1  0  0  0  0 
  5  6  1  0  0  0  0 
  5  8  1  0  0  0  0 
  6 23  1  0  0  0  0 
  6  9  1  0  0  0  0 
  7 10  2  0  0  0  0 
  8  7  1  0  0  0  0 
  9  7  1  0  0  0  0 
  9  4  1  0  0  0  0 
 11  1  1  0  0  0  0 
 13  1  1  0  0  0  0 
 16  2  1  0  0  0  0 
 18  3  1  0  0  0  0 
 20  4  1  0  0  0  0 
 21  5  1  0  0  0  0 
 22  5  1  0  0  0  0 
 24  6  1  0  0  0  0 
M  END 
>  <HBA> 
3 
 
>  <HBD> 
0 
 
>  <TPSA> 
38.57 
 
>  <cid> 
35526 
 
>  <dipole> 
5.25 
 
>  <excitation_energy_1> 
4.19 
 
>  <excitation_energy_2> 
4.774 
 
>  <excitation_energy_3> 
4.988 
 
>  <excitation_energy_4> 
5.09 
 
>  <homo_energy> 
-5.342 
 
>  <homo_lumo_gap> 
5.589 
 
>  <logP> 
0.804 
 
>  <lumo_energy> 
0.248 
 
>  <melting_point> 
30.98 
 
>  <molecular_refractivity> 
55.06 
 
>  <oscillator_strength_1> 
0.0013 
 
>  <oscillator_strength_2> 
0.0035 
 
>  <oscillator_strength_3> 
0.0221 
 
>  <oscillator_strength_4> 
0.0824 
 
>  <open_babel_can_smiles> 
CCN1CCN(C1=S)CC 
 
>  <mulliken_charges> 
24 
1   -0.45265 
2   -0.452354 
3   -0.135656 
4   -0.136119 
5   -0.136449 
6   -0.13632 
7   0.370833 
8   -0.421794 
9   -0.421175 
10   -0.325052 
11   0.150496 
12   0.18168 
13   0.139448 
14   0.150427 
15   0.181813 
16   0.139465 
17   0.194984 
18   0.13936 
19   0.194994 
20   0.139308 
21   0.157383 
22   0.159999 
23   0.157434 
24   0.159945 
 
>  <lowdin_charges> 
24 
1   -0.45446 
2   -0.455593 
3   -0.194523 
4   -0.194638 
5   -0.194174 
6   -0.192475 
7   0.003453 
8   -0.101266 
9   -0.100554 
10   -0.3011 
11   0.155995 
12   0.168564 
13   0.144886 
14   0.157823 
15   0.168022 
16   0.144835 
17   0.178578 
18   0.145092 
19   0.178293 
20   0.144183 
21   0.145197 
22   0.155129 
23   0.143692 
24   0.155044 
 
$$$$ 
 
