PCCDB-ID:  45692 
public computational chemistry database (PCCDB) project, http://pccdb.org 
 
 25 25  0  0  0  0  0  0  0  0999 V2000 
    1.0008   -0.0940    0.0701 C   0  0  0  0  0  0  0  0  0  0  0  0 
    3.0217    1.1809   -0.7325 C   0  0  0  0  0  0  0  0  0  0  0  0 
    3.1134   -0.0721    1.4533 C   0  0  0  0  0  0  0  0  0  0  0  0 
    3.9118   -2.9208   -2.0119 C   0  0  0  0  0  0  0  0  0  0  0  0 
    3.7868   -1.5088   -1.8418 C   0  0  0  0  0  0  0  0  0  0  0  0 
    3.2311   -3.4962   -0.9794 C   0  0  0  0  0  0  0  0  0  0  0  0 
    3.0369   -1.3044   -0.7144 C   0  0  0  0  0  0  0  0  0  0  0  0 
    3.0135   -4.9134   -0.6355 C   0  0  0  0  0  0  0  0  0  0  0  0 
    2.5466   -0.0789    0.0137 C   0  0  0  0  0  0  0  0  0  0  0  0 
    2.2646   -5.1324    0.4871 N   0  0  0  0  0  0  0  0  0  0  0  0 
    3.4814   -5.8150   -1.3227 O   0  0  0  0  0  0  0  0  0  0  0  0 
    2.6906   -2.5166   -0.1774 O   0  0  0  0  0  0  0  0  0  0  0  0 
    0.6340    0.7880    0.6082 H   0  0  0  0  0  0  0  0  0  0  0  0 
    0.6329   -0.9860    0.5872 H   0  0  0  0  0  0  0  0  0  0  0  0 
    0.5701   -0.0841   -0.9372 H   0  0  0  0  0  0  0  0  0  0  0  0 
    2.6704    2.0777   -0.2105 H   0  0  0  0  0  0  0  0  0  0  0  0 
    2.6293    1.2119   -1.7551 H   0  0  0  0  0  0  0  0  0  0  0  0 
    4.1152    1.2281   -0.7828 H   0  0  0  0  0  0  0  0  0  0  0  0 
    2.7537    0.8091    1.9974 H   0  0  0  0  0  0  0  0  0  0  0  0 
    4.2086   -0.0453    1.4444 H   0  0  0  0  0  0  0  0  0  0  0  0 
    2.8009   -0.9643    2.0052 H   0  0  0  0  0  0  0  0  0  0  0  0 
    4.4331   -3.4564   -2.7919 H   0  0  0  0  0  0  0  0  0  0  0  0 
    4.2037   -0.7411   -2.4774 H   0  0  0  0  0  0  0  0  0  0  0  0 
    1.8869   -4.3750    1.0350 H   0  0  0  0  0  0  0  0  0  0  0  0 
    2.0845   -6.0869    0.7597 H   0  0  0  0  0  0  0  0  0  0  0  0 
  1 14  1  0  0  0  0 
  1 13  1  0  0  0  0 
  2 16  1  0  0  0  0 
  2  9  1  0  0  0  0 
  3 19  1  0  0  0  0 
  3 21  1  0  0  0  0 
  4  5  1  0  0  0  0 
  4  6  2  0  0  0  0 
  5  7  2  0  0  0  0 
  6  8  1  0  0  0  0 
  6 12  1  0  0  0  0 
  7 12  1  0  0  0  0 
  7  9  1  0  0  0  0 
  8 10  1  0  0  0  0 
  9  1  1  0  0  0  0 
  9  3  1  0  0  0  0 
 10 25  1  0  0  0  0 
 10 24  1  0  0  0  0 
 11  8  2  0  0  0  0 
 15  1  1  0  0  0  0 
 17  2  1  0  0  0  0 
 18  2  1  0  0  0  0 
 20  3  1  0  0  0  0 
 22  4  1  0  0  0  0 
 23  5  1  0  0  0  0 
M  END 
>  <HBA> 
3 
 
>  <HBD> 
1 
 
>  <TPSA> 
56.23 
 
>  <cid> 
45692 
 
>  <dipole> 
4.2 
 
>  <excitation_energy_1> 
4.742 
 
>  <excitation_energy_2> 
4.991 
 
>  <excitation_energy_3> 
5.519 
 
>  <excitation_energy_4> 
5.799 
 
>  <homo_energy> 
-6.117 
 
>  <homo_lumo_gap> 
5.431 
 
>  <logP> 
2.376 
 
>  <lumo_energy> 
-0.686 
 
>  <melting_point> 
102.15 
 
>  <molecular_refractivity> 
46.07 
 
>  <oscillator_strength_1> 
0.0 
 
>  <oscillator_strength_2> 
0.3949 
 
>  <oscillator_strength_3> 
0.0044 
 
>  <oscillator_strength_4> 
0.0295 
 
>  <open_babel_can_smiles> 
NC(=O)c1ccc(o1)C(C)(C)C 
 
>  <mulliken_charges> 
25 
1   -0.442637 
2   -0.454854 
3   -0.442916 
4   -0.184509 
5   -0.22974 
6   0.293048 
7   0.385287 
8   0.541075 
9   0.004016 
10   -0.767536 
11   -0.521259 
12   -0.522774 
13   0.144024 
14   0.151422 
15   0.151034 
16   0.14816 
17   0.15068 
18   0.150597 
19   0.144072 
20   0.151116 
21   0.1517 
22   0.167073 
23   0.143088 
24   0.346585 
25   0.343248 
 
>  <lowdin_charges> 
25 
1   -0.439931 
2   -0.436705 
3   -0.43838 
4   -0.166331 
5   -0.222341 
6   0.025938 
7   0.086955 
8   0.162441 
9   0.011761 
10   -0.470481 
11   -0.312497 
12   -0.117214 
13   0.150947 
14   0.15387 
15   0.153268 
16   0.154731 
17   0.152239 
18   0.151098 
19   0.150918 
20   0.151871 
21   0.153957 
22   0.185349 
23   0.172329 
24   0.293007 
25   0.293201 
 
$$$$ 
 
