PCCDB-ID:  19855 
public computational chemistry database (PCCDB) project, http://pccdb.org 
 
 27 26  0  0  0  0  0  0  0  0999 V2000 
   -0.5609    1.7125    0.2552 C   0  0  0  0  0  0  0  0  0  0  0  0 
   -0.7449   -1.3318   -2.1069 C   0  0  0  0  0  0  0  0  0  0  0  0 
    5.3872   -0.6697    2.8006 C   0  0  0  0  0  0  0  0  0  0  0  0 
    0.6220    0.9966   -0.4065 C   0  0  0  0  0  0  0  0  0  0  0  0 
   -0.4973   -1.3392   -0.5915 C   0  0  0  0  0  0  0  0  0  0  0  0 
    4.7963   -0.3071    1.6601 C   0  0  0  0  0  0  0  0  0  0  0  0 
    2.0196   -1.1104   -0.6232 C   0  0  0  0  0  0  0  0  0  0  0  0 
    0.7103   -0.5105   -0.0930 C   0  0  0  0  0  0  0  0  0  0  0  0 
    3.6039   -1.0370    1.1574 C   0  0  0  0  0  0  0  0  0  0  0  0 
    3.0761   -1.9857    1.7040 O   0  0  0  0  0  0  0  0  0  0  0  0 
    3.1810   -0.4998   -0.0128 O   0  0  0  0  0  0  0  0  0  0  0  0 
   -0.5229    2.7903    0.0608 H   0  0  0  0  0  0  0  0  0  0  0  0 
   -0.5502    1.5708    1.3431 H   0  0  0  0  0  0  0  0  0  0  0  0 
   -1.5244    1.3466   -0.1168 H   0  0  0  0  0  0  0  0  0  0  0  0 
   -1.6173   -1.9474   -2.3533 H   0  0  0  0  0  0  0  0  0  0  0  0 
    0.1059   -1.7364   -2.6675 H   0  0  0  0  0  0  0  0  0  0  0  0 
   -0.9404   -0.3222   -2.4852 H   0  0  0  0  0  0  0  0  0  0  0  0 
    6.2597   -0.1486    3.1827 H   0  0  0  0  0  0  0  0  0  0  0  0 
    5.0017   -1.5062    3.3765 H   0  0  0  0  0  0  0  0  0  0  0  0 
    1.5557    1.4668   -0.0750 H   0  0  0  0  0  0  0  0  0  0  0  0 
    0.5802    1.1457   -1.4945 H   0  0  0  0  0  0  0  0  0  0  0  0 
   -0.3607   -2.3763   -0.2561 H   0  0  0  0  0  0  0  0  0  0  0  0 
   -1.4005   -0.9819   -0.0820 H   0  0  0  0  0  0  0  0  0  0  0  0 
    5.1535    0.5229    1.0577 H   0  0  0  0  0  0  0  0  0  0  0  0 
    2.1476   -0.9192   -1.6920 H   0  0  0  0  0  0  0  0  0  0  0  0 
    2.0547   -2.1872   -0.4377 H   0  0  0  0  0  0  0  0  0  0  0  0 
    0.7383   -0.6282    0.9993 H   0  0  0  0  0  0  0  0  0  0  0  0 
  1 13  1  0  0  0  0 
  2  5  1  0  0  0  0 
  3 18  1  0  0  0  0 
  3 19  1  0  0  0  0 
  4  8  1  0  0  0  0 
  4 20  1  0  0  0  0 
  4  1  1  0  0  0  0 
  5 22  1  0  0  0  0 
  5  8  1  0  0  0  0 
  5 23  1  0  0  0  0 
  6  3  2  0  0  0  0 
  7 26  1  0  0  0  0 
  7  8  1  0  0  0  0 
  7 11  1  0  0  0  0 
  8 27  1  0  0  0  0 
  9  6  1  0  0  0  0 
  9 10  2  0  0  0  0 
 11  9  1  0  0  0  0 
 12  1  1  0  0  0  0 
 14  1  1  0  0  0  0 
 15  2  1  0  0  0  0 
 16  2  1  0  0  0  0 
 17  2  1  0  0  0  0 
 21  4  1  0  0  0  0 
 24  6  1  0  0  0  0 
 25  7  1  0  0  0  0 
M  END 
>  <HBA> 
2 
 
>  <HBD> 
0 
 
>  <TPSA> 
26.3 
 
>  <cid> 
19855 
 
>  <dipole> 
1.42 
 
>  <excitation_energy_1> 
4.735 
 
>  <excitation_energy_2> 
5.93 
 
>  <excitation_energy_3> 
6.195 
 
>  <excitation_energy_4> 
6.327 
 
>  <homo_energy> 
-7.366 
 
>  <homo_lumo_gap> 
6.196 
 
>  <logP> 
2.152 
 
>  <lumo_energy> 
-1.17 
 
>  <melting_point> 
-36.71 
 
>  <molecular_refractivity> 
46.19 
 
>  <oscillator_strength_1> 
0.0004 
 
>  <oscillator_strength_2> 
0.0741 
 
>  <oscillator_strength_3> 
0.385 
 
>  <oscillator_strength_4> 
0.0023 
 
>  <open_babel_can_smiles> 
CCC(COC(=O)C=C)CC 
 
>  <mulliken_charges> 
27 
1   -0.450601 
2   -0.455025 
3   -0.302864 
4   -0.257609 
5   -0.271443 
6   -0.134126 
7   -0.052066 
8   -0.093998 
9   0.609538 
10   -0.493697 
11   -0.480168 
12   0.143692 
13   0.144484 
14   0.145743 
15   0.147244 
16   0.144807 
17   0.14946 
18   0.156705 
19   0.180349 
20   0.145545 
21   0.129193 
22   0.140922 
23   0.141247 
24   0.15325 
25   0.148197 
26   0.166447 
27   0.144776 
 
>  <lowdin_charges> 
27 
1   -0.442466 
2   -0.451669 
3   -0.267418 
4   -0.277958 
5   -0.275919 
6   -0.18711 
7   -0.13184 
8   -0.138169 
9   0.195576 
10   -0.274713 
11   -0.191418 
12   0.149289 
13   0.146108 
14   0.146608 
15   0.153787 
16   0.147203 
17   0.148347 
18   0.169086 
19   0.180157 
20   0.148587 
21   0.136334 
22   0.145289 
23   0.14733 
24   0.17054 
25   0.148796 
26   0.15691 
27   0.148733 
 
$$$$ 
 
