PCCDB-ID:  73017 
public computational chemistry database (PCCDB) project, http://pccdb.org 
 
 16 16  0  0  0  0  0  0  0  0999 V2000 
   -0.6251    1.3185    0.0190 C   0  0  0  0  0  0  0  0  0  0  0  0 
   -1.3475    0.1629   -0.0076 C   0  0  0  0  0  0  0  0  0  0  0  0 
    0.8156    1.1515    0.0315 C   0  0  0  0  0  0  0  0  0  0  0  0 
   -2.8511    0.0565    0.0023 C   0  0  0  0  0  0  0  0  0  0  0  0 
    0.7098   -1.1736    0.0021 C   0  0  0  0  0  0  0  0  0  0  0  0 
    1.3129   -2.3002    0.0022 N   0  0  0  0  0  0  0  0  0  0  0  0 
   -0.7133   -1.0338   -0.0187 N   0  0  0  0  0  0  0  0  0  0  0  0 
    1.4255    0.0159    0.0179 N   0  0  0  0  0  0  0  0  0  0  0  0 
    1.6044    2.2512    0.0597 O   0  0  0  0  0  0  0  0  0  0  0  0 
   -3.4026   -0.9846    0.2672 O   0  0  0  0  0  0  0  0  0  0  0  0 
   -3.5479    1.1687   -0.2987 O   0  0  0  0  0  0  0  0  0  0  0  0 
   -1.0879    2.2963    0.0987 H   0  0  0  0  0  0  0  0  0  0  0  0 
    0.6486   -3.0778   -0.0106 H   0  0  0  0  0  0  0  0  0  0  0  0 
   -1.3044   -1.8580    0.0190 H   0  0  0  0  0  0  0  0  0  0  0  0 
    1.0563    3.0510    0.0685 H   0  0  0  0  0  0  0  0  0  0  0  0 
   -2.9556    1.8626   -0.6339 H   0  0  0  0  0  0  0  0  0  0  0  0 
  1  3  1  0  0  0  0 
  1 12  1  0  0  0  0 
  2  4  1  0  0  0  0 
  2  1  2  0  0  0  0 
  3  9  1  0  0  0  0 
  4 10  2  0  0  0  0 
  5  6  1  0  0  0  0 
  5  8  2  0  0  0  0 
  7  2  1  0  0  0  0 
  7  5  1  0  0  0  0 
  7 14  1  0  0  0  0 
  8  3  2  0  0  0  0 
  9 15  1  0  0  0  0 
 11  4  1  0  0  0  0 
 13  6  1  0  0  0  0 
 16 11  1  0  0  0  0 
M  RAD  1   6   2 
M  END 
>  <HBA> 
5 
 
>  <HBD> 
3 
 
>  <TPSA> 
109.07 
 
>  <cid> 
73017 
 
>  <dipole> 
5.95 
 
>  <excitation_energy_1> 
2.967 
 
>  <excitation_energy_2> 
3.838 
 
>  <excitation_energy_3> 
4.172 
 
>  <excitation_energy_4> 
4.681 
 
>  <homo_energy> 
-6.204 
 
>  <homo_lumo_gap> 
3.655 
 
>  <logP> 
-0.368 
 
>  <lumo_energy> 
-2.55 
 
>  <melting_point> 
243.03 
 
>  <molecular_refractivity> 
36.22 
 
>  <oscillator_strength_1> 
0.023 
 
>  <oscillator_strength_2> 
0.0005 
 
>  <oscillator_strength_3> 
0.0006 
 
>  <oscillator_strength_4> 
0.0122 
 
>  <open_babel_can_smiles> 
OC(=O)C1=CC(=[N]=C(N1)[NH])O 
 
>  <mulliken_charges> 
16 
1   -0.32747 
2   0.354561 
3   0.540552 
4   0.577903 
5   0.607375 
6   -0.608725 
7   -0.704496 
8   -0.465381 
9   -0.580677 
10   -0.437516 
11   -0.556504 
12   0.138422 
13   0.267696 
14   0.357117 
15   0.413415 
16   0.423727 
 
>  <lowdin_charges> 
16 
1   -0.288353 
2   0.041997 
3   0.157289 
4   0.195443 
5   0.126123 
6   -0.414634 
7   -0.215623 
8   -0.164878 
9   -0.334143 
10   -0.22188 
11   -0.327203 
12   0.163946 
13   0.24786 
14   0.305738 
15   0.361014 
16   0.367303 
 
$$$$ 
 
