PCCDB-ID:  15749 
public computational chemistry database (PCCDB) project, http://pccdb.org 
 
 23 23  0  0  0  0  0  0  0  0999 V2000 
    3.2670   -0.1721    1.3668 C   0  0  0  0  0  0  0  0  0  0  0  0 
    1.1100   -0.1663    0.0225 C   0  0  0  0  0  0  0  0  0  0  0  0 
    3.7021    1.5173   -1.7986 C   0  0  0  0  0  0  0  0  0  0  0  0 
    2.6196    2.5998    0.0619 C   0  0  0  0  0  0  0  0  0  0  0  0 
    4.0363    2.7553   -2.3414 C   0  0  0  0  0  0  0  0  0  0  0  0 
    2.9431    3.8469   -0.4612 C   0  0  0  0  0  0  0  0  0  0  0  0 
    2.6352    0.0498   -0.0206 C   0  0  0  0  0  0  0  0  0  0  0  0 
    2.9919    1.4137   -0.5935 C   0  0  0  0  0  0  0  0  0  0  0  0 
    3.6506    3.9076   -1.6613 C   0  0  0  0  0  0  0  0  0  0  0  0 
    3.9981    5.2202   -2.2217 N   0  0  0  0  0  0  0  0  0  0  0  0 
    4.6234    5.2437   -3.2824 O   0  0  0  0  0  0  0  0  0  0  0  0 
    3.6442    6.2215   -1.5981 O   0  0  0  0  0  0  0  0  0  0  0  0 
    3.0627   -1.1893    1.7197 H   0  0  0  0  0  0  0  0  0  0  0  0 
    2.8586    0.5245    2.1084 H   0  0  0  0  0  0  0  0  0  0  0  0 
    4.3529   -0.0323    1.3377 H   0  0  0  0  0  0  0  0  0  0  0  0 
    0.8778   -1.1752    0.3826 H   0  0  0  0  0  0  0  0  0  0  0  0 
    0.6622   -0.0461   -0.9698 H   0  0  0  0  0  0  0  0  0  0  0  0 
    0.6247    0.5479    0.6982 H   0  0  0  0  0  0  0  0  0  0  0  0 
    3.9989    0.6121   -2.3221 H   0  0  0  0  0  0  0  0  0  0  0  0 
    2.0680    2.5511    0.9964 H   0  0  0  0  0  0  0  0  0  0  0  0 
    4.5843    2.8412   -3.2717 H   0  0  0  0  0  0  0  0  0  0  0  0 
    2.6602    4.7651    0.0385 H   0  0  0  0  0  0  0  0  0  0  0  0 
    3.0556   -0.7043   -0.6991 H   0  0  0  0  0  0  0  0  0  0  0  0 
  1 13  1  0  0  0  0 
  1 14  1  0  0  0  0 
  2 16  1  0  0  0  0 
  2 18  1  0  0  0  0 
  3  8  1  0  0  0  0 
  4 20  1  0  0  0  0 
  5  3  2  0  0  0  0 
  5  9  1  0  0  0  0 
  6 22  1  0  0  0  0 
  6  4  1  0  0  0  0 
  7  2  1  0  0  0  0 
  7  1  1  0  0  0  0 
  8  7  1  0  0  0  0 
  8  4  2  0  0  0  0 
  9  6  2  0  0  0  0 
 10  9  1  0  0  0  0 
 10 12  2  0  0  0  0 
 11 10  2  0  0  0  0 
 15  1  1  0  0  0  0 
 17  2  1  0  0  0  0 
 19  3  1  0  0  0  0 
 21  5  1  0  0  0  0 
 23  7  1  0  0  0  0 
M  END 
>  <HBA> 
0 
 
>  <HBD> 
0 
 
>  <TPSA> 
45.82 
 
>  <cid> 
15749 
 
>  <dipole> 
5.32 
 
>  <excitation_energy_1> 
3.75 
 
>  <excitation_energy_2> 
4.27 
 
>  <excitation_energy_3> 
4.277 
 
>  <excitation_energy_4> 
4.434 
 
>  <homo_energy> 
-7.331 
 
>  <homo_lumo_gap> 
5.026 
 
>  <logP> 
3.241 
 
>  <lumo_energy> 
-2.305 
 
>  <melting_point> 
45.62 
 
>  <molecular_refractivity> 
49.84 
 
>  <oscillator_strength_1> 
0.0 
 
>  <oscillator_strength_2> 
0.0134 
 
>  <oscillator_strength_3> 
0.0003 
 
>  <oscillator_strength_4> 
0.2986 
 
>  <open_babel_can_smiles> 
CC(c1ccc(cc1)N(=O)=O)C 
 
>  <mulliken_charges> 
23 
1   -0.441947 
2   -0.441091 
3   -0.208688 
4   -0.195719 
5   -0.144656 
6   -0.14911 
7   -0.166994 
8   0.205483 
9   0.272045 
10   0.37771 
11   -0.39765 
12   -0.397672 
13   0.150033 
14   0.147338 
15   0.15492 
16   0.149902 
17   0.154645 
18   0.147599 
19   0.1419 
20   0.14272 
21   0.181541 
22   0.181276 
23   0.136417 
 
>  <lowdin_charges> 
23 
1   -0.439541 
2   -0.441127 
3   -0.163758 
4   -0.15683 
5   -0.134549 
6   -0.136456 
7   -0.120699 
8   0.023677 
9   -0.003238 
10   0.308633 
11   -0.249608 
12   -0.25062 
13   0.152855 
14   0.15063 
15   0.153613 
16   0.152763 
17   0.15497 
18   0.151056 
19   0.164132 
20   0.16337 
21   0.186761 
22   0.187087 
23   0.14688 
 
$$$$ 
 
