PCCDB-ID:  69861 
public computational chemistry database (PCCDB) project, http://pccdb.org 
 
 26 26  0  0  0  0  0  0  0  0999 V2000 
    1.1432    0.7188    0.3950 C   0  0  0  0  0  0  0  0  0  0  0  0 
    2.2038   -0.5735   -1.4820 C   0  0  0  0  0  0  0  0  0  0  0  0 
    3.5097    1.1924   -0.3065 C   0  0  0  0  0  0  0  0  0  0  0  0 
    2.5033   -2.2977    0.8877 C   0  0  0  0  0  0  0  0  0  0  0  0 
    3.7605   -0.6110    2.0083 C   0  0  0  0  0  0  0  0  0  0  0  0 
    2.8835   -3.2313    1.8485 C   0  0  0  0  0  0  0  0  0  0  0  0 
    4.1496   -1.5325    2.9774 C   0  0  0  0  0  0  0  0  0  0  0  0 
    2.9311   -0.9612    0.9311 C   0  0  0  0  0  0  0  0  0  0  0  0 
    3.7167   -2.8652    2.9157 C   0  0  0  0  0  0  0  0  0  0  0  0 
    2.4605    0.0771   -0.1050 C   0  0  0  0  0  0  0  0  0  0  0  0 
    4.0569   -3.7844    3.9170 N   0  0  0  0  0  0  0  0  0  0  0  0 
    0.7764    1.4671   -0.3196 H   0  0  0  0  0  0  0  0  0  0  0  0 
    1.2905    1.2145    1.3613 H   0  0  0  0  0  0  0  0  0  0  0  0 
    0.3620   -0.0386    0.5259 H   0  0  0  0  0  0  0  0  0  0  0  0 
    1.9334    0.1963   -2.2143 H   0  0  0  0  0  0  0  0  0  0  0  0 
    1.3788   -1.2930   -1.4553 H   0  0  0  0  0  0  0  0  0  0  0  0 
    3.0956   -1.0937   -1.8502 H   0  0  0  0  0  0  0  0  0  0  0  0 
    3.1783    1.8790   -1.0943 H   0  0  0  0  0  0  0  0  0  0  0  0 
    4.4801    0.7782   -0.6034 H   0  0  0  0  0  0  0  0  0  0  0  0 
    3.6587    1.7917    0.5976 H   0  0  0  0  0  0  0  0  0  0  0  0 
    1.8581   -2.6362    0.0834 H   0  0  0  0  0  0  0  0  0  0  0  0 
    4.1266    0.4063    2.1041 H   0  0  0  0  0  0  0  0  0  0  0  0 
    2.5268   -4.2569    1.7738 H   0  0  0  0  0  0  0  0  0  0  0  0 
    4.7940   -1.2149    3.7949 H   0  0  0  0  0  0  0  0  0  0  0  0 
    4.0392   -4.7529    3.6202 H   0  0  0  0  0  0  0  0  0  0  0  0 
    4.9188   -3.5724    4.4054 H   0  0  0  0  0  0  0  0  0  0  0  0 
  1 14  1  0  0  0  0 
  1 13  1  0  0  0  0 
  2 16  1  0  0  0  0 
  2 10  1  0  0  0  0 
  3 10  1  0  0  0  0 
  3 20  1  0  0  0  0 
  4  8  2  0  0  0  0 
  4  6  1  0  0  0  0 
  5 22  1  0  0  0  0 
  5  7  2  0  0  0  0 
  6  9  2  0  0  0  0 
  7 24  1  0  0  0  0 
  8  5  1  0  0  0  0 
  9  7  1  0  0  0  0 
  9 11  1  0  0  0  0 
 10  1  1  0  0  0  0 
 10  8  1  0  0  0  0 
 11 26  1  0  0  0  0 
 12  1  1  0  0  0  0 
 15  2  1  0  0  0  0 
 17  2  1  0  0  0  0 
 18  3  1  0  0  0  0 
 19  3  1  0  0  0  0 
 21  4  1  0  0  0  0 
 23  6  1  0  0  0  0 
 25 11  1  0  0  0  0 
M  END 
>  <HBA> 
1 
 
>  <HBD> 
1 
 
>  <TPSA> 
26.02 
 
>  <cid> 
69861 
 
>  <dipole> 
1.56 
 
>  <excitation_energy_1> 
4.649 
 
>  <excitation_energy_2> 
4.65 
 
>  <excitation_energy_3> 
5.087 
 
>  <excitation_energy_4> 
5.367 
 
>  <homo_energy> 
-5.246 
 
>  <homo_lumo_gap> 
5.524 
 
>  <logP> 
3.147 
 
>  <lumo_energy> 
0.278 
 
>  <melting_point> 
62.26 
 
>  <molecular_refractivity> 
50.12 
 
>  <oscillator_strength_1> 
0.0298 
 
>  <oscillator_strength_2> 
0.0046 
 
>  <oscillator_strength_3> 
0.0243 
 
>  <oscillator_strength_4> 
0.0001 
 
>  <open_babel_can_smiles> 
CC(c1ccc(cc1)N)(C)C 
 
>  <mulliken_charges> 
26 
1   -0.429027 
2   -0.450584 
3   -0.450477 
4   -0.196429 
5   -0.196617 
6   -0.174788 
7   -0.174937 
8   0.168107 
9   0.308134 
10   0.023397 
11   -0.788642 
12   0.133305 
13   0.142541 
14   0.142478 
15   0.136614 
16   0.141815 
17   0.145734 
18   0.136564 
19   0.145659 
20   0.141801 
21   0.11837 
22   0.118421 
23   0.112311 
24   0.112351 
25   0.31695 
26   0.316948 
 
>  <lowdin_charges> 
26 
1   -0.439906 
2   -0.444304 
3   -0.443179 
4   -0.15952 
5   -0.158045 
6   -0.199928 
7   -0.200773 
8   -0.026854 
9   0.054781 
10   0.018422 
11   -0.489869 
12   0.144473 
13   0.148988 
14   0.149831 
15   0.148036 
16   0.146757 
17   0.15119 
18   0.148059 
19   0.15031 
20   0.146611 
21   0.155777 
22   0.154089 
23   0.149114 
24   0.150867 
25   0.272065 
26   0.273008 
 
$$$$ 
 
