PCCDB-ID:  8846 
public computational chemistry database (PCCDB) project, http://pccdb.org 
 
 21 20  0  0  0  0  0  0  0  0999 V2000 
    0.2321    0.5379    0.4901 C   0  0  0  0  0  0  0  0  0  0  0  0 
    3.8963   -3.1399   -5.3712 C   0  0  0  0  0  0  0  0  0  0  0  0 
    1.6527    0.6872   -0.0643 C   0  0  0  0  0  0  0  0  0  0  0  0 
    4.1117   -2.8593   -4.0844 C   0  0  0  0  0  0  0  0  0  0  0  0 
    2.0859   -0.5122   -0.9185 C   0  0  0  0  0  0  0  0  0  0  0  0 
    3.5043   -0.3526   -1.4569 C   0  0  0  0  0  0  0  0  0  0  0  0 
    3.5957   -1.6020   -3.4839 C   0  0  0  0  0  0  0  0  0  0  0  0 
    2.9608   -0.7482   -4.0718 O   0  0  0  0  0  0  0  0  0  0  0  0 
    3.9375   -1.5305   -2.1752 O   0  0  0  0  0  0  0  0  0  0  0  0 
   -0.0530    1.4077    1.0924 H   0  0  0  0  0  0  0  0  0  0  0  0 
    0.1464   -0.3516    1.1259 H   0  0  0  0  0  0  0  0  0  0  0  0 
   -0.4997    0.4381   -0.3204 H   0  0  0  0  0  0  0  0  0  0  0  0 
    4.2678   -4.0527   -5.8270 H   0  0  0  0  0  0  0  0  0  0  0  0 
    3.3373   -2.4504   -5.9974 H   0  0  0  0  0  0  0  0  0  0  0  0 
    2.3581    0.8170    0.7689 H   0  0  0  0  0  0  0  0  0  0  0  0 
    1.7156    1.6046   -0.6658 H   0  0  0  0  0  0  0  0  0  0  0  0 
    4.6656   -3.5244   -3.4285 H   0  0  0  0  0  0  0  0  0  0  0  0 
    1.3994   -0.6341   -1.7647 H   0  0  0  0  0  0  0  0  0  0  0  0 
    2.0337   -1.4336   -0.3232 H   0  0  0  0  0  0  0  0  0  0  0  0 
    4.2275   -0.2495   -0.6429 H   0  0  0  0  0  0  0  0  0  0  0  0 
    3.5783    0.5135   -2.1203 H   0  0  0  0  0  0  0  0  0  0  0  0 
  1 10  1  0  0  0  0 
  1 11  1  0  0  0  0 
  2  4  2  0  0  0  0 
  3  1  1  0  0  0  0 
  3 15  1  0  0  0  0 
  4  7  1  0  0  0  0 
  4 17  1  0  0  0  0 
  5 19  1  0  0  0  0 
  5  3  1  0  0  0  0 
  6  5  1  0  0  0  0 
  6 20  1  0  0  0  0 
  7  9  1  0  0  0  0 
  8  7  2  0  0  0  0 
  9  6  1  0  0  0  0 
 12  1  1  0  0  0  0 
 13  2  1  0  0  0  0 
 14  2  1  0  0  0  0 
 16  3  1  0  0  0  0 
 18  5  1  0  0  0  0 
 21  6  1  0  0  0  0 
M  END 
>  <HBA> 
2 
 
>  <HBD> 
0 
 
>  <TPSA> 
26.3 
 
>  <cid> 
8846 
 
>  <dipole> 
1.42 
 
>  <excitation_energy_1> 
4.743 
 
>  <excitation_energy_2> 
6.064 
 
>  <excitation_energy_3> 
6.23 
 
>  <excitation_energy_4> 
6.801 
 
>  <homo_energy> 
-7.361 
 
>  <homo_lumo_gap> 
6.204 
 
>  <logP> 
1.516 
 
>  <lumo_energy> 
-1.156 
 
>  <melting_point> 
-35.38 
 
>  <molecular_refractivity> 
36.57 
 
>  <oscillator_strength_1> 
0.0002 
 
>  <oscillator_strength_2> 
0.0251 
 
>  <oscillator_strength_3> 
0.4604 
 
>  <oscillator_strength_4> 
0.0005 
 
>  <open_babel_can_smiles> 
CCCCOC(=O)C=C 
 
>  <mulliken_charges> 
21 
1   -0.441036 
2   -0.303016 
3   -0.258463 
4   -0.133163 
5   -0.272854 
6   -0.043936 
7   0.60803 
8   -0.494008 
9   -0.477293 
10   0.14474 
11   0.143699 
12   0.14776 
13   0.1566 
14   0.180105 
15   0.132031 
16   0.14046 
17   0.153105 
18   0.161205 
19   0.140822 
20   0.148056 
21   0.167155 
 
>  <lowdin_charges> 
21 
1   -0.443969 
2   -0.268377 
3   -0.272451 
4   -0.187373 
5   -0.287717 
6   -0.133941 
7   0.197873 
8   -0.276451 
9   -0.193312 
10   0.151654 
11   0.147888 
12   0.150302 
13   0.168849 
14   0.18071 
15   0.139962 
16   0.143689 
17   0.171323 
18   0.156555 
19   0.145694 
20   0.151169 
21   0.157923 
 
$$$$ 
 
