PCCDB-ID:  69383 
public computational chemistry database (PCCDB) project, http://pccdb.org 
 
 44 43  0  0  0  0  0  0  0  0999 V2000 
    7.8550   -1.9746   -1.8575 C   0  0  0  0  0  0  0  0  0  0  0  0 
    8.3685   -3.1350    0.3252 C   0  0  0  0  0  0  0  0  0  0  0  0 
    4.7627    7.4410   -7.0848 C   0  0  0  0  0  0  0  0  0  0  0  0 
    3.0334    7.0715   -5.2840 C   0  0  0  0  0  0  0  0  0  0  0  0 
    8.3923   -0.6122    0.2561 C   0  0  0  0  0  0  0  0  0  0  0  0 
    5.1849    5.6798   -5.3221 C   0  0  0  0  0  0  0  0  0  0  0  0 
    7.6844    0.7074   -0.0410 C   0  0  0  0  0  0  0  0  0  0  0  0 
    5.1803    5.2863   -3.8411 C   0  0  0  0  0  0  0  0  0  0  0  0 
    7.2650    2.3306   -1.7257 C   0  0  0  0  0  0  0  0  0  0  0  0 
    7.2082    4.0441   -3.5921 C   0  0  0  0  0  0  0  0  0  0  0  0 
    7.7502   -1.8883   -0.3271 C   0  0  0  0  0  0  0  0  0  0  0  0 
    4.5338    7.0460   -5.6181 C   0  0  0  0  0  0  0  0  0  0  0  0 
    7.7022    2.6729   -3.1464 C   0  0  0  0  0  0  0  0  0  0  0  0 
    9.1205    2.7026   -3.2280 O   0  0  0  0  0  0  0  0  0  0  0  0 
    7.8924    1.0983   -1.3918 O   0  0  0  0  0  0  0  0  0  0  0  0 
    5.7915    4.0259   -3.5924 O   0  0  0  0  0  0  0  0  0  0  0  0 
    7.3678   -2.8849   -2.2275 H   0  0  0  0  0  0  0  0  0  0  0  0 
    8.9068   -2.0105   -2.1717 H   0  0  0  0  0  0  0  0  0  0  0  0 
    7.3959   -1.1106   -2.3433 H   0  0  0  0  0  0  0  0  0  0  0  0 
    7.9051   -4.0519   -0.0576 H   0  0  0  0  0  0  0  0  0  0  0  0 
    8.2440   -3.1252    1.4150 H   0  0  0  0  0  0  0  0  0  0  0  0 
    9.4440   -3.1953    0.1132 H   0  0  0  0  0  0  0  0  0  0  0  0 
    4.3349    8.4272   -7.3009 H   0  0  0  0  0  0  0  0  0  0  0  0 
    4.2909    6.7182   -7.7630 H   0  0  0  0  0  0  0  0  0  0  0  0 
    5.8312    7.4772   -7.3283 H   0  0  0  0  0  0  0  0  0  0  0  0 
    2.5967    8.0479   -5.5254 H   0  0  0  0  0  0  0  0  0  0  0  0 
    2.8375    6.8796   -4.2233 H   0  0  0  0  0  0  0  0  0  0  0  0 
    2.4921    6.3135   -5.8654 H   0  0  0  0  0  0  0  0  0  0  0  0 
    8.4266   -0.7095    1.3503 H   0  0  0  0  0  0  0  0  0  0  0  0 
    9.4363   -0.5317   -0.0789 H   0  0  0  0  0  0  0  0  0  0  0  0 
    4.6736    4.8928   -5.8939 H   0  0  0  0  0  0  0  0  0  0  0  0 
    6.2222    5.7030   -5.6816 H   0  0  0  0  0  0  0  0  0  0  0  0 
    8.0713    1.4950    0.6274 H   0  0  0  0  0  0  0  0  0  0  0  0 
    6.6028    0.6164    0.1574 H   0  0  0  0  0  0  0  0  0  0  0  0 
    4.1546    5.1812   -3.4738 H   0  0  0  0  0  0  0  0  0  0  0  0 
    5.6716    6.0687   -3.2374 H   0  0  0  0  0  0  0  0  0  0  0  0 
    6.1712    2.2498   -1.6621 H   0  0  0  0  0  0  0  0  0  0  0  0 
    7.5991    3.1216   -1.0330 H   0  0  0  0  0  0  0  0  0  0  0  0 
    7.6204    4.2564   -4.5892 H   0  0  0  0  0  0  0  0  0  0  0  0 
    7.5902    4.8149   -2.9020 H   0  0  0  0  0  0  0  0  0  0  0  0 
    6.6815   -1.8672   -0.0605 H   0  0  0  0  0  0  0  0  0  0  0  0 
    5.0332    7.7989   -4.9879 H   0  0  0  0  0  0  0  0  0  0  0  0 
    7.2886    1.9113   -3.8274 H   0  0  0  0  0  0  0  0  0  0  0  0 
    9.4193    1.9201   -2.7341 H   0  0  0  0  0  0  0  0  0  0  0  0 
  1 11  1  0  0  0  0 
  2 21  1  0  0  0  0 
  3 12  1  0  0  0  0 
  4 27  1  0  0  0  0 
  5 29  1  0  0  0  0 
  6  8  1  0  0  0  0 
  7 34  1  0  0  0  0 
  7  5  1  0  0  0  0 
  7 33  1  0  0  0  0 
  8 16  1  0  0  0  0 
  8 35  1  0  0  0  0 
  8 36  1  0  0  0  0 
  9 37  1  0  0  0  0 
  9 15  1  0  0  0  0 
  9 38  1  0  0  0  0 
 10 13  1  0  0  0  0 
 10 40  1  0  0  0  0 
 11 41  1  0  0  0  0 
 11  5  1  0  0  0  0 
 11  2  1  0  0  0  0 
 12  6  1  0  0  0  0 
 12  4  1  0  0  0  0 
 12 42  1  0  0  0  0 
 13  9  1  0  0  0  0 
 14 13  1  0  0  0  0 
 14 44  1  0  0  0  0 
 15  7  1  0  0  0  0 
 16 10  1  0  0  0  0 
 17  1  1  0  0  0  0 
 18  1  1  0  0  0  0 
 19  1  1  0  0  0  0 
 20  2  1  0  0  0  0 
 22  2  1  0  0  0  0 
 23  3  1  0  0  0  0 
 24  3  1  0  0  0  0 
 25  3  1  0  0  0  0 
 26  4  1  0  0  0  0 
 28  4  1  0  0  0  0 
 30  5  1  0  0  0  0 
 31  6  1  0  0  0  0 
 32  6  1  0  0  0  0 
 39 10  1  0  0  0  0 
 43 13  1  0  0  0  0 
M  END 
>  <HBA> 
3 
 
>  <HBD> 
1 
 
>  <TPSA> 
38.69 
 
>  <cid> 
69383 
 
>  <dipole> 
1.8 
 
>  <excitation_energy_1> 
6.436 
 
>  <excitation_energy_2> 
6.582 
 
>  <excitation_energy_3> 
6.719 
 
>  <excitation_energy_4> 
6.81 
 
>  <homo_energy> 
-6.751 
 
>  <homo_lumo_gap> 
8.784 
 
>  <logP> 
2.473 
 
>  <lumo_energy> 
2.033 
 
>  <melting_point> 
-30.49 
 
>  <molecular_refractivity> 
67.94 
 
>  <oscillator_strength_1> 
0.0083 
 
>  <oscillator_strength_2> 
0.0096 
 
>  <oscillator_strength_3> 
0.0038 
 
>  <oscillator_strength_4> 
0.0031 
 
>  <open_babel_can_smiles> 
OC(COCCC(C)C)COCCC(C)C 
 
>  <mulliken_charges> 
44 
1   -0.440732 
2   -0.442377 
3   -0.441216 
4   -0.44736 
5   -0.270787 
6   -0.272652 
7   -0.010262 
8   -0.017042 
9   -0.025507 
10   -0.026999 
11   -0.065888 
12   -0.07279 
13   0.110662 
14   -0.648857 
15   -0.496869 
16   -0.489552 
17   0.132612 
18   0.133402 
19   0.163257 
20   0.141463 
21   0.136734 
22   0.139664 
23   0.140423 
24   0.141215 
25   0.141779 
26   0.142535 
27   0.14372 
28   0.142045 
29   0.131442 
30   0.138757 
31   0.139174 
32   0.13654 
33   0.122623 
34   0.12161 
35   0.143695 
36   0.116815 
37   0.145301 
38   0.119641 
39   0.142114 
40   0.124033 
41   0.118466 
42   0.121725 
43   0.132021 
44   0.405424 
 
>  <lowdin_charges> 
44 
1   -0.450273 
2   -0.441212 
3   -0.442688 
4   -0.447318 
5   -0.279714 
6   -0.292638 
7   -0.125869 
8   -0.132994 
9   -0.148255 
10   -0.134807 
11   -0.116941 
12   -0.120967 
13   -0.013107 
14   -0.469419 
15   -0.281438 
16   -0.276273 
17   0.144583 
18   0.142373 
19   0.15894 
20   0.149073 
21   0.143261 
22   0.144143 
23   0.147715 
24   0.14802 
25   0.146778 
26   0.149533 
27   0.146173 
28   0.148434 
29   0.145901 
30   0.145455 
31   0.146835 
32   0.143387 
33   0.131077 
34   0.126237 
35   0.14504 
36   0.127191 
37   0.141916 
38   0.130598 
39   0.139112 
40   0.131017 
41   0.131593 
42   0.135958 
43   0.136144 
44   0.347428 
 
$$$$ 
 
