PCCDB-ID:  70093 
public computational chemistry database (PCCDB) project, http://pccdb.org 
 
 14 13  0  0  0  0  0  0  0  0999 V2000 
    1.3263   -0.1113   -1.0179 C   0  0  0  0  0  0  0  0  0  0  0  0 
    3.8954   -1.9011    2.8201 C   0  0  0  0  0  0  0  0  0  0  0  0 
    2.1884    0.6919   -0.0462 C   0  0  0  0  0  0  0  0  0  0  0  0 
    3.6544   -1.2120    1.4923 C   0  0  0  0  0  0  0  0  0  0  0  0 
    4.5697   -1.5044    0.1559 S   0  0  0  0  0  0  0  0  0  0  0  0 
    2.3222   -0.0676    1.6192 S   0  0  0  0  0  0  0  0  0  0  0  0 
    1.2740    0.4112   -1.9807 H   0  0  0  0  0  0  0  0  0  0  0  0 
    0.3064   -0.2335   -0.6397 H   0  0  0  0  0  0  0  0  0  0  0  0 
    1.7558   -1.1013   -1.1926 H   0  0  0  0  0  0  0  0  0  0  0  0 
    4.5812   -2.7391    2.6882 H   0  0  0  0  0  0  0  0  0  0  0  0 
    2.9578   -2.2610    3.2599 H   0  0  0  0  0  0  0  0  0  0  0  0 
    4.3395   -1.1923    3.5306 H   0  0  0  0  0  0  0  0  0  0  0  0 
    1.7631    1.6827    0.1430 H   0  0  0  0  0  0  0  0  0  0  0  0 
    3.2077    0.8153   -0.4231 H   0  0  0  0  0  0  0  0  0  0  0  0 
  1  8  1  0  0  0  0 
  1  3  1  0  0  0  0 
  2 11  1  0  0  0  0 
  2 12  1  0  0  0  0 
  3 13  1  0  0  0  0 
  3  6  1  0  0  0  0 
  4  6  1  0  0  0  0 
  4  2  1  0  0  0  0 
  5  4  2  0  0  0  0 
  7  1  1  0  0  0  0 
  9  1  1  0  0  0  0 
 10  2  1  0  0  0  0 
 14  3  1  0  0  0  0 
M  END 
>  <HBA> 
2 
 
>  <HBD> 
0 
 
>  <TPSA> 
57.39 
 
>  <cid> 
70093 
 
>  <dipole> 
1.93 
 
>  <excitation_energy_1> 
2.796 
 
>  <excitation_energy_2> 
4.382 
 
>  <excitation_energy_3> 
5.418 
 
>  <excitation_energy_4> 
5.645 
 
>  <homo_energy> 
-6.022 
 
>  <homo_lumo_gap> 
4.182 
 
>  <logP> 
2.087 
 
>  <lumo_energy> 
-1.84 
 
>  <melting_point> 
14.1 
 
>  <molecular_refractivity> 
36.72 
 
>  <oscillator_strength_1> 
0.0001 
 
>  <oscillator_strength_2> 
0.1332 
 
>  <oscillator_strength_3> 
0.0899 
 
>  <oscillator_strength_4> 
0.0166 
 
>  <open_babel_can_smiles> 
CCSC(=S)C 
 
>  <mulliken_charges> 
14 
1   -0.439079 
2   -0.478894 
3   -0.428113 
4   -0.160651 
5   -0.14737 
6   0.201065 
7   0.156543 
8   0.157678 
9   0.182155 
10   0.194807 
11   0.181565 
12   0.189988 
13   0.180416 
14   0.209893 
 
>  <lowdin_charges> 
14 
1   -0.443539 
2   -0.45125 
3   -0.37189 
4   -0.201865 
5   -0.111583 
6   0.212245 
7   0.158088 
8   0.154928 
9   0.167681 
10   0.181007 
11   0.173677 
12   0.180845 
13   0.169474 
14   0.182183 
 
$$$$ 
 
