PCCDB-ID:  16830 
public computational chemistry database (PCCDB) project, http://pccdb.org 
 
 27 27  0  0  0  0  0  0  0  0999 V2000 
    1.2965   -1.6589    0.1675 C   0  0  0  0  0  0  0  0  0  0  0  0 
    8.1820    3.7555    4.0182 C   0  0  0  0  0  0  0  0  0  0  0  0 
    4.5925   -2.5416    3.8292 C   0  0  0  0  0  0  0  0  0  0  0  0 
    5.7465   -0.3624    3.7545 C   0  0  0  0  0  0  0  0  0  0  0  0 
    3.7294   -3.4972    3.2999 C   0  0  0  0  0  0  0  0  0  0  0  0 
    6.1000    0.8461    3.2759 C   0  0  0  0  0  0  0  0  0  0  0  0 
    4.1539   -1.1075    1.9437 C   0  0  0  0  0  0  0  0  0  0  0  0 
    4.8297   -1.3296    3.1607 C   0  0  0  0  0  0  0  0  0  0  0  0 
    3.0794   -3.2696    2.0856 C   0  0  0  0  0  0  0  0  0  0  0  0 
    3.2904   -2.0495    1.4034 C   0  0  0  0  0  0  0  0  0  0  0  0 
    7.0494    1.6888    4.0246 C   0  0  0  0  0  0  0  0  0  0  0  0 
    2.2456   -4.1826    1.5075 O   0  0  0  0  0  0  0  0  0  0  0  0 
    7.5825    1.4088    5.0831 O   0  0  0  0  0  0  0  0  0  0  0  0 
    2.7203   -1.8024    0.1806 O   0  0  0  0  0  0  0  0  0  0  0  0 
    7.2683    2.8602    3.3717 O   0  0  0  0  0  0  0  0  0  0  0  0 
    1.0296   -1.4257   -0.8655 H   0  0  0  0  0  0  0  0  0  0  0  0 
    0.9832   -0.8325    0.8190 H   0  0  0  0  0  0  0  0  0  0  0  0 
    0.7958   -2.5813    0.4763 H   0  0  0  0  0  0  0  0  0  0  0  0 
    8.2456    4.6303    3.3698 H   0  0  0  0  0  0  0  0  0  0  0  0 
    9.1650    3.2896    4.1321 H   0  0  0  0  0  0  0  0  0  0  0  0 
    7.8119    4.0375    5.0082 H   0  0  0  0  0  0  0  0  0  0  0  0 
    5.0941   -2.7392    4.7725 H   0  0  0  0  0  0  0  0  0  0  0  0 
    6.1992   -0.6561    4.7008 H   0  0  0  0  0  0  0  0  0  0  0  0 
    3.5644   -4.4356    3.8266 H   0  0  0  0  0  0  0  0  0  0  0  0 
    5.7185    1.2511    2.3442 H   0  0  0  0  0  0  0  0  0  0  0  0 
    4.2984   -0.1905    1.3819 H   0  0  0  0  0  0  0  0  0  0  0  0 
    2.2056   -4.9708    2.0719 H   0  0  0  0  0  0  0  0  0  0  0  0 
  1 14  1  0  0  0  0 
  1 18  1  0  0  0  0 
  1 17  1  0  0  0  0 
  2 20  1  0  0  0  0 
  2 21  1  0  0  0  0 
  3 22  1  0  0  0  0 
  4 23  1  0  0  0  0 
  5 24  1  0  0  0  0 
  5  3  1  0  0  0  0 
  6  4  2  0  0  0  0 
  6 11  1  0  0  0  0 
  7  8  1  0  0  0  0 
  8  4  1  0  0  0  0 
  8  3  2  0  0  0  0 
  9  5  2  0  0  0  0 
 10  7  2  0  0  0  0 
 10  9  1  0  0  0  0 
 11 13  2  0  0  0  0 
 12 27  1  0  0  0  0 
 12  9  1  0  0  0  0 
 14 10  1  0  0  0  0 
 15  2  1  0  0  0  0 
 15 11  1  0  0  0  0 
 16  1  1  0  0  0  0 
 19  2  1  0  0  0  0 
 25  6  1  0  0  0  0 
 26  7  1  0  0  0  0 
M  END 
>  <HBA> 
4 
 
>  <HBD> 
1 
 
>  <TPSA> 
55.76 
 
>  <cid> 
16830 
 
>  <dipole> 
3.09 
 
>  <excitation_energy_1> 
4.052 
 
>  <excitation_energy_2> 
4.419 
 
>  <excitation_energy_3> 
4.505 
 
>  <excitation_energy_4> 
4.985 
 
>  <homo_energy> 
-5.859 
 
>  <homo_lumo_gap> 
4.324 
 
>  <logP> 
1.587 
 
>  <lumo_energy> 
-1.535 
 
>  <melting_point> 
85.04 
 
>  <molecular_refractivity> 
55.95 
 
>  <oscillator_strength_1> 
0.5744 
 
>  <oscillator_strength_2> 
0.1538 
 
>  <oscillator_strength_3> 
0.0001 
 
>  <oscillator_strength_4> 
0.0019 
 
>  <open_babel_can_smiles> 
COC(=O)/C=C/c1ccc(c(c1)OC)O 
 
>  <mulliken_charges> 
27 
1   -0.216163 
2   -0.214251 
3   -0.194602 
4   -0.155585 
5   -0.201068 
6   -0.210898 
7   -0.235323 
8   0.171374 
9   0.319025 
10   0.340736 
11   0.619659 
12   -0.632916 
13   -0.505349 
14   -0.5197 
15   -0.471866 
16   0.162981 
17   0.141963 
18   0.168079 
19   0.160131 
20   0.16789 
21   0.167327 
22   0.141059 
23   0.163976 
24   0.12763 
25   0.147685 
26   0.144442 
27   0.413765 
 
>  <lowdin_charges> 
27 
1   -0.274811 
2   -0.278808 
3   -0.147355 
4   -0.100968 
5   -0.209058 
6   -0.212597 
7   -0.15932 
8   -0.021401 
9   0.087039 
10   0.070878 
11   0.192201 
12   -0.364073 
13   -0.28347 
14   -0.221769 
15   -0.196999 
16   0.157711 
17   0.141074 
18   0.152914 
19   0.158395 
20   0.157334 
21   0.157112 
22   0.164 
23   0.173954 
24   0.157441 
25   0.166617 
26   0.171104 
27   0.362853 
 
$$$$ 
 
