PCCDB-ID:  20057 
public computational chemistry database (PCCDB) project, http://pccdb.org 
 
 28 28  0  0  1  0  0  0  0  0999 V2000 
    0.9519   -0.1015    2.7520 C   0  0  0  0  0  0  0  0  0  0  0  0 
    2.1949   -1.3932    0.9771 C   0  0  0  0  0  0  0  0  0  0  0  0 
    6.6428    2.5696    2.7197 C   0  0  0  0  0  0  0  0  0  0  0  0 
    6.0390    2.7546    1.3497 C   0  0  0  0  0  0  0  0  0  0  0  0 
    5.8458    1.5607    3.5594 C   0  0  0  0  0  0  0  0  0  0  0  0 
    5.1394    1.9199    0.8189 C   0  0  0  0  0  0  0  0  0  0  0  0 
    5.4846    0.3207    2.7281 C   0  0  0  0  0  0  0  0  0  0  0  0 
    3.1082    0.8404    1.8338 C   0  0  0  0  0  0  0  0  0  0  0  0 
    2.3360   -0.4497    2.1818 C   0  0  0  0  0  0  0  0  0  0  0  0 
    4.6139    0.6749    1.5011 C   0  0  1  0  0  0  0  0  0  0  0  0 
    0.3929   -1.0060    3.0200 H   0  0  0  0  0  0  0  0  0  0  0  0 
    0.3531    0.4522    2.0166 H   0  0  0  0  0  0  0  0  0  0  0  0 
    1.0347    0.5223    3.6500 H   0  0  0  0  0  0  0  0  0  0  0  0 
    1.6467   -2.3018    1.2536 H   0  0  0  0  0  0  0  0  0  0  0  0 
    3.1658   -1.7053    0.5772 H   0  0  0  0  0  0  0  0  0  0  0  0 
    1.6401   -0.9059    0.1642 H   0  0  0  0  0  0  0  0  0  0  0  0 
    6.6966    3.5378    3.2367 H   0  0  0  0  0  0  0  0  0  0  0  0 
    7.6875    2.2333    2.6177 H   0  0  0  0  0  0  0  0  0  0  0  0 
    6.3707    3.6187    0.7746 H   0  0  0  0  0  0  0  0  0  0  0  0 
    4.9275    2.0410    3.9231 H   0  0  0  0  0  0  0  0  0  0  0  0 
    6.4180    1.2693    4.4488 H   0  0  0  0  0  0  0  0  0  0  0  0 
    4.7344    2.1314   -0.1713 H   0  0  0  0  0  0  0  0  0  0  0  0 
    4.9787   -0.4236    3.3548 H   0  0  0  0  0  0  0  0  0  0  0  0 
    6.4134   -0.1506    2.3780 H   0  0  0  0  0  0  0  0  0  0  0  0 
    3.0139    1.5512    2.6664 H   0  0  0  0  0  0  0  0  0  0  0  0 
    2.6085    1.3197    0.9783 H   0  0  0  0  0  0  0  0  0  0  0  0 
    2.8897   -0.9861    2.9666 H   0  0  0  0  0  0  0  0  0  0  0  0 
    4.7002   -0.1498    0.7780 H   0  0  0  0  0  0  0  0  0  0  0  0 
  1 11  1  0  0  0  0 
  1 13  1  0  0  0  0 
  2 14  1  0  0  0  0 
  2  9  1  0  0  0  0 
  3 17  1  0  0  0  0 
  3  5  1  0  0  0  0 
  4  3  1  0  0  0  0 
  5 20  1  0  0  0  0 
  5 21  1  0  0  0  0 
  6  4  2  0  0  0  0 
  6 10  1  0  0  0  0 
  7 23  1  0  0  0  0 
  7  5  1  0  0  0  0 
  8  9  1  0  0  0  0 
  8 25  1  0  0  0  0 
  9  1  1  0  0  0  0 
  9 27  1  0  0  0  0 
 10 28  1  6  0  0  0 
 10  8  1  0  0  0  0 
 10  7  1  0  0  0  0 
 12  1  1  0  0  0  0 
 15  2  1  0  0  0  0 
 16  2  1  0  0  0  0 
 18  3  1  0  0  0  0 
 19  4  1  0  0  0  0 
 22  6  1  0  0  0  0 
 24  7  1  0  0  0  0 
 26  8  1  0  0  0  0 
M  END 
>  <HBA> 
0 
 
>  <HBD> 
0 
 
>  <TPSA> 
0.0 
 
>  <cid> 
20057 
 
>  <dipole> 
0.27 
 
>  <excitation_energy_1> 
5.816 
 
>  <excitation_energy_2> 
6.316 
 
>  <excitation_energy_3> 
6.348 
 
>  <excitation_energy_4> 
6.403 
 
>  <homo_energy> 
-6.327 
 
>  <homo_lumo_gap> 
7.266 
 
>  <logP> 
3.389 
 
>  <lumo_energy> 
0.939 
 
>  <melting_point> 
3.15 
 
>  <molecular_refractivity> 
47.6 
 
>  <oscillator_strength_1> 
0.0103 
 
>  <oscillator_strength_2> 
0.006 
 
>  <oscillator_strength_3> 
0.0082 
 
>  <oscillator_strength_4> 
0.0434 
 
>  <open_babel_can_smiles> 
CC(C[C@@H]1CCCC=C1)C 
 
>  <mulliken_charges> 
28 
1   -0.441886 
2   -0.445959 
3   -0.293955 
4   -0.111803 
5   -0.268948 
6   -0.110535 
7   -0.277109 
8   -0.255202 
9   -0.071046 
10   -0.115605 
11   0.138341 
12   0.138427 
13   0.139411 
14   0.139873 
15   0.144414 
16   0.137872 
17   0.138208 
18   0.14253 
19   0.117077 
20   0.138836 
21   0.129178 
22   0.115286 
23   0.131923 
24   0.132539 
25   0.131372 
26   0.124273 
27   0.124528 
28   0.12796 
 
>  <lowdin_charges> 
28 
1   -0.445424 
2   -0.448201 
3   -0.274957 
4   -0.178473 
5   -0.277325 
6   -0.174265 
7   -0.279995 
8   -0.27771 
9   -0.124522 
10   -0.129341 
11   0.147385 
12   0.146454 
13   0.147222 
14   0.148532 
15   0.147288 
16   0.145862 
17   0.148181 
18   0.145944 
19   0.150037 
20   0.141779 
21   0.14378 
22   0.147398 
23   0.143654 
24   0.142915 
25   0.142072 
26   0.140745 
27   0.136425 
28   0.14454 
 
$$$$ 
 
