PCCDB-ID:  25332 
public computational chemistry database (PCCDB) project, http://pccdb.org 
 
 28 30  0  0  1  0  0  0  0  0999 V2000 
   -0.8042    1.0385    1.2314 C   0  0  0  0  0  0  0  0  0  0  0  0 
   -0.9810    0.7657   -1.2656 C   0  0  0  0  0  0  0  0  0  0  0  0 
   -1.2280   -1.2366    0.2378 C   0  0  0  0  0  0  0  0  0  0  0  0 
    1.2463    1.2792   -0.2097 C   0  0  0  0  0  0  0  0  0  0  0  0 
    0.9932   -0.7246    1.2935 C   0  0  0  0  0  0  0  0  0  0  0  0 
   -1.5150    0.2730    0.0956 C   0  0  1  0  0  0  0  0  0  0  0  0 
    0.7168    0.7879    1.1547 C   0  0  2  0  0  0  0  0  0  0  0  0 
    0.5403    0.5149   -1.3495 C   0  0  1  0  0  0  0  0  0  0  0  0 
    0.2923   -1.4929    0.1509 C   0  0  2  0  0  0  0  0  0  0  0  0 
    0.8089   -1.0122   -1.2259 C   0  0  2  0  0  0  0  0  0  0  0  0 
    2.1962   -1.4448   -1.4424 N   0  0  0  0  0  0  0  0  0  0  0  0 
   -1.1913    0.7111    2.2065 H   0  0  0  0  0  0  0  0  0  0  0  0 
   -1.0141    2.1143    1.1506 H   0  0  0  0  0  0  0  0  0  0  0  0 
   -1.1950    1.8362   -1.3918 H   0  0  0  0  0  0  0  0  0  0  0  0 
   -1.4945    0.2412   -2.0837 H   0  0  0  0  0  0  0  0  0  0  0  0 
   -1.7508   -1.7958   -0.5506 H   0  0  0  0  0  0  0  0  0  0  0  0 
   -1.6142   -1.6051    1.1983 H   0  0  0  0  0  0  0  0  0  0  0  0 
    2.3347    1.1377   -0.2668 H   0  0  0  0  0  0  0  0  0  0  0  0 
    1.0701    2.3580   -0.3200 H   0  0  0  0  0  0  0  0  0  0  0  0 
    0.6218   -1.0890    2.2613 H   0  0  0  0  0  0  0  0  0  0  0  0 
    2.0746   -0.9184    1.2904 H   0  0  0  0  0  0  0  0  0  0  0  0 
   -2.5975    0.4494    0.1518 H   0  0  0  0  0  0  0  0  0  0  0  0 
    1.2224    1.3319    1.9638 H   0  0  0  0  0  0  0  0  0  0  0  0 
    0.9186    0.8661   -2.3208 H   0  0  0  0  0  0  0  0  0  0  0  0 
    0.5025   -2.5653    0.2410 H   0  0  0  0  0  0  0  0  0  0  0  0 
    0.2176   -1.5208   -2.0012 H   0  0  0  0  0  0  0  0  0  0  0  0 
    2.8231   -0.9731   -0.7929 H   0  0  0  0  0  0  0  0  0  0  0  0 
    2.4982   -1.1614   -2.3744 H   0  0  0  0  0  0  0  0  0  0  0  0 
  1 12  1  0  0  0  0 
  2  6  1  0  0  0  0 
  3 17  1  0  0  0  0 
  4  7  1  0  0  0  0 
  5 20  1  0  0  0  0 
  6 22  1  1  0  0  0 
  6  3  1  0  0  0  0 
  6  1  1  0  0  0  0 
  7  1  1  0  0  0  0 
  7  5  1  0  0  0  0 
  7 23  1  1  0  0  0 
  8 24  1  6  0  0  0 
  8  2  1  0  0  0  0 
  8 10  1  0  0  0  0 
  8  4  1  0  0  0  0 
  9  3  1  0  0  0  0 
  9 25  1  1  0  0  0 
  9  5  1  0  0  0  0 
 10 26  1  6  0  0  0 
 10  9  1  0  0  0  0 
 11 10  1  0  0  0  0 
 11 27  1  0  0  0  0 
 13  1  1  0  0  0  0 
 14  2  1  0  0  0  0 
 15  2  1  0  0  0  0 
 16  3  1  0  0  0  0 
 18  4  1  0  0  0  0 
 19  4  1  0  0  0  0 
 21  5  1  0  0  0  0 
 28 11  1  0  0  0  0 
M  END 
>  <HBA> 
1 
 
>  <HBD> 
1 
 
>  <TPSA> 
26.02 
 
>  <cid> 
25332 
 
>  <dipole> 
1.3 
 
>  <excitation_energy_1> 
5.422 
 
>  <excitation_energy_2> 
5.995 
 
>  <excitation_energy_3> 
6.117 
 
>  <excitation_energy_4> 
6.326 
 
>  <homo_energy> 
-6.101 
 
>  <homo_lumo_gap> 
7.848 
 
>  <logP> 
2.47 
 
>  <lumo_energy> 
1.747 
 
>  <melting_point> 
92.76 
 
>  <molecular_refractivity> 
46.55 
 
>  <oscillator_strength_1> 
0.0113 
 
>  <oscillator_strength_2> 
0.0174 
 
>  <oscillator_strength_3> 
0.0042 
 
>  <oscillator_strength_4> 
0.0311 
 
>  <open_babel_can_smiles> 
N[C@@H]1[C@@H]2C[C@@H]3C[C@H]1C[C@H](C2)C3 
 
>  <mulliken_charges> 
28 
1   -0.264466 
2   -0.269523 
3   -0.271327 
4   -0.272004 
5   -0.28168 
6   -0.087622 
7   -0.085323 
8   -0.095952 
9   -0.080368 
10   0.022049 
11   -0.726468 
12   0.124839 
13   0.123975 
14   0.124691 
15   0.125014 
16   0.126099 
17   0.125492 
18   0.113715 
19   0.127848 
20   0.128192 
21   0.125996 
22   0.114676 
23   0.114206 
24   0.103461 
25   0.128977 
26   0.118853 
27   0.295215 
28   0.291436 
 
>  <lowdin_charges> 
28 
1   -0.278816 
2   -0.280803 
3   -0.282104 
4   -0.280092 
5   -0.281407 
6   -0.129216 
7   -0.132361 
8   -0.149306 
9   -0.133056 
10   -0.075782 
11   -0.55359 
12   0.139 
13   0.136968 
14   0.137824 
15   0.140257 
16   0.140962 
17   0.140037 
18   0.13101 
19   0.13953 
20   0.14157 
21   0.136479 
22   0.136392 
23   0.139086 
24   0.13229 
25   0.145043 
26   0.137661 
27   0.250158 
28   0.252267 
 
$$$$ 
 
