PCCDB-ID:  62660 
public computational chemistry database (PCCDB) project, http://pccdb.org 
 
 34 34  0  0  0  0  0  0  0  0999 V2000 
    3.4707    4.0425    1.4367 C   0  0  0  0  0  0  0  0  0  0  0  0 
    2.0450    2.3634    0.1986 C   0  0  0  0  0  0  0  0  0  0  0  0 
   11.3139   -2.6321   -0.1485 C   0  0  0  0  0  0  0  0  0  0  0  0 
    9.9398   -2.8595   -0.0164 C   0  0  0  0  0  0  0  0  0  0  0  0 
   11.7668   -1.4196   -0.6697 C   0  0  0  0  0  0  0  0  0  0  0  0 
    9.0265   -1.8840   -0.4009 C   0  0  0  0  0  0  0  0  0  0  0  0 
   10.8511   -0.4425   -1.0549 C   0  0  0  0  0  0  0  0  0  0  0  0 
    8.5543    0.4099   -1.3497 C   0  0  0  0  0  0  0  0  0  0  0  0 
    7.2095    0.4134   -1.2989 C   0  0  0  0  0  0  0  0  0  0  0  0 
    4.0349    3.4864   -0.9574 C   0  0  0  0  0  0  0  0  0  0  0  0 
    4.2467    2.4530   -2.0617 C   0  0  0  0  0  0  0  0  0  0  0  0 
    3.4580    2.9428    0.3647 C   0  0  0  0  0  0  0  0  0  0  0  0 
    9.4661   -0.6536   -0.9273 C   0  0  0  0  0  0  0  0  0  0  0  0 
    6.4525    1.5881   -1.7754 C   0  0  0  0  0  0  0  0  0  0  0  0 
    6.9348    2.6078   -2.2343 O   0  0  0  0  0  0  0  0  0  0  0  0 
    5.1175    1.3786   -1.6380 O   0  0  0  0  0  0  0  0  0  0  0  0 
    3.1000    3.6651    2.3970 H   0  0  0  0  0  0  0  0  0  0  0  0 
    2.8317    4.8860    1.1429 H   0  0  0  0  0  0  0  0  0  0  0  0 
    4.4827    4.4332    1.5967 H   0  0  0  0  0  0  0  0  0  0  0  0 
    1.6603    1.9953    1.1570 H   0  0  0  0  0  0  0  0  0  0  0  0 
    2.0217    1.5243   -0.5055 H   0  0  0  0  0  0  0  0  0  0  0  0 
    1.3464    3.1285   -0.1661 H   0  0  0  0  0  0  0  0  0  0  0  0 
   12.0240   -3.3973    0.1528 H   0  0  0  0  0  0  0  0  0  0  0  0 
    9.5821   -3.8027    0.3877 H   0  0  0  0  0  0  0  0  0  0  0  0 
   12.8321   -1.2339   -0.7752 H   0  0  0  0  0  0  0  0  0  0  0  0 
    7.9632   -2.0765   -0.2930 H   0  0  0  0  0  0  0  0  0  0  0  0 
   11.2054    0.5018   -1.4610 H   0  0  0  0  0  0  0  0  0  0  0  0 
    9.0234    1.3064   -1.7531 H   0  0  0  0  0  0  0  0  0  0  0  0 
    6.6265   -0.4184   -0.9171 H   0  0  0  0  0  0  0  0  0  0  0  0 
    3.3640    4.2616   -1.3579 H   0  0  0  0  0  0  0  0  0  0  0  0 
    4.9964    3.9770   -0.7640 H   0  0  0  0  0  0  0  0  0  0  0  0 
    4.6766    2.9254   -2.9484 H   0  0  0  0  0  0  0  0  0  0  0  0 
    3.3151    1.9523   -2.3363 H   0  0  0  0  0  0  0  0  0  0  0  0 
    4.1176    2.1322    0.7047 H   0  0  0  0  0  0  0  0  0  0  0  0 
  1 19  1  0  0  0  0 
  1 17  1  0  0  0  0 
  2 12  1  0  0  0  0 
  2 20  1  0  0  0  0 
  3  4  1  0  0  0  0 
  3 23  1  0  0  0  0 
  4 24  1  0  0  0  0 
  5  3  2  0  0  0  0 
  6 26  1  0  0  0  0 
  6  4  2  0  0  0  0 
  7 13  2  0  0  0  0 
  7  5  1  0  0  0  0 
  8  9  2  0  0  0  0 
  8 13  1  0  0  0  0 
  9 29  1  0  0  0  0 
 10 31  1  0  0  0  0 
 10 12  1  0  0  0  0 
 11 16  1  0  0  0  0 
 11 10  1  0  0  0  0 
 12 34  1  0  0  0  0 
 12  1  1  0  0  0  0 
 13  6  1  0  0  0  0 
 14 16  1  0  0  0  0 
 14  9  1  0  0  0  0 
 15 14  2  0  0  0  0 
 18  1  1  0  0  0  0 
 21  2  1  0  0  0  0 
 22  2  1  0  0  0  0 
 25  5  1  0  0  0  0 
 27  7  1  0  0  0  0 
 28  8  1  0  0  0  0 
 30 10  1  0  0  0  0 
 32 11  1  0  0  0  0 
 33 11  1  0  0  0  0 
M  END 
>  <HBA> 
2 
 
>  <HBD> 
0 
 
>  <TPSA> 
26.3 
 
>  <cid> 
62660 
 
>  <dipole> 
2.07 
 
>  <excitation_energy_1> 
4.361 
 
>  <excitation_energy_2> 
4.422 
 
>  <excitation_energy_3> 
4.528 
 
>  <excitation_energy_4> 
5.507 
 
>  <homo_energy> 
-6.357 
 
>  <homo_lumo_gap> 
4.637 
 
>  <logP> 
3.289 
 
>  <lumo_energy> 
-1.72 
 
>  <melting_point> 
35.3 
 
>  <molecular_refractivity> 
66.66 
 
>  <oscillator_strength_1> 
0.7411 
 
>  <oscillator_strength_2> 
0.0024 
 
>  <oscillator_strength_3> 
0.0102 
 
>  <oscillator_strength_4> 
0.1038 
 
>  <open_babel_can_smiles> 
CC(CCOC(=O)/C=C/c1ccccc1)C 
 
>  <mulliken_charges> 
34 
1   -0.443102 
2   -0.449537 
3   -0.12389 
4   -0.131345 
5   -0.131329 
6   -0.170881 
7   -0.187186 
8   -0.148825 
9   -0.210786 
10   -0.278605 
11   -0.055508 
12   -0.06419 
13   0.167159 
14   0.627336 
15   -0.503559 
16   -0.485286 
17   0.139911 
18   0.1376 
19   0.143312 
20   0.142445 
21   0.145131 
22   0.136702 
23   0.136427 
24   0.136346 
25   0.137115 
26   0.135615 
27   0.140241 
28   0.166691 
29   0.148035 
30   0.130604 
31   0.159961 
32   0.168725 
33   0.149687 
34   0.134985 
 
>  <lowdin_charges> 
34 
1   -0.44343 
2   -0.449396 
3   -0.148354 
4   -0.152191 
5   -0.152225 
6   -0.144625 
7   -0.148686 
8   -0.102702 
9   -0.205937 
10   -0.289731 
11   -0.135326 
12   -0.123966 
13   -0.00833 
14   0.197185 
15   -0.284474 
16   -0.199561 
17   0.147787 
18   0.145241 
19   0.148533 
20   0.150021 
21   0.148797 
22   0.145149 
23   0.162345 
24   0.160874 
25   0.159838 
26   0.159067 
27   0.16199 
28   0.175814 
29   0.167459 
30   0.147784 
31   0.1569 
32   0.161099 
33   0.150506 
34   0.142546 
 
$$$$ 
 
