PCCDB-ID:  7138 
public computational chemistry database (PCCDB) project, http://pccdb.org 
 
 23 24  0  0  0  0  0  0  0  0999 V2000 
    0.8757    0.0627    0.1247 C   0  0  0  0  0  0  0  0  0  0  0  0 
    7.2803    3.6153   -0.1725 C   0  0  0  0  0  0  0  0  0  0  0  0 
    3.0571   -1.2336    0.1185 C   0  0  0  0  0  0  0  0  0  0  0  0 
    7.2998    1.0759   -0.0726 C   0  0  0  0  0  0  0  0  0  0  0  0 
    4.4299   -1.3085    0.0877 C   0  0  0  0  0  0  0  0  0  0  0  0 
    6.6325   -0.1216   -0.0097 C   0  0  0  0  0  0  0  0  0  0  0  0 
    3.1372    1.1767    0.0244 C   0  0  0  0  0  0  0  0  0  0  0  0 
    2.3846    0.0211    0.0869 C   0  0  0  0  0  0  0  0  0  0  0  0 
    6.5565    2.2927   -0.1027 C   0  0  0  0  0  0  0  0  0  0  0  0 
    5.2151   -0.1284    0.0243 C   0  0  0  0  0  0  0  0  0  0  0  0 
    4.5557    1.1383   -0.0089 C   0  0  0  0  0  0  0  0  0  0  0  0 
    5.2360    2.3220   -0.0721 N   0  0  0  0  0  0  0  0  0  0  0  0 
    0.4406   -0.4843   -0.7215 H   0  0  0  0  0  0  0  0  0  0  0  0 
    0.5035    1.0907    0.0875 H   0  0  0  0  0  0  0  0  0  0  0  0 
    0.4874   -0.4033    1.0394 H   0  0  0  0  0  0  0  0  0  0  0  0 
    7.9096    3.6761   -1.0696 H   0  0  0  0  0  0  0  0  0  0  0  0 
    7.9405    3.7522    0.6934 H   0  0  0  0  0  0  0  0  0  0  0  0 
    6.5555    4.4315   -0.1948 H   0  0  0  0  0  0  0  0  0  0  0  0 
    2.4672   -2.1463    0.1676 H   0  0  0  0  0  0  0  0  0  0  0  0 
    8.3855    1.1102   -0.1009 H   0  0  0  0  0  0  0  0  0  0  0  0 
    4.9301   -2.2742    0.1140 H   0  0  0  0  0  0  0  0  0  0  0  0 
    7.1745   -1.0648    0.0132 H   0  0  0  0  0  0  0  0  0  0  0  0 
    2.6653    2.1548   -0.0041 H   0  0  0  0  0  0  0  0  0  0  0  0 
  1 15  1  0  0  0  0 
  2  9  1  0  0  0  0 
  2 17  1  0  0  0  0 
  3 19  1  0  0  0  0 
  4  6  1  0  0  0  0 
  5 21  1  0  0  0  0 
  5  3  2  0  0  0  0 
  6 22  1  0  0  0  0 
  6 10  2  0  0  0  0 
  7  8  2  0  0  0  0 
  8  3  1  0  0  0  0 
  8  1  1  0  0  0  0 
  9  4  2  0  0  0  0 
  9 12  1  0  0  0  0 
 10  5  1  0  0  0  0 
 11 10  1  0  0  0  0 
 11  7  1  0  0  0  0 
 12 11  2  0  0  0  0 
 13  1  1  0  0  0  0 
 14  1  1  0  0  0  0 
 16  2  1  0  0  0  0 
 18  2  1  0  0  0  0 
 20  4  1  0  0  0  0 
 23  7  1  0  0  0  0 
M  END 
>  <HBA> 
1 
 
>  <HBD> 
0 
 
>  <TPSA> 
12.89 
 
>  <cid> 
7138 
 
>  <dipole> 
1.6 
 
>  <excitation_energy_1> 
4.388 
 
>  <excitation_energy_2> 
4.397 
 
>  <excitation_energy_3> 
4.434 
 
>  <excitation_energy_4> 
5.16 
 
>  <homo_energy> 
-6.095 
 
>  <homo_lumo_gap> 
4.953 
 
>  <logP> 
2.852 
 
>  <lumo_energy> 
-1.143 
 
>  <melting_point> 
72.83 
 
>  <molecular_refractivity> 
51.67 
 
>  <oscillator_strength_1> 
0.0013 
 
>  <oscillator_strength_2> 
0.034 
 
>  <oscillator_strength_3> 
0.0249 
 
>  <oscillator_strength_4> 
0.0 
 
>  <open_babel_can_smiles> 
Cc1ccc2c(c1)nc(cc2)C 
 
>  <mulliken_charges> 
23 
1   -0.532555 
2   -0.522834 
3   -0.176936 
4   -0.178473 
5   -0.196802 
6   -0.148417 
7   -0.215404 
8   0.178692 
9   0.316512 
10   0.152754 
11   0.244971 
12   -0.557478 
13   0.162158 
14   0.160998 
15   0.16249 
16   0.159478 
17   0.159796 
18   0.176908 
19   0.124508 
20   0.129467 
21   0.129737 
22   0.137 
23   0.133429 
 
>  <lowdin_charges> 
23 
1   -0.441819 
2   -0.449877 
3   -0.165843 
4   -0.185908 
5   -0.155636 
6   -0.127988 
7   -0.168556 
8   0.005565 
9   0.058152 
10   -0.02249 
11   0.044225 
12   -0.164298 
13   0.161589 
14   0.15888 
15   0.161305 
16   0.161309 
17   0.161675 
18   0.171312 
19   0.156866 
20   0.158808 
21   0.157196 
22   0.160727 
23   0.164804 
 
$$$$ 
 
