PCCDB-ID:  21717 
public computational chemistry database (PCCDB) project, http://pccdb.org 
 
 33 33  0  0  1  0  0  0  0  0999 V2000 
    4.6176    3.7263    4.5871 C   0  0  0  0  0  0  0  0  0  0  0  0 
    5.9594    4.0184    5.2692 C   0  0  0  0  0  0  0  0  0  0  0  0 
    7.0940    4.4045    4.3056 C   0  0  0  0  0  0  0  0  0  0  0  0 
   12.1567    4.0607   -1.3147 C   0  0  0  0  0  0  0  0  0  0  0  0 
    7.5414    3.2796    3.3607 C   0  0  0  0  0  0  0  0  0  0  0  0 
   12.4614    3.9445    0.0430 C   0  0  0  0  0  0  0  0  0  0  0  0 
   10.8901    3.6923   -1.7688 C   0  0  0  0  0  0  0  0  0  0  0  0 
   11.5070    3.4666    0.9413 C   0  0  0  0  0  0  0  0  0  0  0  0 
    9.9370    3.2123   -0.8693 C   0  0  0  0  0  0  0  0  0  0  0  0 
    8.7148    3.6952    2.4635 C   0  0  0  0  0  0  0  0  0  0  0  0 
   10.2294    3.0975    0.4955 C   0  0  0  0  0  0  0  0  0  0  0  0 
    9.1521    2.6026    1.4597 C   0  0  1  0  0  0  0  0  0  0  0  0 
    9.5948    1.3115    2.1399 C   0  0  0  0  0  0  0  0  0  0  0  0 
    9.2681    0.1965    1.8024 O   0  0  0  0  0  0  0  0  0  0  0  0 
   10.4344    1.5289    3.1890 O   0  0  0  0  0  0  0  0  0  0  0  0 
    3.8401    3.5063    5.3274 H   0  0  0  0  0  0  0  0  0  0  0  0 
    4.6796    2.8657    3.9117 H   0  0  0  0  0  0  0  0  0  0  0  0 
    4.2800    4.5879    3.9971 H   0  0  0  0  0  0  0  0  0  0  0  0 
    6.2687    3.1436    5.8591 H   0  0  0  0  0  0  0  0  0  0  0  0 
    5.8208    4.8359    5.9896 H   0  0  0  0  0  0  0  0  0  0  0  0 
    7.9615    4.7333    4.8953 H   0  0  0  0  0  0  0  0  0  0  0  0 
    6.7822    5.2761    3.7107 H   0  0  0  0  0  0  0  0  0  0  0  0 
   12.9017    4.4330   -2.0128 H   0  0  0  0  0  0  0  0  0  0  0  0 
    6.7009    2.9618    2.7287 H   0  0  0  0  0  0  0  0  0  0  0  0 
    7.8271    2.4033    3.9598 H   0  0  0  0  0  0  0  0  0  0  0  0 
   13.4470    4.2245    0.4057 H   0  0  0  0  0  0  0  0  0  0  0  0 
   10.6421    3.7752   -2.8237 H   0  0  0  0  0  0  0  0  0  0  0  0 
   11.7586    3.3696    1.9930 H   0  0  0  0  0  0  0  0  0  0  0  0 
    8.9528    2.9237   -1.2309 H   0  0  0  0  0  0  0  0  0  0  0  0 
    9.5720    3.9847    3.0823 H   0  0  0  0  0  0  0  0  0  0  0  0 
    8.4361    4.5826    1.8805 H   0  0  0  0  0  0  0  0  0  0  0  0 
    8.2830    2.3068    0.8633 H   0  0  0  0  0  0  0  0  0  0  0  0 
   10.6790    0.6436    3.5192 H   0  0  0  0  0  0  0  0  0  0  0  0 
  1  2  1  0  0  0  0 
  1 16  1  0  0  0  0 
  2 19  1  0  0  0  0 
  2 20  1  0  0  0  0 
  3 21  1  0  0  0  0 
  3  2  1  0  0  0  0 
  4  6  1  0  0  0  0 
  5 25  1  0  0  0  0 
  5  3  1  0  0  0  0 
  6 26  1  0  0  0  0 
  6  8  2  0  0  0  0 
  7  4  2  0  0  0  0 
  7  9  1  0  0  0  0 
  8 28  1  0  0  0  0 
  9 11  2  0  0  0  0 
 10 30  1  0  0  0  0 
 10  5  1  0  0  0  0 
 11  8  1  0  0  0  0 
 11 12  1  0  0  0  0 
 12 32  1  6  0  0  0 
 12 13  1  0  0  0  0 
 12 10  1  0  0  0  0 
 13 15  1  0  0  0  0 
 14 13  2  0  0  0  0 
 15 33  1  0  0  0  0 
 17  1  1  0  0  0  0 
 18  1  1  0  0  0  0 
 22  3  1  0  0  0  0 
 23  4  1  0  0  0  0 
 24  5  1  0  0  0  0 
 27  7  1  0  0  0  0 
 29  9  1  0  0  0  0 
 31 10  1  0  0  0  0 
M  END 
>  <HBA> 
2 
 
>  <HBD> 
1 
 
>  <TPSA> 
37.3 
 
>  <cid> 
21717 
 
>  <dipole> 
1.72 
 
>  <excitation_energy_1> 
5.239 
 
>  <excitation_energy_2> 
5.4 
 
>  <excitation_energy_3> 
5.874 
 
>  <excitation_energy_4> 
6.035 
 
>  <homo_energy> 
-6.572 
 
>  <homo_lumo_gap> 
6.291 
 
>  <logP> 
3.435 
 
>  <lumo_energy> 
-0.28 
 
>  <melting_point> 
80.32 
 
>  <molecular_refractivity> 
62.02 
 
>  <oscillator_strength_1> 
0.005 
 
>  <oscillator_strength_2> 
0.0704 
 
>  <oscillator_strength_3> 
0.0193 
 
>  <oscillator_strength_4> 
0.0089 
 
>  <open_babel_can_smiles> 
CCCCC[C@@H](c1ccccc1)C(=O)O 
 
>  <mulliken_charges> 
33 
1   -0.444209 
2   -0.249586 
3   -0.251002 
4   -0.12738 
5   -0.264404 
6   -0.130365 
7   -0.128015 
8   -0.17623 
9   -0.183106 
10   -0.258318 
11   0.149254 
12   -0.247787 
13   0.579287 
14   -0.462863 
15   -0.567218 
16   0.143269 
17   0.147781 
18   0.140627 
19   0.130974 
20   0.13176 
21   0.130247 
22   0.127913 
23   0.130186 
24   0.137086 
25   0.138376 
26   0.13061 
27   0.131313 
28   0.146243 
29   0.130408 
30   0.153503 
31   0.142668 
32   0.160392 
33   0.408585 
 
>  <lowdin_charges> 
33 
1   -0.44941 
2   -0.273964 
3   -0.275785 
4   -0.1587 
5   -0.282007 
6   -0.153104 
7   -0.152373 
8   -0.163547 
9   -0.162951 
10   -0.272532 
11   -0.001176 
12   -0.14459 
13   0.197386 
14   -0.26001 
15   -0.364719 
16   0.151196 
17   0.148213 
18   0.146571 
19   0.139888 
20   0.142934 
21   0.142191 
22   0.138451 
23   0.159413 
24   0.142596 
25   0.143117 
26   0.157487 
27   0.157233 
28   0.162787 
29   0.156951 
30   0.152469 
31   0.150128 
32   0.165754 
33   0.360101 
 
$$$$ 
 
