PCCDB-ID:  70291 
public computational chemistry database (PCCDB) project, http://pccdb.org 
 
 21 21  0  0  0  0  0  0  0  0999 V2000 
    0.8942   -0.0698    0.1848 C   0  0  0  0  0  0  0  0  0  0  0  0 
    6.7452    0.2859   -0.6663 C   0  0  0  0  0  0  0  0  0  0  0  0 
    5.2858   -2.4803   -0.5603 C   0  0  0  0  0  0  0  0  0  0  0  0 
    3.0228    1.2483   -0.0798 C   0  0  0  0  0  0  0  0  0  0  0  0 
    2.3713    0.0734   -0.0307 C   0  0  0  0  0  0  0  0  0  0  0  0 
    5.2717    0.0678   -0.4608 C   0  0  0  0  0  0  0  0  0  0  0  0 
    4.6373   -1.1303   -0.4144 C   0  0  0  0  0  0  0  0  0  0  0  0 
    4.4819    1.3307   -0.2961 C   0  0  0  0  0  0  0  0  0  0  0  0 
    3.1567   -1.1896   -0.1956 C   0  0  0  0  0  0  0  0  0  0  0  0 
    5.0388    2.4243   -0.3400 O   0  0  0  0  0  0  0  0  0  0  0  0 
    2.5834   -2.2739   -0.1505 O   0  0  0  0  0  0  0  0  0  0  0  0 
    0.4119    0.9073    0.2749 H   0  0  0  0  0  0  0  0  0  0  0  0 
    0.6900   -0.6529    1.0902 H   0  0  0  0  0  0  0  0  0  0  0  0 
    0.4346   -0.6217   -0.6429 H   0  0  0  0  0  0  0  0  0  0  0  0 
    7.2956   -0.6437   -0.8116 H   0  0  0  0  0  0  0  0  0  0  0  0 
    7.1720    0.8152    0.1935 H   0  0  0  0  0  0  0  0  0  0  0  0 
    6.9139    0.9354   -1.5323 H   0  0  0  0  0  0  0  0  0  0  0  0 
    6.3558   -2.4155   -0.7589 H   0  0  0  0  0  0  0  0  0  0  0  0 
    4.8107   -3.0437   -1.3708 H   0  0  0  0  0  0  0  0  0  0  0  0 
    5.1349   -3.0752    0.3480 H   0  0  0  0  0  0  0  0  0  0  0  0 
    2.5140    2.2024    0.0328 H   0  0  0  0  0  0  0  0  0  0  0  0 
  1 12  1  0  0  0  0 
  1 13  1  0  0  0  0 
  2  6  1  0  0  0  0 
  2 16  1  0  0  0  0 
  3  7  1  0  0  0  0 
  3 20  1  0  0  0  0 
  4  5  2  0  0  0  0 
  4 21  1  0  0  0  0 
  5  1  1  0  0  0  0 
  6  7  2  0  0  0  0 
  6  8  1  0  0  0  0 
  7  9  1  0  0  0  0 
  8  4  1  0  0  0  0 
  9 11  2  0  0  0  0 
  9  5  1  0  0  0  0 
 10  8  2  0  0  0  0 
 14  1  1  0  0  0  0 
 15  2  1  0  0  0  0 
 17  2  1  0  0  0  0 
 18  3  1  0  0  0  0 
 19  3  1  0  0  0  0 
M  END 
>  <HBA> 
2 
 
>  <HBD> 
0 
 
>  <TPSA> 
34.14 
 
>  <cid> 
70291 
 
>  <dipole> 
0.61 
 
>  <excitation_energy_1> 
2.559 
 
>  <excitation_energy_2> 
2.89 
 
>  <excitation_energy_3> 
3.239 
 
>  <excitation_energy_4> 
4.639 
 
>  <homo_energy> 
-6.983 
 
>  <homo_lumo_gap> 
3.869 
 
>  <logP> 
1.421 
 
>  <lumo_energy> 
-3.113 
 
>  <melting_point> 
66.64 
 
>  <molecular_refractivity> 
42.72 
 
>  <oscillator_strength_1> 
0.0 
 
>  <oscillator_strength_2> 
0.0 
 
>  <oscillator_strength_3> 
0.0044 
 
>  <oscillator_strength_4> 
0.2722 
 
>  <open_babel_can_smiles> 
O=C1C=C(C)C(=O)C(=C1C)C 
 
>  <mulliken_charges> 
21 
1   -0.512286 
2   -0.514866 
3   -0.514204 
4   -0.244176 
5   0.138661 
6   0.040827 
7   0.047732 
8   0.414176 
9   0.361582 
10   -0.46929 
11   -0.459775 
12   0.158919 
13   0.181353 
14   0.181669 
15   0.157188 
16   0.180452 
17   0.181518 
18   0.157138 
19   0.180188 
20   0.179063 
21   0.154132 
 
>  <lowdin_charges> 
21 
1   -0.436176 
2   -0.441472 
3   -0.439522 
4   -0.175292 
5   -0.001332 
6   -0.021747 
7   -0.025933 
8   0.145269 
9   0.14483 
10   -0.226308 
11   -0.225066 
12   0.160453 
13   0.175439 
14   0.176249 
15   0.158847 
16   0.175579 
17   0.175773 
18   0.157079 
19   0.175278 
20   0.173955 
21   0.174098 
 
$$$$ 
 
