PCCDB-ID:  10428 
public computational chemistry database (PCCDB) project, http://pccdb.org 
 
 19 19  0  0  1  0  0  0  0  0999 V2000 
    0.9865   -0.0084   -0.0374 C   0  0  0  0  0  0  0  0  0  0  0  0 
    3.1094    1.2069   -0.7542 C   0  0  0  0  0  0  0  0  0  0  0  0 
    4.6284    1.1657   -0.6834 C   0  0  0  0  0  0  0  0  0  0  0  0 
    3.0839   -1.2725   -0.6779 C   0  0  0  0  0  0  0  0  0  0  0  0 
    4.5732   -1.2576   -1.0104 C   0  0  0  0  0  0  0  0  0  0  0  0 
    2.5175   -0.0093   -0.0226 C   0  0  2  0  0  0  0  0  0  0  0  0 
    5.1890   -2.2740   -1.2196 O   0  0  0  0  0  0  0  0  0  0  0  0 
    2.9954   -0.0476    1.3322 O   0  0  0  0  0  0  0  0  0  0  0  0 
    5.1906   -0.0607   -1.1897 O   0  0  0  0  0  0  0  0  0  0  0  0 
    0.5934    0.0138   -1.0599 H   0  0  0  0  0  0  0  0  0  0  0  0 
    0.5965    0.8736    0.4876 H   0  0  0  0  0  0  0  0  0  0  0  0 
    0.6018   -0.9020    0.4649 H   0  0  0  0  0  0  0  0  0  0  0  0 
    2.7753    1.2112   -1.7996 H   0  0  0  0  0  0  0  0  0  0  0  0 
    2.7552    2.1422   -0.2987 H   0  0  0  0  0  0  0  0  0  0  0  0 
    4.9599    1.2829    0.3534 H   0  0  0  0  0  0  0  0  0  0  0  0 
    5.0811    1.9555   -1.2880 H   0  0  0  0  0  0  0  0  0  0  0  0 
    2.8977   -2.1446   -0.0458 H   0  0  0  0  0  0  0  0  0  0  0  0 
    2.5679   -1.4505   -1.6306 H   0  0  0  0  0  0  0  0  0  0  0  0 
    2.6242    0.7187    1.7993 H   0  0  0  0  0  0  0  0  0  0  0  0 
  1  6  1  0  0  0  0 
  1 12  1  0  0  0  0 
  1 11  1  0  0  0  0 
  2  3  1  0  0  0  0 
  2 14  1  0  0  0  0 
  2  6  1  0  0  0  0 
  3 15  1  0  0  0  0 
  4 17  1  0  0  0  0 
  4  6  1  0  0  0  0 
  5  4  1  0  0  0  0 
  6  8  1  1  0  0  0 
  7  5  2  0  0  0  0 
  8 19  1  0  0  0  0 
  9  5  1  0  0  0  0 
  9  3  1  0  0  0  0 
 10  1  1  0  0  0  0 
 13  2  1  0  0  0  0 
 16  3  1  0  0  0  0 
 18  4  1  0  0  0  0 
M  END 
>  <HBA> 
3 
 
>  <HBD> 
1 
 
>  <TPSA> 
46.53 
 
>  <cid> 
10428 
 
>  <dipole> 
5.91 
 
>  <excitation_energy_1> 
5.525 
 
>  <excitation_energy_2> 
6.295 
 
>  <excitation_energy_3> 
6.612 
 
>  <excitation_energy_4> 
6.896 
 
>  <homo_energy> 
-6.974 
 
>  <homo_lumo_gap> 
7.372 
 
>  <logP> 
0.074 
 
>  <lumo_energy> 
0.397 
 
>  <melting_point> 
38.1 
 
>  <molecular_refractivity> 
31.33 
 
>  <oscillator_strength_1> 
0.0011 
 
>  <oscillator_strength_2> 
0.0078 
 
>  <oscillator_strength_3> 
0.0082 
 
>  <oscillator_strength_4> 
0.0307 
 
>  <open_babel_can_smiles> 
O=C1OCC[C@](C1)(C)O 
 
>  <mulliken_charges> 
19 
1   -0.464299 
2   -0.314429 
3   -0.025881 
4   -0.369694 
5   0.607523 
6   0.290237 
7   -0.453184 
8   -0.632019 
9   -0.452587 
10   0.148891 
11   0.135926 
12   0.165473 
13   0.150663 
14   0.135813 
15   0.162117 
16   0.158541 
17   0.19224 
18   0.175934 
19   0.388736 
 
>  <lowdin_charges> 
19 
1   -0.455445 
2   -0.306704 
3   -0.125865 
4   -0.313525 
5   0.200095 
6   0.11569 
7   -0.244334 
8   -0.459579 
9   -0.193736 
10   0.155253 
11   0.148339 
12   0.163125 
13   0.153247 
14   0.151526 
15   0.150969 
16   0.15827 
17   0.183943 
18   0.175895 
19   0.342834 
 
$$$$ 
 
