PCCDB-ID:  50471 
public computational chemistry database (PCCDB) project, http://pccdb.org 
 
 31 33  0  0  0  0  0  0  0  0999 V2000 
   -1.5297    0.1110    0.3948 C   0  0  0  0  0  0  0  0  0  0  0  0 
   -1.0402    0.8713   -0.6689 C   0  0  0  0  0  0  0  0  0  0  0  0 
   -0.6351   -0.5663    1.2250 C   0  0  0  0  0  0  0  0  0  0  0  0 
    4.7533   -0.8969   -0.8308 C   0  0  0  0  0  0  0  0  0  0  0  0 
    0.3332    0.9565   -0.8978 C   0  0  0  0  0  0  0  0  0  0  0  0 
    0.7382   -0.4817    0.9932 C   0  0  0  0  0  0  0  0  0  0  0  0 
    5.4714    0.2936   -0.8096 C   0  0  0  0  0  0  0  0  0  0  0  0 
    3.3819   -0.8751   -0.5832 C   0  0  0  0  0  0  0  0  0  0  0  0 
    5.6655    2.7833   -0.4737 C   0  0  0  0  0  0  0  0  0  0  0  0 
    4.7956    4.0385   -0.5186 C   0  0  0  0  0  0  0  0  0  0  0  0 
    2.7662    2.8577    0.0274 C   0  0  0  0  0  0  0  0  0  0  0  0 
    1.2455    0.2849   -0.0683 C   0  0  0  0  0  0  0  0  0  0  0  0 
    4.8379    1.5116   -0.5330 C   0  0  0  0  0  0  0  0  0  0  0  0 
    2.7174    0.3305   -0.3229 C   0  0  0  0  0  0  0  0  0  0  0  0 
    3.4538    1.5370   -0.2859 C   0  0  0  0  0  0  0  0  0  0  0  0 
    3.7247    3.8734    0.4611 N   0  0  0  0  0  0  0  0  0  0  0  0 
   -2.5996    0.0447    0.5732 H   0  0  0  0  0  0  0  0  0  0  0  0 
   -1.7291    1.3937   -1.3279 H   0  0  0  0  0  0  0  0  0  0  0  0 
   -1.0056   -1.1613    2.0558 H   0  0  0  0  0  0  0  0  0  0  0  0 
    5.2547   -1.8372   -1.0444 H   0  0  0  0  0  0  0  0  0  0  0  0 
    0.7033    1.5319   -1.7419 H   0  0  0  0  0  0  0  0  0  0  0  0 
    1.4326   -1.0048    1.6454 H   0  0  0  0  0  0  0  0  0  0  0  0 
    6.5420    0.2873   -1.0047 H   0  0  0  0  0  0  0  0  0  0  0  0 
    2.8076   -1.7973   -0.6069 H   0  0  0  0  0  0  0  0  0  0  0  0 
    6.2408    2.7923    0.4621 H   0  0  0  0  0  0  0  0  0  0  0  0 
    6.3945    2.7941   -1.2944 H   0  0  0  0  0  0  0  0  0  0  0  0 
    4.4150    4.1937   -1.5482 H   0  0  0  0  0  0  0  0  0  0  0  0 
    5.3893    4.9203   -0.2540 H   0  0  0  0  0  0  0  0  0  0  0  0 
    2.0297    2.7095    0.8247 H   0  0  0  0  0  0  0  0  0  0  0  0 
    2.1963    3.1846   -0.8655 H   0  0  0  0  0  0  0  0  0  0  0  0 
    3.2322    4.7535    0.5958 H   0  0  0  0  0  0  0  0  0  0  0  0 
  1 17  1  0  0  0  0 
  1  3  2  0  0  0  0 
  2  1  1  0  0  0  0 
  3 19  1  0  0  0  0 
  4  7  2  0  0  0  0 
  4  8  1  0  0  0  0 
  5  2  2  0  0  0  0 
  5 12  1  0  0  0  0 
  6  3  1  0  0  0  0 
  6 22  1  0  0  0  0 
  7 13  1  0  0  0  0 
  8 14  2  0  0  0  0 
  9 25  1  0  0  0  0 
 10  9  1  0  0  0  0 
 10 28  1  0  0  0  0 
 10 16  1  0  0  0  0 
 11 16  1  0  0  0  0 
 11 29  1  0  0  0  0 
 12  6  2  0  0  0  0 
 13  9  1  0  0  0  0 
 13 15  2  0  0  0  0 
 14 15  1  0  0  0  0 
 14 12  1  0  0  0  0 
 15 11  1  0  0  0  0 
 16 31  1  0  0  0  0 
 18  2  1  0  0  0  0 
 20  4  1  0  0  0  0 
 21  5  1  0  0  0  0 
 23  7  1  0  0  0  0 
 24  8  1  0  0  0  0 
 26  9  1  0  0  0  0 
 27 10  1  0  0  0  0 
 30 11  1  0  0  0  0 
M  END 
>  <HBA> 
1 
 
>  <HBD> 
1 
 
>  <TPSA> 
12.03 
 
>  <cid> 
50471 
 
>  <dipole> 
1.11 
 
>  <excitation_energy_1> 
4.73 
 
>  <excitation_energy_2> 
4.856 
 
>  <excitation_energy_3> 
5.053 
 
>  <excitation_energy_4> 
5.117 
 
>  <homo_energy> 
-5.872 
 
>  <homo_lumo_gap> 
5.464 
 
>  <logP> 
3.328 
 
>  <lumo_energy> 
-0.408 
 
>  <melting_point> 
99.36 
 
>  <molecular_refractivity> 
71.22 
 
>  <oscillator_strength_1> 
0.0301 
 
>  <oscillator_strength_2> 
0.0081 
 
>  <oscillator_strength_3> 
0.0433 
 
>  <oscillator_strength_4> 
0.0083 
 
>  <open_babel_can_smiles> 
c1ccc(cc1)c1cccc2c1CNCC2 
 
>  <mulliken_charges> 
31 
1   -0.127099 
2   -0.133767 
3   -0.132927 
4   -0.130617 
5   -0.161772 
6   -0.162691 
7   -0.18387 
8   -0.171336 
9   -0.319703 
10   -0.148764 
11   -0.205881 
12   0.0516 
13   0.11451 
14   0.013444 
15   0.083399 
16   -0.551342 
17   0.12879 
18   0.129104 
19   0.130181 
20   0.125805 
21   0.132848 
22   0.135063 
23   0.118754 
24   0.129806 
25   0.161978 
26   0.138782 
27   0.114172 
28   0.136083 
29   0.161711 
30   0.124787 
31   0.298953 
 
>  <lowdin_charges> 
31 
1   -0.156929 
2   -0.158532 
3   -0.155983 
4   -0.159499 
5   -0.16119 
6   -0.162226 
7   -0.162257 
8   -0.165246 
9   -0.278355 
10   -0.202739 
11   -0.207086 
12   -0.002614 
13   -0.00888 
14   -0.011433 
15   -0.019578 
16   -0.362086 
17   0.155688 
18   0.158803 
19   0.158577 
20   0.156729 
21   0.159037 
22   0.162429 
23   0.15148 
24   0.159055 
25   0.159033 
26   0.150212 
27   0.114888 
28   0.14649 
29   0.160541 
30   0.125512 
31   0.256157 
 
$$$$ 
 
