PCCDB-ID:  21446 
public computational chemistry database (PCCDB) project, http://pccdb.org 
 
 16 15  0  0  0  0  0  0  0  0999 V2000 
    1.6735   -1.0453    1.1440 C   0  0  0  0  0  0  0  0  0  0  0  0 
    2.0169   -0.3903   -0.1842 C   0  0  0  0  0  0  0  0  0  0  0  0 
    5.5604    0.6909    0.0471 C   0  0  0  0  0  0  0  0  0  0  0  0 
    4.7068    1.5122    2.5224 C   0  0  0  0  0  0  0  0  0  0  0  0 
    4.3981   -0.2518   -0.2228 C   0  0  0  0  0  0  0  0  0  0  0  0 
    3.8246    2.0574    3.0557 N   0  0  0  0  0  0  0  0  0  0  0  0 
    4.5266   -1.4196   -0.5139 O   0  0  0  0  0  0  0  0  0  0  0  0 
    3.2338    0.3984   -0.0725 O   0  0  0  0  0  0  0  0  0  0  0  0 
    6.0394    0.7036    1.8389 S   0  0  0  0  0  0  0  0  0  0  0  0 
    0.7071   -1.5558    1.0638 H   0  0  0  0  0  0  0  0  0  0  0  0 
    1.6072   -0.2958    1.9386 H   0  0  0  0  0  0  0  0  0  0  0  0 
    2.4298   -1.7869    1.4172 H   0  0  0  0  0  0  0  0  0  0  0  0 
    1.2596    0.3364   -0.4852 H   0  0  0  0  0  0  0  0  0  0  0  0 
    2.1532   -1.1284   -0.9780 H   0  0  0  0  0  0  0  0  0  0  0  0 
    5.3450    1.7120   -0.2705 H   0  0  0  0  0  0  0  0  0  0  0  0 
    6.4523    0.3130   -0.4565 H   0  0  0  0  0  0  0  0  0  0  0  0 
  1 12  1  0  0  0  0 
  1 11  1  0  0  0  0 
  2  8  1  0  0  0  0 
  2  1  1  0  0  0  0 
  3  9  1  0  0  0  0 
  4  6  3  0  0  0  0 
  5  8  1  0  0  0  0 
  5  3  1  0  0  0  0 
  7  5  2  0  0  0  0 
  9  4  1  0  0  0  0 
 10  1  1  0  0  0  0 
 13  2  1  0  0  0  0 
 14  2  1  0  0  0  0 
 15  3  1  0  0  0  0 
 16  3  1  0  0  0  0 
M  END 
>  <HBA> 
4 
 
>  <HBD> 
0 
 
>  <TPSA> 
75.39 
 
>  <cid> 
21446 
 
>  <dipole> 
2.37 
 
>  <excitation_energy_1> 
4.597 
 
>  <excitation_energy_2> 
5.308 
 
>  <excitation_energy_3> 
5.875 
 
>  <excitation_energy_4> 
6.431 
 
>  <homo_energy> 
-7.355 
 
>  <homo_lumo_gap> 
5.921 
 
>  <logP> 
0.764 
 
>  <lumo_energy> 
-1.434 
 
>  <melting_point> 
29.41 
 
>  <molecular_refractivity> 
34.77 
 
>  <oscillator_strength_1> 
0.0029 
 
>  <oscillator_strength_2> 
0.006 
 
>  <oscillator_strength_3> 
0.0026 
 
>  <oscillator_strength_4> 
0.0218 
 
>  <open_babel_can_smiles> 
CCOC(=O)CSC#N 
 
>  <mulliken_charges> 
16 
1   -0.469912 
2   -0.052292 
3   -0.523428 
4   0.13226 
5   0.629073 
6   -0.379814 
7   -0.456576 
8   -0.435384 
9   0.254651 
10   0.155076 
11   0.181052 
12   0.175829 
13   0.163377 
14   0.174883 
15   0.22743 
16   0.223774 
 
>  <lowdin_charges> 
16 
1   -0.456709 
2   -0.126911 
3   -0.383737 
4   -0.16742 
5   0.183584 
6   -0.110111 
7   -0.251035 
8   -0.179618 
9   0.28427 
10   0.161783 
11   0.168594 
12   0.166293 
13   0.159696 
14   0.16145 
15   0.192018 
16   0.197853 
 
$$$$ 
 
