PCCDB-ID:  22499 
public computational chemistry database (PCCDB) project, http://pccdb.org 
 
 27 27  0  0  0  0  0  0  0  0999 V2000 
    0.9753    0.1090    0.3302 C   0  0  0  0  0  0  0  0  0  0  0  0 
    5.2463   -2.5877   -0.3931 C   0  0  0  0  0  0  0  0  0  0  0  0 
    2.5559   -3.4085    1.0485 C   0  0  0  0  0  0  0  0  0  0  0  0 
    1.7965   -2.9246   -1.2225 C   0  0  0  0  0  0  0  0  0  0  0  0 
    3.2271    1.1964    0.0728 C   0  0  0  0  0  0  0  0  0  0  0  0 
    5.2408   -0.0927   -0.2465 C   0  0  0  0  0  0  0  0  0  0  0  0 
    2.4692    0.0229    0.1248 C   0  0  0  0  0  0  0  0  0  0  0  0 
    4.5050   -1.2805   -0.2126 C   0  0  0  0  0  0  0  0  0  0  0  0 
    4.6096    1.1422   -0.1055 C   0  0  0  0  0  0  0  0  0  0  0  0 
    3.1059   -1.2297   -0.0153 C   0  0  0  0  0  0  0  0  0  0  0  0 
    2.2693   -2.3959    0.0465 N   0  0  0  0  0  0  0  0  0  0  0  0 
    5.3937    2.2648   -0.1527 O   0  0  0  0  0  0  0  0  0  0  0  0 
    0.6753    1.1264    0.6019 H   0  0  0  0  0  0  0  0  0  0  0  0 
    0.6450   -0.5794    1.1135 H   0  0  0  0  0  0  0  0  0  0  0  0 
    0.4245   -0.1672   -0.5780 H   0  0  0  0  0  0  0  0  0  0  0  0 
    6.2292   -2.4112   -0.8407 H   0  0  0  0  0  0  0  0  0  0  0  0 
    4.7034   -3.2825   -1.0403 H   0  0  0  0  0  0  0  0  0  0  0  0 
    5.4113   -3.0995    0.5635 H   0  0  0  0  0  0  0  0  0  0  0  0 
    1.6332   -3.9579    1.2812 H   0  0  0  0  0  0  0  0  0  0  0  0 
    2.9008   -2.9247    1.9672 H   0  0  0  0  0  0  0  0  0  0  0  0 
    3.3126   -4.1547    0.7488 H   0  0  0  0  0  0  0  0  0  0  0  0 
    2.5488   -3.5211   -1.7724 H   0  0  0  0  0  0  0  0  0  0  0  0 
    1.4834   -2.1017   -1.8723 H   0  0  0  0  0  0  0  0  0  0  0  0 
    0.9264   -3.5718   -1.0495 H   0  0  0  0  0  0  0  0  0  0  0  0 
    2.7328    2.1610    0.1834 H   0  0  0  0  0  0  0  0  0  0  0  0 
    6.3164   -0.1145   -0.3966 H   0  0  0  0  0  0  0  0  0  0  0  0 
    4.8267    3.0438   -0.0434 H   0  0  0  0  0  0  0  0  0  0  0  0 
  1 13  1  0  0  0  0 
  1 14  1  0  0  0  0 
  2  8  1  0  0  0  0 
  2 18  1  0  0  0  0 
  3 19  1  0  0  0  0 
  3 20  1  0  0  0  0 
  4 24  1  0  0  0  0 
  4 11  1  0  0  0  0 
  5  7  1  0  0  0  0 
  5 25  1  0  0  0  0 
  6  8  2  0  0  0  0 
  6  9  1  0  0  0  0 
  7  1  1  0  0  0  0 
  8 10  1  0  0  0  0 
  9  5  2  0  0  0  0 
 10 11  1  0  0  0  0 
 10  7  2  0  0  0  0 
 11  3  1  0  0  0  0 
 12  9  1  0  0  0  0 
 12 27  1  0  0  0  0 
 15  1  1  0  0  0  0 
 16  2  1  0  0  0  0 
 17  2  1  0  0  0  0 
 21  3  1  0  0  0  0 
 22  4  1  0  0  0  0 
 23  4  1  0  0  0  0 
 26  6  1  0  0  0  0 
M  END 
>  <HBA> 
2 
 
>  <HBD> 
1 
 
>  <TPSA> 
23.47 
 
>  <cid> 
22499 
 
>  <dipole> 
1.04 
 
>  <excitation_energy_1> 
4.507 
 
>  <excitation_energy_2> 
4.721 
 
>  <excitation_energy_3> 
4.787 
 
>  <excitation_energy_4> 
4.965 
 
>  <homo_energy> 
-5.287 
 
>  <homo_lumo_gap> 
5.54 
 
>  <logP> 
2.075 
 
>  <lumo_energy> 
0.253 
 
>  <melting_point> 
63.32 
 
>  <molecular_refractivity> 
52.6 
 
>  <oscillator_strength_1> 
0.0141 
 
>  <oscillator_strength_2> 
0.0343 
 
>  <oscillator_strength_3> 
0.0059 
 
>  <oscillator_strength_4> 
0.0094 
 
>  <open_babel_can_smiles> 
CN(c1c(C)cc(cc1C)O)C 
 
>  <mulliken_charges> 
27 
1   -0.513066 
2   -0.536222 
3   -0.295905 
4   -0.29336 
5   -0.284241 
6   -0.248246 
7   0.170779 
8   0.179919 
9   0.380701 
10   0.117513 
11   -0.456204 
12   -0.651079 
13   0.140922 
14   0.168425 
15   0.156729 
16   0.155464 
17   0.162898 
18   0.163247 
19   0.14269 
20   0.155012 
21   0.12306 
22   0.12414 
23   0.154246 
24   0.142454 
25   0.107011 
26   0.12758 
27   0.405533 
 
>  <lowdin_charges> 
27 
1   -0.438767 
2   -0.442461 
3   -0.35345 
4   -0.351099 
5   -0.231684 
6   -0.202295 
7   0.00706 
8   -0.000875 
9   0.101242 
10   -0.001611 
11   -0.168741 
12   -0.382866 
13   0.148162 
14   0.167027 
15   0.158411 
16   0.157113 
17   0.160644 
18   0.16018 
19   0.144968 
20   0.155559 
21   0.125 
22   0.123786 
23   0.154422 
24   0.145214 
25   0.148045 
26   0.160209 
27   0.356807 
 
$$$$ 
 
