PCCDB-ID:  9955 
public computational chemistry database (PCCDB) project, http://pccdb.org 
 
 15 16  0  0  0  0  0  0  0  0999 V2000 
   -0.9006    1.4143    0.0477 C   0  0  0  0  0  0  0  0  0  0  0  0 
    2.2520    0.0260    0.0029 C   0  0  0  0  0  0  0  0  0  0  0  0 
    0.2876    0.7623    0.0286 C   0  0  0  0  0  0  0  0  0  0  0  0 
    0.2826   -0.6865    0.0228 C   0  0  0  0  0  0  0  0  0  0  0  0 
   -2.1450   -0.7364    0.0531 C   0  0  0  0  0  0  0  0  0  0  0  0 
   -3.2096   -1.4462    0.0627 N   0  0  0  0  0  0  0  0  0  0  0  0 
   -2.0604    0.6711    0.0594 N   0  0  0  0  0  0  0  0  0  0  0  0 
    1.6120    1.1771    0.0150 N   0  0  0  0  0  0  0  0  0  0  0  0 
    1.5067   -1.1595    0.0066 N   0  0  0  0  0  0  0  0  0  0  0  0 
   -0.9016   -1.3632    0.0348 N   0  0  0  0  0  0  0  0  0  0  0  0 
   -1.0161    2.4926    0.0541 H   0  0  0  0  0  0  0  0  0  0  0  0 
    3.3353   -0.0273   -0.0106 H   0  0  0  0  0  0  0  0  0  0  0  0 
   -4.0561   -0.8785    0.0760 H   0  0  0  0  0  0  0  0  0  0  0  0 
   -2.9450    1.1584    0.0739 H   0  0  0  0  0  0  0  0  0  0  0  0 
   -0.9221   -2.3765    0.0308 H   0  0  0  0  0  0  0  0  0  0  0  0 
  1 11  1  0  0  0  0 
  1  7  1  0  0  0  0 
  2  9  1  0  0  0  0 
  2  8  2  0  0  0  0 
  3  1  2  0  0  0  0 
  4  3  1  0  0  0  0 
  4 10  1  0  0  0  0 
  5  7  1  0  0  0  0 
  5  6  2  0  0  0  0 
  6 13  1  0  0  0  0 
  7 14  1  0  0  0  0 
  8  3  1  0  0  0  0 
  9  4  2  0  0  0  0 
 10  5  1  0  0  0  0 
 12  2  1  0  0  0  0 
 15 10  1  0  0  0  0 
M  END 
>  <HBA> 
4 
 
>  <HBD> 
2 
 
>  <TPSA> 
80.48 
 
>  <cid> 
9955 
 
>  <dipole> 
4.56 
 
>  <excitation_energy_1> 
3.438 
 
>  <excitation_energy_2> 
4.194 
 
>  <excitation_energy_3> 
4.525 
 
>  <excitation_energy_4> 
4.633 
 
>  <homo_energy> 
-5.87 
 
>  <homo_lumo_gap> 
4.046 
 
>  <logP> 
0.516 
 
>  <lumo_energy> 
-1.823 
 
>  <melting_point> 
191.6 
 
>  <molecular_refractivity> 
36.09 
 
>  <oscillator_strength_1> 
0.0358 
 
>  <oscillator_strength_2> 
0.0008 
 
>  <oscillator_strength_3> 
0.0016 
 
>  <oscillator_strength_4> 
0.0933 
 
>  <open_babel_can_smiles> 
N=c1[nH]cc2c([nH]1)ncn2 
 
>  <mulliken_charges> 
15 
1   0.078639 
2   0.173858 
3   0.21136 
4   0.546356 
5   0.684372 
6   -0.645349 
7   -0.66222 
8   -0.496341 
9   -0.504955 
10   -0.719312 
11   0.194366 
12   0.149009 
13   0.279033 
14   0.348898 
15   0.362285 
 
>  <lowdin_charges> 
15 
1   -0.049813 
2   -0.038649 
3   -0.037052 
4   0.079995 
5   0.139837 
6   -0.463641 
7   -0.218737 
8   -0.209321 
9   -0.236654 
10   -0.182812 
11   0.184202 
12   0.1603 
13   0.2577 
14   0.301366 
15   0.313281 
 
$$$$ 
 
