PCCDB-ID:  8143 
public computational chemistry database (PCCDB) project, http://pccdb.org 
 
 28 27  0  0  0  0  0  0  0  0999 V2000 
    4.4887    3.1954   -2.5913 C   0  0  0  0  0  0  0  0  0  0  0  0 
    4.5881    1.6756   -2.7600 C   0  0  0  0  0  0  0  0  0  0  0  0 
    4.6219    0.9263   -1.4205 C   0  0  0  0  0  0  0  0  0  0  0  0 
    4.6208   -0.6079   -1.5411 C   0  0  0  0  0  0  0  0  0  0  0  0 
    5.8458   -1.2371   -2.2304 C   0  0  0  0  0  0  0  0  0  0  0  0 
    7.1718   -1.0258   -1.4829 C   0  0  0  0  0  0  0  0  0  0  0  0 
    8.3967   -1.6591   -2.1661 C   0  0  0  0  0  0  0  0  0  0  0  0 
    8.4001   -3.1978   -2.1915 C   0  0  0  0  0  0  0  0  0  0  0  0 
    9.5964   -3.8252   -2.7650 N   0  0  0  0  0  0  0  0  0  0  0  0 
    4.4648    3.7062   -3.5609 H   0  0  0  0  0  0  0  0  0  0  0  0 
    5.3451    3.5886   -2.0293 H   0  0  0  0  0  0  0  0  0  0  0  0 
    3.5798    3.4754   -2.0446 H   0  0  0  0  0  0  0  0  0  0  0  0 
    5.4863    1.4370   -3.3452 H   0  0  0  0  0  0  0  0  0  0  0  0 
    3.7348    1.3156   -3.3530 H   0  0  0  0  0  0  0  0  0  0  0  0 
    3.7446    1.2251   -0.8288 H   0  0  0  0  0  0  0  0  0  0  0  0 
    5.4958    1.2591   -0.8428 H   0  0  0  0  0  0  0  0  0  0  0  0 
    3.7175   -0.9144   -2.0879 H   0  0  0  0  0  0  0  0  0  0  0  0 
    4.5254   -1.0398   -0.5344 H   0  0  0  0  0  0  0  0  0  0  0  0 
    5.9429   -0.8453   -3.2530 H   0  0  0  0  0  0  0  0  0  0  0  0 
    5.6550   -2.3126   -2.3394 H   0  0  0  0  0  0  0  0  0  0  0  0 
    7.0794   -1.4284   -0.4626 H   0  0  0  0  0  0  0  0  0  0  0  0 
    7.3572    0.0499   -1.3666 H   0  0  0  0  0  0  0  0  0  0  0  0 
    9.3071   -1.3237   -1.6471 H   0  0  0  0  0  0  0  0  0  0  0  0 
    8.4775   -1.2830   -3.1978 H   0  0  0  0  0  0  0  0  0  0  0  0 
    7.5365   -3.5704   -2.7552 H   0  0  0  0  0  0  0  0  0  0  0  0 
    8.2834   -3.5769   -1.1669 H   0  0  0  0  0  0  0  0  0  0  0  0 
   10.4236   -3.4931   -2.2688 H   0  0  0  0  0  0  0  0  0  0  0  0 
    9.7124   -3.5132   -3.7293 H   0  0  0  0  0  0  0  0  0  0  0  0 
  1 12  1  0  0  0  0 
  1 11  1  0  0  0  0 
  2  1  1  0  0  0  0 
  2  3  1  0  0  0  0 
  3 16  1  0  0  0  0 
  3 15  1  0  0  0  0 
  4  3  1  0  0  0  0 
  4 18  1  0  0  0  0 
  5  4  1  0  0  0  0 
  5  6  1  0  0  0  0 
  6 22  1  0  0  0  0 
  6 21  1  0  0  0  0 
  7 23  1  0  0  0  0 
  7  6  1  0  0  0  0 
  8  7  1  0  0  0  0 
  8 26  1  0  0  0  0 
  9 27  1  0  0  0  0 
  9  8  1  0  0  0  0 
 10  1  1  0  0  0  0 
 13  2  1  0  0  0  0 
 14  2  1  0  0  0  0 
 17  4  1  0  0  0  0 
 19  5  1  0  0  0  0 
 20  5  1  0  0  0  0 
 24  7  1  0  0  0  0 
 25  8  1  0  0  0  0 
 28  9  1  0  0  0  0 
M  END 
>  <HBA> 
1 
 
>  <HBD> 
1 
 
>  <TPSA> 
26.02 
 
>  <cid> 
8143 
 
>  <dipole> 
1.46 
 
>  <excitation_energy_1> 
5.542 
 
>  <excitation_energy_2> 
6.163 
 
>  <excitation_energy_3> 
6.256 
 
>  <excitation_energy_4> 
6.401 
 
>  <homo_energy> 
-6.169 
 
>  <homo_lumo_gap> 
8.365 
 
>  <logP> 
3.006 
 
>  <lumo_energy> 
2.196 
 
>  <melting_point> 
26.36 
 
>  <molecular_refractivity> 
43.28 
 
>  <oscillator_strength_1> 
0.0297 
 
>  <oscillator_strength_2> 
0.0068 
 
>  <oscillator_strength_3> 
0.0025 
 
>  <oscillator_strength_4> 
0.0037 
 
>  <open_babel_can_smiles> 
CCCCCCCCN 
 
>  <mulliken_charges> 
28 
1   -0.441321 
2   -0.248147 
3   -0.250012 
4   -0.258431 
5   -0.259796 
6   -0.257799 
7   -0.263056 
8   -0.142007 
9   -0.705136 
10   0.140975 
11   0.140575 
12   0.141367 
13   0.133566 
14   0.129407 
15   0.127098 
16   0.130765 
17   0.126834 
18   0.126955 
19   0.13046 
20   0.13452 
21   0.127069 
22   0.133597 
23   0.119943 
24   0.120422 
25   0.144555 
26   0.138259 
27   0.289376 
28   0.289961 
 
>  <lowdin_charges> 
28 
1   -0.445129 
2   -0.27577 
3   -0.279998 
4   -0.275973 
5   -0.277732 
6   -0.275633 
7   -0.294701 
8   -0.21057 
9   -0.552219 
10   0.148562 
11   0.14665 
12   0.146391 
13   0.139598 
14   0.139139 
15   0.14112 
16   0.138502 
17   0.140536 
18   0.139568 
19   0.136956 
20   0.14082 
21   0.136868 
22   0.140753 
23   0.136618 
24   0.133094 
25   0.14335 
26   0.139416 
27   0.250297 
28   0.249488 
 
$$$$ 
 
