PCCDB-ID:  36224 
public computational chemistry database (PCCDB) project, http://pccdb.org 
 
 20 20  0  0  0  0  0  0  0  0999 V2000 
    1.5785    0.0821    0.4299 C   0  0  0  0  0  0  0  0  0  0  0  0 
    1.5987   -4.6333   -2.1872 C   0  0  0  0  0  0  0  0  0  0  0  0 
    2.5552    0.3005   -0.4574 C   0  0  0  0  0  0  0  0  0  0  0  0 
    3.0104   -4.3982   -1.6243 C   0  0  0  0  0  0  0  0  0  0  0  0 
    4.2583   -0.4302   -2.1303 C   0  0  0  0  0  0  0  0  0  0  0  0 
    4.4969   -2.6155   -2.6825 C   0  0  0  0  0  0  0  0  0  0  0  0 
    3.2244   -0.7530   -1.2346 C   0  0  0  0  0  0  0  0  0  0  0  0 
    3.4674   -2.9683   -1.7943 C   0  0  0  0  0  0  0  0  0  0  0  0 
    4.8957   -1.3523   -2.8537 N   0  0  0  0  0  0  0  0  0  0  0  0 
    2.8379   -2.0319   -1.0761 N   0  0  0  0  0  0  0  0  0  0  0  0 
    1.1190    0.8995    0.9770 H   0  0  0  0  0  0  0  0  0  0  0  0 
    1.2190   -0.9234    0.6259 H   0  0  0  0  0  0  0  0  0  0  0  0 
    1.2757   -5.6643   -2.0070 H   0  0  0  0  0  0  0  0  0  0  0  0 
    1.5678   -4.4510   -3.2675 H   0  0  0  0  0  0  0  0  0  0  0  0 
    0.8829   -3.9572   -1.7093 H   0  0  0  0  0  0  0  0  0  0  0  0 
    2.9059    1.3145   -0.6434 H   0  0  0  0  0  0  0  0  0  0  0  0 
    3.7267   -5.0714   -2.1103 H   0  0  0  0  0  0  0  0  0  0  0  0 
    3.0163   -4.6376   -0.5539 H   0  0  0  0  0  0  0  0  0  0  0  0 
    4.5755    0.6035   -2.2600 H   0  0  0  0  0  0  0  0  0  0  0  0 
    5.0108   -3.3769   -3.2666 H   0  0  0  0  0  0  0  0  0  0  0  0 
  1 12  1  0  0  0  0 
  1 11  1  0  0  0  0 
  2 13  1  0  0  0  0 
  2 15  1  0  0  0  0 
  2  4  1  0  0  0  0 
  3  1  2  0  0  0  0 
  4 18  1  0  0  0  0 
  5  7  2  0  0  0  0 
  6  8  1  0  0  0  0 
  7 10  1  0  0  0  0 
  7  3  1  0  0  0  0 
  8  4  1  0  0  0  0 
  8 10  2  0  0  0  0 
  9  6  2  0  0  0  0 
  9  5  1  0  0  0  0 
 14  2  1  0  0  0  0 
 16  3  1  0  0  0  0 
 17  4  1  0  0  0  0 
 19  5  1  0  0  0  0 
 20  6  1  0  0  0  0 
M  END 
>  <HBA> 
2 
 
>  <HBD> 
0 
 
>  <TPSA> 
25.78 
 
>  <cid> 
36224 
 
>  <dipole> 
0.91 
 
>  <excitation_energy_1> 
3.748 
 
>  <excitation_energy_2> 
4.364 
 
>  <excitation_energy_3> 
4.523 
 
>  <excitation_energy_4> 
5.328 
 
>  <homo_energy> 
-6.498 
 
>  <homo_lumo_gap> 
4.917 
 
>  <logP> 
1.682 
 
>  <lumo_energy> 
-1.581 
 
>  <melting_point> 
31.64 
 
>  <molecular_refractivity> 
41.9 
 
>  <oscillator_strength_1> 
0.0033 
 
>  <oscillator_strength_2> 
0.2109 
 
>  <oscillator_strength_3> 
0.0014 
 
>  <oscillator_strength_4> 
0.2111 
 
>  <open_babel_can_smiles> 
CCc1cncc(n1)C=C 
 
>  <mulliken_charges> 
20 
1   -0.328628 
2   -0.44241 
3   -0.112999 
4   -0.320952 
5   -0.012977 
6   -0.012904 
7   0.308787 
8   0.311484 
9   -0.377649 
10   -0.52114 
11   0.1472 
12   0.169654 
13   0.147587 
14   0.147425 
15   0.168234 
16   0.13359 
17   0.142995 
18   0.16193 
19   0.146424 
20   0.144349 
 
>  <lowdin_charges> 
20 
1   -0.298023 
2   -0.438027 
3   -0.163051 
4   -0.27495 
5   -0.117112 
6   -0.12492 
7   0.037647 
8   0.043219 
9   -0.115632 
10   -0.136852 
11   0.165195 
12   0.173152 
13   0.151452 
14   0.148272 
15   0.161129 
16   0.157066 
17   0.150377 
18   0.160143 
19   0.159191 
20   0.161722 
 
$$$$ 
 
