PCCDB-ID:  51816 
public computational chemistry database (PCCDB) project, http://pccdb.org 
 
 20 20  0  0  0  0  0  0  0  0999 V2000 
   -0.8164   -1.0657   -0.0667 C   0  0  0  0  0  0  0  0  0  0  0  0 
    0.6036   -1.0667    0.5241 C   0  0  0  0  0  0  0  0  0  0  0  0 
   -1.2026    0.4159   -0.0212 C   0  0  0  0  0  0  0  0  0  0  0  0 
    1.2358    0.2160   -0.0390 C   0  0  0  0  0  0  0  0  0  0  0  0 
    2.5820    2.8098   -0.8351 C   0  0  0  0  0  0  0  0  0  0  0  0 
    0.9432    4.5316   -1.3676 C   0  0  0  0  0  0  0  0  0  0  0  0 
    0.1268    2.3841   -0.6573 C   0  0  0  0  0  0  0  0  0  0  0  0 
    1.2130    3.1963   -0.9379 C   0  0  0  0  0  0  0  0  0  0  0  0 
    3.7070    2.5153   -0.7555 N   0  0  0  0  0  0  0  0  0  0  0  0 
    0.7087    5.6179   -1.7179 N   0  0  0  0  0  0  0  0  0  0  0  0 
    0.0793    1.1105   -0.2571 N   0  0  0  0  0  0  0  0  0  0  0  0 
   -1.5162   -1.6922    0.4927 H   0  0  0  0  0  0  0  0  0  0  0  0 
   -0.7992   -1.4172   -1.1047 H   0  0  0  0  0  0  0  0  0  0  0  0 
    1.1808   -1.9560    0.2582 H   0  0  0  0  0  0  0  0  0  0  0  0 
    0.5570   -1.0137    1.6179 H   0  0  0  0  0  0  0  0  0  0  0  0 
   -1.6040    0.6909    0.9640 H   0  0  0  0  0  0  0  0  0  0  0  0 
   -1.9353    0.7005   -0.7825 H   0  0  0  0  0  0  0  0  0  0  0  0 
    1.7453    0.0399   -0.9934 H   0  0  0  0  0  0  0  0  0  0  0  0 
    1.9555    0.6742    0.6430 H   0  0  0  0  0  0  0  0  0  0  0  0 
   -0.8497    2.8451   -0.7817 H   0  0  0  0  0  0  0  0  0  0  0  0 
  1  3  1  0  0  0  0 
  1 12  1  0  0  0  0 
  1  2  1  0  0  0  0 
  2 15  1  0  0  0  0 
  3 16  1  0  0  0  0 
  4  2  1  0  0  0  0 
  4 19  1  0  0  0  0 
  5  9  3  0  0  0  0 
  6  8  1  0  0  0  0 
  7 11  1  0  0  0  0 
  8  5  1  0  0  0  0 
  8  7  2  0  0  0  0 
 10  6  3  0  0  0  0 
 11  4  1  0  0  0  0 
 11  3  1  0  0  0  0 
 13  1  1  0  0  0  0 
 14  2  1  0  0  0  0 
 17  3  1  0  0  0  0 
 18  4  1  0  0  0  0 
 20  7  1  0  0  0  0 
M  END 
>  <HBA> 
3 
 
>  <HBD> 
0 
 
>  <TPSA> 
50.82 
 
>  <cid> 
51816 
 
>  <dipole> 
9.13 
 
>  <excitation_energy_1> 
4.655 
 
>  <excitation_energy_2> 
5.019 
 
>  <excitation_energy_3> 
5.207 
 
>  <excitation_energy_4> 
5.742 
 
>  <homo_energy> 
-6.199 
 
>  <homo_lumo_gap> 
4.925 
 
>  <logP> 
0.951 
 
>  <lumo_energy> 
-1.274 
 
>  <melting_point> 
78.34 
 
>  <molecular_refractivity> 
44.29 
 
>  <oscillator_strength_1> 
0.4483 
 
>  <oscillator_strength_2> 
0.0003 
 
>  <oscillator_strength_3> 
0.008 
 
>  <oscillator_strength_4> 
0.0005 
 
>  <open_babel_can_smiles> 
N#CC(=CN1CCCC1)C#N 
 
>  <mulliken_charges> 
20 
1   -0.299566 
2   -0.308272 
3   -0.127829 
4   -0.1318 
5   0.288094 
6   0.260398 
7   0.103616 
8   0.054063 
9   -0.50902 
10   -0.483179 
11   -0.412333 
12   0.163435 
13   0.163883 
14   0.168491 
15   0.162257 
16   0.169259 
17   0.171672 
18   0.185679 
19   0.19667 
20   0.184484 
 
>  <lowdin_charges> 
20 
1   -0.281625 
2   -0.280226 
3   -0.192406 
4   -0.198385 
5   -0.015454 
6   -0.013939 
7   -0.031943 
8   -0.126989 
9   -0.137409 
10   -0.135411 
11   -0.061919 
12   0.163485 
13   0.154936 
14   0.164956 
15   0.153135 
16   0.152291 
17   0.162163 
18   0.164868 
19   0.176052 
20   0.18382 
 
$$$$ 
 
