PCCDB-ID:  16302 
public computational chemistry database (PCCDB) project, http://pccdb.org 
 
 27 27  0  0  0  0  0  0  0  0999 V2000 
    1.3699    0.6524    0.7611 C   0  0  0  0  0  0  0  0  0  0  0  0 
    6.9096   -2.9242    2.0042 C   0  0  0  0  0  0  0  0  0  0  0  0 
    2.0703   -4.9546   -0.3247 C   0  0  0  0  0  0  0  0  0  0  0  0 
    2.4924    0.0912   -0.1302 C   0  0  0  0  0  0  0  0  0  0  0  0 
    5.5337   -2.8220    2.6867 C   0  0  0  0  0  0  0  0  0  0  0  0 
    2.3514   -2.4391   -0.1987 C   0  0  0  0  0  0  0  0  0  0  0  0 
    3.7612   -3.8192    1.1759 C   0  0  0  0  0  0  0  0  0  0  0  0 
    3.9800   -1.4248    1.2514 C   0  0  0  0  0  0  0  0  0  0  0  0 
    2.7377   -3.7141    0.2249 C   0  0  0  0  0  0  0  0  0  0  0  0 
    2.9598   -1.2823    0.3060 C   0  0  0  0  0  0  0  0  0  0  0  0 
    4.3944   -2.6867    1.6970 C   0  0  0  0  0  0  0  0  0  0  0  0 
    1.0567    1.6461    0.4196 H   0  0  0  0  0  0  0  0  0  0  0  0 
    1.7025    0.7391    1.8016 H   0  0  0  0  0  0  0  0  0  0  0  0 
    0.4927   -0.0043    0.7473 H   0  0  0  0  0  0  0  0  0  0  0  0 
    7.7105   -3.0208    2.7466 H   0  0  0  0  0  0  0  0  0  0  0  0 
    7.1131   -2.0344    1.3977 H   0  0  0  0  0  0  0  0  0  0  0  0 
    6.9538   -3.7948    1.3402 H   0  0  0  0  0  0  0  0  0  0  0  0 
    1.3131   -4.7027   -1.0740 H   0  0  0  0  0  0  0  0  0  0  0  0 
    1.5755   -5.5285    0.4690 H   0  0  0  0  0  0  0  0  0  0  0  0 
    2.7981   -5.6254   -0.7982 H   0  0  0  0  0  0  0  0  0  0  0  0 
    3.3405    0.7877   -0.1210 H   0  0  0  0  0  0  0  0  0  0  0  0 
    2.1385    0.0458   -1.1681 H   0  0  0  0  0  0  0  0  0  0  0  0 
    5.5334   -1.9606    3.3668 H   0  0  0  0  0  0  0  0  0  0  0  0 
    5.3745   -3.7110    3.3102 H   0  0  0  0  0  0  0  0  0  0  0  0 
    1.5575   -2.3423   -0.9377 H   0  0  0  0  0  0  0  0  0  0  0  0 
    4.0727   -4.8060    1.5162 H   0  0  0  0  0  0  0  0  0  0  0  0 
    4.4644   -0.5346    1.6510 H   0  0  0  0  0  0  0  0  0  0  0  0 
  1 13  1  0  0  0  0 
  2  5  1  0  0  0  0 
  2 15  1  0  0  0  0 
  3  9  1  0  0  0  0 
  3 19  1  0  0  0  0 
  4 21  1  0  0  0  0 
  4 10  1  0  0  0  0 
  4  1  1  0  0  0  0 
  5 24  1  0  0  0  0 
  5 23  1  0  0  0  0 
  6  9  2  0  0  0  0 
  6 10  1  0  0  0  0 
  7 26  1  0  0  0  0 
  7 11  2  0  0  0  0 
  8 27  1  0  0  0  0 
  8 11  1  0  0  0  0 
  9  7  1  0  0  0  0 
 10  8  2  0  0  0  0 
 11  5  1  0  0  0  0 
 12  1  1  0  0  0  0 
 14  1  1  0  0  0  0 
 16  2  1  0  0  0  0 
 17  2  1  0  0  0  0 
 18  3  1  0  0  0  0 
 20  3  1  0  0  0  0 
 22  4  1  0  0  0  0 
 25  6  1  0  0  0  0 
M  END 
>  <HBA> 
0 
 
>  <HBD> 
0 
 
>  <TPSA> 
0.0 
 
>  <cid> 
16302 
 
>  <dipole> 
0.07 
 
>  <excitation_energy_1> 
5.104 
 
>  <excitation_energy_2> 
5.611 
 
>  <excitation_energy_3> 
5.807 
 
>  <excitation_energy_4> 
5.871 
 
>  <homo_energy> 
-6.182 
 
>  <homo_lumo_gap> 
6.365 
 
>  <logP> 
3.12 
 
>  <lumo_energy> 
0.182 
 
>  <melting_point> 
15.5 
 
>  <molecular_refractivity> 
50.95 
 
>  <oscillator_strength_1> 
0.0011 
 
>  <oscillator_strength_2> 
0.0151 
 
>  <oscillator_strength_3> 
0.0424 
 
>  <oscillator_strength_4> 
0.0338 
 
>  <open_babel_can_smiles> 
CCc1cc(CC)cc(c1)C 
 
>  <mulliken_charges> 
27 
1   -0.432641 
2   -0.432407 
3   -0.530692 
4   -0.339634 
5   -0.339242 
6   -0.247393 
7   -0.240984 
8   -0.247706 
9   0.189842 
10   0.189843 
11   0.18712 
12   0.14131 
13   0.148539 
14   0.148548 
15   0.141345 
16   0.148606 
17   0.148295 
18   0.15288 
19   0.160487 
20   0.159697 
21   0.140812 
22   0.14074 
23   0.14066 
24   0.140773 
25   0.110527 
26   0.110196 
27   0.11048 
 
>  <lowdin_charges> 
27 
1   -0.43898 
2   -0.441695 
3   -0.444903 
4   -0.269819 
5   -0.271768 
6   -0.184829 
7   -0.183507 
8   -0.186517 
9   0.00293 
10   0.002261 
11   0.004371 
12   0.147606 
13   0.148975 
14   0.150491 
15   0.148697 
16   0.150612 
17   0.150424 
18   0.156069 
19   0.160654 
20   0.16037 
21   0.148166 
22   0.146407 
23   0.147988 
24   0.148047 
25   0.149368 
26   0.148849 
27   0.149733 
 
$$$$ 
 
