PCCDB-ID:  11101 
public computational chemistry database (PCCDB) project, http://pccdb.org 
 
 16 16  0  0  0  0  0  0  0  0999 V2000 
   -1.2919    0.0196    0.0667 C   0  0  0  0  0  0  0  0  0  0  0  0 
   -0.5791   -1.1629   -0.1443 C   0  0  0  0  0  0  0  0  0  0  0  0 
   -0.6131    1.2293    0.1879 C   0  0  0  0  0  0  0  0  0  0  0  0 
    0.8117   -1.1322   -0.2207 C   0  0  0  0  0  0  0  0  0  0  0  0 
    1.4020    2.6623    0.1756 C   0  0  0  0  0  0  0  0  0  0  0  0 
    0.7857    1.2928    0.1217 C   0  0  0  0  0  0  0  0  0  0  0  0 
    1.4768    0.0830   -0.0739 C   0  0  0  0  0  0  0  0  0  0  0  0 
    2.9508    0.0302   -0.0888 N   0  0  0  0  0  0  0  0  0  0  0  0 
    0.7590    3.6347    0.5183 O   0  0  0  0  0  0  0  0  0  0  0  0 
    3.4797   -0.9019   -0.6904 O   0  0  0  0  0  0  0  0  0  0  0  0 
    3.5621    0.9097    0.5201 O   0  0  0  0  0  0  0  0  0  0  0  0 
   -2.3759   -0.0009    0.1294 H   0  0  0  0  0  0  0  0  0  0  0  0 
   -1.1008   -2.1098   -0.2446 H   0  0  0  0  0  0  0  0  0  0  0  0 
   -1.1464    2.1635    0.3300 H   0  0  0  0  0  0  0  0  0  0  0  0 
    1.3914   -2.0333   -0.3788 H   0  0  0  0  0  0  0  0  0  0  0  0 
    2.4505    2.7536   -0.1424 H   0  0  0  0  0  0  0  0  0  0  0  0 
  1 12  1  0  0  0  0 
  1  3  2  0  0  0  0 
  2  1  1  0  0  0  0 
  3 14  1  0  0  0  0 
  4  2  2  0  0  0  0 
  4  7  1  0  0  0  0 
  5  9  2  0  0  0  0 
  6  5  1  0  0  0  0 
  6  3  1  0  0  0  0 
  7  6  2  0  0  0  0 
  8  7  1  0  0  0  0 
  8 11  2  0  0  0  0 
 10  8  2  0  0  0  0 
 13  2  1  0  0  0  0 
 15  4  1  0  0  0  0 
 16  5  1  0  0  0  0 
M  END 
>  <HBA> 
1 
 
>  <HBD> 
0 
 
>  <TPSA> 
62.89 
 
>  <cid> 
11101 
 
>  <dipole> 
4.57 
 
>  <excitation_energy_1> 
3.249 
 
>  <excitation_energy_2> 
3.679 
 
>  <excitation_energy_3> 
4.071 
 
>  <excitation_energy_4> 
4.145 
 
>  <homo_energy> 
-7.336 
 
>  <homo_lumo_gap> 
4.43 
 
>  <logP> 
1.931 
 
>  <lumo_energy> 
-2.906 
 
>  <melting_point> 
76.88 
 
>  <molecular_refractivity> 
40.65 
 
>  <oscillator_strength_1> 
0.0008 
 
>  <oscillator_strength_2> 
0.0133 
 
>  <oscillator_strength_3> 
0.0128 
 
>  <oscillator_strength_4> 
0.0137 
 
>  <open_babel_can_smiles> 
O=Cc1ccccc1N(=O)=O 
 
>  <mulliken_charges> 
16 
1   -0.105731 
2   -0.133471 
3   -0.175746 
4   -0.139812 
5   0.219209 
6   0.073086 
7   0.214001 
8   0.359463 
9   -0.393692 
10   -0.373457 
11   -0.385672 
12   0.157867 
13   0.159683 
14   0.182756 
15   0.188303 
16   0.153214 
 
>  <lowdin_charges> 
16 
1   -0.129169 
2   -0.131988 
3   -0.11998 
4   -0.138356 
5   0.053727 
6   -0.039446 
7   0.016668 
8   0.308231 
9   -0.21244 
10   -0.23529 
11   -0.238946 
12   0.169993 
13   0.17296 
14   0.186003 
15   0.190289 
16   0.147743 
 
$$$$ 
 
