PCCDB-ID:  52550 
public computational chemistry database (PCCDB) project, http://pccdb.org 
 
 22 23  0  0  0  0  0  0  0  0999 V2000 
    1.1072   -0.3202   -0.5099 C   0  0  0  0  0  0  0  0  0  0  0  0 
    2.1757   -2.4050    1.2780 C   0  0  0  0  0  0  0  0  0  0  0  0 
    3.4862    0.2261   -1.1481 C   0  0  0  0  0  0  0  0  0  0  0  0 
    4.4992   -1.7671    0.5636 C   0  0  0  0  0  0  0  0  0  0  0  0 
    2.5963   -0.5513   -0.4008 C   0  0  0  0  0  0  0  0  0  0  0  0 
    3.1139   -1.5533    0.4588 C   0  0  0  0  0  0  0  0  0  0  0  0 
    4.8582    0.0144   -1.0445 C   0  0  0  0  0  0  0  0  0  0  0  0 
    5.3595   -0.9810   -0.1884 C   0  0  0  0  0  0  0  0  0  0  0  0 
    6.0004    0.6672   -1.6977 C   0  0  0  0  0  0  0  0  0  0  0  0 
    7.2679   -0.0637   -1.1203 C   0  0  0  0  0  0  0  0  0  0  0  0 
    6.7615   -1.0145   -0.2469 N   0  0  0  0  0  0  0  0  0  0  0  0 
    6.0409    1.5688   -2.5068 O   0  0  0  0  0  0  0  0  0  0  0  0 
    8.4311    0.1493   -1.3754 O   0  0  0  0  0  0  0  0  0  0  0  0 
    0.8895    0.4908   -1.2108 H   0  0  0  0  0  0  0  0  0  0  0  0 
    0.6623   -0.0512    0.4570 H   0  0  0  0  0  0  0  0  0  0  0  0 
    0.5780   -1.2148   -0.8634 H   0  0  0  0  0  0  0  0  0  0  0  0 
    2.7210   -3.1402    1.8764 H   0  0  0  0  0  0  0  0  0  0  0  0 
    1.4668   -2.9478    0.6401 H   0  0  0  0  0  0  0  0  0  0  0  0 
    1.5748   -1.7926    1.9625 H   0  0  0  0  0  0  0  0  0  0  0  0 
    3.1161    1.0005   -1.8150 H   0  0  0  0  0  0  0  0  0  0  0  0 
    4.8795   -2.5399    1.2262 H   0  0  0  0  0  0  0  0  0  0  0  0 
    7.3518   -1.6361    0.2882 H   0  0  0  0  0  0  0  0  0  0  0  0 
  1  5  1  0  0  0  0 
  1 15  1  0  0  0  0 
  2 17  1  0  0  0  0 
  2 19  1  0  0  0  0 
  3  7  2  0  0  0  0 
  3  5  1  0  0  0  0 
  4 21  1  0  0  0  0 
  5  6  2  0  0  0  0 
  6  4  1  0  0  0  0 
  6  2  1  0  0  0  0 
  7  8  1  0  0  0  0 
  8  4  2  0  0  0  0 
  9 10  1  0  0  0  0 
  9  7  1  0  0  0  0 
 10 11  1  0  0  0  0 
 11  8  1  0  0  0  0 
 11 22  1  0  0  0  0 
 12  9  2  0  0  0  0 
 13 10  2  0  0  0  0 
 14  1  1  0  0  0  0 
 16  1  1  0  0  0  0 
 18  2  1  0  0  0  0 
 20  3  1  0  0  0  0 
M  END 
>  <HBA> 
3 
 
>  <HBD> 
1 
 
>  <TPSA> 
46.17 
 
>  <cid> 
52550 
 
>  <dipole> 
6.82 
 
>  <excitation_energy_1> 
2.707 
 
>  <excitation_energy_2> 
2.969 
 
>  <excitation_energy_3> 
4.239 
 
>  <excitation_energy_4> 
4.384 
 
>  <homo_energy> 
-6.248 
 
>  <homo_lumo_gap> 
3.772 
 
>  <logP> 
1.576 
 
>  <lumo_energy> 
-2.476 
 
>  <melting_point> 
128.08 
 
>  <molecular_refractivity> 
52.09 
 
>  <oscillator_strength_1> 
0.0 
 
>  <oscillator_strength_2> 
0.023 
 
>  <oscillator_strength_3> 
0.1156 
 
>  <oscillator_strength_4> 
0.0 
 
>  <open_babel_can_smiles> 
O=C1Nc2c(C1=O)cc(c(c2)C)C 
 
>  <mulliken_charges> 
22 
1   -0.535629 
2   -0.537106 
3   -0.237564 
4   -0.240602 
5   0.126301 
6   0.132522 
7   0.076359 
8   0.349744 
9   0.310368 
10   0.575218 
11   -0.749405 
12   -0.434402 
13   -0.456151 
14   0.164531 
15   0.162665 
16   0.162788 
17   0.161609 
18   0.170958 
19   0.171386 
20   0.156011 
21   0.133564 
22   0.336834 
 
>  <lowdin_charges> 
22 
1   -0.44198 
2   -0.444208 
3   -0.12104 
4   -0.20274 
5   -0.024363 
6   0.028929 
7   -0.087399 
8   0.072862 
9   0.120124 
10   0.139248 
11   -0.249327 
12   -0.183112 
13   -0.220892 
14   0.162931 
15   0.159758 
16   0.160372 
17   0.161614 
18   0.167297 
19   0.167539 
20   0.173303 
21   0.161946 
22   0.299138 
 
$$$$ 
 
