PCCDB-ID:  13003 
public computational chemistry database (PCCDB) project, http://pccdb.org 
 
 17 17  0  0  1  0  0  0  0  0999 V2000 
    0.9333   -0.1554    0.0011 C   0  0  0  0  0  0  0  0  0  0  0  0 
    4.1386    1.0285   -1.4570 C   0  0  0  0  0  0  0  0  0  0  0  0 
    2.8560    1.4073   -0.6990 C   0  0  0  0  0  0  0  0  0  0  0  0 
    3.8770   -0.4516   -1.7812 C   0  0  0  0  0  0  0  0  0  0  0  0 
    2.4409    0.1033    0.0469 C   0  0  2  0  0  0  0  0  0  0  0  0 
    3.1965   -1.0096   -0.5989 N   0  0  0  0  0  0  0  0  0  0  0  0 
    0.3759    0.6811    0.4423 H   0  0  0  0  0  0  0  0  0  0  0  0 
    0.6778   -1.0684    0.5490 H   0  0  0  0  0  0  0  0  0  0  0  0 
    0.5981   -0.2818   -1.0351 H   0  0  0  0  0  0  0  0  0  0  0  0 
    5.0170    1.1203   -0.8038 H   0  0  0  0  0  0  0  0  0  0  0  0 
    4.3157    1.6484   -2.3432 H   0  0  0  0  0  0  0  0  0  0  0  0 
    2.0720    1.6916   -1.4131 H   0  0  0  0  0  0  0  0  0  0  0  0 
    2.9904    2.2517   -0.0148 H   0  0  0  0  0  0  0  0  0  0  0  0 
    4.7799   -1.0277   -2.0095 H   0  0  0  0  0  0  0  0  0  0  0  0 
    3.2133   -0.5303   -2.6541 H   0  0  0  0  0  0  0  0  0  0  0  0 
    2.7462    0.1696    1.1000 H   0  0  0  0  0  0  0  0  0  0  0  0 
    3.9047   -1.3418    0.0509 H   0  0  0  0  0  0  0  0  0  0  0  0 
  1  5  1  0  0  0  0 
  1  7  1  0  0  0  0 
  1  8  1  0  0  0  0 
  2 10  1  0  0  0  0 
  2  3  1  0  0  0  0 
  3 13  1  0  0  0  0 
  3  5  1  0  0  0  0 
  4  2  1  0  0  0  0 
  4  6  1  0  0  0  0 
  5 16  1  1  0  0  0 
  6  5  1  0  0  0  0 
  6 17  1  0  0  0  0 
  9  1  1  0  0  0  0 
 11  2  1  0  0  0  0 
 12  3  1  0  0  0  0 
 14  4  1  0  0  0  0 
 15  4  1  0  0  0  0 
M  END 
>  <HBA> 
1 
 
>  <HBD> 
1 
 
>  <TPSA> 
12.03 
 
>  <cid> 
13003 
 
>  <dipole> 
1.35 
 
>  <excitation_energy_1> 
5.178 
 
>  <excitation_energy_2> 
5.943 
 
>  <excitation_energy_3> 
6.034 
 
>  <excitation_energy_4> 
6.244 
 
>  <homo_energy> 
-5.834 
 
>  <homo_lumo_gap> 
7.802 
 
>  <logP> 
1.087 
 
>  <lumo_energy> 
1.967 
 
>  <melting_point> 
23.86 
 
>  <molecular_refractivity> 
30.75 
 
>  <oscillator_strength_1> 
0.0143 
 
>  <oscillator_strength_2> 
0.0126 
 
>  <oscillator_strength_3> 
0.0134 
 
>  <oscillator_strength_4> 
0.0013 
 
>  <open_babel_can_smiles> 
C[C@@H]1CCCN1 
 
>  <mulliken_charges> 
17 
1   -0.421683 
2   -0.27354 
3   -0.289145 
4   -0.148594 
5   0.039885 
6   -0.545919 
7   0.129918 
8   0.144838 
9   0.142709 
10   0.128615 
11   0.133617 
12   0.138122 
13   0.1375 
14   0.134738 
15   0.14016 
16   0.117788 
17   0.290991 
 
>  <lowdin_charges> 
17 
1   -0.446949 
2   -0.296262 
3   -0.295834 
4   -0.210514 
5   -0.063885 
6   -0.373697 
7   0.144071 
8   0.151721 
9   0.147962 
10   0.138499 
11   0.146363 
12   0.14479 
13   0.148974 
14   0.14401 
15   0.137444 
16   0.130189 
17   0.253118 
 
$$$$ 
 
