PCCDB-ID:  66019 
public computational chemistry database (PCCDB) project, http://pccdb.org 
 
 27 26  0  0  0  0  0  0  0  0999 V2000 
    4.2205    3.0552   -2.2049 C   0  0  0  0  0  0  0  0  0  0  0  0 
    1.8502    0.4886   -2.9617 C   0  0  0  0  0  0  0  0  0  0  0  0 
   -0.5825    1.0579    1.5673 C   0  0  0  0  0  0  0  0  0  0  0  0 
    0.7132    4.3628    2.0327 C   0  0  0  0  0  0  0  0  0  0  0  0 
    1.9948    2.9466   -0.2391 C   0  0  0  0  0  0  0  0  0  0  0  0 
    2.5117    1.7841   -1.0878 C   0  0  0  0  0  0  0  0  0  0  0  0 
    0.5901    2.6904    0.3082 C   0  0  0  0  0  0  0  0  0  0  0  0 
    3.8755    1.9022   -1.4461 O   0  0  0  0  0  0  0  0  0  0  0  0 
    1.6678    1.6838   -2.2152 O   0  0  0  0  0  0  0  0  0  0  0  0 
    0.6795    1.5870    1.1843 O   0  0  0  0  0  0  0  0  0  0  0  0 
    0.0035    3.8206    0.9250 O   0  0  0  0  0  0  0  0  0  0  0  0 
    5.2255    2.8757   -2.5954 H   0  0  0  0  0  0  0  0  0  0  0  0 
    4.2425    3.9636   -1.5870 H   0  0  0  0  0  0  0  0  0  0  0  0 
    3.5295    3.2092   -3.0421 H   0  0  0  0  0  0  0  0  0  0  0  0 
    1.1313    0.5181   -3.7842 H   0  0  0  0  0  0  0  0  0  0  0  0 
    1.6538   -0.3994   -2.3422 H   0  0  0  0  0  0  0  0  0  0  0  0 
    2.8667    0.4156   -3.3662 H   0  0  0  0  0  0  0  0  0  0  0  0 
   -0.3814    0.2020    2.2162 H   0  0  0  0  0  0  0  0  0  0  0  0 
   -1.1532    0.7192    0.6895 H   0  0  0  0  0  0  0  0  0  0  0  0 
   -1.1826    1.7969    2.1113 H   0  0  0  0  0  0  0  0  0  0  0  0 
    0.0251    5.0509    2.5304 H   0  0  0  0  0  0  0  0  0  0  0  0 
    1.6026    4.9253    1.7162 H   0  0  0  0  0  0  0  0  0  0  0  0 
    1.0173    3.5816    2.7395 H   0  0  0  0  0  0  0  0  0  0  0  0 
    1.9588    3.8625   -0.8378 H   0  0  0  0  0  0  0  0  0  0  0  0 
    2.6982    3.0966    0.5863 H   0  0  0  0  0  0  0  0  0  0  0  0 
    2.4764    0.8538   -0.5074 H   0  0  0  0  0  0  0  0  0  0  0  0 
   -0.0958    2.4612   -0.5168 H   0  0  0  0  0  0  0  0  0  0  0  0 
  1 13  1  0  0  0  0 
  1  8  1  0  0  0  0 
  2 16  1  0  0  0  0 
  2  9  1  0  0  0  0 
  3 20  1  0  0  0  0 
  3 18  1  0  0  0  0 
  4 21  1  0  0  0  0 
  4 23  1  0  0  0  0 
  5  7  1  0  0  0  0 
  5 25  1  0  0  0  0 
  6 26  1  0  0  0  0 
  6  5  1  0  0  0  0 
  7 11  1  0  0  0  0 
  7 10  1  0  0  0  0 
  8  6  1  0  0  0  0 
  9  6  1  0  0  0  0 
 10  3  1  0  0  0  0 
 11  4  1  0  0  0  0 
 12  1  1  0  0  0  0 
 14  1  1  0  0  0  0 
 15  2  1  0  0  0  0 
 17  2  1  0  0  0  0 
 19  3  1  0  0  0  0 
 22  4  1  0  0  0  0 
 24  5  1  0  0  0  0 
 27  7  1  0  0  0  0 
M  END 
>  <HBA> 
4 
 
>  <HBD> 
0 
 
>  <TPSA> 
36.92 
 
>  <cid> 
66019 
 
>  <dipole> 
0.15 
 
>  <excitation_energy_1> 
6.678 
 
>  <excitation_energy_2> 
6.874 
 
>  <excitation_energy_3> 
6.928 
 
>  <excitation_energy_4> 
6.97 
 
>  <homo_energy> 
-6.925 
 
>  <homo_lumo_gap> 
9.429 
 
>  <logP> 
0.614 
 
>  <lumo_energy> 
2.503 
 
>  <melting_point> 
-63.02 
 
>  <molecular_refractivity> 
40.1 
 
>  <oscillator_strength_1> 
0.0031 
 
>  <oscillator_strength_2> 
0.0083 
 
>  <oscillator_strength_3> 
0.0014 
 
>  <oscillator_strength_4> 
0.0012 
 
>  <open_babel_can_smiles> 
COC(CC(OC)OC)OC 
 
>  <mulliken_charges> 
27 
1   -0.215383 
2   -0.204234 
3   -0.204123 
4   -0.215546 
5   -0.348465 
6   0.359292 
7   0.359215 
8   -0.478613 
9   -0.475506 
10   -0.475677 
11   -0.478481 
12   0.155725 
13   0.136549 
14   0.152582 
15   0.156012 
16   0.135952 
17   0.152555 
18   0.155951 
19   0.135847 
20   0.15258 
21   0.155806 
22   0.136676 
23   0.152557 
24   0.158102 
25   0.158212 
26   0.141143 
27   0.141272 
 
>  <lowdin_charges> 
27 
1   -0.288234 
2   -0.283049 
3   -0.286046 
4   -0.291125 
5   -0.312816 
6   0.095052 
7   0.093651 
8   -0.271561 
9   -0.269761 
10   -0.269938 
11   -0.270778 
12   0.154194 
13   0.135361 
14   0.144926 
15   0.155012 
16   0.13711 
17   0.14331 
18   0.154912 
19   0.137618 
20   0.145719 
21   0.156513 
22   0.135588 
23   0.145505 
24   0.162451 
25   0.163039 
26   0.141299 
27   0.142048 
 
$$$$ 
 
