PCCDB-ID:  23389 
public computational chemistry database (PCCDB) project, http://pccdb.org 
 
 27 29  0  0  0  0  0  0  0  0999 V2000 
   -3.5444   -0.1175   -0.0508 C   0  0  0  0  0  0  0  0  0  0  0  0 
   -2.9641   -1.3795    0.1174 C   0  0  0  0  0  0  0  0  0  0  0  0 
   -2.7418    1.0221   -0.1802 C   0  0  0  0  0  0  0  0  0  0  0  0 
   -1.5759   -1.5252    0.1597 C   0  0  0  0  0  0  0  0  0  0  0  0 
    3.0392   -0.7390    0.1316 C   0  0  0  0  0  0  0  0  0  0  0  0 
    1.7137   -1.1712    0.1620 C   0  0  0  0  0  0  0  0  0  0  0  0 
   -0.2794    1.9417   -0.2514 C   0  0  0  0  0  0  0  0  0  0  0  0 
    2.3146    1.5622   -0.1693 C   0  0  0  0  0  0  0  0  0  0  0  0 
    5.5552    0.6393    0.7186 C   0  0  0  0  0  0  0  0  0  0  0  0 
   -1.3595    0.8832   -0.1394 C   0  0  0  0  0  0  0  0  0  0  0  0 
    0.9973    1.1329   -0.1283 C   0  0  0  0  0  0  0  0  0  0  0  0 
    3.3531    0.6255   -0.0181 C   0  0  0  0  0  0  0  0  0  0  0  0 
   -0.7732   -0.3893    0.0308 C   0  0  0  0  0  0  0  0  0  0  0  0 
    0.6865   -0.2340    0.0395 C   0  0  0  0  0  0  0  0  0  0  0  0 
    4.6795    1.0995   -0.0772 N   0  0  0  0  0  0  0  0  0  0  0  0 
    6.8451    1.0169    0.6598 O   0  0  0  0  0  0  0  0  0  0  0  0 
   -4.6264   -0.0210   -0.0815 H   0  0  0  0  0  0  0  0  0  0  0  0 
   -3.6000   -2.2552    0.2167 H   0  0  0  0  0  0  0  0  0  0  0  0 
   -3.1988    2.0004   -0.3110 H   0  0  0  0  0  0  0  0  0  0  0  0 
   -1.1322   -2.5091    0.2900 H   0  0  0  0  0  0  0  0  0  0  0  0 
    3.8453   -1.4653    0.1900 H   0  0  0  0  0  0  0  0  0  0  0  0 
    1.4932   -2.2300    0.2718 H   0  0  0  0  0  0  0  0  0  0  0  0 
   -0.3627    2.6999    0.5398 H   0  0  0  0  0  0  0  0  0  0  0  0 
   -0.3306    2.4843   -1.2056 H   0  0  0  0  0  0  0  0  0  0  0  0 
    2.5729    2.6084   -0.3086 H   0  0  0  0  0  0  0  0  0  0  0  0 
    5.3918   -0.0787    1.5265 H   0  0  0  0  0  0  0  0  0  0  0  0 
    6.9118    1.6481   -0.0824 H   0  0  0  0  0  0  0  0  0  0  0  0 
  1  2  2  0  0  0  0 
  2  4  1  0  0  0  0 
  2 18  1  0  0  0  0 
  3 10  2  0  0  0  0 
  3  1  1  0  0  0  0 
  4 20  1  0  0  0  0 
  5  6  1  0  0  0  0 
  5 21  1  0  0  0  0 
  6 22  1  0  0  0  0 
  7 10  1  0  0  0  0 
  7 11  1  0  0  0  0 
  7 23  1  0  0  0  0 
  8 11  2  0  0  0  0 
  8 12  1  0  0  0  0 
  9 26  1  0  0  0  0 
 10 13  1  0  0  0  0 
 11 14  1  0  0  0  0 
 12  5  2  0  0  0  0 
 13 14  1  0  0  0  0 
 13  4  2  0  0  0  0 
 14  6  2  0  0  0  0 
 15 12  1  0  0  0  0 
 15  9  2  0  0  0  0 
 16  9  1  0  0  0  0 
 17  1  1  0  0  0  0 
 19  3  1  0  0  0  0 
 24  7  1  0  0  0  0 
 25  8  1  0  0  0  0 
 27 16  1  0  0  0  0 
M  END 
>  <HBA> 
2 
 
>  <HBD> 
1 
 
>  <TPSA> 
29.1 
 
>  <cid> 
23389 
 
>  <dipole> 
0.32 
 
>  <excitation_energy_1> 
4.163 
 
>  <excitation_energy_2> 
4.318 
 
>  <excitation_energy_3> 
4.709 
 
>  <excitation_energy_4> 
4.957 
 
>  <homo_energy> 
-5.47 
 
>  <homo_lumo_gap> 
4.604 
 
>  <logP> 
3.535 
 
>  <lumo_energy> 
-0.865 
 
>  <melting_point> 
130.46 
 
>  <molecular_refractivity> 
64.78 
 
>  <oscillator_strength_1> 
0.6504 
 
>  <oscillator_strength_2> 
0.0157 
 
>  <oscillator_strength_3> 
0.003 
 
>  <oscillator_strength_4> 
0.0402 
 
>  <open_babel_can_smiles> 
O/C=N/c1ccc2c(c1)Cc1c2cccc1 
 
>  <mulliken_charges> 
27 
1   -0.130085 
2   -0.137785 
3   -0.202921 
4   -0.19211 
5   -0.175526 
6   -0.203993 
7   -0.420211 
8   -0.238161 
9   0.286449 
10   0.105274 
11   0.106661 
12   0.271515 
13   0.087146 
14   0.088963 
15   -0.496361 
16   -0.551442 
17   0.126082 
18   0.126832 
19   0.124074 
20   0.127172 
21   0.126064 
22   0.130809 
23   0.172691 
24   0.173493 
25   0.128388 
26   0.155684 
27   0.411298 
 
>  <lowdin_charges> 
27 
1   -0.157579 
2   -0.15777 
3   -0.16395 
4   -0.16392 
5   -0.18743 
6   -0.155513 
7   -0.274564 
8   -0.172683 
9   0.027709 
10   -0.005663 
11   -0.000504 
12   0.046063 
13   -0.010053 
14   -0.020095 
15   -0.204061 
16   -0.348426 
17   0.154825 
18   0.157499 
19   0.155702 
20   0.156123 
21   0.15786 
22   0.156669 
23   0.169646 
24   0.169412 
25   0.161163 
26   0.148721 
27   0.360818 
 
$$$$ 
 
