PCCDB-ID:  10927 
public computational chemistry database (PCCDB) project, http://pccdb.org 
 
 15 14  0  0  0  0  0  0  0  0999 V2000 
    1.4821   -0.1945   -0.3808 C   0  0  0  0  0  0  0  0  0  0  0  0 
    2.9617   -0.3559   -0.0214 C   0  0  0  0  0  0  0  0  0  0  0  0 
    3.5301    0.8760    0.7118 C   0  0  0  0  0  0  0  0  0  0  0  0 
    5.0046    0.7483    1.0567 C   0  0  0  0  0  0  0  0  0  0  0  0 
    5.9752    1.4359    0.6134 N   0  0  0  0  0  0  0  0  0  0  0  0 
    5.3073   -0.2510    1.9388 O   0  0  0  0  0  0  0  0  0  0  0  0 
    1.1052   -1.0796   -0.9045 H   0  0  0  0  0  0  0  0  0  0  0  0 
    1.3262    0.6718   -1.0347 H   0  0  0  0  0  0  0  0  0  0  0  0 
    0.8670   -0.0488    0.5156 H   0  0  0  0  0  0  0  0  0  0  0  0 
    3.5515   -0.5307   -0.9300 H   0  0  0  0  0  0  0  0  0  0  0  0 
    3.0904   -1.2541    0.5985 H   0  0  0  0  0  0  0  0  0  0  0  0 
    2.9585    1.0465    1.6374 H   0  0  0  0  0  0  0  0  0  0  0  0 
    3.3899    1.7683    0.0919 H   0  0  0  0  0  0  0  0  0  0  0  0 
    5.6295    2.1389   -0.0409 H   0  0  0  0  0  0  0  0  0  0  0  0 
    4.4893   -0.6726    2.2417 H   0  0  0  0  0  0  0  0  0  0  0  0 
  1  2  1  0  0  0  0 
  1  9  1  0  0  0  0 
  2 11  1  0  0  0  0 
  2  3  1  0  0  0  0 
  3  4  1  0  0  0  0 
  3 12  1  0  0  0  0 
  4  6  1  0  0  0  0 
  5  4  2  0  0  0  0 
  6 15  1  0  0  0  0 
  7  1  1  0  0  0  0 
  8  1  1  0  0  0  0 
 10  2  1  0  0  0  0 
 13  3  1  0  0  0  0 
 14  5  1  0  0  0  0 
M  END 
>  <HBA> 
2 
 
>  <HBD> 
1 
 
>  <TPSA> 
43.09 
 
>  <cid> 
10927 
 
>  <dipole> 
4.42 
 
>  <excitation_energy_1> 
6.115 
 
>  <excitation_energy_2> 
6.369 
 
>  <excitation_energy_3> 
6.457 
 
>  <excitation_energy_4> 
6.929 
 
>  <homo_energy> 
-7.012 
 
>  <homo_lumo_gap> 
7.772 
 
>  <logP> 
0.972 
 
>  <lumo_energy> 
0.759 
 
>  <melting_point> 
50.4 
 
>  <molecular_refractivity> 
24.25 
 
>  <oscillator_strength_1> 
0.0026 
 
>  <oscillator_strength_2> 
0.0052 
 
>  <oscillator_strength_3> 
0.0204 
 
>  <oscillator_strength_4> 
0.0077 
 
>  <open_babel_can_smiles> 
CCCC(=N)O 
 
>  <mulliken_charges> 
15 
1   -0.442919 
2   -0.256147 
3   -0.355924 
4   0.481605 
5   -0.58214 
6   -0.574069 
7   0.154218 
8   0.150465 
9   0.146016 
10   0.158568 
11   0.130522 
12   0.151253 
13   0.151773 
14   0.280855 
15   0.405924 
 
>  <lowdin_charges> 
15 
1   -0.445506 
2   -0.272673 
3   -0.311869 
4   0.126005 
5   -0.398262 
6   -0.368078 
7   0.156915 
8   0.15165 
9   0.14928 
10   0.153557 
11   0.13823 
12   0.153268 
13   0.157504 
14   0.256498 
15   0.353481 
 
$$$$ 
 
