PCCDB-ID:  7698 
public computational chemistry database (PCCDB) project, http://pccdb.org 
 
 26 26  0  0  0  0  0  0  0  0999 V2000 
    5.5787   -3.3887    1.3371 C   0  0  0  0  0  0  0  0  0  0  0  0 
    7.4152    0.2989    3.2995 C   0  0  0  0  0  0  0  0  0  0  0  0 
    7.2086    2.3359    2.0247 C   0  0  0  0  0  0  0  0  0  0  0  0 
    8.7809    0.5197    3.4512 C   0  0  0  0  0  0  0  0  0  0  0  0 
    8.5718    2.5762    2.1640 C   0  0  0  0  0  0  0  0  0  0  0  0 
    5.1334    0.9303    2.3941 C   0  0  0  0  0  0  0  0  0  0  0  0 
    4.8025    0.2238    1.0713 C   0  0  0  0  0  0  0  0  0  0  0  0 
    4.8094   -2.1077    1.5537 C   0  0  0  0  0  0  0  0  0  0  0  0 
    6.6091    1.1969    2.5845 C   0  0  0  0  0  0  0  0  0  0  0  0 
    9.3412    1.6589    2.8775 C   0  0  0  0  0  0  0  0  0  0  0  0 
   10.7823    1.9035    3.0337 N   0  0  0  0  0  0  0  0  0  0  0  0 
    3.7725   -2.0025    2.1714 O   0  0  0  0  0  0  0  0  0  0  0  0 
   11.4380    1.0764    3.6676 O   0  0  0  0  0  0  0  0  0  0  0  0 
   11.2493    2.9206    2.5204 O   0  0  0  0  0  0  0  0  0  0  0  0 
    5.4439   -1.0627    0.9629 O   0  0  0  0  0  0  0  0  0  0  0  0 
    5.0074   -4.2273    1.7362 H   0  0  0  0  0  0  0  0  0  0  0  0 
    6.5487   -3.3301    1.8430 H   0  0  0  0  0  0  0  0  0  0  0  0 
    5.7771   -3.5386    0.2715 H   0  0  0  0  0  0  0  0  0  0  0  0 
    6.9655   -0.5815    3.7499 H   0  0  0  0  0  0  0  0  0  0  0  0 
    6.5986    3.0490    1.4756 H   0  0  0  0  0  0  0  0  0  0  0  0 
    9.4117   -0.1660    4.0034 H   0  0  0  0  0  0  0  0  0  0  0  0 
    9.0434    3.4537    1.7394 H   0  0  0  0  0  0  0  0  0  0  0  0 
    4.7410    0.3231    3.2156 H   0  0  0  0  0  0  0  0  0  0  0  0 
    4.5781    1.8771    2.3993 H   0  0  0  0  0  0  0  0  0  0  0  0 
    5.1812    0.7915    0.2178 H   0  0  0  0  0  0  0  0  0  0  0  0 
    3.7211    0.0947    0.9799 H   0  0  0  0  0  0  0  0  0  0  0  0 
  1  8  1  0  0  0  0 
  1 16  1  0  0  0  0 
  1 17  1  0  0  0  0 
  2  4  1  0  0  0  0 
  2 19  1  0  0  0  0 
  3  5  2  0  0  0  0 
  3  9  1  0  0  0  0 
  4 21  1  0  0  0  0 
  5 10  1  0  0  0  0 
  6 24  1  0  0  0  0 
  6  9  1  0  0  0  0 
  6 23  1  0  0  0  0 
  7  6  1  0  0  0  0 
  8 12  2  0  0  0  0 
  9  2  2  0  0  0  0 
 10 11  1  0  0  0  0 
 10  4  2  0  0  0  0 
 11 13  2  0  0  0  0 
 14 11  2  0  0  0  0 
 15  7  1  0  0  0  0 
 15  8  1  0  0  0  0 
 18  1  1  0  0  0  0 
 20  3  1  0  0  0  0 
 22  5  1  0  0  0  0 
 25  7  1  0  0  0  0 
 26  7  1  0  0  0  0 
M  END 
>  <HBA> 
2 
 
>  <HBD> 
0 
 
>  <TPSA> 
72.12 
 
>  <cid> 
7698 
 
>  <dipole> 
3.86 
 
>  <excitation_energy_1> 
3.746 
 
>  <excitation_energy_2> 
4.27 
 
>  <excitation_energy_3> 
4.279 
 
>  <excitation_energy_4> 
4.447 
 
>  <homo_energy> 
-7.434 
 
>  <homo_lumo_gap> 
5.034 
 
>  <logP> 
2.224 
 
>  <lumo_energy> 
-2.4 
 
>  <melting_point> 
57.4 
 
>  <molecular_refractivity> 
55.94 
 
>  <oscillator_strength_1> 
0.0 
 
>  <oscillator_strength_2> 
0.0005 
 
>  <oscillator_strength_3> 
0.0127 
 
>  <oscillator_strength_4> 
0.2872 
 
>  <open_babel_can_smiles> 
CC(=O)OCCc1ccc(cc1)N(=O)=O 
 
>  <mulliken_charges> 
26 
1   -0.523529 
2   -0.190654 
3   -0.194098 
4   -0.146594 
5   -0.144888 
6   -0.388457 
7   -0.041241 
8   0.598015 
9   0.201274 
10   0.27169 
11   0.378883 
12   -0.466007 
13   -0.396076 
14   -0.396149 
15   -0.448331 
16   0.185823 
17   0.184455 
18   0.18567 
19   0.144826 
20   0.140921 
21   0.182741 
22   0.183219 
23   0.18407 
24   0.159316 
25   0.159561 
26   0.17556 
 
>  <lowdin_charges> 
26 
1   -0.462527 
2   -0.15625 
3   -0.161148 
4   -0.136899 
5   -0.135904 
6   -0.28769 
7   -0.12658 
8   0.198649 
9   0.021177 
10   -0.000152 
11   0.31092 
12   -0.263815 
13   -0.249873 
14   -0.249032 
15   -0.197472 
16   0.178413 
17   0.179307 
18   0.178344 
19   0.165836 
20   0.164582 
21   0.189079 
22   0.188432 
23   0.17121 
24   0.163849 
25   0.156799 
26   0.160744 
 
$$$$ 
 
