PCCDB-ID:  6567 
public computational chemistry database (PCCDB) project, http://pccdb.org 
 
 15 14  0  0  1  0  0  0  0  0999 V2000 
    0.9199   -0.0255   -0.0053 C   0  0  0  0  0  0  0  0  0  0  0  0 
    2.9305    0.1304   -1.5375 C   0  0  0  0  0  0  0  0  0  0  0  0 
    2.4475   -0.0156   -0.0815 C   0  0  1  0  0  0  0  0  0  0  0  0 
    4.3974    0.1741   -1.6021 N   0  0  0  0  0  0  0  0  0  0  0  0 
    2.9704    1.0075    0.8359 N   0  0  0  0  0  0  0  0  0  0  0  0 
    0.4942   -0.8119   -0.6396 H   0  0  0  0  0  0  0  0  0  0  0  0 
    0.5039    0.9341   -0.3412 H   0  0  0  0  0  0  0  0  0  0  0  0 
    0.5923   -0.1898    1.0253 H   0  0  0  0  0  0  0  0  0  0  0  0 
    2.4402    1.0149   -1.9895 H   0  0  0  0  0  0  0  0  0  0  0  0 
    2.5957   -0.7425   -2.1121 H   0  0  0  0  0  0  0  0  0  0  0  0 
    2.8305   -0.9756    0.2884 H   0  0  0  0  0  0  0  0  0  0  0  0 
    4.7216    1.0989   -1.3245 H   0  0  0  0  0  0  0  0  0  0  0  0 
    4.7061    0.0511   -2.5645 H   0  0  0  0  0  0  0  0  0  0  0  0 
    2.7197    1.9389    0.5001 H   0  0  0  0  0  0  0  0  0  0  0  0 
    3.9882    0.9603    0.8522 H   0  0  0  0  0  0  0  0  0  0  0  0 
  1  8  1  0  0  0  0 
  2  3  1  0  0  0  0 
  3  1  1  0  0  0  0 
  3 11  1  1  0  0  0 
  3  5  1  0  0  0  0 
  4  2  1  0  0  0  0 
  4 12  1  0  0  0  0 
  5 15  1  0  0  0  0 
  6  1  1  0  0  0  0 
  7  1  1  0  0  0  0 
  9  2  1  0  0  0  0 
 10  2  1  0  0  0  0 
 13  4  1  0  0  0  0 
 14  5  1  0  0  0  0 
M  END 
>  <HBA> 
2 
 
>  <HBD> 
2 
 
>  <TPSA> 
52.04 
 
>  <cid> 
6567 
 
>  <dipole> 
2.38 
 
>  <excitation_energy_1> 
5.38 
 
>  <excitation_energy_2> 
5.809 
 
>  <excitation_energy_3> 
6.326 
 
>  <excitation_energy_4> 
6.352 
 
>  <homo_energy> 
-6.087 
 
>  <homo_lumo_gap> 
7.894 
 
>  <logP> 
0.693 
 
>  <lumo_energy> 
1.807 
 
>  <melting_point> 
83.93 
 
>  <molecular_refractivity> 
21.95 
 
>  <oscillator_strength_1> 
0.0078 
 
>  <oscillator_strength_2> 
0.0518 
 
>  <oscillator_strength_3> 
0.0067 
 
>  <oscillator_strength_4> 
0.0059 
 
>  <open_babel_can_smiles> 
NC[C@@H](N)C 
 
>  <mulliken_charges> 
15 
1   -0.439264 
2   -0.144548 
3   0.045206 
4   -0.719775 
5   -0.715726 
6   0.137923 
7   0.130829 
8   0.160885 
9   0.102771 
10   0.134901 
11   0.14069 
12   0.284263 
13   0.299267 
14   0.281111 
15   0.301466 
 
>  <lowdin_charges> 
15 
1   -0.448274 
2   -0.227339 
3   -0.067706 
4   -0.560916 
5   -0.549461 
6   0.149422 
7   0.142167 
8   0.159482 
9   0.113633 
10   0.144297 
11   0.144714 
12   0.245107 
13   0.25579 
14   0.245331 
15   0.253754 
 
$$$$ 
 
