PCCDB-ID:  44613 
public computational chemistry database (PCCDB) project, http://pccdb.org 
 
 36 38  0  0  0  0  0  0  0  0999 V2000 
    6.6344    0.1264    1.9811 C   0  0  0  0  0  0  0  0  0  0  0  0 
    5.4687    0.0836    0.9877 C   0  0  0  0  0  0  0  0  0  0  0  0 
    5.8592    0.5651   -0.4148 C   0  0  0  0  0  0  0  0  0  0  0  0 
    6.5755   -0.9531   -6.0826 C   0  0  0  0  0  0  0  0  0  0  0  0 
    6.3019   -1.7487   -4.9561 C   0  0  0  0  0  0  0  0  0  0  0  0 
    6.3356    0.4179   -6.0549 C   0  0  0  0  0  0  0  0  0  0  0  0 
    5.7858   -1.1978   -3.7852 C   0  0  0  0  0  0  0  0  0  0  0  0 
    4.6230    4.6580   -3.2088 C   0  0  0  0  0  0  0  0  0  0  0  0 
    4.5699    3.4477   -2.5234 C   0  0  0  0  0  0  0  0  0  0  0  0 
    4.6857    0.5150   -1.4059 C   0  0  0  0  0  0  0  0  0  0  0  0 
    5.5095    3.5785   -5.1925 C   0  0  0  0  0  0  0  0  0  0  0  0 
    5.0888    4.7416   -4.5400 C   0  0  0  0  0  0  0  0  0  0  0  0 
    5.8181    0.9992   -4.8917 C   0  0  0  0  0  0  0  0  0  0  0  0 
    5.4614    2.3524   -4.5207 C   0  0  0  0  0  0  0  0  0  0  0  0 
    5.5418    0.1801   -3.7618 C   0  0  0  0  0  0  0  0  0  0  0  0 
    4.9879    2.2917   -3.1858 C   0  0  0  0  0  0  0  0  0  0  0  0 
    5.0635    5.9796   -5.2134 N   0  0  0  0  0  0  0  0  0  0  0  0 
    5.0260    0.9681   -2.7423 N   0  0  0  0  0  0  0  0  0  0  0  0 
    6.3257   -0.2217    2.9732 H   0  0  0  0  0  0  0  0  0  0  0  0 
    7.0238    1.1458    2.0907 H   0  0  0  0  0  0  0  0  0  0  0  0 
    7.4628   -0.5098    1.6467 H   0  0  0  0  0  0  0  0  0  0  0  0 
    4.6414    0.7000    1.3681 H   0  0  0  0  0  0  0  0  0  0  0  0 
    5.0788   -0.9427    0.9261 H   0  0  0  0  0  0  0  0  0  0  0  0 
    6.6813   -0.0490   -0.8059 H   0  0  0  0  0  0  0  0  0  0  0  0 
    6.2388    1.5944   -0.3647 H   0  0  0  0  0  0  0  0  0  0  0  0 
    6.9788   -1.4138   -6.9799 H   0  0  0  0  0  0  0  0  0  0  0  0 
    6.4992   -2.8168   -4.9955 H   0  0  0  0  0  0  0  0  0  0  0  0 
    6.5485    1.0311   -6.9271 H   0  0  0  0  0  0  0  0  0  0  0  0 
    5.5851   -1.8249   -2.9214 H   0  0  0  0  0  0  0  0  0  0  0  0 
    4.2919    5.5660   -2.7096 H   0  0  0  0  0  0  0  0  0  0  0  0 
    4.2136    3.4212   -1.4978 H   0  0  0  0  0  0  0  0  0  0  0  0 
    3.8553    1.1314   -1.0414 H   0  0  0  0  0  0  0  0  0  0  0  0 
    4.2992   -0.5080   -1.4830 H   0  0  0  0  0  0  0  0  0  0  0  0 
    5.8672    3.6308   -6.2187 H   0  0  0  0  0  0  0  0  0  0  0  0 
    5.1791    6.7778   -4.5990 H   0  0  0  0  0  0  0  0  0  0  0  0 
    5.7246    6.0357   -5.9800 H   0  0  0  0  0  0  0  0  0  0  0  0 
  1 20  1  0  0  0  0 
  1 19  1  0  0  0  0 
  2 22  1  0  0  0  0 
  2  1  1  0  0  0  0 
  3 25  1  0  0  0  0 
  3  2  1  0  0  0  0 
  4  6  2  0  0  0  0 
  4  5  1  0  0  0  0 
  5  7  2  0  0  0  0 
  6 13  1  0  0  0  0 
  7 15  1  0  0  0  0 
  7 29  1  0  0  0  0 
  8 30  1  0  0  0  0 
  8  9  2  0  0  0  0 
  9 31  1  0  0  0  0 
 10 32  1  0  0  0  0 
 10  3  1  0  0  0  0 
 11 12  2  0  0  0  0 
 11 14  1  0  0  0  0 
 12  8  1  0  0  0  0 
 13 14  1  0  0  0  0 
 13 15  2  0  0  0  0 
 14 16  2  0  0  0  0 
 15 18  1  0  0  0  0 
 16 18  1  0  0  0  0 
 16  9  1  0  0  0  0 
 17 35  1  0  0  0  0 
 17 12  1  0  0  0  0 
 18 10  1  0  0  0  0 
 21  1  1  0  0  0  0 
 23  2  1  0  0  0  0 
 24  3  1  0  0  0  0 
 26  4  1  0  0  0  0 
 27  5  1  0  0  0  0 
 28  6  1  0  0  0  0 
 33 10  1  0  0  0  0 
 34 11  1  0  0  0  0 
 36 17  1  0  0  0  0 
M  END 
>  <HBA> 
2 
 
>  <HBD> 
1 
 
>  <TPSA> 
30.95 
 
>  <cid> 
44613 
 
>  <dipole> 
2.2 
 
>  <excitation_energy_1> 
3.487 
 
>  <excitation_energy_2> 
4.214 
 
>  <excitation_energy_3> 
4.254 
 
>  <excitation_energy_4> 
4.47 
 
>  <homo_energy> 
-4.708 
 
>  <homo_lumo_gap> 
4.163 
 
>  <logP> 
4.758 
 
>  <lumo_energy> 
-0.544 
 
>  <melting_point> 
144.32 
 
>  <molecular_refractivity> 
79.53 
 
>  <oscillator_strength_1> 
0.0459 
 
>  <oscillator_strength_2> 
0.0291 
 
>  <oscillator_strength_3> 
0.0296 
 
>  <oscillator_strength_4> 
0.0204 
 
>  <open_babel_can_smiles> 
CCCCn1c2ccc(cc2c2c1cccc2)N 
 
>  <mulliken_charges> 
36 
1   -0.441513 
2   -0.252427 
3   -0.253765 
4   -0.148179 
5   -0.141254 
6   -0.196874 
7   -0.183355 
8   -0.185959 
9   -0.18633 
10   -0.160071 
11   -0.256239 
12   0.29709 
13   0.050468 
14   0.066836 
15   0.323889 
16   0.314794 
17   -0.789039 
18   -0.633891 
19   0.144889 
20   0.145364 
21   0.146016 
22   0.132762 
23   0.133159 
24   0.146993 
25   0.146004 
26   0.119474 
27   0.121966 
28   0.124808 
29   0.123498 
30   0.114057 
31   0.12511 
32   0.153954 
33   0.154826 
34   0.116862 
35   0.312414 
36   0.313662 
 
>  <lowdin_charges> 
36 
1   -0.44233 
2   -0.272673 
3   -0.285335 
4   -0.182619 
5   -0.153044 
6   -0.153715 
7   -0.200106 
8   -0.192457 
9   -0.18359 
10   -0.193142 
11   -0.197656 
12   0.044115 
13   -0.03751 
14   -0.024185 
15   0.04429 
16   0.024781 
17   -0.500367 
18   -0.047532 
19   0.150585 
20   0.147732 
21   0.149564 
22   0.140581 
23   0.138986 
24   0.149343 
25   0.146934 
26   0.154865 
27   0.153468 
28   0.15656 
29   0.156351 
30   0.153004 
31   0.155602 
32   0.153507 
33   0.152358 
34   0.151683 
35   0.270983 
36   0.270967 
 
$$$$ 
 
