PCCDB-ID:  7608 
public computational chemistry database (PCCDB) project, http://pccdb.org 
 
 29 29  0  0  1  0  0  0  0  0999 V2000 
    2.5524    0.7182    1.1301 C   0  0  0  0  0  0  0  0  0  0  0  0 
    4.5584   -1.3684    2.2419 C   0  0  0  0  0  0  0  0  0  0  0  0 
   -0.3411   -2.6920   -1.4011 C   0  0  0  0  0  0  0  0  0  0  0  0 
    0.2273   -2.3084   -2.7998 C   0  0  0  0  0  0  0  0  0  0  0  0 
    0.8786   -3.1456   -0.5625 C   0  0  0  0  0  0  0  0  0  0  0  0 
    1.7601   -2.5146   -2.7014 C   0  0  0  0  0  0  0  0  0  0  0  0 
    2.2515   -0.9614   -0.7274 C   0  0  0  0  0  0  0  0  0  0  0  0 
    2.7113   -0.7541    0.7274 C   0  0  1  0  0  0  0  0  0  0  0  0 
    2.0913   -2.4243   -1.1941 C   0  0  0  0  0  0  0  0  0  0  0  0 
    4.1164   -1.1631    0.8662 N   0  0  0  0  0  0  0  0  0  0  0  0 
    1.5029    1.0266    1.0582 H   0  0  0  0  0  0  0  0  0  0  0  0 
    3.1524    1.3573    0.4725 H   0  0  0  0  0  0  0  0  0  0  0  0 
    2.8778    0.8951    2.1606 H   0  0  0  0  0  0  0  0  0  0  0  0 
    5.5638   -1.8024    2.2353 H   0  0  0  0  0  0  0  0  0  0  0  0 
    3.8998   -2.0317    2.8352 H   0  0  0  0  0  0  0  0  0  0  0  0 
    4.6221   -0.4107    2.7693 H   0  0  0  0  0  0  0  0  0  0  0  0 
   -1.1011   -3.4780   -1.4624 H   0  0  0  0  0  0  0  0  0  0  0  0 
   -0.8271   -1.8273   -0.9354 H   0  0  0  0  0  0  0  0  0  0  0  0 
   -0.0103   -1.2659   -3.0388 H   0  0  0  0  0  0  0  0  0  0  0  0 
   -0.2053   -2.9172   -3.6006 H   0  0  0  0  0  0  0  0  0  0  0  0 
    1.0176   -4.2299   -0.6622 H   0  0  0  0  0  0  0  0  0  0  0  0 
    0.7558   -2.9385    0.5062 H   0  0  0  0  0  0  0  0  0  0  0  0 
    2.3255   -1.7941   -3.3036 H   0  0  0  0  0  0  0  0  0  0  0  0 
    2.0245   -3.5151   -3.0671 H   0  0  0  0  0  0  0  0  0  0  0  0 
    2.9788   -0.4552   -1.3776 H   0  0  0  0  0  0  0  0  0  0  0  0 
    1.2972   -0.4353   -0.8626 H   0  0  0  0  0  0  0  0  0  0  0  0 
    2.0596   -1.3549    1.3939 H   0  0  0  0  0  0  0  0  0  0  0  0 
    3.0191   -2.9749   -0.9847 H   0  0  0  0  0  0  0  0  0  0  0  0 
    4.2559   -2.0311    0.3550 H   0  0  0  0  0  0  0  0  0  0  0  0 
  1 13  1  0  0  0  0 
  2 16  1  0  0  0  0 
  2 15  1  0  0  0  0 
  3 18  1  0  0  0  0 
  3  5  1  0  0  0  0 
  4  6  1  0  0  0  0 
  4  3  1  0  0  0  0 
  5 22  1  0  0  0  0 
  6  9  1  0  0  0  0 
  7  8  1  0  0  0  0 
  8 10  1  0  0  0  0 
  8  1  1  0  0  0  0 
  8 27  1  1  0  0  0 
  9 28  1  0  0  0  0 
  9  7  1  0  0  0  0 
  9  5  1  0  0  0  0 
 10  2  1  0  0  0  0 
 11  1  1  0  0  0  0 
 12  1  1  0  0  0  0 
 14  2  1  0  0  0  0 
 17  3  1  0  0  0  0 
 19  4  1  0  0  0  0 
 20  4  1  0  0  0  0 
 21  5  1  0  0  0  0 
 23  6  1  0  0  0  0 
 24  6  1  0  0  0  0 
 25  7  1  0  0  0  0 
 26  7  1  0  0  0  0 
 29 10  1  0  0  0  0 
M  END 
>  <HBA> 
1 
 
>  <HBD> 
1 
 
>  <TPSA> 
12.03 
 
>  <cid> 
7608 
 
>  <dipole> 
1.03 
 
>  <excitation_energy_1> 
5.338 
 
>  <excitation_energy_2> 
5.774 
 
>  <excitation_energy_3> 
5.88 
 
>  <excitation_energy_4> 
6.016 
 
>  <homo_energy> 
-5.807 
 
>  <homo_lumo_gap> 
7.788 
 
>  <logP> 
2.566 
 
>  <lumo_energy> 
1.981 
 
>  <melting_point> 
21.2 
 
>  <molecular_refractivity> 
46.06 
 
>  <oscillator_strength_1> 
0.0013 
 
>  <oscillator_strength_2> 
0.0269 
 
>  <oscillator_strength_3> 
0.0109 
 
>  <oscillator_strength_4> 
0.0422 
 
>  <open_babel_can_smiles> 
CN[C@H](CC1CCCC1)C 
 
>  <mulliken_charges> 
29 
1   -0.438946 
2   -0.303976 
3   -0.272823 
4   -0.27245 
5   -0.272399 
6   -0.269765 
7   -0.276883 
8   0.060001 
9   -0.10288 
10   -0.552964 
11   0.134163 
12   0.150459 
13   0.141033 
14   0.144889 
15   0.117544 
16   0.153262 
17   0.135686 
18   0.137388 
19   0.138436 
20   0.135968 
21   0.131292 
22   0.136975 
23   0.133167 
24   0.131396 
25   0.139808 
26   0.131475 
27   0.100776 
28   0.11084 
29   0.29853 
 
>  <lowdin_charges> 
29 
1   -0.447124 
2   -0.362137 
3   -0.288826 
4   -0.288371 
5   -0.28239 
6   -0.283494 
7   -0.285444 
8   -0.060827 
9   -0.134709 
10   -0.366553 
11   0.145318 
12   0.154192 
13   0.147553 
14   0.14906 
15   0.120936 
16   0.147223 
17   0.14626 
18   0.143277 
19   0.142404 
20   0.146526 
21   0.139465 
22   0.142044 
23   0.145539 
24   0.140877 
25   0.148864 
26   0.145265 
27   0.113936 
28   0.131547 
29   0.249587 
 
$$$$ 
 
