PCCDB-ID:  39491 
public computational chemistry database (PCCDB) project, http://pccdb.org 
 
 23 23  0  0  0  0  0  0  0  0999 V2000 
   -1.9924    1.8263   -0.9560 C   0  0  0  0  0  0  0  0  0  0  0  0 
   -1.0811    2.2654   -1.9226 C   0  0  0  0  0  0  0  0  0  0  0  0 
   -1.5613    0.9323    0.0205 C   0  0  0  0  0  0  0  0  0  0  0  0 
    0.2331    1.8128   -1.9159 C   0  0  0  0  0  0  0  0  0  0  0  0 
   -0.2383    0.4823    0.0472 C   0  0  0  0  0  0  0  0  0  0  0  0 
    3.0744    1.4643   -0.8669 C   0  0  0  0  0  0  0  0  0  0  0  0 
    3.2048    2.1116    0.5190 C   0  0  0  0  0  0  0  0  0  0  0  0 
    0.6780    0.9176   -0.9236 C   0  0  0  0  0  0  0  0  0  0  0  0 
    2.2754   -0.6307   -0.0259 N   0  0  0  0  0  0  0  0  0  0  0  0 
    2.0154    0.4416   -0.9936 N   0  0  0  0  0  0  0  0  0  0  0  0 
    3.6950    1.2222    1.5071 O   0  0  0  0  0  0  0  0  0  0  0  0 
   -3.0214    2.1735   -0.9717 H   0  0  0  0  0  0  0  0  0  0  0  0 
   -1.4013    2.9553   -2.6993 H   0  0  0  0  0  0  0  0  0  0  0  0 
   -2.2528    0.5837    0.7835 H   0  0  0  0  0  0  0  0  0  0  0  0 
    0.9182    2.1283   -2.6973 H   0  0  0  0  0  0  0  0  0  0  0  0 
    0.0871   -0.1811    0.8402 H   0  0  0  0  0  0  0  0  0  0  0  0 
    4.0270    0.9888   -1.1358 H   0  0  0  0  0  0  0  0  0  0  0  0 
    2.8727    2.2323   -1.6187 H   0  0  0  0  0  0  0  0  0  0  0  0 
    2.2329    2.5453    0.8068 H   0  0  0  0  0  0  0  0  0  0  0  0 
    3.9248    2.9365    0.4536 H   0  0  0  0  0  0  0  0  0  0  0  0 
    3.1793   -1.0077   -0.3227 H   0  0  0  0  0  0  0  0  0  0  0  0 
    1.6049   -1.3654   -0.2656 H   0  0  0  0  0  0  0  0  0  0  0  0 
    3.0830    0.4613    1.4965 H   0  0  0  0  0  0  0  0  0  0  0  0 
  1  3  2  0  0  0  0 
  2  4  2  0  0  0  0 
  2  1  1  0  0  0  0 
  3  5  1  0  0  0  0 
  3 14  1  0  0  0  0 
  4  8  1  0  0  0  0 
  5 16  1  0  0  0  0 
  6  7  1  0  0  0  0 
  7 19  1  0  0  0  0 
  7 11  1  0  0  0  0 
  8  5  2  0  0  0  0 
 10  8  1  0  0  0  0 
 10  6  1  0  0  0  0 
 10  9  1  0  0  0  0 
 12  1  1  0  0  0  0 
 13  2  1  0  0  0  0 
 15  4  1  0  0  0  0 
 17  6  1  0  0  0  0 
 18  6  1  0  0  0  0 
 20  7  1  0  0  0  0 
 21  9  1  0  0  0  0 
 22  9  1  0  0  0  0 
 23 11  1  0  0  0  0 
M  END 
>  <HBA> 
3 
 
>  <HBD> 
2 
 
>  <TPSA> 
49.49 
 
>  <cid> 
39491 
 
>  <dipole> 
2.17 
 
>  <excitation_energy_1> 
4.229 
 
>  <excitation_energy_2> 
4.499 
 
>  <excitation_energy_3> 
4.688 
 
>  <excitation_energy_4> 
5.074 
 
>  <homo_energy> 
-5.187 
 
>  <homo_lumo_gap> 
5.151 
 
>  <logP> 
1.059 
 
>  <lumo_energy> 
-0.035 
 
>  <melting_point> 
85.53 
 
>  <molecular_refractivity> 
44.52 
 
>  <oscillator_strength_1> 
0.0156 
 
>  <oscillator_strength_2> 
0.0114 
 
>  <oscillator_strength_3> 
0.1514 
 
>  <oscillator_strength_4> 
0.0076 
 
>  <open_babel_can_smiles> 
OCCN(c1ccccc1)N 
 
>  <mulliken_charges> 
23 
1   -0.13079 
2   -0.136797 
3   -0.136362 
4   -0.166081 
5   -0.198779 
6   -0.174406 
7   -0.024484 
8   0.3069 
9   -0.60215 
10   -0.396482 
11   -0.637559 
12   0.125879 
13   0.129117 
14   0.129401 
15   0.130445 
16   0.142416 
17   0.147848 
18   0.155105 
19   0.132993 
20   0.138659 
21   0.327136 
22   0.325033 
23   0.412958 
 
>  <lowdin_charges> 
23 
1   -0.174957 
2   -0.14951 
3   -0.148208 
4   -0.18341 
5   -0.206947 
6   -0.224067 
7   -0.145513 
8   0.039287 
9   -0.466646 
10   -0.110134 
11   -0.487938 
12   0.155814 
13   0.158473 
14   0.158534 
15   0.159632 
16   0.165092 
17   0.146848 
18   0.160041 
19   0.133319 
20   0.147121 
21   0.26761 
22   0.267738 
23   0.337822 
 
$$$$ 
 
