PCCDB-ID:  67507 
public computational chemistry database (PCCDB) project, http://pccdb.org 
 
 15 16  0  0  0  0  0  0  0  0999 V2000 
    2.1359    0.7082   -0.0006 C   0  0  0  0  0  0  0  0  0  0  0  0 
    2.0893   -0.7162   -0.0006 C   0  0  0  0  0  0  0  0  0  0  0  0 
    0.9750    1.4418   -0.0007 C   0  0  0  0  0  0  0  0  0  0  0  0 
   -1.6270    1.1317   -0.0006 C   0  0  0  0  0  0  0  0  0  0  0  0 
   -2.3176   -0.0872   -0.0002 C   0  0  0  0  0  0  0  0  0  0  0  0 
    0.8849   -1.3618   -0.0004 C   0  0  0  0  0  0  0  0  0  0  0  0 
   -0.2763    0.7753   -0.0006 C   0  0  0  0  0  0  0  0  0  0  0  0 
   -1.5099   -1.1585   -0.0004 N   0  0  0  0  0  0  0  0  0  0  0  0 
   -0.2670   -0.6246   -0.0005 N   0  0  0  0  0  0  0  0  0  0  0  0 
    3.0980    1.2112    0.0006 H   0  0  0  0  0  0  0  0  0  0  0  0 
    3.0023   -1.3010   -0.0017 H   0  0  0  0  0  0  0  0  0  0  0  0 
    0.9908    2.5269   -0.0009 H   0  0  0  0  0  0  0  0  0  0  0  0 
   -2.0345    2.1317    0.0009 H   0  0  0  0  0  0  0  0  0  0  0  0 
   -3.3886   -0.2452   -0.0006 H   0  0  0  0  0  0  0  0  0  0  0  0 
    0.7453   -2.4353    0.0009 H   0  0  0  0  0  0  0  0  0  0  0  0 
  1 10  1  0  0  0  0 
  2  1  1  0  0  0  0 
  2  6  2  0  0  0  0 
  3  7  1  0  0  0  0 
  3  1  2  0  0  0  0 
  4  5  1  0  0  0  0 
  4 13  1  0  0  0  0 
  6 15  1  0  0  0  0 
  7  4  2  0  0  0  0 
  7  9  1  0  0  0  0 
  8  5  2  0  0  0  0 
  9  8  1  0  0  0  0 
  9  6  1  0  0  0  0 
 11  2  1  0  0  0  0 
 12  3  1  0  0  0  0 
 14  5  1  0  0  0  0 
M  END 
>  <HBA> 
2 
 
>  <HBD> 
0 
 
>  <TPSA> 
17.3 
 
>  <cid> 
67507 
 
>  <dipole> 
2.15 
 
>  <excitation_energy_1> 
4.084 
 
>  <excitation_energy_2> 
4.734 
 
>  <excitation_energy_3> 
5.191 
 
>  <excitation_energy_4> 
5.64 
 
>  <homo_energy> 
-5.614 
 
>  <homo_lumo_gap> 
4.795 
 
>  <logP> 
1.334 
 
>  <lumo_energy> 
-0.819 
 
>  <melting_point> 
56.38 
 
>  <molecular_refractivity> 
35.19 
 
>  <oscillator_strength_1> 
0.0378 
 
>  <oscillator_strength_2> 
0.0272 
 
>  <oscillator_strength_3> 
0.0009 
 
>  <oscillator_strength_4> 
0.0015 
 
>  <open_babel_can_smiles> 
c1ccc2n(c1)ncc2 
 
>  <mulliken_charges> 
15 
1   -0.111254 
2   -0.19385 
3   -0.205867 
4   -0.300683 
5   0.055141 
6   0.101619 
7   0.423587 
8   -0.3123 
9   -0.356094 
10   0.141587 
11   0.146288 
12   0.147552 
13   0.136978 
14   0.146977 
15   0.180317 
 
>  <lowdin_charges> 
15 
1   -0.154791 
2   -0.188415 
3   -0.161802 
4   -0.254548 
5   -0.120177 
6   -0.086546 
7   0.031575 
8   -0.175527 
9   0.093256 
10   0.164761 
11   0.170941 
12   0.16814 
13   0.168862 
14   0.163258 
15   0.181012 
 
$$$$ 
 
