PCCDB-ID:  66573 
public computational chemistry database (PCCDB) project, http://pccdb.org 
 
 30 32  0  0  0  0  0  0  0  0999 V2000 
    3.4210    0.4193    1.2769 C   0  0  0  0  0  0  0  0  0  0  0  0 
    2.5501   -0.0083    0.0912 C   0  0  0  0  0  0  0  0  0  0  0  0 
    1.7954   -5.1821    0.5871 C   0  0  0  0  0  0  0  0  0  0  0  0 
    1.1928   -4.1320    1.3009 C   0  0  0  0  0  0  0  0  0  0  0  0 
    2.7258   -4.9182   -0.4141 C   0  0  0  0  0  0  0  0  0  0  0  0 
    1.5022   -2.7995    1.0338 C   0  0  0  0  0  0  0  0  0  0  0  0 
    5.4452   -1.1369   -3.1637 C   0  0  0  0  0  0  0  0  0  0  0  0 
    4.5818   -0.6373   -2.1998 C   0  0  0  0  0  0  0  0  0  0  0  0 
    4.8231   -3.4466   -2.6151 C   0  0  0  0  0  0  0  0  0  0  0  0 
    5.5555   -2.5239   -3.3595 C   0  0  0  0  0  0  0  0  0  0  0  0 
    3.0540   -3.5889   -0.7010 C   0  0  0  0  0  0  0  0  0  0  0  0 
    3.9524   -2.9578   -1.6455 C   0  0  0  0  0  0  0  0  0  0  0  0 
    2.4342   -2.5404    0.0254 C   0  0  0  0  0  0  0  0  0  0  0  0 
    3.8329   -1.5510   -1.4441 C   0  0  0  0  0  0  0  0  0  0  0  0 
    2.9074   -1.3141   -0.4473 N   0  0  0  0  0  0  0  0  0  0  0  0 
    6.4771   -3.0172   -4.3811 N   0  0  0  0  0  0  0  0  0  0  0  0 
    7.1203   -2.1871   -5.0287 O   0  0  0  0  0  0  0  0  0  0  0  0 
    6.5627   -4.2375   -4.5414 O   0  0  0  0  0  0  0  0  0  0  0  0 
    3.1047    1.4022    1.6432 H   0  0  0  0  0  0  0  0  0  0  0  0 
    4.4745    0.4832    0.9859 H   0  0  0  0  0  0  0  0  0  0  0  0 
    3.3396   -0.2974    2.1003 H   0  0  0  0  0  0  0  0  0  0  0  0 
    2.6214    0.7198   -0.7231 H   0  0  0  0  0  0  0  0  0  0  0  0 
    1.4948   -0.0452    0.3807 H   0  0  0  0  0  0  0  0  0  0  0  0 
    1.5324   -6.2092    0.8219 H   0  0  0  0  0  0  0  0  0  0  0  0 
    0.4714   -4.3610    2.0802 H   0  0  0  0  0  0  0  0  0  0  0  0 
    3.1913   -5.7316   -0.9639 H   0  0  0  0  0  0  0  0  0  0  0  0 
    1.0328   -1.9990    1.5973 H   0  0  0  0  0  0  0  0  0  0  0  0 
    6.0462   -0.4752   -3.7745 H   0  0  0  0  0  0  0  0  0  0  0  0 
    4.5004    0.4335   -2.0439 H   0  0  0  0  0  0  0  0  0  0  0  0 
    4.9467   -4.5059   -2.8049 H   0  0  0  0  0  0  0  0  0  0  0  0 
  1 19  1  0  0  0  0 
  1 21  1  0  0  0  0 
  2 23  1  0  0  0  0 
  2  1  1  0  0  0  0 
  3 24  1  0  0  0  0 
  3  4  2  0  0  0  0 
  4 25  1  0  0  0  0 
  5  3  1  0  0  0  0 
  6  4  1  0  0  0  0 
  6 27  1  0  0  0  0 
  7  8  1  0  0  0  0 
  8 29  1  0  0  0  0 
  8 14  2  0  0  0  0 
  9 12  2  0  0  0  0 
 10  7  2  0  0  0  0 
 10  9  1  0  0  0  0 
 11  5  2  0  0  0  0 
 11 13  1  0  0  0  0 
 12 14  1  0  0  0  0 
 12 11  1  0  0  0  0 
 13  6  2  0  0  0  0 
 14 15  1  0  0  0  0 
 15 13  1  0  0  0  0 
 15  2  1  0  0  0  0 
 16 10  1  0  0  0  0 
 17 16  2  0  0  0  0 
 18 16  2  0  0  0  0 
 20  1  1  0  0  0  0 
 22  2  1  0  0  0  0 
 26  5  1  0  0  0  0 
 28  7  1  0  0  0  0 
 30  9  1  0  0  0  0 
M  END 
>  <HBA> 
1 
 
>  <HBD> 
0 
 
>  <TPSA> 
50.75 
 
>  <cid> 
66573 
 
>  <dipole> 
7.33 
 
>  <excitation_energy_1> 
3.355 
 
>  <excitation_energy_2> 
3.577 
 
>  <excitation_energy_3> 
3.775 
 
>  <excitation_energy_4> 
4.084 
 
>  <homo_energy> 
-5.959 
 
>  <homo_lumo_gap> 
3.973 
 
>  <logP> 
4.246 
 
>  <lumo_energy> 
-1.986 
 
>  <melting_point> 
135.29 
 
>  <molecular_refractivity> 
74.33 
 
>  <oscillator_strength_1> 
0.1184 
 
>  <oscillator_strength_2> 
0.0745 
 
>  <oscillator_strength_3> 
0.0 
 
>  <oscillator_strength_4> 
0.1195 
 
>  <open_babel_can_smiles> 
CCn1c2ccc(cc2c2c1cccc2)N(=O)=O 
 
>  <mulliken_charges> 
30 
1   -0.445493 
2   -0.163295 
3   -0.144921 
4   -0.138424 
5   -0.192058 
6   -0.181096 
7   -0.172102 
8   -0.184344 
9   -0.231469 
10   0.267067 
11   0.068059 
12   0.052298 
13   0.31785 
14   0.352405 
15   -0.628925 
16   0.373777 
17   -0.410613 
18   -0.405354 
19   0.156278 
20   0.165921 
21   0.167029 
22   0.166174 
23   0.166906 
24   0.132798 
25   0.133567 
26   0.141089 
27   0.133852 
28   0.178371 
29   0.143202 
30   0.181452 
 
>  <lowdin_charges> 
30 
1   -0.450611 
2   -0.189512 
3   -0.169707 
4   -0.147116 
5   -0.147462 
6   -0.194588 
7   -0.140315 
8   -0.188511 
9   -0.128929 
10   -0.019943 
11   -0.030693 
12   -0.03114 
13   0.04533 
14   0.057797 
15   -0.03615 
16   0.30904 
17   -0.261589 
18   -0.259045 
19   0.159081 
20   0.158915 
21   0.161175 
22   0.160052 
23   0.157666 
24   0.159765 
25   0.161394 
26   0.164932 
27   0.161887 
28   0.18823 
29   0.163997 
30   0.186052 
 
$$$$ 
 
