PCCDB-ID:  20661 
public computational chemistry database (PCCDB) project, http://pccdb.org 
 
 45 45  0  0  1  0  0  0  0  0999 V2000 
   16.4610    7.3263    1.2548 C   0  0  0  0  0  0  0  0  0  0  0  0 
    5.4356    3.7841    1.8419 C   0  0  0  0  0  0  0  0  0  0  0  0 
   15.1256    6.8994    1.8735 C   0  0  0  0  0  0  0  0  0  0  0  0 
    6.7417    3.0846    2.2378 C   0  0  0  0  0  0  0  0  0  0  0  0 
   14.7048    5.4802    1.4664 C   0  0  0  0  0  0  0  0  0  0  0  0 
    8.0195    3.7701    1.7217 C   0  0  0  0  0  0  0  0  0  0  0  0 
   13.3979    4.9856    2.1091 C   0  0  0  0  0  0  0  0  0  0  0  0 
    9.4562   10.0864    2.8582 C   0  0  0  0  0  0  0  0  0  0  0  0 
   12.1357    5.7314    1.6524 C   0  0  0  0  0  0  0  0  0  0  0  0 
    9.4253    9.6908    1.5210 C   0  0  0  0  0  0  0  0  0  0  0  0 
    9.5258    9.1144    3.8586 C   0  0  0  0  0  0  0  0  0  0  0  0 
    8.2761    5.1590    2.3255 C   0  0  0  0  0  0  0  0  0  0  0  0 
   10.8515    5.1669    2.2751 C   0  0  0  0  0  0  0  0  0  0  0  0 
    9.4645    8.3345    1.1910 C   0  0  0  0  0  0  0  0  0  0  0  0 
    9.5641    7.7611    3.5227 C   0  0  0  0  0  0  0  0  0  0  0  0 
    9.5548    5.8687    1.8079 C   0  0  2  0  0  0  0  0  0  0  0  0 
    9.5345    7.3462    2.1818 C   0  0  0  0  0  0  0  0  0  0  0  0 
   16.7416    8.3393    1.5654 H   0  0  0  0  0  0  0  0  0  0  0  0 
   16.4111    7.3164    0.1588 H   0  0  0  0  0  0  0  0  0  0  0  0 
   17.2711    6.6493    1.5536 H   0  0  0  0  0  0  0  0  0  0  0  0 
    4.5652    3.2148    2.1879 H   0  0  0  0  0  0  0  0  0  0  0  0 
    5.3564    3.8820    0.7517 H   0  0  0  0  0  0  0  0  0  0  0  0 
    5.3609    4.7894    2.2708 H   0  0  0  0  0  0  0  0  0  0  0  0 
   14.3482    7.6182    1.5839 H   0  0  0  0  0  0  0  0  0  0  0  0 
   15.1962    6.9520    2.9697 H   0  0  0  0  0  0  0  0  0  0  0  0 
    6.7211    2.0549    1.8562 H   0  0  0  0  0  0  0  0  0  0  0  0 
    6.7946    3.0008    3.3329 H   0  0  0  0  0  0  0  0  0  0  0  0 
   15.5141    4.7850    1.7328 H   0  0  0  0  0  0  0  0  0  0  0  0 
   14.6129    5.4300    0.3708 H   0  0  0  0  0  0  0  0  0  0  0  0 
    7.9628    3.8576    0.6259 H   0  0  0  0  0  0  0  0  0  0  0  0 
    8.8713    3.1107    1.9311 H   0  0  0  0  0  0  0  0  0  0  0  0 
   13.4849    5.0568    3.2038 H   0  0  0  0  0  0  0  0  0  0  0  0 
   13.2782    3.9157    1.8854 H   0  0  0  0  0  0  0  0  0  0  0  0 
    9.4271   11.1409    3.1195 H   0  0  0  0  0  0  0  0  0  0  0  0 
   12.0615    5.6749    0.5555 H   0  0  0  0  0  0  0  0  0  0  0  0 
   12.2186    6.7966    1.8987 H   0  0  0  0  0  0  0  0  0  0  0  0 
    9.3725   10.4368    0.7320 H   0  0  0  0  0  0  0  0  0  0  0  0 
    9.5501    9.4104    4.9044 H   0  0  0  0  0  0  0  0  0  0  0  0 
    8.3263    5.0748    3.4213 H   0  0  0  0  0  0  0  0  0  0  0  0 
    7.4203    5.8106    2.1112 H   0  0  0  0  0  0  0  0  0  0  0  0 
   10.9201    5.2299    3.3710 H   0  0  0  0  0  0  0  0  0  0  0  0 
   10.7855    4.0973    2.0374 H   0  0  0  0  0  0  0  0  0  0  0  0 
    9.4396    8.0356    0.1450 H   0  0  0  0  0  0  0  0  0  0  0  0 
    9.6161    7.0193    4.3161 H   0  0  0  0  0  0  0  0  0  0  0  0 
    9.5317    5.8149    0.7090 H   0  0  0  0  0  0  0  0  0  0  0  0 
  1 20  1  0  0  0  0 
  1 18  1  0  0  0  0 
  1  3  1  0  0  0  0 
  2 21  1  0  0  0  0 
  2  4  1  0  0  0  0 
  2 23  1  0  0  0  0 
  3 25  1  0  0  0  0 
  4 27  1  0  0  0  0 
  5 28  1  0  0  0  0 
  5  3  1  0  0  0  0 
  5  7  1  0  0  0  0 
  6 31  1  0  0  0  0 
  6  4  1  0  0  0  0 
  6 12  1  0  0  0  0 
  7 32  1  0  0  0  0 
  8 34  1  0  0  0  0 
  8 11  2  0  0  0  0 
  9 36  1  0  0  0  0 
  9  7  1  0  0  0  0 
  9 13  1  0  0  0  0 
 10  8  1  0  0  0  0 
 11 38  1  0  0  0  0 
 12 39  1  0  0  0  0 
 13 41  1  0  0  0  0 
 14 10  2  0  0  0  0 
 14 17  1  0  0  0  0 
 15 11  1  0  0  0  0 
 15 44  1  0  0  0  0 
 16 45  1  6  0  0  0 
 16 17  1  0  0  0  0 
 16 13  1  0  0  0  0 
 16 12  1  0  0  0  0 
 17 15  2  0  0  0  0 
 19  1  1  0  0  0  0 
 22  2  1  0  0  0  0 
 24  3  1  0  0  0  0 
 26  4  1  0  0  0  0 
 29  5  1  0  0  0  0 
 30  6  1  0  0  0  0 
 33  7  1  0  0  0  0 
 35  9  1  0  0  0  0 
 37 10  1  0  0  0  0 
 40 12  1  0  0  0  0 
 42 13  1  0  0  0  0 
 43 14  1  0  0  0  0 
M  END 
>  <HBA> 
0 
 
>  <HBD> 
0 
 
>  <TPSA> 
0.0 
 
>  <cid> 
20661 
 
>  <dipole> 
0.29 
 
>  <excitation_energy_1> 
5.291 
 
>  <excitation_energy_2> 
5.899 
 
>  <excitation_energy_3> 
5.972 
 
>  <excitation_energy_4> 
6.199 
 
>  <homo_energy> 
-6.381 
 
>  <homo_lumo_gap> 
6.49 
 
>  <logP> 
5.931 
 
>  <lumo_energy> 
0.109 
 
>  <melting_point> 
0.51 
 
>  <molecular_refractivity> 
79.48 
 
>  <oscillator_strength_1> 
0.0016 
 
>  <oscillator_strength_2> 
0.0283 
 
>  <oscillator_strength_3> 
0.0005 
 
>  <oscillator_strength_4> 
0.0018 
 
>  <open_babel_can_smiles> 
CCCCCC[C@H](c1ccccc1)CCCC 
 
>  <mulliken_charges> 
45 
1   -0.441521 
2   -0.444285 
3   -0.249019 
4   -0.249144 
5   -0.247035 
6   -0.25632 
7   -0.255256 
8   -0.131898 
9   -0.259184 
10   -0.126534 
11   -0.130238 
12   -0.258712 
13   -0.262983 
14   -0.194502 
15   -0.183986 
16   -0.169415 
17   0.17618 
18   0.140875 
19   0.140471 
20   0.139725 
21   0.141818 
22   0.14031 
23   0.149119 
24   0.139439 
25   0.128629 
26   0.130488 
27   0.129922 
28   0.124858 
29   0.124509 
30   0.125885 
31   0.133131 
32   0.125533 
33   0.124452 
34   0.126031 
35   0.122444 
36   0.149252 
37   0.126407 
38   0.126304 
39   0.126018 
40   0.141552 
41   0.127584 
42   0.132608 
43   0.121921 
44   0.124958 
45   0.11961 
 
>  <lowdin_charges> 
45 
1   -0.442228 
2   -0.445764 
3   -0.273558 
4   -0.269086 
5   -0.273856 
6   -0.276825 
7   -0.270947 
8   -0.161311 
9   -0.275635 
10   -0.15777 
11   -0.153947 
12   -0.274117 
13   -0.270783 
14   -0.169669 
15   -0.169828 
16   -0.12136 
17   0.002182 
18   0.147996 
19   0.143672 
20   0.145902 
21   0.150286 
22   0.143814 
23   0.147647 
24   0.142957 
25   0.135868 
26   0.140483 
27   0.13658 
28   0.139814 
29   0.134234 
30   0.134617 
31   0.141905 
32   0.134723 
33   0.136568 
34   0.154585 
35   0.133567 
36   0.146085 
37   0.15706 
38   0.15449 
39   0.135977 
40   0.147726 
41   0.135993 
42   0.139154 
43   0.151845 
44   0.154782 
45   0.136173 
 
$$$$ 
 
