PCCDB-ID:  50608 
public computational chemistry database (PCCDB) project, http://pccdb.org 
 
 27 26  0  0  0  0  0  0  0  0999 V2000 
    4.3498    0.7945   -3.1673 C   0  0  0  0  0  0  0  0  0  0  0  0 
    7.9460    7.0328    3.5759 C   0  0  0  0  0  0  0  0  0  0  0  0 
    4.8335    0.3376   -1.7873 C   0  0  0  0  0  0  0  0  0  0  0  0 
    4.8689    1.4713   -0.7547 C   0  0  0  0  0  0  0  0  0  0  0  0 
    5.3664    1.0168    0.6309 C   0  0  0  0  0  0  0  0  0  0  0  0 
    5.3369    2.1182    1.6550 C   0  0  0  0  0  0  0  0  0  0  0  0 
    6.4032    2.6068    2.2919 C   0  0  0  0  0  0  0  0  0  0  0  0 
    6.3484    3.7068    3.3152 C   0  0  0  0  0  0  0  0  0  0  0  0 
    7.3654    4.8080    3.0558 C   0  0  0  0  0  0  0  0  0  0  0  0 
    8.3693    4.7004    2.3866 O   0  0  0  0  0  0  0  0  0  0  0  0 
    7.0219    5.9405    3.7113 O   0  0  0  0  0  0  0  0  0  0  0  0 
    4.3363   -0.0366   -3.8817 H   0  0  0  0  0  0  0  0  0  0  0  0 
    5.0018    1.5756   -3.5770 H   0  0  0  0  0  0  0  0  0  0  0  0 
    3.3341    1.2057   -3.1155 H   0  0  0  0  0  0  0  0  0  0  0  0 
    7.5208    7.8500    4.1594 H   0  0  0  0  0  0  0  0  0  0  0  0 
    8.0477    7.3221    2.5265 H   0  0  0  0  0  0  0  0  0  0  0  0 
    8.9302    6.7552    3.9631 H   0  0  0  0  0  0  0  0  0  0  0  0 
    5.8374   -0.1012   -1.8779 H   0  0  0  0  0  0  0  0  0  0  0  0 
    4.1821   -0.4675   -1.4183 H   0  0  0  0  0  0  0  0  0  0  0  0 
    3.8622    1.9039   -0.6554 H   0  0  0  0  0  0  0  0  0  0  0  0 
    5.5149    2.2825   -1.1178 H   0  0  0  0  0  0  0  0  0  0  0  0 
    6.3863    0.6195    0.5443 H   0  0  0  0  0  0  0  0  0  0  0  0 
    4.7338    0.1825    0.9726 H   0  0  0  0  0  0  0  0  0  0  0  0 
    4.3537    2.5476    1.8636 H   0  0  0  0  0  0  0  0  0  0  0  0 
    7.3930    2.2038    2.0829 H   0  0  0  0  0  0  0  0  0  0  0  0 
    6.5771    3.3150    4.3199 H   0  0  0  0  0  0  0  0  0  0  0  0 
    5.3489    4.1484    3.3853 H   0  0  0  0  0  0  0  0  0  0  0  0 
  1 14  1  0  0  0  0 
  1  3  1  0  0  0  0 
  2 11  1  0  0  0  0 
  2 17  1  0  0  0  0 
  2 15  1  0  0  0  0 
  3 19  1  0  0  0  0 
  3  4  1  0  0  0  0 
  4 20  1  0  0  0  0 
  4  5  1  0  0  0  0 
  5 23  1  0  0  0  0 
  5  6  1  0  0  0  0 
  6 24  1  0  0  0  0 
  6  7  2  0  0  0  0 
  7  8  1  0  0  0  0 
  8 27  1  0  0  0  0 
  8 26  1  0  0  0  0 
  9  8  1  0  0  0  0 
  9 11  1  0  0  0  0 
 10  9  2  0  0  0  0 
 12  1  1  0  0  0  0 
 13  1  1  0  0  0  0 
 16  2  1  0  0  0  0 
 18  3  1  0  0  0  0 
 21  4  1  0  0  0  0 
 22  5  1  0  0  0  0 
 25  7  1  0  0  0  0 
M  END 
>  <HBA> 
2 
 
>  <HBD> 
0 
 
>  <TPSA> 
26.3 
 
>  <cid> 
50608 
 
>  <dipole> 
1.51 
 
>  <excitation_energy_1> 
5.746 
 
>  <excitation_energy_2> 
6.044 
 
>  <excitation_energy_3> 
6.28 
 
>  <excitation_energy_4> 
6.555 
 
>  <homo_energy> 
-6.574 
 
>  <homo_lumo_gap> 
6.999 
 
>  <logP> 
2.296 
 
>  <lumo_energy> 
0.425 
 
>  <melting_point> 
-6.32 
 
>  <molecular_refractivity> 
46.19 
 
>  <oscillator_strength_1> 
0.0006 
 
>  <oscillator_strength_2> 
0.001 
 
>  <oscillator_strength_3> 
0.0053 
 
>  <oscillator_strength_4> 
0.0827 
 
>  <open_babel_can_smiles> 
CCCC/C=C/CC(=O)OC 
 
>  <mulliken_charges> 
27 
1   -0.441502 
2   -0.21807 
3   -0.24725 
4   -0.246956 
5   -0.301838 
6   -0.095816 
7   -0.082327 
8   -0.415361 
9   0.621848 
10   -0.472583 
11   -0.450991 
12   0.142004 
13   0.143489 
14   0.140952 
15   0.163678 
16   0.171272 
17   0.1692 
18   0.132442 
19   0.129639 
20   0.127092 
21   0.139608 
22   0.1394 
23   0.1373 
24   0.115242 
25   0.142537 
26   0.182857 
27   0.174134 
 
>  <lowdin_charges> 
27 
1   -0.44495 
2   -0.278208 
3   -0.272743 
4   -0.273666 
5   -0.270495 
6   -0.159735 
7   -0.16592 
8   -0.294847 
9   0.196524 
10   -0.262966 
11   -0.19583 
12   0.149971 
13   0.148431 
14   0.145267 
15   0.161089 
16   0.158557 
17   0.158133 
18   0.139238 
19   0.139308 
20   0.136893 
21   0.14476 
22   0.145807 
23   0.146795 
24   0.143676 
25   0.159731 
26   0.175642 
27   0.169538 
 
$$$$ 
 
