PCCDB-ID:  11983 
public computational chemistry database (PCCDB) project, http://pccdb.org 
 
 18 19  0  0  0  0  0  0  0  0999 V2000 
    1.9980    1.1017    0.0028 C   0  0  0  0  0  0  0  0  0  0  0  0 
    2.2686   -0.2704   -0.0001 C   0  0  0  0  0  0  0  0  0  0  0  0 
    0.6791    1.5616   -0.0011 C   0  0  0  0  0  0  0  0  0  0  0  0 
    1.2231   -1.1967   -0.0057 C   0  0  0  0  0  0  0  0  0  0  0  0 
   -1.8507    0.9070   -0.0144 C   0  0  0  0  0  0  0  0  0  0  0  0 
   -1.3660   -1.5515   -0.0117 C   0  0  0  0  0  0  0  0  0  0  0  0 
   -0.3662    0.6386   -0.0073 C   0  0  0  0  0  0  0  0  0  0  0  0 
   -0.0944   -0.7398   -0.0085 C   0  0  0  0  0  0  0  0  0  0  0  0 
   -2.4848   -0.4950   -0.0161 C   0  0  0  0  0  0  0  0  0  0  0  0 
   -3.6713   -0.7289   -0.0202 O   0  0  0  0  0  0  0  0  0  0  0  0 
    2.8182    1.8146    0.0080 H   0  0  0  0  0  0  0  0  0  0  0  0 
    3.2981   -0.6184    0.0023 H   0  0  0  0  0  0  0  0  0  0  0  0 
    0.4724    2.6292    0.0002 H   0  0  0  0  0  0  0  0  0  0  0  0 
    1.4375   -2.2628   -0.0079 H   0  0  0  0  0  0  0  0  0  0  0  0 
   -2.1954    1.4639   -0.8964 H   0  0  0  0  0  0  0  0  0  0  0  0 
   -2.2051    1.4682    0.8609 H   0  0  0  0  0  0  0  0  0  0  0  0 
   -1.4796   -2.1989    0.8686 H   0  0  0  0  0  0  0  0  0  0  0  0 
   -1.4745   -2.2038   -0.8889 H   0  0  0  0  0  0  0  0  0  0  0  0 
  1 11  1  0  0  0  0 
  2 12  1  0  0  0  0 
  2  1  1  0  0  0  0 
  3 13  1  0  0  0  0 
  3  1  2  0  0  0  0 
  4  2  2  0  0  0  0 
  5  7  1  0  0  0  0 
  5 16  1  0  0  0  0 
  6  8  1  0  0  0  0 
  6 17  1  0  0  0  0 
  7  3  1  0  0  0  0 
  8  7  2  0  0  0  0 
  8  4  1  0  0  0  0 
  9  5  1  0  0  0  0 
  9  6  1  0  0  0  0 
 10  9  2  0  0  0  0 
 14  4  1  0  0  0  0 
 15  5  1  0  0  0  0 
 18  6  1  0  0  0  0 
M  END 
>  <HBA> 
1 
 
>  <HBD> 
0 
 
>  <TPSA> 
17.07 
 
>  <cid> 
11983 
 
>  <dipole> 
2.58 
 
>  <excitation_energy_1> 
4.192 
 
>  <excitation_energy_2> 
4.866 
 
>  <excitation_energy_3> 
5.277 
 
>  <excitation_energy_4> 
5.521 
 
>  <homo_energy> 
-6.631 
 
>  <homo_lumo_gap> 
5.821 
 
>  <logP> 
1.354 
 
>  <lumo_energy> 
-0.811 
 
>  <melting_point> 
55.29 
 
>  <molecular_refractivity> 
39.27 
 
>  <oscillator_strength_1> 
0.0 
 
>  <oscillator_strength_2> 
0.0234 
 
>  <oscillator_strength_3> 
0.0046 
 
>  <oscillator_strength_4> 
0.001 
 
>  <open_babel_can_smiles> 
O=C1Cc2c(C1)cccc2 
 
>  <mulliken_charges> 
18 
1   -0.130002 
2   -0.130128 
3   -0.197091 
4   -0.197192 
5   -0.441287 
6   -0.441571 
7   0.128896 
8   0.129558 
9   0.452945 
10   -0.444521 
11   0.130869 
12   0.130867 
13   0.129388 
14   0.129402 
15   0.187514 
16   0.187391 
17   0.187552 
18   0.187411 
 
>  <lowdin_charges> 
18 
1   -0.156494 
2   -0.154097 
3   -0.159829 
4   -0.159794 
5   -0.313233 
6   -0.311593 
7   -0.018365 
8   -0.019084 
9   0.166962 
10   -0.220779 
11   0.159636 
12   0.157746 
13   0.156399 
14   0.15642 
15   0.179159 
16   0.179116 
17   0.17896 
18   0.178871 
 
$$$$ 
 
