PCCDB-ID:  32207 
public computational chemistry database (PCCDB) project, http://pccdb.org 
 
 28 27  0  0  1  0  0  0  0  0999 V2000 
    0.5762    0.6172    0.6499 C   0  0  0  0  0  0  0  0  0  0  0  0 
    8.2250    3.6085    2.5520 C   0  0  0  0  0  0  0  0  0  0  0  0 
    7.1347    2.4767   -0.7133 C   0  0  0  0  0  0  0  0  0  0  0  0 
    2.0487    0.5018    0.2423 C   0  0  0  0  0  0  0  0  0  0  0  0 
    7.4865    3.6764    1.4447 C   0  0  0  0  0  0  0  0  0  0  0  0 
    2.9290    1.6098    0.8346 C   0  0  0  0  0  0  0  0  0  0  0  0 
    4.4049    1.4997    0.4281 C   0  0  0  0  0  0  0  0  0  0  0  0 
    5.2652    2.6149    1.0384 C   0  0  0  0  0  0  0  0  0  0  0  0 
    6.7868    2.4984    0.7880 C   0  0  1  0  0  0  0  0  0  0  0  0 
    7.1811    1.2607    1.3925 O   0  0  0  0  0  0  0  0  0  0  0  0 
   -0.0254   -0.1881    0.2129 H   0  0  0  0  0  0  0  0  0  0  0  0 
    0.1470    1.5711    0.3188 H   0  0  0  0  0  0  0  0  0  0  0  0 
    0.4615    0.5649    1.7397 H   0  0  0  0  0  0  0  0  0  0  0  0 
    8.7028    4.4889    2.9725 H   0  0  0  0  0  0  0  0  0  0  0  0 
    8.3595    2.6705    3.0836 H   0  0  0  0  0  0  0  0  0  0  0  0 
    6.7744    3.3788   -1.2215 H   0  0  0  0  0  0  0  0  0  0  0  0 
    6.6925    1.6027   -1.1992 H   0  0  0  0  0  0  0  0  0  0  0  0 
    8.2225    2.4318   -0.8511 H   0  0  0  0  0  0  0  0  0  0  0  0 
    2.1273    0.5239   -0.8541 H   0  0  0  0  0  0  0  0  0  0  0  0 
    2.4404   -0.4763    0.5552 H   0  0  0  0  0  0  0  0  0  0  0  0 
    7.3505    4.6351    0.9425 H   0  0  0  0  0  0  0  0  0  0  0  0 
    2.8513    1.5859    1.9317 H   0  0  0  0  0  0  0  0  0  0  0  0 
    2.5348    2.5895    0.5242 H   0  0  0  0  0  0  0  0  0  0  0  0 
    4.4736    1.5240   -0.6682 H   0  0  0  0  0  0  0  0  0  0  0  0 
    4.8043    0.5289    0.7452 H   0  0  0  0  0  0  0  0  0  0  0  0 
    5.1241    2.6264    2.1264 H   0  0  0  0  0  0  0  0  0  0  0  0 
    4.9263    3.5923    0.6682 H   0  0  0  0  0  0  0  0  0  0  0  0 
    8.1388    1.1707    1.2592 H   0  0  0  0  0  0  0  0  0  0  0  0 
  1 13  1  0  0  0  0 
  2 14  1  0  0  0  0 
  2 15  1  0  0  0  0 
  3  9  1  0  0  0  0 
  4 20  1  0  0  0  0 
  4  1  1  0  0  0  0 
  4  6  1  0  0  0  0 
  5  2  2  0  0  0  0 
  6 22  1  0  0  0  0 
  7 25  1  0  0  0  0 
  7  6  1  0  0  0  0 
  7  8  1  0  0  0  0 
  8 26  1  0  0  0  0 
  9  8  1  0  0  0  0 
  9 10  1  1  0  0  0 
  9  5  1  0  0  0  0 
 11  1  1  0  0  0  0 
 12  1  1  0  0  0  0 
 16  3  1  0  0  0  0 
 17  3  1  0  0  0  0 
 18  3  1  0  0  0  0 
 19  4  1  0  0  0  0 
 21  5  1  0  0  0  0 
 23  6  1  0  0  0  0 
 24  7  1  0  0  0  0 
 27  8  1  0  0  0  0 
 28 10  1  0  0  0  0 
M  END 
>  <HBA> 
1 
 
>  <HBD> 
1 
 
>  <TPSA> 
20.23 
 
>  <cid> 
32207 
 
>  <dipole> 
1.36 
 
>  <excitation_energy_1> 
6.279 
 
>  <excitation_energy_2> 
6.479 
 
>  <excitation_energy_3> 
6.673 
 
>  <excitation_energy_4> 
6.921 
 
>  <homo_energy> 
-6.879 
 
>  <homo_lumo_gap> 
7.44 
 
>  <logP> 
2.504 
 
>  <lumo_energy> 
0.561 
 
>  <melting_point> 
-19.51 
 
>  <molecular_refractivity> 
46.1 
 
>  <oscillator_strength_1> 
0.0509 
 
>  <oscillator_strength_2> 
0.0383 
 
>  <oscillator_strength_3> 
0.0001 
 
>  <oscillator_strength_4> 
0.2356 
 
>  <open_babel_can_smiles> 
CCCCC[C@@](C=C)(O)C 
 
>  <mulliken_charges> 
28 
1   -0.441054 
2   -0.352893 
3   -0.472219 
4   -0.246545 
5   -0.074628 
6   -0.248061 
7   -0.263548 
8   -0.257113 
9   0.280142 
10   -0.642541 
11   0.140478 
12   0.13981 
13   0.14139 
14   0.138729 
15   0.144226 
16   0.141836 
17   0.162371 
18   0.1381 
19   0.127996 
20   0.131907 
21   0.122884 
22   0.12895 
23   0.122863 
24   0.124991 
25   0.155638 
26   0.146768 
27   0.124104 
28   0.38542 
 
>  <lowdin_charges> 
28 
1   -0.443705 
2   -0.347569 
3   -0.458478 
4   -0.269306 
5   -0.164057 
6   -0.270826 
7   -0.276121 
8   -0.273013 
9   0.12159 
10   -0.452005 
11   0.14959 
12   0.145439 
13   0.144294 
14   0.160098 
15   0.160115 
16   0.152778 
17   0.159717 
18   0.146195 
19   0.135424 
20   0.139411 
21   0.152333 
22   0.136058 
23   0.134655 
24   0.134586 
25   0.151808 
26   0.150893 
27   0.141343 
28   0.338753 
 
$$$$ 
 
