PCCDB-ID:  29744 
public computational chemistry database (PCCDB) project, http://pccdb.org 
 
 15 15  0  0  0  0  0  0  0  0999 V2000 
    3.0894    0.9299   -0.3172 C   0  0  0  0  0  0  0  0  0  0  0  0 
    2.5342   -3.0761   -1.3789 C   0  0  0  0  0  0  0  0  0  0  0  0 
    3.8906   -2.4565   -1.8000 C   0  0  0  0  0  0  0  0  0  0  0  0 
    3.0928   -1.4023    0.0418 C   0  0  0  0  0  0  0  0  0  0  0  0 
    2.3983   -0.3012   -0.4790 O   0  0  0  0  0  0  0  0  0  0  0  0 
    2.2836   -2.5223   -0.0819 O   0  0  0  0  0  0  0  0  0  0  0  0 
    4.2765   -1.6680   -0.6691 O   0  0  0  0  0  0  0  0  0  0  0  0 
    2.4247    1.7129   -0.6883 H   0  0  0  0  0  0  0  0  0  0  0  0 
    4.0282    0.9442   -0.8841 H   0  0  0  0  0  0  0  0  0  0  0  0 
    3.3144    1.1255    0.7427 H   0  0  0  0  0  0  0  0  0  0  0  0 
    2.5689   -4.1642   -1.2738 H   0  0  0  0  0  0  0  0  0  0  0  0 
    1.7287   -2.8069   -2.0707 H   0  0  0  0  0  0  0  0  0  0  0  0 
    3.7906   -1.8300   -2.6938 H   0  0  0  0  0  0  0  0  0  0  0  0 
    4.6744   -3.1995   -1.9698 H   0  0  0  0  0  0  0  0  0  0  0  0 
    3.3565   -1.2407    1.0945 H   0  0  0  0  0  0  0  0  0  0  0  0 
  1 10  1  0  0  0  0 
  2 11  1  0  0  0  0 
  2  6  1  0  0  0  0 
  3  2  1  0  0  0  0 
  3  7  1  0  0  0  0 
  4 15  1  0  0  0  0 
  5  1  1  0  0  0  0 
  5  4  1  0  0  0  0 
  6  4  1  0  0  0  0 
  7  4  1  0  0  0  0 
  8  1  1  0  0  0  0 
  9  1  1  0  0  0  0 
 12  2  1  0  0  0  0 
 13  3  1  0  0  0  0 
 14  3  1  0  0  0  0 
M  END 
>  <HBA> 
3 
 
>  <HBD> 
0 
 
>  <TPSA> 
27.69 
 
>  <cid> 
29744 
 
>  <dipole> 
1.46 
 
>  <excitation_energy_1> 
6.782 
 
>  <excitation_energy_2> 
7.095 
 
>  <excitation_energy_3> 
7.238 
 
>  <excitation_energy_4> 
7.348 
 
>  <homo_energy> 
-7.094 
 
>  <homo_lumo_gap> 
9.475 
 
>  <logP> 
-0.037 
 
>  <lumo_energy> 
2.381 
 
>  <melting_point> 
-29.5 
 
>  <molecular_refractivity> 
22.48 
 
>  <oscillator_strength_1> 
0.0034 
 
>  <oscillator_strength_2> 
0.0052 
 
>  <oscillator_strength_3> 
0.0029 
 
>  <oscillator_strength_4> 
0.016 
 
>  <open_babel_can_smiles> 
COC1OCCO1 
 
>  <mulliken_charges> 
15 
1   -0.211108 
2   -0.055359 
3   -0.062236 
4   0.553749 
5   -0.465104 
6   -0.479059 
7   -0.48471 
8   0.161912 
9   0.154846 
10   0.134711 
11   0.154429 
12   0.156596 
13   0.151726 
14   0.155841 
15   0.133769 
 
>  <lowdin_charges> 
15 
1   -0.28325 
2   -0.142043 
3   -0.14752 
4   0.164607 
5   -0.266454 
6   -0.237387 
7   -0.261825 
8   0.159217 
9   0.144583 
10   0.134643 
11   0.149947 
12   0.149475 
13   0.145138 
14   0.154519 
15   0.136349 
 
$$$$ 
 
