PCCDB-ID:  11958 
public computational chemistry database (PCCDB) project, http://pccdb.org 
 
 19 19  0  0  0  0  0  0  0  0999 V2000 
    0.8612    0.0629    0.0549 C   0  0  0  0  0  0  0  0  0  0  0  0 
    7.4955    0.9757   -0.3395 C   0  0  0  0  0  0  0  0  0  0  0  0 
    3.0731    1.2531   -0.0626 C   0  0  0  0  0  0  0  0  0  0  0  0 
    4.5390   -1.1924   -0.1599 C   0  0  0  0  0  0  0  0  0  0  0  0 
    2.3557    0.1147   -0.0283 C   0  0  0  0  0  0  0  0  0  0  0  0 
    3.0804   -1.2044   -0.0773 C   0  0  0  0  0  0  0  0  0  0  0  0 
    4.5466    1.2826   -0.1396 C   0  0  0  0  0  0  0  0  0  0  0  0 
    5.2624   -0.0446   -0.1961 C   0  0  0  0  0  0  0  0  0  0  0  0 
    2.4413   -2.2542   -0.0493 O   0  0  0  0  0  0  0  0  0  0  0  0 
    5.1503    2.3500   -0.1525 O   0  0  0  0  0  0  0  0  0  0  0  0 
    6.5984   -0.1457   -0.2768 O   0  0  0  0  0  0  0  0  0  0  0  0 
    0.4284    1.0661    0.0914 H   0  0  0  0  0  0  0  0  0  0  0  0 
    0.5464   -0.4977    0.9423 H   0  0  0  0  0  0  0  0  0  0  0  0 
    0.4485   -0.4762   -0.8054 H   0  0  0  0  0  0  0  0  0  0  0  0 
    8.4841    0.5187   -0.4147 H   0  0  0  0  0  0  0  0  0  0  0  0 
    7.4307    1.5912    0.5594 H   0  0  0  0  0  0  0  0  0  0  0  0 
    7.2991    1.5972   -1.2151 H   0  0  0  0  0  0  0  0  0  0  0  0 
    2.6071    2.2344   -0.0286 H   0  0  0  0  0  0  0  0  0  0  0  0 
    5.0363   -2.1559   -0.1941 H   0  0  0  0  0  0  0  0  0  0  0  0 
  1 12  1  0  0  0  0 
  1 13  1  0  0  0  0 
  2 11  1  0  0  0  0 
  2 16  1  0  0  0  0 
  3 18  1  0  0  0  0 
  3  5  2  0  0  0  0 
  4  6  1  0  0  0  0 
  5  1  1  0  0  0  0 
  6  9  2  0  0  0  0 
  6  5  1  0  0  0  0 
  7  3  1  0  0  0  0 
  8  4  2  0  0  0  0 
  8  7  1  0  0  0  0 
 10  7  2  0  0  0  0 
 11  8  1  0  0  0  0 
 14  1  1  0  0  0  0 
 15  2  1  0  0  0  0 
 17  2  1  0  0  0  0 
 19  4  1  0  0  0  0 
M  END 
>  <HBA> 
3 
 
>  <HBD> 
0 
 
>  <TPSA> 
43.37 
 
>  <cid> 
11958 
 
>  <dipole> 
1.85 
 
>  <excitation_energy_1> 
2.619 
 
>  <excitation_energy_2> 
2.809 
 
>  <excitation_energy_3> 
2.84 
 
>  <excitation_energy_4> 
4.401 
 
>  <homo_energy> 
-6.716 
 
>  <homo_lumo_gap> 
3.529 
 
>  <logP> 
0.615 
 
>  <lumo_energy> 
-3.186 
 
>  <melting_point> 
54.94 
 
>  <molecular_refractivity> 
38.99 
 
>  <oscillator_strength_1> 
0.0 
 
>  <oscillator_strength_2> 
0.0196 
 
>  <oscillator_strength_3> 
0.0006 
 
>  <oscillator_strength_4> 
0.2342 
 
>  <open_babel_can_smiles> 
COC1=CC(=O)C(=CC1=O)C 
 
>  <mulliken_charges> 
19 
1   -0.513293 
2   -0.204532 
3   -0.258128 
4   -0.268678 
5   0.136337 
6   0.409526 
7   0.419428 
8   0.363514 
9   -0.478236 
10   -0.472192 
11   -0.498807 
12   0.158731 
13   0.185589 
14   0.185516 
15   0.164872 
16   0.175471 
17   0.174131 
18   0.157052 
19   0.163697 
 
>  <lowdin_charges> 
19 
1   -0.435797 
2   -0.270113 
3   -0.190098 
4   -0.222352 
5   0.012523 
6   0.141531 
7   0.14084 
8   0.092471 
9   -0.235 
10   -0.220222 
11   -0.170812 
12   0.159892 
13   0.178695 
14   0.178906 
15   0.158361 
16   0.161768 
17   0.161318 
18   0.17495 
19   0.183141 
 
$$$$ 
 
