PCCDB-ID:  8830 
public computational chemistry database (PCCDB) project, http://pccdb.org 
 
 38 37  0  0  0  0  0  0  0  0999 V2000 
    1.3340   -4.9087   -3.0955 C   0  0  0  0  0  0  0  0  0  0  0  0 
   11.8196    4.0361   -3.8953 C   0  0  0  0  0  0  0  0  0  0  0  0 
    2.4860   -5.1501   -2.1144 C   0  0  0  0  0  0  0  0  0  0  0  0 
   11.3019    3.7971   -2.4729 C   0  0  0  0  0  0  0  0  0  0  0  0 
    3.6669   -4.1951   -2.3380 C   0  0  0  0  0  0  0  0  0  0  0  0 
   10.0582    2.8993   -2.4361 C   0  0  0  0  0  0  0  0  0  0  0  0 
    7.2015   -1.6105   -1.3713 C   0  0  0  0  0  0  0  0  0  0  0  0 
    7.1184   -0.1348   -0.9904 C   0  0  0  0  0  0  0  0  0  0  0  0 
    4.8001   -4.4410   -1.3474 C   0  0  0  0  0  0  0  0  0  0  0  0 
    9.5580    2.6648   -1.0144 C   0  0  0  0  0  0  0  0  0  0  0  0 
    5.9226   -2.3596   -1.0547 C   0  0  0  0  0  0  0  0  0  0  0  0 
    8.4734    0.5435   -1.0329 C   0  0  0  0  0  0  0  0  0  0  0  0 
    5.0135   -1.9343   -0.3723 O   0  0  0  0  0  0  0  0  0  0  0  0 
    9.5423   -0.0304   -1.0717 O   0  0  0  0  0  0  0  0  0  0  0  0 
    5.9393   -3.5886   -1.6153 O   0  0  0  0  0  0  0  0  0  0  0  0 
    8.3362    1.8870   -1.0026 O   0  0  0  0  0  0  0  0  0  0  0  0 
    0.5028   -5.5978   -2.9091 H   0  0  0  0  0  0  0  0  0  0  0  0 
    1.6601   -5.0506   -4.1330 H   0  0  0  0  0  0  0  0  0  0  0  0 
    0.9472   -3.8866   -3.0056 H   0  0  0  0  0  0  0  0  0  0  0  0 
   12.7089    4.6760   -3.8920 H   0  0  0  0  0  0  0  0  0  0  0  0 
   11.0594    4.5230   -4.5180 H   0  0  0  0  0  0  0  0  0  0  0  0 
   12.0902    3.0904   -4.3800 H   0  0  0  0  0  0  0  0  0  0  0  0 
    2.8313   -6.1899   -2.2031 H   0  0  0  0  0  0  0  0  0  0  0  0 
    2.1178   -5.0353   -1.0855 H   0  0  0  0  0  0  0  0  0  0  0  0 
   11.0733    4.7630   -2.0001 H   0  0  0  0  0  0  0  0  0  0  0  0 
   12.0975    3.3402   -1.8684 H   0  0  0  0  0  0  0  0  0  0  0  0 
    3.3278   -3.1577   -2.2315 H   0  0  0  0  0  0  0  0  0  0  0  0 
    4.0532   -4.3086   -3.3597 H   0  0  0  0  0  0  0  0  0  0  0  0 
   10.2888    1.9280   -2.8901 H   0  0  0  0  0  0  0  0  0  0  0  0 
    9.2497    3.3480   -3.0286 H   0  0  0  0  0  0  0  0  0  0  0  0 
    8.0257   -2.0925   -0.8318 H   0  0  0  0  0  0  0  0  0  0  0  0 
    7.4366   -1.7402   -2.4333 H   0  0  0  0  0  0  0  0  0  0  0  0 
    6.7088   -0.0298    0.0216 H   0  0  0  0  0  0  0  0  0  0  0  0 
    6.4275    0.4121   -1.6405 H   0  0  0  0  0  0  0  0  0  0  0  0 
    5.1933   -5.4577   -1.4357 H   0  0  0  0  0  0  0  0  0  0  0  0 
    4.4653   -4.2694   -0.3207 H   0  0  0  0  0  0  0  0  0  0  0  0 
    9.2870    3.6055   -0.5270 H   0  0  0  0  0  0  0  0  0  0  0  0 
   10.3109    2.1474   -0.4137 H   0  0  0  0  0  0  0  0  0  0  0  0 
  1 19  1  0  0  0  0 
  1 17  1  0  0  0  0 
  1  3  1  0  0  0  0 
  2 20  1  0  0  0  0 
  2  4  1  0  0  0  0 
  3 24  1  0  0  0  0 
  4  6  1  0  0  0  0 
  4 25  1  0  0  0  0 
  4 26  1  0  0  0  0 
  5 27  1  0  0  0  0 
  5  3  1  0  0  0  0 
  5  9  1  0  0  0  0 
  6 10  1  0  0  0  0 
  7 11  1  0  0  0  0 
  7  8  1  0  0  0  0 
  7 31  1  0  0  0  0 
  8 33  1  0  0  0  0 
  9 36  1  0  0  0  0 
 10 16  1  0  0  0  0 
 10 37  1  0  0  0  0 
 10 38  1  0  0  0  0 
 11 13  2  0  0  0  0 
 12 16  1  0  0  0  0 
 12  8  1  0  0  0  0 
 14 12  2  0  0  0  0 
 15  9  1  0  0  0  0 
 15 11  1  0  0  0  0 
 18  1  1  0  0  0  0 
 21  2  1  0  0  0  0 
 22  2  1  0  0  0  0 
 23  3  1  0  0  0  0 
 28  5  1  0  0  0  0 
 29  6  1  0  0  0  0 
 30  6  1  0  0  0  0 
 32  7  1  0  0  0  0 
 34  8  1  0  0  0  0 
 35  9  1  0  0  0  0 
M  END 
>  <HBA> 
4 
 
>  <HBD> 
0 
 
>  <TPSA> 
52.6 
 
>  <cid> 
8830 
 
>  <dipole> 
1.17 
 
>  <excitation_energy_1> 
5.834 
 
>  <excitation_energy_2> 
5.874 
 
>  <excitation_energy_3> 
6.983 
 
>  <excitation_energy_4> 
7.036 
 
>  <homo_energy> 
-7.293 
 
>  <homo_lumo_gap> 
7.54 
 
>  <logP> 
2.453 
 
>  <lumo_energy> 
0.248 
 
>  <melting_point> 
-5.66 
 
>  <molecular_refractivity> 
62.37 
 
>  <oscillator_strength_1> 
0.0008 
 
>  <oscillator_strength_2> 
0.0001 
 
>  <oscillator_strength_3> 
0.0619 
 
>  <oscillator_strength_4> 
0.0225 
 
>  <open_babel_can_smiles> 
CCCCOC(=O)CCC(=O)OCCCC 
 
>  <mulliken_charges> 
38 
1   -0.441115 
2   -0.441345 
3   -0.258869 
4   -0.258627 
5   -0.272554 
6   -0.272863 
7   -0.36394 
8   -0.363195 
9   -0.045014 
10   -0.045267 
11   0.629245 
12   0.629555 
13   -0.484943 
14   -0.485289 
15   -0.469633 
16   -0.469577 
17   0.145306 
18   0.143938 
19   0.147452 
20   0.145342 
21   0.143985 
22   0.147461 
23   0.132999 
24   0.140549 
25   0.132944 
26   0.14064 
27   0.159081 
28   0.141143 
29   0.159231 
30   0.141139 
31   0.201493 
32   0.178861 
33   0.200852 
34   0.178854 
35   0.149722 
36   0.166152 
37   0.149834 
38   0.166451 
 
>  <lowdin_charges> 
38 
1   -0.441021 
2   -0.444102 
3   -0.269522 
4   -0.272661 
5   -0.285509 
6   -0.288281 
7   -0.297599 
8   -0.297937 
9   -0.13019 
10   -0.133888 
11   0.199696 
12   0.200482 
13   -0.273412 
14   -0.274165 
15   -0.193241 
16   -0.194114 
17   0.151891 
18   0.146595 
19   0.14871 
20   0.151591 
21   0.148959 
22   0.149673 
23   0.138667 
24   0.14255 
25   0.139693 
26   0.144866 
27   0.153742 
28   0.144831 
29   0.154693 
30   0.146767 
31   0.186268 
32   0.171598 
33   0.18435 
34   0.174281 
35   0.150247 
36   0.155672 
37   0.151439 
38   0.158381 
 
$$$$ 
 
