PCCDB-ID:  54761 
public computational chemistry database (PCCDB) project, http://pccdb.org 
 
 36 35  0  0  0  0  0  0  0  0999 V2000 
    0.7616    0.0009    2.2601 C   0  0  0  0  0  0  0  0  0  0  0  0 
    8.7462  -10.0394    4.1630 C   0  0  0  0  0  0  0  0  0  0  0  0 
    2.2566   -0.3335    2.2227 C   0  0  0  0  0  0  0  0  0  0  0  0 
    2.7202   -0.8424    0.8504 C   0  0  0  0  0  0  0  0  0  0  0  0 
    4.2282   -1.1207    0.7376 C   0  0  0  0  0  0  0  0  0  0  0  0 
    4.7369   -2.2715    1.6171 C   0  0  0  0  0  0  0  0  0  0  0  0 
    6.2321   -2.5764    1.3995 C   0  0  0  0  0  0  0  0  0  0  0  0 
    6.7488   -3.6612    2.3043 C   0  0  0  0  0  0  0  0  0  0  0  0 
    7.2604   -4.8280    1.9016 C   0  0  0  0  0  0  0  0  0  0  0  0 
    7.7575   -5.9165    2.8152 C   0  0  0  0  0  0  0  0  0  0  0  0 
    6.8906   -7.1758    2.7104 C   0  0  0  0  0  0  0  0  0  0  0  0 
    8.3406   -9.0219    3.1217 C   0  0  0  0  0  0  0  0  0  0  0  0 
    8.8248   -8.9209    2.0153 O   0  0  0  0  0  0  0  0  0  0  0  0 
    7.3597   -8.2173    3.5967 O   0  0  0  0  0  0  0  0  0  0  0  0 
    0.4554    0.3584    3.2499 H   0  0  0  0  0  0  0  0  0  0  0  0 
    0.1525   -0.8797    2.0214 H   0  0  0  0  0  0  0  0  0  0  0  0 
    0.5115    0.7818    1.5314 H   0  0  0  0  0  0  0  0  0  0  0  0 
    9.4006  -10.7837    3.7077 H   0  0  0  0  0  0  0  0  0  0  0  0 
    7.8649  -10.5205    4.5970 H   0  0  0  0  0  0  0  0  0  0  0  0 
    9.2806   -9.5378    4.9777 H   0  0  0  0  0  0  0  0  0  0  0  0 
    2.4770   -1.0833    2.9939 H   0  0  0  0  0  0  0  0  0  0  0  0 
    2.8386    0.5602    2.4909 H   0  0  0  0  0  0  0  0  0  0  0  0 
    2.4426   -0.0995    0.0888 H   0  0  0  0  0  0  0  0  0  0  0  0 
    2.1631   -1.7570    0.5968 H   0  0  0  0  0  0  0  0  0  0  0  0 
    4.7867   -0.2044    0.9812 H   0  0  0  0  0  0  0  0  0  0  0  0 
    4.4657   -1.3489   -0.3113 H   0  0  0  0  0  0  0  0  0  0  0  0 
    4.1533   -3.1796    1.4094 H   0  0  0  0  0  0  0  0  0  0  0  0 
    4.5717   -2.0374    2.6775 H   0  0  0  0  0  0  0  0  0  0  0  0 
    6.8049   -1.6519    1.5732 H   0  0  0  0  0  0  0  0  0  0  0  0 
    6.4034   -2.8547    0.3510 H   0  0  0  0  0  0  0  0  0  0  0  0 
    6.6856   -3.4579    3.3763 H   0  0  0  0  0  0  0  0  0  0  0  0 
    7.3231   -5.0356    0.8312 H   0  0  0  0  0  0  0  0  0  0  0  0 
    7.7638   -5.5703    3.8557 H   0  0  0  0  0  0  0  0  0  0  0  0 
    8.7865   -6.1916    2.5496 H   0  0  0  0  0  0  0  0  0  0  0  0 
    6.8792   -7.5581    1.6862 H   0  0  0  0  0  0  0  0  0  0  0  0 
    5.8674   -6.9719    3.0347 H   0  0  0  0  0  0  0  0  0  0  0  0 
  1 15  1  0  0  0  0 
  2 19  1  0  0  0  0 
  2 20  1  0  0  0  0 
  3  1  1  0  0  0  0 
  3 22  1  0  0  0  0 
  3 21  1  0  0  0  0 
  4  3  1  0  0  0  0 
  5  4  1  0  0  0  0 
  5 25  1  0  0  0  0 
  5  6  1  0  0  0  0 
  6 28  1  0  0  0  0 
  7 29  1  0  0  0  0 
  7  6  1  0  0  0  0 
  7  8  1  0  0  0  0 
  8 31  1  0  0  0  0 
  9  8  2  0  0  0  0 
  9 10  1  0  0  0  0 
 10 33  1  0  0  0  0 
 11 10  1  0  0  0  0 
 11 36  1  0  0  0  0 
 11 14  1  0  0  0  0 
 12 14  1  0  0  0  0 
 12  2  1  0  0  0  0 
 13 12  2  0  0  0  0 
 16  1  1  0  0  0  0 
 17  1  1  0  0  0  0 
 18  2  1  0  0  0  0 
 23  4  1  0  0  0  0 
 24  4  1  0  0  0  0 
 26  5  1  0  0  0  0 
 27  6  1  0  0  0  0 
 30  7  1  0  0  0  0 
 32  9  1  0  0  0  0 
 34 10  1  0  0  0  0 
 35 11  1  0  0  0  0 
M  END 
>  <HBA> 
2 
 
>  <HBD> 
0 
 
>  <TPSA> 
26.3 
 
>  <cid> 
54761 
 
>  <dipole> 
1.87 
 
>  <excitation_energy_1> 
5.806 
 
>  <excitation_energy_2> 
6.162 
 
>  <excitation_energy_3> 
6.309 
 
>  <excitation_energy_4> 
6.415 
 
>  <homo_energy> 
-6.588 
 
>  <homo_lumo_gap> 
6.972 
 
>  <logP> 
3.466 
 
>  <lumo_energy> 
0.384 
 
>  <melting_point> 
-8.32 
 
>  <molecular_refractivity> 
60.61 
 
>  <oscillator_strength_1> 
0.0011 
 
>  <oscillator_strength_2> 
0.0271 
 
>  <oscillator_strength_3> 
0.0193 
 
>  <oscillator_strength_4> 
0.0051 
 
>  <open_babel_can_smiles> 
CCCCCC/C=C/CCOC(=O)C 
 
>  <mulliken_charges> 
36 
1   -0.441544 
2   -0.523314 
3   -0.248568 
4   -0.247594 
5   -0.255363 
6   -0.254446 
7   -0.303395 
8   -0.088345 
9   -0.111667 
10   -0.323361 
11   -0.042317 
12   0.600949 
13   -0.469843 
14   -0.45507 
15   0.141379 
16   0.141571 
17   0.141403 
18   0.181966 
19   0.179486 
20   0.182691 
21   0.135009 
22   0.128939 
23   0.127441 
24   0.126604 
25   0.127112 
26   0.128501 
27   0.1336 
28   0.134244 
29   0.140043 
30   0.137239 
31   0.11684 
32   0.124634 
33   0.146658 
34   0.167192 
35   0.167053 
36   0.154276 
 
>  <lowdin_charges> 
36 
1   -0.445186 
2   -0.467093 
3   -0.275913 
4   -0.276324 
5   -0.274804 
6   -0.274052 
7   -0.269486 
8   -0.15906 
9   -0.172299 
10   -0.280013 
11   -0.130873 
12   0.198844 
13   -0.267973 
14   -0.198053 
15   0.148689 
16   0.146923 
17   0.146826 
18   0.176623 
19   0.176421 
20   0.179752 
21   0.140688 
22   0.138595 
23   0.141283 
24   0.137817 
25   0.137907 
26   0.139553 
27   0.141185 
28   0.138453 
29   0.147516 
30   0.143807 
31   0.14351 
32   0.147414 
33   0.14952 
34   0.161095 
35   0.156178 
36   0.152532 
 
$$$$ 
 
