PCCDB-ID:  31708 
public computational chemistry database (PCCDB) project, http://pccdb.org 
 
 24 25  0  0  0  0  0  0  0  0999 V2000 
    0.6928   -0.4756    0.5526 C   0  0  0  0  0  0  0  0  0  0  0  0 
    3.0673   -1.3467    0.3650 C   0  0  0  0  0  0  0  0  0  0  0  0 
    2.6340    0.9242   -0.2818 C   0  0  0  0  0  0  0  0  0  0  0  0 
    4.4128   -1.1824    0.0294 C   0  0  0  0  0  0  0  0  0  0  0  0 
    3.9721    1.0919   -0.6185 C   0  0  0  0  0  0  0  0  0  0  0  0 
    7.8848    1.9849   -2.3053 C   0  0  0  0  0  0  0  0  0  0  0  0 
    8.5241    1.7687   -0.9352 C   0  0  0  0  0  0  0  0  0  0  0  0 
    2.1544   -0.2991    0.2142 C   0  0  0  0  0  0  0  0  0  0  0  0 
    4.8839    0.0371   -0.4652 C   0  0  0  0  0  0  0  0  0  0  0  0 
    6.3467    0.1867   -0.8100 C   0  0  0  0  0  0  0  0  0  0  0  0 
    6.6459    0.6538   -2.6024 S   0  0  0  0  0  0  0  0  0  0  0  0 
    7.1774    1.4440    0.2590 S   0  0  0  0  0  0  0  0  0  0  0  0 
    0.5235   -1.3869    1.1349 H   0  0  0  0  0  0  0  0  0  0  0  0 
    0.0794   -0.5458   -0.3555 H   0  0  0  0  0  0  0  0  0  0  0  0 
    0.3103    0.3720    1.1331 H   0  0  0  0  0  0  0  0  0  0  0  0 
    2.7257   -2.3047    0.7503 H   0  0  0  0  0  0  0  0  0  0  0  0 
    1.9445    1.7566   -0.4059 H   0  0  0  0  0  0  0  0  0  0  0  0 
    5.1030   -2.0132    0.1581 H   0  0  0  0  0  0  0  0  0  0  0  0 
    4.3207    2.0445   -1.0059 H   0  0  0  0  0  0  0  0  0  0  0  0 
    8.6322    1.9274   -3.1036 H   0  0  0  0  0  0  0  0  0  0  0  0 
    7.3925    2.9599   -2.3514 H   0  0  0  0  0  0  0  0  0  0  0  0 
    9.0596    2.6622   -0.5973 H   0  0  0  0  0  0  0  0  0  0  0  0 
    9.2245    0.9277   -0.9555 H   0  0  0  0  0  0  0  0  0  0  0  0 
    6.8475   -0.7715   -0.6560 H   0  0  0  0  0  0  0  0  0  0  0  0 
  1 15  1  0  0  0  0 
  1 13  1  0  0  0  0 
  2 16  1  0  0  0  0 
  3  8  2  0  0  0  0 
  4 18  1  0  0  0  0 
  4  2  2  0  0  0  0 
  5  9  2  0  0  0  0 
  5  3  1  0  0  0  0 
  6  7  1  0  0  0  0 
  7 22  1  0  0  0  0 
  7 12  1  0  0  0  0 
  8  2  1  0  0  0  0 
  8  1  1  0  0  0  0 
  9  4  1  0  0  0  0 
 10 24  1  0  0  0  0 
 10  9  1  0  0  0  0 
 10 12  1  0  0  0  0 
 11  6  1  0  0  0  0 
 11 10  1  0  0  0  0 
 14  1  1  0  0  0  0 
 17  3  1  0  0  0  0 
 19  5  1  0  0  0  0 
 20  6  1  0  0  0  0 
 21  6  1  0  0  0  0 
 23  7  1  0  0  0  0 
M  END 
>  <HBA> 
2 
 
>  <HBD> 
0 
 
>  <TPSA> 
50.6 
 
>  <cid> 
31708 
 
>  <dipole> 
0.57 
 
>  <excitation_energy_1> 
4.62 
 
>  <excitation_energy_2> 
4.718 
 
>  <excitation_energy_3> 
4.768 
 
>  <excitation_energy_4> 
4.951 
 
>  <homo_energy> 
-5.948 
 
>  <homo_lumo_gap> 
5.606 
 
>  <logP> 
3.474 
 
>  <lumo_energy> 
-0.343 
 
>  <melting_point> 
51.18 
 
>  <molecular_refractivity> 
59.06 
 
>  <oscillator_strength_1> 
0.0026 
 
>  <oscillator_strength_2> 
0.0204 
 
>  <oscillator_strength_3> 
0.0034 
 
>  <oscillator_strength_4> 
0.0158 
 
>  <open_babel_can_smiles> 
Cc1ccc(cc1)C1SCCS1 
 
>  <mulliken_charges> 
24 
1   -0.530847 
2   -0.180588 
3   -0.183054 
4   -0.174412 
5   -0.141745 
6   -0.412864 
7   -0.418076 
8   0.181624 
9   0.163715 
10   -0.495753 
11   0.110981 
12   0.132118 
13   0.155898 
14   0.166533 
15   0.161019 
16   0.123557 
17   0.124728 
18   0.12889 
19   0.147828 
20   0.181921 
21   0.188693 
22   0.183544 
23   0.185703 
24   0.200586 
 
>  <lowdin_charges> 
24 
1   -0.443657 
2   -0.168241 
3   -0.16499 
4   -0.160142 
5   -0.140352 
6   -0.376614 
7   -0.378973 
8   0.006111 
9   -0.023501 
10   -0.310433 
11   0.083215 
12   0.115873 
13   0.157545 
14   0.162955 
15   0.161148 
16   0.155363 
17   0.156668 
18   0.157666 
19   0.16866 
20   0.171082 
21   0.164181 
22   0.174825 
23   0.163614 
24   0.167997 
 
$$$$ 
 
