PCCDB-ID:  14515 
public computational chemistry database (PCCDB) project, http://pccdb.org 
 
 25 25  0  0  1  0  0  0  0  0999 V2000 
    0.8310    0.2359   -0.1629 C   0  0  0  0  0  0  0  0  0  0  0  0 
    4.5475    1.3033    0.4628 C   0  0  0  0  0  0  0  0  0  0  0  0 
    5.0417    0.0628    1.2209 C   0  0  0  0  0  0  0  0  0  0  0  0 
    3.0136    1.3857    0.4554 C   0  0  0  0  0  0  0  0  0  0  0  0 
    4.3862   -1.2152    0.6727 C   0  0  0  0  0  0  0  0  0  0  0  0 
    2.3047   -1.2766    2.1327 C   0  0  0  0  0  0  0  0  0  0  0  0 
    2.3570    0.0971   -0.0816 C   0  0  1  0  0  0  0  0  0  0  0  0 
    2.8421   -1.1579    0.6982 C   0  0  1  0  0  0  0  0  0  0  0  0 
    0.9703   -1.7823    2.0816 O   0  0  0  0  0  0  0  0  0  0  0  0 
    0.5606    1.0790   -0.8112 H   0  0  0  0  0  0  0  0  0  0  0  0 
    0.3865    0.4075    0.8222 H   0  0  0  0  0  0  0  0  0  0  0  0 
    0.3689   -0.6701   -0.5695 H   0  0  0  0  0  0  0  0  0  0  0  0 
    4.9087    1.2543   -0.5754 H   0  0  0  0  0  0  0  0  0  0  0  0 
    4.9765    2.2149    0.8986 H   0  0  0  0  0  0  0  0  0  0  0  0 
    4.8119    0.1716    2.2909 H   0  0  0  0  0  0  0  0  0  0  0  0 
    6.1340   -0.0173    1.1485 H   0  0  0  0  0  0  0  0  0  0  0  0 
    2.6865    2.2383   -0.1548 H   0  0  0  0  0  0  0  0  0  0  0  0 
    2.6508    1.5889    1.4741 H   0  0  0  0  0  0  0  0  0  0  0  0 
    4.7383   -2.0937    1.2294 H   0  0  0  0  0  0  0  0  0  0  0  0 
    4.7116   -1.3578   -0.3676 H   0  0  0  0  0  0  0  0  0  0  0  0 
    2.3329   -0.3062    2.6517 H   0  0  0  0  0  0  0  0  0  0  0  0 
    2.9509   -1.9654    2.7021 H   0  0  0  0  0  0  0  0  0  0  0  0 
    2.7267   -0.0371   -1.1113 H   0  0  0  0  0  0  0  0  0  0  0  0 
    2.4617   -2.0483    0.1778 H   0  0  0  0  0  0  0  0  0  0  0  0 
    0.6206   -1.7870    2.9855 H   0  0  0  0  0  0  0  0  0  0  0  0 
  1  7  1  0  0  0  0 
  1 11  1  0  0  0  0 
  2 14  1  0  0  0  0 
  2  3  1  0  0  0  0 
  3 15  1  0  0  0  0 
  4  2  1  0  0  0  0 
  4 18  1  0  0  0  0 
  5  8  1  0  0  0  0 
  5  3  1  0  0  0  0 
  5 19  1  0  0  0  0 
  6 21  1  0  0  0  0 
  6 22  1  0  0  0  0 
  7 23  1  6  0  0  0 
  7  4  1  0  0  0  0 
  7  8  1  0  0  0  0 
  8 24  1  6  0  0  0 
  8  6  1  0  0  0  0 
  9  6  1  0  0  0  0 
  9 25  1  0  0  0  0 
 10  1  1  0  0  0  0 
 12  1  1  0  0  0  0 
 13  2  1  0  0  0  0 
 16  3  1  0  0  0  0 
 17  4  1  0  0  0  0 
 20  5  1  0  0  0  0 
M  END 
>  <HBA> 
1 
 
>  <HBD> 
1 
 
>  <TPSA> 
20.23 
 
>  <cid> 
14515 
 
>  <dipole> 
1.47 
 
>  <excitation_energy_1> 
6.225 
 
>  <excitation_energy_2> 
6.952 
 
>  <excitation_energy_3> 
7.153 
 
>  <excitation_energy_4> 
7.187 
 
>  <homo_energy> 
-7.048 
 
>  <homo_lumo_gap> 
9.007 
 
>  <logP> 
1.805 
 
>  <lumo_energy> 
1.959 
 
>  <melting_point> 
13.31 
 
>  <molecular_refractivity> 
39.62 
 
>  <oscillator_strength_1> 
0.0004 
 
>  <oscillator_strength_2> 
0.0045 
 
>  <oscillator_strength_3> 
0.014 
 
>  <oscillator_strength_4> 
0.0033 
 
>  <open_babel_can_smiles> 
OC[C@@H]1CCCC[C@@H]1C 
 
>  <mulliken_charges> 
25 
1   -0.433258 
2   -0.258232 
3   -0.260286 
4   -0.261166 
5   -0.278086 
6   -0.039899 
7   -0.078332 
8   -0.083673 
9   -0.621023 
10   0.126214 
11   0.14549 
12   0.145209 
13   0.126969 
14   0.127732 
15   0.127924 
16   0.13027 
17   0.127938 
18   0.124247 
19   0.127591 
20   0.129878 
21   0.11988 
22   0.116587 
23   0.11369 
24   0.135415 
25   0.388924 
 
>  <lowdin_charges> 
25 
1   -0.444767 
2   -0.277303 
3   -0.276261 
4   -0.281339 
5   -0.279039 
6   -0.13976 
7   -0.12365 
8   -0.138357 
9   -0.470284 
10   0.14149 
11   0.14958 
12   0.152612 
13   0.135989 
14   0.142464 
15   0.134304 
16   0.141272 
17   0.143468 
18   0.133749 
19   0.141241 
20   0.139481 
21   0.124133 
22   0.127422 
23   0.132757 
24   0.149525 
25   0.341275 
 
$$$$ 
 
