PCCDB-ID:  38736 
public computational chemistry database (PCCDB) project, http://pccdb.org 
 
 18 19  0  0  0  0  0  0  0  0999 V2000 
    2.3100   -0.7611    1.0469 C   0  0  0  0  0  0  0  0  0  0  0  0 
    4.6278    2.5662   -3.1077 C   0  0  0  0  0  0  0  0  0  0  0  0 
    5.0913    1.8060   -4.1995 C   0  0  0  0  0  0  0  0  0  0  0  0 
    4.0422    1.9458   -2.0130 C   0  0  0  0  0  0  0  0  0  0  0  0 
    4.9782    0.4203   -4.2169 C   0  0  0  0  0  0  0  0  0  0  0  0 
    3.9209    0.5484   -2.0178 C   0  0  0  0  0  0  0  0  0  0  0  0 
    4.3864   -0.2055   -3.1127 C   0  0  0  0  0  0  0  0  0  0  0  0 
    3.3587   -0.3436   -1.0234 C   0  0  0  0  0  0  0  0  0  0  0  0 
    3.3674   -1.6217   -1.2745 N   0  0  0  0  0  0  0  0  0  0  0  0 
    2.8538    0.1762    0.1098 O   0  0  0  0  0  0  0  0  0  0  0  0 
    4.0827   -1.9050   -2.7979 S   0  0  0  0  0  0  0  0  0  0  0  0 
    1.9428   -0.1606    1.8802 H   0  0  0  0  0  0  0  0  0  0  0  0 
    3.0816   -1.4587    1.3868 H   0  0  0  0  0  0  0  0  0  0  0  0 
    1.4929   -1.3305    0.5936 H   0  0  0  0  0  0  0  0  0  0  0  0 
    4.7310    3.6472   -3.1263 H   0  0  0  0  0  0  0  0  0  0  0  0 
    5.5467    2.3124   -5.0463 H   0  0  0  0  0  0  0  0  0  0  0  0 
    3.6807    2.5178   -1.1642 H   0  0  0  0  0  0  0  0  0  0  0  0 
    5.3385   -0.1563   -5.0637 H   0  0  0  0  0  0  0  0  0  0  0  0 
  1 13  1  0  0  0  0 
  1 12  1  0  0  0  0 
  2  4  2  0  0  0  0 
  3  2  1  0  0  0  0 
  4 17  1  0  0  0  0 
  5  3  2  0  0  0  0 
  5  7  1  0  0  0  0 
  6  4  1  0  0  0  0 
  6  8  1  0  0  0  0 
  7 11  1  0  0  0  0 
  7  6  2  0  0  0  0 
  8 10  1  0  0  0  0 
  9  8  2  0  0  0  0 
 10  1  1  0  0  0  0 
 11  9  1  0  0  0  0 
 14  1  1  0  0  0  0 
 15  2  1  0  0  0  0 
 16  3  1  0  0  0  0 
 18  5  1  0  0  0  0 
M  END 
>  <HBA> 
3 
 
>  <HBD> 
0 
 
>  <TPSA> 
50.36 
 
>  <cid> 
38736 
 
>  <dipole> 
1.65 
 
>  <excitation_energy_1> 
4.256 
 
>  <excitation_energy_2> 
4.665 
 
>  <excitation_energy_3> 
4.82 
 
>  <excitation_energy_4> 
5.501 
 
>  <homo_energy> 
-5.883 
 
>  <homo_lumo_gap> 
4.909 
 
>  <logP> 
2.305 
 
>  <lumo_energy> 
-0.974 
 
>  <melting_point> 
68.49 
 
>  <molecular_refractivity> 
46.11 
 
>  <oscillator_strength_1> 
0.063 
 
>  <oscillator_strength_2> 
0.0 
 
>  <oscillator_strength_3> 
0.0329 
 
>  <oscillator_strength_4> 
0.0026 
 
>  <open_babel_can_smiles> 
COc1nsc2c1cccc2 
 
>  <mulliken_charges> 
18 
1   -0.210008 
2   -0.147628 
3   -0.112735 
4   -0.160088 
5   -0.171667 
6   0.120761 
7   -0.153894 
8   0.479492 
9   -0.580976 
10   -0.48805 
11   0.345446 
12   0.163544 
13   0.170629 
14   0.171279 
15   0.136978 
16   0.138285 
17   0.152857 
18   0.145776 
 
>  <lowdin_charges> 
18 
1   -0.275634 
2   -0.160626 
3   -0.143735 
4   -0.138075 
5   -0.164308 
6   -0.051606 
7   -0.135684 
8   0.106365 
9   -0.362817 
10   -0.18437 
11   0.366022 
12   0.160652 
13   0.159891 
14   0.160061 
15   0.160051 
16   0.163728 
17   0.172601 
18   0.167484 
 
$$$$ 
 
