PCCDB-ID:  33811 
public computational chemistry database (PCCDB) project, http://pccdb.org 
 
 31 31  0  0  1  0  0  0  0  0999 V2000 
    1.6368   -0.0507    1.6044 C   0  0  0  0  0  0  0  0  0  0  0  0 
   10.3700   -1.4083    1.4151 C   0  0  0  0  0  0  0  0  0  0  0  0 
    9.6676   -5.0198    4.9404 C   0  0  0  0  0  0  0  0  0  0  0  0 
    3.1454   -0.2158    1.8127 C   0  0  0  0  0  0  0  0  0  0  0  0 
    3.8607   -0.7869    0.5836 C   0  0  0  0  0  0  0  0  0  0  0  0 
    5.3619   -1.0071    0.8003 C   0  0  0  0  0  0  0  0  0  0  0  0 
    9.2183   -2.1183    2.0718 C   0  0  2  0  0  0  0  0  0  0  0  0 
    8.3281   -3.6566    3.5599 C   0  0  0  0  0  0  0  0  0  0  0  0 
    6.7845   -2.3041    2.1639 C   0  0  0  0  0  0  0  0  0  0  0  0 
    8.3800   -4.5656    4.4527 N   0  0  0  0  0  0  0  0  0  0  0  0 
    5.5887   -2.0144    1.8254 N   0  0  0  0  0  0  0  0  0  0  0  0 
    9.4299   -3.0174    2.9695 N   0  0  0  0  0  0  0  0  0  0  0  0 
    7.9604   -1.7389    1.6447 N   0  0  0  0  0  0  0  0  0  0  0  0 
    7.0536   -3.2525    3.1247 N   0  0  0  0  0  0  0  0  0  0  0  0 
    1.1528    0.3612    2.4974 H   0  0  0  0  0  0  0  0  0  0  0  0 
    1.1611   -1.0140    1.3831 H   0  0  0  0  0  0  0  0  0  0  0  0 
    1.4195    0.6247    0.7671 H   0  0  0  0  0  0  0  0  0  0  0  0 
   11.3047   -1.7952    1.8212 H   0  0  0  0  0  0  0  0  0  0  0  0 
   10.3189   -0.3280    1.5992 H   0  0  0  0  0  0  0  0  0  0  0  0 
   10.3580   -1.5639    0.3293 H   0  0  0  0  0  0  0  0  0  0  0  0 
    9.7537   -6.1011    4.7694 H   0  0  0  0  0  0  0  0  0  0  0  0 
    9.7114   -4.8707    6.0274 H   0  0  0  0  0  0  0  0  0  0  0  0 
   10.5271   -4.5192    4.4794 H   0  0  0  0  0  0  0  0  0  0  0  0 
    3.3354   -0.8785    2.6652 H   0  0  0  0  0  0  0  0  0  0  0  0 
    3.5899    0.7573    2.0694 H   0  0  0  0  0  0  0  0  0  0  0  0 
    3.7235   -0.1142   -0.2753 H   0  0  0  0  0  0  0  0  0  0  0  0 
    3.4093   -1.7496    0.3091 H   0  0  0  0  0  0  0  0  0  0  0  0 
    5.8214   -0.0382    1.0751 H   0  0  0  0  0  0  0  0  0  0  0  0 
    5.8154   -1.3082   -0.1617 H   0  0  0  0  0  0  0  0  0  0  0  0 
    7.8642   -1.0283    0.9345 H   0  0  0  0  0  0  0  0  0  0  0  0 
    6.2570   -3.7119    3.5463 H   0  0  0  0  0  0  0  0  0  0  0  0 
  1  4  1  0  0  0  0 
  1 15  1  0  0  0  0 
  2 19  1  0  0  0  0 
  2 18  1  0  0  0  0 
  3 22  1  0  0  0  0 
  4 25  1  0  0  0  0 
  4 24  1  0  0  0  0 
  5  6  1  0  0  0  0 
  5  4  1  0  0  0  0 
  6 28  1  0  0  0  0 
  6 11  1  0  0  0  0 
  7  2  1  6  0  0  0 
  7 12  1  0  0  0  0 
  8 10  1  0  0  0  0 
  9 14  1  0  0  0  0 
 10  3  1  0  0  0  0 
 11  9  2  0  0  0  0 
 12  8  2  0  0  0  0 
 13  7  1  0  0  0  0 
 13  9  1  0  0  0  0 
 14 31  1  0  0  0  0 
 14  8  1  0  0  0  0 
 16  1  1  0  0  0  0 
 17  1  1  0  0  0  0 
 20  2  1  0  0  0  0 
 21  3  1  0  0  0  0 
 23  3  1  0  0  0  0 
 26  5  1  0  0  0  0 
 27  5  1  0  0  0  0 
 29  6  1  0  0  0  0 
 30 13  1  0  0  0  0 
M  RAD  2   7   2  10   2 
M  END 
>  <HBA> 
5 
 
>  <HBD> 
2 
 
>  <TPSA> 
62.73 
 
>  <cid> 
33811 
 
>  <dipole> 
4.61 
 
>  <excitation_energy_1> 
4.378 
 
>  <excitation_energy_2> 
4.672 
 
>  <excitation_energy_3> 
4.907 
 
>  <excitation_energy_4> 
4.945 
 
>  <homo_energy> 
-5.837 
 
>  <homo_lumo_gap> 
5.086 
 
>  <logP> 
1.58 
 
>  <lumo_energy> 
-0.751 
 
>  <melting_point> 
122.79 
 
>  <molecular_refractivity> 
57.83 
 
>  <oscillator_strength_1> 
0.023 
 
>  <oscillator_strength_2> 
0.0029 
 
>  <oscillator_strength_3> 
0.1054 
 
>  <oscillator_strength_4> 
0.0009 
 
>  <open_babel_can_smiles> 
CCCC/N=C/1\N[C](C)N=C(N1)[N]C 
 
>  <mulliken_charges> 
31 
1   -0.441869 
2   -0.538061 
3   -0.32036 
4   -0.24614 
5   -0.244221 
6   -0.160683 
7   0.523341 
8   0.653173 
9   0.762739 
10   -0.489459 
11   -0.500874 
12   -0.505658 
13   -0.700983 
14   -0.690995 
15   0.141071 
16   0.142912 
17   0.136465 
18   0.203228 
19   0.175869 
20   0.175007 
21   0.146674 
22   0.146675 
23   0.156907 
24   0.157509 
25   0.120126 
26   0.119396 
27   0.140942 
28   0.116438 
29   0.122056 
30   0.349159 
31   0.349614 
 
>  <lowdin_charges> 
31 
1   -0.445361 
2   -0.448021 
3   -0.355389 
4   -0.27462 
5   -0.275064 
6   -0.205423 
7   0.125335 
8   0.113075 
9   0.134475 
10   -0.233256 
11   -0.266719 
12   -0.214016 
13   -0.251789 
14   -0.236345 
15   0.149522 
16   0.146954 
17   0.143961 
18   0.187489 
19   0.168913 
20   0.168323 
21   0.146193 
22   0.146065 
23   0.146138 
24   0.152946 
25   0.13405 
26   0.137403 
27   0.146614 
28   0.122087 
29   0.127916 
30   0.300028 
31   0.308515 
 
$$$$ 
 
