PCCDB-ID:  18392 
public computational chemistry database (PCCDB) project, http://pccdb.org 
 
 19 18  0  0  0  0  0  0  0  0999 V2000 
    3.4565    1.2426    2.3401 C   0  0  0  0  0  0  0  0  0  0  0  0 
    8.5395   -0.1555   -2.0600 C   0  0  0  0  0  0  0  0  0  0  0  0 
    3.7315    0.6886    1.1573 C   0  0  0  0  0  0  0  0  0  0  0  0 
    6.7079    1.3164   -2.0606 C   0  0  0  0  0  0  0  0  0  0  0  0 
    5.1931    1.3583   -2.1474 C   0  0  0  0  0  0  0  0  0  0  0  0 
    4.3942    1.4763    0.0872 C   0  0  0  0  0  0  0  0  0  0  0  0 
    4.7380    2.6395    0.1745 O   0  0  0  0  0  0  0  0  0  0  0  0 
    7.1387   -0.0237   -2.1726 O   0  0  0  0  0  0  0  0  0  0  0  0 
    4.5638    0.7165   -1.0216 O   0  0  0  0  0  0  0  0  0  0  0  0 
    2.9724    0.6825    3.1343 H   0  0  0  0  0  0  0  0  0  0  0  0 
    3.7144    2.2800    2.5335 H   0  0  0  0  0  0  0  0  0  0  0  0 
    8.7712   -1.2195   -2.1548 H   0  0  0  0  0  0  0  0  0  0  0  0 
    8.9066    0.2054   -1.0858 H   0  0  0  0  0  0  0  0  0  0  0  0 
    9.0675    0.3974   -2.8543 H   0  0  0  0  0  0  0  0  0  0  0  0 
    3.4899   -0.3446    0.9268 H   0  0  0  0  0  0  0  0  0  0  0  0 
    7.0417    1.7648   -1.1121 H   0  0  0  0  0  0  0  0  0  0  0  0 
    7.1202    1.9321   -2.8805 H   0  0  0  0  0  0  0  0  0  0  0  0 
    4.8516    0.7956   -3.0189 H   0  0  0  0  0  0  0  0  0  0  0  0 
    4.8547    2.3957   -2.2102 H   0  0  0  0  0  0  0  0  0  0  0  0 
  1 11  1  0  0  0  0 
  1 10  1  0  0  0  0 
  2 13  1  0  0  0  0 
  3  1  2  0  0  0  0 
  4 16  1  0  0  0  0 
  5  4  1  0  0  0  0 
  5  9  1  0  0  0  0 
  6  7  2  0  0  0  0 
  6  3  1  0  0  0  0 
  8  4  1  0  0  0  0 
  8  2  1  0  0  0  0 
  9  6  1  0  0  0  0 
 12  2  1  0  0  0  0 
 14  2  1  0  0  0  0 
 15  3  1  0  0  0  0 
 17  4  1  0  0  0  0 
 18  5  1  0  0  0  0 
 19  5  1  0  0  0  0 
M  END 
>  <HBA> 
3 
 
>  <HBD> 
0 
 
>  <TPSA> 
35.53 
 
>  <cid> 
18392 
 
>  <dipole> 
0.84 
 
>  <excitation_energy_1> 
4.747 
 
>  <excitation_energy_2> 
5.124 
 
>  <excitation_energy_3> 
6.142 
 
>  <excitation_energy_4> 
6.25 
 
>  <homo_energy> 
-6.996 
 
>  <homo_lumo_gap> 
5.804 
 
>  <logP> 
0.362 
 
>  <lumo_energy> 
-1.192 
 
>  <melting_point> 
-43.67 
 
>  <molecular_refractivity> 
32.85 
 
>  <oscillator_strength_1> 
0.0003 
 
>  <oscillator_strength_2> 
0.0004 
 
>  <oscillator_strength_3> 
0.0245 
 
>  <oscillator_strength_4> 
0.4324 
 
>  <open_babel_can_smiles> 
COCCOC(=O)C=C 
 
>  <mulliken_charges> 
19 
1   -0.303104 
2   -0.192137 
3   -0.1321 
4   -0.030667 
5   -0.060654 
6   0.608078 
7   -0.497025 
8   -0.455291 
9   -0.462695 
10   0.157469 
11   0.179923 
12   0.160487 
13   0.133545 
14   0.129517 
15   0.157127 
16   0.149827 
17   0.122465 
18   0.165997 
19   0.169242 
 
>  <lowdin_charges> 
19 
1   -0.265751 
2   -0.277825 
3   -0.18284 
4   -0.142004 
5   -0.137368 
6   0.193353 
7   -0.277189 
8   -0.270172 
9   -0.182266 
10   0.170047 
11   0.178001 
12   0.154994 
13   0.133498 
14   0.132453 
15   0.170766 
16   0.143348 
17   0.133819 
18   0.163317 
19   0.161818 
 
$$$$ 
 
