PCCDB-ID:  18718 
public computational chemistry database (PCCDB) project, http://pccdb.org 
 
 31 31  0  0  0  0  0  0  0  0999 V2000 
   -0.6232    1.4614   -4.0418 C   0  0  0  0  0  0  0  0  0  0  0  0 
    0.7497    0.9997   -3.5280 C   0  0  0  0  0  0  0  0  0  0  0  0 
   -1.5814    1.7655   -2.8797 C   0  0  0  0  0  0  0  0  0  0  0  0 
    0.6906   -0.1602    1.7107 C   0  0  0  0  0  0  0  0  0  0  0  0 
    0.6210   -0.1950   -2.5680 C   0  0  0  0  0  0  0  0  0  0  0  0 
   -1.7029    0.5673   -1.9228 C   0  0  0  0  0  0  0  0  0  0  0  0 
   -0.0698    0.7662    2.6645 C   0  0  0  0  0  0  0  0  0  0  0  0 
    1.2480    0.5717    0.4806 C   0  0  0  0  0  0  0  0  0  0  0  0 
   -0.3363    0.0962   -1.3846 C   0  0  0  0  0  0  0  0  0  0  0  0 
    0.8405    1.7504    3.2693 N   0  0  0  0  0  0  0  0  0  0  0  0 
    0.1774    1.0587   -0.3978 N   0  0  0  0  0  0  0  0  0  0  0  0 
   -1.0573    0.6678   -4.6685 H   0  0  0  0  0  0  0  0  0  0  0  0 
   -0.5125    2.3427   -4.6867 H   0  0  0  0  0  0  0  0  0  0  0  0 
    1.2440    1.8373   -3.0132 H   0  0  0  0  0  0  0  0  0  0  0  0 
    1.4040    0.7352   -4.3684 H   0  0  0  0  0  0  0  0  0  0  0  0 
   -2.5727    2.0369   -3.2647 H   0  0  0  0  0  0  0  0  0  0  0  0 
   -1.2203    2.6447   -2.3261 H   0  0  0  0  0  0  0  0  0  0  0  0 
    0.0222   -0.9724    1.3950 H   0  0  0  0  0  0  0  0  0  0  0  0 
    1.5239   -0.6396    2.2465 H   0  0  0  0  0  0  0  0  0  0  0  0 
    1.6092   -0.4888   -2.1921 H   0  0  0  0  0  0  0  0  0  0  0  0 
    0.2333   -1.0602   -3.1257 H   0  0  0  0  0  0  0  0  0  0  0  0 
   -2.1738   -0.2681   -2.4614 H   0  0  0  0  0  0  0  0  0  0  0  0 
   -2.3505    0.8165   -1.0748 H   0  0  0  0  0  0  0  0  0  0  0  0 
   -0.6169    0.1566    3.4062 H   0  0  0  0  0  0  0  0  0  0  0  0 
   -0.8165    1.3158    2.0811 H   0  0  0  0  0  0  0  0  0  0  0  0 
    1.9633   -0.0886   -0.0410 H   0  0  0  0  0  0  0  0  0  0  0  0 
    1.8112    1.4402    0.8359 H   0  0  0  0  0  0  0  0  0  0  0  0 
   -0.4970   -0.8419   -0.8381 H   0  0  0  0  0  0  0  0  0  0  0  0 
    1.4389    1.2867    3.9527 H   0  0  0  0  0  0  0  0  0  0  0  0 
    0.3049    2.4432    3.7893 H   0  0  0  0  0  0  0  0  0  0  0  0 
    0.4814    1.9078   -0.8652 H   0  0  0  0  0  0  0  0  0  0  0  0 
  1  2  1  0  0  0  0 
  1  3  1  0  0  0  0 
  2 14  1  0  0  0  0 
  2  5  1  0  0  0  0 
  3 17  1  0  0  0  0 
  3  6  1  0  0  0  0 
  4 19  1  0  0  0  0 
  4  7  1  0  0  0  0 
  5 20  1  0  0  0  0 
  5  9  1  0  0  0  0 
  6  9  1  0  0  0  0 
  6 23  1  0  0  0  0 
  7 10  1  0  0  0  0 
  7 24  1  0  0  0  0 
  8 27  1  0  0  0  0 
  8  4  1  0  0  0  0 
  9 28  1  0  0  0  0 
  9 11  1  0  0  0  0 
 10 30  1  0  0  0  0 
 10 29  1  0  0  0  0 
 11  8  1  0  0  0  0 
 12  1  1  0  0  0  0 
 13  1  1  0  0  0  0 
 15  2  1  0  0  0  0 
 16  3  1  0  0  0  0 
 18  4  1  0  0  0  0 
 21  5  1  0  0  0  0 
 22  6  1  0  0  0  0 
 25  7  1  0  0  0  0 
 26  8  1  0  0  0  0 
 31 11  1  0  0  0  0 
M  END 
>  <HBA> 
2 
 
>  <HBD> 
2 
 
>  <TPSA> 
38.05 
 
>  <cid> 
18718 
 
>  <dipole> 
0.59 
 
>  <excitation_energy_1> 
5.135 
 
>  <excitation_energy_2> 
5.33 
 
>  <excitation_energy_3> 
5.492 
 
>  <excitation_energy_4> 
5.593 
 
>  <homo_energy> 
-5.578 
 
>  <homo_lumo_gap> 
7.589 
 
>  <logP> 
2.349 
 
>  <lumo_energy> 
2.011 
 
>  <melting_point> 
75.45 
 
>  <molecular_refractivity> 
48.77 
 
>  <oscillator_strength_1> 
0.0046 
 
>  <oscillator_strength_2> 
0.0013 
 
>  <oscillator_strength_3> 
0.0028 
 
>  <oscillator_strength_4> 
0.0063 
 
>  <open_babel_can_smiles> 
NCCCNC1CCCCC1 
 
>  <mulliken_charges> 
31 
1   -0.253084 
2   -0.26423 
3   -0.268969 
4   -0.242047 
5   -0.268948 
6   -0.251673 
7   -0.139263 
8   -0.13272 
9   0.03064 
10   -0.717169 
11   -0.560916 
12   0.12665 
13   0.128365 
14   0.12079 
15   0.131894 
16   0.130899 
17   0.129605 
18   0.128873 
19   0.116801 
20   0.133239 
21   0.124663 
22   0.120849 
23   0.138235 
24   0.10611 
25   0.159082 
26   0.11099 
27   0.158125 
28   0.122787 
29   0.288308 
30   0.294875 
31   0.297238 
 
>  <lowdin_charges> 
31 
1   -0.27994 
2   -0.283356 
3   -0.28132 
4   -0.287942 
5   -0.296743 
6   -0.284132 
7   -0.21349 
8   -0.210223 
9   -0.069485 
10   -0.563587 
11   -0.364595 
12   0.138112 
13   0.142416 
14   0.133498 
15   0.145371 
16   0.143643 
17   0.13769 
18   0.141768 
19   0.137076 
20   0.142654 
21   0.140315 
22   0.138285 
23   0.149442 
24   0.117509 
25   0.152716 
26   0.120835 
27   0.156619 
28   0.139157 
29   0.249915 
30   0.255669 
31   0.252119 
 
$$$$ 
 
