PCCDB-ID:  72656 
public computational chemistry database (PCCDB) project, http://pccdb.org 
 
 15 15  0  0  0  0  0  0  0  0999 V2000 
   -0.7447   -0.7141   -0.5880 C   0  0  0  0  0  0  0  0  0  0  0  0 
   -1.0288    0.6085   -0.2225 C   0  0  0  0  0  0  0  0  0  0  0  0 
    1.4344   -0.3898    0.0501 C   0  0  0  0  0  0  0  0  0  0  0  0 
    1.1382    0.9562    0.4222 C   0  0  0  0  0  0  0  0  0  0  0  0 
    2.7983   -0.9799    0.1823 C   0  0  0  0  0  0  0  0  0  0  0  0 
    2.0733    1.7832    0.9262 N   0  0  0  0  0  0  0  0  0  0  0  0 
    0.4902   -1.1943   -0.4446 N   0  0  0  0  0  0  0  0  0  0  0  0 
   -0.1171    1.4376    0.2735 N   0  0  0  0  0  0  0  0  0  0  0  0 
    3.7593   -0.3692    0.6205 O   0  0  0  0  0  0  0  0  0  0  0  0 
    2.8906   -2.2523   -0.2264 O   0  0  0  0  0  0  0  0  0  0  0  0 
   -1.5053   -1.3756   -0.9912 H   0  0  0  0  0  0  0  0  0  0  0  0 
   -2.0354    1.0073   -0.3376 H   0  0  0  0  0  0  0  0  0  0  0  0 
    3.0208    1.4391    1.0340 H   0  0  0  0  0  0  0  0  0  0  0  0 
    1.8085    2.7291    1.1571 H   0  0  0  0  0  0  0  0  0  0  0  0 
    1.9900   -2.5084   -0.5292 H   0  0  0  0  0  0  0  0  0  0  0  0 
  1  7  2  0  0  0  0 
  1  2  1  0  0  0  0 
  2  8  2  0  0  0  0 
  3  5  1  0  0  0  0 
  3  4  2  0  0  0  0 
  4  6  1  0  0  0  0 
  5  9  2  0  0  0  0 
  6 13  1  0  0  0  0 
  6 14  1  0  0  0  0 
  7  3  1  0  0  0  0 
  8  4  1  0  0  0  0 
 10  5  1  0  0  0  0 
 11  1  1  0  0  0  0 
 12  2  1  0  0  0  0 
 15 10  1  0  0  0  0 
M  END 
>  <HBA> 
5 
 
>  <HBD> 
2 
 
>  <TPSA> 
89.1 
 
>  <cid> 
72656 
 
>  <dipole> 
3.47 
 
>  <excitation_energy_1> 
3.812 
 
>  <excitation_energy_2> 
3.927 
 
>  <excitation_energy_3> 
4.618 
 
>  <excitation_energy_4> 
5.286 
 
>  <homo_energy> 
-6.482 
 
>  <homo_lumo_gap> 
4.387 
 
>  <logP> 
0.338 
 
>  <lumo_energy> 
-2.095 
 
>  <melting_point> 
175.81 
 
>  <molecular_refractivity> 
33.4 
 
>  <oscillator_strength_1> 
0.1176 
 
>  <oscillator_strength_2> 
0.0027 
 
>  <oscillator_strength_3> 
0.0007 
 
>  <oscillator_strength_4> 
0.0013 
 
>  <open_babel_can_smiles> 
OC(=O)c1nccnc1N 
 
>  <mulliken_charges> 
15 
1   0.011661 
2   0.041935 
3   0.204536 
4   0.50871 
5   0.613515 
6   -0.788165 
7   -0.52064 
8   -0.471082 
9   -0.497687 
10   -0.580413 
11   0.154988 
12   0.158565 
13   0.385887 
14   0.346491 
15   0.431698 
 
>  <lowdin_charges> 
15 
1   -0.147348 
2   -0.074485 
3   -0.05986 
4   0.11361 
5   0.191904 
6   -0.431491 
7   -0.121735 
8   -0.163022 
9   -0.274329 
10   -0.337963 
11   0.168964 
12   0.1667 
13   0.310735 
14   0.295538 
15   0.362781 
 
$$$$ 
 
