PCCDB-ID:  7211 
public computational chemistry database (PCCDB) project, http://pccdb.org 
 
 28 27  0  0  1  0  0  0  0  0999 V2000 
    3.8453   -0.8016    3.6441 C   0  0  0  0  0  0  0  0  0  0  0  0 
    8.2292   -2.2277   -1.5861 C   0  0  0  0  0  0  0  0  0  0  0  0 
    3.6222   -0.8646    2.1299 C   0  0  0  0  0  0  0  0  0  0  0  0 
    6.9102   -2.2486   -0.8053 C   0  0  0  0  0  0  0  0  0  0  0  0 
    4.9310   -0.9821    1.3375 C   0  0  0  0  0  0  0  0  0  0  0  0 
    5.6864   -0.7518   -2.4881 C   0  0  0  0  0  0  0  0  0  0  0  0 
    6.0164   -1.0073   -1.0129 C   0  0  1  0  0  0  0  0  0  0  0  0 
    4.7091   -1.0602   -0.1753 C   0  0  1  0  0  0  0  0  0  0  0  0 
    4.9546   -1.8766   -3.0041 O   0  0  0  0  0  0  0  0  0  0  0  0 
    3.9623   -2.2451   -0.4348 O   0  0  0  0  0  0  0  0  0  0  0  0 
    2.8952   -0.7193    4.1846 H   0  0  0  0  0  0  0  0  0  0  0  0 
    4.4624    0.0622    3.9225 H   0  0  0  0  0  0  0  0  0  0  0  0 
    4.3565   -1.7021    4.0069 H   0  0  0  0  0  0  0  0  0  0  0  0 
    8.8580   -3.0789   -1.3012 H   0  0  0  0  0  0  0  0  0  0  0  0 
    8.8033   -1.3131   -1.3878 H   0  0  0  0  0  0  0  0  0  0  0  0 
    8.0667   -2.2942   -2.6677 H   0  0  0  0  0  0  0  0  0  0  0  0 
    3.0803    0.0343    1.8016 H   0  0  0  0  0  0  0  0  0  0  0  0 
    2.9835   -1.7188    1.8796 H   0  0  0  0  0  0  0  0  0  0  0  0 
    7.1359   -2.3316    0.2644 H   0  0  0  0  0  0  0  0  0  0  0  0 
    6.3378   -3.1443   -1.0660 H   0  0  0  0  0  0  0  0  0  0  0  0 
    5.4715   -1.8787    1.6673 H   0  0  0  0  0  0  0  0  0  0  0  0 
    5.5759   -0.1186    1.5573 H   0  0  0  0  0  0  0  0  0  0  0  0 
    6.6052   -0.6018   -3.0718 H   0  0  0  0  0  0  0  0  0  0  0  0 
    5.0829    0.1652   -2.5721 H   0  0  0  0  0  0  0  0  0  0  0  0 
    6.5755   -0.1167   -0.6840 H   0  0  0  0  0  0  0  0  0  0  0  0 
    4.1109   -0.1736   -0.4647 H   0  0  0  0  0  0  0  0  0  0  0  0 
    4.6587   -1.6649   -3.9020 H   0  0  0  0  0  0  0  0  0  0  0  0 
    3.9426   -2.3467   -1.4042 H   0  0  0  0  0  0  0  0  0  0  0  0 
  1 12  1  0  0  0  0 
  1 13  1  0  0  0  0 
  1 11  1  0  0  0  0 
  2 15  1  0  0  0  0 
  2 14  1  0  0  0  0 
  2  4  1  0  0  0  0 
  3  1  1  0  0  0  0 
  4 19  1  0  0  0  0 
  5 22  1  0  0  0  0 
  5 21  1  0  0  0  0 
  5  3  1  0  0  0  0 
  6  7  1  0  0  0  0 
  7  4  1  0  0  0  0 
  7 25  1  1  0  0  0 
  7  8  1  0  0  0  0 
  8 26  1  6  0  0  0 
  8  5  1  0  0  0  0 
  9  6  1  0  0  0  0 
 10  8  1  0  0  0  0 
 16  2  1  0  0  0  0 
 17  3  1  0  0  0  0 
 18  3  1  0  0  0  0 
 20  4  1  0  0  0  0 
 23  6  1  0  0  0  0 
 24  6  1  0  0  0  0 
 27  9  1  0  0  0  0 
 28 10  1  0  0  0  0 
M  END 
>  <HBA> 
2 
 
>  <HBD> 
2 
 
>  <TPSA> 
40.46 
 
>  <cid> 
7211 
 
>  <dipole> 
3.2 
 
>  <excitation_energy_1> 
5.892 
 
>  <excitation_energy_2> 
6.42 
 
>  <excitation_energy_3> 
6.601 
 
>  <excitation_energy_4> 
6.782 
 
>  <homo_energy> 
-6.61 
 
>  <homo_lumo_gap> 
8.033 
 
>  <logP> 
1.166 
 
>  <lumo_energy> 
1.423 
 
>  <melting_point> 
9.35 
 
>  <molecular_refractivity> 
42.89 
 
>  <oscillator_strength_1> 
0.002 
 
>  <oscillator_strength_2> 
0.0009 
 
>  <oscillator_strength_3> 
0.0143 
 
>  <oscillator_strength_4> 
0.0206 
 
>  <open_babel_can_smiles> 
CCC[C@@H]([C@H](CO)CC)O 
 
>  <mulliken_charges> 
28 
1   -0.442715 
2   -0.455899 
3   -0.251176 
4   -0.245795 
5   -0.258229 
6   -0.053408 
7   -0.128054 
8   0.155333 
9   -0.631179 
10   -0.658159 
11   0.139761 
12   0.135023 
13   0.141075 
14   0.144798 
15   0.135415 
16   0.146884 
17   0.121587 
18   0.161338 
19   0.137335 
20   0.159303 
21   0.140649 
22   0.117262 
23   0.134568 
24   0.126463 
25   0.119235 
26   0.090887 
27   0.402776 
28   0.41492 
 
>  <lowdin_charges> 
28 
1   -0.445856 
2   -0.446535 
3   -0.273439 
4   -0.275949 
5   -0.283484 
6   -0.140398 
7   -0.154744 
8   0.002479 
9   -0.470754 
10   -0.480452 
11   0.148139 
12   0.143085 
13   0.146381 
14   0.152472 
15   0.142697 
16   0.145256 
17   0.135658 
18   0.155368 
19   0.143984 
20   0.155977 
21   0.146562 
22   0.137675 
23   0.135294 
24   0.130578 
25   0.144212 
26   0.114778 
27   0.350405 
28   0.340611 
 
$$$$ 
 
