PCCDB-ID:  61091 
public computational chemistry database (PCCDB) project, http://pccdb.org 
 
 34 34  0  0  0  0  0  0  0  0999 V2000 
    1.9901    1.6539    3.5287 C   0  0  0  0  0  0  0  0  0  0  0  0 
    3.6901    0.6293    5.1025 C   0  0  0  0  0  0  0  0  0  0  0  0 
    9.6060   -4.7249    6.9895 C   0  0  0  0  0  0  0  0  0  0  0  0 
   10.0445   -3.4371    6.6806 C   0  0  0  0  0  0  0  0  0  0  0  0 
    8.6372   -5.3338    6.1856 C   0  0  0  0  0  0  0  0  0  0  0  0 
    7.0226   -2.9485    2.7870 C   0  0  0  0  0  0  0  0  0  0  0  0 
    9.5166   -2.7659    5.5789 C   0  0  0  0  0  0  0  0  0  0  0  0 
    8.1111   -4.6625    5.0862 C   0  0  0  0  0  0  0  0  0  0  0  0 
    8.0142   -2.5991    3.6205 C   0  0  0  0  0  0  0  0  0  0  0  0 
    6.5831   -2.0908    1.6403 C   0  0  0  0  0  0  0  0  0  0  0  0 
    3.6645   -0.0106    2.6443 C   0  0  0  0  0  0  0  0  0  0  0  0 
    3.4180    1.1082    3.6691 C   0  0  0  0  0  0  0  0  0  0  0  0 
    8.5386   -3.3609    4.7628 C   0  0  0  0  0  0  0  0  0  0  0  0 
    5.1224   -0.4113    2.5059 C   0  0  0  0  0  0  0  0  0  0  0  0 
    6.0715    0.2384    2.8912 O   0  0  0  0  0  0  0  0  0  0  0  0 
    5.2309   -1.5894    1.8450 O   0  0  0  0  0  0  0  0  0  0  0  0 
    1.8116    2.4692    4.2392 H   0  0  0  0  0  0  0  0  0  0  0  0 
    1.2454    0.8723    3.7289 H   0  0  0  0  0  0  0  0  0  0  0  0 
    1.8031    2.0417    2.5198 H   0  0  0  0  0  0  0  0  0  0  0  0 
    3.5334    1.4423    5.8209 H   0  0  0  0  0  0  0  0  0  0  0  0 
    4.7202    0.2777    5.2135 H   0  0  0  0  0  0  0  0  0  0  0  0 
    3.0136   -0.1912    5.3775 H   0  0  0  0  0  0  0  0  0  0  0  0 
   10.0155   -5.2528    7.8464 H   0  0  0  0  0  0  0  0  0  0  0  0 
   10.7989   -2.9544    7.2961 H   0  0  0  0  0  0  0  0  0  0  0  0 
    8.2927   -6.3384    6.4168 H   0  0  0  0  0  0  0  0  0  0  0  0 
    6.4760   -3.8808    2.9193 H   0  0  0  0  0  0  0  0  0  0  0  0 
    9.8602   -1.7612    5.3437 H   0  0  0  0  0  0  0  0  0  0  0  0 
    7.3659   -5.1560    4.4692 H   0  0  0  0  0  0  0  0  0  0  0  0 
    8.4945   -1.6350    3.4540 H   0  0  0  0  0  0  0  0  0  0  0  0 
    6.5085   -2.6674    0.7135 H   0  0  0  0  0  0  0  0  0  0  0  0 
    7.2578   -1.2450    1.4941 H   0  0  0  0  0  0  0  0  0  0  0  0 
    3.3298    0.3057    1.6456 H   0  0  0  0  0  0  0  0  0  0  0  0 
    3.0772   -0.9061    2.8838 H   0  0  0  0  0  0  0  0  0  0  0  0 
    4.1252    1.9164    3.4429 H   0  0  0  0  0  0  0  0  0  0  0  0 
  1 12  1  0  0  0  0 
  1 18  1  0  0  0  0 
  1 17  1  0  0  0  0 
  2 21  1  0  0  0  0 
  2 22  1  0  0  0  0 
  2 20  1  0  0  0  0 
  3 23  1  0  0  0  0 
  4  3  1  0  0  0  0 
  4 24  1  0  0  0  0 
  5 25  1  0  0  0  0 
  5  3  2  0  0  0  0 
  6 26  1  0  0  0  0 
  6  9  2  0  0  0  0 
  7  4  2  0  0  0  0 
  8  5  1  0  0  0  0 
  9 13  1  0  0  0  0 
 10 16  1  0  0  0  0 
 10  6  1  0  0  0  0 
 11 33  1  0  0  0  0 
 11 12  1  0  0  0  0 
 12  2  1  0  0  0  0 
 13  8  2  0  0  0  0 
 13  7  1  0  0  0  0 
 14 11  1  0  0  0  0 
 14 15  2  0  0  0  0 
 16 14  1  0  0  0  0 
 19  1  1  0  0  0  0 
 27  7  1  0  0  0  0 
 28  8  1  0  0  0  0 
 29  9  1  0  0  0  0 
 30 10  1  0  0  0  0 
 31 10  1  0  0  0  0 
 32 11  1  0  0  0  0 
 34 12  1  0  0  0  0 
M  END 
>  <HBA> 
2 
 
>  <HBD> 
0 
 
>  <TPSA> 
26.3 
 
>  <cid> 
61091 
 
>  <dipole> 
1.34 
 
>  <excitation_energy_1> 
4.685 
 
>  <excitation_energy_2> 
4.81 
 
>  <excitation_energy_3> 
5.565 
 
>  <excitation_energy_4> 
5.613 
 
>  <homo_energy> 
-6.085 
 
>  <homo_lumo_gap> 
5.067 
 
>  <logP> 
3.289 
 
>  <lumo_energy> 
-1.018 
 
>  <melting_point> 
35.3 
 
>  <molecular_refractivity> 
66.66 
 
>  <oscillator_strength_1> 
0.3962 
 
>  <oscillator_strength_2> 
0.1355 
 
>  <oscillator_strength_3> 
0.0047 
 
>  <oscillator_strength_4> 
0.0024 
 
>  <open_babel_can_smiles> 
CC(CC(=O)OC/C=C/c1ccccc1)C 
 
>  <mulliken_charges> 
34 
1   -0.446809 
2   -0.45228 
3   -0.127882 
4   -0.129612 
5   -0.129882 
6   -0.126006 
7   -0.193174 
8   -0.179701 
9   -0.156527 
10   -0.101606 
11   -0.355093 
12   -0.061388 
13   0.170285 
14   0.626904 
15   -0.481692 
16   -0.465545 
17   0.144537 
18   0.13842 
19   0.13891 
20   0.141111 
21   0.166057 
22   0.132939 
23   0.131452 
24   0.132539 
25   0.131337 
26   0.134677 
27   0.134549 
28   0.128969 
29   0.144706 
30   0.155015 
31   0.17541 
32   0.168816 
33   0.162812 
34   0.147755 
 
>  <lowdin_charges> 
34 
1   -0.444947 
2   -0.448823 
3   -0.155211 
4   -0.155657 
5   -0.152888 
6   -0.179897 
7   -0.155087 
8   -0.154716 
9   -0.139739 
10   -0.128866 
11   -0.301572 
12   -0.11811 
13   -0.004566 
14   0.204113 
15   -0.271688 
16   -0.202448 
17   0.151301 
18   0.145817 
19   0.14601 
20   0.150108 
21   0.159142 
22   0.142898 
23   0.15952 
24   0.160353 
25   0.15757 
26   0.153762 
27   0.158339 
28   0.158466 
29   0.162459 
30   0.156692 
31   0.163773 
32   0.168846 
33   0.164112 
34   0.150935 
 
$$$$ 
 
