PCCDB-ID:  11139 
public computational chemistry database (PCCDB) project, http://pccdb.org 
 
 29 29  0  0  1  0  0  0  0  0999 V2000 
    1.2097    1.8124   -1.1373 C   0  0  0  0  0  0  0  0  0  0  0  0 
    2.3675    1.1773    0.8769 C   0  0  0  0  0  0  0  0  0  0  0  0 
    5.4906   -0.8453   -3.2590 C   0  0  0  0  0  0  0  0  0  0  0  0 
    5.9423   -1.8884   -4.0716 C   0  0  0  0  0  0  0  0  0  0  0  0 
    5.0419   -2.4370   -1.5116 C   0  0  0  0  0  0  0  0  0  0  0  0 
    2.9532    0.1158   -1.2376 C   0  0  0  0  0  0  0  0  0  0  0  0 
    5.0343   -1.1115   -1.9688 C   0  0  0  0  0  0  0  0  0  0  0  0 
    5.9421   -3.2068   -3.6202 C   0  0  0  0  0  0  0  0  0  0  0  0 
    5.4859   -3.4831   -2.3169 C   0  0  0  0  0  0  0  0  0  0  0  0 
    4.4880   -0.0081   -1.0859 C   0  0  1  0  0  0  0  0  0  0  0  0 
    2.4676    1.3308   -0.5729 N   0  0  0  0  0  0  0  0  0  0  0  0 
    6.3766   -4.2655   -4.3701 O   0  0  0  0  0  0  0  0  0  0  0  0 
    5.5134   -4.7888   -1.9083 O   0  0  0  0  0  0  0  0  0  0  0  0 
    5.0740    1.2360   -1.4262 O   0  0  0  0  0  0  0  0  0  0  0  0 
    0.9406    2.7654   -0.6689 H   0  0  0  0  0  0  0  0  0  0  0  0 
    0.3699    1.1088   -0.9862 H   0  0  0  0  0  0  0  0  0  0  0  0 
    1.3271    1.9810   -2.2122 H   0  0  0  0  0  0  0  0  0  0  0  0 
    2.0801    2.1331    1.3273 H   0  0  0  0  0  0  0  0  0  0  0  0 
    3.3346    0.8867    1.2969 H   0  0  0  0  0  0  0  0  0  0  0  0 
    1.6197    0.4174    1.1723 H   0  0  0  0  0  0  0  0  0  0  0  0 
    5.5118    0.1790   -3.6130 H   0  0  0  0  0  0  0  0  0  0  0  0 
    6.3074   -1.6758   -5.0756 H   0  0  0  0  0  0  0  0  0  0  0  0 
    4.7055   -2.6622   -0.4992 H   0  0  0  0  0  0  0  0  0  0  0  0 
    2.4522   -0.7989   -0.8728 H   0  0  0  0  0  0  0  0  0  0  0  0 
    2.7357    0.2071   -2.3071 H   0  0  0  0  0  0  0  0  0  0  0  0 
    4.7215   -0.2609   -0.0363 H   0  0  0  0  0  0  0  0  0  0  0  0 
    6.6724   -3.9270   -5.2292 H   0  0  0  0  0  0  0  0  0  0  0  0 
    5.1893   -4.8287   -0.9953 H   0  0  0  0  0  0  0  0  0  0  0  0 
    4.3975    1.8926   -1.1618 H   0  0  0  0  0  0  0  0  0  0  0  0 
  1 16  1  0  0  0  0 
  1 15  1  0  0  0  0 
  1 11  1  0  0  0  0 
  2 20  1  0  0  0  0 
  2 19  1  0  0  0  0 
  2 18  1  0  0  0  0 
  3  7  2  0  0  0  0 
  4  8  2  0  0  0  0 
  4  3  1  0  0  0  0 
  5 23  1  0  0  0  0 
  6 10  1  0  0  0  0 
  6 24  1  0  0  0  0 
  6 11  1  0  0  0  0 
  7  5  1  0  0  0  0 
  7 10  1  0  0  0  0 
  8  9  1  0  0  0  0 
  9 13  1  0  0  0  0 
  9  5  2  0  0  0  0 
 10 26  1  1  0  0  0 
 11  2  1  0  0  0  0 
 12  8  1  0  0  0  0 
 13 28  1  0  0  0  0 
 14 29  1  0  0  0  0 
 14 10  1  0  0  0  0 
 17  1  1  0  0  0  0 
 21  3  1  0  0  0  0 
 22  4  1  0  0  0  0 
 25  6  1  0  0  0  0 
 27 12  1  0  0  0  0 
M  END 
>  <HBA> 
4 
 
>  <HBD> 
3 
 
>  <TPSA> 
63.93 
 
>  <cid> 
11139 
 
>  <dipole> 
3.08 
 
>  <excitation_energy_1> 
4.732 
 
>  <excitation_energy_2> 
4.783 
 
>  <excitation_energy_3> 
4.956 
 
>  <excitation_energy_4> 
5.285 
 
>  <homo_energy> 
-5.372 
 
>  <homo_lumo_gap> 
5.655 
 
>  <logP> 
0.693 
 
>  <lumo_energy> 
0.283 
 
>  <melting_point> 
108.36 
 
>  <molecular_refractivity> 
53.93 
 
>  <oscillator_strength_1> 
0.0045 
 
>  <oscillator_strength_2> 
0.0669 
 
>  <oscillator_strength_3> 
0.0018 
 
>  <oscillator_strength_4> 
0.0066 
 
>  <open_babel_can_smiles> 
CN(C[C@@H](c1ccc(c(c1)O)O)O)C 
 
>  <mulliken_charges> 
29 
1   -0.296293 
2   -0.305687 
3   -0.183839 
4   -0.200932 
5   -0.25968 
6   -0.145556 
7   0.13854 
8   0.319037 
9   0.325136 
10   0.07997 
11   -0.401713 
12   -0.634653 
13   -0.63621 
14   -0.649602 
15   0.152446 
16   0.128041 
17   0.157748 
18   0.155061 
19   0.163502 
20   0.127495 
21   0.145029 
22   0.116655 
23   0.106886 
24   0.12174 
25   0.150548 
26   0.113376 
27   0.406041 
28   0.405465 
29   0.401448 
 
>  <lowdin_charges> 
29 
1   -0.354391 
2   -0.360737 
3   -0.169135 
4   -0.203086 
5   -0.216816 
6   -0.221309 
7   -0.021166 
8   0.073267 
9   0.077878 
10   -0.000357 
11   -0.186511 
12   -0.371213 
13   -0.371252 
14   -0.4693 
15   0.151562 
16   0.127895 
17   0.152546 
18   0.153789 
19   0.155497 
20   0.12801 
21   0.168133 
22   0.151884 
23   0.147617 
24   0.130175 
25   0.152192 
26   0.122629 
27   0.357519 
28   0.3556 
29   0.339081 
 
$$$$ 
 
