PCCDB-ID:  58714 
public computational chemistry database (PCCDB) project, http://pccdb.org 
 
 29 29  0  0  0  0  0  0  0  0999 V2000 
    2.3369   -3.3977   -1.5037 C   0  0  0  0  0  0  0  0  0  0  0  0 
   11.9622   -3.4649   -0.8444 C   0  0  0  0  0  0  0  0  0  0  0  0 
    2.6527   -2.2300   -0.5634 C   0  0  0  0  0  0  0  0  0  0  0  0 
    3.9505   -2.4329    0.2303 C   0  0  0  0  0  0  0  0  0  0  0  0 
    4.2575   -1.2556    1.1641 C   0  0  0  0  0  0  0  0  0  0  0  0 
    9.5269   -3.5905    0.1314 C   0  0  0  0  0  0  0  0  0  0  0  0 
   10.6666   -2.9779   -0.2951 C   0  0  0  0  0  0  0  0  0  0  0  0 
    8.6899   -2.5119    0.5259 C   0  0  0  0  0  0  0  0  0  0  0  0 
    7.3073   -2.6258    1.0839 C   0  0  0  0  0  0  0  0  0  0  0  0 
    5.4678   -1.3654    2.0013 N   0  0  0  0  0  0  0  0  0  0  0  0 
    6.6539   -1.4405    1.2391 N   0  0  0  0  0  0  0  0  0  0  0  0 
    9.2744   -1.3443    0.3583 N   0  0  0  0  0  0  0  0  0  0  0  0 
    6.8246   -3.7170    1.3774 O   0  0  0  0  0  0  0  0  0  0  0  0 
   10.5297   -1.6330   -0.1647 O   0  0  0  0  0  0  0  0  0  0  0  0 
    1.4044   -3.2271   -2.0539 H   0  0  0  0  0  0  0  0  0  0  0  0 
    2.2294   -4.3362   -0.9463 H   0  0  0  0  0  0  0  0  0  0  0  0 
    3.1380   -3.5404   -2.2389 H   0  0  0  0  0  0  0  0  0  0  0  0 
   11.9597   -4.5561   -0.8996 H   0  0  0  0  0  0  0  0  0  0  0  0 
   12.7994   -3.1493   -0.2117 H   0  0  0  0  0  0  0  0  0  0  0  0 
   12.1370   -3.0650   -1.8497 H   0  0  0  0  0  0  0  0  0  0  0  0 
    1.8155   -2.0869    0.1349 H   0  0  0  0  0  0  0  0  0  0  0  0 
    2.7231   -1.3001   -1.1463 H   0  0  0  0  0  0  0  0  0  0  0  0 
    4.7878   -2.5727   -0.4649 H   0  0  0  0  0  0  0  0  0  0  0  0 
    3.8856   -3.3570    0.8205 H   0  0  0  0  0  0  0  0  0  0  0  0 
    3.4297   -1.1056    1.8695 H   0  0  0  0  0  0  0  0  0  0  0  0 
    4.3492   -0.3278    0.5856 H   0  0  0  0  0  0  0  0  0  0  0  0 
    9.2936   -4.6428    0.1706 H   0  0  0  0  0  0  0  0  0  0  0  0 
    5.4314   -2.2377    2.5314 H   0  0  0  0  0  0  0  0  0  0  0  0 
    7.2000   -0.5868    1.2079 H   0  0  0  0  0  0  0  0  0  0  0  0 
  1 16  1  0  0  0  0 
  1  3  1  0  0  0  0 
  2  7  1  0  0  0  0 
  2 19  1  0  0  0  0 
  3 21  1  0  0  0  0 
  3  4  1  0  0  0  0 
  4 24  1  0  0  0  0 
  4  5  1  0  0  0  0 
  5 25  1  0  0  0  0 
  5 10  1  0  0  0  0 
  6 27  1  0  0  0  0 
  6  8  1  0  0  0  0 
  7 14  1  0  0  0  0 
  7  6  2  0  0  0  0 
  8  9  1  0  0  0  0 
  9 11  1  0  0  0  0 
  9 13  2  0  0  0  0 
 10 28  1  0  0  0  0 
 11 10  1  0  0  0  0 
 12  8  2  0  0  0  0 
 14 12  1  0  0  0  0 
 15  1  1  0  0  0  0 
 17  1  1  0  0  0  0 
 18  2  1  0  0  0  0 
 20  2  1  0  0  0  0 
 22  3  1  0  0  0  0 
 23  4  1  0  0  0  0 
 26  5  1  0  0  0  0 
 29 11  1  0  0  0  0 
M  END 
>  <HBA> 
5 
 
>  <HBD> 
2 
 
>  <TPSA> 
67.16 
 
>  <cid> 
58714 
 
>  <dipole> 
2.1 
 
>  <excitation_energy_1> 
4.288 
 
>  <excitation_energy_2> 
4.749 
 
>  <excitation_energy_3> 
5.427 
 
>  <excitation_energy_4> 
5.685 
 
>  <homo_energy> 
-6.144 
 
>  <homo_lumo_gap> 
4.958 
 
>  <logP> 
1.799 
 
>  <lumo_energy> 
-1.186 
 
>  <melting_point> 
110.15 
 
>  <molecular_refractivity> 
51.69 
 
>  <oscillator_strength_1> 
0.0526 
 
>  <oscillator_strength_2> 
0.0021 
 
>  <oscillator_strength_3> 
0.074 
 
>  <oscillator_strength_4> 
0.0509 
 
>  <open_babel_can_smiles> 
CCCCNNC(=O)c1noc(c1)C 
 
>  <mulliken_charges> 
29 
1   -0.440105 
2   -0.52885 
3   -0.252108 
4   -0.255953 
5   -0.125474 
6   -0.278781 
7   0.418064 
8   0.270595 
9   0.585618 
10   -0.425859 
11   -0.492751 
12   -0.252761 
13   -0.537069 
14   -0.36076 
15   0.14094 
16   0.144762 
17   0.143507 
18   0.179253 
19   0.188012 
20   0.187527 
21   0.129818 
22   0.130433 
23   0.14442 
24   0.141579 
25   0.143804 
26   0.143655 
27   0.171326 
28   0.325639 
29   0.361519 
 
>  <lowdin_charges> 
29 
1   -0.443661 
2   -0.43959 
3   -0.273135 
4   -0.292386 
5   -0.210049 
6   -0.223141 
7   0.101251 
8   -0.007352 
9   0.143618 
10   -0.275864 
11   -0.205554 
12   -0.087945 
13   -0.309702 
14   -0.068327 
15   0.148883 
16   0.148086 
17   0.148155 
18   0.173899 
19   0.178677 
20   0.177032 
21   0.138681 
22   0.13858 
23   0.148223 
24   0.14615 
25   0.148125 
26   0.144626 
27   0.189014 
28   0.265869 
29   0.297837 
 
$$$$ 
 
