PCCDB-ID:  22752 
public computational chemistry database (PCCDB) project, http://pccdb.org 
 
 26 27  0  0  0  0  0  0  0  0999 V2000 
    2.7245    4.0465   -1.1249 C   0  0  0  0  0  0  0  0  0  0  0  0 
    3.5764    3.4773   -0.0073 C   0  0  0  0  0  0  0  0  0  0  0  0 
    3.6003   -2.8087   -4.6529 C   0  0  0  0  0  0  0  0  0  0  0  0 
    4.3276   -3.8369   -4.0235 C   0  0  0  0  0  0  0  0  0  0  0  0 
    3.4396   -1.5619   -4.0535 C   0  0  0  0  0  0  0  0  0  0  0  0 
    4.9179   -3.6491   -2.7740 C   0  0  0  0  0  0  0  0  0  0  0  0 
    4.0220   -1.3491   -2.7981 C   0  0  0  0  0  0  0  0  0  0  0  0 
    4.7529   -2.3980   -2.1806 C   0  0  0  0  0  0  0  0  0  0  0  0 
    4.7056   -0.5529   -0.9290 C   0  0  0  0  0  0  0  0  0  0  0  0 
    4.6557    1.3718    0.4078 C   0  0  0  0  0  0  0  0  0  0  0  0 
    4.0109   -0.2173   -1.9980 N   0  0  0  0  0  0  0  0  0  0  0  0 
    5.1777   -1.8543   -0.9848 N   0  0  0  0  0  0  0  0  0  0  0  0 
    5.0320    0.1624    0.2009 N   0  0  0  0  0  0  0  0  0  0  0  0 
    5.0362    1.9887    1.5477 O   0  0  0  0  0  0  0  0  0  0  0  0 
    3.9086    2.1169   -0.3892 O   0  0  0  0  0  0  0  0  0  0  0  0 
    2.4462    5.0788   -0.8862 H   0  0  0  0  0  0  0  0  0  0  0  0 
    1.8112    3.4584   -1.2538 H   0  0  0  0  0  0  0  0  0  0  0  0 
    3.2733    4.0412   -2.0711 H   0  0  0  0  0  0  0  0  0  0  0  0 
    3.0406    3.4574    0.9467 H   0  0  0  0  0  0  0  0  0  0  0  0 
    4.5032    4.0430    0.1298 H   0  0  0  0  0  0  0  0  0  0  0  0 
    3.1548   -2.9956   -5.6263 H   0  0  0  0  0  0  0  0  0  0  0  0 
    4.4311   -4.7981   -4.5197 H   0  0  0  0  0  0  0  0  0  0  0  0 
    2.8798   -0.7662   -4.5359 H   0  0  0  0  0  0  0  0  0  0  0  0 
    5.4793   -4.4443   -2.2908 H   0  0  0  0  0  0  0  0  0  0  0  0 
    5.7234   -2.2921   -0.2581 H   0  0  0  0  0  0  0  0  0  0  0  0 
    5.5692    1.3321    2.0300 H   0  0  0  0  0  0  0  0  0  0  0  0 
  1 16  1  0  0  0  0 
  1  2  1  0  0  0  0 
  2 20  1  0  0  0  0 
  2 19  1  0  0  0  0 
  3  5  2  0  0  0  0 
  3  4  1  0  0  0  0 
  4  6  2  0  0  0  0 
  5  7  1  0  0  0  0 
  6 24  1  0  0  0  0 
  6  8  1  0  0  0  0 
  7  8  2  0  0  0  0 
  7 11  1  0  0  0  0 
  8 12  1  0  0  0  0 
  9 13  1  0  0  0  0 
 10 14  1  0  0  0  0 
 11  9  2  0  0  0  0 
 12  9  1  0  0  0  0 
 12 25  1  0  0  0  0 
 13 10  2  0  0  0  0 
 14 26  1  0  0  0  0 
 15  2  1  0  0  0  0 
 15 10  1  0  0  0  0 
 17  1  1  0  0  0  0 
 18  1  1  0  0  0  0 
 21  3  1  0  0  0  0 
 22  4  1  0  0  0  0 
 23  5  1  0  0  0  0 
M  END 
>  <HBA> 
4 
 
>  <HBD> 
2 
 
>  <TPSA> 
67.01 
 
>  <cid> 
22752 
 
>  <dipole> 
3.9 
 
>  <excitation_energy_1> 
4.505 
 
>  <excitation_energy_2> 
4.734 
 
>  <excitation_energy_3> 
4.747 
 
>  <excitation_energy_4> 
5.188 
 
>  <homo_energy> 
-5.287 
 
>  <homo_lumo_gap> 
4.914 
 
>  <logP> 
2.204 
 
>  <lumo_energy> 
-0.373 
 
>  <melting_point> 
167.43 
 
>  <molecular_refractivity> 
56.69 
 
>  <oscillator_strength_1> 
0.5291 
 
>  <oscillator_strength_2> 
0.0299 
 
>  <oscillator_strength_3> 
0.0005 
 
>  <oscillator_strength_4> 
0.0008 
 
>  <open_babel_can_smiles> 
CCO/C(=N\c1nc2c([nH]1)cccc2)/O 
 
>  <mulliken_charges> 
26 
1   -0.458867 
2   -0.036986 
3   -0.143272 
4   -0.152141 
5   -0.189713 
6   -0.176864 
7   0.238119 
8   0.363537 
9   0.681625 
10   0.764811 
11   -0.554552 
12   -0.747336 
13   -0.62704 
14   -0.600477 
15   -0.429271 
16   0.151246 
17   0.174877 
18   0.175544 
19   0.162709 
20   0.162812 
21   0.118133 
22   0.119378 
23   0.12984 
24   0.119984 
25   0.325777 
26   0.42813 
 
>  <lowdin_charges> 
26 
1   -0.44584 
2   -0.114858 
3   -0.174254 
4   -0.167626 
5   -0.166401 
6   -0.193245 
7   0.012755 
8   0.018953 
9   0.113922 
10   0.221604 
11   -0.221864 
12   -0.2122 
13   -0.263563 
14   -0.353918 
15   -0.147975 
16   0.1584 
17   0.166453 
18   0.166598 
19   0.152446 
20   0.153114 
21   0.153135 
22   0.153795 
23   0.163194 
24   0.155859 
25   0.295609 
26   0.375908 
 
$$$$ 
 
