PCCDB-ID:  66949 
public computational chemistry database (PCCDB) project, http://pccdb.org 
 
 12 12  0  0  0  0  0  0  0  0999 V2000 
    0.8946   -0.2207   -0.0757 C   0  0  0  0  0  0  0  0  0  0  0  0 
    2.3799   -0.0590   -0.0849 C   0  0  0  0  0  0  0  0  0  0  0  0 
    4.7649    0.7415   -0.0689 C   0  0  0  0  0  0  0  0  0  0  0  0 
    5.8637    1.3838   -0.0494 N   0  0  0  0  0  0  0  0  0  0  0  0 
    3.1942   -1.0525   -0.1830 N   0  0  0  0  0  0  0  0  0  0  0  0 
    4.4918   -0.6184   -0.1603 N   0  0  0  0  0  0  0  0  0  0  0  0 
    3.1569    1.5361    0.0372 S   0  0  0  0  0  0  0  0  0  0  0  0 
    0.6541   -1.2842   -0.1495 H   0  0  0  0  0  0  0  0  0  0  0  0 
    0.4330    0.3059   -0.9193 H   0  0  0  0  0  0  0  0  0  0  0  0 
    0.4571    0.1788    0.8465 H   0  0  0  0  0  0  0  0  0  0  0  0 
    6.6715    0.7598   -0.1157 H   0  0  0  0  0  0  0  0  0  0  0  0 
    5.2110   -1.3185   -0.2690 H   0  0  0  0  0  0  0  0  0  0  0  0 
  1 10  1  0  0  0  0 
  2  1  1  0  0  0  0 
  2  7  1  0  0  0  0 
  3  4  2  0  0  0  0 
  3  7  1  0  0  0  0 
  5  6  1  0  0  0  0 
  5  2  2  0  0  0  0 
  6  3  1  0  0  0  0 
  8  1  1  0  0  0  0 
  9  1  1  0  0  0  0 
 11  4  1  0  0  0  0 
 12  6  1  0  0  0  0 
M  END 
>  <HBA> 
4 
 
>  <HBD> 
1 
 
>  <TPSA> 
80.04 
 
>  <cid> 
66949 
 
>  <dipole> 
2.58 
 
>  <excitation_energy_1> 
4.648 
 
>  <excitation_energy_2> 
4.956 
 
>  <excitation_energy_3> 
5.011 
 
>  <excitation_energy_4> 
5.676 
 
>  <homo_energy> 
-5.853 
 
>  <homo_lumo_gap> 
5.627 
 
>  <logP> 
1.01 
 
>  <lumo_energy> 
-0.226 
 
>  <melting_point> 
87.55 
 
>  <molecular_refractivity> 
29.28 
 
>  <oscillator_strength_1> 
0.0013 
 
>  <oscillator_strength_2> 
0.1025 
 
>  <oscillator_strength_3> 
0.0015 
 
>  <oscillator_strength_4> 
0.0039 
 
>  <open_babel_can_smiles> 
Cc1n[nH]c(=N)s1 
 
>  <mulliken_charges> 
12 
1   -0.511385 
2   0.116633 
3   0.321596 
4   -0.639353 
5   -0.23758 
6   -0.447388 
7   0.220681 
8   0.190399 
9   0.179859 
10   0.179527 
11   0.280531 
12   0.346481 
 
>  <lowdin_charges> 
12 
1   -0.437989 
2   -0.093901 
3   -0.019128 
4   -0.439132 
5   -0.11421 
6   -0.211685 
7   0.234378 
8   0.178984 
9   0.173028 
10   0.172419 
11   0.258862 
12   0.298374 
 
$$$$ 
 
