PCCDB-ID:  27939 
public computational chemistry database (PCCDB) project, http://pccdb.org 
 
 20 21  0  0  0  0  0  0  0  0999 V2000 
    3.6731   -0.3356    1.0332 C   0  0  0  0  0  0  0  0  0  0  0  0 
    2.5968    0.1049    0.0380 C   0  0  0  0  0  0  0  0  0  0  0  0 
    5.2986    2.1488   -4.0433 C   0  0  0  0  0  0  0  0  0  0  0  0 
    5.2031    0.7691   -3.7358 C   0  0  0  0  0  0  0  0  0  0  0  0 
    4.6544    3.1054   -3.2752 C   0  0  0  0  0  0  0  0  0  0  0  0 
    4.4660    0.3061   -2.6557 C   0  0  0  0  0  0  0  0  0  0  0  0 
    3.9038    2.6555   -2.1770 C   0  0  0  0  0  0  0  0  0  0  0  0 
    3.8163    1.2795   -1.8801 C   0  0  0  0  0  0  0  0  0  0  0  0 
    3.1617    3.3539   -1.2474 N   0  0  0  0  0  0  0  0  0  0  0  0 
    2.6399    2.5057   -0.4223 N   0  0  0  0  0  0  0  0  0  0  0  0 
    3.0085    1.2382   -0.7781 N   0  0  0  0  0  0  0  0  0  0  0  0 
    3.3102   -1.1821    1.6263 H   0  0  0  0  0  0  0  0  0  0  0  0 
    3.9220    0.4839    1.7143 H   0  0  0  0  0  0  0  0  0  0  0  0 
    4.5886   -0.6458    0.5187 H   0  0  0  0  0  0  0  0  0  0  0  0 
    1.6912    0.4240    0.5596 H   0  0  0  0  0  0  0  0  0  0  0  0 
    2.3244   -0.7144   -0.6367 H   0  0  0  0  0  0  0  0  0  0  0  0 
    5.8894    2.4555   -4.9015 H   0  0  0  0  0  0  0  0  0  0  0  0 
    5.7241    0.0533   -4.3657 H   0  0  0  0  0  0  0  0  0  0  0  0 
    4.7191    4.1648   -3.5017 H   0  0  0  0  0  0  0  0  0  0  0  0 
    4.3989   -0.7536   -2.4290 H   0  0  0  0  0  0  0  0  0  0  0  0 
  1 12  1  0  0  0  0 
  1 13  1  0  0  0  0 
  2 15  1  0  0  0  0 
  2  1  1  0  0  0  0 
  3  4  2  0  0  0  0 
  3  5  1  0  0  0  0 
  4  6  1  0  0  0  0 
  5  7  2  0  0  0  0 
  6 20  1  0  0  0  0 
  6  8  2  0  0  0  0 
  7  8  1  0  0  0  0 
  7  9  1  0  0  0  0 
  8 11  1  0  0  0  0 
  9 10  2  0  0  0  0 
 11 10  1  0  0  0  0 
 11  2  1  0  0  0  0 
 14  1  1  0  0  0  0 
 16  2  1  0  0  0  0 
 17  3  1  0  0  0  0 
 18  4  1  0  0  0  0 
 19  5  1  0  0  0  0 
M  END 
>  <HBA> 
3 
 
>  <HBD> 
0 
 
>  <TPSA> 
30.71 
 
>  <cid> 
27939 
 
>  <dipole> 
4.13 
 
>  <excitation_energy_1> 
4.691 
 
>  <excitation_energy_2> 
4.909 
 
>  <excitation_energy_3> 
5.105 
 
>  <excitation_energy_4> 
5.758 
 
>  <homo_energy> 
-6.365 
 
>  <homo_lumo_gap> 
5.279 
 
>  <logP> 
1.451 
 
>  <lumo_energy> 
-1.086 
 
>  <melting_point> 
81.16 
 
>  <molecular_refractivity> 
43.6 
 
>  <oscillator_strength_1> 
0.0802 
 
>  <oscillator_strength_2> 
0.0033 
 
>  <oscillator_strength_3> 
0.0881 
 
>  <oscillator_strength_4> 
0.0355 
 
>  <open_babel_can_smiles> 
CCn1nnc2c1cccc2 
 
>  <mulliken_charges> 
20 
1   -0.448519 
2   -0.150603 
3   -0.146717 
4   -0.144064 
5   -0.149879 
6   -0.159619 
7   0.235168 
8   0.370939 
9   -0.366656 
10   -0.051568 
11   -0.390742 
12   0.156644 
13   0.176072 
14   0.160319 
15   0.187754 
16   0.162213 
17   0.134673 
18   0.135545 
19   0.150903 
20   0.138138 
 
>  <lowdin_charges> 
20 
1   -0.451623 
2   -0.193613 
3   -0.167344 
4   -0.149049 
5   -0.140915 
6   -0.18222 
7   -0.014819 
8   0.010909 
9   -0.129315 
10   -0.068231 
11   0.013165 
12   0.160663 
13   0.166303 
14   0.157399 
15   0.174117 
16   0.157894 
17   0.16192 
18   0.162986 
19   0.170647 
20   0.161125 
 
$$$$ 
 
