PCCDB-ID:  66300 
public computational chemistry database (PCCDB) project, http://pccdb.org 
 
 27 28  0  0  0  0  0  0  0  0999 V2000 
    5.7025    1.6767    1.3755 C   0  0  0  0  0  0  0  0  0  0  0  0 
    4.3867    2.1352    1.2931 C   0  0  0  0  0  0  0  0  0  0  0  0 
    5.9650    0.3073    1.2933 C   0  0  0  0  0  0  0  0  0  0  0  0 
   -0.9301   -3.1857    1.1571 C   0  0  0  0  0  0  0  0  0  0  0  0 
   -1.1681   -4.2114    0.2285 C   0  0  0  0  0  0  0  0  0  0  0  0 
    3.3377    1.2307    1.1250 C   0  0  0  0  0  0  0  0  0  0  0  0 
    4.9251   -0.6083    1.1303 C   0  0  0  0  0  0  0  0  0  0  0  0 
    0.2509   -2.4684    1.0729 C   0  0  0  0  0  0  0  0  0  0  0  0 
   -0.2394   -4.5099   -0.7524 C   0  0  0  0  0  0  0  0  0  0  0  0 
    3.6172   -0.1318    1.0437 C   0  0  0  0  0  0  0  0  0  0  0  0 
    1.2172   -2.7441    0.0832 C   0  0  0  0  0  0  0  0  0  0  0  0 
    0.9776   -3.7956   -0.8530 C   0  0  0  0  0  0  0  0  0  0  0  0 
    2.4500   -1.9477   -0.0097 C   0  0  0  0  0  0  0  0  0  0  0  0 
    1.8918   -4.1476   -1.8055 N   0  0  0  0  0  0  0  0  0  0  0  0 
    3.3295   -2.0823   -0.8474 O   0  0  0  0  0  0  0  0  0  0  0  0 
    2.5182   -0.9876    0.9681 O   0  0  0  0  0  0  0  0  0  0  0  0 
    6.5190    2.3815    1.5045 H   0  0  0  0  0  0  0  0  0  0  0  0 
    4.1720    3.1983    1.3587 H   0  0  0  0  0  0  0  0  0  0  0  0 
    6.9871   -0.0558    1.3582 H   0  0  0  0  0  0  0  0  0  0  0  0 
   -1.6602   -2.9555    1.9265 H   0  0  0  0  0  0  0  0  0  0  0  0 
   -2.0916   -4.7831    0.2757 H   0  0  0  0  0  0  0  0  0  0  0  0 
    2.3068    1.5641    1.0600 H   0  0  0  0  0  0  0  0  0  0  0  0 
    5.1228   -1.6713    1.0642 H   0  0  0  0  0  0  0  0  0  0  0  0 
    0.4523   -1.6676    1.7745 H   0  0  0  0  0  0  0  0  0  0  0  0 
   -0.4304   -5.3126   -1.4610 H   0  0  0  0  0  0  0  0  0  0  0  0 
    1.5892   -4.7325   -2.5695 H   0  0  0  0  0  0  0  0  0  0  0  0 
    2.6777   -3.5252   -1.9499 H   0  0  0  0  0  0  0  0  0  0  0  0 
  1 17  1  0  0  0  0 
  2 18  1  0  0  0  0 
  2  1  2  0  0  0  0 
  3 19  1  0  0  0  0 
  3  1  1  0  0  0  0 
  4 20  1  0  0  0  0 
  5 21  1  0  0  0  0 
  5  4  2  0  0  0  0 
  6  2  1  0  0  0  0 
  7  3  2  0  0  0  0 
  8  4  1  0  0  0  0 
  8 24  1  0  0  0  0 
  9  5  1  0  0  0  0 
 10  6  2  0  0  0  0 
 10  7  1  0  0  0  0 
 11  8  2  0  0  0  0 
 12  9  2  0  0  0  0 
 12 11  1  0  0  0  0 
 13 11  1  0  0  0  0 
 13 16  1  0  0  0  0 
 14 12  1  0  0  0  0 
 15 13  2  0  0  0  0 
 16 10  1  0  0  0  0 
 22  6  1  0  0  0  0 
 23  7  1  0  0  0  0 
 25  9  1  0  0  0  0 
 26 14  1  0  0  0  0 
 27 14  1  0  0  0  0 
M  END 
>  <HBA> 
3 
 
>  <HBD> 
1 
 
>  <TPSA> 
52.32 
 
>  <cid> 
66300 
 
>  <dipole> 
1.11 
 
>  <excitation_energy_1> 
3.828 
 
>  <excitation_energy_2> 
4.591 
 
>  <excitation_energy_3> 
4.843 
 
>  <excitation_energy_4> 
4.981 
 
>  <homo_energy> 
-5.567 
 
>  <homo_lumo_gap> 
4.419 
 
>  <logP> 
3.069 
 
>  <lumo_energy> 
-1.148 
 
>  <melting_point> 
120.7 
 
>  <molecular_refractivity> 
62.25 
 
>  <oscillator_strength_1> 
0.1575 
 
>  <oscillator_strength_2> 
0.0793 
 
>  <oscillator_strength_3> 
0.001 
 
>  <oscillator_strength_4> 
0.0008 
 
>  <open_babel_can_smiles> 
O=C(c1ccccc1N)Oc1ccccc1 
 
>  <mulliken_charges> 
27 
1   -0.122709 
2   -0.140781 
3   -0.145014 
4   -0.145797 
5   -0.123009 
6   -0.161915 
7   -0.133767 
8   -0.173992 
9   -0.181911 
10   0.352461 
11   0.004521 
12   0.319895 
13   0.606846 
14   -0.82308 
15   -0.517298 
16   -0.546308 
17   0.130516 
18   0.134215 
19   0.135229 
20   0.127803 
21   0.133243 
22   0.140489 
23   0.150485 
24   0.157344 
25   0.121471 
26   0.325811 
27   0.375251 
 
>  <lowdin_charges> 
27 
1   -0.163945 
2   -0.1488 
3   -0.148493 
4   -0.196869 
5   -0.125468 
6   -0.170577 
7   -0.162414 
8   -0.126419 
9   -0.205113 
10   0.103783 
11   -0.10071 
12   0.092983 
13   0.214894 
14   -0.466994 
15   -0.284053 
16   -0.161286 
17   0.159967 
18   0.158601 
19   0.159759 
20   0.15945 
21   0.160086 
22   0.166214 
23   0.171151 
24   0.17312 
25   0.155271 
26   0.282159 
27   0.303704 
 
$$$$ 
 
