PCCDB-ID:  29707 
public computational chemistry database (PCCDB) project, http://pccdb.org 
 
 33 33  0  0  0  0  0  0  0  0999 V2000 
    0.9267    0.2849   -0.4222 C   0  0  0  0  0  0  0  0  0  0  0  0 
    3.1079   -4.7004    0.3263 C   0  0  0  0  0  0  0  0  0  0  0  0 
    3.1722   -3.2498    2.2555 C   0  0  0  0  0  0  0  0  0  0  0  0 
    3.3605   -5.7979    1.1343 C   0  0  0  0  0  0  0  0  0  0  0  0 
    3.4251   -4.3436    3.0711 C   0  0  0  0  0  0  0  0  0  0  0  0 
    0.6489    1.5516   -1.2463 C   0  0  0  0  0  0  0  0  0  0  0  0 
    2.4222    0.0763   -0.2051 C   0  0  0  0  0  0  0  0  0  0  0  0 
    3.0107   -3.4104    0.8704 C   0  0  0  0  0  0  0  0  0  0  0  0 
    3.5239   -5.6378    2.5245 C   0  0  0  0  0  0  0  0  0  0  0  0 
    2.7439   -2.2790   -0.0468 C   0  0  0  0  0  0  0  0  0  0  0  0 
   -1.5630    2.3193   -0.4865 C   0  0  0  0  0  0  0  0  0  0  0  0 
    3.7255   -6.7398    3.3450 N   0  0  0  0  0  0  0  0  0  0  0  0 
   -1.0533    2.7064    0.6269 N   0  0  0  0  0  0  0  0  0  0  0  0 
   -2.9212    2.3284   -0.8502 N   0  0  0  0  0  0  0  0  0  0  0  0 
   -0.7666    1.8012   -1.5008 N   0  0  0  0  0  0  0  0  0  0  0  0 
    2.5974   -2.3874   -1.2522 O   0  0  0  0  0  0  0  0  0  0  0  0 
    2.6840   -1.0893    0.6051 O   0  0  0  0  0  0  0  0  0  0  0  0 
    0.5222   -0.5921   -0.9421 H   0  0  0  0  0  0  0  0  0  0  0  0 
    0.4232    0.3735    0.5455 H   0  0  0  0  0  0  0  0  0  0  0  0 
    2.9838   -4.8206   -0.7451 H   0  0  0  0  0  0  0  0  0  0  0  0 
    3.0994   -2.2586    2.6890 H   0  0  0  0  0  0  0  0  0  0  0  0 
    3.4305   -6.7921    0.6986 H   0  0  0  0  0  0  0  0  0  0  0  0 
    3.5446   -4.2059    4.1435 H   0  0  0  0  0  0  0  0  0  0  0  0 
    1.1521    1.4898   -2.2196 H   0  0  0  0  0  0  0  0  0  0  0  0 
    1.0350    2.4305   -0.7235 H   0  0  0  0  0  0  0  0  0  0  0  0 
    2.8576    0.9056    0.3596 H   0  0  0  0  0  0  0  0  0  0  0  0 
    2.9497   -0.0310   -1.1574 H   0  0  0  0  0  0  0  0  0  0  0  0 
    4.1052   -7.5637    2.8975 H   0  0  0  0  0  0  0  0  0  0  0  0 
    4.1518   -6.5539    4.2433 H   0  0  0  0  0  0  0  0  0  0  0  0 
   -1.7535    3.1718    1.2065 H   0  0  0  0  0  0  0  0  0  0  0  0 
   -3.5053    2.8594   -0.2155 H   0  0  0  0  0  0  0  0  0  0  0  0 
   -3.0852    2.6018   -1.8141 H   0  0  0  0  0  0  0  0  0  0  0  0 
   -1.2267    1.0750   -2.0388 H   0  0  0  0  0  0  0  0  0  0  0  0 
  1  7  1  0  0  0  0 
  1 19  1  0  0  0  0 
  2  8  2  0  0  0  0 
  2  4  1  0  0  0  0 
  3 21  1  0  0  0  0 
  3  5  2  0  0  0  0 
  4  9  2  0  0  0  0 
  5 23  1  0  0  0  0 
  6 25  1  0  0  0  0 
  6  1  1  0  0  0  0 
  7 26  1  0  0  0  0 
  7 17  1  0  0  0  0 
  8  3  1  0  0  0  0 
  9  5  1  0  0  0  0 
  9 12  1  0  0  0  0 
 10 17  1  0  0  0  0 
 10  8  1  0  0  0  0 
 11 13  1  0  0  0  0 
 12 29  1  0  0  0  0 
 13 30  1  0  0  0  0 
 14 11  2  0  0  0  0 
 14 31  1  0  0  0  0 
 15  6  1  0  0  0  0 
 15 11  1  0  0  0  0 
 16 10  2  0  0  0  0 
 18  1  1  0  0  0  0 
 20  2  1  0  0  0  0 
 22  4  1  0  0  0  0 
 24  6  1  0  0  0  0 
 27  7  1  0  0  0  0 
 28 12  1  0  0  0  0 
 32 14  1  0  0  0  0 
 33 15  1  0  0  0  0 
M  RAD  1  13   2 
M  END 
>  <HBA> 
6 
 
>  <HBD> 
3 
 
>  <TPSA> 
116.72 
 
>  <cid> 
29707 
 
>  <dipole> 
1.63 
 
>  <excitation_energy_1> 
4.667 
 
>  <excitation_energy_2> 
4.715 
 
>  <excitation_energy_3> 
4.91 
 
>  <excitation_energy_4> 
4.936 
 
>  <homo_energy> 
-5.663 
 
>  <homo_lumo_gap> 
5.034 
 
>  <logP> 
2.071 
 
>  <lumo_energy> 
-0.629 
 
>  <melting_point> 
203.79 
 
>  <molecular_refractivity> 
65.65 
 
>  <oscillator_strength_1> 
0.4703 
 
>  <oscillator_strength_2> 
0.0109 
 
>  <oscillator_strength_3> 
0.0015 
 
>  <oscillator_strength_4> 
0.0175 
 
>  <open_babel_can_smiles> 
[NH]C(=[NH2])NCCCOC(=O)c1ccc(cc1)N 
 
>  <mulliken_charges> 
33 
1   -0.287679 
2   -0.161894 
3   -0.167827 
4   -0.18301 
5   -0.181606 
6   -0.132245 
7   -0.042337 
8   0.045 
9   0.334061 
10   0.589472 
11   0.587553 
12   -0.79032 
13   -0.64838 
14   -0.756388 
15   -0.594455 
16   -0.509566 
17   -0.487221 
18   0.148482 
19   0.177312 
20   0.158417 
21   0.155589 
22   0.122152 
23   0.121449 
24   0.1393 
25   0.177809 
26   0.151489 
27   0.160749 
28   0.326637 
29   0.326488 
30   0.263343 
31   0.318222 
32   0.32208 
33   0.317325 
 
>  <lowdin_charges> 
33 
1   -0.301652 
2   -0.117494 
3   -0.126564 
4   -0.201808 
5   -0.200966 
6   -0.197431 
7   -0.131502 
8   -0.073653 
9   0.073865 
10   0.194316 
11   0.126122 
12   -0.475401 
13   -0.485223 
14   -0.513937 
15   -0.306383 
16   -0.289304 
17   -0.19534 
18   0.150741 
19   0.164717 
20   0.173561 
21   0.172055 
22   0.154383 
23   0.152802 
24   0.143738 
25   0.167492 
26   0.152993 
27   0.153717 
28   0.280634 
29   0.279672 
30   0.247654 
31   0.27648 
32   0.276644 
33   0.275069 
 
$$$$ 
 
