PCCDB-ID:  17712 
public computational chemistry database (PCCDB) project, http://pccdb.org 
 
 26 26  0  0  0  0  0  0  0  0999 V2000 
    3.4077    1.0319   -0.1481 C   0  0  0  0  0  0  0  0  0  0  0  0 
    5.2782   -2.7208   -0.7418 C   0  0  0  0  0  0  0  0  0  0  0  0 
    3.1721   -3.7667   -0.2829 C   0  0  0  0  0  0  0  0  0  0  0  0 
    4.7084   -1.4580   -0.5548 C   0  0  0  0  0  0  0  0  0  0  0  0 
    2.5859   -2.5222   -0.0915 C   0  0  0  0  0  0  0  0  0  0  0  0 
    5.1527   -5.2490   -0.8750 C   0  0  0  0  0  0  0  0  0  0  0  0 
    5.0670   -5.6620   -2.3523 C   0  0  0  0  0  0  0  0  0  0  0  0 
    4.5305   -3.8944   -0.6151 C   0  0  0  0  0  0  0  0  0  0  0  0 
    3.3516   -1.3555   -0.2293 C   0  0  0  0  0  0  0  0  0  0  0  0 
    5.4518   -7.3940   -3.9439 N   0  0  0  0  0  0  0  0  0  0  0  0 
    5.7479   -6.9435   -2.5639 N   0  0  0  0  0  0  0  0  0  0  0  0 
    2.6845   -0.1803   -0.0226 O   0  0  0  0  0  0  0  0  0  0  0  0 
    2.6924    1.8309    0.0560 H   0  0  0  0  0  0  0  0  0  0  0  0 
    3.8127    1.1592   -1.1611 H   0  0  0  0  0  0  0  0  0  0  0  0 
    4.2307    1.0910    0.5772 H   0  0  0  0  0  0  0  0  0  0  0  0 
    6.3361   -2.7861   -0.9884 H   0  0  0  0  0  0  0  0  0  0  0  0 
    2.5640   -4.6620   -0.1714 H   0  0  0  0  0  0  0  0  0  0  0  0 
    5.3274   -0.5740   -0.6576 H   0  0  0  0  0  0  0  0  0  0  0  0 
    1.5364   -2.4251    0.1688 H   0  0  0  0  0  0  0  0  0  0  0  0 
    6.2079   -5.2515   -0.5769 H   0  0  0  0  0  0  0  0  0  0  0  0 
    4.6508   -6.0107   -0.2618 H   0  0  0  0  0  0  0  0  0  0  0  0 
    5.5768   -4.9052   -2.9654 H   0  0  0  0  0  0  0  0  0  0  0  0 
    4.0159   -5.6869   -2.6870 H   0  0  0  0  0  0  0  0  0  0  0  0 
    6.0716   -8.1997   -4.0683 H   0  0  0  0  0  0  0  0  0  0  0  0 
    5.8968   -6.6805   -4.5290 H   0  0  0  0  0  0  0  0  0  0  0  0 
    5.2456   -7.6270   -1.9922 H   0  0  0  0  0  0  0  0  0  0  0  0 
  1 12  1  0  0  0  0 
  1 13  1  0  0  0  0 
  1 15  1  0  0  0  0 
  2  8  2  0  0  0  0 
  2  4  1  0  0  0  0 
  3 17  1  0  0  0  0 
  3  5  2  0  0  0  0 
  4  9  2  0  0  0  0 
  5 19  1  0  0  0  0 
  6  8  1  0  0  0  0 
  6 20  1  0  0  0  0 
  6 21  1  0  0  0  0 
  7  6  1  0  0  0  0 
  8  3  1  0  0  0  0 
  9  5  1  0  0  0  0 
  9 12  1  0  0  0  0 
 10 11  1  0  0  0  0 
 11  7  1  0  0  0  0 
 11 26  1  0  0  0  0 
 14  1  1  0  0  0  0 
 16  2  1  0  0  0  0 
 18  4  1  0  0  0  0 
 22  7  1  0  0  0  0 
 23  7  1  0  0  0  0 
 24 10  1  0  0  0  0 
 25 10  1  0  0  0  0 
M  END 
>  <HBA> 
3 
 
>  <HBD> 
2 
 
>  <TPSA> 
47.28 
 
>  <cid> 
17712 
 
>  <dipole> 
1.58 
 
>  <excitation_energy_1> 
4.759 
 
>  <excitation_energy_2> 
4.804 
 
>  <excitation_energy_3> 
4.944 
 
>  <excitation_energy_4> 
5.086 
 
>  <homo_energy> 
-5.279 
 
>  <homo_lumo_gap> 
5.353 
 
>  <logP> 
1.792 
 
>  <lumo_energy> 
0.073 
 
>  <melting_point> 
94.02 
 
>  <molecular_refractivity> 
48.22 
 
>  <oscillator_strength_1> 
0.0019 
 
>  <oscillator_strength_2> 
0.0066 
 
>  <oscillator_strength_3> 
0.0313 
 
>  <oscillator_strength_4> 
0.0036 
 
>  <open_babel_can_smiles> 
NNCCc1ccc(cc1)OC 
 
>  <mulliken_charges> 
26 
1   -0.213638 
2   -0.192312 
3   -0.183714 
4   -0.193904 
5   -0.170935 
6   -0.362813 
7   -0.107293 
8   0.169349 
9   0.372326 
10   -0.594549 
11   -0.470702 
12   -0.507523 
13   0.168614 
14   0.150539 
15   0.150532 
16   0.124483 
17   0.123651 
18   0.129209 
19   0.136397 
20   0.155114 
21   0.13604 
22   0.135979 
23   0.134891 
24   0.30339 
25   0.302243 
26   0.304627 
 
>  <lowdin_charges> 
26 
1   -0.278093 
2   -0.154981 
3   -0.1577 
4   -0.214658 
5   -0.179177 
6   -0.275204 
7   -0.208067 
8   -0.020101 
9   0.09916 
10   -0.498675 
11   -0.326266 
12   -0.20088 
13   0.163023 
14   0.14353 
15   0.144611 
16   0.153384 
17   0.155999 
18   0.161728 
19   0.164449 
20   0.153946 
21   0.14613 
22   0.139445 
23   0.128628 
24   0.253822 
25   0.253585 
26   0.252362 
 
$$$$ 
 
