PCCDB-ID:  36409 
public computational chemistry database (PCCDB) project, http://pccdb.org 
 
 18 18  0  0  0  0  0  0  0  0999 V2000 
    0.9220   -0.7514   -0.2180 C   0  0  0  0  0  0  0  0  0  0  0  0 
    1.3160    3.3783    2.9347 C   0  0  0  0  0  0  0  0  0  0  0  0 
    2.4178    2.9053    2.1684 C   0  0  0  0  0  0  0  0  0  0  0  0 
    0.2729    2.5480    2.6419 C   0  0  0  0  0  0  0  0  0  0  0  0 
    2.6861    0.9752    0.5376 C   0  0  0  0  0  0  0  0  0  0  0  0 
    2.2653   -0.0971   -0.1676 C   0  0  0  0  0  0  0  0  0  0  0  0 
    1.9741    1.8130    1.4549 C   0  0  0  0  0  0  0  0  0  0  0  0 
    3.2824   -0.7308   -1.0267 N   0  0  0  0  0  0  0  0  0  0  0  0 
    4.4274   -0.2699   -1.0605 O   0  0  0  0  0  0  0  0  0  0  0  0 
    2.9142   -1.7124   -1.6780 O   0  0  0  0  0  0  0  0  0  0  0  0 
    0.6490    1.5954    1.7507 O   0  0  0  0  0  0  0  0  0  0  0  0 
    0.2231   -0.2326    0.4362 H   0  0  0  0  0  0  0  0  0  0  0  0 
    0.9905   -1.8009    0.0878 H   0  0  0  0  0  0  0  0  0  0  0  0 
    0.5282   -0.7495   -1.2401 H   0  0  0  0  0  0  0  0  0  0  0  0 
    1.2978    4.2207    3.6114 H   0  0  0  0  0  0  0  0  0  0  0  0 
    3.4193    3.3117    2.1380 H   0  0  0  0  0  0  0  0  0  0  0  0 
   -0.7546    2.5017    2.9695 H   0  0  0  0  0  0  0  0  0  0  0  0 
    3.7254    1.2561    0.3974 H   0  0  0  0  0  0  0  0  0  0  0  0 
  1  6  1  0  0  0  0 
  1 13  1  0  0  0  0 
  1 12  1  0  0  0  0 
  2 15  1  0  0  0  0 
  3  2  1  0  0  0  0 
  4  2  2  0  0  0  0 
  4 17  1  0  0  0  0 
  5  7  1  0  0  0  0 
  6  5  2  0  0  0  0 
  7 11  1  0  0  0  0 
  7  3  2  0  0  0  0 
  8  6  1  0  0  0  0 
  9  8  2  0  0  0  0 
 10  8  2  0  0  0  0 
 11  4  1  0  0  0  0 
 14  1  1  0  0  0  0 
 16  3  1  0  0  0  0 
 18  5  1  0  0  0  0 
M  END 
>  <HBA> 
1 
 
>  <HBD> 
0 
 
>  <TPSA> 
58.96 
 
>  <cid> 
36409 
 
>  <dipole> 
5.98 
 
>  <excitation_energy_1> 
3.549 
 
>  <excitation_energy_2> 
3.669 
 
>  <excitation_energy_3> 
4.144 
 
>  <excitation_energy_4> 
5.067 
 
>  <homo_energy> 
-6.343 
 
>  <homo_lumo_gap> 
3.891 
 
>  <logP> 
2.44 
 
>  <lumo_energy> 
-2.452 
 
>  <melting_point> 
59.58 
 
>  <molecular_refractivity> 
41.71 
 
>  <oscillator_strength_1> 
0.0 
 
>  <oscillator_strength_2> 
0.5323 
 
>  <oscillator_strength_3> 
0.0003 
 
>  <oscillator_strength_4> 
0.0172 
 
>  <open_babel_can_smiles> 
O=N(=O)/C(=C/c1ccco1)/C 
 
>  <mulliken_charges> 
18 
1   -0.52149 
2   -0.184969 
3   -0.182003 
4   0.104718 
5   -0.234003 
6   0.265139 
7   0.356808 
8   0.41823 
9   -0.414482 
10   -0.398943 
11   -0.450255 
12   0.183037 
13   0.183165 
14   0.183223 
15   0.158283 
16   0.162789 
17   0.171416 
18   0.199336 
 
>  <lowdin_charges> 
18 
1   -0.448388 
2   -0.197441 
3   -0.175932 
4   -0.053597 
5   -0.140384 
6   0.00329 
7   0.066361 
8   0.300721 
9   -0.267394 
10   -0.254068 
11   -0.091018 
12   0.175571 
13   0.174606 
14   0.175018 
15   0.177908 
16   0.17848 
17   0.177715 
18   0.198552 
 
$$$$ 
 
