PCCDB-ID:  35863 
public computational chemistry database (PCCDB) project, http://pccdb.org 
 
 28 28  0  0  1  0  0  0  0  0999 V2000 
    2.9660    2.0187   -0.3634 C   0  0  0  0  0  0  0  0  0  0  0  0 
    5.0301   -7.1591    5.8281 C   0  0  0  0  0  0  0  0  0  0  0  0 
    4.7417   -0.7990    2.2438 C   0  0  0  0  0  0  0  0  0  0  0  0 
    2.5599   -1.1893    3.1943 C   0  0  0  0  0  0  0  0  0  0  0  0 
    4.2039    0.1315    1.3590 C   0  0  0  0  0  0  0  0  0  0  0  0 
    2.0116   -0.2604    2.3238 C   0  0  0  0  0  0  0  0  0  0  0  0 
    3.5893   -4.5725    6.7724 C   0  0  0  0  0  0  0  0  0  0  0  0 
    3.9357   -1.4806    3.1627 C   0  0  0  0  0  0  0  0  0  0  0  0 
    2.8287    0.4041    1.3940 C   0  0  0  0  0  0  0  0  0  0  0  0 
    4.3338   -4.4163    5.5151 C   0  0  2  0  0  0  0  0  0  0  0  0 
    4.6038   -2.4610    4.0653 C   0  0  0  0  0  0  0  0  0  0  0  0 
    3.0080   -4.7394    7.7638 N   0  0  0  0  0  0  0  0  0  0  0  0 
    3.7725   -3.3784    4.6943 N   0  0  0  0  0  0  0  0  0  0  0  0 
    5.8136   -2.4689    4.2595 O   0  0  0  0  0  0  0  0  0  0  0  0 
    2.1947    1.2911    0.5842 O   0  0  0  0  0  0  0  0  0  0  0  0 
    4.3530   -6.0244    4.5644 S   0  0  0  0  0  0  0  0  0  0  0  0 
    2.2606    2.6684   -0.8836 H   0  0  0  0  0  0  0  0  0  0  0  0 
    3.4464    1.3492   -1.0882 H   0  0  0  0  0  0  0  0  0  0  0  0 
    3.7313    2.6317    0.1289 H   0  0  0  0  0  0  0  0  0  0  0  0 
    5.0455   -8.1501    5.3670 H   0  0  0  0  0  0  0  0  0  0  0  0 
    4.3917   -7.1893    6.7149 H   0  0  0  0  0  0  0  0  0  0  0  0 
    6.0513   -6.8823    6.1047 H   0  0  0  0  0  0  0  0  0  0  0  0 
    5.8052   -1.0136    2.2335 H   0  0  0  0  0  0  0  0  0  0  0  0 
    1.9084   -1.6571    3.9275 H   0  0  0  0  0  0  0  0  0  0  0  0 
    4.8557    0.6359    0.6553 H   0  0  0  0  0  0  0  0  0  0  0  0 
    0.9538   -0.0194    2.3489 H   0  0  0  0  0  0  0  0  0  0  0  0 
    5.3658   -4.1188    5.7245 H   0  0  0  0  0  0  0  0  0  0  0  0 
    2.8232   -3.5021    4.3700 H   0  0  0  0  0  0  0  0  0  0  0  0 
  1 19  1  0  0  0  0 
  1 15  1  0  0  0  0 
  2 22  1  0  0  0  0 
  2 21  1  0  0  0  0 
  3  8  2  0  0  0  0 
  4 24  1  0  0  0  0 
  5  9  2  0  0  0  0 
  5  3  1  0  0  0  0 
  6 26  1  0  0  0  0 
  6  4  2  0  0  0  0 
  7 12  3  0  0  0  0 
  8  4  1  0  0  0  0 
  8 11  1  0  0  0  0 
  9  6  1  0  0  0  0 
 10 27  1  1  0  0  0 
 10  7  1  0  0  0  0 
 11 14  2  0  0  0  0 
 11 13  1  0  0  0  0 
 13 10  1  0  0  0  0 
 15  9  1  0  0  0  0 
 16 10  1  0  0  0  0 
 16  2  1  0  0  0  0 
 17  1  1  0  0  0  0 
 18  1  1  0  0  0  0 
 20  2  1  0  0  0  0 
 23  3  1  0  0  0  0 
 25  5  1  0  0  0  0 
 28 13  1  0  0  0  0 
M  END 
>  <HBA> 
5 
 
>  <HBD> 
1 
 
>  <TPSA> 
87.42 
 
>  <cid> 
35863 
 
>  <dipole> 
4.44 
 
>  <excitation_energy_1> 
4.529 
 
>  <excitation_energy_2> 
4.761 
 
>  <excitation_energy_3> 
4.857 
 
>  <excitation_energy_4> 
4.896 
 
>  <homo_energy> 
-6.43 
 
>  <homo_lumo_gap> 
5.274 
 
>  <logP> 
2.029 
 
>  <lumo_energy> 
-1.156 
 
>  <melting_point> 
113.04 
 
>  <molecular_refractivity> 
62.88 
 
>  <oscillator_strength_1> 
0.0009 
 
>  <oscillator_strength_2> 
0.2167 
 
>  <oscillator_strength_3> 
0.1158 
 
>  <oscillator_strength_4> 
0.0625 
 
>  <open_babel_can_smiles> 
CS[C@@H](NC(=O)c1ccc(cc1)OC)C#N 
 
>  <mulliken_charges> 
28 
1   -0.220815 
2   -0.609497 
3   -0.163281 
4   -0.186268 
5   -0.200254 
6   -0.1765 
7   0.393168 
8   0.068208 
9   0.388432 
10   -0.180661 
11   0.575535 
12   -0.471356 
13   -0.621282 
14   -0.51158 
15   -0.500667 
16   0.131156 
17   0.177018 
18   0.158778 
19   0.159712 
20   0.193774 
21   0.207079 
22   0.189234 
23   0.1695 
24   0.138107 
25   0.14268 
26   0.148953 
27   0.253604 
28   0.347225 
 
>  <lowdin_charges> 
28 
1   -0.281815 
2   -0.547998 
3   -0.113549 
4   -0.148608 
5   -0.21139 
6   -0.178104 
7   -0.025546 
8   -0.06496 
9   0.115568 
10   -0.14953 
11   0.17241 
12   -0.113159 
13   -0.267406 
14   -0.293092 
15   -0.186878 
16   0.114917 
17   0.168536 
18   0.15075 
19   0.151173 
20   0.183457 
21   0.177686 
22   0.1679 
23   0.178467 
24   0.161858 
25   0.168904 
26   0.170511 
27   0.207685 
28   0.292212 
 
$$$$ 
 
