PCCDB-ID:  11387 
public computational chemistry database (PCCDB) project, http://pccdb.org 
 
 24 25  0  0  0  0  0  0  0  0999 V2000 
    0.7550    0.1007    0.0269 C   0  0  0  0  0  0  0  0  0  0  0  0 
    8.7501   -1.0936   -0.2000 C   0  0  0  0  0  0  0  0  0  0  0  0 
    2.9867    1.3108   -0.0217 C   0  0  0  0  0  0  0  0  0  0  0  0 
    6.5183   -2.3038   -0.1547 C   0  0  0  0  0  0  0  0  0  0  0  0 
    4.3610    1.3309   -0.0580 C   0  0  0  0  0  0  0  0  0  0  0  0 
    5.1439   -2.3239   -0.1190 C   0  0  0  0  0  0  0  0  0  0  0  0 
    2.9761   -1.0973   -0.0478 C   0  0  0  0  0  0  0  0  0  0  0  0 
    6.5289    0.1043   -0.1285 C   0  0  0  0  0  0  0  0  0  0  0  0 
    2.2643    0.0844   -0.0160 C   0  0  0  0  0  0  0  0  0  0  0  0 
    7.2407   -1.0774   -0.1600 C   0  0  0  0  0  0  0  0  0  0  0  0 
    4.3959   -1.1163   -0.0858 C   0  0  0  0  0  0  0  0  0  0  0  0 
    5.1092    0.1233   -0.0908 C   0  0  0  0  0  0  0  0  0  0  0  0 
    0.3358    0.6368   -0.8342 H   0  0  0  0  0  0  0  0  0  0  0  0 
    0.3864    0.6076    0.9281 H   0  0  0  0  0  0  0  0  0  0  0  0 
    0.3438   -0.9135    0.0221 H   0  0  0  0  0  0  0  0  0  0  0  0 
    9.1208   -1.6045   -1.0980 H   0  0  0  0  0  0  0  0  0  0  0  0 
    9.1675   -1.6255    0.6646 H   0  0  0  0  0  0  0  0  0  0  0  0 
    9.1610   -0.0792   -0.1993 H   0  0  0  0  0  0  0  0  0  0  0  0 
    2.4338    2.2476    0.0013 H   0  0  0  0  0  0  0  0  0  0  0  0 
    7.0712   -3.2405   -0.1789 H   0  0  0  0  0  0  0  0  0  0  0  0 
    4.8949    2.2787   -0.0626 H   0  0  0  0  0  0  0  0  0  0  0  0 
    4.6100   -3.2717   -0.1150 H   0  0  0  0  0  0  0  0  0  0  0  0 
    2.4458   -2.0480   -0.0443 H   0  0  0  0  0  0  0  0  0  0  0  0 
    7.0592    1.0550   -0.1327 H   0  0  0  0  0  0  0  0  0  0  0  0 
  1 14  1  0  0  0  0 
  2 18  1  0  0  0  0 
  2 10  1  0  0  0  0 
  2 17  1  0  0  0  0 
  3  9  1  0  0  0  0 
  3 19  1  0  0  0  0 
  4  6  1  0  0  0  0 
  5  3  2  0  0  0  0 
  6 22  1  0  0  0  0 
  6 11  2  0  0  0  0 
  7 23  1  0  0  0  0 
  7  9  2  0  0  0  0 
  8 12  2  0  0  0  0 
  9  1  1  0  0  0  0 
 10  4  2  0  0  0  0 
 10  8  1  0  0  0  0 
 11  7  1  0  0  0  0 
 12 11  1  0  0  0  0 
 12  5  1  0  0  0  0 
 13  1  1  0  0  0  0 
 15  1  1  0  0  0  0 
 16  2  1  0  0  0  0 
 20  4  1  0  0  0  0 
 21  5  1  0  0  0  0 
 24  8  1  0  0  0  0 
M  END 
>  <HBA> 
0 
 
>  <HBD> 
0 
 
>  <TPSA> 
0.0 
 
>  <cid> 
11387 
 
>  <dipole> 
0.0 
 
>  <excitation_energy_1> 
4.26 
 
>  <excitation_energy_2> 
4.467 
 
>  <excitation_energy_3> 
5.381 
 
>  <excitation_energy_4> 
5.435 
 
>  <homo_energy> 
-5.606 
 
>  <homo_lumo_gap> 
4.83 
 
>  <logP> 
3.457 
 
>  <lumo_energy> 
-0.776 
 
>  <melting_point> 
57.33 
 
>  <molecular_refractivity> 
53.88 
 
>  <oscillator_strength_1> 
0.0243 
 
>  <oscillator_strength_2> 
0.0248 
 
>  <oscillator_strength_3> 
0.0016 
 
>  <oscillator_strength_4> 
0.0 
 
>  <open_babel_can_smiles> 
Cc1ccc2c(c1)ccc(c2)C 
 
>  <mulliken_charges> 
24 
1   -0.532075 
2   -0.532077 
3   -0.181551 
4   -0.181582 
5   -0.192031 
6   -0.191966 
7   -0.263377 
8   -0.26333 
9   0.181631 
10   0.18163 
11   0.143703 
12   0.143729 
13   0.160606 
14   0.160858 
15   0.155349 
16   0.160739 
17   0.160721 
18   0.155348 
19   0.120801 
20   0.120803 
21   0.1267 
22   0.126704 
23   0.119333 
24   0.119335 
 
>  <lowdin_charges> 
24 
1   -0.441986 
2   -0.44199 
3   -0.166507 
4   -0.166507 
5   -0.156519 
6   -0.156515 
7   -0.172047 
8   -0.172046 
9   -0.001672 
10   -0.001671 
11   -0.001881 
12   -0.001882 
13   0.160244 
14   0.160078 
15   0.156087 
16   0.160039 
17   0.160285 
18   0.156083 
19   0.154989 
20   0.154991 
21   0.156259 
22   0.156262 
23   0.15295 
24   0.152953 
 
$$$$ 
 
