PCCDB-ID:  15505 
public computational chemistry database (PCCDB) project, http://pccdb.org 
 
 27 27  0  0  0  0  0  0  0  0999 V2000 
    0.9236   -1.3291    0.5742 C   0  0  0  0  0  0  0  0  0  0  0  0 
    2.4479   -1.4724    0.6443 C   0  0  0  0  0  0  0  0  0  0  0  0 
    5.6244   -0.7575    4.5104 C   0  0  0  0  0  0  0  0  0  0  0  0 
    5.0326   -1.9722    3.7786 C   0  0  0  0  0  0  0  0  0  0  0  0 
    5.0496    0.5596    3.9663 C   0  0  0  0  0  0  0  0  0  0  0  0 
    3.0937   -0.4995    1.6417 C   0  0  0  0  0  0  0  0  0  0  0  0 
    5.2111   -1.8559    2.2552 C   0  0  0  0  0  0  0  0  0  0  0  0 
    5.2342    0.6612    2.4430 C   0  0  0  0  0  0  0  0  0  0  0  0 
    4.6375   -0.5413    1.6758 C   0  0  0  0  0  0  0  0  0  0  0  0 
    0.4881   -2.0280   -0.1492 H   0  0  0  0  0  0  0  0  0  0  0  0 
    0.6344   -0.3145    0.2735 H   0  0  0  0  0  0  0  0  0  0  0  0 
    0.4611   -1.5282    1.5490 H   0  0  0  0  0  0  0  0  0  0  0  0 
    2.8770   -1.3033   -0.3537 H   0  0  0  0  0  0  0  0  0  0  0  0 
    2.6986   -2.5074    0.9117 H   0  0  0  0  0  0  0  0  0  0  0  0 
    6.7168   -0.7548    4.3763 H   0  0  0  0  0  0  0  0  0  0  0  0 
    5.4428   -0.8365    5.5901 H   0  0  0  0  0  0  0  0  0  0  0  0 
    3.9650   -2.0592    4.0252 H   0  0  0  0  0  0  0  0  0  0  0  0 
    5.5045   -2.8966    4.1362 H   0  0  0  0  0  0  0  0  0  0  0  0 
    5.5323    1.4148    4.4568 H   0  0  0  0  0  0  0  0  0  0  0  0 
    3.9819    0.6229    4.2194 H   0  0  0  0  0  0  0  0  0  0  0  0 
    2.6797   -0.6880    2.6419 H   0  0  0  0  0  0  0  0  0  0  0  0 
    2.7829    0.5229    1.3792 H   0  0  0  0  0  0  0  0  0  0  0  0 
    4.7646   -2.7245    1.7556 H   0  0  0  0  0  0  0  0  0  0  0  0 
    6.2863   -1.8934    2.0255 H   0  0  0  0  0  0  0  0  0  0  0  0 
    6.3113    0.7151    2.2256 H   0  0  0  0  0  0  0  0  0  0  0  0 
    4.7959    1.5963    2.0690 H   0  0  0  0  0  0  0  0  0  0  0  0 
    4.9764   -0.4638    0.6315 H   0  0  0  0  0  0  0  0  0  0  0  0 
  1  2  1  0  0  0  0 
  1 12  1  0  0  0  0 
  2 14  1  0  0  0  0 
  2  6  1  0  0  0  0 
  3 16  1  0  0  0  0 
  4 17  1  0  0  0  0 
  4 18  1  0  0  0  0 
  4  3  1  0  0  0  0 
  5 20  1  0  0  0  0 
  5 19  1  0  0  0  0 
  5  3  1  0  0  0  0 
  6  9  1  0  0  0  0 
  6 21  1  0  0  0  0 
  7  4  1  0  0  0  0 
  8  5  1  0  0  0  0 
  9  7  1  0  0  0  0 
  9  8  1  0  0  0  0 
 10  1  1  0  0  0  0 
 11  1  1  0  0  0  0 
 13  2  1  0  0  0  0 
 15  3  1  0  0  0  0 
 22  6  1  0  0  0  0 
 23  7  1  0  0  0  0 
 24  7  1  0  0  0  0 
 25  8  1  0  0  0  0 
 26  8  1  0  0  0  0 
 27  9  1  0  0  0  0 
M  END 
>  <HBA> 
0 
 
>  <HBD> 
0 
 
>  <TPSA> 
0.0 
 
>  <cid> 
15505 
 
>  <dipole> 
0.04 
 
>  <excitation_energy_1> 
7.21 
 
>  <excitation_energy_2> 
7.3 
 
>  <excitation_energy_3> 
7.526 
 
>  <excitation_energy_4> 
7.539 
 
>  <homo_energy> 
-7.744 
 
>  <homo_lumo_gap> 
9.902 
 
>  <logP> 
3.367 
 
>  <lumo_energy> 
2.158 
 
>  <melting_point> 
-5.98 
 
>  <molecular_refractivity> 
43.26 
 
>  <oscillator_strength_1> 
0.0009 
 
>  <oscillator_strength_2> 
0.0003 
 
>  <oscillator_strength_3> 
0.0184 
 
>  <oscillator_strength_4> 
0.0028 
 
>  <open_babel_can_smiles> 
CCCC1CCCCC1 
 
>  <mulliken_charges> 
27 
1   -0.44175 
2   -0.25338 
3   -0.253749 
4   -0.260008 
5   -0.25944 
6   -0.253323 
7   -0.267536 
8   -0.265303 
9   -0.073068 
10   0.140837 
11   0.140819 
12   0.14061 
13   0.129229 
14   0.13467 
15   0.125247 
16   0.127335 
17   0.130292 
18   0.128454 
19   0.12826 
20   0.131144 
21   0.129714 
22   0.123656 
23   0.130816 
24   0.124861 
25   0.123824 
26   0.125009 
27   0.11278 
 
>  <lowdin_charges> 
27 
1   -0.444558 
2   -0.271868 
3   -0.273442 
4   -0.278814 
5   -0.279431 
6   -0.278811 
7   -0.28067 
8   -0.277492 
9   -0.127757 
10   0.149859 
11   0.145026 
12   0.145588 
13   0.13748 
14   0.13851 
15   0.133871 
16   0.139744 
17   0.135765 
18   0.143003 
19   0.143363 
20   0.136466 
21   0.136982 
22   0.137552 
23   0.1426 
24   0.136744 
25   0.135735 
26   0.140169 
27   0.134385 
 
$$$$ 
 
