PCCDB-ID:  35206 
public computational chemistry database (PCCDB) project, http://pccdb.org 
 
 31 32  0  0  0  0  0  0  0  0999 V2000 
    3.2186   -0.2438    1.3285 C   0  0  0  0  0  0  0  0  0  0  0  0 
    6.6125    2.6597   -2.2750 C   0  0  0  0  0  0  0  0  0  0  0  0 
    2.3886    0.1482    0.0919 C   0  0  0  0  0  0  0  0  0  0  0  0 
    5.2077    2.7696   -2.8965 C   0  0  0  0  0  0  0  0  0  0  0  0 
    1.0537    7.3581    1.1921 C   0  0  0  0  0  0  0  0  0  0  0  0 
    0.6226    6.1172    1.6684 C   0  0  0  0  0  0  0  0  0  0  0  0 
    2.0281    7.4201    0.1927 C   0  0  0  0  0  0  0  0  0  0  0  0 
    1.1612    4.9429    1.1486 C   0  0  0  0  0  0  0  0  0  0  0  0 
    2.5697    6.2483   -0.3299 C   0  0  0  0  0  0  0  0  0  0  0  0 
    2.1407    4.9984    0.1443 C   0  0  0  0  0  0  0  0  0  0  0  0 
    2.8220    1.4825   -0.4568 C   0  0  0  0  0  0  0  0  0  0  0  0 
    4.1340    2.7045   -1.8420 C   0  0  0  0  0  0  0  0  0  0  0  0 
    2.7153    3.7505   -0.4103 C   0  0  0  0  0  0  0  0  0  0  0  0 
    3.7586    1.4872   -1.4170 N   0  0  0  0  0  0  0  0  0  0  0  0 
    2.2717    2.5799    0.0776 N   0  0  0  0  0  0  0  0  0  0  0  0 
    3.6482    3.8592   -1.3731 N   0  0  0  0  0  0  0  0  0  0  0  0 
    2.8879   -1.2117    1.7199 H   0  0  0  0  0  0  0  0  0  0  0  0 
    3.1084    0.5024    2.1224 H   0  0  0  0  0  0  0  0  0  0  0  0 
    4.2813   -0.3231    1.0752 H   0  0  0  0  0  0  0  0  0  0  0  0 
    7.3798    2.6976   -3.0555 H   0  0  0  0  0  0  0  0  0  0  0  0 
    6.7223    1.7154   -1.7317 H   0  0  0  0  0  0  0  0  0  0  0  0 
    6.7963    3.4829   -1.5760 H   0  0  0  0  0  0  0  0  0  0  0  0 
    1.3298    0.2095    0.3637 H   0  0  0  0  0  0  0  0  0  0  0  0 
    2.5097   -0.6061   -0.6915 H   0  0  0  0  0  0  0  0  0  0  0  0 
    5.0546    1.9447   -3.6002 H   0  0  0  0  0  0  0  0  0  0  0  0 
    5.1102    3.7163   -3.4362 H   0  0  0  0  0  0  0  0  0  0  0  0 
    0.6314    8.2737    1.5982 H   0  0  0  0  0  0  0  0  0  0  0  0 
   -0.1357    6.0653    2.4450 H   0  0  0  0  0  0  0  0  0  0  0  0 
    2.3661    8.3833   -0.1797 H   0  0  0  0  0  0  0  0  0  0  0  0 
    0.8367    3.9731    1.5088 H   0  0  0  0  0  0  0  0  0  0  0  0 
    3.3259    6.2809   -1.1062 H   0  0  0  0  0  0  0  0  0  0  0  0 
  1 17  1  0  0  0  0 
  1 18  1  0  0  0  0 
  2 21  1  0  0  0  0 
  2 22  1  0  0  0  0 
  3 23  1  0  0  0  0 
  3  1  1  0  0  0  0 
  4  2  1  0  0  0  0 
  4 12  1  0  0  0  0 
  5 27  1  0  0  0  0 
  5  6  1  0  0  0  0 
  6 28  1  0  0  0  0 
  7  5  2  0  0  0  0 
  8 30  1  0  0  0  0 
  8  6  2  0  0  0  0 
  9 10  2  0  0  0  0 
  9  7  1  0  0  0  0 
 10  8  1  0  0  0  0 
 11 15  1  0  0  0  0 
 11  3  1  0  0  0  0 
 12 14  2  0  0  0  0 
 12 16  1  0  0  0  0 
 13 15  2  0  0  0  0 
 13 10  1  0  0  0  0 
 14 11  2  0  0  0  0 
 16 13  1  0  0  0  0 
 19  1  1  0  0  0  0 
 20  2  1  0  0  0  0 
 24  3  1  0  0  0  0 
 25  4  1  0  0  0  0 
 26  4  1  0  0  0  0 
 29  7  1  0  0  0  0 
 31  9  1  0  0  0  0 
M  RAD  1  16   2 
M  END 
>  <HBA> 
3 
 
>  <HBD> 
0 
 
>  <TPSA> 
38.67 
 
>  <cid> 
35206 
 
>  <dipole> 
0.48 
 
>  <excitation_energy_1> 
4.116 
 
>  <excitation_energy_2> 
4.282 
 
>  <excitation_energy_3> 
4.486 
 
>  <excitation_energy_4> 
4.633 
 
>  <homo_energy> 
-6.678 
 
>  <homo_lumo_gap> 
5.053 
 
>  <logP> 
2.663 
 
>  <lumo_energy> 
-1.625 
 
>  <melting_point> 
95.45 
 
>  <molecular_refractivity> 
64.81 
 
>  <oscillator_strength_1> 
0.0 
 
>  <oscillator_strength_2> 
0.0035 
 
>  <oscillator_strength_3> 
0.0133 
 
>  <oscillator_strength_4> 
0.4876 
 
>  <open_babel_can_smiles> 
CCC1=[N]=C(CC)N=C([N]1)c1ccccc1 
 
>  <mulliken_charges> 
31 
1   -0.451235 
2   -0.45157 
3   -0.303973 
4   -0.304523 
5   -0.117183 
6   -0.137862 
7   -0.137904 
8   -0.159809 
9   -0.159591 
10   0.082138 
11   0.432113 
12   0.433571 
13   0.419543 
14   -0.465056 
15   -0.491047 
16   -0.492151 
17   0.152292 
18   0.160979 
19   0.158787 
20   0.152194 
21   0.162485 
22   0.157721 
23   0.1588 
24   0.160381 
25   0.160508 
26   0.15887 
27   0.133632 
28   0.133707 
29   0.133749 
30   0.160064 
31   0.16037 
 
>  <lowdin_charges> 
31 
1   -0.435691 
2   -0.438117 
3   -0.276574 
4   -0.279087 
5   -0.143597 
6   -0.156928 
7   -0.158237 
8   -0.138039 
9   -0.137023 
10   -0.027947 
11   0.117815 
12   0.118854 
13   0.115395 
14   -0.193062 
15   -0.187021 
16   -0.187166 
17   0.154627 
18   0.156643 
19   0.153546 
20   0.155322 
21   0.156825 
22   0.155077 
23   0.159557 
24   0.16224 
25   0.162935 
26   0.160409 
27   0.160065 
28   0.159757 
29   0.159548 
30   0.174732 
31   0.175141 
 
$$$$ 
 
