PCCDB-ID:  13563 
public computational chemistry database (PCCDB) project, http://pccdb.org 
 
 22 21  0  0  0  0  0  0  0  0999 V2000 
    0.7250    2.3155   -1.0658 C   0  0  0  0  0  0  0  0  0  0  0  0 
    4.5627    3.9173    1.6366 C   0  0  0  0  0  0  0  0  0  0  0  0 
    6.2465    3.6526   -0.0465 C   0  0  0  0  0  0  0  0  0  0  0  0 
    2.2405    2.5374   -1.0607 C   0  0  0  0  0  0  0  0  0  0  0  0 
    2.9539    1.7875    0.0710 C   0  0  0  0  0  0  0  0  0  0  0  0 
    4.4696    2.0260    0.1115 C   0  0  0  0  0  0  0  0  0  0  0  0 
    4.8483    3.4294    0.2940 N   0  0  0  0  0  0  0  0  0  0  0  0 
    0.2441    2.8587   -1.8875 H   0  0  0  0  0  0  0  0  0  0  0  0 
    0.2698    2.6611   -0.1291 H   0  0  0  0  0  0  0  0  0  0  0  0 
    0.4760    1.2527   -1.1794 H   0  0  0  0  0  0  0  0  0  0  0  0 
    4.8200    4.9802    1.7020 H   0  0  0  0  0  0  0  0  0  0  0  0 
    5.1303    3.3788    2.4228 H   0  0  0  0  0  0  0  0  0  0  0  0 
    3.4972    3.8195    1.8628 H   0  0  0  0  0  0  0  0  0  0  0  0 
    6.4808    4.7197    0.0390 H   0  0  0  0  0  0  0  0  0  0  0  0 
    6.4306    3.3465   -1.0821 H   0  0  0  0  0  0  0  0  0  0  0  0 
    6.9519    3.0979    0.6052 H   0  0  0  0  0  0  0  0  0  0  0  0 
    2.4659    3.6067   -0.9749 H   0  0  0  0  0  0  0  0  0  0  0  0 
    2.6617    2.2151   -2.0241 H   0  0  0  0  0  0  0  0  0  0  0  0 
    2.7910    0.7059   -0.0402 H   0  0  0  0  0  0  0  0  0  0  0  0 
    2.4995    2.0567    1.0344 H   0  0  0  0  0  0  0  0  0  0  0  0 
    4.8955    1.6975   -0.8454 H   0  0  0  0  0  0  0  0  0  0  0  0 
    4.9238    1.3824    0.8937 H   0  0  0  0  0  0  0  0  0  0  0  0 
  1  4  1  0  0  0  0 
  1  9  1  0  0  0  0 
  2 11  1  0  0  0  0 
  2 13  1  0  0  0  0 
  2 12  1  0  0  0  0 
  3 14  1  0  0  0  0 
  3  7  1  0  0  0  0 
  3 16  1  0  0  0  0 
  4 17  1  0  0  0  0 
  4  5  1  0  0  0  0 
  5  6  1  0  0  0  0 
  5 20  1  0  0  0  0 
  6  7  1  0  0  0  0 
  6 22  1  0  0  0  0 
  7  2  1  0  0  0  0 
  8  1  1  0  0  0  0 
 10  1  1  0  0  0  0 
 15  3  1  0  0  0  0 
 18  4  1  0  0  0  0 
 19  5  1  0  0  0  0 
 21  6  1  0  0  0  0 
M  END 
>  <HBA> 
1 
 
>  <HBD> 
0 
 
>  <TPSA> 
3.24 
 
>  <cid> 
13563 
 
>  <dipole> 
0.56 
 
>  <excitation_energy_1> 
5.282 
 
>  <excitation_energy_2> 
5.698 
 
>  <excitation_energy_3> 
5.754 
 
>  <excitation_energy_4> 
5.841 
 
>  <homo_energy> 
-5.63 
 
>  <homo_lumo_gap> 
7.894 
 
>  <logP> 
1.348 
 
>  <lumo_energy> 
2.264 
 
>  <melting_point> 
-23.93 
 
>  <molecular_refractivity> 
33.85 
 
>  <oscillator_strength_1> 
0.0309 
 
>  <oscillator_strength_2> 
0.0068 
 
>  <oscillator_strength_3> 
0.0078 
 
>  <oscillator_strength_4> 
0.0599 
 
>  <open_babel_can_smiles> 
CCCCN(C)C 
 
>  <mulliken_charges> 
22 
1   -0.44209 
2   -0.299952 
3   -0.292175 
4   -0.240041 
5   -0.263778 
6   -0.113914 
7   -0.360721 
8   0.140884 
9   0.13842 
10   0.137856 
11   0.147193 
12   0.114877 
13   0.152466 
14   0.145848 
15   0.147868 
16   0.114912 
17   0.152966 
18   0.124385 
19   0.128047 
20   0.130623 
21   0.130924 
22   0.105403 
 
>  <lowdin_charges> 
22 
1   -0.444705 
2   -0.356909 
3   -0.354319 
4   -0.272311 
5   -0.279511 
6   -0.200614 
7   -0.183186 
8   0.149698 
9   0.144756 
10   0.142578 
11   0.148073 
12   0.119942 
13   0.148993 
14   0.146791 
15   0.147821 
16   0.11998 
17   0.148241 
18   0.136984 
19   0.140656 
20   0.138142 
21   0.141828 
22   0.117072 
 
$$$$ 
 
