PCCDB-ID:  19332 
public computational chemistry database (PCCDB) project, http://pccdb.org 
 
 37 39  0  0  1  0  0  0  0  0999 V2000 
    3.0566    0.8135   -1.7635 C   0  0  0  0  0  0  0  0  0  0  0  0 
    2.6712    2.4034    0.1602 C   0  0  0  0  0  0  0  0  0  0  0  0 
    7.9038    1.6518    2.6904 C   0  0  0  0  0  0  0  0  0  0  0  0 
    8.3338    2.7521    0.4656 C   0  0  0  0  0  0  0  0  0  0  0  0 
    8.7634    0.2861    0.7591 C   0  0  0  0  0  0  0  0  0  0  0  0 
    5.9680    2.4361    1.2803 C   0  0  0  0  0  0  0  0  0  0  0  0 
    6.3926   -0.0132    1.5646 C   0  0  0  0  0  0  0  0  0  0  0  0 
    6.8338    1.0710   -0.6539 C   0  0  0  0  0  0  0  0  0  0  0  0 
    3.7224    1.6219   -0.6434 C   0  0  0  0  0  0  0  0  0  0  0  0 
    7.4203    2.7382    1.7082 C   0  0  1  0  0  0  0  0  0  0  0  0 
    7.8447    0.2746    1.9973 C   0  0  2  0  0  0  0  0  0  0  0  0 
    8.2862    1.3736   -0.2253 C   0  0  1  0  0  0  0  0  0  0  0  0 
    5.8836    1.0627    0.5758 C   0  0  2  0  0  0  0  0  0  0  0  0 
    4.4866    0.7234    0.2494 N   0  0  0  0  0  0  0  0  0  0  0  0 
    2.4381    1.4549   -2.4009 H   0  0  0  0  0  0  0  0  0  0  0  0 
    2.4048    0.0383   -1.3397 H   0  0  0  0  0  0  0  0  0  0  0  0 
    3.8033    0.3230   -2.3996 H   0  0  0  0  0  0  0  0  0  0  0  0 
    2.1255    3.1097   -0.4787 H   0  0  0  0  0  0  0  0  0  0  0  0 
    3.1376    2.9653    0.9748 H   0  0  0  0  0  0  0  0  0  0  0  0 
    1.9502    1.7098    0.6082 H   0  0  0  0  0  0  0  0  0  0  0  0 
    7.2716    1.6478    3.5887 H   0  0  0  0  0  0  0  0  0  0  0  0 
    8.9300    1.8673    3.0184 H   0  0  0  0  0  0  0  0  0  0  0  0 
    9.3653    2.9933    0.7577 H   0  0  0  0  0  0  0  0  0  0  0  0 
    8.0078    3.5355   -0.2330 H   0  0  0  0  0  0  0  0  0  0  0  0 
    8.7509   -0.6968    0.2674 H   0  0  0  0  0  0  0  0  0  0  0  0 
    9.8024    0.4780    1.0611 H   0  0  0  0  0  0  0  0  0  0  0  0 
    5.6121    3.2292    0.6095 H   0  0  0  0  0  0  0  0  0  0  0  0 
    5.3025    2.4296    2.1530 H   0  0  0  0  0  0  0  0  0  0  0  0 
    5.7241   -0.0365    2.4340 H   0  0  0  0  0  0  0  0  0  0  0  0 
    6.3329   -1.0033    1.0872 H   0  0  0  0  0  0  0  0  0  0  0  0 
    6.7859    0.0911   -1.1519 H   0  0  0  0  0  0  0  0  0  0  0  0 
    6.5012    1.8178   -1.3876 H   0  0  0  0  0  0  0  0  0  0  0  0 
    4.3982    2.3496   -1.1177 H   0  0  0  0  0  0  0  0  0  0  0  0 
    7.4507    3.7197    2.1999 H   0  0  0  0  0  0  0  0  0  0  0  0 
    8.1761   -0.5049    2.6963 H   0  0  0  0  0  0  0  0  0  0  0  0 
    8.9365    1.3807   -1.1103 H   0  0  0  0  0  0  0  0  0  0  0  0 
    4.4874   -0.2146   -0.1478 H   0  0  0  0  0  0  0  0  0  0  0  0 
  1 16  1  0  0  0  0 
  1  9  1  0  0  0  0 
  2 20  1  0  0  0  0 
  2 19  1  0  0  0  0 
  3 22  1  0  0  0  0 
  3 21  1  0  0  0  0 
  4 23  1  0  0  0  0 
  4 10  1  0  0  0  0 
  5 26  1  0  0  0  0 
  5 11  1  0  0  0  0 
  6 10  1  0  0  0  0 
  6 28  1  0  0  0  0 
  7 11  1  0  0  0  0 
  7 29  1  0  0  0  0 
  8 12  1  0  0  0  0 
  8 13  1  0  0  0  0 
  9  2  1  0  0  0  0 
  9 14  1  0  0  0  0 
 10 34  1  1  0  0  0 
 10  3  1  0  0  0  0 
 11  3  1  0  0  0  0 
 11 35  1  1  0  0  0 
 12 36  1  6  0  0  0 
 12  4  1  0  0  0  0 
 12  5  1  0  0  0  0 
 13 14  1  6  0  0  0 
 13  6  1  0  0  0  0 
 13  7  1  0  0  0  0 
 15  1  1  0  0  0  0 
 17  1  1  0  0  0  0 
 18  2  1  0  0  0  0 
 24  4  1  0  0  0  0 
 25  5  1  0  0  0  0 
 27  6  1  0  0  0  0 
 30  7  1  0  0  0  0 
 31  8  1  0  0  0  0 
 32  8  1  0  0  0  0 
 33  9  1  0  0  0  0 
 37 14  1  0  0  0  0 
M  END 
>  <HBA> 
1 
 
>  <HBD> 
1 
 
>  <TPSA> 
12.03 
 
>  <cid> 
19332 
 
>  <dipole> 
0.94 
 
>  <excitation_energy_1> 
5.057 
 
>  <excitation_energy_2> 
5.473 
 
>  <excitation_energy_3> 
5.574 
 
>  <excitation_energy_4> 
5.733 
 
>  <homo_energy> 
-5.578 
 
>  <homo_lumo_gap> 
7.431 
 
>  <logP> 
3.344 
 
>  <lumo_energy> 
1.853 
 
>  <melting_point> 
74.73 
 
>  <molecular_refractivity> 
61.1 
 
>  <oscillator_strength_1> 
0.0038 
 
>  <oscillator_strength_2> 
0.0087 
 
>  <oscillator_strength_3> 
0.0052 
 
>  <oscillator_strength_4> 
0.0297 
 
>  <open_babel_can_smiles> 
CC(N[C@]12C[C@H]3C[C@@H](C2)C[C@@H](C1)C3)C 
 
>  <mulliken_charges> 
37 
1   -0.473571 
2   -0.421148 
3   -0.264146 
4   -0.264391 
5   -0.264008 
6   -0.273805 
7   -0.276961 
8   -0.274738 
9   0.069534 
10   -0.093512 
11   -0.090212 
12   -0.089707 
13   0.204582 
14   -0.590618 
15   0.146611 
16   0.146571 
17   0.141781 
18   0.124941 
19   0.146597 
20   0.141407 
21   0.126915 
22   0.123839 
23   0.124887 
24   0.124039 
25   0.123569 
26   0.124373 
27   0.127676 
28   0.137082 
29   0.138615 
30   0.114109 
31   0.113276 
32   0.126697 
33   0.118684 
34   0.11513 
35   0.114867 
36   0.113605 
37   0.287431 
 
>  <lowdin_charges> 
37 
1   -0.456791 
2   -0.453306 
3   -0.280123 
4   -0.28108 
5   -0.279653 
6   -0.284897 
7   -0.281257 
8   -0.295696 
9   -0.057777 
10   -0.13028 
11   -0.132419 
12   -0.131862 
13   0.054702 
14   -0.358481 
15   0.154636 
16   0.149511 
17   0.14818 
18   0.14194 
19   0.152296 
20   0.150154 
21   0.140736 
22   0.138274 
23   0.138751 
24   0.139714 
25   0.138123 
26   0.138159 
27   0.141696 
28   0.146412 
29   0.147802 
30   0.133999 
31   0.13394 
32   0.140466 
33   0.128089 
34   0.138648 
35   0.140081 
36   0.138402 
37   0.248911 
 
$$$$ 
 
