PCCDB-ID:  62386 
public computational chemistry database (PCCDB) project, http://pccdb.org 
 
 29 29  0  0  0  0  0  0  0  0999 V2000 
    1.6462    1.3929    0.4852 C   0  0  0  0  0  0  0  0  0  0  0  0 
    1.9921    2.4724    2.7496 C   0  0  0  0  0  0  0  0  0  0  0  0 
    7.5100    2.3162    1.4475 C   0  0  0  0  0  0  0  0  0  0  0  0 
    6.8953    0.9328    1.7103 C   0  0  0  0  0  0  0  0  0  0  0  0 
    6.4199    3.3770    1.2307 C   0  0  0  0  0  0  0  0  0  0  0  0 
    5.9238    0.5370    0.5864 C   0  0  0  0  0  0  0  0  0  0  0  0 
    5.4523    2.9658    0.1105 C   0  0  0  0  0  0  0  0  0  0  0  0 
    2.6017    2.2202    1.3661 C   0  0  0  0  0  0  0  0  0  0  0  0 
    4.8133    1.5823    0.3618 C   0  0  0  0  0  0  0  0  0  0  0  0 
    3.9333    1.6189    1.5409 N   0  0  0  0  0  0  0  0  0  0  0  0 
    0.6823    1.9010    0.3606 H   0  0  0  0  0  0  0  0  0  0  0  0 
    1.4494    0.4151    0.9454 H   0  0  0  0  0  0  0  0  0  0  0  0 
    2.0599    1.2177   -0.5138 H   0  0  0  0  0  0  0  0  0  0  0  0 
    1.0224    2.9774    2.6705 H   0  0  0  0  0  0  0  0  0  0  0  0 
    2.6629    3.0865    3.3579 H   0  0  0  0  0  0  0  0  0  0  0  0 
    1.8292    1.5244    3.2801 H   0  0  0  0  0  0  0  0  0  0  0  0 
    8.1497    2.2640    0.5530 H   0  0  0  0  0  0  0  0  0  0  0  0 
    8.1632    2.6055    2.2809 H   0  0  0  0  0  0  0  0  0  0  0  0 
    6.3577    0.9529    2.6666 H   0  0  0  0  0  0  0  0  0  0  0  0 
    7.6842    0.1751    1.8033 H   0  0  0  0  0  0  0  0  0  0  0  0 
    6.8751    4.3473    0.9933 H   0  0  0  0  0  0  0  0  0  0  0  0 
    5.8514    3.5055    2.1597 H   0  0  0  0  0  0  0  0  0  0  0  0 
    5.4730   -0.4447    0.7929 H   0  0  0  0  0  0  0  0  0  0  0  0 
    6.4825    0.4268   -0.3536 H   0  0  0  0  0  0  0  0  0  0  0  0 
    5.9932    2.9185   -0.8461 H   0  0  0  0  0  0  0  0  0  0  0  0 
    4.6734    3.7280   -0.0176 H   0  0  0  0  0  0  0  0  0  0  0  0 
    2.7558    3.1936    0.8834 H   0  0  0  0  0  0  0  0  0  0  0  0 
    4.2615    1.2921   -0.5512 H   0  0  0  0  0  0  0  0  0  0  0  0 
    3.8111    0.6685    1.8914 H   0  0  0  0  0  0  0  0  0  0  0  0 
  1 12  1  0  0  0  0 
  1  8  1  0  0  0  0 
  2 16  1  0  0  0  0 
  2 15  1  0  0  0  0 
  3  4  1  0  0  0  0 
  3 18  1  0  0  0  0 
  4 20  1  0  0  0  0 
  4 19  1  0  0  0  0 
  5  3  1  0  0  0  0 
  5 22  1  0  0  0  0 
  6 23  1  0  0  0  0 
  6  4  1  0  0  0  0 
  7  9  1  0  0  0  0 
  7  5  1  0  0  0  0 
  8 10  1  0  0  0  0 
  8  2  1  0  0  0  0 
  9  6  1  0  0  0  0 
  9 10  1  0  0  0  0 
 10 29  1  0  0  0  0 
 11  1  1  0  0  0  0 
 13  1  1  0  0  0  0 
 14  2  1  0  0  0  0 
 17  3  1  0  0  0  0 
 21  5  1  0  0  0  0 
 24  6  1  0  0  0  0 
 25  7  1  0  0  0  0 
 26  7  1  0  0  0  0 
 27  8  1  0  0  0  0 
 28  9  1  0  0  0  0 
M  END 
>  <HBA> 
1 
 
>  <HBD> 
1 
 
>  <TPSA> 
12.03 
 
>  <cid> 
62386 
 
>  <dipole> 
0.84 
 
>  <excitation_energy_1> 
5.249 
 
>  <excitation_energy_2> 
5.589 
 
>  <excitation_energy_3> 
5.701 
 
>  <excitation_energy_4> 
5.817 
 
>  <homo_energy> 
-5.712 
 
>  <homo_lumo_gap> 
7.747 
 
>  <logP> 
2.708 
 
>  <lumo_energy> 
2.035 
 
>  <melting_point> 
21.2 
 
>  <molecular_refractivity> 
46.06 
 
>  <oscillator_strength_1> 
0.0041 
 
>  <oscillator_strength_2> 
0.008 
 
>  <oscillator_strength_3> 
0.0098 
 
>  <oscillator_strength_4> 
0.0036 
 
>  <open_babel_can_smiles> 
CC(NC1CCCCC1)C 
 
>  <mulliken_charges> 
29 
1   -0.450589 
2   -0.435407 
3   -0.257545 
4   -0.248508 
5   -0.249865 
6   -0.288937 
7   -0.260255 
8   0.043992 
9   0.05932 
10   -0.558941 
11   0.140764 
12   0.132279 
13   0.148032 
14   0.136585 
15   0.154156 
16   0.13187 
17   0.120983 
18   0.126823 
19   0.141913 
20   0.124342 
21   0.122022 
22   0.147583 
23   0.121371 
24   0.13069 
25   0.122043 
26   0.128988 
27   0.132552 
28   0.100648 
29   0.28309 
 
>  <lowdin_charges> 
29 
1   -0.461286 
2   -0.447254 
3   -0.277459 
4   -0.280098 
5   -0.279163 
6   -0.282259 
7   -0.284821 
8   -0.059646 
9   -0.065601 
10   -0.361384 
11   0.149985 
12   0.142421 
13   0.148893 
14   0.147091 
15   0.157252 
16   0.142917 
17   0.133686 
18   0.142436 
19   0.144698 
20   0.14099 
21   0.13949 
22   0.148054 
23   0.136734 
24   0.142556 
25   0.137637 
26   0.141947 
27   0.138927 
28   0.117443 
29   0.245813 
 
$$$$ 
 
