PCCDB-ID:  35518 
public computational chemistry database (PCCDB) project, http://pccdb.org 
 
 20 20  0  0  1  0  0  0  0  0999 V2000 
    1.0560   -0.1389    0.2955 C   0  0  0  0  0  0  0  0  0  0  0  0 
    4.8457   -2.2251    1.6719 C   0  0  0  0  0  0  0  0  0  0  0  0 
    2.5085    0.2406   -0.0127 C   0  0  2  0  0  0  0  0  0  0  0  0 
    3.8425   -1.0870    1.5396 C   0  0  2  0  0  0  0  0  0  0  0  0 
    3.7591    1.3171    1.6542 C   0  0  0  0  0  0  0  0  0  0  0  0 
    3.4053   -0.9234    0.1660 N   0  0  0  0  0  0  0  0  0  0  0  0 
    2.8797    1.4434    0.7367 N   0  0  0  0  0  0  0  0  0  0  0  0 
    4.4459    0.1761    2.0073 N   0  0  0  0  0  0  0  0  0  0  0  0 
    4.1491    2.3897    2.3929 O   0  0  0  0  0  0  0  0  0  0  0  0 
    0.7361   -0.9662   -0.3459 H   0  0  0  0  0  0  0  0  0  0  0  0 
    0.4036    0.7234    0.1276 H   0  0  0  0  0  0  0  0  0  0  0  0 
    0.9411   -0.4439    1.3419 H   0  0  0  0  0  0  0  0  0  0  0  0 
    4.3930   -3.1595    1.3291 H   0  0  0  0  0  0  0  0  0  0  0  0 
    5.1612   -2.3519    2.7140 H   0  0  0  0  0  0  0  0  0  0  0  0 
    5.7382   -2.0201    1.0696 H   0  0  0  0  0  0  0  0  0  0  0  0 
    2.5682    0.4940   -1.0787 H   0  0  0  0  0  0  0  0  0  0  0  0 
    2.9500   -1.3173    2.1405 H   0  0  0  0  0  0  0  0  0  0  0  0 
    4.2379   -0.7789   -0.4056 H   0  0  0  0  0  0  0  0  0  0  0  0 
    4.8538    0.1928    2.9348 H   0  0  0  0  0  0  0  0  0  0  0  0 
    3.6360    3.1360    2.0347 H   0  0  0  0  0  0  0  0  0  0  0  0 
  1 12  1  0  0  0  0 
  2 14  1  0  0  0  0 
  3 16  1  6  0  0  0 
  3  6  1  0  0  0  0 
  3  1  1  0  0  0  0 
  3  7  1  0  0  0  0 
  4  2  1  0  0  0  0 
  4  8  1  0  0  0  0 
  4 17  1  1  0  0  0 
  5  8  1  0  0  0  0 
  5  9  1  0  0  0  0 
  6  4  1  0  0  0  0 
  7  5  2  0  0  0  0 
  8 19  1  0  0  0  0 
 10  1  1  0  0  0  0 
 11  1  1  0  0  0  0 
 13  2  1  0  0  0  0 
 15  2  1  0  0  0  0 
 18  6  1  0  0  0  0 
 20  9  1  0  0  0  0 
M  END 
>  <HBA> 
4 
 
>  <HBD> 
3 
 
>  <TPSA> 
53.16 
 
>  <cid> 
35518 
 
>  <dipole> 
1.57 
 
>  <excitation_energy_1> 
5.513 
 
>  <excitation_energy_2> 
5.785 
 
>  <excitation_energy_3> 
5.878 
 
>  <excitation_energy_4> 
6.087 
 
>  <homo_energy> 
-5.973 
 
>  <homo_lumo_gap> 
7.573 
 
>  <logP> 
0.567 
 
>  <lumo_energy> 
1.6 
 
>  <melting_point> 
109.94 
 
>  <molecular_refractivity> 
44.77 
 
>  <oscillator_strength_1> 
0.019 
 
>  <oscillator_strength_2> 
0.0321 
 
>  <oscillator_strength_3> 
0.0022 
 
>  <oscillator_strength_4> 
0.0006 
 
>  <open_babel_can_smiles> 
C[C@@H]1N[C@@H](C)N=C(N1)O 
 
>  <mulliken_charges> 
20 
1   -0.418671 
2   -0.459544 
3   0.113611 
4   0.151487 
5   0.660047 
6   -0.539722 
7   -0.499884 
8   -0.611647 
9   -0.615728 
10   0.146209 
11   0.153092 
12   0.137003 
13   0.168419 
14   0.143592 
15   0.153538 
16   0.135404 
17   0.146769 
18   0.298418 
19   0.324541 
20   0.413066 
 
>  <lowdin_charges> 
20 
1   -0.449601 
2   -0.447702 
3   -0.004463 
4   -0.000881 
5   0.15153 
6   -0.354509 
7   -0.305261 
8   -0.320409 
9   -0.381092 
10   0.153742 
11   0.158184 
12   0.144441 
13   0.166247 
14   0.151273 
15   0.155772 
16   0.141337 
17   0.136599 
18   0.256925 
19   0.282885 
20   0.364983 
 
$$$$ 
 
