PCCDB-ID:  33800 
public computational chemistry database (PCCDB) project, http://pccdb.org 
 
 27 28  0  0  0  0  0  0  0  0999 V2000 
    1.2471    0.4033   -2.0336 C   0  0  0  0  0  0  0  0  0  0  0  0 
    2.7562    0.5756   -1.8355 C   0  0  0  0  0  0  0  0  0  0  0  0 
    7.3890   -2.2567    0.0091 C   0  0  0  0  0  0  0  0  0  0  0  0 
    6.0077   -2.5085   -0.1613 C   0  0  0  0  0  0  0  0  0  0  0  0 
    6.5141    2.5221    0.1723 C   0  0  0  0  0  0  0  0  0  0  0  0 
    3.1399    0.8017   -0.3580 C   0  0  0  0  0  0  0  0  0  0  0  0 
    7.8387   -0.9620    0.1293 C   0  0  0  0  0  0  0  0  0  0  0  0 
    5.1318    2.2768    0.0018 C   0  0  0  0  0  0  0  0  0  0  0  0 
    7.4007    1.4731    0.2105 C   0  0  0  0  0  0  0  0  0  0  0  0 
    5.1087   -1.4658   -0.2114 C   0  0  0  0  0  0  0  0  0  0  0  0 
    4.6259    0.9979   -0.1359 C   0  0  0  0  0  0  0  0  0  0  0  0 
    6.9382    0.1363    0.0829 C   0  0  0  0  0  0  0  0  0  0  0  0 
    5.5347   -0.1128   -0.0938 C   0  0  0  0  0  0  0  0  0  0  0  0 
    1.0001    0.2436   -3.0893 H   0  0  0  0  0  0  0  0  0  0  0  0 
    0.6979    1.2898   -1.6927 H   0  0  0  0  0  0  0  0  0  0  0  0 
    0.8671   -0.4571   -1.4687 H   0  0  0  0  0  0  0  0  0  0  0  0 
    3.1150    1.4279   -2.4271 H   0  0  0  0  0  0  0  0  0  0  0  0 
    3.2846   -0.3048   -2.2225 H   0  0  0  0  0  0  0  0  0  0  0  0 
    8.0900   -3.0861    0.0473 H   0  0  0  0  0  0  0  0  0  0  0  0 
    5.6541   -3.5321   -0.2529 H   0  0  0  0  0  0  0  0  0  0  0  0 
    6.8680    3.5446    0.2743 H   0  0  0  0  0  0  0  0  0  0  0  0 
    2.7673   -0.0379    0.2438 H   0  0  0  0  0  0  0  0  0  0  0  0 
    2.6094    1.6904    0.0071 H   0  0  0  0  0  0  0  0  0  0  0  0 
    8.8985   -0.7575    0.2638 H   0  0  0  0  0  0  0  0  0  0  0  0 
    4.4458    3.1209   -0.0213 H   0  0  0  0  0  0  0  0  0  0  0  0 
    8.4657    1.6494    0.3420 H   0  0  0  0  0  0  0  0  0  0  0  0 
    4.0536   -1.6830   -0.3415 H   0  0  0  0  0  0  0  0  0  0  0  0 
  1  2  1  0  0  0  0 
  1 15  1  0  0  0  0 
  1 16  1  0  0  0  0 
  2  6  1  0  0  0  0 
  3 19  1  0  0  0  0 
  3  7  2  0  0  0  0 
  4  3  1  0  0  0  0 
  5  9  1  0  0  0  0 
  5 21  1  0  0  0  0 
  6 11  1  0  0  0  0 
  6 23  1  0  0  0  0 
  6 22  1  0  0  0  0 
  7 24  1  0  0  0  0 
  8  5  2  0  0  0  0 
  9 26  1  0  0  0  0 
 10  4  2  0  0  0  0 
 10 13  1  0  0  0  0 
 11 13  2  0  0  0  0 
 11  8  1  0  0  0  0 
 12  7  1  0  0  0  0 
 12  9  2  0  0  0  0 
 13 12  1  0  0  0  0 
 14  1  1  0  0  0  0 
 17  2  1  0  0  0  0 
 18  2  1  0  0  0  0 
 20  4  1  0  0  0  0 
 25  8  1  0  0  0  0 
 27 10  1  0  0  0  0 
M  END 
>  <HBA> 
0 
 
>  <HBD> 
0 
 
>  <TPSA> 
0.0 
 
>  <cid> 
33800 
 
>  <dipole> 
0.31 
 
>  <excitation_energy_1> 
4.256 
 
>  <excitation_energy_2> 
4.402 
 
>  <excitation_energy_3> 
5.314 
 
>  <excitation_energy_4> 
5.481 
 
>  <homo_energy> 
-5.649 
 
>  <homo_lumo_gap> 
4.732 
 
>  <logP> 
3.792 
 
>  <lumo_energy> 
-0.917 
 
>  <melting_point> 
51.16 
 
>  <molecular_refractivity> 
58.53 
 
>  <oscillator_strength_1> 
0.0962 
 
>  <oscillator_strength_2> 
0.0005 
 
>  <oscillator_strength_3> 
0.0038 
 
>  <oscillator_strength_4> 
0.0041 
 
>  <open_babel_can_smiles> 
CCCc1cccc2c1cccc2 
 
>  <mulliken_charges> 
27 
1   -0.441366 
2   -0.247501 
3   -0.133091 
4   -0.136014 
5   -0.129019 
6   -0.346097 
7   -0.194713 
8   -0.204051 
9   -0.194145 
10   -0.197294 
11   0.123006 
12   0.1396 
13   0.0778 
14   0.145473 
15   0.142559 
16   0.141104 
17   0.139358 
18   0.142825 
19   0.128401 
20   0.127554 
21   0.127634 
22   0.142108 
23   0.139567 
24   0.128233 
25   0.121051 
26   0.126731 
27   0.130288 
 
>  <lowdin_charges> 
27 
1   -0.445205 
2   -0.273361 
3   -0.161276 
4   -0.158022 
5   -0.157544 
6   -0.276953 
7   -0.154144 
8   -0.172085 
9   -0.159169 
10   -0.161103 
11   -0.000539 
12   0.001214 
13   -0.008128 
14   0.150218 
15   0.147351 
16   0.146721 
17   0.145233 
18   0.145454 
19   0.158732 
20   0.156445 
21   0.156723 
22   0.147875 
23   0.149278 
24   0.155154 
25   0.154793 
26   0.154684 
27   0.157653 
 
$$$$ 
 
