PCCDB-ID:  48548 
public computational chemistry database (PCCDB) project, http://pccdb.org 
 
 35 35  0  0  1  0  0  0  0  0999 V2000 
    1.3370   -0.5715   -0.6638 C   0  0  0  0  0  0  0  0  0  0  0  0 
    7.0680   -0.0417    4.4609 C   0  0  0  0  0  0  0  0  0  0  0  0 
    8.9778    0.9749    3.1575 C   0  0  0  0  0  0  0  0  0  0  0  0 
    2.1949    0.4261   -0.4526 C   0  0  0  0  0  0  0  0  0  0  0  0 
    6.7668    0.6095    2.0000 C   0  0  0  0  0  0  0  0  0  0  0  0 
    2.9760    0.6152    0.8203 C   0  0  0  0  0  0  0  0  0  0  0  0 
    5.2364    0.7289    2.0272 C   0  0  0  0  0  0  0  0  0  0  0  0 
    7.4532    0.9387    3.3418 C   0  0  0  0  0  0  0  0  0  0  0  0 
    5.0167    1.5183   -0.3709 C   0  0  0  0  0  0  0  0  0  0  0  0 
    4.8866   -0.8865    0.1073 C   0  0  0  0  0  0  0  0  0  0  0  0 
    5.7885   -0.0776   -1.8736 C   0  0  0  0  0  0  0  0  0  0  0  0 
    4.5329    0.4948    0.6526 C   0  0  2  0  0  0  0  0  0  0  0  0 
    5.5720    1.2734   -1.4880 N   0  0  0  0  0  0  0  0  0  0  0  0 
    5.4464   -1.1454   -1.0044 N   0  0  0  0  0  0  0  0  0  0  0  0 
    4.8206    2.8223   -0.0612 O   0  0  0  0  0  0  0  0  0  0  0  0 
    4.5770   -1.9436    0.8933 O   0  0  0  0  0  0  0  0  0  0  0  0 
    6.2760   -0.3171   -2.9546 O   0  0  0  0  0  0  0  0  0  0  0  0 
    0.7983   -0.6682   -1.6018 H   0  0  0  0  0  0  0  0  0  0  0  0 
    1.1414   -1.3333    0.0883 H   0  0  0  0  0  0  0  0  0  0  0  0 
    7.5942    0.2050    5.3899 H   0  0  0  0  0  0  0  0  0  0  0  0 
    7.3395   -1.0702    4.1897 H   0  0  0  0  0  0  0  0  0  0  0  0 
    5.9946   -0.0246    4.6832 H   0  0  0  0  0  0  0  0  0  0  0  0 
    9.4803    1.2466    4.0928 H   0  0  0  0  0  0  0  0  0  0  0  0 
    9.2715    1.7035    2.3933 H   0  0  0  0  0  0  0  0  0  0  0  0 
    9.3590   -0.0063    2.8475 H   0  0  0  0  0  0  0  0  0  0  0  0 
    2.3648    1.1642   -1.2359 H   0  0  0  0  0  0  0  0  0  0  0  0 
    7.1623    1.2832    1.2288 H   0  0  0  0  0  0  0  0  0  0  0  0 
    7.0482   -0.4072    1.6927 H   0  0  0  0  0  0  0  0  0  0  0  0 
    2.6417   -0.1114    1.5715 H   0  0  0  0  0  0  0  0  0  0  0  0 
    2.7573    1.6040    1.2501 H   0  0  0  0  0  0  0  0  0  0  0  0 
    4.9527    1.7218    2.4062 H   0  0  0  0  0  0  0  0  0  0  0  0 
    4.8140    0.0274    2.7581 H   0  0  0  0  0  0  0  0  0  0  0  0 
    7.1282    1.9464    3.6460 H   0  0  0  0  0  0  0  0  0  0  0  0 
    4.4141    2.9034    0.8156 H   0  0  0  0  0  0  0  0  0  0  0  0 
    4.1598   -1.6427    1.7152 H   0  0  0  0  0  0  0  0  0  0  0  0 
  1  4  2  0  0  0  0 
  1 19  1  0  0  0  0 
  2 22  1  0  0  0  0 
  2 20  1  0  0  0  0 
  3  8  1  0  0  0  0 
  3 23  1  0  0  0  0 
  4  6  1  0  0  0  0 
  5  7  1  0  0  0  0 
  5  8  1  0  0  0  0 
  6 30  1  0  0  0  0 
  6 29  1  0  0  0  0 
  7 31  1  0  0  0  0 
  7 32  1  0  0  0  0 
  8 33  1  0  0  0  0 
  8  2  1  0  0  0  0 
  9 15  1  0  0  0  0 
  9 12  1  0  0  0  0 
 10 12  1  0  0  0  0 
 10 16  1  0  0  0  0 
 11 13  2  0  0  0  0 
 11 14  1  0  0  0  0 
 12  6  1  1  0  0  0 
 12  7  1  0  0  0  0 
 13  9  2  0  0  0  0 
 14 10  2  0  0  0  0 
 15 34  1  0  0  0  0 
 16 35  1  0  0  0  0 
 17 11  2  0  0  0  0 
 18  1  1  0  0  0  0 
 21  2  1  0  0  0  0 
 24  3  1  0  0  0  0 
 25  3  1  0  0  0  0 
 26  4  1  0  0  0  0 
 27  5  1  0  0  0  0 
 28  5  1  0  0  0  0 
M  END 
>  <HBA> 
5 
 
>  <HBD> 
2 
 
>  <TPSA> 
75.27 
 
>  <cid> 
48548 
 
>  <dipole> 
9.77 
 
>  <excitation_energy_1> 
3.992 
 
>  <excitation_energy_2> 
4.163 
 
>  <excitation_energy_3> 
5.187 
 
>  <excitation_energy_4> 
5.316 
 
>  <homo_energy> 
-6.863 
 
>  <homo_lumo_gap> 
5.382 
 
>  <logP> 
2.009 
 
>  <lumo_energy> 
-1.48 
 
>  <melting_point> 
118.98 
 
>  <molecular_refractivity> 
71.37 
 
>  <oscillator_strength_1> 
0.0 
 
>  <oscillator_strength_2> 
0.0 
 
>  <oscillator_strength_3> 
0.0015 
 
>  <oscillator_strength_4> 
0.0041 
 
>  <open_babel_can_smiles> 
C=CC[C@@]1(CCC(C)C)C(=N[C](=[N]=C1O)=O)O 
 
>  <mulliken_charges> 
35 
1   -0.32512 
2   -0.450335 
3   -0.446564 
4   -0.053469 
5   -0.273215 
6   -0.323204 
7   -0.290895 
8   -0.071538 
9   0.551821 
10   0.564802 
11   0.622034 
12   -0.155138 
13   -0.471725 
14   -0.470345 
15   -0.581461 
16   -0.579791 
17   -0.431765 
18   0.162513 
19   0.144023 
20   0.152003 
21   0.148741 
22   0.135239 
23   0.14606 
24   0.151031 
25   0.149482 
26   0.163201 
27   0.162932 
28   0.161828 
29   0.140577 
30   0.146656 
31   0.131265 
32   0.136037 
33   0.122259 
34   0.41608 
35   0.415983 
 
>  <lowdin_charges> 
35 
1   -0.312306 
2   -0.445913 
3   -0.44441 
4   -0.163347 
5   -0.286087 
6   -0.267854 
7   -0.27532 
8   -0.118339 
9   0.144074 
10   0.150136 
11   0.1715 
12   -0.062734 
13   -0.182904 
14   -0.180565 
15   -0.333046 
16   -0.329665 
17   -0.207885 
18   0.171039 
19   0.158648 
20   0.155181 
21   0.149412 
22   0.141002 
23   0.151912 
24   0.154122 
25   0.151098 
26   0.16854 
27   0.158605 
28   0.155013 
29   0.149574 
30   0.149841 
31   0.140425 
32   0.144077 
33   0.133827 
34   0.355583 
35   0.356767 
 
$$$$ 
 
