PCCDB-ID:  48785 
public computational chemistry database (PCCDB) project, http://pccdb.org 
 
 29 29  0  0  1  0  0  0  0  0999 V2000 
    1.5247    0.1160    1.4160 C   0  0  0  0  0  0  0  0  0  0  0  0 
    6.2744   -1.1711    2.0485 C   0  0  0  0  0  0  0  0  0  0  0  0 
    2.7817   -1.0921   -1.8011 C   0  0  0  0  0  0  0  0  0  0  0  0 
    2.2485    0.1509    0.2931 C   0  0  0  0  0  0  0  0  0  0  0  0 
    4.8081   -1.1925    1.6039 C   0  0  0  0  0  0  0  0  0  0  0  0 
    3.0352   -1.0069   -0.2844 C   0  0  2  0  0  0  0  0  0  0  0  0 
    5.2120    0.3763   -0.3341 C   0  0  0  0  0  0  0  0  0  0  0  0 
    5.3061   -2.0451   -0.7180 C   0  0  0  0  0  0  0  0  0  0  0  0 
    6.5054   -0.5507   -2.0266 C   0  0  0  0  0  0  0  0  0  0  0  0 
    4.5862   -0.9562    0.0761 C   0  0  1  0  0  0  0  0  0  0  0  0 
    6.0604    0.5602   -1.2655 N   0  0  0  0  0  0  0  0  0  0  0  0 
    6.1635   -1.8739   -1.6411 N   0  0  0  0  0  0  0  0  0  0  0  0 
    4.8479    1.4646    0.3801 O   0  0  0  0  0  0  0  0  0  0  0  0 
    4.9797   -3.3262   -0.4240 O   0  0  0  0  0  0  0  0  0  0  0  0 
    7.1926   -0.3712   -3.0062 O   0  0  0  0  0  0  0  0  0  0  0  0 
    0.9544    0.9776    1.7522 H   0  0  0  0  0  0  0  0  0  0  0  0 
    1.4564   -0.7792    2.0310 H   0  0  0  0  0  0  0  0  0  0  0  0 
    6.3430   -1.3550    3.1255 H   0  0  0  0  0  0  0  0  0  0  0  0 
    6.7385   -0.2009    1.8445 H   0  0  0  0  0  0  0  0  0  0  0  0 
    6.8630   -1.9408    1.5385 H   0  0  0  0  0  0  0  0  0  0  0  0 
    1.7045   -1.1200   -1.9942 H   0  0  0  0  0  0  0  0  0  0  0  0 
    3.2270   -1.9892   -2.2399 H   0  0  0  0  0  0  0  0  0  0  0  0 
    3.1927   -0.2195   -2.3214 H   0  0  0  0  0  0  0  0  0  0  0  0 
    2.2569    1.0660   -0.3004 H   0  0  0  0  0  0  0  0  0  0  0  0 
    4.2366   -0.4465    2.1668 H   0  0  0  0  0  0  0  0  0  0  0  0 
    4.3521   -2.1528    1.8840 H   0  0  0  0  0  0  0  0  0  0  0  0 
    2.6566   -1.9261    0.1845 H   0  0  0  0  0  0  0  0  0  0  0  0 
    4.1217    1.2386    0.9869 H   0  0  0  0  0  0  0  0  0  0  0  0 
    4.3388   -3.3524    0.3031 H   0  0  0  0  0  0  0  0  0  0  0  0 
  1 16  1  0  0  0  0 
  1 17  1  0  0  0  0 
  2 18  1  0  0  0  0 
  3  6  1  0  0  0  0 
  4  1  2  0  0  0  0 
  5 26  1  0  0  0  0 
  5  2  1  0  0  0  0 
  5 25  1  0  0  0  0 
  6 10  1  0  0  0  0 
  6 27  1  1  0  0  0 
  6  4  1  0  0  0  0 
  7 10  1  0  0  0  0 
  7 13  1  0  0  0  0 
  8 14  1  0  0  0  0 
  8 10  1  0  0  0  0 
  9 12  1  0  0  0  0 
  9 11  2  0  0  0  0 
 10  5  1  1  0  0  0 
 11  7  2  0  0  0  0 
 12  8  2  0  0  0  0 
 13 28  1  0  0  0  0 
 14 29  1  0  0  0  0 
 15  9  2  0  0  0  0 
 19  2  1  0  0  0  0 
 20  2  1  0  0  0  0 
 21  3  1  0  0  0  0 
 22  3  1  0  0  0  0 
 23  3  1  0  0  0  0 
 24  4  1  0  0  0  0 
M  END 
>  <HBA> 
5 
 
>  <HBD> 
2 
 
>  <TPSA> 
75.27 
 
>  <cid> 
48785 
 
>  <dipole> 
10.13 
 
>  <excitation_energy_1> 
3.959 
 
>  <excitation_energy_2> 
4.143 
 
>  <excitation_energy_3> 
5.205 
 
>  <excitation_energy_4> 
5.394 
 
>  <homo_energy> 
-6.865 
 
>  <homo_lumo_gap> 
5.295 
 
>  <logP> 
1.228 
 
>  <lumo_energy> 
-1.57 
 
>  <melting_point> 
120.31 
 
>  <molecular_refractivity> 
61.76 
 
>  <oscillator_strength_1> 
0.0003 
 
>  <oscillator_strength_2> 
0.0002 
 
>  <oscillator_strength_3> 
0.0012 
 
>  <oscillator_strength_4> 
0.0037 
 
>  <open_babel_can_smiles> 
C=C[C@H]([C@@]1(CC)C(=N[C](=[N]=C1O)=O)O)C 
 
>  <mulliken_charges> 
29 
1   -0.33989 
2   -0.46674 
3   -0.484834 
4   -0.111082 
5   -0.288214 
6   -0.117007 
7   0.536748 
8   0.551227 
9   0.616843 
10   -0.138451 
11   -0.470337 
12   -0.4708 
13   -0.585372 
14   -0.584108 
15   -0.431735 
16   0.165112 
17   0.151212 
18   0.160559 
19   0.182794 
20   0.17831 
21   0.166389 
22   0.187104 
23   0.176982 
24   0.169008 
25   0.152681 
26   0.128852 
27   0.128134 
28   0.419705 
29   0.416909 
 
>  <lowdin_charges> 
29 
1   -0.328092 
2   -0.451977 
3   -0.451663 
4   -0.170422 
5   -0.277186 
6   -0.118468 
7   0.144069 
8   0.146143 
9   0.168669 
10   -0.063071 
11   -0.183599 
12   -0.18318 
13   -0.333035 
14   -0.334115 
15   -0.209293 
16   0.171893 
17   0.16109 
18   0.160227 
19   0.167478 
20   0.166167 
21   0.162458 
22   0.171724 
23   0.16601 
24   0.168063 
25   0.153839 
26   0.139049 
27   0.14332 
28   0.357118 
29   0.356786 
 
$$$$ 
 
