PCCDB-ID:  51857 
public computational chemistry database (PCCDB) project, http://pccdb.org 
 
 35 34  0  0  1  0  0  0  0  0999 V2000 
    2.3625    1.6307    0.9585 C   0  0  0  0  0  0  0  0  0  0  0  0 
    2.5725    3.4129   -0.8171 C   0  0  0  0  0  0  0  0  0  0  0  0 
    5.7473    0.6182   -4.3920 C   0  0  0  0  0  0  0  0  0  0  0  0 
    7.7235   -1.1982    1.2100 C   0  0  0  0  0  0  0  0  0  0  0  0 
    3.9814    1.2780   -0.9503 C   0  0  0  0  0  0  0  0  0  0  0  0 
    4.2794    1.3426   -2.4539 C   0  0  0  0  0  0  0  0  0  0  0  0 
    7.6807   -1.0053   -1.3814 C   0  0  0  0  0  0  0  0  0  0  0  0 
    2.6379    1.9055   -0.5276 C   0  0  0  0  0  0  0  0  0  0  0  0 
    5.5444    0.5686   -2.8709 C   0  0  2  0  0  0  0  0  0  0  0  0 
    6.9671   -1.4197   -0.0827 C   0  0  0  0  0  0  0  0  0  0  0  0 
    7.5794    0.4940   -1.6087 C   0  0  0  0  0  0  0  0  0  0  0  0 
    6.7072    1.1754   -2.2241 N   0  0  0  0  0  0  0  0  0  0  0  0 
    5.8490   -1.8942   -0.1172 O   0  0  0  0  0  0  0  0  0  0  0  0 
    8.6232    1.1386   -1.0056 O   0  0  0  0  0  0  0  0  0  0  0  0 
    1.3909    2.0362    1.2658 H   0  0  0  0  0  0  0  0  0  0  0  0 
    3.1305    2.0957    1.5908 H   0  0  0  0  0  0  0  0  0  0  0  0 
    2.3628    0.5554    1.1725 H   0  0  0  0  0  0  0  0  0  0  0  0 
    1.6105    3.8318   -0.4977 H   0  0  0  0  0  0  0  0  0  0  0  0 
    2.6911    3.6342   -1.8832 H   0  0  0  0  0  0  0  0  0  0  0  0 
    3.3637    3.9483   -0.2752 H   0  0  0  0  0  0  0  0  0  0  0  0 
    4.8787    0.1985   -4.9122 H   0  0  0  0  0  0  0  0  0  0  0  0 
    6.6342    0.0473   -4.6899 H   0  0  0  0  0  0  0  0  0  0  0  0 
    5.8864    1.6529   -4.7247 H   0  0  0  0  0  0  0  0  0  0  0  0 
    8.1268   -0.1803    1.2483 H   0  0  0  0  0  0  0  0  0  0  0  0 
    8.5828   -1.8802    1.2547 H   0  0  0  0  0  0  0  0  0  0  0  0 
    7.0687   -1.3864    2.0629 H   0  0  0  0  0  0  0  0  0  0  0  0 
    4.7955    1.7733   -0.4018 H   0  0  0  0  0  0  0  0  0  0  0  0 
    3.9938    0.2257   -0.6332 H   0  0  0  0  0  0  0  0  0  0  0  0 
    4.3960    2.3843   -2.7794 H   0  0  0  0  0  0  0  0  0  0  0  0 
    3.4296    0.9259   -3.0135 H   0  0  0  0  0  0  0  0  0  0  0  0 
    7.2177   -1.5478   -2.2066 H   0  0  0  0  0  0  0  0  0  0  0  0 
    8.7432   -1.2633   -1.3268 H   0  0  0  0  0  0  0  0  0  0  0  0 
    1.8424    1.4155   -1.1111 H   0  0  0  0  0  0  0  0  0  0  0  0 
    5.4083   -0.4795   -2.5643 H   0  0  0  0  0  0  0  0  0  0  0  0 
    8.4644    2.0880   -1.1675 H   0  0  0  0  0  0  0  0  0  0  0  0 
  1 17  1  0  0  0  0 
  1 15  1  0  0  0  0 
  1 16  1  0  0  0  0 
  2  8  1  0  0  0  0 
  2 18  1  0  0  0  0 
  2 20  1  0  0  0  0 
  3  9  1  0  0  0  0 
  4 24  1  0  0  0  0 
  4 25  1  0  0  0  0 
  4 26  1  0  0  0  0 
  5 28  1  0  0  0  0 
  5  8  1  0  0  0  0 
  5 27  1  0  0  0  0 
  6  5  1  0  0  0  0 
  7 32  1  0  0  0  0 
  7 10  1  0  0  0  0 
  8  1  1  0  0  0  0 
  9 34  1  1  0  0  0 
  9  6  1  0  0  0  0 
  9 12  1  0  0  0  0 
 10  4  1  0  0  0  0 
 11  7  1  0  0  0  0 
 11 14  1  0  0  0  0 
 12 11  2  0  0  0  0 
 13 10  2  0  0  0  0 
 19  2  1  0  0  0  0 
 21  3  1  0  0  0  0 
 22  3  1  0  0  0  0 
 23  3  1  0  0  0  0 
 29  6  1  0  0  0  0 
 30  6  1  0  0  0  0 
 31  7  1  0  0  0  0 
 33  8  1  0  0  0  0 
 35 14  1  0  0  0  0 
M  END 
>  <HBA> 
3 
 
>  <HBD> 
1 
 
>  <TPSA> 
46.17 
 
>  <cid> 
51857 
 
>  <dipole> 
1.9 
 
>  <excitation_energy_1> 
4.3 
 
>  <excitation_energy_2> 
5.199 
 
>  <excitation_energy_3> 
5.443 
 
>  <excitation_energy_4> 
6.14 
 
>  <homo_energy> 
-6.732 
 
>  <homo_lumo_gap> 
5.957 
 
>  <logP> 
2.297 
 
>  <lumo_energy> 
-0.776 
 
>  <melting_point> 
40.08 
 
>  <molecular_refractivity> 
58.19 
 
>  <oscillator_strength_1> 
0.0037 
 
>  <oscillator_strength_2> 
0.0118 
 
>  <oscillator_strength_3> 
0.0337 
 
>  <oscillator_strength_4> 
0.0054 
 
>  <open_babel_can_smiles> 
CC(CC[C@H](/N=C(\CC(=O)C)/O)C)C 
 
>  <mulliken_charges> 
35 
1   -0.442119 
2   -0.443322 
3   -0.438218 
4   -0.529934 
5   -0.263489 
6   -0.250032 
7   -0.415413 
8   -0.06564 
9   -0.00128 
10   0.455314 
11   0.494721 
12   -0.446361 
13   -0.424847 
14   -0.596608 
15   0.135847 
16   0.134737 
17   0.143997 
18   0.136986 
19   0.143393 
20   0.13585 
21   0.142384 
22   0.13871 
23   0.152203 
24   0.190308 
25   0.1733 
26   0.180217 
27   0.127095 
28   0.146031 
29   0.136607 
30   0.124249 
31   0.188333 
32   0.179185 
33   0.117538 
34   0.134305 
35   0.405952 
 
>  <lowdin_charges> 
35 
1   -0.443838 
2   -0.446751 
3   -0.446263 
4   -0.474741 
5   -0.281904 
6   -0.277011 
7   -0.325711 
8   -0.119886 
9   -0.057505 
10   0.17131 
11   0.129563 
12   -0.222994 
13   -0.228712 
14   -0.378978 
15   0.145461 
16   0.144657 
17   0.147726 
18   0.146612 
19   0.146429 
20   0.14519 
21   0.151664 
22   0.148025 
23   0.152895 
24   0.179134 
25   0.174667 
26   0.173811 
27   0.139807 
28   0.146989 
29   0.142576 
30   0.141036 
31   0.179605 
32   0.175312 
33   0.133977 
34   0.132317 
35   0.355532 
 
$$$$ 
 
