PCCDB-ID:  27840 
public computational chemistry database (PCCDB) project, http://pccdb.org 
 
 19 19  0  0  0  0  0  0  0  0999 V2000 
    2.6736    1.2078    0.3737 C   0  0  0  0  0  0  0  0  0  0  0  0 
    3.5548   -5.0325   -2.7764 C   0  0  0  0  0  0  0  0  0  0  0  0 
    4.3179   -0.9979   -2.6999 C   0  0  0  0  0  0  0  0  0  0  0  0 
    3.0444   -0.8159   -0.7702 C   0  0  0  0  0  0  0  0  0  0  0  0 
    3.3385   -2.8941   -1.8221 C   0  0  0  0  0  0  0  0  0  0  0  0 
    5.0433   -0.4845   -3.6181 N   0  0  0  0  0  0  0  0  0  0  0  0 
    3.7597   -0.2182   -1.6472 N   0  0  0  0  0  0  0  0  0  0  0  0 
    4.0664   -2.3879   -2.7410 N   0  0  0  0  0  0  0  0  0  0  0  0 
    2.7799   -2.1698   -0.7834 N   0  0  0  0  0  0  0  0  0  0  0  0 
    2.4602   -0.2111    0.2708 O   0  0  0  0  0  0  0  0  0  0  0  0 
    3.0190   -4.1908   -1.7385 O   0  0  0  0  0  0  0  0  0  0  0  0 
    2.1238    1.5127    1.2643 H   0  0  0  0  0  0  0  0  0  0  0  0 
    2.2902    1.7160   -0.5142 H   0  0  0  0  0  0  0  0  0  0  0  0 
    3.7389    1.4261    0.4796 H   0  0  0  0  0  0  0  0  0  0  0  0 
    3.1913   -6.0336   -2.5434 H   0  0  0  0  0  0  0  0  0  0  0  0 
    4.6466   -4.9999   -2.7665 H   0  0  0  0  0  0  0  0  0  0  0  0 
    3.1976   -4.7037   -3.7549 H   0  0  0  0  0  0  0  0  0  0  0  0 
    5.1202    0.5193   -3.4331 H   0  0  0  0  0  0  0  0  0  0  0  0 
    2.2082   -2.6077   -0.0747 H   0  0  0  0  0  0  0  0  0  0  0  0 
  1 14  1  0  0  0  0 
  1 12  1  0  0  0  0 
  2 16  1  0  0  0  0 
  2 15  1  0  0  0  0 
  2 11  1  0  0  0  0 
  3  7  2  0  0  0  0 
  4 10  1  0  0  0  0 
  5 11  1  0  0  0  0 
  5  9  1  0  0  0  0 
  6 18  1  0  0  0  0 
  6  3  1  0  0  0  0 
  7  4  2  0  0  0  0 
  8  3  2  0  0  0  0 
  8  5  2  0  0  0  0 
  9  4  1  0  0  0  0 
  9 19  1  0  0  0  0 
 10  1  1  0  0  0  0 
 13  1  1  0  0  0  0 
 17  2  1  0  0  0  0 
M  RAD  1   6   2 
M  END 
>  <HBA> 
6 
 
>  <HBD> 
1 
 
>  <TPSA> 
83.15 
 
>  <cid> 
27840 
 
>  <dipole> 
5.32 
 
>  <excitation_energy_1> 
5.102 
 
>  <excitation_energy_2> 
5.393 
 
>  <excitation_energy_3> 
5.628 
 
>  <excitation_energy_4> 
5.757 
 
>  <homo_energy> 
-5.987 
 
>  <homo_lumo_gap> 
6.052 
 
>  <logP> 
0.052 
 
>  <lumo_energy> 
0.065 
 
>  <melting_point> 
111.21 
 
>  <molecular_refractivity> 
37.22 
 
>  <oscillator_strength_1> 
0.0003 
 
>  <oscillator_strength_2> 
0.0011 
 
>  <oscillator_strength_3> 
0.0042 
 
>  <oscillator_strength_4> 
0.004 
 
>  <open_babel_can_smiles> 
COC1=[N]=[C](=[N]=C(N1)OC)[NH] 
 
>  <mulliken_charges> 
19 
1   -0.212239 
2   -0.213943 
3   0.517731 
4   0.770463 
5   0.767254 
6   -0.617926 
7   -0.529309 
8   -0.49423 
9   -0.701313 
10   -0.493258 
11   -0.49604 
12   0.169409 
13   0.180362 
14   0.180101 
15   0.166334 
16   0.184178 
17   0.184341 
18   0.279974 
19   0.358111 
 
>  <lowdin_charges> 
19 
1   -0.267631 
2   -0.266982 
3   0.107994 
4   0.181451 
5   0.177891 
6   -0.396883 
7   -0.255206 
8   -0.218496 
9   -0.239861 
10   -0.185407 
11   -0.18601 
12   0.163704 
13   0.165858 
14   0.16341 
15   0.160885 
16   0.165005 
17   0.166883 
18   0.24976 
19   0.313634 
 
$$$$ 
 
