PCCDB-ID:  23840 
public computational chemistry database (PCCDB) project, http://pccdb.org 
 
 22 22  0  0  0  0  0  0  0  0999 V2000 
    5.1737   -1.7413    2.9450 C   0  0  0  0  0  0  0  0  0  0  0  0 
    6.3439   -4.3574   -2.6430 C   0  0  0  0  0  0  0  0  0  0  0  0 
    6.4081   -2.9901   -2.9178 C   0  0  0  0  0  0  0  0  0  0  0  0 
    5.5168   -4.8142   -1.6228 C   0  0  0  0  0  0  0  0  0  0  0  0 
    5.6584   -2.0889   -2.1652 C   0  0  0  0  0  0  0  0  0  0  0  0 
    4.7454   -3.9150   -0.8841 C   0  0  0  0  0  0  0  0  0  0  0  0 
    4.8213   -2.5349   -1.1432 C   0  0  0  0  0  0  0  0  0  0  0  0 
    4.2068   -1.4029    0.8366 C   0  0  0  0  0  0  0  0  0  0  0  0 
    5.1089   -1.9717    1.5124 N   0  0  0  0  0  0  0  0  0  0  0  0 
    3.8494   -4.4857    0.1297 N   0  0  0  0  0  0  0  0  0  0  0  0 
    3.2510   -0.5258    1.2070 O   0  0  0  0  0  0  0  0  0  0  0  0 
    4.1092   -5.6160    0.5414 O   0  0  0  0  0  0  0  0  0  0  0  0 
    2.8751   -3.8242    0.4851 O   0  0  0  0  0  0  0  0  0  0  0  0 
    4.0751   -1.5694   -0.5092 O   0  0  0  0  0  0  0  0  0  0  0  0 
    6.1408   -2.0889    3.3179 H   0  0  0  0  0  0  0  0  0  0  0  0 
    4.3947   -2.3051    3.4787 H   0  0  0  0  0  0  0  0  0  0  0  0 
    5.0858   -0.6775    3.2287 H   0  0  0  0  0  0  0  0  0  0  0  0 
    6.9303   -5.0653   -3.2199 H   0  0  0  0  0  0  0  0  0  0  0  0 
    7.0505   -2.6202   -3.7115 H   0  0  0  0  0  0  0  0  0  0  0  0 
    5.4446   -5.8672   -1.3799 H   0  0  0  0  0  0  0  0  0  0  0  0 
    5.7066   -1.0207   -2.3478 H   0  0  0  0  0  0  0  0  0  0  0  0 
    3.3002   -0.4085    2.1690 H   0  0  0  0  0  0  0  0  0  0  0  0 
  1 17  1  0  0  0  0 
  1 15  1  0  0  0  0 
  1 16  1  0  0  0  0 
  2  4  1  0  0  0  0 
  3  2  2  0  0  0  0 
  3  5  1  0  0  0  0 
  4 20  1  0  0  0  0 
  4  6  2  0  0  0  0 
  5  7  2  0  0  0  0 
  6 10  1  0  0  0  0 
  7  6  1  0  0  0  0 
  7 14  1  0  0  0  0 
  8 11  1  0  0  0  0 
  8  9  2  0  0  0  0 
  9  1  1  0  0  0  0 
 10 13  2  0  0  0  0 
 10 12  2  0  0  0  0 
 11 22  1  0  0  0  0 
 14  8  1  0  0  0  0 
 18  2  1  0  0  0  0 
 19  3  1  0  0  0  0 
 21  5  1  0  0  0  0 
M  END 
>  <HBA> 
3 
 
>  <HBD> 
1 
 
>  <TPSA> 
84.15 
 
>  <cid> 
23840 
 
>  <dipole> 
3.29 
 
>  <excitation_energy_1> 
3.683 
 
>  <excitation_energy_2> 
3.73 
 
>  <excitation_energy_3> 
4.11 
 
>  <excitation_energy_4> 
4.199 
 
>  <homo_energy> 
-6.893 
 
>  <homo_lumo_gap> 
4.593 
 
>  <logP> 
2.227 
 
>  <lumo_energy> 
-2.299 
 
>  <melting_point> 
106.46 
 
>  <molecular_refractivity> 
49.95 
 
>  <oscillator_strength_1> 
0.0191 
 
>  <oscillator_strength_2> 
0.0063 
 
>  <oscillator_strength_3> 
0.0067 
 
>  <oscillator_strength_4> 
0.0104 
 
>  <open_babel_can_smiles> 
C/N=C(/Oc1ccccc1N(=O)=O)\O 
 
>  <mulliken_charges> 
22 
1   -0.355359 
2   -0.13442 
3   -0.11997 
4   -0.161764 
5   -0.173272 
6   0.296681 
7   0.362702 
8   0.684432 
9   -0.432451 
10   0.366941 
11   -0.582751 
12   -0.390324 
13   -0.392204 
14   -0.514237 
15   0.17733 
16   0.167882 
17   0.127156 
18   0.148914 
19   0.150484 
20   0.185807 
21   0.159501 
22   0.428921 
 
>  <lowdin_charges> 
22 
1   -0.361704 
2   -0.157874 
3   -0.127892 
4   -0.130513 
5   -0.16093 
6   -0.003593 
7   0.12838 
8   0.197475 
9   -0.263735 
10   0.314024 
11   -0.340913 
12   -0.243489 
13   -0.239555 
14   -0.130022 
15   0.165632 
16   0.154777 
17   0.127845 
18   0.170112 
19   0.169646 
20   0.187289 
21   0.175986 
22   0.369053 
 
$$$$ 
 
