PCCDB-ID:  21210 
public computational chemistry database (PCCDB) project, http://pccdb.org 
 
 25 24  0  0  1  0  0  0  0  0999 V2000 
    6.5073   -1.8874   -2.1450 C   0  0  0  0  0  0  0  0  0  0  0  0 
    1.3956   -2.9168    3.3380 C   0  0  0  0  0  0  0  0  0  0  0  0 
    6.0503   -1.0943   -0.9165 C   0  0  0  0  0  0  0  0  0  0  0  0 
    5.1565   -1.9140    0.0226 C   0  0  0  0  0  0  0  0  0  0  0  0 
    4.6980   -1.1260    1.2429 C   0  0  0  0  0  0  0  0  0  0  0  0 
    3.3951   -1.3405    3.2263 C   0  0  0  0  0  0  0  0  0  0  0  0 
    2.6642   -2.4148    4.0337 C   0  0  2  0  0  0  0  0  0  0  0  0 
    3.5610   -3.4852    4.3175 O   0  0  0  0  0  0  0  0  0  0  0  0 
    3.8790   -1.9633    2.0443 O   0  0  0  0  0  0  0  0  0  0  0  0 
    7.1419   -1.2788   -2.7987 H   0  0  0  0  0  0  0  0  0  0  0  0 
    5.6489   -2.2293   -2.7359 H   0  0  0  0  0  0  0  0  0  0  0  0 
    7.0824   -2.7746   -1.8532 H   0  0  0  0  0  0  0  0  0  0  0  0 
    0.6642   -2.1086    3.2130 H   0  0  0  0  0  0  0  0  0  0  0  0 
    0.9367   -3.7123    3.9327 H   0  0  0  0  0  0  0  0  0  0  0  0 
    1.6355   -3.3152    2.3466 H   0  0  0  0  0  0  0  0  0  0  0  0 
    5.5097   -0.1948   -1.2436 H   0  0  0  0  0  0  0  0  0  0  0  0 
    6.9311   -0.7371   -0.3642 H   0  0  0  0  0  0  0  0  0  0  0  0 
    5.6940   -2.8088    0.3645 H   0  0  0  0  0  0  0  0  0  0  0  0 
    4.2685   -2.2680   -0.5176 H   0  0  0  0  0  0  0  0  0  0  0  0 
    4.1312   -0.2313    0.9336 H   0  0  0  0  0  0  0  0  0  0  0  0 
    5.5649   -0.7740    1.8281 H   0  0  0  0  0  0  0  0  0  0  0  0 
    4.2367   -0.9437    3.8163 H   0  0  0  0  0  0  0  0  0  0  0  0 
    2.7237   -0.5025    2.9761 H   0  0  0  0  0  0  0  0  0  0  0  0 
    2.3992   -1.9840    5.0072 H   0  0  0  0  0  0  0  0  0  0  0  0 
    3.9902   -3.6894    3.4689 H   0  0  0  0  0  0  0  0  0  0  0  0 
  1 12  1  0  0  0  0 
  1  3  1  0  0  0  0 
  2 14  1  0  0  0  0 
  2  7  1  0  0  0  0 
  3 17  1  0  0  0  0 
  3  4  1  0  0  0  0 
  4 18  1  0  0  0  0 
  4  5  1  0  0  0  0 
  5 21  1  0  0  0  0 
  5  9  1  0  0  0  0 
  6 22  1  0  0  0  0 
  6  7  1  0  0  0  0 
  7  8  1  0  0  0  0 
  7 24  1  1  0  0  0 
  9  6  1  0  0  0  0 
 10  1  1  0  0  0  0 
 11  1  1  0  0  0  0 
 13  2  1  0  0  0  0 
 15  2  1  0  0  0  0 
 16  3  1  0  0  0  0 
 19  4  1  0  0  0  0 
 20  5  1  0  0  0  0 
 23  6  1  0  0  0  0 
 25  8  1  0  0  0  0 
M  END 
>  <HBA> 
2 
 
>  <HBD> 
1 
 
>  <TPSA> 
29.46 
 
>  <cid> 
21210 
 
>  <dipole> 
2.48 
 
>  <excitation_energy_1> 
6.709 
 
>  <excitation_energy_2> 
6.73 
 
>  <excitation_energy_3> 
6.981 
 
>  <excitation_energy_4> 
7.025 
 
>  <homo_energy> 
-6.955 
 
>  <homo_lumo_gap> 
9.149 
 
>  <logP> 
1.184 
 
>  <lumo_energy> 
2.193 
 
>  <melting_point> 
-17.56 
 
>  <molecular_refractivity> 
38.01 
 
>  <oscillator_strength_1> 
0.0218 
 
>  <oscillator_strength_2> 
0.0272 
 
>  <oscillator_strength_3> 
0.0017 
 
>  <oscillator_strength_4> 
0.0141 
 
>  <open_babel_can_smiles> 
CCCCOC[C@H](O)C 
 
>  <mulliken_charges> 
25 
1   -0.440424 
2   -0.452549 
3   -0.257409 
4   -0.267521 
5   -0.000891 
6   -0.026329 
7   0.12628 
8   -0.63304 
9   -0.499321 
10   0.144735 
11   0.144761 
12   0.145009 
13   0.13215 
14   0.155851 
15   0.154887 
16   0.134088 
17   0.134594 
18   0.141306 
19   0.144547 
20   0.11965 
21   0.12112 
22   0.129979 
23   0.119328 
24   0.13307 
25   0.39613 
 
>  <lowdin_charges> 
25 
1   -0.445293 
2   -0.462768 
3   -0.273421 
4   -0.28214 
5   -0.128901 
6   -0.148482 
7   -0.004959 
8   -0.46792 
9   -0.281433 
10   0.152341 
11   0.148962 
12   0.148717 
13   0.14795 
14   0.159004 
15   0.1547 
16   0.140794 
17   0.14133 
18   0.146766 
19   0.148562 
20   0.127167 
21   0.127827 
22   0.135665 
23   0.130992 
24   0.143751 
25   0.340788 
 
$$$$ 
 
