PCCDB-ID:  14276 
public computational chemistry database (PCCDB) project, http://pccdb.org 
 
 23 23  0  0  0  0  0  0  0  0999 V2000 
   -1.5986    0.0011    0.7032 C   0  0  0  0  0  0  0  0  0  0  0  0 
   -1.3823    1.3177   -0.0594 C   0  0  0  0  0  0  0  0  0  0  0  0 
   -1.3843   -1.3158   -0.0595 C   0  0  0  0  0  0  0  0  0  0  0  0 
    0.0333    1.6076   -0.6038 C   0  0  0  0  0  0  0  0  0  0  0  0 
    0.0309   -1.6078   -0.6039 C   0  0  0  0  0  0  0  0  0  0  0  0 
    1.2150    1.2603    0.3297 C   0  0  0  0  0  0  0  0  0  0  0  0 
    1.2132   -1.2622    0.3296 C   0  0  0  0  0  0  0  0  0  0  0  0 
    1.8830   -0.0014   -0.0142 N   0  0  0  0  0  0  0  0  0  0  0  0 
   -2.6320    0.0019    1.0763 H   0  0  0  0  0  0  0  0  0  0  0  0 
   -0.9694    0.0006    1.6027 H   0  0  0  0  0  0  0  0  0  0  0  0 
   -1.6590    2.1327    0.6249 H   0  0  0  0  0  0  0  0  0  0  0  0 
   -2.0962    1.3759   -0.8933 H   0  0  0  0  0  0  0  0  0  0  0  0 
   -2.0982   -1.3728   -0.8934 H   0  0  0  0  0  0  0  0  0  0  0  0 
   -1.6623   -2.1303    0.6247 H   0  0  0  0  0  0  0  0  0  0  0  0 
    0.0762    2.6797   -0.8368 H   0  0  0  0  0  0  0  0  0  0  0  0 
    0.2032    1.0933   -1.5550 H   0  0  0  0  0  0  0  0  0  0  0  0 
    0.2016   -1.0936   -1.5551 H   0  0  0  0  0  0  0  0  0  0  0  0 
    0.0723   -2.6798   -0.8368 H   0  0  0  0  0  0  0  0  0  0  0  0 
    0.8854    1.3015    1.3861 H   0  0  0  0  0  0  0  0  0  0  0  0 
    1.9822    2.0359    0.2214 H   0  0  0  0  0  0  0  0  0  0  0  0 
    1.9792   -2.0389    0.2213 H   0  0  0  0  0  0  0  0  0  0  0  0 
    0.8835   -1.3030    1.3861 H   0  0  0  0  0  0  0  0  0  0  0  0 
    2.7934   -0.0021    0.4404 H   0  0  0  0  0  0  0  0  0  0  0  0 
  1  9  1  0  0  0  0 
  1 10  1  0  0  0  0 
  2 11  1  0  0  0  0 
  2  1  1  0  0  0  0 
  3 14  1  0  0  0  0 
  3  1  1  0  0  0  0 
  4  2  1  0  0  0  0 
  4  6  1  0  0  0  0 
  5  3  1  0  0  0  0 
  5  7  1  0  0  0  0 
  6 19  1  0  0  0  0 
  7 22  1  0  0  0  0 
  8  7  1  0  0  0  0 
  8  6  1  0  0  0  0 
  8 23  1  0  0  0  0 
 12  2  1  0  0  0  0 
 13  3  1  0  0  0  0 
 15  4  1  0  0  0  0 
 16  4  1  0  0  0  0 
 17  5  1  0  0  0  0 
 18  5  1  0  0  0  0 
 20  6  1  0  0  0  0 
 21  7  1  0  0  0  0 
M  END 
>  <HBA> 
1 
 
>  <HBD> 
1 
 
>  <TPSA> 
12.03 
 
>  <cid> 
14276 
 
>  <dipole> 
0.87 
 
>  <excitation_energy_1> 
5.118 
 
>  <excitation_energy_2> 
5.719 
 
>  <excitation_energy_3> 
5.811 
 
>  <excitation_energy_4> 
5.844 
 
>  <homo_energy> 
-5.725 
 
>  <homo_lumo_gap> 
7.75 
 
>  <logP> 
1.869 
 
>  <lumo_energy> 
2.025 
 
>  <melting_point> 
22.53 
 
>  <molecular_refractivity> 
40.37 
 
>  <oscillator_strength_1> 
0.0014 
 
>  <oscillator_strength_2> 
0.0007 
 
>  <oscillator_strength_3> 
0.0183 
 
>  <oscillator_strength_4> 
0.0577 
 
>  <open_babel_can_smiles> 
C1CCCCNCC1 
 
>  <mulliken_charges> 
23 
1   -0.260186 
2   -0.257874 
3   -0.257882 
4   -0.262276 
5   -0.262276 
6   -0.129428 
7   -0.129431 
8   -0.551986 
9   0.127744 
10   0.132027 
11   0.127266 
12   0.127433 
13   0.127435 
14   0.127269 
15   0.129641 
16   0.151901 
17   0.151899 
18   0.129641 
19   0.113089 
20   0.130722 
21   0.130723 
22   0.113089 
23   0.291463 
 
>  <lowdin_charges> 
23 
1   -0.283972 
2   -0.280856 
3   -0.280859 
4   -0.289115 
5   -0.289114 
6   -0.204823 
7   -0.204826 
8   -0.367794 
9   0.143107 
10   0.137448 
11   0.140491 
12   0.140798 
13   0.140799 
14   0.140495 
15   0.143185 
16   0.149841 
17   0.14984 
18   0.143183 
19   0.115418 
20   0.144334 
21   0.144334 
22   0.115418 
23   0.252668 
 
$$$$ 
 
