PCCDB-ID:  69155 
public computational chemistry database (PCCDB) project, http://pccdb.org 
 
 20 21  0  0  0  0  0  0  0  0999 V2000 
    2.4655    0.7283   -0.0064 C   0  0  0  0  0  0  0  0  0  0  0  0 
    2.4829   -0.6691    0.0096 C   0  0  0  0  0  0  0  0  0  0  0  0 
   -2.5078    0.6340   -0.0068 C   0  0  0  0  0  0  0  0  0  0  0  0 
   -2.4911   -0.6993    0.0073 C   0  0  0  0  0  0  0  0  0  0  0  0 
    1.2460    1.3978   -0.0176 C   0  0  0  0  0  0  0  0  0  0  0  0 
    1.2805   -1.3690    0.0140 C   0  0  0  0  0  0  0  0  0  0  0  0 
   -1.2698    1.4852   -0.0243 C   0  0  0  0  0  0  0  0  0  0  0  0 
   -1.2322   -1.5194    0.0097 C   0  0  0  0  0  0  0  0  0  0  0  0 
    0.0287    0.7003   -0.0124 C   0  0  0  0  0  0  0  0  0  0  0  0 
    0.0462   -0.7022    0.0034 C   0  0  0  0  0  0  0  0  0  0  0  0 
    3.3960    1.2899   -0.0100 H   0  0  0  0  0  0  0  0  0  0  0  0 
    3.4272   -1.2072    0.0192 H   0  0  0  0  0  0  0  0  0  0  0  0 
   -3.4597    1.1626   -0.0063 H   0  0  0  0  0  0  0  0  0  0  0  0 
   -3.4296   -1.2514    0.0182 H   0  0  0  0  0  0  0  0  0  0  0  0 
    1.2288    2.4862   -0.0311 H   0  0  0  0  0  0  0  0  0  0  0  0 
    1.2906   -2.4574    0.0252 H   0  0  0  0  0  0  0  0  0  0  0  0 
   -1.2885    2.1757    0.8342 H   0  0  0  0  0  0  0  0  0  0  0  0 
   -1.2918    2.1433   -0.9080 H   0  0  0  0  0  0  0  0  0  0  0  0 
   -1.2371   -2.1992   -0.8576 H   0  0  0  0  0  0  0  0  0  0  0  0 
   -1.2343   -2.1890    0.8849 H   0  0  0  0  0  0  0  0  0  0  0  0 
  1  2  2  0  0  0  0 
  2  6  1  0  0  0  0 
  2 12  1  0  0  0  0 
  3 13  1  0  0  0  0 
  3  4  2  0  0  0  0 
  4  8  1  0  0  0  0 
  4 14  1  0  0  0  0 
  5  9  2  0  0  0  0 
  5  1  1  0  0  0  0 
  6 16  1  0  0  0  0 
  7  9  1  0  0  0  0 
  7  3  1  0  0  0  0 
  7 17  1  0  0  0  0 
  8 20  1  0  0  0  0 
  9 10  1  0  0  0  0 
 10  8  1  0  0  0  0 
 10  6  2  0  0  0  0 
 11  1  1  0  0  0  0 
 15  5  1  0  0  0  0 
 18  7  1  0  0  0  0 
 19  8  1  0  0  0  0 
M  END 
>  <HBA> 
0 
 
>  <HBD> 
0 
 
>  <TPSA> 
0.0 
 
>  <cid> 
69155 
 
>  <dipole> 
0.26 
 
>  <excitation_energy_1> 
5.093 
 
>  <excitation_energy_2> 
5.509 
 
>  <excitation_energy_3> 
5.69 
 
>  <excitation_energy_4> 
5.777 
 
>  <homo_energy> 
-6.133 
 
>  <homo_lumo_gap> 
6.196 
 
>  <logP> 
2.341 
 
>  <lumo_energy> 
0.063 
 
>  <melting_point> 
43.03 
 
>  <molecular_refractivity> 
43.4 
 
>  <oscillator_strength_1> 
0.0068 
 
>  <oscillator_strength_2> 
0.0034 
 
>  <oscillator_strength_3> 
0.0037 
 
>  <oscillator_strength_4> 
0.0001 
 
>  <open_babel_can_smiles> 
C1=CCc2c(C1)cccc2 
 
>  <mulliken_charges> 
20 
1   -0.129864 
2   -0.129948 
3   -0.101036 
4   -0.101134 
5   -0.185641 
6   -0.185573 
7   -0.386737 
8   -0.386674 
9   0.121434 
10   0.121279 
11   0.125261 
12   0.125235 
13   0.12037 
14   0.120388 
15   0.118898 
16   0.118906 
17   0.158524 
18   0.158892 
19   0.158814 
20   0.158607 
 
>  <lowdin_charges> 
20 
1   -0.160371 
2   -0.160188 
3   -0.172283 
4   -0.172419 
5   -0.160702 
6   -0.16071 
7   -0.272785 
8   -0.272762 
9   -0.01081 
10   -0.010869 
11   0.156168 
12   0.156026 
13   0.15309 
14   0.153226 
15   0.150731 
16   0.150728 
17   0.158443 
18   0.158516 
19   0.158533 
20   0.158438 
 
$$$$ 
 
