PCCDB-ID:  17627 
public computational chemistry database (PCCDB) project, http://pccdb.org 
 
 27 27  0  0  1  0  0  0  0  0999 V2000 
    0.6999   -1.9003    1.5305 C   0  0  0  0  0  0  0  0  0  0  0  0 
    5.3581    0.0939    1.0468 C   0  0  0  0  0  0  0  0  0  0  0  0 
    2.2033   -2.1938    1.5708 C   0  0  0  0  0  0  0  0  0  0  0  0 
    6.0474   -2.8759    5.1400 C   0  0  0  0  0  0  0  0  0  0  0  0 
    6.1832   -3.5825    3.9452 C   0  0  0  0  0  0  0  0  0  0  0  0 
    5.4304   -1.6229    5.1285 C   0  0  0  0  0  0  0  0  0  0  0  0 
    3.0620   -0.9339    1.4065 C   0  0  0  0  0  0  0  0  0  0  0  0 
    5.7056   -3.0379    2.7511 C   0  0  0  0  0  0  0  0  0  0  0  0 
    4.9562   -1.0842    3.9327 C   0  0  0  0  0  0  0  0  0  0  0  0 
    4.5864   -1.1901    1.4090 C   0  0  2  0  0  0  0  0  0  0  0  0 
    5.0848   -1.7825    2.7218 C   0  0  0  0  0  0  0  0  0  0  0  0 
    0.1107   -2.8166    1.6503 H   0  0  0  0  0  0  0  0  0  0  0  0 
    0.4089   -1.4387    0.5786 H   0  0  0  0  0  0  0  0  0  0  0  0 
    0.4093   -1.2112    2.3332 H   0  0  0  0  0  0  0  0  0  0  0  0 
    5.0462    0.4702    0.0651 H   0  0  0  0  0  0  0  0  0  0  0  0 
    6.4377   -0.0889    1.0164 H   0  0  0  0  0  0  0  0  0  0  0  0 
    5.1757    0.8879    1.7807 H   0  0  0  0  0  0  0  0  0  0  0  0 
    2.4578   -2.9098    0.7760 H   0  0  0  0  0  0  0  0  0  0  0  0 
    2.4557   -2.6872    2.5180 H   0  0  0  0  0  0  0  0  0  0  0  0 
    6.4180   -3.2958    6.0714 H   0  0  0  0  0  0  0  0  0  0  0  0 
    6.6604   -4.5593    3.9398 H   0  0  0  0  0  0  0  0  0  0  0  0 
    5.3192   -1.0625    6.0535 H   0  0  0  0  0  0  0  0  0  0  0  0 
    2.8124   -0.2163    2.2018 H   0  0  0  0  0  0  0  0  0  0  0  0 
    2.7985   -0.4392    0.4601 H   0  0  0  0  0  0  0  0  0  0  0  0 
    5.8172   -3.5966    1.8242 H   0  0  0  0  0  0  0  0  0  0  0  0 
    4.4796   -0.1067    3.9437 H   0  0  0  0  0  0  0  0  0  0  0  0 
    4.7928   -1.9300    0.6221 H   0  0  0  0  0  0  0  0  0  0  0  0 
  1  3  1  0  0  0  0 
  1 12  1  0  0  0  0 
  1 14  1  0  0  0  0 
  2 10  1  0  0  0  0 
  2 17  1  0  0  0  0 
  3 19  1  0  0  0  0 
  4 20  1  0  0  0  0 
  5  4  2  0  0  0  0 
  6  4  1  0  0  0  0 
  6 22  1  0  0  0  0 
  7 10  1  0  0  0  0 
  7  3  1  0  0  0  0 
  7 23  1  0  0  0  0 
  8  5  1  0  0  0  0 
  9 26  1  0  0  0  0 
  9  6  2  0  0  0  0 
 10 27  1  6  0  0  0 
 10 11  1  0  0  0  0 
 11  8  2  0  0  0  0 
 11  9  1  0  0  0  0 
 13  1  1  0  0  0  0 
 15  2  1  0  0  0  0 
 16  2  1  0  0  0  0 
 18  3  1  0  0  0  0 
 21  5  1  0  0  0  0 
 24  7  1  0  0  0  0 
 25  8  1  0  0  0  0 
M  END 
>  <HBA> 
0 
 
>  <HBD> 
0 
 
>  <TPSA> 
0.0 
 
>  <cid> 
17627 
 
>  <dipole> 
0.18 
 
>  <excitation_energy_1> 
5.302 
 
>  <excitation_energy_2> 
5.915 
 
>  <excitation_energy_3> 
5.985 
 
>  <excitation_energy_4> 
6.204 
 
>  <homo_energy> 
-6.411 
 
>  <homo_lumo_gap> 
6.509 
 
>  <logP> 
3.59 
 
>  <lumo_energy> 
0.098 
 
>  <melting_point> 
4.49 
 
>  <molecular_refractivity> 
50.64 
 
>  <oscillator_strength_1> 
0.0014 
 
>  <oscillator_strength_2> 
0.0261 
 
>  <oscillator_strength_3> 
0.0002 
 
>  <oscillator_strength_4> 
0.0009 
 
>  <open_babel_can_smiles> 
CCC[C@H](c1ccccc1)C 
 
>  <mulliken_charges> 
27 
1   -0.442091 
2   -0.443501 
3   -0.251716 
4   -0.132368 
5   -0.125147 
6   -0.129318 
7   -0.245284 
8   -0.195718 
9   -0.185998 
10   -0.165596 
11   0.184431 
12   0.142052 
13   0.139517 
14   0.141151 
15   0.140493 
16   0.149111 
17   0.143099 
18   0.126742 
19   0.146398 
20   0.126349 
21   0.1266 
22   0.126616 
23   0.127586 
24   0.126174 
25   0.121968 
26   0.124538 
27   0.123911 
 
>  <lowdin_charges> 
27 
1   -0.445178 
2   -0.439484 
3   -0.27623 
4   -0.163242 
5   -0.154551 
6   -0.155954 
7   -0.274074 
8   -0.171557 
9   -0.166173 
10   -0.122658 
11   0.001073 
12   0.14969 
13   0.14496 
14   0.146897 
15   0.147521 
16   0.151031 
17   0.148198 
18   0.13835 
19   0.147703 
20   0.156465 
21   0.155518 
22   0.156175 
23   0.138903 
24   0.139435 
25   0.153521 
26   0.1529 
27   0.140761 
 
$$$$ 
 
