PCCDB-ID:  18705 
public computational chemistry database (PCCDB) project, http://pccdb.org 
 
 22 23  0  0  0  0  0  0  0  0999 V2000 
   -1.4800   -0.1698    0.1084 C   0  0  0  0  0  0  0  0  0  0  0  0 
   -0.9045    1.1032    0.1147 C   0  0  0  0  0  0  0  0  0  0  0  0 
   -0.6584   -1.2913   -0.0024 C   0  0  0  0  0  0  0  0  0  0  0  0 
    5.4928    0.9644   -0.2667 C   0  0  0  0  0  0  0  0  0  0  0  0 
    0.4754    1.2495    0.0104 C   0  0  0  0  0  0  0  0  0  0  0  0 
    0.7248   -1.1487   -0.1158 C   0  0  0  0  0  0  0  0  0  0  0  0 
    5.0563   -0.2320   -0.8259 C   0  0  0  0  0  0  0  0  0  0  0  0 
    4.5334    1.8059    0.2928 C   0  0  0  0  0  0  0  0  0  0  0  0 
    1.3150    0.1272   -0.1142 C   0  0  0  0  0  0  0  0  0  0  0  0 
    3.6977   -0.5497   -0.8026 C   0  0  0  0  0  0  0  0  0  0  0  0 
    2.7852    0.3514   -0.1977 C   0  0  0  0  0  0  0  0  0  0  0  0 
    3.2350    1.5068    0.3237 N   0  0  0  0  0  0  0  0  0  0  0  0 
    3.2324   -1.7043   -1.3700 O   0  0  0  0  0  0  0  0  0  0  0  0 
   -2.5577   -0.2852    0.1910 H   0  0  0  0  0  0  0  0  0  0  0  0 
   -1.5334    1.9856    0.2018 H   0  0  0  0  0  0  0  0  0  0  0  0 
   -1.0929   -2.2877    0.0022 H   0  0  0  0  0  0  0  0  0  0  0  0 
    6.5444    1.2343   -0.2691 H   0  0  0  0  0  0  0  0  0  0  0  0 
    0.9284    2.2342    0.0301 H   0  0  0  0  0  0  0  0  0  0  0  0 
    1.3448   -2.0318   -0.1972 H   0  0  0  0  0  0  0  0  0  0  0  0 
    5.7616   -0.9206   -1.2894 H   0  0  0  0  0  0  0  0  0  0  0  0 
    4.8179    2.7576    0.7378 H   0  0  0  0  0  0  0  0  0  0  0  0 
    3.9766   -2.1706   -1.7831 H   0  0  0  0  0  0  0  0  0  0  0  0 
  1  2  1  0  0  0  0 
  1 14  1  0  0  0  0 
  2 15  1  0  0  0  0 
  3 16  1  0  0  0  0 
  3  1  2  0  0  0  0 
  4  8  2  0  0  0  0 
  5 18  1  0  0  0  0 
  5  2  2  0  0  0  0 
  6  9  2  0  0  0  0 
  6  3  1  0  0  0  0 
  7 10  2  0  0  0  0 
  7  4  1  0  0  0  0 
  8 12  1  0  0  0  0 
  8 21  1  0  0  0  0 
  9  5  1  0  0  0  0 
 10 11  1  0  0  0  0 
 11  9  1  0  0  0  0 
 11 12  2  0  0  0  0 
 13 10  1  0  0  0  0 
 17  4  1  0  0  0  0 
 19  6  1  0  0  0  0 
 20  7  1  0  0  0  0 
 22 13  1  0  0  0  0 
M  END 
>  <HBA> 
2 
 
>  <HBD> 
1 
 
>  <TPSA> 
33.12 
 
>  <cid> 
18705 
 
>  <dipole> 
3.27 
 
>  <excitation_energy_1> 
4.282 
 
>  <excitation_energy_2> 
4.529 
 
>  <excitation_energy_3> 
4.69 
 
>  <excitation_energy_4> 
5.001 
 
>  <homo_energy> 
-5.842 
 
>  <homo_lumo_gap> 
4.825 
 
>  <logP> 
2.454 
 
>  <lumo_energy> 
-1.018 
 
>  <melting_point> 
97.07 
 
>  <molecular_refractivity> 
51.7 
 
>  <oscillator_strength_1> 
0.3463 
 
>  <oscillator_strength_2> 
0.0092 
 
>  <oscillator_strength_3> 
0.0087 
 
>  <oscillator_strength_4> 
0.0915 
 
>  <open_babel_can_smiles> 
Oc1cccnc1c1ccccc1 
 
>  <mulliken_charges> 
22 
1   -0.122994 
2   -0.136853 
3   -0.13971 
4   -0.147078 
5   -0.154577 
6   -0.170494 
7   -0.162099 
8   0.034467 
9   0.113926 
10   0.31324 
11   0.206138 
12   -0.487908 
13   -0.64062 
14   0.125669 
15   0.126825 
16   0.125037 
17   0.138738 
18   0.15098 
19   0.149794 
20   0.129279 
21   0.138523 
22   0.409717 
 
>  <lowdin_charges> 
22 
1   -0.15168 
2   -0.161125 
3   -0.161 
4   -0.167166 
5   -0.143592 
6   -0.158049 
7   -0.187566 
8   -0.106934 
9   -0.010631 
10   0.086131 
11   0.027988 
12   -0.141009 
13   -0.36935 
14   0.153884 
15   0.156972 
16   0.154941 
17   0.163987 
18   0.170488 
19   0.169086 
20   0.158877 
21   0.156167 
22   0.35958 
 
$$$$ 
 
