PCCDB-ID:  19461 
public computational chemistry database (PCCDB) project, http://pccdb.org 
 
 22 21  0  0  0  0  0  0  0  0999 V2000 
    1.4756    3.4596    0.1730 C   0  0  0  0  0  0  0  0  0  0  0  0 
    5.4713    4.6836   -3.1635 C   0  0  0  0  0  0  0  0  0  0  0  0 
    2.1033    2.3583    0.5887 C   0  0  0  0  0  0  0  0  0  0  0  0 
    5.1600    4.2491   -1.7593 C   0  0  0  0  0  0  0  0  0  0  0  0 
    2.9779    1.4750   -0.2600 C   0  0  0  0  0  0  0  0  0  0  0  0 
    5.5376    3.0923   -1.2074 C   0  0  0  0  0  0  0  0  0  0  0  0 
    4.4189    1.3476    0.2763 C   0  0  0  0  0  0  0  0  0  0  0  0 
    5.2372    2.6543    0.2014 C   0  0  0  0  0  0  0  0  0  0  0  0 
    0.8527    4.0516    0.8386 H   0  0  0  0  0  0  0  0  0  0  0  0 
    1.5557    3.8071   -0.8552 H   0  0  0  0  0  0  0  0  0  0  0  0 
    4.5535    4.8811   -3.7342 H   0  0  0  0  0  0  0  0  0  0  0  0 
    6.0478    3.9235   -3.7021 H   0  0  0  0  0  0  0  0  0  0  0  0 
    6.0505    5.6173   -3.1731 H   0  0  0  0  0  0  0  0  0  0  0  0 
    1.9941    2.0515    1.6316 H   0  0  0  0  0  0  0  0  0  0  0  0 
    4.5842    4.9529   -1.1552 H   0  0  0  0  0  0  0  0  0  0  0  0 
    3.0001    1.8530   -1.2893 H   0  0  0  0  0  0  0  0  0  0  0  0 
    2.5366    0.4678   -0.2995 H   0  0  0  0  0  0  0  0  0  0  0  0 
    6.1107    2.3851   -1.8132 H   0  0  0  0  0  0  0  0  0  0  0  0 
    4.9396    0.5619   -0.2883 H   0  0  0  0  0  0  0  0  0  0  0  0 
    4.3876    1.0059    1.3203 H   0  0  0  0  0  0  0  0  0  0  0  0 
    4.7039    3.4522    0.7327 H   0  0  0  0  0  0  0  0  0  0  0  0 
    6.1838    2.4941    0.7392 H   0  0  0  0  0  0  0  0  0  0  0  0 
  1  3  2  0  0  0  0 
  1  9  1  0  0  0  0 
  2  4  1  0  0  0  0 
  3 14  1  0  0  0  0 
  4  6  2  0  0  0  0 
  4 15  1  0  0  0  0 
  5  7  1  0  0  0  0 
  5  3  1  0  0  0  0 
  6  8  1  0  0  0  0 
  7 20  1  0  0  0  0 
  8  7  1  0  0  0  0 
  8 21  1  0  0  0  0 
  8 22  1  0  0  0  0 
 10  1  1  0  0  0  0 
 11  2  1  0  0  0  0 
 12  2  1  0  0  0  0 
 13  2  1  0  0  0  0 
 16  5  1  0  0  0  0 
 17  5  1  0  0  0  0 
 18  6  1  0  0  0  0 
 19  7  1  0  0  0  0 
M  END 
>  <HBA> 
0 
 
>  <HBD> 
0 
 
>  <TPSA> 
0.0 
 
>  <cid> 
19461 
 
>  <dipole> 
0.26 
 
>  <excitation_energy_1> 
5.867 
 
>  <excitation_energy_2> 
6.09 
 
>  <excitation_energy_3> 
6.294 
 
>  <excitation_energy_4> 
6.427 
 
>  <homo_energy> 
-6.378 
 
>  <homo_lumo_gap> 
7.067 
 
>  <logP> 
2.919 
 
>  <lumo_energy> 
0.688 
 
>  <melting_point> 
-38.7 
 
>  <molecular_refractivity> 
39.62 
 
>  <oscillator_strength_1> 
0.0047 
 
>  <oscillator_strength_2> 
0.0143 
 
>  <oscillator_strength_3> 
0.0179 
 
>  <oscillator_strength_4> 
0.024 
 
>  <open_babel_can_smiles> 
C=CCCC/C=C/C 
 
>  <mulliken_charges> 
22 
1   -0.342931 
2   -0.486513 
3   -0.040696 
4   -0.093408 
5   -0.297176 
6   -0.087074 
7   -0.264303 
8   -0.299398 
9   0.135552 
10   0.136689 
11   0.15226 
12   0.150257 
13   0.153413 
14   0.120527 
15   0.122048 
16   0.146389 
17   0.139426 
18   0.110563 
19   0.13117 
20   0.13004 
21   0.146043 
22   0.137121 
 
>  <lowdin_charges> 
22 
1   -0.34704 
2   -0.440884 
3   -0.142397 
4   -0.169772 
5   -0.27435 
6   -0.172418 
7   -0.273005 
8   -0.275659 
9   0.157678 
10   0.153496 
11   0.15515 
12   0.154535 
13   0.155476 
14   0.145179 
15   0.149092 
16   0.150093 
17   0.149288 
18   0.1435 
19   0.142697 
20   0.139577 
21   0.151639 
22   0.148124 
 
$$$$ 
 
