PCCDB-ID:  11260 
public computational chemistry database (PCCDB) project, http://pccdb.org 
 
 23 22  0  0  1  0  0  0  0  0999 V2000 
    3.5192    0.5859   -1.2380 C   0  0  0  0  0  0  0  0  0  0  0  0 
    5.5896   -1.5213    2.1399 C   0  0  0  0  0  0  0  0  0  0  0  0 
    5.1508   -2.6772   -0.0633 C   0  0  0  0  0  0  0  0  0  0  0  0 
    2.5453   -1.9966    1.5528 C   0  0  0  0  0  0  0  0  0  0  0  0 
    2.8187   -0.5610   -0.5000 C   0  0  0  0  0  0  0  0  0  0  0  0 
    4.9317   -1.3941    0.7556 C   0  0  0  0  0  0  0  0  0  0  0  0 
    3.4421   -0.9580    0.8569 C   0  0  2  0  0  0  0  0  0  0  0  0 
    2.9467    0.8846   -2.1238 H   0  0  0  0  0  0  0  0  0  0  0  0 
    4.5231    0.3093   -1.5782 H   0  0  0  0  0  0  0  0  0  0  0  0 
    3.6184    1.4696   -0.5949 H   0  0  0  0  0  0  0  0  0  0  0  0 
    6.6689   -1.6891    2.0423 H   0  0  0  0  0  0  0  0  0  0  0  0 
    5.1808   -2.3629    2.7114 H   0  0  0  0  0  0  0  0  0  0  0  0 
    5.4459   -0.6115    2.7358 H   0  0  0  0  0  0  0  0  0  0  0  0 
    6.2222   -2.8897   -0.1612 H   0  0  0  0  0  0  0  0  0  0  0  0 
    4.7385   -2.5976   -1.0754 H   0  0  0  0  0  0  0  0  0  0  0  0 
    4.6894   -3.5478    0.4182 H   0  0  0  0  0  0  0  0  0  0  0  0 
    1.5317   -1.5997    1.6843 H   0  0  0  0  0  0  0  0  0  0  0  0 
    2.9206   -2.2703    2.5445 H   0  0  0  0  0  0  0  0  0  0  0  0 
    2.4596   -2.9169    0.9626 H   0  0  0  0  0  0  0  0  0  0  0  0 
    2.7669   -1.4411   -1.1563 H   0  0  0  0  0  0  0  0  0  0  0  0 
    1.7750   -0.2717   -0.3141 H   0  0  0  0  0  0  0  0  0  0  0  0 
    5.4593   -0.5828    0.2350 H   0  0  0  0  0  0  0  0  0  0  0  0 
    3.4352   -0.0511    1.4834 H   0  0  0  0  0  0  0  0  0  0  0  0 
  1 10  1  0  0  0  0 
  1  5  1  0  0  0  0 
  2 12  1  0  0  0  0 
  2 13  1  0  0  0  0 
  3 16  1  0  0  0  0 
  3  6  1  0  0  0  0 
  4 17  1  0  0  0  0 
  4 18  1  0  0  0  0 
  5 21  1  0  0  0  0 
  5  7  1  0  0  0  0 
  6  7  1  0  0  0  0 
  6  2  1  0  0  0  0 
  7 23  1  1  0  0  0 
  7  4  1  0  0  0  0 
  8  1  1  0  0  0  0 
  9  1  1  0  0  0  0 
 11  2  1  0  0  0  0 
 14  3  1  0  0  0  0 
 15  3  1  0  0  0  0 
 19  4  1  0  0  0  0 
 20  5  1  0  0  0  0 
 22  6  1  0  0  0  0 
M  END 
>  <HBA> 
0 
 
>  <HBD> 
0 
 
>  <TPSA> 
0.0 
 
>  <cid> 
11260 
 
>  <dipole> 
0.09 
 
>  <excitation_energy_1> 
7.576 
 
>  <excitation_energy_2> 
7.712 
 
>  <excitation_energy_3> 
7.861 
 
>  <excitation_energy_4> 
7.981 
 
>  <homo_energy> 
-8.068 
 
>  <homo_lumo_gap> 
10.21 
 
>  <logP> 
2.688 
 
>  <lumo_energy> 
2.142 
 
>  <melting_point> 
-27.23 
 
>  <molecular_refractivity> 
35.76 
 
>  <oscillator_strength_1> 
0.0016 
 
>  <oscillator_strength_2> 
0.0048 
 
>  <oscillator_strength_3> 
0.0133 
 
>  <oscillator_strength_4> 
0.0005 
 
>  <open_babel_can_smiles> 
CC[C@H](C(C)C)C 
 
>  <mulliken_charges> 
23 
1   -0.449997 
2   -0.44899 
3   -0.453236 
4   -0.458003 
5   -0.2519 
6   -0.06751 
7   -0.059272 
8   0.141021 
9   0.146936 
10   0.140529 
11   0.13817 
12   0.14171 
13   0.137844 
14   0.138891 
15   0.143222 
16   0.142531 
17   0.138846 
18   0.143255 
19   0.142164 
20   0.130096 
21   0.127731 
22   0.123902 
23   0.112057 
 
>  <lowdin_charges> 
23 
1   -0.448142 
2   -0.445454 
3   -0.447493 
4   -0.447732 
5   -0.275458 
6   -0.125862 
7   -0.126024 
8   0.150346 
9   0.14649 
10   0.146276 
11   0.145708 
12   0.146124 
13   0.146571 
14   0.146978 
15   0.147058 
16   0.147282 
17   0.147404 
18   0.148213 
19   0.146479 
20   0.138815 
21   0.139557 
22   0.1396 
23   0.133264 
 
$$$$ 
 
