PCCDB-ID:  16240 
public computational chemistry database (PCCDB) project, http://pccdb.org 
 
 31 30  0  0  0  0  0  0  0  0999 V2000 
    0.2518    1.0765   -2.2658 C   0  0  0  0  0  0  0  0  0  0  0  0 
    1.7422    0.7220   -2.2996 C   0  0  0  0  0  0  0  0  0  0  0  0 
    2.5302    1.3417   -1.1368 C   0  0  0  0  0  0  0  0  0  0  0  0 
    4.0199    0.9624   -1.0904 C   0  0  0  0  0  0  0  0  0  0  0  0 
    4.8645    1.5210   -2.2446 C   0  0  0  0  0  0  0  0  0  0  0  0 
    6.3541    1.1743   -2.1224 C   0  0  0  0  0  0  0  0  0  0  0  0 
    7.2002    1.7416   -3.2692 C   0  0  0  0  0  0  0  0  0  0  0  0 
    8.6840    1.4021   -3.1725 C   0  0  0  0  0  0  0  0  0  0  0  0 
    8.9915   -0.6215   -4.3779 C   0  0  0  0  0  0  0  0  0  0  0  0 
    8.8837   -0.0045   -5.4877 N   0  0  0  0  0  0  0  0  0  0  0  0 
    9.1979   -1.9467   -4.1458 O   0  0  0  0  0  0  0  0  0  0  0  0 
    8.9202   -0.0249   -3.1842 O   0  0  0  0  0  0  0  0  0  0  0  0 
   -0.2887    0.6201   -3.1031 H   0  0  0  0  0  0  0  0  0  0  0  0 
    0.1016    2.1617   -2.3249 H   0  0  0  0  0  0  0  0  0  0  0  0 
   -0.2175    0.7290   -1.3370 H   0  0  0  0  0  0  0  0  0  0  0  0 
    2.1684    1.0497   -3.2568 H   0  0  0  0  0  0  0  0  0  0  0  0 
    1.8599   -0.3711   -2.2714 H   0  0  0  0  0  0  0  0  0  0  0  0 
    2.0592    1.0344   -0.1920 H   0  0  0  0  0  0  0  0  0  0  0  0 
    2.4353    2.4374   -1.1787 H   0  0  0  0  0  0  0  0  0  0  0  0 
    4.1140   -0.1336   -1.0696 H   0  0  0  0  0  0  0  0  0  0  0  0 
    4.4443    1.3191   -0.1410 H   0  0  0  0  0  0  0  0  0  0  0  0 
    4.7456    2.6147   -2.2821 H   0  0  0  0  0  0  0  0  0  0  0  0 
    4.4888    1.1416   -3.2048 H   0  0  0  0  0  0  0  0  0  0  0  0 
    6.4750    0.0836   -2.0890 H   0  0  0  0  0  0  0  0  0  0  0  0 
    6.7391    1.5532   -1.1636 H   0  0  0  0  0  0  0  0  0  0  0  0 
    7.1186    2.8384   -3.2838 H   0  0  0  0  0  0  0  0  0  0  0  0 
    6.8231    1.3900   -4.2369 H   0  0  0  0  0  0  0  0  0  0  0  0 
    9.1005    1.7259   -2.2139 H   0  0  0  0  0  0  0  0  0  0  0  0 
    9.2464    1.8580   -3.9907 H   0  0  0  0  0  0  0  0  0  0  0  0 
    8.9832   -0.6252   -6.2901 H   0  0  0  0  0  0  0  0  0  0  0  0 
    9.2522   -2.3996   -5.0011 H   0  0  0  0  0  0  0  0  0  0  0  0 
  1 15  1  0  0  0  0 
  2 17  1  0  0  0  0 
  2  1  1  0  0  0  0 
  2  3  1  0  0  0  0 
  3  4  1  0  0  0  0 
  3 18  1  0  0  0  0 
  4 20  1  0  0  0  0 
  4 21  1  0  0  0  0 
  5  6  1  0  0  0  0 
  5  4  1  0  0  0  0 
  6 24  1  0  0  0  0 
  6 25  1  0  0  0  0 
  7  8  1  0  0  0  0 
  7  6  1  0  0  0  0 
  8 28  1  0  0  0  0 
  9 11  1  0  0  0  0 
  9 12  1  0  0  0  0 
 10  9  2  0  0  0  0 
 12  8  1  0  0  0  0 
 13  1  1  0  0  0  0 
 14  1  1  0  0  0  0 
 16  2  1  0  0  0  0 
 19  3  1  0  0  0  0 
 22  5  1  0  0  0  0 
 23  5  1  0  0  0  0 
 26  7  1  0  0  0  0 
 27  7  1  0  0  0  0 
 29  8  1  0  0  0  0 
 30 10  1  0  0  0  0 
 31 11  1  0  0  0  0 
M  END 
>  <HBA> 
3 
 
>  <HBD> 
1 
 
>  <TPSA> 
52.32 
 
>  <cid> 
16240 
 
>  <dipole> 
1.31 
 
>  <excitation_energy_1> 
5.868 
 
>  <excitation_energy_2> 
6.433 
 
>  <excitation_energy_3> 
7.011 
 
>  <excitation_energy_4> 
7.128 
 
>  <homo_energy> 
-6.985 
 
>  <homo_lumo_gap> 
8.261 
 
>  <logP> 
3.143 
 
>  <lumo_energy> 
1.276 
 
>  <melting_point> 
48.47 
 
>  <molecular_refractivity> 
49.76 
 
>  <oscillator_strength_1> 
0.0053 
 
>  <oscillator_strength_2> 
0.0442 
 
>  <oscillator_strength_3> 
0.0205 
 
>  <oscillator_strength_4> 
0.0021 
 
>  <open_babel_can_smiles> 
CCCCCCCCOC(=N)O 
 
>  <mulliken_charges> 
31 
1   -0.441253 
2   -0.248159 
3   -0.247231 
4   -0.254938 
5   -0.254111 
6   -0.254013 
7   -0.283318 
8   -0.038624 
9   0.645217 
10   -0.628958 
11   -0.568823 
12   -0.445855 
13   0.140491 
14   0.140942 
15   0.140615 
16   0.135217 
17   0.128832 
18   0.125848 
19   0.124793 
20   0.127578 
21   0.126483 
22   0.124332 
23   0.133543 
24   0.147662 
25   0.124094 
26   0.132532 
27   0.163676 
28   0.147603 
29   0.174209 
30   0.274906 
31   0.406708 
 
>  <lowdin_charges> 
31 
1   -0.443684 
2   -0.272287 
3   -0.273288 
4   -0.273023 
5   -0.273776 
6   -0.274834 
7   -0.285366 
8   -0.123874 
9   0.190257 
10   -0.476665 
11   -0.365988 
12   -0.180244 
13   0.149443 
14   0.144197 
15   0.145899 
16   0.139921 
17   0.135919 
18   0.139616 
19   0.134377 
20   0.135923 
21   0.139968 
22   0.133712 
23   0.13956 
24   0.145047 
25   0.136229 
26   0.145172 
27   0.157093 
28   0.150059 
29   0.163955 
30   0.256995 
31   0.359689 
 
$$$$ 
 
