PCCDB-ID:  31460 
public computational chemistry database (PCCDB) project, http://pccdb.org 
 
 30 30  0  0  1  0  0  0  0  0999 V2000 
    1.0880    0.0738   -0.4109 C   0  0  0  0  0  0  0  0  0  0  0  0 
    6.5357    0.0453    1.0230 C   0  0  0  0  0  0  0  0  0  0  0  0 
    2.0632    0.3312    5.2427 C   0  0  0  0  0  0  0  0  0  0  0  0 
    4.7400    0.1585    2.7535 C   0  0  0  0  0  0  0  0  0  0  0  0 
    3.2916    0.2098    3.2384 C   0  0  0  0  0  0  0  0  0  0  0  0 
    4.4372    1.2954    0.4654 C   0  0  0  0  0  0  0  0  0  0  0  0 
    4.3936   -1.1770    0.5828 C   0  0  0  0  0  0  0  0  0  0  0  0 
    2.5966    0.0524   -0.3008 C   0  0  1  0  0  0  0  0  0  0  0  0 
    5.0101    0.0823    1.2303 C   0  0  1  0  0  0  0  0  0  0  0  0 
    3.3437    0.2763    4.6580 O   0  0  0  0  0  0  0  0  0  0  0  0 
    3.0182    1.2436    0.3322 O   0  0  0  0  0  0  0  0  0  0  0  0 
    2.9771   -1.0881    0.4421 O   0  0  0  0  0  0  0  0  0  0  0  0 
    0.7675    0.9444   -0.9898 H   0  0  0  0  0  0  0  0  0  0  0  0 
    0.6470    0.1302    0.5885 H   0  0  0  0  0  0  0  0  0  0  0  0 
    0.7361   -0.8370   -0.9033 H   0  0  0  0  0  0  0  0  0  0  0  0 
    7.0098    0.9417    1.4400 H   0  0  0  0  0  0  0  0  0  0  0  0 
    6.7985   -0.0102   -0.0401 H   0  0  0  0  0  0  0  0  0  0  0  0 
    6.9785   -0.8234    1.5244 H   0  0  0  0  0  0  0  0  0  0  0  0 
    2.2019    0.3807    6.3266 H   0  0  0  0  0  0  0  0  0  0  0  0 
    1.4623   -0.5615    5.0013 H   0  0  0  0  0  0  0  0  0  0  0  0 
    1.4994    1.2205    4.9150 H   0  0  0  0  0  0  0  0  0  0  0  0 
    5.2161   -0.7082    3.2323 H   0  0  0  0  0  0  0  0  0  0  0  0 
    5.2524    1.0446    3.1528 H   0  0  0  0  0  0  0  0  0  0  0  0 
    2.7332   -0.6808    2.9155 H   0  0  0  0  0  0  0  0  0  0  0  0 
    2.7658    1.0860    2.8321 H   0  0  0  0  0  0  0  0  0  0  0  0 
    4.8924    1.3425   -0.5391 H   0  0  0  0  0  0  0  0  0  0  0  0 
    4.6628    2.2333    0.9830 H   0  0  0  0  0  0  0  0  0  0  0  0 
    4.5862   -2.0688    1.1880 H   0  0  0  0  0  0  0  0  0  0  0  0 
    4.8457   -1.3358   -0.4117 H   0  0  0  0  0  0  0  0  0  0  0  0 
    3.0760   -0.0031   -1.2986 H   0  0  0  0  0  0  0  0  0  0  0  0 
  1  8  1  0  0  0  0 
  1 14  1  0  0  0  0 
  2 16  1  0  0  0  0 
  2 18  1  0  0  0  0 
  3 19  1  0  0  0  0 
  4 23  1  0  0  0  0 
  4 22  1  0  0  0  0 
  4  5  1  0  0  0  0 
  5 10  1  0  0  0  0 
  6 27  1  0  0  0  0 
  6  9  1  0  0  0  0 
  7 28  1  0  0  0  0 
  7  9  1  0  0  0  0 
  8 30  1  6  0  0  0 
  8 11  1  0  0  0  0 
  8 12  1  0  0  0  0 
  9  2  1  6  0  0  0 
  9  4  1  0  0  0  0 
 10  3  1  0  0  0  0 
 11  6  1  0  0  0  0 
 12  7  1  0  0  0  0 
 13  1  1  0  0  0  0 
 15  1  1  0  0  0  0 
 17  2  1  0  0  0  0 
 20  3  1  0  0  0  0 
 21  3  1  0  0  0  0 
 24  5  1  0  0  0  0 
 25  5  1  0  0  0  0 
 26  6  1  0  0  0  0 
 29  7  1  0  0  0  0 
M  END 
>  <HBA> 
3 
 
>  <HBD> 
0 
 
>  <TPSA> 
27.69 
 
>  <cid> 
31460 
 
>  <dipole> 
1.6 
 
>  <excitation_energy_1> 
6.305 
 
>  <excitation_energy_2> 
6.42 
 
>  <excitation_energy_3> 
6.552 
 
>  <excitation_energy_4> 
6.732 
 
>  <homo_energy> 
-6.539 
 
>  <homo_lumo_gap> 
8.615 
 
>  <logP> 
1.422 
 
>  <lumo_energy> 
2.076 
 
>  <melting_point> 
-14.14 
 
>  <molecular_refractivity> 
46.26 
 
>  <oscillator_strength_1> 
0.0003 
 
>  <oscillator_strength_2> 
0.0263 
 
>  <oscillator_strength_3> 
0.0021 
 
>  <oscillator_strength_4> 
0.0097 
 
>  <open_babel_can_smiles> 
COCC[C@]1(C)CO[C@@H](OC1)C 
 
>  <mulliken_charges> 
30 
1   -0.468736 
2   -0.462411 
3   -0.186315 
4   -0.27626 
5   -0.030103 
6   -0.04148 
7   -0.041154 
8   0.362193 
9   0.042684 
10   -0.469851 
11   -0.476766 
12   -0.477005 
13   0.157708 
14   0.167578 
15   0.157771 
16   0.150695 
17   0.142907 
18   0.150728 
19   0.151912 
20   0.12594 
21   0.125949 
22   0.139498 
23   0.139591 
24   0.136466 
25   0.136422 
26   0.121361 
27   0.149614 
28   0.149575 
29   0.121346 
30   0.100141 
 
>  <lowdin_charges> 
30 
1   -0.449056 
2   -0.442148 
3   -0.278735 
4   -0.27826 
5   -0.144929 
6   -0.137053 
7   -0.137467 
8   0.101037 
9   -0.023003 
10   -0.279527 
11   -0.264388 
12   -0.264418 
13   0.163366 
14   0.16472 
15   0.16319 
16   0.154714 
17   0.146733 
18   0.15491 
19   0.149333 
20   0.129605 
21   0.129659 
22   0.148214 
23   0.148096 
24   0.13551 
25   0.135728 
26   0.129098 
27   0.152636 
28   0.152923 
29   0.129238 
30   0.110274 
 
$$$$ 
 
