PCCDB-ID:  36012 
public computational chemistry database (PCCDB) project, http://pccdb.org 
 
 44 46  0  0  1  0  0  0  0  0999 V2000 
    2.6809   -0.4549   -1.0628 C   0  0  0  0  0  0  0  0  0  0  0  0 
    5.0399    1.6132   -0.5217 C   0  0  0  0  0  0  0  0  0  0  0  0 
    6.5527    1.4968   -0.7213 C   0  0  0  0  0  0  0  0  0  0  0  0 
    2.9516    0.5754    5.6796 C   0  0  0  0  0  0  0  0  0  0  0  0 
    0.5153    0.2858    5.1091 C   0  0  0  0  0  0  0  0  0  0  0  0 
    1.7147    2.4042    4.4683 C   0  0  0  0  0  0  0  0  0  0  0  0 
    2.7531   -0.6714    1.4602 C   0  0  0  0  0  0  0  0  0  0  0  0 
    2.2619   -1.0601    3.8958 C   0  0  0  0  0  0  0  0  0  0  0  0 
    3.4609    1.0478    3.2591 C   0  0  0  0  0  0  0  0  0  0  0  0 
    1.0303    0.7602    2.6889 C   0  0  0  0  0  0  0  0  0  0  0  0 
    3.1205    0.2132    0.2467 C   0  0  1  0  0  0  0  0  0  0  0  0 
    1.8695   -0.4376    5.2511 C   0  0  1  0  0  0  0  0  0  0  0  0 
    3.0691    1.6808    4.6121 C   0  0  2  0  0  0  0  0  0  0  0  0 
    0.6334    1.3907    4.0402 C   0  0  1  0  0  0  0  0  0  0  0  0 
    2.3923    0.0252    2.7950 C   0  0  1  0  0  0  0  0  0  0  0  0 
    4.5816    0.4360    0.2231 N   0  0  0  0  0  0  0  0  0  0  0  0 
    6.8784    0.2726   -1.3493 O   0  0  0  0  0  0  0  0  0  0  0  0 
    1.5888   -0.5397   -1.1033 H   0  0  0  0  0  0  0  0  0  0  0  0 
    3.1120   -1.4596   -1.1390 H   0  0  0  0  0  0  0  0  0  0  0  0 
    3.0035    0.1155   -1.9401 H   0  0  0  0  0  0  0  0  0  0  0  0 
    4.5573    1.6078   -1.5045 H   0  0  0  0  0  0  0  0  0  0  0  0 
    4.7821    2.5706   -0.0326 H   0  0  0  0  0  0  0  0  0  0  0  0 
    7.0598    1.5937    0.2574 H   0  0  0  0  0  0  0  0  0  0  0  0 
    6.9196    2.3094   -1.3583 H   0  0  0  0  0  0  0  0  0  0  0  0 
    3.9174    0.0659    5.8041 H   0  0  0  0  0  0  0  0  0  0  0  0 
    2.6951    1.0155    6.6532 H   0  0  0  0  0  0  0  0  0  0  0  0 
    0.2155    0.7218    6.0722 H   0  0  0  0  0  0  0  0  0  0  0  0 
   -0.2679   -0.4311    4.8257 H   0  0  0  0  0  0  0  0  0  0  0  0 
    1.7936    3.2108    3.7259 H   0  0  0  0  0  0  0  0  0  0  0  0 
    1.4365    2.8742    5.4216 H   0  0  0  0  0  0  0  0  0  0  0  0 
    3.5921   -1.3645    1.6238 H   0  0  0  0  0  0  0  0  0  0  0  0 
    1.8977   -1.3034    1.1859 H   0  0  0  0  0  0  0  0  0  0  0  0 
    1.5098   -1.8021    3.5910 H   0  0  0  0  0  0  0  0  0  0  0  0 
    3.2151   -1.5995    3.9933 H   0  0  0  0  0  0  0  0  0  0  0  0 
    4.4364    0.5475    3.3611 H   0  0  0  0  0  0  0  0  0  0  0  0 
    3.5786    1.8417    2.5086 H   0  0  0  0  0  0  0  0  0  0  0  0 
    1.0796    1.5416    1.9184 H   0  0  0  0  0  0  0  0  0  0  0  0 
    0.2568    0.0481    2.3664 H   0  0  0  0  0  0  0  0  0  0  0  0 
    2.5888    1.1783    0.3295 H   0  0  0  0  0  0  0  0  0  0  0  0 
    1.7876   -1.2315    6.0053 H   0  0  0  0  0  0  0  0  0  0  0  0 
    3.8423    2.4018    4.9093 H   0  0  0  0  0  0  0  0  0  0  0  0 
   -0.3313    1.9039    3.9310 H   0  0  0  0  0  0  0  0  0  0  0  0 
    4.9208    0.5122    1.1795 H   0  0  0  0  0  0  0  0  0  0  0  0 
    6.2669   -0.3692   -0.9395 H   0  0  0  0  0  0  0  0  0  0  0  0 
  1 11  1  0  0  0  0 
  2 22  1  0  0  0  0 
  2 16  1  0  0  0  0 
  3  2  1  0  0  0  0 
  3 23  1  0  0  0  0 
  4 25  1  0  0  0  0 
  4 26  1  0  0  0  0 
  5 12  1  0  0  0  0 
  5 27  1  0  0  0  0 
  6 13  1  0  0  0  0 
  6 30  1  0  0  0  0 
  7 31  1  0  0  0  0 
  8 34  1  0  0  0  0 
  8 12  1  0  0  0  0 
  9 35  1  0  0  0  0 
  9 13  1  0  0  0  0 
 10 15  1  0  0  0  0 
 10 14  1  0  0  0  0 
 11 39  1  1  0  0  0 
 11  7  1  0  0  0  0 
 12  4  1  0  0  0  0 
 12 40  1  1  0  0  0 
 13 41  1  1  0  0  0 
 13  4  1  0  0  0  0 
 14 42  1  6  0  0  0 
 14  6  1  0  0  0  0 
 14  5  1  0  0  0  0 
 15  7  1  6  0  0  0 
 15  9  1  0  0  0  0 
 15  8  1  0  0  0  0 
 16 11  1  0  0  0  0 
 16 43  1  0  0  0  0 
 17 44  1  0  0  0  0 
 17  3  1  0  0  0  0 
 18  1  1  0  0  0  0 
 19  1  1  0  0  0  0 
 20  1  1  0  0  0  0 
 21  2  1  0  0  0  0 
 24  3  1  0  0  0  0 
 28  5  1  0  0  0  0 
 29  6  1  0  0  0  0 
 32  7  1  0  0  0  0 
 33  8  1  0  0  0  0 
 36  9  1  0  0  0  0 
 37 10  1  0  0  0  0 
 38 10  1  0  0  0  0 
M  END 
>  <HBA> 
2 
 
>  <HBD> 
2 
 
>  <TPSA> 
32.26 
 
>  <cid> 
36012 
 
>  <dipole> 
3.38 
 
>  <excitation_energy_1> 
5.646 
 
>  <excitation_energy_2> 
6.029 
 
>  <excitation_energy_3> 
6.135 
 
>  <excitation_energy_4> 
6.224 
 
>  <homo_energy> 
-6.286 
 
>  <homo_lumo_gap> 
7.889 
 
>  <logP> 
2.954 
 
>  <lumo_energy> 
1.603 
 
>  <melting_point> 
99.68 
 
>  <molecular_refractivity> 
71.58 
 
>  <oscillator_strength_1> 
0.004 
 
>  <oscillator_strength_2> 
0.0455 
 
>  <oscillator_strength_3> 
0.0206 
 
>  <oscillator_strength_4> 
0.0132 
 
>  <open_babel_can_smiles> 
OCCN[C@H](C[C@]12C[C@H]3C[C@@H](C2)C[C@@H](C1)C3)C 
 
>  <mulliken_charges> 
44 
1   -0.445358 
2   -0.156128 
3   -0.016513 
4   -0.264931 
5   -0.264634 
6   -0.265361 
7   -0.310342 
8   -0.274449 
9   -0.296085 
10   -0.276924 
11   0.074761 
12   -0.090188 
13   -0.09114 
14   -0.090323 
15   0.093902 
16   -0.601103 
17   -0.62963 
18   0.138726 
19   0.150324 
20   0.147263 
21   0.154033 
22   0.116983 
23   0.107059 
24   0.1385 
25   0.125514 
26   0.126788 
27   0.125887 
28   0.125627 
29   0.124757 
30   0.127145 
31   0.135918 
32   0.134117 
33   0.12493 
34   0.124033 
35   0.121803 
36   0.131065 
37   0.128133 
38   0.123491 
39   0.114608 
40   0.116562 
41   0.11642 
42   0.116291 
43   0.310784 
44   0.397689 
 
>  <lowdin_charges> 
44 
1   -0.446182 
2   -0.225867 
3   -0.137224 
4   -0.280364 
5   -0.28171 
6   -0.281272 
7   -0.283732 
8   -0.279473 
9   -0.287542 
10   -0.283648 
11   -0.057602 
12   -0.132023 
13   -0.131609 
14   -0.13085 
15   0.000261 
16   -0.368663 
17   -0.479029 
18   0.146257 
19   0.151663 
20   0.151043 
21   0.148444 
22   0.12389 
23   0.116434 
24   0.145919 
25   0.139288 
26   0.140273 
27   0.139979 
28   0.140554 
29   0.139638 
30   0.140872 
31   0.14632 
32   0.148204 
33   0.140594 
34   0.138726 
35   0.135196 
36   0.140768 
37   0.139523 
38   0.139889 
39   0.121152 
40   0.140336 
41   0.140308 
42   0.139225 
43   0.253873 
44   0.33816 
 
$$$$ 
 
