PCCDB-ID:  21963 
public computational chemistry database (PCCDB) project, http://pccdb.org 
 
 24 27  0  0  0  0  0  0  0  0999 V2000 
    3.3893   -0.0472   -0.0010 C   0  0  0  0  0  0  0  0  0  0  0  0 
   -3.3938   -0.0331    0.0005 C   0  0  0  0  0  0  0  0  0  0  0  0 
    2.8649    1.2430   -0.0013 C   0  0  0  0  0  0  0  0  0  0  0  0 
   -2.8640    1.2550    0.0002 C   0  0  0  0  0  0  0  0  0  0  0  0 
    2.5751   -1.2134   -0.0005 C   0  0  0  0  0  0  0  0  0  0  0  0 
   -2.5845   -1.2027    0.0009 C   0  0  0  0  0  0  0  0  0  0  0  0 
    0.6923    2.6707   -0.0010 C   0  0  0  0  0  0  0  0  0  0  0  0 
   -0.6855    2.6735   -0.0004 C   0  0  0  0  0  0  0  0  0  0  0  0 
    1.4575    1.4428   -0.0013 C   0  0  0  0  0  0  0  0  0  0  0  0 
   -1.4558    1.4489    0.0002 C   0  0  0  0  0  0  0  0  0  0  0  0 
    1.2048   -1.0411   -0.0005 C   0  0  0  0  0  0  0  0  0  0  0  0 
   -1.2134   -1.0361    0.0009 C   0  0  0  0  0  0  0  0  0  0  0  0 
    0.7058    0.2693   -0.0004 C   0  0  0  0  0  0  0  0  0  0  0  0 
   -0.7090    0.2723    0.0004 C   0  0  0  0  0  0  0  0  0  0  0  0 
   -0.0063   -1.9686    0.0010 C   0  0  0  0  0  0  0  0  0  0  0  0 
   -0.0088   -3.1830    0.0028 O   0  0  0  0  0  0  0  0  0  0  0  0 
    4.4690   -0.1697   -0.0004 H   0  0  0  0  0  0  0  0  0  0  0  0 
   -4.4740   -0.1510    0.0005 H   0  0  0  0  0  0  0  0  0  0  0  0 
    3.5401    2.0954   -0.0020 H   0  0  0  0  0  0  0  0  0  0  0  0 
   -3.5357    2.1102   -0.0003 H   0  0  0  0  0  0  0  0  0  0  0  0 
    3.0278   -2.2009   -0.0013 H   0  0  0  0  0  0  0  0  0  0  0  0 
   -3.0413   -2.1883    0.0010 H   0  0  0  0  0  0  0  0  0  0  0  0 
    1.2223    3.6201   -0.0018 H   0  0  0  0  0  0  0  0  0  0  0  0 
   -1.2115    3.6252    0.0003 H   0  0  0  0  0  0  0  0  0  0  0  0 
  1  5  2  0  0  0  0 
  1 17  1  0  0  0  0 
  2  6  2  0  0  0  0 
  3  9  2  0  0  0  0 
  3  1  1  0  0  0  0 
  4  2  1  0  0  0  0 
  5 11  1  0  0  0  0 
  6 12  1  0  0  0  0 
  6 22  1  0  0  0  0 
  7  8  2  0  0  0  0 
  8 10  1  0  0  0  0 
  8 24  1  0  0  0  0 
  9  7  1  0  0  0  0 
  9 13  1  0  0  0  0 
 10  4  2  0  0  0  0 
 10 14  1  0  0  0  0 
 11 13  2  0  0  0  0 
 11 15  1  0  0  0  0 
 12 15  1  0  0  0  0 
 13 14  1  0  0  0  0 
 14 12  2  0  0  0  0 
 15 16  2  0  0  0  0 
 18  2  1  0  0  0  0 
 19  3  1  0  0  0  0 
 20  4  1  0  0  0  0 
 21  5  1  0  0  0  0 
 23  7  1  0  0  0  0 
M  END 
>  <HBA> 
1 
 
>  <HBD> 
0 
 
>  <TPSA> 
17.07 
 
>  <cid> 
21963 
 
>  <dipole> 
3.31 
 
>  <excitation_energy_1> 
3.145 
 
>  <excitation_energy_2> 
3.205 
 
>  <excitation_energy_3> 
3.305 
 
>  <excitation_energy_4> 
4.165 
 
>  <homo_energy> 
-6.193 
 
>  <homo_lumo_gap> 
3.938 
 
>  <logP> 
3.382 
 
>  <lumo_energy> 
-2.256 
 
>  <melting_point> 
172.23 
 
>  <molecular_refractivity> 
67.6 
 
>  <oscillator_strength_1> 
0.0019 
 
>  <oscillator_strength_2> 
0.0 
 
>  <oscillator_strength_3> 
0.0082 
 
>  <oscillator_strength_4> 
0.0256 
 
>  <open_babel_can_smiles> 
O=c1c2cccc3c2c2c1cccc2cc3 
 
>  <mulliken_charges> 
24 
1   -0.119478 
2   -0.119452 
3   -0.223164 
4   -0.223214 
5   -0.220402 
6   -0.220422 
7   -0.201449 
8   -0.20157 
9   0.210921 
10   0.211002 
11   0.093051 
12   0.093057 
13   -0.054148 
14   -0.054158 
15   0.346482 
16   -0.449046 
17   0.136861 
18   0.136859 
19   0.138703 
20   0.138708 
21   0.15518 
22   0.155174 
23   0.135252 
24   0.13525 
 
>  <lowdin_charges> 
24 
1   -0.153568 
2   -0.153552 
3   -0.143461 
4   -0.143446 
5   -0.128321 
6   -0.128356 
7   -0.154974 
8   -0.154948 
9   -0.006393 
10   -0.006403 
11   -0.045788 
12   -0.045772 
13   0.001588 
14   0.001591 
15   0.157906 
16   -0.209069 
17   0.160753 
18   0.160743 
19   0.162608 
20   0.162598 
21   0.171288 
22   0.171312 
23   0.161843 
24   0.16182 
 
$$$$ 
 
