PCCDB-ID:  35459 
public computational chemistry database (PCCDB) project, http://pccdb.org 
 
 22 22  0  0  0  0  0  0  0  0999 V2000 
    3.4490    2.0048    0.3628 C   0  0  0  0  0  0  0  0  0  0  0  0 
    4.0793    1.5355    5.1248 C   0  0  0  0  0  0  0  0  0  0  0  0 
    3.8380   -2.5155    1.8286 C   0  0  0  0  0  0  0  0  0  0  0  0 
    4.3423   -2.3416    3.1176 C   0  0  0  0  0  0  0  0  0  0  0  0 
    3.2493   -1.4420    1.1591 C   0  0  0  0  0  0  0  0  0  0  0  0 
    4.2440   -1.0953    3.7317 C   0  0  0  0  0  0  0  0  0  0  0  0 
    2.5410    0.9217    0.9172 C   0  0  0  0  0  0  0  0  0  0  0  0 
    3.4857    1.3163    3.7436 C   0  0  0  0  0  0  0  0  0  0  0  0 
    3.1715   -0.1790    1.7532 C   0  0  0  0  0  0  0  0  0  0  0  0 
    3.6599   -0.0051    3.0676 C   0  0  0  0  0  0  0  0  0  0  0  0 
    1.3822    0.8118    0.5635 O   0  0  0  0  0  0  0  0  0  0  0  0 
    2.8626    2.2141    3.1928 O   0  0  0  0  0  0  0  0  0  0  0  0 
    2.8620    2.9044    0.1648 H   0  0  0  0  0  0  0  0  0  0  0  0 
    3.8592    1.6446   -0.5910 H   0  0  0  0  0  0  0  0  0  0  0  0 
    4.2839    2.2410    1.0247 H   0  0  0  0  0  0  0  0  0  0  0  0 
    3.6404    0.8462    5.8557 H   0  0  0  0  0  0  0  0  0  0  0  0 
    3.8702    2.5614    5.4322 H   0  0  0  0  0  0  0  0  0  0  0  0 
    5.1627    1.3679    5.1242 H   0  0  0  0  0  0  0  0  0  0  0  0 
    3.8956   -3.4870    1.3452 H   0  0  0  0  0  0  0  0  0  0  0  0 
    4.7990   -3.1733    3.6463 H   0  0  0  0  0  0  0  0  0  0  0  0 
    2.8447   -1.5790    0.1605 H   0  0  0  0  0  0  0  0  0  0  0  0 
    4.6131   -0.9743    4.7450 H   0  0  0  0  0  0  0  0  0  0  0  0 
  1  7  1  0  0  0  0 
  1 15  1  0  0  0  0 
  2 17  1  0  0  0  0 
  2 16  1  0  0  0  0 
  3  4  2  0  0  0  0 
  4 20  1  0  0  0  0 
  4  6  1  0  0  0  0 
  5  9  2  0  0  0  0 
  5  3  1  0  0  0  0 
  6 22  1  0  0  0  0 
  7  9  1  0  0  0  0 
  8  2  1  0  0  0  0 
  9 10  1  0  0  0  0 
 10  6  2  0  0  0  0 
 10  8  1  0  0  0  0 
 11  7  2  0  0  0  0 
 12  8  2  0  0  0  0 
 13  1  1  0  0  0  0 
 14  1  1  0  0  0  0 
 18  2  1  0  0  0  0 
 19  3  1  0  0  0  0 
 21  5  1  0  0  0  0 
M  END 
>  <HBA> 
2 
 
>  <HBD> 
0 
 
>  <TPSA> 
34.14 
 
>  <cid> 
35459 
 
>  <dipole> 
5.01 
 
>  <excitation_energy_1> 
3.671 
 
>  <excitation_energy_2> 
3.783 
 
>  <excitation_energy_3> 
4.459 
 
>  <excitation_energy_4> 
4.661 
 
>  <homo_energy> 
-6.455 
 
>  <homo_lumo_gap> 
4.615 
 
>  <logP> 
2.092 
 
>  <lumo_energy> 
-1.84 
 
>  <melting_point> 
74.11 
 
>  <molecular_refractivity> 
46.83 
 
>  <oscillator_strength_1> 
0.0035 
 
>  <oscillator_strength_2> 
0.0029 
 
>  <oscillator_strength_3> 
0.0002 
 
>  <oscillator_strength_4> 
0.0283 
 
>  <open_babel_can_smiles> 
CC(=O)c1ccccc1C(=O)C 
 
>  <mulliken_charges> 
22 
1   -0.505559 
2   -0.542667 
3   -0.120135 
4   -0.125175 
5   -0.159811 
6   -0.196311 
7   0.399214 
8   0.408089 
9   0.032839 
10   0.071211 
11   -0.434859 
12   -0.45383 
13   0.186007 
14   0.163469 
15   0.159751 
16   0.17705 
17   0.186831 
18   0.173001 
19   0.144846 
20   0.141249 
21   0.154898 
22   0.139892 
 
>  <lowdin_charges> 
22 
1   -0.467103 
2   -0.473129 
3   -0.134107 
4   -0.155101 
5   -0.143227 
6   -0.144745 
7   0.172482 
8   0.166365 
9   -0.003146 
10   -0.053144 
11   -0.23246 
12   -0.226816 
13   0.178701 
14   0.167725 
15   0.16392 
16   0.174628 
17   0.177167 
18   0.169101 
19   0.165163 
20   0.164737 
21   0.169457 
22   0.163532 
 
$$$$ 
 
