PCCDB-ID:  22332 
public computational chemistry database (PCCDB) project, http://pccdb.org 
 
 17 17  0  0  0  0  0  0  0  0999 V2000 
    0.7872    0.1261    0.3418 C   0  0  0  0  0  0  0  0  0  0  0  0 
    3.0861    0.5316    1.3124 C   0  0  0  0  0  0  0  0  0  0  0  0 
    3.0951   -1.3735   -2.1617 C   0  0  0  0  0  0  0  0  0  0  0  0 
    3.7057    0.0130   -2.3295 C   0  0  0  0  0  0  0  0  0  0  0  0 
    2.2981    0.0820    0.0744 C   0  0  0  0  0  0  0  0  0  0  0  0 
    2.8503   -1.6514   -0.3678 S   0  0  0  0  0  0  0  0  0  0  0  0 
    2.6622    1.1904   -1.3907 S   0  0  0  0  0  0  0  0  0  0  0  0 
    0.5401   -0.4858    1.2171 H   0  0  0  0  0  0  0  0  0  0  0  0 
    0.2211   -0.2462   -0.5151 H   0  0  0  0  0  0  0  0  0  0  0  0 
    0.4664    1.1553    0.5475 H   0  0  0  0  0  0  0  0  0  0  0  0 
    2.9067   -0.1556    2.1490 H   0  0  0  0  0  0  0  0  0  0  0  0 
    2.7637    1.5322    1.6230 H   0  0  0  0  0  0  0  0  0  0  0  0 
    4.1596    0.5575    1.1119 H   0  0  0  0  0  0  0  0  0  0  0  0 
    3.7699   -2.1584   -2.5206 H   0  0  0  0  0  0  0  0  0  0  0  0 
    2.1453   -1.4507   -2.6988 H   0  0  0  0  0  0  0  0  0  0  0  0 
    3.6943    0.3358   -3.3764 H   0  0  0  0  0  0  0  0  0  0  0  0 
    4.7368    0.0335   -1.9644 H   0  0  0  0  0  0  0  0  0  0  0  0 
  1 10  1  0  0  0  0 
  1  8  1  0  0  0  0 
  2 12  1  0  0  0  0 
  2 11  1  0  0  0  0 
  3  6  1  0  0  0  0 
  4  3  1  0  0  0  0 
  4 17  1  0  0  0  0 
  4  7  1  0  0  0  0 
  5  1  1  0  0  0  0 
  5  2  1  0  0  0  0 
  6  5  1  0  0  0  0 
  7  5  1  0  0  0  0 
  9  1  1  0  0  0  0 
 13  2  1  0  0  0  0 
 14  3  1  0  0  0  0 
 15  3  1  0  0  0  0 
 16  4  1  0  0  0  0 
M  END 
>  <HBA> 
2 
 
>  <HBD> 
0 
 
>  <TPSA> 
50.6 
 
>  <cid> 
22332 
 
>  <dipole> 
0.79 
 
>  <excitation_energy_1> 
4.738 
 
>  <excitation_energy_2> 
4.817 
 
>  <excitation_energy_3> 
5.624 
 
>  <excitation_energy_4> 
5.696 
 
>  <homo_energy> 
-6.106 
 
>  <homo_lumo_gap> 
6.128 
 
>  <logP> 
2.203 
 
>  <lumo_energy> 
0.022 
 
>  <melting_point> 
25.64 
 
>  <molecular_refractivity> 
39.26 
 
>  <oscillator_strength_1> 
0.0012 
 
>  <oscillator_strength_2> 
0.0007 
 
>  <oscillator_strength_3> 
0.0367 
 
>  <oscillator_strength_4> 
0.0077 
 
>  <open_babel_can_smiles> 
CC1(C)SCCS1 
 
>  <mulliken_charges> 
17 
1   -0.420232 
2   -0.420609 
3   -0.412057 
4   -0.411993 
5   -0.240097 
6   0.102764 
7   0.102306 
8   0.156444 
9   0.168406 
10   0.155174 
11   0.155183 
12   0.156445 
13   0.168775 
14   0.182126 
15   0.187598 
16   0.182091 
17   0.187676 
 
>  <lowdin_charges> 
17 
1   -0.443945 
2   -0.441969 
3   -0.376317 
4   -0.37213 
5   -0.166591 
6   0.091338 
7   0.089081 
8   0.156763 
9   0.164584 
10   0.154366 
11   0.155835 
12   0.155795 
13   0.162273 
14   0.17326 
15   0.163784 
16   0.17111 
17   0.162763 
 
$$$$ 
 
