PCCDB-ID:  10047 
public computational chemistry database (PCCDB) project, http://pccdb.org 
 
 26 27  0  0  1  0  0  0  0  0999 V2000 
    1.1204    0.4930    0.2060 C   0  0  0  0  0  0  0  0  0  0  0  0 
    2.8552    0.4547   -1.5571 C   0  0  0  0  0  0  0  0  0  0  0  0 
    4.1874    0.3087    1.3961 C   0  0  0  0  0  0  0  0  0  0  0  0 
    3.5879    3.2188   -0.8024 C   0  0  0  0  0  0  0  0  0  0  0  0 
    1.7917    3.2830    0.8530 C   0  0  0  0  0  0  0  0  0  0  0  0 
    4.3722    2.4816   -0.0065 C   0  0  0  0  0  0  0  0  0  0  0  0 
    2.7081    2.4228    1.7727 C   0  0  0  0  0  0  0  0  0  0  0  0 
    2.1560    2.7591   -0.5778 C   0  0  2  0  0  0  0  0  0  0  0  0 
    2.3661    1.2287   -0.3196 C   0  0  0  0  0  0  0  0  0  0  0  0 
    3.4871    1.5025    0.7623 C   0  0  2  0  0  0  0  0  0  0  0  0 
    1.3632   -0.5498    0.4440 H   0  0  0  0  0  0  0  0  0  0  0  0 
    0.3432    0.4725   -0.5684 H   0  0  0  0  0  0  0  0  0  0  0  0 
    0.6802    0.9403    1.0994 H   0  0  0  0  0  0  0  0  0  0  0  0 
    3.0779   -0.5879   -1.2986 H   0  0  0  0  0  0  0  0  0  0  0  0 
    3.7510    0.8934   -2.0000 H   0  0  0  0  0  0  0  0  0  0  0  0 
    2.0722    0.4352   -2.3256 H   0  0  0  0  0  0  0  0  0  0  0  0 
    4.9405    0.6368    2.1235 H   0  0  0  0  0  0  0  0  0  0  0  0 
    4.7001   -0.3040    0.6452 H   0  0  0  0  0  0  0  0  0  0  0  0 
    3.4772   -0.3353    1.9284 H   0  0  0  0  0  0  0  0  0  0  0  0 
    3.8788    4.0681   -1.4135 H   0  0  0  0  0  0  0  0  0  0  0  0 
    1.9874    4.3554    0.9450 H   0  0  0  0  0  0  0  0  0  0  0  0 
    0.7309    3.1269    1.0766 H   0  0  0  0  0  0  0  0  0  0  0  0 
    5.4386    2.6004    0.1661 H   0  0  0  0  0  0  0  0  0  0  0  0 
    2.1244    1.8208    2.4788 H   0  0  0  0  0  0  0  0  0  0  0  0 
    3.4029    3.0270    2.3645 H   0  0  0  0  0  0  0  0  0  0  0  0 
    1.4335    3.0274   -1.3547 H   0  0  0  0  0  0  0  0  0  0  0  0 
  1 11  1  0  0  0  0 
  1 13  1  0  0  0  0 
  2 14  1  0  0  0  0 
  2  9  1  0  0  0  0 
  3 19  1  0  0  0  0 
  3 17  1  0  0  0  0 
  4  8  1  0  0  0  0 
  4  6  2  0  0  0  0 
  5 21  1  0  0  0  0 
  5 22  1  0  0  0  0 
  5  7  1  0  0  0  0 
  6 23  1  0  0  0  0 
  6 10  1  0  0  0  0 
  7 25  1  0  0  0  0 
  7 24  1  0  0  0  0 
  8 26  1  6  0  0  0 
  8  9  1  0  0  0  0 
  8  5  1  0  0  0  0 
  9  1  1  0  0  0  0 
  9 10  1  0  0  0  0 
 10  3  1  1  0  0  0 
 10  7  1  0  0  0  0 
 12  1  1  0  0  0  0 
 15  2  1  0  0  0  0 
 16  2  1  0  0  0  0 
 18  3  1  0  0  0  0 
 20  4  1  0  0  0  0 
M  END 
>  <HBA> 
0 
 
>  <HBD> 
0 
 
>  <TPSA> 
0.0 
 
>  <cid> 
10047 
 
>  <dipole> 
0.21 
 
>  <excitation_energy_1> 
5.837 
 
>  <excitation_energy_2> 
6.152 
 
>  <excitation_energy_3> 
6.174 
 
>  <excitation_energy_4> 
6.24 
 
>  <homo_energy> 
-6.215 
 
>  <homo_lumo_gap> 
6.909 
 
>  <logP> 
2.999 
 
>  <lumo_energy> 
0.694 
 
>  <melting_point> 
63.1 
 
>  <molecular_refractivity> 
44.96 
 
>  <oscillator_strength_1> 
0.0225 
 
>  <oscillator_strength_2> 
0.0142 
 
>  <oscillator_strength_3> 
0.0589 
 
>  <oscillator_strength_4> 
0.0317 
 
>  <open_babel_can_smiles> 
CC1(C)[C@H]2CC[C@]1(C)C=C2 
 
>  <mulliken_charges> 
26 
1   -0.469392 
2   -0.458098 
3   -0.486317 
4   -0.111992 
5   -0.27142 
6   -0.113498 
7   -0.276617 
8   -0.144408 
9   0.103102 
10   0.062148 
11   0.14215 
12   0.140829 
13   0.145117 
14   0.135556 
15   0.152058 
16   0.134416 
17   0.141693 
18   0.14725 
19   0.142014 
20   0.121243 
21   0.135639 
22   0.135448 
23   0.117295 
24   0.133008 
25   0.134025 
26   0.108752 
 
>  <lowdin_charges> 
26 
1   -0.448921 
2   -0.447636 
3   -0.448393 
4   -0.173394 
5   -0.279755 
6   -0.172506 
7   -0.286236 
8   -0.135613 
9   0.013256 
10   0.004318 
11   0.148431 
12   0.150883 
13   0.151584 
14   0.14412 
15   0.156441 
16   0.14691 
17   0.151539 
18   0.152778 
19   0.150743 
20   0.154276 
21   0.144278 
22   0.141763 
23   0.150985 
24   0.143177 
25   0.146773 
26   0.140201 
 
$$$$ 
 
