PCCDB-ID:  71169 
public computational chemistry database (PCCDB) project, http://pccdb.org 
 
 21 21  0  0  0  0  0  0  0  0999 V2000 
    1.7277    0.7673    0.2095 C   0  0  0  0  0  0  0  0  0  0  0  0 
    2.8144   -1.2337    1.3481 C   0  0  0  0  0  0  0  0  0  0  0  0 
    8.0126   -0.0334   -0.1281 C   0  0  0  0  0  0  0  0  0  0  0  0 
    7.3398   -0.2112   -1.3395 C   0  0  0  0  0  0  0  0  0  0  0  0 
    7.2023    0.1635    0.9875 C   0  0  0  0  0  0  0  0  0  0  0  0 
    3.0362    0.1424    0.7018 C   0  0  0  0  0  0  0  0  0  0  0  0 
    5.3315    0.0185   -0.2961 C   0  0  0  0  0  0  0  0  0  0  0  0 
    6.0143   -0.1909   -1.4481 N   0  0  0  0  0  0  0  0  0  0  0  0 
    5.8694    0.1893    0.9305 N   0  0  0  0  0  0  0  0  0  0  0  0 
    3.9768    0.0752   -0.4153 N   0  0  0  0  0  0  0  0  0  0  0  0 
    1.0127    0.8563    1.0339 H   0  0  0  0  0  0  0  0  0  0  0  0 
    1.2609    0.1449   -0.5658 H   0  0  0  0  0  0  0  0  0  0  0  0 
    1.9002    1.7640   -0.2095 H   0  0  0  0  0  0  0  0  0  0  0  0 
    2.1373   -1.1540    2.2069 H   0  0  0  0  0  0  0  0  0  0  0  0 
    3.7653   -1.6462    1.6981 H   0  0  0  0  0  0  0  0  0  0  0  0 
    2.3734   -1.9364    0.6301 H   0  0  0  0  0  0  0  0  0  0  0  0 
    9.0941   -0.0561   -0.0599 H   0  0  0  0  0  0  0  0  0  0  0  0 
    7.8905   -0.3785   -2.2651 H   0  0  0  0  0  0  0  0  0  0  0  0 
    7.6371    0.3028    1.9771 H   0  0  0  0  0  0  0  0  0  0  0  0 
    3.4935    0.8020    1.4454 H   0  0  0  0  0  0  0  0  0  0  0  0 
    3.6270   -0.1656   -1.3332 H   0  0  0  0  0  0  0  0  0  0  0  0 
  1  6  1  0  0  0  0 
  1 11  1  0  0  0  0 
  2 15  1  0  0  0  0 
  2 14  1  0  0  0  0 
  3 17  1  0  0  0  0 
  3  5  1  0  0  0  0 
  4  3  2  0  0  0  0 
  5 19  1  0  0  0  0 
  6  2  1  0  0  0  0 
  6 20  1  0  0  0  0 
  7  9  1  0  0  0  0 
  8  4  1  0  0  0  0 
  8  7  2  0  0  0  0 
  9  5  2  0  0  0  0 
 10  7  1  0  0  0  0 
 10  6  1  0  0  0  0 
 12  1  1  0  0  0  0 
 13  1  1  0  0  0  0 
 16  2  1  0  0  0  0 
 18  4  1  0  0  0  0 
 21 10  1  0  0  0  0 
M  END 
>  <HBA> 
3 
 
>  <HBD> 
1 
 
>  <TPSA> 
37.81 
 
>  <cid> 
71169 
 
>  <dipole> 
0.36 
 
>  <excitation_energy_1> 
4.297 
 
>  <excitation_energy_2> 
4.41 
 
>  <excitation_energy_3> 
5.317 
 
>  <excitation_energy_4> 
5.417 
 
>  <homo_energy> 
-5.774 
 
>  <homo_lumo_gap> 
5.105 
 
>  <logP> 
1.37 
 
>  <lumo_energy> 
-0.669 
 
>  <melting_point> 
67.55 
 
>  <molecular_refractivity> 
40.95 
 
>  <oscillator_strength_1> 
0.0328 
 
>  <oscillator_strength_2> 
0.0066 
 
>  <oscillator_strength_3> 
0.0063 
 
>  <oscillator_strength_4> 
0.0271 
 
>  <open_babel_can_smiles> 
CC(Nc1ncccn1)C 
 
>  <mulliken_charges> 
21 
1   -0.459599 
2   -0.438693 
3   -0.177775 
4   0.065506 
5   0.063998 
6   0.064759 
7   0.656661 
8   -0.480115 
9   -0.478974 
10   -0.623711 
11   0.152765 
12   0.138808 
13   0.158303 
14   0.14036 
15   0.166299 
16   0.135565 
17   0.134585 
18   0.143447 
19   0.142654 
20   0.168398 
21   0.326761 
 
>  <lowdin_charges> 
21 
1   -0.449655 
2   -0.454895 
3   -0.239159 
4   -0.056449 
5   -0.054584 
6   -0.050331 
7   0.129875 
8   -0.203808 
9   -0.206688 
10   -0.260481 
11   0.157567 
12   0.146783 
13   0.156447 
14   0.150773 
15   0.161914 
16   0.146526 
17   0.164163 
18   0.157867 
19   0.156799 
20   0.162343 
21   0.284992 
 
$$$$ 
 
