PCCDB-ID:  50851 
public computational chemistry database (PCCDB) project, http://pccdb.org 
 
 26 26  0  0  0  0  0  0  0  0999 V2000 
   -1.3517   -0.7183    0.0666 C   0  0  0  0  0  0  0  0  0  0  0  0 
   -0.4745   -1.7026    0.5158 C   0  0  0  0  0  0  0  0  0  0  0  0 
   -0.8327    0.4446   -0.5132 C   0  0  0  0  0  0  0  0  0  0  0  0 
    5.0836   -0.5551   -0.3214 C   0  0  0  0  0  0  0  0  0  0  0  0 
    0.9099   -1.5436    0.3939 C   0  0  0  0  0  0  0  0  0  0  0  0 
    0.5407    0.6177   -0.6421 C   0  0  0  0  0  0  0  0  0  0  0  0 
    6.2008   -1.5276    0.0615 C   0  0  0  0  0  0  0  0  0  0  0  0 
    3.7028   -1.0971    0.0240 C   0  0  0  0  0  0  0  0  0  0  0  0 
    1.4201   -0.3775   -0.1893 C   0  0  0  0  0  0  0  0  0  0  0  0 
    8.5520   -1.8554    0.2301 N   0  0  0  0  0  0  0  0  0  0  0  0 
    7.5010   -0.9760   -0.3313 N   0  0  0  0  0  0  0  0  0  0  0  0 
    2.7497   -0.1093   -0.3583 O   0  0  0  0  0  0  0  0  0  0  0  0 
   -2.4252   -0.8525    0.1635 H   0  0  0  0  0  0  0  0  0  0  0  0 
   -0.8621   -2.6107    0.9706 H   0  0  0  0  0  0  0  0  0  0  0  0 
   -1.5029    1.2234   -0.8679 H   0  0  0  0  0  0  0  0  0  0  0  0 
    5.1338   -0.3434   -1.3949 H   0  0  0  0  0  0  0  0  0  0  0  0 
    5.2202    0.4002    0.2029 H   0  0  0  0  0  0  0  0  0  0  0  0 
    1.5721   -2.3231    0.7536 H   0  0  0  0  0  0  0  0  0  0  0  0 
    0.9605    1.5129   -1.0904 H   0  0  0  0  0  0  0  0  0  0  0  0 
    6.0646   -2.4747   -0.4811 H   0  0  0  0  0  0  0  0  0  0  0  0 
    6.1625   -1.7701    1.1380 H   0  0  0  0  0  0  0  0  0  0  0  0 
    3.6213   -1.3025    1.1016 H   0  0  0  0  0  0  0  0  0  0  0  0 
    3.5044   -2.0371   -0.5118 H   0  0  0  0  0  0  0  0  0  0  0  0 
    9.4202   -1.4514   -0.1318 H   0  0  0  0  0  0  0  0  0  0  0  0 
    8.4605   -2.7167   -0.3164 H   0  0  0  0  0  0  0  0  0  0  0  0 
    7.6152   -0.1148    0.2081 H   0  0  0  0  0  0  0  0  0  0  0  0 
  1 13  1  0  0  0  0 
  1  2  2  0  0  0  0 
  2 14  1  0  0  0  0 
  3  1  1  0  0  0  0 
  4  8  1  0  0  0  0 
  4  7  1  0  0  0  0 
  4 17  1  0  0  0  0 
  5  2  1  0  0  0  0 
  5 18  1  0  0  0  0 
  6  3  2  0  0  0  0 
  6  9  1  0  0  0  0 
  7 21  1  0  0  0  0 
  8 22  1  0  0  0  0 
  9  5  2  0  0  0  0 
 11  7  1  0  0  0  0 
 11 26  1  0  0  0  0 
 11 10  1  0  0  0  0 
 12  9  1  0  0  0  0 
 12  8  1  0  0  0  0 
 15  3  1  0  0  0  0 
 16  4  1  0  0  0  0 
 19  6  1  0  0  0  0 
 20  7  1  0  0  0  0 
 23  8  1  0  0  0  0 
 24 10  1  0  0  0  0 
 25 10  1  0  0  0  0 
M  END 
>  <HBA> 
3 
 
>  <HBD> 
2 
 
>  <TPSA> 
47.28 
 
>  <cid> 
50851 
 
>  <dipole> 
1.23 
 
>  <excitation_energy_1> 
4.771 
 
>  <excitation_energy_2> 
5.046 
 
>  <excitation_energy_3> 
5.13 
 
>  <excitation_energy_4> 
5.351 
 
>  <homo_energy> 
-5.437 
 
>  <homo_lumo_gap> 
5.551 
 
>  <logP> 
2.01 
 
>  <lumo_energy> 
0.114 
 
>  <melting_point> 
88.52 
 
>  <molecular_refractivity> 
48.06 
 
>  <oscillator_strength_1> 
0.0043 
 
>  <oscillator_strength_2> 
0.0304 
 
>  <oscillator_strength_3> 
0.0019 
 
>  <oscillator_strength_4> 
0.0128 
 
>  <open_babel_can_smiles> 
NNCCCOc1ccccc1 
 
>  <mulliken_charges> 
26 
1   -0.133685 
2   -0.137803 
3   -0.132667 
4   -0.290167 
5   -0.195223 
6   -0.175953 
7   -0.116331 
8   -0.029527 
9   0.378979 
10   -0.594699 
11   -0.471064 
12   -0.524788 
13   0.124331 
14   0.128159 
15   0.128972 
16   0.166788 
17   0.14742 
18   0.131523 
19   0.135246 
20   0.134338 
21   0.131622 
22   0.139428 
23   0.139319 
24   0.305303 
25   0.304265 
26   0.306215 
 
>  <lowdin_charges> 
26 
1   -0.178002 
2   -0.146888 
3   -0.148594 
4   -0.281624 
5   -0.217412 
6   -0.184276 
7   -0.207607 
8   -0.12389 
9   0.104914 
10   -0.496441 
11   -0.320144 
12   -0.202978 
13   0.154402 
14   0.157156 
15   0.158974 
16   0.158249 
17   0.149441 
18   0.162426 
19   0.165623 
20   0.136899 
21   0.126061 
22   0.135378 
23   0.137682 
24   0.2551 
25   0.253084 
26   0.252469 
 
$$$$ 
 
