PCCDB-ID:  27941 
public computational chemistry database (PCCDB) project, http://pccdb.org 
 
 32 32  0  0  0  0  0  0  0  0999 V2000 
    2.1884    2.6843    1.4935 C   0  0  0  0  0  0  0  0  0  0  0  0 
    2.4241    0.0802   -0.2392 C   0  0  0  0  0  0  0  0  0  0  0  0 
    3.4093    1.5022   -2.0473 C   0  0  0  0  0  0  0  0  0  0  0  0 
    2.4577    2.5901   -0.0138 C   0  0  0  0  0  0  0  0  0  0  0  0 
    5.5190    2.5134    0.0971 C   0  0  0  0  0  0  0  0  0  0  0  0 
    5.4909    0.0268   -0.2496 C   0  0  0  0  0  0  0  0  0  0  0  0 
    6.8157    2.4057    0.9286 C   0  0  0  0  0  0  0  0  0  0  0  0 
    6.7812   -0.1298    0.5842 C   0  0  0  0  0  0  0  0  0  0  0  0 
    4.6486    1.2413    0.2009 C   0  0  0  0  0  0  0  0  0  0  0  0 
    7.6054    1.1485    0.5983 C   0  0  0  0  0  0  0  0  0  0  0  0 
    3.2571    1.3526   -0.5181 C   0  0  0  0  0  0  0  0  0  0  0  0 
    8.7984    1.1654    0.3603 O   0  0  0  0  0  0  0  0  0  0  0  0 
    1.5675    3.5606    1.7118 H   0  0  0  0  0  0  0  0  0  0  0  0 
    3.1110    2.7891    2.0753 H   0  0  0  0  0  0  0  0  0  0  0  0 
    1.6553    1.8050    1.8714 H   0  0  0  0  0  0  0  0  0  0  0  0 
    1.3941    0.2140   -0.5912 H   0  0  0  0  0  0  0  0  0  0  0  0 
    2.3815   -0.1571    0.8302 H   0  0  0  0  0  0  0  0  0  0  0  0 
    2.8288   -0.7955   -0.7565 H   0  0  0  0  0  0  0  0  0  0  0  0 
    2.4218    1.5766   -2.5188 H   0  0  0  0  0  0  0  0  0  0  0  0 
    3.9185    0.6429   -2.4966 H   0  0  0  0  0  0  0  0  0  0  0  0 
    3.9675    2.4054   -2.3185 H   0  0  0  0  0  0  0  0  0  0  0  0 
    2.9640    3.5065   -0.3426 H   0  0  0  0  0  0  0  0  0  0  0  0 
    1.4932    2.5869   -0.5403 H   0  0  0  0  0  0  0  0  0  0  0  0 
    5.7872    2.6940   -0.9525 H   0  0  0  0  0  0  0  0  0  0  0  0 
    4.9667    3.3973    0.4321 H   0  0  0  0  0  0  0  0  0  0  0  0 
    4.9143   -0.9005   -0.1746 H   0  0  0  0  0  0  0  0  0  0  0  0 
    5.7689    0.1381   -1.3059 H   0  0  0  0  0  0  0  0  0  0  0  0 
    6.5520    2.3627    1.9968 H   0  0  0  0  0  0  0  0  0  0  0  0 
    7.4640    3.2750    0.7831 H   0  0  0  0  0  0  0  0  0  0  0  0 
    7.4075   -0.9471    0.2142 H   0  0  0  0  0  0  0  0  0  0  0  0 
    6.5083   -0.3636    1.6250 H   0  0  0  0  0  0  0  0  0  0  0  0 
    4.4282    1.0884    1.2695 H   0  0  0  0  0  0  0  0  0  0  0  0 
  1 13  1  0  0  0  0 
  1 15  1  0  0  0  0 
  1 14  1  0  0  0  0 
  2 17  1  0  0  0  0 
  3 11  1  0  0  0  0 
  4  1  1  0  0  0  0 
  5  9  1  0  0  0  0 
  5 25  1  0  0  0  0 
  5  7  1  0  0  0  0 
  6 26  1  0  0  0  0 
  6  9  1  0  0  0  0 
  6  8  1  0  0  0  0 
  7 28  1  0  0  0  0 
  8 10  1  0  0  0  0 
  8 31  1  0  0  0  0 
  9 32  1  0  0  0  0 
 10  7  1  0  0  0  0 
 11  2  1  0  0  0  0 
 11  4  1  0  0  0  0 
 11  9  1  0  0  0  0 
 12 10  2  0  0  0  0 
 16  2  1  0  0  0  0 
 18  2  1  0  0  0  0 
 19  3  1  0  0  0  0 
 20  3  1  0  0  0  0 
 21  3  1  0  0  0  0 
 22  4  1  0  0  0  0 
 23  4  1  0  0  0  0 
 24  5  1  0  0  0  0 
 27  6  1  0  0  0  0 
 29  7  1  0  0  0  0 
 30  8  1  0  0  0  0 
M  END 
>  <HBA> 
1 
 
>  <HBD> 
0 
 
>  <TPSA> 
17.07 
 
>  <cid> 
27941 
 
>  <dipole> 
3.28 
 
>  <excitation_energy_1> 
4.198 
 
>  <excitation_energy_2> 
5.972 
 
>  <excitation_energy_3> 
6.247 
 
>  <excitation_energy_4> 
6.355 
 
>  <homo_energy> 
-6.335 
 
>  <homo_lumo_gap> 
6.038 
 
>  <logP> 
3.182 
 
>  <lumo_energy> 
-0.297 
 
>  <melting_point> 
32.77 
 
>  <molecular_refractivity> 
52.82 
 
>  <oscillator_strength_1> 
0.0001 
 
>  <oscillator_strength_2> 
0.008 
 
>  <oscillator_strength_3> 
0.0021 
 
>  <oscillator_strength_4> 
0.0073 
 
>  <open_babel_can_smiles> 
CCC(C1CCC(=O)CC1)(C)C 
 
>  <mulliken_charges> 
32 
1   -0.457532 
2   -0.461903 
3   -0.461572 
4   -0.258312 
5   -0.289723 
6   -0.288637 
7   -0.348252 
8   -0.347215 
9   -0.081163 
10   0.454226 
11   0.107186 
12   -0.447594 
13   0.145563 
14   0.14438 
15   0.147957 
16   0.140112 
17   0.141233 
18   0.144798 
19   0.140713 
20   0.144162 
21   0.143509 
22   0.132731 
23   0.128669 
24   0.145209 
25   0.146404 
26   0.144965 
27   0.145669 
28   0.152155 
29   0.161657 
30   0.161406 
31   0.15196 
32   0.117241 
 
>  <lowdin_charges> 
32 
1   -0.452365 
2   -0.444755 
3   -0.447833 
4   -0.27624 
5   -0.278895 
6   -0.276964 
7   -0.305023 
8   -0.305955 
9   -0.130703 
10   0.15519 
11   0.011309 
12   -0.235239 
13   0.153345 
14   0.146132 
15   0.149955 
16   0.147901 
17   0.145497 
18   0.149425 
19   0.149319 
20   0.149346 
21   0.148301 
22   0.141006 
23   0.141505 
24   0.144236 
25   0.151592 
26   0.151088 
27   0.143905 
28   0.156843 
29   0.163557 
30   0.163892 
31   0.157202 
32   0.133428 
 
$$$$ 
 
