PCCDB-ID:  46240 
public computational chemistry database (PCCDB) project, http://pccdb.org 
 
 38 38  0  0  1  0  0  0  0  0999 V2000 
    3.4656   -0.6719   -2.8076 C   0  0  0  0  0  0  0  0  0  0  0  0 
    2.4948   -4.1447   -1.7130 C   0  0  0  0  0  0  0  0  0  0  0  0 
    1.1110   -2.1902   -1.4946 C   0  0  0  0  0  0  0  0  0  0  0  0 
    6.8359    2.5772    0.5754 C   0  0  0  0  0  0  0  0  0  0  0  0 
    6.9602   -4.6084   -1.1085 C   0  0  0  0  0  0  0  0  0  0  0  0 
    8.2460   -0.6700   -0.2964 C   0  0  0  0  0  0  0  0  0  0  0  0 
    7.8495   -1.9692   -0.6056 C   0  0  0  0  0  0  0  0  0  0  0  0 
    5.9297   -0.0214   -0.0979 C   0  0  0  0  0  0  0  0  0  0  0  0 
    3.5538   -1.9526   -1.9640 C   0  0  1  0  0  0  0  0  0  0  0  0 
    7.2879    0.3114   -0.0355 C   0  0  0  0  0  0  0  0  0  0  0  0 
    5.5141   -1.3150   -0.4245 C   0  0  0  0  0  0  0  0  0  0  0  0 
    6.4914   -2.2978   -0.6678 C   0  0  0  0  0  0  0  0  0  0  0  0 
    4.0294   -1.6675   -0.4972 C   0  0  1  0  0  0  0  0  0  0  0  0 
    2.3242   -2.7480   -2.0829 N   0  0  0  0  0  0  0  0  0  0  0  0 
    3.2134   -0.6931    0.1539 O   0  0  0  0  0  0  0  0  0  0  0  0 
    7.7703    1.5547    0.2805 O   0  0  0  0  0  0  0  0  0  0  0  0 
    6.0195   -3.5611   -0.9481 O   0  0  0  0  0  0  0  0  0  0  0  0 
    4.4180   -0.1316   -2.7914 H   0  0  0  0  0  0  0  0  0  0  0  0 
    2.6798    0.0160   -2.4702 H   0  0  0  0  0  0  0  0  0  0  0  0 
    3.2306   -0.9344   -3.8428 H   0  0  0  0  0  0  0  0  0  0  0  0 
    1.6136   -4.7125   -2.0355 H   0  0  0  0  0  0  0  0  0  0  0  0 
    2.6180   -4.3169   -0.6263 H   0  0  0  0  0  0  0  0  0  0  0  0 
    3.3729   -4.5587   -2.2191 H   0  0  0  0  0  0  0  0  0  0  0  0 
    0.2550   -2.7898   -1.8281 H   0  0  0  0  0  0  0  0  0  0  0  0 
    0.9490   -1.1670   -1.8459 H   0  0  0  0  0  0  0  0  0  0  0  0 
    1.1119   -2.1728   -0.3921 H   0  0  0  0  0  0  0  0  0  0  0  0 
    7.4260    3.4682    0.7994 H   0  0  0  0  0  0  0  0  0  0  0  0 
    6.2177    2.3245    1.4475 H   0  0  0  0  0  0  0  0  0  0  0  0 
    6.1784    2.7866   -0.2800 H   0  0  0  0  0  0  0  0  0  0  0  0 
    6.3752   -5.5144   -1.2794 H   0  0  0  0  0  0  0  0  0  0  0  0 
    7.5761   -4.7391   -0.2087 H   0  0  0  0  0  0  0  0  0  0  0  0 
    7.6176   -4.4360   -1.9715 H   0  0  0  0  0  0  0  0  0  0  0  0 
    9.2976   -0.4068   -0.2432 H   0  0  0  0  0  0  0  0  0  0  0  0 
    8.6097   -2.7194   -0.7912 H   0  0  0  0  0  0  0  0  0  0  0  0 
    5.1692    0.7089    0.1478 H   0  0  0  0  0  0  0  0  0  0  0  0 
    4.3378   -2.5707   -2.4118 H   0  0  0  0  0  0  0  0  0  0  0  0 
    3.8783   -2.5849    0.0807 H   0  0  0  0  0  0  0  0  0  0  0  0 
    3.0942    0.0496   -0.4576 H   0  0  0  0  0  0  0  0  0  0  0  0 
  1 18  1  0  0  0  0 
  1 19  1  0  0  0  0 
  1  9  1  0  0  0  0 
  2 22  1  0  0  0  0 
  3 26  1  0  0  0  0 
  4 27  1  0  0  0  0 
  4 28  1  0  0  0  0 
  5 17  1  0  0  0  0 
  5 31  1  0  0  0  0 
  6 33  1  0  0  0  0 
  6 10  2  0  0  0  0 
  7  6  1  0  0  0  0 
  8 10  1  0  0  0  0 
  8 35  1  0  0  0  0 
  9 36  1  6  0  0  0 
  9 13  1  0  0  0  0 
 10 16  1  0  0  0  0 
 11  8  2  0  0  0  0 
 12  7  2  0  0  0  0 
 12 11  1  0  0  0  0 
 13 11  1  0  0  0  0 
 13 37  1  1  0  0  0 
 13 15  1  0  0  0  0 
 14  9  1  0  0  0  0 
 14  2  1  0  0  0  0 
 14  3  1  0  0  0  0 
 16  4  1  0  0  0  0 
 17 12  1  0  0  0  0 
 20  1  1  0  0  0  0 
 21  2  1  0  0  0  0 
 23  2  1  0  0  0  0 
 24  3  1  0  0  0  0 
 25  3  1  0  0  0  0 
 29  4  1  0  0  0  0 
 30  5  1  0  0  0  0 
 32  5  1  0  0  0  0 
 34  7  1  0  0  0  0 
 38 15  1  0  0  0  0 
M  END 
>  <HBA> 
4 
 
>  <HBD> 
1 
 
>  <TPSA> 
41.93 
 
>  <cid> 
46240 
 
>  <dipole> 
1.08 
 
>  <excitation_energy_1> 
4.451 
 
>  <excitation_energy_2> 
4.632 
 
>  <excitation_energy_3> 
4.731 
 
>  <excitation_energy_4> 
4.913 
 
>  <homo_energy> 
-5.138 
 
>  <homo_lumo_gap> 
5.184 
 
>  <logP> 
1.687 
 
>  <lumo_energy> 
0.046 
 
>  <melting_point> 
37.97 
 
>  <molecular_refractivity> 
67.68 
 
>  <oscillator_strength_1> 
0.0951 
 
>  <oscillator_strength_2> 
0.0216 
 
>  <oscillator_strength_3> 
0.0124 
 
>  <oscillator_strength_4> 
0.0056 
 
>  <open_babel_can_smiles> 
COc1ccc(cc1[C@H]([C@@H](N(C)C)C)O)OC 
 
>  <mulliken_charges> 
38 
1   -0.484711 
2   -0.294506 
3   -0.301071 
4   -0.211045 
5   -0.213674 
6   -0.185002 
7   -0.194575 
8   -0.275367 
9   0.024884 
10   0.387338 
11   0.097361 
12   0.32134 
13   0.054553 
14   -0.371385 
15   -0.630707 
16   -0.515786 
17   -0.524914 
18   0.156525 
19   0.129445 
20   0.165598 
21   0.142452 
22   0.122872 
23   0.147616 
24   0.137717 
25   0.137747 
26   0.144121 
27   0.166426 
28   0.153933 
29   0.144089 
30   0.16772 
31   0.152725 
32   0.150439 
33   0.135685 
34   0.131898 
35   0.122331 
36   0.152475 
37   0.160244 
38   0.395209 
 
>  <lowdin_charges> 
38 
1   -0.460706 
2   -0.354415 
3   -0.35763 
4   -0.279902 
5   -0.279248 
6   -0.177531 
7   -0.201165 
8   -0.215918 
9   -0.079672 
10   0.089368 
11   -0.036878 
12   0.07542 
13   -0.014123 
14   -0.183135 
15   -0.451522 
16   -0.205897 
17   -0.212268 
18   0.157736 
19   0.139551 
20   0.163668 
21   0.147075 
22   0.119344 
23   0.150104 
24   0.144379 
25   0.143725 
26   0.131107 
27   0.161426 
28   0.145894 
29   0.141567 
30   0.161597 
31   0.146094 
32   0.144126 
33   0.164661 
34   0.163976 
35   0.16251 
36   0.158233 
37   0.158886 
38   0.339565 
 
$$$$ 
 
