PCCDB-ID:  28264 
public computational chemistry database (PCCDB) project, http://pccdb.org 
 
 23 22  0  0  0  0  0  0  0  0999 V2000 
    2.3348    2.6243    2.1595 C   0  0  0  0  0  0  0  0  0  0  0  0 
    4.1878    1.1519    3.0663 C   0  0  0  0  0  0  0  0  0  0  0  0 
    3.6437   -1.4190   -0.4358 C   0  0  0  0  0  0  0  0  0  0  0  0 
    4.8239   -2.3676   -0.6483 C   0  0  0  0  0  0  0  0  0  0  0  0 
    2.9891    0.5402    0.9048 C   0  0  0  0  0  0  0  0  0  0  0  0 
    3.4926    1.6805    1.8048 C   0  0  0  0  0  0  0  0  0  0  0  0 
    4.0777   -0.3143    0.4251 N   0  0  0  0  0  0  0  0  0  0  0  0 
    5.3404   -2.8097    0.5916 O   0  0  0  0  0  0  0  0  0  0  0  0 
    2.6838    3.4598    2.7767 H   0  0  0  0  0  0  0  0  0  0  0  0 
    1.5585    2.0955    2.7276 H   0  0  0  0  0  0  0  0  0  0  0  0 
    1.8649    3.0431    1.2616 H   0  0  0  0  0  0  0  0  0  0  0  0 
    4.5943    1.9754    3.6652 H   0  0  0  0  0  0  0  0  0  0  0  0 
    5.0061    0.4724    2.8121 H   0  0  0  0  0  0  0  0  0  0  0  0 
    3.4782    0.6000    3.6968 H   0  0  0  0  0  0  0  0  0  0  0  0 
    2.8484   -1.9577    0.0935 H   0  0  0  0  0  0  0  0  0  0  0  0 
    3.2294   -1.0872   -1.4057 H   0  0  0  0  0  0  0  0  0  0  0  0 
    5.6011   -1.8573   -1.2483 H   0  0  0  0  0  0  0  0  0  0  0  0 
    4.5067   -3.2509   -1.2137 H   0  0  0  0  0  0  0  0  0  0  0  0 
    2.4030    0.9696    0.0698 H   0  0  0  0  0  0  0  0  0  0  0  0 
    2.2967   -0.0938    1.4760 H   0  0  0  0  0  0  0  0  0  0  0  0 
    4.2297    2.2589    1.2237 H   0  0  0  0  0  0  0  0  0  0  0  0 
    4.7421    0.2625   -0.0930 H   0  0  0  0  0  0  0  0  0  0  0  0 
    5.2872   -2.0220    1.1651 H   0  0  0  0  0  0  0  0  0  0  0  0 
  1 10  1  0  0  0  0 
  1  9  1  0  0  0  0 
  2 12  1  0  0  0  0 
  2 14  1  0  0  0  0 
  3 15  1  0  0  0  0 
  3  7  1  0  0  0  0 
  4  3  1  0  0  0  0 
  4  8  1  0  0  0  0 
  5 20  1  0  0  0  0 
  5  6  1  0  0  0  0 
  6  1  1  0  0  0  0 
  6  2  1  0  0  0  0 
  7  5  1  0  0  0  0 
  8 23  1  0  0  0  0 
 11  1  1  0  0  0  0 
 13  2  1  0  0  0  0 
 16  3  1  0  0  0  0 
 17  4  1  0  0  0  0 
 18  4  1  0  0  0  0 
 19  5  1  0  0  0  0 
 21  6  1  0  0  0  0 
 22  7  1  0  0  0  0 
M  END 
>  <HBA> 
2 
 
>  <HBD> 
2 
 
>  <TPSA> 
32.26 
 
>  <cid> 
28264 
 
>  <dipole> 
2.88 
 
>  <excitation_energy_1> 
5.713 
 
>  <excitation_energy_2> 
6.211 
 
>  <excitation_energy_3> 
6.361 
 
>  <excitation_energy_4> 
6.443 
 
>  <homo_energy> 
-6.387 
 
>  <homo_lumo_gap> 
8.37 
 
>  <logP> 
0.615 
 
>  <lumo_energy> 
1.984 
 
>  <melting_point> 
19.23 
 
>  <molecular_refractivity> 
34.92 
 
>  <oscillator_strength_1> 
0.0035 
 
>  <oscillator_strength_2> 
0.0187 
 
>  <oscillator_strength_3> 
0.0463 
 
>  <oscillator_strength_4> 
0.0129 
 
>  <open_babel_can_smiles> 
OCCNCC(C)C 
 
>  <mulliken_charges> 
23 
1   -0.444738 
2   -0.435374 
3   -0.146726 
4   -0.017587 
5   -0.101105 
6   -0.086641 
7   -0.581873 
8   -0.629357 
9   0.145552 
10   0.142298 
11   0.140841 
12   0.138651 
13   0.154702 
14   0.138217 
15   0.152491 
16   0.116866 
17   0.10772 
18   0.140437 
19   0.112702 
20   0.139466 
21   0.11739 
22   0.295626 
23   0.400443 
 
>  <lowdin_charges> 
23 
1   -0.446465 
2   -0.448584 
3   -0.224102 
4   -0.139212 
5   -0.205504 
6   -0.126705 
7   -0.365132 
8   -0.476584 
9   0.152305 
10   0.148548 
11   0.148375 
12   0.148585 
13   0.154944 
14   0.147473 
15   0.150258 
16   0.124729 
17   0.119295 
18   0.146869 
19   0.121398 
20   0.143888 
21   0.133828 
22   0.253718 
23   0.338075 
 
$$$$ 
 
