PCCDB-ID:  31644 
public computational chemistry database (PCCDB) project, http://pccdb.org 
 
 22 21  0  0  0  0  0  0  0  0999 V2000 
    1.1278    1.3002    1.1299 C   0  0  0  0  0  0  0  0  0  0  0  0 
    3.5124    0.8624    1.8472 C   0  0  0  0  0  0  0  0  0  0  0  0 
    3.9994   -0.0873   -1.1525 C   0  0  0  0  0  0  0  0  0  0  0  0 
    2.6571    0.0259   -0.4237 C   0  0  0  0  0  0  0  0  0  0  0  0 
    4.0356   -1.3004   -2.0777 C   0  0  0  0  0  0  0  0  0  0  0  0 
    2.5793    1.1183    0.6646 C   0  0  0  0  0  0  0  0  0  0  0  0 
    2.9873    2.4448   -0.0215 N   0  0  0  0  0  0  0  0  0  0  0  0 
    3.1956   -2.1636   -2.1067 O   0  0  0  0  0  0  0  0  0  0  0  0 
    5.1229   -1.3780   -2.8909 O   0  0  0  0  0  0  0  0  0  0  0  0 
    3.9729    3.0445    0.3964 O   0  0  0  0  0  0  0  0  0  0  0  0 
    2.3009    2.8064   -0.9746 O   0  0  0  0  0  0  0  0  0  0  0  0 
    0.7703    0.3609    1.5639 H   0  0  0  0  0  0  0  0  0  0  0  0 
    0.4817    1.5682    0.2914 H   0  0  0  0  0  0  0  0  0  0  0  0 
    1.0560    2.0796    1.8957 H   0  0  0  0  0  0  0  0  0  0  0  0 
    3.2130   -0.0740    2.3297 H   0  0  0  0  0  0  0  0  0  0  0  0 
    3.4439    1.6678    2.5827 H   0  0  0  0  0  0  0  0  0  0  0  0 
    4.5586    0.7800    1.5456 H   0  0  0  0  0  0  0  0  0  0  0  0 
    4.8360   -0.1846   -0.4472 H   0  0  0  0  0  0  0  0  0  0  0  0 
    4.1955    0.8175   -1.7440 H   0  0  0  0  0  0  0  0  0  0  0  0 
    2.4277   -0.9329    0.0521 H   0  0  0  0  0  0  0  0  0  0  0  0 
    1.8701    0.2042   -1.1615 H   0  0  0  0  0  0  0  0  0  0  0  0 
    5.6953   -0.6030   -2.7638 H   0  0  0  0  0  0  0  0  0  0  0  0 
  1 12  1  0  0  0  0 
  1 14  1  0  0  0  0 
  2 15  1  0  0  0  0 
  2 16  1  0  0  0  0 
  3 18  1  0  0  0  0 
  3  4  1  0  0  0  0 
  4 20  1  0  0  0  0 
  4  6  1  0  0  0  0 
  5  3  1  0  0  0  0 
  6  1  1  0  0  0  0 
  6  2  1  0  0  0  0 
  7 10  2  0  0  0  0 
  7  6  1  0  0  0  0 
  8  5  2  0  0  0  0 
  9 22  1  0  0  0  0 
  9  5  1  0  0  0  0 
 11  7  2  0  0  0  0 
 13  1  1  0  0  0  0 
 17  2  1  0  0  0  0 
 19  3  1  0  0  0  0 
 21  4  1  0  0  0  0 
M  END 
>  <HBA> 
2 
 
>  <HBD> 
1 
 
>  <TPSA> 
83.12 
 
>  <cid> 
31644 
 
>  <dipole> 
2.88 
 
>  <excitation_energy_1> 
4.1 
 
>  <excitation_energy_2> 
4.381 
 
>  <excitation_energy_3> 
5.057 
 
>  <excitation_energy_4> 
5.767 
 
>  <homo_energy> 
-7.671 
 
>  <homo_lumo_gap> 
5.733 
 
>  <logP> 
1.43 
 
>  <lumo_energy> 
-1.937 
 
>  <melting_point> 
92.37 
 
>  <molecular_refractivity> 
40.87 
 
>  <oscillator_strength_1> 
0.0 
 
>  <oscillator_strength_2> 
0.0002 
 
>  <oscillator_strength_3> 
0.0012 
 
>  <oscillator_strength_4> 
0.0003 
 
>  <open_babel_can_smiles> 
OC(=O)CCC(N(=O)=O)(C)C 
 
>  <mulliken_charges> 
22 
1   -0.45471 
2   -0.450468 
3   -0.426845 
4   -0.260671 
5   0.615149 
6   0.12154 
7   0.455647 
8   -0.435559 
9   -0.565119 
10   -0.37556 
11   -0.372362 
12   0.164861 
13   0.186613 
14   0.164331 
15   0.157064 
16   0.172342 
17   0.167692 
18   0.180228 
19   0.182388 
20   0.177643 
21   0.183312 
22   0.412484 
 
>  <lowdin_charges> 
22 
1   -0.443553 
2   -0.446849 
3   -0.33168 
4   -0.273163 
5   0.199326 
6   0.048811 
7   0.289235 
8   -0.235267 
9   -0.354505 
10   -0.238493 
11   -0.249378 
12   0.165449 
13   0.173375 
14   0.162263 
15   0.162041 
16   0.168549 
17   0.161425 
18   0.169486 
19   0.168533 
20   0.17118 
21   0.172252 
22   0.360963 
 
$$$$ 
 
