PCCDB-ID:  42677 
public computational chemistry database (PCCDB) project, http://pccdb.org 
 
 42 41  0  0  1  0  0  0  0  0999 V2000 
    6.8620   -0.6104   -3.0658 C   0  0  0  0  0  0  0  0  0  0  0  0 
   11.8941   -2.2116    6.5776 C   0  0  0  0  0  0  0  0  0  0  0  0 
    3.9378   -1.4332    0.3563 C   0  0  0  0  0  0  0  0  0  0  0  0 
   10.7353   -4.7351    2.3448 C   0  0  0  0  0  0  0  0  0  0  0  0 
    6.1480   -1.2812   -1.8874 C   0  0  0  0  0  0  0  0  0  0  0  0 
   10.7432   -2.6369    5.6591 C   0  0  0  0  0  0  0  0  0  0  0  0 
    6.0092   -0.3486   -0.6766 C   0  0  0  0  0  0  0  0  0  0  0  0 
   11.2332   -3.3271    4.3770 C   0  0  0  0  0  0  0  0  0  0  0  0 
    7.4421   -1.7935    1.6914 C   0  0  0  0  0  0  0  0  0  0  0  0 
    8.1223   -3.0504    2.2352 C   0  0  0  0  0  0  0  0  0  0  0  0 
    5.3838   -0.9793    0.5862 C   0  0  2  0  0  0  0  0  0  0  0  0 
   10.1289   -3.8493    3.4408 C   0  0  1  0  0  0  0  0  0  0  0  0 
    6.1710   -2.1292    1.0565 N   0  0  0  0  0  0  0  0  0  0  0  0 
    9.4095   -2.7168    2.8393 N   0  0  0  0  0  0  0  0  0  0  0  0 
    6.9494   -1.2915   -3.9202 H   0  0  0  0  0  0  0  0  0  0  0  0 
    7.8754   -0.2938   -2.7887 H   0  0  0  0  0  0  0  0  0  0  0  0 
    6.3205    0.2815   -3.4061 H   0  0  0  0  0  0  0  0  0  0  0  0 
   11.5221   -1.7243    7.4860 H   0  0  0  0  0  0  0  0  0  0  0  0 
   12.5644   -1.5067    6.0710 H   0  0  0  0  0  0  0  0  0  0  0  0 
   12.4949   -3.0765    6.8843 H   0  0  0  0  0  0  0  0  0  0  0  0 
    3.3293   -0.6125   -0.0390 H   0  0  0  0  0  0  0  0  0  0  0  0 
    3.4783   -1.7640    1.2966 H   0  0  0  0  0  0  0  0  0  0  0  0 
    3.8941   -2.2684   -0.3501 H   0  0  0  0  0  0  0  0  0  0  0  0 
   11.2596   -5.5892    2.7888 H   0  0  0  0  0  0  0  0  0  0  0  0 
   11.4488   -4.1591    1.7448 H   0  0  0  0  0  0  0  0  0  0  0  0 
    9.9710   -5.1331    1.6695 H   0  0  0  0  0  0  0  0  0  0  0  0 
    6.6914   -2.1824   -1.5806 H   0  0  0  0  0  0  0  0  0  0  0  0 
    5.1555   -1.6185   -2.2140 H   0  0  0  0  0  0  0  0  0  0  0  0 
   10.1441   -1.7481    5.4153 H   0  0  0  0  0  0  0  0  0  0  0  0 
   10.0724   -3.3178    6.2023 H   0  0  0  0  0  0  0  0  0  0  0  0 
    5.4018    0.5264   -0.9501 H   0  0  0  0  0  0  0  0  0  0  0  0 
    7.0009    0.0499   -0.4212 H   0  0  0  0  0  0  0  0  0  0  0  0 
   11.8666   -4.1778    4.6639 H   0  0  0  0  0  0  0  0  0  0  0  0 
   11.8728   -2.6390    3.8062 H   0  0  0  0  0  0  0  0  0  0  0  0 
    8.1088   -1.3376    0.9523 H   0  0  0  0  0  0  0  0  0  0  0  0 
    7.3265   -1.0514    2.5100 H   0  0  0  0  0  0  0  0  0  0  0  0 
    8.2786   -3.7416    1.4012 H   0  0  0  0  0  0  0  0  0  0  0  0 
    7.4384   -3.5641    2.9443 H   0  0  0  0  0  0  0  0  0  0  0  0 
    5.3617   -0.1816    1.3567 H   0  0  0  0  0  0  0  0  0  0  0  0 
    9.4424   -4.4783    4.0455 H   0  0  0  0  0  0  0  0  0  0  0  0 
    5.6056   -2.6505    1.7259 H   0  0  0  0  0  0  0  0  0  0  0  0 
    9.2423   -2.0196    3.5626 H   0  0  0  0  0  0  0  0  0  0  0  0 
  1 16  1  0  0  0  0 
  1  5  1  0  0  0  0 
  2 20  1  0  0  0  0 
  2 18  1  0  0  0  0 
  3 11  1  0  0  0  0 
  3 22  1  0  0  0  0 
  4 24  1  0  0  0  0 
  4 12  1  0  0  0  0 
  5 27  1  0  0  0  0 
  5  7  1  0  0  0  0 
  6 30  1  0  0  0  0 
  6  2  1  0  0  0  0 
  7 32  1  0  0  0  0 
  7 11  1  0  0  0  0 
  8 33  1  0  0  0  0 
  8  6  1  0  0  0  0 
  9 10  1  0  0  0  0 
  9 36  1  0  0  0  0 
 10 14  1  0  0  0  0 
 10 38  1  0  0  0  0 
 11 13  1  0  0  0  0 
 11 39  1  1  0  0  0 
 12 40  1  1  0  0  0 
 12  8  1  0  0  0  0 
 13  9  1  0  0  0  0 
 13 41  1  0  0  0  0 
 14 12  1  0  0  0  0 
 14 42  1  0  0  0  0 
 15  1  1  0  0  0  0 
 17  1  1  0  0  0  0 
 19  2  1  0  0  0  0 
 21  3  1  0  0  0  0 
 23  3  1  0  0  0  0 
 25  4  1  0  0  0  0 
 26  4  1  0  0  0  0 
 28  5  1  0  0  0  0 
 29  6  1  0  0  0  0 
 31  7  1  0  0  0  0 
 34  8  1  0  0  0  0 
 35  9  1  0  0  0  0 
 37 10  1  0  0  0  0 
M  END 
>  <HBA> 
2 
 
>  <HBD> 
2 
 
>  <TPSA> 
24.06 
 
>  <cid> 
42677 
 
>  <dipole> 
1.75 
 
>  <excitation_energy_1> 
5.25 
 
>  <excitation_energy_2> 
5.453 
 
>  <excitation_energy_3> 
5.69 
 
>  <excitation_energy_4> 
5.799 
 
>  <homo_energy> 
-5.788 
 
>  <homo_lumo_gap> 
7.927 
 
>  <logP> 
3.325 
 
>  <lumo_energy> 
2.139 
 
>  <melting_point> 
23.81 
 
>  <molecular_refractivity> 
65.4 
 
>  <oscillator_strength_1> 
0.005 
 
>  <oscillator_strength_2> 
0.0043 
 
>  <oscillator_strength_3> 
0.0664 
 
>  <oscillator_strength_4> 
0.0311 
 
>  <open_babel_can_smiles> 
CCC[C@H](NCCN[C@H](CCC)C)C 
 
>  <mulliken_charges> 
42 
1   -0.442943 
2   -0.441119 
3   -0.468675 
4   -0.442066 
5   -0.247291 
6   -0.26135 
7   -0.255052 
8   -0.263406 
9   -0.124448 
10   -0.127189 
11   0.069131 
12   0.071358 
13   -0.565402 
14   -0.575769 
15   0.139637 
16   0.139607 
17   0.136873 
18   0.142505 
19   0.14515 
20   0.143367 
21   0.14514 
22   0.134467 
23   0.160046 
24   0.135287 
25   0.151073 
26   0.14436 
27   0.15429 
28   0.12809 
29   0.127666 
30   0.133477 
31   0.122957 
32   0.130004 
33   0.129628 
34   0.13969 
35   0.158811 
36   0.098778 
37   0.157195 
38   0.098958 
39   0.097748 
40   0.096082 
41   0.288371 
42   0.294964 
 
>  <lowdin_charges> 
42 
1   -0.44403 
2   -0.445415 
3   -0.453271 
4   -0.45157 
5   -0.276073 
6   -0.27809 
7   -0.28276 
8   -0.283996 
9   -0.207257 
10   -0.207409 
11   -0.058542 
12   -0.058912 
13   -0.365123 
14   -0.365813 
15   0.148397 
16   0.144154 
17   0.143901 
18   0.150022 
19   0.149602 
20   0.14798 
21   0.154041 
22   0.145008 
23   0.155749 
24   0.148137 
25   0.154604 
26   0.150815 
27   0.15118 
28   0.137913 
29   0.135696 
30   0.14133 
31   0.139777 
32   0.139788 
33   0.144777 
34   0.147208 
35   0.151494 
36   0.109496 
37   0.149961 
38   0.110439 
39   0.11437 
40   0.112651 
41   0.250887 
42   0.248885 
 
$$$$ 
 
