PCCDB-ID:  34671 
public computational chemistry database (PCCDB) project, http://pccdb.org 
 
 26 25  0  0  0  0  0  0  0  0999 V2000 
    0.3796   -1.0077    1.1500 C   0  0  0  0  0  0  0  0  0  0  0  0 
    7.9913   -2.9991    0.8975 C   0  0  0  0  0  0  0  0  0  0  0  0 
    7.8789   -2.3751    3.3056 C   0  0  0  0  0  0  0  0  0  0  0  0 
    2.6523   -0.9172    3.3109 C   0  0  0  0  0  0  0  0  0  0  0  0 
    1.8607   -0.9966    0.9126 C   0  0  0  0  0  0  0  0  0  0  0  0 
    5.3646   -0.9138    2.0683 C   0  0  0  0  0  0  0  0  0  0  0  0 
    6.7619   -0.9145    1.4952 C   0  0  0  0  0  0  0  0  0  0  0  0 
    4.2471   -0.9554    1.3245 C   0  0  0  0  0  0  0  0  0  0  0  0 
    7.5701   -2.1565    1.8450 C   0  0  0  0  0  0  0  0  0  0  0  0 
    2.8638   -0.9579    1.8160 C   0  0  0  0  0  0  0  0  0  0  0  0 
   -0.0774   -1.9069    0.7132 H   0  0  0  0  0  0  0  0  0  0  0  0 
   -0.0993   -0.1493    0.6583 H   0  0  0  0  0  0  0  0  0  0  0  0 
    0.1090   -0.9781    2.2083 H   0  0  0  0  0  0  0  0  0  0  0  0 
    8.5745   -3.8848    1.1384 H   0  0  0  0  0  0  0  0  0  0  0  0 
    7.7657   -2.8382   -0.1539 H   0  0  0  0  0  0  0  0  0  0  0  0 
    8.5006   -3.2629    3.4566 H   0  0  0  0  0  0  0  0  0  0  0  0 
    6.9613   -2.5031    3.8944 H   0  0  0  0  0  0  0  0  0  0  0  0 
    8.4078   -1.5107    3.7312 H   0  0  0  0  0  0  0  0  0  0  0  0 
    1.5961   -0.9250    3.5856 H   0  0  0  0  0  0  0  0  0  0  0  0 
    3.1048   -0.0163    3.7447 H   0  0  0  0  0  0  0  0  0  0  0  0 
    3.1313   -1.7776    3.7957 H   0  0  0  0  0  0  0  0  0  0  0  0 
    2.1472   -1.0228   -0.1400 H   0  0  0  0  0  0  0  0  0  0  0  0 
    5.2896   -0.8770    3.1538 H   0  0  0  0  0  0  0  0  0  0  0  0 
    7.3021   -0.0317    1.8769 H   0  0  0  0  0  0  0  0  0  0  0  0 
    6.7109   -0.8076    0.4056 H   0  0  0  0  0  0  0  0  0  0  0  0 
    4.3544   -0.9893    0.2389 H   0  0  0  0  0  0  0  0  0  0  0  0 
  1 13  1  0  0  0  0 
  2 14  1  0  0  0  0 
  2  9  2  0  0  0  0 
  3 16  1  0  0  0  0 
  3 18  1  0  0  0  0 
  3 17  1  0  0  0  0 
  4 19  1  0  0  0  0 
  4 20  1  0  0  0  0 
  4 21  1  0  0  0  0 
  5  1  1  0  0  0  0 
  5 10  2  0  0  0  0 
  6 23  1  0  0  0  0 
  7  9  1  0  0  0  0 
  7 24  1  0  0  0  0 
  7  6  1  0  0  0  0 
  8 10  1  0  0  0  0 
  8  6  2  0  0  0  0 
  9  3  1  0  0  0  0 
 10  4  1  0  0  0  0 
 11  1  1  0  0  0  0 
 12  1  1  0  0  0  0 
 15  2  1  0  0  0  0 
 22  5  1  0  0  0  0 
 25  7  1  0  0  0  0 
 26  8  1  0  0  0  0 
M  END 
>  <HBA> 
0 
 
>  <HBD> 
0 
 
>  <TPSA> 
0.0 
 
>  <cid> 
34671 
 
>  <dipole> 
0.71 
 
>  <excitation_energy_1> 
5.142 
 
>  <excitation_energy_2> 
5.292 
 
>  <excitation_energy_3> 
5.425 
 
>  <excitation_energy_4> 
5.502 
 
>  <homo_energy> 
-5.652 
 
>  <homo_lumo_gap> 
5.372 
 
>  <logP> 
3.475 
 
>  <lumo_energy> 
-0.28 
 
>  <melting_point> 
-23.4 
 
>  <molecular_refractivity> 
48.76 
 
>  <oscillator_strength_1> 
0.35 
 
>  <oscillator_strength_2> 
0.1286 
 
>  <oscillator_strength_3> 
0.1285 
 
>  <oscillator_strength_4> 
0.2138 
 
>  <open_babel_can_smiles> 
C/C=C(/C=C/CC(=C)C)\C 
 
>  <mulliken_charges> 
26 
1   -0.492308 
2   -0.396119 
3   -0.513061 
4   -0.536496 
5   -0.176906 
6   -0.11465 
7   -0.376158 
8   -0.149649 
9   0.241371 
10   0.207898 
11   0.157808 
12   0.15738 
13   0.154604 
14   0.129717 
15   0.130036 
16   0.153681 
17   0.157213 
18   0.150242 
19   0.152332 
20   0.157931 
21   0.158302 
22   0.120656 
23   0.123 
24   0.145098 
25   0.144192 
26   0.113886 
 
>  <lowdin_charges> 
26 
1   -0.442939 
2   -0.362933 
3   -0.444224 
4   -0.445946 
5   -0.170074 
6   -0.171309 
7   -0.266241 
8   -0.161668 
9   0.014005 
10   -0.010439 
11   0.159205 
12   0.159275 
13   0.153244 
14   0.153091 
15   0.151508 
16   0.157768 
17   0.156888 
18   0.154608 
19   0.155183 
20   0.158493 
21   0.15897 
22   0.147021 
23   0.147796 
24   0.151964 
25   0.150455 
26   0.146301 
 
$$$$ 
 
