PCCDB-ID:  11924 
public computational chemistry database (PCCDB) project, http://pccdb.org 
 
 28 29  0  0  0  0  0  0  0  0999 V2000 
   -1.5861   -0.6699    0.4820 C   0  0  0  0  0  0  0  0  0  0  0  0 
   -0.7976   -0.0093    1.4237 C   0  0  0  0  0  0  0  0  0  0  0  0 
   -0.9873   -1.2135   -0.6574 C   0  0  0  0  0  0  0  0  0  0  0  0 
    4.5256   -3.4268   -1.3432 C   0  0  0  0  0  0  0  0  0  0  0  0 
    4.7636   -4.1234   -0.1606 C   0  0  0  0  0  0  0  0  0  0  0  0 
    0.5812    0.1078    1.2303 C   0  0  0  0  0  0  0  0  0  0  0  0 
    0.3887   -1.0961   -0.8477 C   0  0  0  0  0  0  0  0  0  0  0  0 
    3.8689   -2.1955   -1.3053 C   0  0  0  0  0  0  0  0  0  0  0  0 
    4.3334   -3.5780    1.0475 C   0  0  0  0  0  0  0  0  0  0  0  0 
    2.6936   -0.2950   -0.1322 C   0  0  0  0  0  0  0  0  0  0  0  0 
    1.1914   -0.4325    0.0917 C   0  0  0  0  0  0  0  0  0  0  0  0 
    3.4353   -1.6231   -0.1041 C   0  0  0  0  0  0  0  0  0  0  0  0 
    3.6741   -2.3396    1.0908 C   0  0  0  0  0  0  0  0  0  0  0  0 
    3.3020   -1.7787    2.4347 C   0  0  0  0  0  0  0  0  0  0  0  0 
    3.4311   -0.6221    2.7620 O   0  0  0  0  0  0  0  0  0  0  0  0 
    2.8291   -2.6832    3.3363 O   0  0  0  0  0  0  0  0  0  0  0  0 
   -2.6586   -0.7609    0.6320 H   0  0  0  0  0  0  0  0  0  0  0  0 
   -1.2527    0.4169    2.3139 H   0  0  0  0  0  0  0  0  0  0  0  0 
   -1.5934   -1.7273   -1.3994 H   0  0  0  0  0  0  0  0  0  0  0  0 
    4.8545   -3.8345   -2.2952 H   0  0  0  0  0  0  0  0  0  0  0  0 
    5.2868   -5.0750   -0.1732 H   0  0  0  0  0  0  0  0  0  0  0  0 
    1.1913    0.6161    1.9712 H   0  0  0  0  0  0  0  0  0  0  0  0 
    0.8465   -1.5237   -1.7371 H   0  0  0  0  0  0  0  0  0  0  0  0 
    3.6923   -1.6572   -2.2333 H   0  0  0  0  0  0  0  0  0  0  0  0 
    4.5515   -4.1016    1.9753 H   0  0  0  0  0  0  0  0  0  0  0  0 
    3.1123    0.3716    0.6239 H   0  0  0  0  0  0  0  0  0  0  0  0 
    2.8690    0.1686   -1.1107 H   0  0  0  0  0  0  0  0  0  0  0  0 
    2.6424   -3.5222    2.8832 H   0  0  0  0  0  0  0  0  0  0  0  0 
  1 17  1  0  0  0  0 
  1  2  2  0  0  0  0 
  2 18  1  0  0  0  0 
  3  1  1  0  0  0  0 
  4  8  2  0  0  0  0 
  4  5  1  0  0  0  0 
  5  9  2  0  0  0  0 
  6  2  1  0  0  0  0 
  6 22  1  0  0  0  0 
  7  3  2  0  0  0  0 
  7 11  1  0  0  0  0 
  8 12  1  0  0  0  0 
  9 13  1  0  0  0  0 
  9 25  1  0  0  0  0 
 10 12  1  0  0  0  0 
 10 11  1  0  0  0  0 
 10 26  1  0  0  0  0 
 11  6  2  0  0  0  0 
 12 13  2  0  0  0  0 
 13 14  1  0  0  0  0 
 14 15  2  0  0  0  0 
 14 16  1  0  0  0  0 
 19  3  1  0  0  0  0 
 20  4  1  0  0  0  0 
 21  5  1  0  0  0  0 
 23  7  1  0  0  0  0 
 24  8  1  0  0  0  0 
 27 10  1  0  0  0  0 
 28 16  1  0  0  0  0 
M  END 
>  <HBA> 
2 
 
>  <HBD> 
1 
 
>  <TPSA> 
37.3 
 
>  <cid> 
11924 
 
>  <dipole> 
4.22 
 
>  <excitation_energy_1> 
4.427 
 
>  <excitation_energy_2> 
4.671 
 
>  <excitation_energy_3> 
4.842 
 
>  <excitation_energy_4> 
4.931 
 
>  <homo_energy> 
-6.463 
 
>  <homo_lumo_gap> 
5.208 
 
>  <logP> 
2.976 
 
>  <lumo_energy> 
-1.254 
 
>  <melting_point> 
129.87 
 
>  <molecular_refractivity> 
62.85 
 
>  <oscillator_strength_1> 
0.0027 
 
>  <oscillator_strength_2> 
0.0044 
 
>  <oscillator_strength_3> 
0.0076 
 
>  <oscillator_strength_4> 
0.0124 
 
>  <open_babel_can_smiles> 
OC(=O)c1ccccc1Cc1ccccc1 
 
>  <mulliken_charges> 
28 
1   -0.131333 
2   -0.128718 
3   -0.128567 
4   -0.114724 
5   -0.130836 
6   -0.194926 
7   -0.176994 
8   -0.196972 
9   -0.192122 
10   -0.454014 
11   0.167646 
12   0.167205 
13   -0.009221 
14   0.553941 
15   -0.449516 
16   -0.564469 
17   0.127283 
18   0.131628 
19   0.126397 
20   0.140847 
21   0.140482 
22   0.156075 
23   0.120079 
24   0.135699 
25   0.144383 
26   0.196211 
27   0.153076 
28   0.41146 
 
>  <lowdin_charges> 
28 
1   -0.158659 
2   -0.155092 
3   -0.158622 
4   -0.140107 
5   -0.155615 
6   -0.166504 
7   -0.167171 
8   -0.164438 
9   -0.163216 
10   -0.280152 
11   -0.005436 
12   0.026955 
13   -0.061596 
14   0.198896 
15   -0.240601 
16   -0.351492 
17   0.154746 
18   0.159155 
19   0.157281 
20   0.163641 
21   0.163037 
22   0.170536 
23   0.153616 
24   0.160344 
25   0.162118 
26   0.180946 
27   0.157274 
28   0.360156 
 
$$$$ 
 
