PCCDB-ID:  9470 
public computational chemistry database (PCCDB) project, http://pccdb.org 
 
 30 31  0  0  1  0  0  0  0  0999 V2000 
    4.0515   -4.3132    0.6652 C   0  0  0  0  0  0  0  0  0  0  0  0 
    4.9867   -3.5210   -0.0033 C   0  0  0  0  0  0  0  0  0  0  0  0 
    2.7814   -3.8001    0.9362 C   0  0  0  0  0  0  0  0  0  0  0  0 
    0.3886    4.6308    0.3952 C   0  0  0  0  0  0  0  0  0  0  0  0 
   -0.7313    3.7926    0.4640 C   0  0  0  0  0  0  0  0  0  0  0  0 
    4.6591   -2.2215   -0.3938 C   0  0  0  0  0  0  0  0  0  0  0  0 
    2.4522   -2.5038    0.5394 C   0  0  0  0  0  0  0  0  0  0  0  0 
    1.6565    4.0733    0.3641 C   0  0  0  0  0  0  0  0  0  0  0  0 
   -0.5063    2.4213    0.5014 C   0  0  0  0  0  0  0  0  0  0  0  0 
    3.2187    0.6629    0.7179 C   0  0  0  0  0  0  0  0  0  0  0  0 
    3.3881   -1.7008   -0.1251 C   0  0  0  0  0  0  0  0  0  0  0  0 
    3.0300   -0.2774   -0.4950 C   0  0  2  0  0  0  0  0  0  0  0  0 
    1.7736    2.6665    0.4044 C   0  0  0  0  0  0  0  0  0  0  0  0 
    0.7090    1.8561    0.4735 N   0  0  0  0  0  0  0  0  0  0  0  0 
    3.0259    2.0661    0.3404 N   0  0  0  0  0  0  0  0  0  0  0  0 
    3.8545    0.1623   -1.5665 O   0  0  0  0  0  0  0  0  0  0  0  0 
    4.3075   -5.3257    0.9666 H   0  0  0  0  0  0  0  0  0  0  0  0 
    5.9746   -3.9168   -0.2255 H   0  0  0  0  0  0  0  0  0  0  0  0 
    2.0436   -4.4119    1.4490 H   0  0  0  0  0  0  0  0  0  0  0  0 
    0.2706    5.7109    0.3672 H   0  0  0  0  0  0  0  0  0  0  0  0 
   -1.7401    4.1908    0.4887 H   0  0  0  0  0  0  0  0  0  0  0  0 
    5.3768   -1.6055   -0.9250 H   0  0  0  0  0  0  0  0  0  0  0  0 
    1.4573   -2.1118    0.7407 H   0  0  0  0  0  0  0  0  0  0  0  0 
    2.5443    4.6983    0.3099 H   0  0  0  0  0  0  0  0  0  0  0  0 
   -1.3432    1.7267    0.5569 H   0  0  0  0  0  0  0  0  0  0  0  0 
    4.2470    0.5575    1.0778 H   0  0  0  0  0  0  0  0  0  0  0  0 
    2.5323    0.3787    1.5226 H   0  0  0  0  0  0  0  0  0  0  0  0 
    1.9707   -0.2344   -0.7869 H   0  0  0  0  0  0  0  0  0  0  0  0 
    3.7908    2.6830    0.5776 H   0  0  0  0  0  0  0  0  0  0  0  0 
    3.7083    1.1236   -1.6135 H   0  0  0  0  0  0  0  0  0  0  0  0 
  1  3  1  0  0  0  0 
  1 17  1  0  0  0  0 
  2  1  2  0  0  0  0 
  3 19  1  0  0  0  0 
  4  5  1  0  0  0  0 
  5 21  1  0  0  0  0 
  5  9  2  0  0  0  0 
  6 11  2  0  0  0  0 
  6  2  1  0  0  0  0 
  7 23  1  0  0  0  0 
  7  3  2  0  0  0  0 
  8  4  2  0  0  0  0 
  8 13  1  0  0  0  0 
  9 25  1  0  0  0  0 
 10 26  1  0  0  0  0 
 10 27  1  0  0  0  0 
 11  7  1  0  0  0  0 
 12 28  1  6  0  0  0 
 12 11  1  0  0  0  0 
 12 10  1  0  0  0  0 
 13 14  2  0  0  0  0 
 14  9  1  0  0  0  0 
 15 13  1  0  0  0  0 
 15 29  1  0  0  0  0 
 15 10  1  0  0  0  0 
 16 12  1  0  0  0  0 
 18  2  1  0  0  0  0 
 20  4  1  0  0  0  0 
 22  6  1  0  0  0  0 
 24  8  1  0  0  0  0 
 30 16  1  0  0  0  0 
M  END 
>  <HBA> 
3 
 
>  <HBD> 
2 
 
>  <TPSA> 
45.15 
 
>  <cid> 
9470 
 
>  <dipole> 
3.49 
 
>  <excitation_energy_1> 
4.537 
 
>  <excitation_energy_2> 
5.031 
 
>  <excitation_energy_3> 
5.119 
 
>  <excitation_energy_4> 
5.22 
 
>  <homo_energy> 
-5.842 
 
>  <homo_lumo_gap> 
5.295 
 
>  <logP> 
2.3 
 
>  <lumo_energy> 
-0.547 
 
>  <melting_point> 
101.72 
 
>  <molecular_refractivity> 
64.0 
 
>  <oscillator_strength_1> 
0.0366 
 
>  <oscillator_strength_2> 
0.0179 
 
>  <oscillator_strength_3> 
0.0035 
 
>  <oscillator_strength_4> 
0.0202 
 
>  <open_babel_can_smiles> 
O[C@@H](c1ccccc1)CNc1ccccn1 
 
>  <mulliken_charges> 
30 
1   -0.128003 
2   -0.132764 
3   -0.132635 
4   -0.100611 
5   -0.156867 
6   -0.171031 
7   -0.181543 
8   -0.188257 
9   0.04228 
10   -0.137262 
11   0.127688 
12   0.081721 
13   0.510021 
14   -0.498447 
15   -0.664778 
16   -0.646096 
17   0.124571 
18   0.125576 
19   0.125636 
20   0.140965 
21   0.133332 
22   0.147531 
23   0.13056 
24   0.126554 
25   0.139442 
26   0.145661 
27   0.166205 
28   0.148393 
29   0.325103 
30   0.397052 
 
>  <lowdin_charges> 
30 
1   -0.160352 
2   -0.156005 
3   -0.159038 
4   -0.11737 
5   -0.205845 
6   -0.161607 
7   -0.166662 
8   -0.214282 
9   -0.077939 
10   -0.213387 
11   -0.010699 
12   -0.005778 
13   0.100776 
14   -0.192154 
15   -0.3004 
16   -0.463253 
17   0.154332 
18   0.154853 
19   0.157037 
20   0.160978 
21   0.162684 
22   0.169143 
23   0.156831 
24   0.158655 
25   0.157038 
26   0.151674 
27   0.159484 
28   0.143352 
29   0.280207 
30   0.337727 
 
$$$$ 
 
