PCCDB-ID:  16275 
public computational chemistry database (PCCDB) project, http://pccdb.org 
 
 20 20  0  0  0  0  0  0  0  0999 V2000 
    0.7435    1.2582   -0.1893 C   0  0  0  0  0  0  0  0  0  0  0  0 
    1.4582   -0.0224    0.2678 C   0  0  0  0  0  0  0  0  0  0  0  0 
   -0.7232    1.2719    0.2682 C   0  0  0  0  0  0  0  0  0  0  0  0 
    0.7248   -1.2784   -0.2286 C   0  0  0  0  0  0  0  0  0  0  0  0 
   -1.4820    0.0206   -0.2054 C   0  0  0  0  0  0  0  0  0  0  0  0 
   -0.9048   -1.6183    1.6624 C   0  0  0  0  0  0  0  0  0  0  0  0 
   -0.7663   -1.2832    0.1875 C   0  0  0  0  0  0  0  0  0  0  0  0 
   -1.5772   -1.0122    2.4678 O   0  0  0  0  0  0  0  0  0  0  0  0 
    0.7861    1.3202   -1.2873 H   0  0  0  0  0  0  0  0  0  0  0  0 
    1.2685    2.1421    0.1942 H   0  0  0  0  0  0  0  0  0  0  0  0 
    1.5100   -0.0357    1.3667 H   0  0  0  0  0  0  0  0  0  0  0  0 
    2.4946   -0.0337   -0.0921 H   0  0  0  0  0  0  0  0  0  0  0  0 
   -1.2279    2.1711   -0.1067 H   0  0  0  0  0  0  0  0  0  0  0  0 
   -0.7651    1.3205    1.3632 H   0  0  0  0  0  0  0  0  0  0  0  0 
    1.2215   -2.1865    0.1402 H   0  0  0  0  0  0  0  0  0  0  0  0 
    0.7769   -1.3193   -1.3247 H   0  0  0  0  0  0  0  0  0  0  0  0 
   -1.5775    0.0451   -1.2998 H   0  0  0  0  0  0  0  0  0  0  0  0 
   -2.4964    0.0190    0.2077 H   0  0  0  0  0  0  0  0  0  0  0  0 
   -0.3310   -2.5227    1.9778 H   0  0  0  0  0  0  0  0  0  0  0  0 
   -1.2465   -2.1350   -0.3252 H   0  0  0  0  0  0  0  0  0  0  0  0 
  1 10  1  0  0  0  0 
  1  2  1  0  0  0  0 
  1  3  1  0  0  0  0 
  2 11  1  0  0  0  0 
  3 14  1  0  0  0  0 
  4 15  1  0  0  0  0 
  4  7  1  0  0  0  0 
  4  2  1  0  0  0  0 
  5  7  1  0  0  0  0 
  5 18  1  0  0  0  0 
  5  3  1  0  0  0  0 
  6 19  1  0  0  0  0 
  6  8  2  0  0  0  0 
  7  6  1  0  0  0  0 
  9  1  1  0  0  0  0 
 12  2  1  0  0  0  0 
 13  3  1  0  0  0  0 
 16  4  1  0  0  0  0 
 17  5  1  0  0  0  0 
 20  7  1  0  0  0  0 
M  END 
>  <HBA> 
1 
 
>  <HBD> 
0 
 
>  <TPSA> 
17.07 
 
>  <cid> 
16275 
 
>  <dipole> 
2.51 
 
>  <excitation_energy_1> 
4.229 
 
>  <excitation_energy_2> 
6.282 
 
>  <excitation_energy_3> 
6.455 
 
>  <excitation_energy_4> 
6.583 
 
>  <homo_energy> 
-6.773 
 
>  <homo_lumo_gap> 
6.188 
 
>  <logP> 
1.766 
 
>  <lumo_energy> 
-0.585 
 
>  <melting_point> 
27.08 
 
>  <molecular_refractivity> 
33.85 
 
>  <oscillator_strength_1> 
0.0001 
 
>  <oscillator_strength_2> 
0.0149 
 
>  <oscillator_strength_3> 
0.0033 
 
>  <oscillator_strength_4> 
0.0174 
 
>  <open_babel_can_smiles> 
O=CC1CCCCC1 
 
>  <mulliken_charges> 
20 
1   -0.254776 
2   -0.261331 
3   -0.267474 
4   -0.278268 
5   -0.259772 
6   0.252579 
7   -0.166292 
8   -0.388838 
9   0.125697 
10   0.133691 
11   0.137263 
12   0.135587 
13   0.131841 
14   0.155131 
15   0.135151 
16   0.140797 
17   0.127883 
18   0.152181 
19   0.099757 
20   0.149194 
 
>  <lowdin_charges> 
20 
1   -0.2766 
2   -0.276614 
3   -0.279304 
4   -0.274997 
5   -0.273889 
6   0.052837 
7   -0.167703 
8   -0.220436 
9   0.133832 
10   0.145873 
11   0.138978 
12   0.1452 
13   0.145751 
14   0.148583 
15   0.144542 
16   0.144099 
17   0.13912 
18   0.155232 
19   0.113201 
20   0.162293 
 
$$$$ 
 
