PCCDB-ID:  69157 
public computational chemistry database (PCCDB) project, http://pccdb.org 
 
 19 19  0  0  0  0  0  0  0  0999 V2000 
    2.7985   -0.8436    0.7352 C   0  0  0  0  0  0  0  0  0  0  0  0 
    5.1144    2.3906   -0.8550 C   0  0  0  0  0  0  0  0  0  0  0  0 
    4.6081    3.6994   -0.9113 C   0  0  0  0  0  0  0  0  0  0  0  0 
    4.3609    1.3518   -0.3403 C   0  0  0  0  0  0  0  0  0  0  0  0 
    3.3312    3.9381   -0.4410 C   0  0  0  0  0  0  0  0  0  0  0  0 
    3.0442    1.5566    0.1536 C   0  0  0  0  0  0  0  0  0  0  0  0 
    2.5485    2.8976    0.0847 C   0  0  0  0  0  0  0  0  0  0  0  0 
    2.3238    0.5206    0.6523 N   0  0  0  0  0  0  0  0  0  0  0  0 
    1.2248    3.2552    0.5482 N   0  0  0  0  0  0  0  0  0  0  0  0 
    0.8588    4.4280    0.4528 O   0  0  0  0  0  0  0  0  0  0  0  0 
    0.4903    2.3679    1.0306 O   0  0  0  0  0  0  0  0  0  0  0  0 
    2.0086   -1.4517    1.1808 H   0  0  0  0  0  0  0  0  0  0  0  0 
    3.6939   -0.9313    1.3656 H   0  0  0  0  0  0  0  0  0  0  0  0 
    3.0317   -1.2589   -0.2546 H   0  0  0  0  0  0  0  0  0  0  0  0 
    6.1169    2.1821   -1.2198 H   0  0  0  0  0  0  0  0  0  0  0  0 
    5.2050    4.5097   -1.3162 H   0  0  0  0  0  0  0  0  0  0  0  0 
    4.7790    0.3525   -0.3115 H   0  0  0  0  0  0  0  0  0  0  0  0 
    2.8951    4.9287   -0.4637 H   0  0  0  0  0  0  0  0  0  0  0  0 
    1.4000    0.7608    0.9893 H   0  0  0  0  0  0  0  0  0  0  0  0 
  1 12  1  0  0  0  0 
  1 13  1  0  0  0  0 
  2  4  1  0  0  0  0 
  3  2  2  0  0  0  0 
  3  5  1  0  0  0  0 
  4 17  1  0  0  0  0 
  4  6  2  0  0  0  0 
  5  7  2  0  0  0  0 
  6  8  1  0  0  0  0 
  7  6  1  0  0  0  0 
  7  9  1  0  0  0  0 
  8  1  1  0  0  0  0 
  8 19  1  0  0  0  0 
  9 11  2  0  0  0  0 
 10  9  2  0  0  0  0 
 14  1  1  0  0  0  0 
 15  2  1  0  0  0  0 
 16  3  1  0  0  0  0 
 18  5  1  0  0  0  0 
M  END 
>  <HBA> 
1 
 
>  <HBD> 
1 
 
>  <TPSA> 
57.85 
 
>  <cid> 
69157 
 
>  <dipole> 
4.77 
 
>  <excitation_energy_1> 
3.158 
 
>  <excitation_energy_2> 
3.789 
 
>  <excitation_energy_3> 
4.389 
 
>  <excitation_energy_4> 
4.579 
 
>  <homo_energy> 
-5.867 
 
>  <homo_lumo_gap> 
3.706 
 
>  <logP> 
2.233 
 
>  <lumo_energy> 
-2.161 
 
>  <melting_point> 
77.67 
 
>  <molecular_refractivity> 
44.57 
 
>  <oscillator_strength_1> 
0.1174 
 
>  <oscillator_strength_2> 
0.0 
 
>  <oscillator_strength_3> 
0.0005 
 
>  <oscillator_strength_4> 
0.1348 
 
>  <open_babel_can_smiles> 
CNc1ccccc1N(=O)=O 
 
>  <mulliken_charges> 
19 
1   -0.303876 
2   -0.116978 
3   -0.149085 
4   -0.202893 
5   -0.16257 
6   0.366309 
7   0.243435 
8   -0.661863 
9   0.364565 
10   -0.405622 
11   -0.451547 
12   0.171517 
13   0.165494 
14   0.165792 
15   0.140912 
16   0.138726 
17   0.139238 
18   0.182313 
19   0.376135 
 
>  <lowdin_charges> 
19 
1   -0.351561 
2   -0.117914 
3   -0.188844 
4   -0.207516 
5   -0.127608 
6   0.081344 
7   -0.046277 
8   -0.263267 
9   0.31261 
10   -0.255318 
11   -0.294909 
12   0.169023 
13   0.152802 
14   0.152641 
15   0.163197 
16   0.165515 
17   0.165747 
18   0.187047 
19   0.303288 
 
$$$$ 
 
