PCCDB-ID:  69374 
public computational chemistry database (PCCDB) project, http://pccdb.org 
 
 20 20  0  0  0  0  0  0  0  0999 V2000 
   -0.8794    1.0927   -0.0191 C   0  0  0  0  0  0  0  0  0  0  0  0 
   -1.3826   -0.2065    0.0365 C   0  0  0  0  0  0  0  0  0  0  0  0 
    0.4988    1.3127   -0.0469 C   0  0  0  0  0  0  0  0  0  0  0  0 
    0.8713   -1.0673    0.0414 C   0  0  0  0  0  0  0  0  0  0  0  0 
   -1.0502   -2.7162    0.1030 C   0  0  0  0  0  0  0  0  0  0  0  0 
    2.8868    0.4579   -0.0847 C   0  0  0  0  0  0  0  0  0  0  0  0 
   -0.5071   -1.2997    0.0680 C   0  0  0  0  0  0  0  0  0  0  0  0 
    1.3874    0.2324   -0.0240 C   0  0  0  0  0  0  0  0  0  0  0  0 
   -2.2786   -2.8414    0.8099 O   0  0  0  0  0  0  0  0  0  0  0  0 
    3.6408   -0.5027    0.6459 O   0  0  0  0  0  0  0  0  0  0  0  0 
   -1.5626    1.9381   -0.0323 H   0  0  0  0  0  0  0  0  0  0  0  0 
   -2.4532   -0.3859    0.0676 H   0  0  0  0  0  0  0  0  0  0  0  0 
    0.8862    2.3291   -0.0784 H   0  0  0  0  0  0  0  0  0  0  0  0 
    1.5662   -1.9032    0.0795 H   0  0  0  0  0  0  0  0  0  0  0  0 
   -0.2832   -3.3975    0.5050 H   0  0  0  0  0  0  0  0  0  0  0  0 
   -1.2767   -3.0599   -0.9135 H   0  0  0  0  0  0  0  0  0  0  0  0 
    3.1205    1.4840    0.2418 H   0  0  0  0  0  0  0  0  0  0  0  0 
    3.2426    0.3642   -1.1177 H   0  0  0  0  0  0  0  0  0  0  0  0 
   -2.1258   -2.5156    1.7113 H   0  0  0  0  0  0  0  0  0  0  0  0 
    3.3280   -0.4742    1.5642 H   0  0  0  0  0  0  0  0  0  0  0  0 
  1  2  2  0  0  0  0 
  2 12  1  0  0  0  0 
  2  7  1  0  0  0  0 
  3  8  2  0  0  0  0 
  3  1  1  0  0  0  0 
  4  7  2  0  0  0  0 
  4 14  1  0  0  0  0 
  5 15  1  0  0  0  0 
  5  9  1  0  0  0  0 
  6  8  1  0  0  0  0 
  6 17  1  0  0  0  0 
  6 10  1  0  0  0  0 
  7  5  1  0  0  0  0 
  8  4  1  0  0  0  0 
  9 19  1  0  0  0  0 
 10 20  1  0  0  0  0 
 11  1  1  0  0  0  0 
 13  3  1  0  0  0  0 
 16  5  1  0  0  0  0 
 18  6  1  0  0  0  0 
M  END 
>  <HBA> 
2 
 
>  <HBD> 
2 
 
>  <TPSA> 
40.46 
 
>  <cid> 
69374 
 
>  <dipole> 
1.92 
 
>  <excitation_energy_1> 
5.148 
 
>  <excitation_energy_2> 
5.658 
 
>  <excitation_energy_3> 
5.977 
 
>  <excitation_energy_4> 
6.175 
 
>  <homo_energy> 
-6.563 
 
>  <homo_lumo_gap> 
6.343 
 
>  <logP> 
0.671 
 
>  <lumo_energy> 
-0.22 
 
>  <melting_point> 
49.23 
 
>  <molecular_refractivity> 
38.7 
 
>  <oscillator_strength_1> 
0.0008 
 
>  <oscillator_strength_2> 
0.0283 
 
>  <oscillator_strength_3> 
0.1201 
 
>  <oscillator_strength_4> 
0.0734 
 
>  <open_babel_can_smiles> 
OCc1cccc(c1)CO 
 
>  <mulliken_charges> 
20 
1   -0.127673 
2   -0.174411 
3   -0.182338 
4   -0.233204 
5   -0.091792 
6   -0.091801 
7   0.105963 
8   0.10513 
9   -0.608821 
10   -0.608022 
11   0.13122 
12   0.14316 
13   0.1236 
14   0.137476 
15   0.131639 
16   0.166734 
17   0.130052 
18   0.166345 
19   0.388337 
20   0.388405 
 
>  <lowdin_charges> 
20 
1   -0.153331 
2   -0.163796 
3   -0.168858 
4   -0.176001 
5   -0.133823 
6   -0.130532 
7   -0.029565 
8   -0.030292 
9   -0.459458 
10   -0.458942 
11   0.158994 
12   0.163268 
13   0.15403 
14   0.162682 
15   0.135392 
16   0.158017 
17   0.132049 
18   0.15746 
19   0.341496 
20   0.341209 
 
$$$$ 
 
