PCCDB-ID:  70236 
public computational chemistry database (PCCDB) project, http://pccdb.org 
 
 19 18  0  0  0  0  0  0  0  0999 V2000 
    1.5393   -0.7338    0.6084 C   0  0  0  0  0  0  0  0  0  0  0  0 
    0.0429   -0.6767    0.9690 C   0  0  0  0  0  0  0  0  0  0  0  0 
    2.4844   -0.4111    1.7727 C   0  0  0  0  0  0  0  0  0  0  0  0 
   -0.4686    0.7375    1.2572 C   0  0  0  0  0  0  0  0  0  0  0  0 
    3.9732   -0.4347    1.4083 C   0  0  0  0  0  0  0  0  0  0  0  0 
   -2.2569    0.8195    1.6971 S   0  0  0  0  0  0  0  0  0  0  0  0 
    4.6679   -2.0883    0.9673 S   0  0  0  0  0  0  0  0  0  0  0  0 
    1.7402   -0.0478   -0.2289 H   0  0  0  0  0  0  0  0  0  0  0  0 
    1.7600   -1.7436    0.2400 H   0  0  0  0  0  0  0  0  0  0  0  0 
   -0.1576   -1.3185    1.8361 H   0  0  0  0  0  0  0  0  0  0  0  0 
   -0.5354   -1.0964    0.1352 H   0  0  0  0  0  0  0  0  0  0  0  0 
    2.3039   -1.1122    2.5977 H   0  0  0  0  0  0  0  0  0  0  0  0 
    2.2673    0.5946    2.1606 H   0  0  0  0  0  0  0  0  0  0  0  0 
   -0.2782    1.4029    0.4081 H   0  0  0  0  0  0  0  0  0  0  0  0 
    0.0343    1.1733    2.1262 H   0  0  0  0  0  0  0  0  0  0  0  0 
    4.5737   -0.1248    2.2693 H   0  0  0  0  0  0  0  0  0  0  0  0 
    4.1926    0.2661    0.5959 H   0  0  0  0  0  0  0  0  0  0  0  0 
   -2.7272    0.2883    0.5467 H   0  0  0  0  0  0  0  0  0  0  0  0 
    4.0650   -2.2184   -0.2336 H   0  0  0  0  0  0  0  0  0  0  0  0 
  1  2  1  0  0  0  0 
  1  3  1  0  0  0  0 
  2  4  1  0  0  0  0 
  2 10  1  0  0  0  0 
  3 13  1  0  0  0  0 
  3 12  1  0  0  0  0 
  4  6  1  0  0  0  0 
  4 15  1  0  0  0  0 
  5  3  1  0  0  0  0 
  5 16  1  0  0  0  0 
  7  5  1  0  0  0  0 
  8  1  1  0  0  0  0 
  9  1  1  0  0  0  0 
 11  2  1  0  0  0  0 
 14  4  1  0  0  0  0 
 17  5  1  0  0  0  0 
 18  6  1  0  0  0  0 
 19  7  1  0  0  0  0 
M  END 
>  <HBA> 
2 
 
>  <HBD> 
2 
 
>  <TPSA> 
77.6 
 
>  <cid> 
70236 
 
>  <dipole> 
1.67 
 
>  <excitation_energy_1> 
5.202 
 
>  <excitation_energy_2> 
5.287 
 
>  <excitation_energy_3> 
5.777 
 
>  <excitation_energy_4> 
5.815 
 
>  <homo_energy> 
-6.455 
 
>  <homo_lumo_gap> 
7.1 
 
>  <logP> 
2.016 
 
>  <lumo_energy> 
0.645 
 
>  <melting_point> 
14.62 
 
>  <molecular_refractivity> 
42.01 
 
>  <oscillator_strength_1> 
0.0085 
 
>  <oscillator_strength_2> 
0.0168 
 
>  <oscillator_strength_3> 
0.0208 
 
>  <oscillator_strength_4> 
0.0265 
 
>  <open_babel_can_smiles> 
SCCCCCS 
 
>  <mulliken_charges> 
19 
1   -0.263453 
2   -0.248271 
3   -0.243687 
4   -0.415529 
5   -0.417638 
6   -0.080613 
7   -0.084244 
8   0.128382 
9   0.142853 
10   0.156624 
11   0.136826 
12   0.154845 
13   0.13905 
14   0.173686 
15   0.180192 
16   0.181187 
17   0.174806 
18   0.091055 
19   0.093926 
 
>  <lowdin_charges> 
19 
1   -0.280732 
2   -0.280787 
3   -0.28094 
4   -0.374252 
5   -0.371817 
6   -0.085993 
7   -0.08997 
8   0.138491 
9   0.148926 
10   0.154283 
11   0.147011 
12   0.153127 
13   0.14467 
14   0.157633 
15   0.166784 
16   0.171063 
17   0.159985 
18   0.11124 
19   0.111279 
 
$$$$ 
 
