PCCDB-ID:  17514 
public computational chemistry database (PCCDB) project, http://pccdb.org 
 
 19 19  0  0  0  0  0  0  0  0999 V2000 
    2.0777   -1.3999   -0.0175 C   0  0  0  0  0  0  0  0  0  0  0  0 
    2.9331   -0.1370   -0.1683 C   0  0  0  0  0  0  0  0  0  0  0  0 
    4.5747    0.5030    1.4123 C   0  0  0  0  0  0  0  0  0  0  0  0 
    6.1374    1.1380    2.9955 C   0  0  0  0  0  0  0  0  0  0  0  0 
    6.8332    0.4351    0.8810 C   0  0  0  0  0  0  0  0  0  0  0  0 
    3.3396    0.3498    1.1386 N   0  0  0  0  0  0  0  0  0  0  0  0 
    4.9068    0.9706    2.7098 N   0  0  0  0  0  0  0  0  0  0  0  0 
    5.6324    0.2352    0.4962 N   0  0  0  0  0  0  0  0  0  0  0  0 
    7.1873    0.8937    2.1298 N   0  0  0  0  0  0  0  0  0  0  0  0 
    6.5595    1.5777    4.1934 O   0  0  0  0  0  0  0  0  0  0  0  0 
    7.9004    0.2152    0.0947 O   0  0  0  0  0  0  0  0  0  0  0  0 
    1.6929   -1.7261   -0.9913 H   0  0  0  0  0  0  0  0  0  0  0  0 
    1.2296   -1.2128    0.6491 H   0  0  0  0  0  0  0  0  0  0  0  0 
    2.6672   -2.2193    0.4095 H   0  0  0  0  0  0  0  0  0  0  0  0 
    2.3200    0.6486   -0.6338 H   0  0  0  0  0  0  0  0  0  0  0  0 
    3.7789   -0.3323   -0.8411 H   0  0  0  0  0  0  0  0  0  0  0  0 
    8.1509    1.0412    2.3962 H   0  0  0  0  0  0  0  0  0  0  0  0 
    5.7508    1.7172    4.7199 H   0  0  0  0  0  0  0  0  0  0  0  0 
    7.5414   -0.1007   -0.7547 H   0  0  0  0  0  0  0  0  0  0  0  0 
  1 14  1  0  0  0  0 
  1 13  1  0  0  0  0 
  2  1  1  0  0  0  0 
  2  6  1  0  0  0  0 
  3  7  2  0  0  0  0 
  4 10  1  0  0  0  0 
  5  9  1  0  0  0  0 
  6  3  1  0  0  0  0 
  7  4  2  0  0  0  0 
  8  5  2  0  0  0  0 
  8  3  2  0  0  0  0 
  9 17  1  0  0  0  0 
  9  4  1  0  0  0  0 
 10 18  1  0  0  0  0 
 11  5  1  0  0  0  0 
 12  1  1  0  0  0  0 
 15  2  1  0  0  0  0 
 16  2  1  0  0  0  0 
 19 11  1  0  0  0  0 
M  RAD  1   6   2 
M  END 
>  <HBA> 
4 
 
>  <HBD> 
3 
 
>  <TPSA> 
90.64 
 
>  <cid> 
17514 
 
>  <dipole> 
4.37 
 
>  <excitation_energy_1> 
4.751 
 
>  <excitation_energy_2> 
4.982 
 
>  <excitation_energy_3> 
5.0 
 
>  <excitation_energy_4> 
5.129 
 
>  <homo_energy> 
-5.894 
 
>  <homo_lumo_gap> 
5.769 
 
>  <logP> 
-1.037 
 
>  <lumo_energy> 
-0.125 
 
>  <melting_point> 
218.15 
 
>  <molecular_refractivity> 
39.59 
 
>  <oscillator_strength_1> 
0.0012 
 
>  <oscillator_strength_2> 
0.0004 
 
>  <oscillator_strength_3> 
0.0027 
 
>  <oscillator_strength_4> 
0.0004 
 
>  <open_babel_can_smiles> 
CC[N][C]1=[N]=C(O)NC(=[N]=1)O 
 
>  <mulliken_charges> 
19 
1   -0.431868 
2   -0.138483 
3   0.56041 
4   0.714045 
5   0.715929 
6   -0.456983 
7   -0.494901 
8   -0.518337 
9   -0.663065 
10   -0.608078 
11   -0.603973 
12   0.129251 
13   0.153865 
14   0.140575 
15   0.134974 
16   0.134744 
17   0.365867 
18   0.433761 
19   0.432267 
 
>  <lowdin_charges> 
19 
1   -0.446478 
2   -0.203456 
3   0.104983 
4   0.171176 
5   0.178291 
6   -0.202104 
7   -0.217512 
8   -0.248989 
9   -0.235185 
10   -0.349736 
11   -0.34598 
12   0.14375 
13   0.154016 
14   0.14737 
15   0.142988 
16   0.133632 
17   0.315509 
18   0.379395 
19   0.378329 
 
$$$$ 
 
