PCCDB-ID:  27923 
public computational chemistry database (PCCDB) project, http://pccdb.org 
 
 17 18  0  0  1  0  0  0  0  0999 V2000 
   -1.5861   -0.4989   -0.2250 C   0  0  0  0  0  0  0  0  0  0  0  0 
   -1.4631    0.7437    0.2839 C   0  0  0  0  0  0  0  0  0  0  0  0 
   -0.4148   -1.4457   -0.5410 C   0  0  0  0  0  0  0  0  0  0  0  0 
   -0.1293    1.4669    0.5404 C   0  0  0  0  0  0  0  0  0  0  0  0 
    2.1088   -0.2009   -0.0579 C   0  0  0  0  0  0  0  0  0  0  0  0 
    0.7435   -0.8049    0.1899 C   0  0  1  0  0  0  0  0  0  0  0  0 
    0.8611    0.6353   -0.2431 C   0  0  1  0  0  0  0  0  0  0  0  0 
   -2.5894   -0.8890   -0.3953 H   0  0  0  0  0  0  0  0  0  0  0  0 
   -2.3725    1.3045    0.4996 H   0  0  0  0  0  0  0  0  0  0  0  0 
   -0.2514   -1.5145   -1.6263 H   0  0  0  0  0  0  0  0  0  0  0  0 
   -0.6524   -2.4617   -0.1945 H   0  0  0  0  0  0  0  0  0  0  0  0 
    0.0954    1.4995    1.6164 H   0  0  0  0  0  0  0  0  0  0  0  0 
   -0.1998    2.5109    0.2028 H   0  0  0  0  0  0  0  0  0  0  0  0 
    2.6683   -0.3943   -0.9707 H   0  0  0  0  0  0  0  0  0  0  0  0 
    2.7357   -0.1122    0.8270 H   0  0  0  0  0  0  0  0  0  0  0  0 
    0.5715   -0.8681    1.2665 H   0  0  0  0  0  0  0  0  0  0  0  0 
    0.6513    0.7329   -1.3104 H   0  0  0  0  0  0  0  0  0  0  0  0 
  1  2  2  0  0  0  0 
  2  9  1  0  0  0  0 
  2  4  1  0  0  0  0 
  3  1  1  0  0  0  0 
  3 11  1  0  0  0  0 
  3  6  1  0  0  0  0 
  4 12  1  0  0  0  0 
  5  6  1  0  0  0  0 
  5 15  1  0  0  0  0 
  6 16  1  1  0  0  0 
  7 17  1  6  0  0  0 
  7  5  1  0  0  0  0 
  7  6  1  0  0  0  0 
  7  4  1  0  0  0  0 
  8  1  1  0  0  0  0 
 10  3  1  0  0  0  0 
 13  4  1  0  0  0  0 
 14  5  1  0  0  0  0 
M  END 
>  <HBA> 
0 
 
>  <HBD> 
0 
 
>  <TPSA> 
0.0 
 
>  <cid> 
27923 
 
>  <dipole> 
0.07 
 
>  <excitation_energy_1> 
5.814 
 
>  <excitation_energy_2> 
6.045 
 
>  <excitation_energy_3> 
6.107 
 
>  <excitation_energy_4> 
6.36 
 
>  <homo_energy> 
-6.395 
 
>  <homo_lumo_gap> 
7.129 
 
>  <logP> 
1.972 
 
>  <lumo_energy> 
0.735 
 
>  <melting_point> 
27.72 
 
>  <molecular_refractivity> 
31.06 
 
>  <oscillator_strength_1> 
0.0 
 
>  <oscillator_strength_2> 
0.0001 
 
>  <oscillator_strength_3> 
0.0087 
 
>  <oscillator_strength_4> 
0.0043 
 
>  <open_babel_can_smiles> 
C1=CC[C@@H]2[C@@H](C1)C2 
 
>  <mulliken_charges> 
17 
1   -0.113691 
2   -0.113374 
3   -0.299867 
4   -0.300155 
5   -0.328156 
6   -0.111969 
7   -0.111433 
8   0.119419 
9   0.119374 
10   0.145276 
11   0.138662 
12   0.145299 
13   0.138629 
14   0.146939 
15   0.146918 
16   0.13909 
17   0.13904 
 
>  <lowdin_charges> 
17 
1   -0.174209 
2   -0.175204 
3   -0.264041 
4   -0.263695 
5   -0.294271 
6   -0.168177 
7   -0.168585 
8   0.150047 
9   0.151087 
10   0.149727 
11   0.14573 
12   0.149886 
13   0.145195 
14   0.160978 
15   0.161071 
16   0.147144 
17   0.147317 
 
$$$$ 
 
