PCCDB-ID:  6387 
public computational chemistry database (PCCDB) project, http://pccdb.org 
 
 15 14  0  0  0  0  0  0  0  0999 V2000 
    0.9130    0.0030    0.1005 C   0  0  0  0  0  0  0  0  0  0  0  0 
    2.9755   -1.4477   -0.0515 C   0  0  0  0  0  0  0  0  0  0  0  0 
    2.9775    0.8611   -1.0679 C   0  0  0  0  0  0  0  0  0  0  0  0 
    2.4477   -0.0121    0.0803 C   0  0  0  0  0  0  0  0  0  0  0  0 
    3.1151    0.7735    1.6440 S   0  0  0  0  0  0  0  0  0  0  0  0 
    0.5210   -0.4195   -0.8345 H   0  0  0  0  0  0  0  0  0  0  0  0 
    0.5287    1.0218    0.2069 H   0  0  0  0  0  0  0  0  0  0  0  0 
    0.5187   -0.5980    0.9278 H   0  0  0  0  0  0  0  0  0  0  0  0 
    2.6180   -1.8937   -0.9895 H   0  0  0  0  0  0  0  0  0  0  0  0 
    2.6241   -2.0796    0.7721 H   0  0  0  0  0  0  0  0  0  0  0  0 
    4.0694   -1.4698   -0.0543 H   0  0  0  0  0  0  0  0  0  0  0  0 
    2.6258    0.4606   -2.0265 H   0  0  0  0  0  0  0  0  0  0  0  0 
    4.0725    0.8736   -1.0881 H   0  0  0  0  0  0  0  0  0  0  0  0 
    2.6215    1.8933   -0.9818 H   0  0  0  0  0  0  0  0  0  0  0  0 
    2.5622   -0.1047    2.5102 H   0  0  0  0  0  0  0  0  0  0  0  0 
  1  7  1  0  0  0  0 
  1  8  1  0  0  0  0 
  2  4  1  0  0  0  0 
  2 10  1  0  0  0  0 
  3 14  1  0  0  0  0 
  3  4  1  0  0  0  0 
  4  1  1  0  0  0  0 
  4  5  1  0  0  0  0 
  5 15  1  0  0  0  0 
  6  1  1  0  0  0  0 
  9  2  1  0  0  0  0 
 11  2  1  0  0  0  0 
 12  3  1  0  0  0  0 
 13  3  1  0  0  0  0 
M  END 
>  <HBA> 
1 
 
>  <HBD> 
1 
 
>  <TPSA> 
38.8 
 
>  <cid> 
6387 
 
>  <dipole> 
1.84 
 
>  <excitation_energy_1> 
5.187 
 
>  <excitation_energy_2> 
5.716 
 
>  <excitation_energy_3> 
6.296 
 
>  <excitation_energy_4> 
6.57 
 
>  <homo_energy> 
-6.299 
 
>  <homo_lumo_gap> 
6.966 
 
>  <logP> 
1.715 
 
>  <lumo_energy> 
0.667 
 
>  <melting_point> 
6.05 
 
>  <molecular_refractivity> 
29.31 
 
>  <oscillator_strength_1> 
0.0109 
 
>  <oscillator_strength_2> 
0.0311 
 
>  <oscillator_strength_3> 
0.0003 
 
>  <oscillator_strength_4> 
0.0026 
 
>  <open_babel_can_smiles> 
CC(S)(C)C 
 
>  <mulliken_charges> 
15 
1   -0.424431 
2   -0.42461 
3   -0.446148 
4   -0.063969 
5   -0.094671 
6   0.143492 
7   0.162189 
8   0.143484 
9   0.143474 
10   0.143487 
11   0.162207 
12   0.149757 
13   0.161133 
14   0.16104 
15   0.083567 
 
>  <lowdin_charges> 
15 
1   -0.444439 
2   -0.443061 
3   -0.441785 
4   -0.061874 
5   -0.107501 
6   0.149566 
7   0.159086 
8   0.151259 
9   0.149486 
10   0.151207 
11   0.157805 
12   0.153996 
13   0.157171 
14   0.158104 
15   0.110979 
 
$$$$ 
 
