PCCDB-ID:  55897 
public computational chemistry database (PCCDB) project, http://pccdb.org 
 
 22 23  0  0  1  0  0  0  0  0999 V2000 
   -1.8605    0.3124   -0.2632 C   0  0  0  0  0  0  0  0  0  0  0  0 
   -1.0470    1.4451   -0.3045 C   0  0  0  0  0  0  0  0  0  0  0  0 
   -1.2978   -0.9359    0.0145 C   0  0  0  0  0  0  0  0  0  0  0  0 
    0.3229    1.3264   -0.0701 C   0  0  0  0  0  0  0  0  0  0  0  0 
    0.0692   -1.0562    0.2577 C   0  0  0  0  0  0  0  0  0  0  0  0 
    4.2552   -1.8109    1.4037 C   0  0  0  0  0  0  0  0  0  0  0  0 
    4.7279   -1.2041    0.0909 C   0  0  0  0  0  0  0  0  0  0  0  0 
    0.8941    0.0788    0.2149 C   0  0  0  0  0  0  0  0  0  0  0  0 
    2.3793   -0.0178    0.4338 C   0  0  1  0  0  0  0  0  0  0  0  0 
    2.5950   -2.3292   -1.1036 O   0  0  0  0  0  0  0  0  0  0  0  0 
    2.8587   -0.7906    2.0499 S   0  0  0  0  0  0  0  0  0  0  0  0 
    3.2317   -0.9670   -0.9676 S   0  0  2  0  0  0  0  0  0  0  0  0 
   -2.9285    0.4014   -0.4437 H   0  0  0  0  0  0  0  0  0  0  0  0 
   -1.4762    2.4206   -0.5165 H   0  0  0  0  0  0  0  0  0  0  0  0 
   -1.9270   -1.8212    0.0445 H   0  0  0  0  0  0  0  0  0  0  0  0 
    0.9544    2.2117   -0.1019 H   0  0  0  0  0  0  0  0  0  0  0  0 
    0.5065   -2.0249    0.4700 H   0  0  0  0  0  0  0  0  0  0  0  0 
    5.0525   -1.8151    2.1521 H   0  0  0  0  0  0  0  0  0  0  0  0 
    3.9089   -2.8338    1.2385 H   0  0  0  0  0  0  0  0  0  0  0  0 
    5.4016   -1.8711   -0.4566 H   0  0  0  0  0  0  0  0  0  0  0  0 
    5.2051   -0.2268    0.2218 H   0  0  0  0  0  0  0  0  0  0  0  0 
    2.8276    0.9797    0.3686 H   0  0  0  0  0  0  0  0  0  0  0  0 
  1  3  1  0  0  0  0 
  2  1  2  0  0  0  0 
  2  4  1  0  0  0  0 
  3 15  1  0  0  0  0 
  3  5  2  0  0  0  0 
  4  8  2  0  0  0  0 
  5 17  1  0  0  0  0 
  6 11  1  0  0  0  0 
  6 18  1  0  0  0  0 
  7 21  1  0  0  0  0 
  7  6  1  0  0  0  0 
  8  5  1  0  0  0  0 
  8  9  1  0  0  0  0 
  9 22  1  6  0  0  0 
  9 11  1  0  0  0  0 
 12 10  2  1  0  0  0 
 12  7  1  0  0  0  0 
 12  9  1  0  0  0  0 
 13  1  1  0  0  0  0 
 14  2  1  0  0  0  0 
 16  4  1  0  0  0  0 
 19  6  1  0  0  0  0 
 20  7  1  0  0  0  0 
M  END 
>  <HBA> 
2 
 
>  <HBD> 
0 
 
>  <TPSA> 
61.58 
 
>  <cid> 
55897 
 
>  <dipole> 
2.77 
 
>  <excitation_energy_1> 
4.666 
 
>  <excitation_energy_2> 
4.734 
 
>  <excitation_energy_3> 
4.983 
 
>  <excitation_energy_4> 
5.045 
 
>  <homo_energy> 
-6.114 
 
>  <homo_lumo_gap> 
5.603 
 
>  <logP> 
3.046 
 
>  <lumo_energy> 
-0.512 
 
>  <melting_point> 
56.67 
 
>  <molecular_refractivity> 
54.78 
 
>  <oscillator_strength_1> 
0.0064 
 
>  <oscillator_strength_2> 
0.0393 
 
>  <oscillator_strength_3> 
0.0293 
 
>  <oscillator_strength_4> 
0.0001 
 
>  <open_babel_can_smiles> 
O=[S@@]1CCS[C@@H]1c1ccccc1 
 
>  <mulliken_charges> 
22 
1   -0.123255 
2   -0.127823 
3   -0.136876 
4   -0.173639 
5   -0.135957 
6   -0.427127 
7   -0.463963 
8   0.155117 
9   -0.556596 
10   -0.622137 
11   0.133974 
12   0.799119 
13   0.13265 
14   0.131885 
15   0.136488 
16   0.126789 
17   0.171385 
18   0.191171 
19   0.213104 
20   0.198168 
21   0.183068 
22   0.194456 
 
>  <lowdin_charges> 
22 
1   -0.147813 
2   -0.156898 
3   -0.152946 
4   -0.162749 
5   -0.138368 
6   -0.376794 
7   -0.42698 
8   -0.022833 
9   -0.363948 
10   -0.655327 
11   0.105099 
12   0.804662 
13   0.157492 
14   0.158962 
15   0.1618 
16   0.155734 
17   0.179433 
18   0.176805 
19   0.176037 
20   0.182937 
21   0.172904 
22   0.172789 
 
$$$$ 
 
