PCCDB-ID:  52801 
public computational chemistry database (PCCDB) project, http://pccdb.org 
 
 18 18  0  0  0  0  0  0  0  0999 V2000 
   -1.4713   -0.3547    0.0624 C   0  0  0  0  0  0  0  0  0  0  0  0 
   -1.1406    0.9566    0.3885 C   0  0  0  0  0  0  0  0  0  0  0  0 
   -0.4000   -1.1679   -0.3514 C   0  0  0  0  0  0  0  0  0  0  0  0 
    1.0401    0.5717   -0.0559 C   0  0  0  0  0  0  0  0  0  0  0  0 
   -1.7929   -3.0778   -0.9958 N   0  0  0  0  0  0  0  0  0  0  0  0 
    3.3891    0.3787   -0.6903 N   0  0  0  0  0  0  0  0  0  0  0  0 
    0.0955    1.4544    0.3381 N   0  0  0  0  0  0  0  0  0  0  0  0 
    0.8607   -0.7050   -0.4210 N   0  0  0  0  0  0  0  0  0  0  0  0 
   -0.5571   -2.4871   -0.6951 N   0  0  0  0  0  0  0  0  0  0  0  0 
    2.3215    1.0558   -0.0750 N   0  0  0  0  0  0  0  0  0  0  0  0 
   -2.4879   -0.7201    0.1333 H   0  0  0  0  0  0  0  0  0  0  0  0 
   -1.9191    1.6502    0.7054 H   0  0  0  0  0  0  0  0  0  0  0  0 
   -2.3547   -2.4472   -1.5707 H   0  0  0  0  0  0  0  0  0  0  0  0 
   -2.3017   -3.2461   -0.1295 H   0  0  0  0  0  0  0  0  0  0  0  0 
    3.0309   -0.0767   -1.5325 H   0  0  0  0  0  0  0  0  0  0  0  0 
    3.6641   -0.3840   -0.0708 H   0  0  0  0  0  0  0  0  0  0  0  0 
    0.2362   -2.9154   -1.1539 H   0  0  0  0  0  0  0  0  0  0  0  0 
    2.4158    2.0607   -0.0312 H   0  0  0  0  0  0  0  0  0  0  0  0 
  1 11  1  0  0  0  0 
  1  2  2  0  0  0  0 
  2 12  1  0  0  0  0 
  3  1  1  0  0  0  0 
  4  7  2  0  0  0  0 
  5  9  1  0  0  0  0 
  5 14  1  0  0  0  0 
  6 10  1  0  0  0  0 
  6 16  1  0  0  0  0 
  7  2  1  0  0  0  0 
  8  3  2  0  0  0  0 
  8  4  1  0  0  0  0 
  9  3  1  0  0  0  0 
 10  4  1  0  0  0  0 
 10 18  1  0  0  0  0 
 13  5  1  0  0  0  0 
 15  6  1  0  0  0  0 
 17  9  1  0  0  0  0 
M  END 
>  <HBA> 
6 
 
>  <HBD> 
4 
 
>  <TPSA> 
101.88 
 
>  <cid> 
52801 
 
>  <dipole> 
2.56 
 
>  <excitation_energy_1> 
4.633 
 
>  <excitation_energy_2> 
4.945 
 
>  <excitation_energy_3> 
5.13 
 
>  <excitation_energy_4> 
5.494 
 
>  <homo_energy> 
-5.788 
 
>  <homo_lumo_gap> 
5.421 
 
>  <logP> 
0.594 
 
>  <lumo_energy> 
-0.367 
 
>  <melting_point> 
214.26 
 
>  <molecular_refractivity> 
36.44 
 
>  <oscillator_strength_1> 
0.0898 
 
>  <oscillator_strength_2> 
0.0033 
 
>  <oscillator_strength_3> 
0.0079 
 
>  <oscillator_strength_4> 
0.0989 
 
>  <open_babel_can_smiles> 
NNc1ccnc(n1)NN 
 
>  <mulliken_charges> 
18 
1   -0.218829 
2   0.060709 
3   0.540489 
4   0.656132 
5   -0.567663 
6   -0.558984 
7   -0.49424 
8   -0.586454 
9   -0.526484 
10   -0.518322 
11   0.114715 
12   0.140695 
13   0.314629 
14   0.326136 
15   0.315345 
16   0.322458 
17   0.337289 
18   0.342379 
 
>  <lowdin_charges> 
18 
1   -0.289157 
2   -0.051712 
3   0.116735 
4   0.122434 
5   -0.460796 
6   -0.456255 
7   -0.224803 
8   -0.251485 
9   -0.225082 
10   -0.221434 
11   0.158036 
12   0.158303 
13   0.259268 
14   0.266093 
15   0.258864 
16   0.26486 
17   0.288091 
18   0.288039 
 
$$$$ 
 
