PCCDB-ID:  33444 
public computational chemistry database (PCCDB) project, http://pccdb.org 
 
 34 34  0  0  1  0  0  0  0  0999 V2000 
    2.6267   -1.6935    0.7404 C   0  0  0  0  0  0  0  0  0  0  0  0 
    1.3247   -0.0825   -0.7213 C   0  0  0  0  0  0  0  0  0  0  0  0 
    7.4512   -0.7654   -2.3937 C   0  0  0  0  0  0  0  0  0  0  0  0 
    8.8662   -2.0707   -0.7439 C   0  0  0  0  0  0  0  0  0  0  0  0 
    6.3324    3.5685    2.6682 C   0  0  0  0  0  0  0  0  0  0  0  0 
    2.6931   -0.4149   -0.1141 C   0  0  0  0  0  0  0  0  0  0  0  0 
    7.6310   -1.1812   -0.9237 C   0  0  0  0  0  0  0  0  0  0  0  0 
    5.9331    2.3992    1.8116 C   0  0  2  0  0  0  0  0  0  0  0  0 
    4.3472    0.9976    0.8708 C   0  0  0  0  0  0  0  0  0  0  0  0 
    6.7683    0.5879    0.4140 C   0  0  0  0  0  0  0  0  0  0  0  0 
    3.1132    0.7120    0.7074 N   0  0  0  0  0  0  0  0  0  0  0  0 
    7.7878   -0.0017   -0.0777 N   0  0  0  0  0  0  0  0  0  0  0  0 
    4.6880    2.0909    1.6716 N   0  0  0  0  0  0  0  0  0  0  0  0 
    6.9669    1.7142    1.2155 N   0  0  0  0  0  0  0  0  0  0  0  0 
    5.4236    0.2775    0.2878 N   0  0  0  0  0  0  0  0  0  0  0  0 
    2.2628   -2.5418    0.1490 H   0  0  0  0  0  0  0  0  0  0  0  0 
    1.9452   -1.5392    1.5838 H   0  0  0  0  0  0  0  0  0  0  0  0 
    3.6093   -1.9564    1.1494 H   0  0  0  0  0  0  0  0  0  0  0  0 
    0.9646   -0.9029   -1.3533 H   0  0  0  0  0  0  0  0  0  0  0  0 
    1.3851    0.8257   -1.3296 H   0  0  0  0  0  0  0  0  0  0  0  0 
    0.5951    0.0958    0.0758 H   0  0  0  0  0  0  0  0  0  0  0  0 
    7.3654   -1.6448   -3.0427 H   0  0  0  0  0  0  0  0  0  0  0  0 
    8.3134   -0.1749   -2.7227 H   0  0  0  0  0  0  0  0  0  0  0  0 
    6.5536   -0.1510   -2.5295 H   0  0  0  0  0  0  0  0  0  0  0  0 
    8.7905   -2.9774   -1.3553 H   0  0  0  0  0  0  0  0  0  0  0  0 
    8.9788   -2.3666    0.3042 H   0  0  0  0  0  0  0  0  0  0  0  0 
    9.7690   -1.5242   -1.0384 H   0  0  0  0  0  0  0  0  0  0  0  0 
    5.4325    4.0570    3.0419 H   0  0  0  0  0  0  0  0  0  0  0  0 
    6.9248    4.2913    2.0942 H   0  0  0  0  0  0  0  0  0  0  0  0 
    6.9415    3.2381    3.5188 H   0  0  0  0  0  0  0  0  0  0  0  0 
    3.3825   -0.5991   -0.9622 H   0  0  0  0  0  0  0  0  0  0  0  0 
    6.7526   -1.7847   -0.6250 H   0  0  0  0  0  0  0  0  0  0  0  0 
    7.9337    1.9734    1.3577 H   0  0  0  0  0  0  0  0  0  0  0  0 
    5.1962   -0.5214   -0.2845 H   0  0  0  0  0  0  0  0  0  0  0  0 
  1 18  1  0  0  0  0 
  1 17  1  0  0  0  0 
  2  6  1  0  0  0  0 
  2 21  1  0  0  0  0 
  3  7  1  0  0  0  0 
  4 26  1  0  0  0  0 
  5 28  1  0  0  0  0 
  5 30  1  0  0  0  0 
  6 11  1  0  0  0  0 
  6  1  1  0  0  0  0 
  7  4  1  0  0  0  0 
  7 32  1  0  0  0  0 
  7 12  1  0  0  0  0 
  8  5  1  1  0  0  0 
  9 13  2  0  0  0  0 
 10 14  1  0  0  0  0 
 11  9  1  0  0  0  0 
 12 10  2  0  0  0  0 
 13  8  1  0  0  0  0 
 14 33  1  0  0  0  0 
 14  8  1  0  0  0  0 
 15 10  1  0  0  0  0 
 15  9  1  0  0  0  0 
 16  1  1  0  0  0  0 
 19  2  1  0  0  0  0 
 20  2  1  0  0  0  0 
 22  3  1  0  0  0  0 
 23  3  1  0  0  0  0 
 24  3  1  0  0  0  0 
 25  4  1  0  0  0  0 
 27  4  1  0  0  0  0 
 29  5  1  0  0  0  0 
 31  6  1  0  0  0  0 
 34 15  1  0  0  0  0 
M  RAD  2   8   2  11   2 
M  END 
>  <HBA> 
5 
 
>  <HBD> 
2 
 
>  <TPSA> 
62.73 
 
>  <cid> 
33444 
 
>  <dipole> 
2.75 
 
>  <excitation_energy_1> 
4.84 
 
>  <excitation_energy_2> 
4.951 
 
>  <excitation_energy_3> 
5.082 
 
>  <excitation_energy_4> 
5.359 
 
>  <homo_energy> 
-6.125 
 
>  <homo_lumo_gap> 
5.578 
 
>  <logP> 
1.967 
 
>  <lumo_energy> 
-0.547 
 
>  <melting_point> 
122.13 
 
>  <molecular_refractivity> 
62.63 
 
>  <oscillator_strength_1> 
0.0022 
 
>  <oscillator_strength_2> 
0.0954 
 
>  <oscillator_strength_3> 
0.1056 
 
>  <oscillator_strength_4> 
0.0205 
 
>  <open_babel_can_smiles> 
CC([N]C1=N[C](C)N/C(=N/C(C)C)/N1)C 
 
>  <mulliken_charges> 
34 
1   -0.436274 
2   -0.426989 
3   -0.435001 
4   -0.428835 
5   -0.534952 
6   0.006632 
7   0.011624 
8   0.518279 
9   0.636173 
10   0.748122 
11   -0.445814 
12   -0.500231 
13   -0.488425 
14   -0.672069 
15   -0.739356 
16   0.139718 
17   0.162608 
18   0.135662 
19   0.129109 
20   0.14878 
21   0.1551 
22   0.141848 
23   0.156623 
24   0.139148 
25   0.134319 
26   0.14736 
27   0.150472 
28   0.204521 
29   0.171813 
30   0.174803 
31   0.091978 
32   0.101755 
33   0.345897 
34   0.355603 
 
>  <lowdin_charges> 
34 
1   -0.45089 
2   -0.444259 
3   -0.452073 
4   -0.442141 
5   -0.452605 
6   -0.061164 
7   -0.055283 
8   0.116286 
9   0.119293 
10   0.137437 
11   -0.211481 
12   -0.266488 
13   -0.195861 
14   -0.230683 
15   -0.27609 
16   0.149836 
17   0.159803 
18   0.144344 
19   0.144203 
20   0.154285 
21   0.156897 
22   0.150641 
23   0.15696 
24   0.146739 
25   0.146308 
26   0.152006 
27   0.153974 
28   0.188466 
29   0.169593 
30   0.17084 
31   0.109857 
32   0.115082 
33   0.302129 
34   0.29404 
 
$$$$ 
 
