PCCDB-ID:  23544 
public computational chemistry database (PCCDB) project, http://pccdb.org 
 
 32 31  0  0  1  0  0  0  0  0999 V2000 
    0.5091   -3.2427   -0.2894 C   0  0  0  0  0  0  0  0  0  0  0  0 
    6.9473   -3.0646   -1.1347 C   0  0  0  0  0  0  0  0  0  0  0  0 
    1.8896   -0.5128   -1.0824 C   0  0  0  0  0  0  0  0  0  0  0  0 
    4.3694   -4.1321   -2.5082 C   0  0  0  0  0  0  0  0  0  0  0  0 
    4.3549   -2.0474   -3.9012 C   0  0  0  0  0  0  0  0  0  0  0  0 
    2.0079   -2.9214   -0.2589 C   0  0  0  0  0  0  0  0  0  0  0  0 
    6.2831   -2.4700   -2.3837 C   0  0  0  0  0  0  0  0  0  0  0  0 
    4.0321   -1.8421   -1.3967 C   0  0  0  0  0  0  0  0  0  0  0  0 
    2.4798   -1.9119   -1.3290 C   0  0  2  0  0  0  0  0  0  0  0  0 
    4.7432   -2.6371   -2.5284 C   0  0  0  0  0  0  0  0  0  0  0  0 
    0.2563   -4.0000    0.4618 H   0  0  0  0  0  0  0  0  0  0  0  0 
    0.2096   -3.6363   -1.2691 H   0  0  0  0  0  0  0  0  0  0  0  0 
   -0.1080   -2.3610   -0.0841 H   0  0  0  0  0  0  0  0  0  0  0  0 
    8.0264   -2.8734   -1.1562 H   0  0  0  0  0  0  0  0  0  0  0  0 
    6.8109   -4.1499   -1.0746 H   0  0  0  0  0  0  0  0  0  0  0  0 
    6.5595   -2.6279   -0.2080 H   0  0  0  0  0  0  0  0  0  0  0  0 
    0.7947   -0.5258   -1.0503 H   0  0  0  0  0  0  0  0  0  0  0  0 
    2.1879    0.1831   -1.8754 H   0  0  0  0  0  0  0  0  0  0  0  0 
    2.2469   -0.1005   -0.1293 H   0  0  0  0  0  0  0  0  0  0  0  0 
    4.9299   -4.6792   -3.2771 H   0  0  0  0  0  0  0  0  0  0  0  0 
    3.3036   -4.2815   -2.7140 H   0  0  0  0  0  0  0  0  0  0  0  0 
    4.5893   -4.5988   -1.5419 H   0  0  0  0  0  0  0  0  0  0  0  0 
    4.8674   -2.5797   -4.7121 H   0  0  0  0  0  0  0  0  0  0  0  0 
    4.6347   -0.9885   -3.9693 H   0  0  0  0  0  0  0  0  0  0  0  0 
    3.2784   -2.1216   -4.0914 H   0  0  0  0  0  0  0  0  0  0  0  0 
    2.5678   -3.8570   -0.3794 H   0  0  0  0  0  0  0  0  0  0  0  0 
    2.2806   -2.5321    0.7335 H   0  0  0  0  0  0  0  0  0  0  0  0 
    6.7549   -2.9161   -3.2710 H   0  0  0  0  0  0  0  0  0  0  0  0 
    6.5152   -1.3960   -2.4289 H   0  0  0  0  0  0  0  0  0  0  0  0 
    4.4304   -2.1647   -0.4256 H   0  0  0  0  0  0  0  0  0  0  0  0 
    4.3388   -0.7923   -1.5067 H   0  0  0  0  0  0  0  0  0  0  0  0 
    2.0956   -2.2593   -2.2988 H   0  0  0  0  0  0  0  0  0  0  0  0 
  1  6  1  0  0  0  0 
  1 13  1  0  0  0  0 
  1 11  1  0  0  0  0 
  2 15  1  0  0  0  0 
  2 16  1  0  0  0  0 
  3 17  1  0  0  0  0 
  3 19  1  0  0  0  0 
  4 22  1  0  0  0  0 
  5 10  1  0  0  0  0 
  6 27  1  0  0  0  0 
  7  2  1  0  0  0  0 
  8  9  1  0  0  0  0 
  8 30  1  0  0  0  0 
  9 32  1  6  0  0  0 
  9  3  1  0  0  0  0 
  9  6  1  0  0  0  0 
 10  4  1  0  0  0  0 
 10  7  1  0  0  0  0 
 10  8  1  0  0  0  0 
 12  1  1  0  0  0  0 
 14  2  1  0  0  0  0 
 18  3  1  0  0  0  0 
 20  4  1  0  0  0  0 
 21  4  1  0  0  0  0 
 23  5  1  0  0  0  0 
 24  5  1  0  0  0  0 
 25  5  1  0  0  0  0 
 26  6  1  0  0  0  0 
 28  7  1  0  0  0  0 
 29  7  1  0  0  0  0 
 31  8  1  0  0  0  0 
M  END 
>  <HBA> 
0 
 
>  <HBD> 
0 
 
>  <TPSA> 
0.0 
 
>  <cid> 
23544 
 
>  <dipole> 
0.11 
 
>  <excitation_energy_1> 
7.364 
 
>  <excitation_energy_2> 
7.611 
 
>  <excitation_energy_3> 
7.679 
 
>  <excitation_energy_4> 
7.752 
 
>  <homo_energy> 
-7.837 
 
>  <homo_lumo_gap> 
9.924 
 
>  <logP> 
3.859 
 
>  <lumo_energy> 
2.087 
 
>  <melting_point> 
-10.53 
 
>  <molecular_refractivity> 
49.92 
 
>  <oscillator_strength_1> 
0.0216 
 
>  <oscillator_strength_2> 
0.0229 
 
>  <oscillator_strength_3> 
0.0081 
 
>  <oscillator_strength_4> 
0.0398 
 
>  <open_babel_can_smiles> 
CC[C@H](CC(CC)(C)C)C 
 
>  <mulliken_charges> 
32 
1   -0.449516 
2   -0.455424 
3   -0.458321 
4   -0.454526 
5   -0.449263 
6   -0.258941 
7   -0.246104 
8   -0.275495 
9   -0.056021 
10   0.100111 
11   0.141126 
12   0.139959 
13   0.14541 
14   0.141665 
15   0.145595 
16   0.146621 
17   0.141613 
18   0.140593 
19   0.138435 
20   0.135143 
21   0.142683 
22   0.143471 
23   0.136727 
24   0.135924 
25   0.14158 
26   0.1368 
27   0.126358 
28   0.124592 
29   0.125143 
30   0.130014 
31   0.123182 
32   0.120869 
 
>  <lowdin_charges> 
32 
1   -0.448949 
2   -0.446881 
3   -0.445392 
4   -0.447048 
5   -0.442629 
6   -0.276798 
7   -0.272164 
8   -0.277493 
9   -0.126243 
10   0.012978 
11   0.150421 
12   0.145003 
13   0.147462 
14   0.149012 
15   0.145891 
16   0.147326 
17   0.144711 
18   0.148183 
19   0.144512 
20   0.147497 
21   0.147004 
22   0.147125 
23   0.147182 
24   0.143958 
25   0.144844 
26   0.14334 
27   0.136352 
28   0.139589 
29   0.136943 
30   0.141825 
31   0.138697 
32   0.133741 
 
$$$$ 
 
