PCCDB-ID:  7076 
public computational chemistry database (PCCDB) project, http://pccdb.org 
 
 32 34  0  0  0  0  0  0  0  0999 V2000 
   -1.4884    0.0370    0.2655 C   0  0  0  0  0  0  0  0  0  0  0  0 
    7.0418   -4.5829   -1.7068 C   0  0  0  0  0  0  0  0  0  0  0  0 
   -0.8892   -0.7463   -0.7225 C   0  0  0  0  0  0  0  0  0  0  0  0 
   -0.6947    0.8690    1.0573 C   0  0  0  0  0  0  0  0  0  0  0  0 
    5.7786   -4.3635   -2.2593 C   0  0  0  0  0  0  0  0  0  0  0  0 
    7.6005   -3.6182   -0.8665 C   0  0  0  0  0  0  0  0  0  0  0  0 
    4.8547    1.4346   -0.4170 C   0  0  0  0  0  0  0  0  0  0  0  0 
    0.4905   -0.6977   -0.9164 C   0  0  0  0  0  0  0  0  0  0  0  0 
    0.6850    0.9160    0.8633 C   0  0  0  0  0  0  0  0  0  0  0  0 
    5.0817   -3.1902   -1.9742 C   0  0  0  0  0  0  0  0  0  0  0  0 
    6.9023   -2.4458   -0.5811 C   0  0  0  0  0  0  0  0  0  0  0  0 
    3.4745    1.3981   -0.2285 C   0  0  0  0  0  0  0  0  0  0  0  0 
    5.5590    0.2694   -0.7139 C   0  0  0  0  0  0  0  0  0  0  0  0 
    3.4982   -0.9784   -0.6317 C   0  0  0  0  0  0  0  0  0  0  0  0 
    1.3029    0.1336   -0.1269 C   0  0  0  0  0  0  0  0  0  0  0  0 
    5.6302   -2.2101   -1.1298 C   0  0  0  0  0  0  0  0  0  0  0  0 
    2.7735    0.1856   -0.3343 C   0  0  0  0  0  0  0  0  0  0  0  0 
    4.8877   -0.9593   -0.8255 C   0  0  0  0  0  0  0  0  0  0  0  0 
   -2.5638   -0.0003    0.4170 H   0  0  0  0  0  0  0  0  0  0  0  0 
    7.5856   -5.4971   -1.9287 H   0  0  0  0  0  0  0  0  0  0  0  0 
   -1.4981   -1.3912   -1.3508 H   0  0  0  0  0  0  0  0  0  0  0  0 
   -1.1493    1.4771    1.8351 H   0  0  0  0  0  0  0  0  0  0  0  0 
    5.3370   -5.1036   -2.9215 H   0  0  0  0  0  0  0  0  0  0  0  0 
    8.5796   -3.7820   -0.4238 H   0  0  0  0  0  0  0  0  0  0  0  0 
    5.3835    2.3817   -0.3488 H   0  0  0  0  0  0  0  0  0  0  0  0 
    0.9432   -1.2911   -1.7059 H   0  0  0  0  0  0  0  0  0  0  0  0 
    1.2967    1.5466    1.5026 H   0  0  0  0  0  0  0  0  0  0  0  0 
    4.1109   -3.0176   -2.4305 H   0  0  0  0  0  0  0  0  0  0  0  0 
    7.3350   -1.7142    0.0957 H   0  0  0  0  0  0  0  0  0  0  0  0 
    2.9313    2.3164   -0.0247 H   0  0  0  0  0  0  0  0  0  0  0  0 
    6.6305    0.3134   -0.8861 H   0  0  0  0  0  0  0  0  0  0  0  0 
    2.9755   -1.9298   -0.6638 H   0  0  0  0  0  0  0  0  0  0  0  0 
  1 19  1  0  0  0  0 
  1  4  2  0  0  0  0 
  2  6  2  0  0  0  0 
  3  1  1  0  0  0  0 
  4 22  1  0  0  0  0 
  5 10  2  0  0  0  0 
  5  2  1  0  0  0  0 
  6 11  1  0  0  0  0 
  6 24  1  0  0  0  0 
  7 25  1  0  0  0  0 
  7 12  2  0  0  0  0 
  8  3  2  0  0  0  0 
  8 15  1  0  0  0  0 
  9  4  1  0  0  0  0 
  9 27  1  0  0  0  0 
 10 16  1  0  0  0  0 
 11 29  1  0  0  0  0 
 12 30  1  0  0  0  0 
 13  7  1  0  0  0  0 
 14 17  2  0  0  0  0 
 15  9  2  0  0  0  0 
 16 18  1  0  0  0  0 
 16 11  2  0  0  0  0 
 17 12  1  0  0  0  0 
 17 15  1  0  0  0  0 
 18 13  2  0  0  0  0 
 18 14  1  0  0  0  0 
 20  2  1  0  0  0  0 
 21  3  1  0  0  0  0 
 23  5  1  0  0  0  0 
 26  8  1  0  0  0  0 
 28 10  1  0  0  0  0 
 31 13  1  0  0  0  0 
 32 14  1  0  0  0  0 
M  END 
>  <HBA> 
0 
 
>  <HBD> 
0 
 
>  <TPSA> 
0.0 
 
>  <cid> 
7076 
 
>  <dipole> 
0.03 
 
>  <excitation_energy_1> 
4.477 
 
>  <excitation_energy_2> 
4.682 
 
>  <excitation_energy_3> 
4.891 
 
>  <excitation_energy_4> 
4.925 
 
>  <homo_energy> 
-5.954 
 
>  <homo_lumo_gap> 
5.135 
 
>  <logP> 
5.021 
 
>  <lumo_energy> 
-0.819 
 
>  <melting_point> 
78.86 
 
>  <molecular_refractivity> 
77.31 
 
>  <oscillator_strength_1> 
0.0057 
 
>  <oscillator_strength_2> 
0.1384 
 
>  <oscillator_strength_3> 
0.7628 
 
>  <oscillator_strength_4> 
0.1674 
 
>  <open_babel_can_smiles> 
c1cc(cc(c1)c1ccccc1)c1ccccc1 
 
>  <mulliken_charges> 
32 
1   -0.126438 
2   -0.126415 
3   -0.133984 
4   -0.133696 
5   -0.134298 
6   -0.133681 
7   -0.136687 
8   -0.171617 
9   -0.173891 
10   -0.171446 
11   -0.173813 
12   -0.174294 
13   -0.174273 
14   -0.232084 
15   0.088578 
16   0.088417 
17   0.089794 
18   0.090005 
19   0.129555 
20   0.129598 
21   0.130316 
22   0.130368 
23   0.130373 
24   0.130389 
25   0.131101 
26   0.130536 
27   0.132383 
28   0.130536 
29   0.132394 
30   0.132375 
31   0.132369 
32   0.137528 
 
>  <lowdin_charges> 
32 
1   -0.155759 
2   -0.158063 
3   -0.156037 
4   -0.155252 
5   -0.155701 
6   -0.153602 
7   -0.153132 
8   -0.161992 
9   -0.162808 
10   -0.160378 
11   -0.162478 
12   -0.163715 
13   -0.160657 
14   -0.16697 
15   -0.001059 
16   -0.000949 
17   0.001036 
18   0.000159 
19   0.156097 
20   0.158246 
21   0.159475 
22   0.159075 
23   0.159217 
24   0.157489 
25   0.158845 
26   0.159512 
27   0.160797 
28   0.158025 
29   0.160477 
30   0.160306 
31   0.158008 
32   0.161786 
 
$$$$ 
 
