PCCDB-ID:  50037 
public computational chemistry database (PCCDB) project, http://pccdb.org 
 
 35 35  0  0  0  0  0  0  0  0999 V2000 
    1.8772    1.7653   -1.4554 C   0  0  0  0  0  0  0  0  0  0  0  0 
    2.6529    3.9314   -2.1406 C   0  0  0  0  0  0  0  0  0  0  0  0 
    6.4876   -1.3876    8.2447 C   0  0  0  0  0  0  0  0  0  0  0  0 
    5.7893   -0.2281    4.2314 C   0  0  0  0  0  0  0  0  0  0  0  0 
    8.0628    0.5794    4.1545 C   0  0  0  0  0  0  0  0  0  0  0  0 
    5.9860   -0.6230    5.5578 C   0  0  0  0  0  0  0  0  0  0  0  0 
    8.2569    0.1876    5.4706 C   0  0  0  0  0  0  0  0  0  0  0  0 
    4.0691    2.5356   -0.7529 C   0  0  0  0  0  0  0  0  0  0  0  0 
    4.9105    1.2615   -0.8542 C   0  0  0  0  0  0  0  0  0  0  0  0 
    6.8274    0.3777    3.5169 C   0  0  0  0  0  0  0  0  0  0  0  0 
    7.2172   -0.4201    6.1876 C   0  0  0  0  0  0  0  0  0  0  0  0 
    5.6200    0.7224    1.3516 C   0  0  0  0  0  0  0  0  0  0  0  0 
    6.7099    0.8028    2.1750 N   0  0  0  0  0  0  0  0  0  0  0  0 
    3.0457    2.5707   -1.7968 N   0  0  0  0  0  0  0  0  0  0  0  0 
    4.5301    0.2521    1.6235 O   0  0  0  0  0  0  0  0  0  0  0  0 
    7.5078   -0.7717    7.4777 O   0  0  0  0  0  0  0  0  0  0  0  0 
    5.9527    1.2596    0.1421 O   0  0  0  0  0  0  0  0  0  0  0  0 
    1.1947    1.7301   -2.3116 H   0  0  0  0  0  0  0  0  0  0  0  0 
    1.3203    2.1641   -0.5853 H   0  0  0  0  0  0  0  0  0  0  0  0 
    2.1732    0.7390   -1.2210 H   0  0  0  0  0  0  0  0  0  0  0  0 
    1.9408    3.9053   -2.9730 H   0  0  0  0  0  0  0  0  0  0  0  0 
    3.5298    4.5027   -2.4632 H   0  0  0  0  0  0  0  0  0  0  0  0 
    2.1747    4.4766   -1.3031 H   0  0  0  0  0  0  0  0  0  0  0  0 
    6.9244   -1.5799    9.2266 H   0  0  0  0  0  0  0  0  0  0  0  0 
    6.1641   -2.3386    7.8002 H   0  0  0  0  0  0  0  0  0  0  0  0 
    5.6144   -0.7309    8.3595 H   0  0  0  0  0  0  0  0  0  0  0  0 
    4.8343   -0.3905    3.7507 H   0  0  0  0  0  0  0  0  0  0  0  0 
    8.8807    1.0490    3.6116 H   0  0  0  0  0  0  0  0  0  0  0  0 
    5.1618   -1.0910    6.0841 H   0  0  0  0  0  0  0  0  0  0  0  0 
    9.2112    0.3431    5.9638 H   0  0  0  0  0  0  0  0  0  0  0  0 
    4.7384    3.3924   -0.8886 H   0  0  0  0  0  0  0  0  0  0  0  0 
    3.6415    2.6133    0.2634 H   0  0  0  0  0  0  0  0  0  0  0  0 
    5.4270    1.2257   -1.8154 H   0  0  0  0  0  0  0  0  0  0  0  0 
    4.3037    0.3624   -0.7329 H   0  0  0  0  0  0  0  0  0  0  0  0 
    7.5274    1.2284    1.7597 H   0  0  0  0  0  0  0  0  0  0  0  0 
  1 20  1  0  0  0  0 
  1 19  1  0  0  0  0 
  2 14  1  0  0  0  0 
  2 23  1  0  0  0  0 
  3 26  1  0  0  0  0 
  3 24  1  0  0  0  0 
  4  6  2  0  0  0  0 
  5  7  1  0  0  0  0 
  6 29  1  0  0  0  0 
  6 11  1  0  0  0  0 
  7 30  1  0  0  0  0 
  7 11  2  0  0  0  0 
  8 32  1  0  0  0  0 
  9  8  1  0  0  0  0 
  9 34  1  0  0  0  0 
  9 17  1  0  0  0  0 
 10  5  2  0  0  0  0 
 10  4  1  0  0  0  0 
 11 16  1  0  0  0  0 
 12 15  2  0  0  0  0 
 12 13  1  0  0  0  0 
 13 10  1  0  0  0  0 
 14  1  1  0  0  0  0 
 14  8  1  0  0  0  0 
 16  3  1  0  0  0  0 
 17 12  1  0  0  0  0 
 18  1  1  0  0  0  0 
 21  2  1  0  0  0  0 
 22  2  1  0  0  0  0 
 25  3  1  0  0  0  0 
 27  4  1  0  0  0  0 
 28  5  1  0  0  0  0 
 31  8  1  0  0  0  0 
 33  9  1  0  0  0  0 
 35 13  1  0  0  0  0 
M  END 
>  <HBA> 
5 
 
>  <HBD> 
1 
 
>  <TPSA> 
50.8 
 
>  <cid> 
50037 
 
>  <dipole> 
0.83 
 
>  <excitation_energy_1> 
4.59 
 
>  <excitation_energy_2> 
4.92 
 
>  <excitation_energy_3> 
5.144 
 
>  <excitation_energy_4> 
5.237 
 
>  <homo_energy> 
-5.369 
 
>  <homo_lumo_gap> 
5.372 
 
>  <logP> 
1.878 
 
>  <lumo_energy> 
0.003 
 
>  <melting_point> 
66.73 
 
>  <molecular_refractivity> 
66.04 
 
>  <oscillator_strength_1> 
0.0367 
 
>  <oscillator_strength_2> 
0.0005 
 
>  <oscillator_strength_3> 
0.4814 
 
>  <oscillator_strength_4> 
0.005 
 
>  <open_babel_can_smiles> 
COc1ccc(cc1)NC(=O)OCCN(C)C 
 
>  <mulliken_charges> 
35 
1   -0.303859 
2   -0.295188 
3   -0.213433 
4   -0.176178 
5   -0.198699 
6   -0.210184 
7   -0.176807 
8   -0.139749 
9   -0.039474 
10   0.359087 
11   0.379357 
12   0.812691 
13   -0.745595 
14   -0.375242 
15   -0.513078 
16   -0.511975 
17   -0.508144 
18   0.148917 
19   0.124986 
20   0.159347 
21   0.14896 
22   0.149298 
23   0.120895 
24   0.167838 
25   0.150992 
26   0.150824 
27   0.183375 
28   0.123718 
29   0.134392 
30   0.139025 
31   0.142228 
32   0.139498 
33   0.158829 
34   0.172015 
35   0.341333 
 
>  <lowdin_charges> 
35 
1   -0.358067 
2   -0.357529 
3   -0.278102 
4   -0.17447 
5   -0.180478 
6   -0.204779 
7   -0.17415 
8   -0.21125 
9   -0.134779 
10   0.046013 
11   0.091598 
12   0.214375 
13   -0.238149 
14   -0.185459 
15   -0.306767 
16   -0.203191 
17   -0.216571 
18   0.150722 
19   0.125096 
20   0.152986 
21   0.150389 
22   0.150277 
23   0.123068 
24   0.161301 
25   0.144243 
26   0.144743 
27   0.186107 
28   0.155836 
29   0.164986 
30   0.16774 
31   0.149005 
32   0.133121 
33   0.156285 
34   0.159435 
35   0.296418 
 
$$$$ 
 
