PCCDB-ID:  25811 
public computational chemistry database (PCCDB) project, http://pccdb.org 
 
 14 13  0  0  0  0  0  0  0  0999 V2000 
    1.2332    0.7077   -1.4821 C   0  0  0  0  0  0  0  0  0  0  0  0 
    2.3091    1.3883    0.7221 C   0  0  0  0  0  0  0  0  0  0  0  0 
    2.1494    2.8742    1.1066 C   0  0  0  0  0  0  0  0  0  0  0  0 
    0.0723    0.4193    0.5621 N   0  0  0  0  0  0  0  0  0  0  0  0 
    1.1718    0.8500   -0.0333 N   0  0  0  0  0  0  0  0  0  0  0  0 
    2.9061    3.7257    0.7113 O   0  0  0  0  0  0  0  0  0  0  0  0 
    1.1163    3.1372    1.9189 O   0  0  0  0  0  0  0  0  0  0  0  0 
    0.0270    0.6175    1.7878 O   0  0  0  0  0  0  0  0  0  0  0  0 
    1.3603    1.6876   -1.9534 H   0  0  0  0  0  0  0  0  0  0  0  0 
    0.2932    0.2609   -1.8082 H   0  0  0  0  0  0  0  0  0  0  0  0 
    2.0702    0.0610   -1.7669 H   0  0  0  0  0  0  0  0  0  0  0  0 
    2.4104    0.7833    1.6308 H   0  0  0  0  0  0  0  0  0  0  0  0 
    3.2017    1.2919    0.1051 H   0  0  0  0  0  0  0  0  0  0  0  0 
    0.6416    2.2966    2.1228 H   0  0  0  0  0  0  0  0  0  0  0  0 
  1  5  1  0  0  0  0 
  2  3  1  0  0  0  0 
  2 12  1  0  0  0  0 
  3  7  1  0  0  0  0 
  4  8  1  0  0  0  0 
  5  4  1  0  0  0  0 
  5  2  1  0  0  0  0 
  6  3  2  0  0  0  0 
  7 14  1  0  0  0  0 
  9  1  1  0  0  0  0 
 10  1  1  0  0  0  0 
 11  1  1  0  0  0  0 
 13  2  1  0  0  0  0 
M  RAD  2   4   2   8   2 
M  END 
>  <HBA> 
5 
 
>  <HBD> 
1 
 
>  <TPSA> 
69.97 
 
>  <cid> 
25811 
 
>  <dipole> 
4.38 
 
>  <excitation_energy_1> 
3.514 
 
>  <excitation_energy_2> 
4.991 
 
>  <excitation_energy_3> 
5.49 
 
>  <excitation_energy_4> 
5.947 
 
>  <homo_energy> 
-7.124 
 
>  <homo_lumo_gap> 
5.236 
 
>  <logP> 
-0.316 
 
>  <lumo_energy> 
-1.888 
 
>  <melting_point> 
74.28 
 
>  <molecular_refractivity> 
25.94 
 
>  <oscillator_strength_1> 
0.001 
 
>  <oscillator_strength_2> 
0.0545 
 
>  <oscillator_strength_3> 
0.0025 
 
>  <oscillator_strength_4> 
0.0472 
 
>  <open_babel_can_smiles> 
[O][N]N(CC(=O)O)C 
 
>  <mulliken_charges> 
14 
1   -0.316797 
2   -0.282588 
3   0.601511 
4   0.169223 
5   -0.18525 
6   -0.433679 
7   -0.570827 
8   -0.409936 
9   0.194826 
10   0.204813 
11   0.180814 
12   0.209674 
13   0.196993 
14   0.441224 
 
>  <lowdin_charges> 
14 
1   -0.351319 
2   -0.255627 
3   0.184755 
4   0.067723 
5   -0.016626 
6   -0.23736 
7   -0.350133 
8   -0.293654 
9   0.172945 
10   0.184717 
11   0.166385 
12   0.185871 
13   0.184628 
14   0.357694 
 
$$$$ 
 
