PCCDB-ID:  45119 
public computational chemistry database (PCCDB) project, http://pccdb.org 
 
 32 33  0  0  0  0  0  0  0  0999 V2000 
    1.2747    1.4115    1.0213 C   0  0  0  0  0  0  0  0  0  0  0  0 
    3.5885   -2.7144    1.5436 C   0  0  0  0  0  0  0  0  0  0  0  0 
    2.7549    1.5547    1.3310 C   0  0  0  0  0  0  0  0  0  0  0  0 
    8.9771   -0.5026    1.7769 C   0  0  0  0  0  0  0  0  0  0  0  0 
    9.7567    0.8138    1.7966 C   0  0  0  0  0  0  0  0  0  0  0  0 
    6.6356   -1.2990    1.2082 C   0  0  0  0  0  0  0  0  0  0  0  0 
    5.5520    1.1922    1.7393 C   0  0  0  0  0  0  0  0  0  0  0  0 
    7.8117    2.1618    2.2904 C   0  0  0  0  0  0  0  0  0  0  0  0 
    7.4891   -0.2620    1.6128 C   0  0  0  0  0  0  0  0  0  0  0  0 
    6.9332    0.9916    1.8869 C   0  0  0  0  0  0  0  0  0  0  0  0 
    5.2682   -1.1114    1.0615 C   0  0  0  0  0  0  0  0  0  0  0  0 
    4.7104    0.1605    1.3248 C   0  0  0  0  0  0  0  0  0  0  0  0 
    9.1205    1.7112    2.7622 N   0  0  0  0  0  0  0  0  0  0  0  0 
    4.4959   -2.1513    0.5958 O   0  0  0  0  0  0  0  0  0  0  0  0 
    3.3605    0.2783    1.1393 O   0  0  0  0  0  0  0  0  0  0  0  0 
    0.7709    2.3775    1.1356 H   0  0  0  0  0  0  0  0  0  0  0  0 
    0.8044    0.6929    1.7001 H   0  0  0  0  0  0  0  0  0  0  0  0 
    1.1292    1.0618   -0.0054 H   0  0  0  0  0  0  0  0  0  0  0  0 
    3.0945   -3.5453    1.0338 H   0  0  0  0  0  0  0  0  0  0  0  0 
    2.8384   -1.9846    1.8645 H   0  0  0  0  0  0  0  0  0  0  0  0 
    4.1266   -3.0972    2.4218 H   0  0  0  0  0  0  0  0  0  0  0  0 
    2.9077    1.8910    2.3669 H   0  0  0  0  0  0  0  0  0  0  0  0 
    3.2252    2.2925    0.6652 H   0  0  0  0  0  0  0  0  0  0  0  0 
    9.1624   -1.0315    2.7220 H   0  0  0  0  0  0  0  0  0  0  0  0 
    9.3482   -1.1494    0.9714 H   0  0  0  0  0  0  0  0  0  0  0  0 
    9.7898    1.2397    0.7740 H   0  0  0  0  0  0  0  0  0  0  0  0 
   10.7911    0.6369    2.1110 H   0  0  0  0  0  0  0  0  0  0  0  0 
    7.0345   -2.2851    0.9834 H   0  0  0  0  0  0  0  0  0  0  0  0 
    5.1426    2.1754    1.9492 H   0  0  0  0  0  0  0  0  0  0  0  0 
    7.3282    2.7281    3.0967 H   0  0  0  0  0  0  0  0  0  0  0  0 
    7.8895    2.8519    1.4244 H   0  0  0  0  0  0  0  0  0  0  0  0 
    9.7121    2.5230    2.9244 H   0  0  0  0  0  0  0  0  0  0  0  0 
  1 16  1  0  0  0  0 
  1  3  1  0  0  0  0 
  1 17  1  0  0  0  0 
  2 20  1  0  0  0  0 
  2 21  1  0  0  0  0 
  3 22  1  0  0  0  0 
  4  5  1  0  0  0  0 
  4 24  1  0  0  0  0 
  5 27  1  0  0  0  0 
  5 13  1  0  0  0  0 
  6  9  1  0  0  0  0 
  7 10  1  0  0  0  0 
  7 29  1  0  0  0  0 
  8 13  1  0  0  0  0 
  8 30  1  0  0  0  0 
  9  4  1  0  0  0  0 
  9 10  2  0  0  0  0 
 10  8  1  0  0  0  0 
 11  6  2  0  0  0  0 
 11 12  1  0  0  0  0 
 12  7  2  0  0  0  0 
 13 32  1  0  0  0  0 
 14 11  1  0  0  0  0 
 14  2  1  0  0  0  0 
 15 12  1  0  0  0  0 
 15  3  1  0  0  0  0 
 18  1  1  0  0  0  0 
 19  2  1  0  0  0  0 
 23  3  1  0  0  0  0 
 25  4  1  0  0  0  0 
 26  5  1  0  0  0  0 
 28  6  1  0  0  0  0 
 31  8  1  0  0  0  0 
M  END 
>  <HBA> 
3 
 
>  <HBD> 
1 
 
>  <TPSA> 
30.49 
 
>  <cid> 
45119 
 
>  <dipole> 
2.18 
 
>  <excitation_energy_1> 
4.766 
 
>  <excitation_energy_2> 
5.064 
 
>  <excitation_energy_3> 
5.16 
 
>  <excitation_energy_4> 
5.266 
 
>  <homo_energy> 
-5.467 
 
>  <homo_lumo_gap> 
5.704 
 
>  <logP> 
2.068 
 
>  <lumo_energy> 
0.237 
 
>  <melting_point> 
72.64 
 
>  <molecular_refractivity> 
63.57 
 
>  <oscillator_strength_1> 
0.062 
 
>  <oscillator_strength_2> 
0.0179 
 
>  <oscillator_strength_3> 
0.009 
 
>  <oscillator_strength_4> 
0.0035 
 
>  <open_babel_can_smiles> 
CCOc1cc2CNCCc2cc1OC 
 
>  <mulliken_charges> 
32 
1   -0.457871 
2   -0.208119 
3   -0.025682 
4   -0.318399 
5   -0.149692 
6   -0.247104 
7   -0.274331 
8   -0.199999 
9   0.119408 
10   0.117122 
11   0.314304 
12   0.358269 
13   -0.552367 
14   -0.524217 
15   -0.523323 
16   0.147826 
17   0.160483 
18   0.167009 
19   0.154815 
20   0.15836 
21   0.136305 
22   0.139068 
23   0.141064 
24   0.158163 
25   0.138635 
26   0.115879 
27   0.135189 
28   0.125802 
29   0.124328 
30   0.146277 
31   0.125647 
32   0.297148 
 
>  <lowdin_charges> 
32 
1   -0.447764 
2   -0.278551 
3   -0.122995 
4   -0.277475 
5   -0.200652 
6   -0.177584 
7   -0.217919 
8   -0.202464 
9   -0.024521 
10   -0.017337 
11   0.067385 
12   0.078712 
13   -0.364558 
14   -0.225511 
15   -0.201364 
16   0.156691 
17   0.159256 
18   0.160776 
19   0.15493 
20   0.148284 
21   0.137561 
22   0.135711 
23   0.140025 
24   0.156401 
25   0.150484 
26   0.116126 
27   0.144338 
28   0.161907 
29   0.158167 
30   0.151313 
31   0.12487 
32   0.255757 
 
$$$$ 
 
