PCCDB-ID:  16455 
public computational chemistry database (PCCDB) project, http://pccdb.org 
 
 17 16  0  0  0  0  0  0  0  0999 V2000 
    1.0314   -0.0578    1.9465 C   0  0  0  0  0  0  0  0  0  0  0  0 
    0.8792   -1.4280   -0.1425 C   0  0  0  0  0  0  0  0  0  0  0  0 
    2.5697    0.4799    0.0961 C   0  0  0  0  0  0  0  0  0  0  0  0 
    1.4683   -0.3384    0.7156 C   0  0  0  0  0  0  0  0  0  0  0  0 
    4.6334    0.1248   -0.9952 C   0  0  0  0  0  0  0  0  0  0  0  0 
    4.7094    1.3701   -1.2527 N   0  0  0  0  0  0  0  0  0  0  0  0 
    5.4955   -0.8805   -1.3083 O   0  0  0  0  0  0  0  0  0  0  0  0 
    3.6170   -0.4248   -0.3241 O   0  0  0  0  0  0  0  0  0  0  0  0 
    0.2019   -0.5994    2.3942 H   0  0  0  0  0  0  0  0  0  0  0  0 
    1.4816    0.7267    2.5495 H   0  0  0  0  0  0  0  0  0  0  0  0 
    0.0639   -1.9462    0.3709 H   0  0  0  0  0  0  0  0  0  0  0  0 
    1.6454   -2.1639   -0.4122 H   0  0  0  0  0  0  0  0  0  0  0  0 
    0.4890   -1.0191   -1.0847 H   0  0  0  0  0  0  0  0  0  0  0  0 
    2.9855    1.2101    0.7962 H   0  0  0  0  0  0  0  0  0  0  0  0 
    2.2180    1.0268   -0.7875 H   0  0  0  0  0  0  0  0  0  0  0  0 
    5.5515    1.6094   -1.7753 H   0  0  0  0  0  0  0  0  0  0  0  0 
    6.2427   -0.4995   -1.7942 H   0  0  0  0  0  0  0  0  0  0  0  0 
  1  9  1  0  0  0  0 
  1 10  1  0  0  0  0 
  2 11  1  0  0  0  0 
  2  4  1  0  0  0  0 
  3  4  1  0  0  0  0 
  3 14  1  0  0  0  0 
  4  1  2  0  0  0  0 
  5  8  1  0  0  0  0 
  6  5  2  0  0  0  0 
  7  5  1  0  0  0  0 
  8  3  1  0  0  0  0 
 12  2  1  0  0  0  0 
 13  2  1  0  0  0  0 
 15  3  1  0  0  0  0 
 16  6  1  0  0  0  0 
 17  7  1  0  0  0  0 
M  END 
>  <HBA> 
3 
 
>  <HBD> 
1 
 
>  <TPSA> 
52.32 
 
>  <cid> 
16455 
 
>  <dipole> 
1.34 
 
>  <excitation_energy_1> 
5.924 
 
>  <excitation_energy_2> 
6.07 
 
>  <excitation_energy_3> 
6.462 
 
>  <excitation_energy_4> 
6.609 
 
>  <homo_energy> 
-6.882 
 
>  <homo_lumo_gap> 
7.268 
 
>  <logP> 
1.358 
 
>  <lumo_energy> 
0.386 
 
>  <melting_point> 
33.95 
 
>  <molecular_refractivity> 
30.06 
 
>  <oscillator_strength_1> 
0.0051 
 
>  <oscillator_strength_2> 
0.0567 
 
>  <oscillator_strength_3> 
0.0316 
 
>  <oscillator_strength_4> 
0.0249 
 
>  <open_babel_can_smiles> 
CC(=C)COC(=N)O 
 
>  <mulliken_charges> 
17 
1   -0.391347 
2   -0.509475 
3   -0.089714 
4   0.212634 
5   0.649395 
6   -0.62978 
7   -0.570644 
8   -0.447363 
9   0.139024 
10   0.139776 
11   0.151936 
12   0.180113 
13   0.152054 
14   0.162309 
15   0.167568 
16   0.275908 
17   0.407605 
 
>  <lowdin_charges> 
17 
1   -0.347766 
2   -0.443566 
3   -0.117425 
4   0.000378 
5   0.183755 
6   -0.469858 
7   -0.364761 
8   -0.179929 
9   0.158547 
10   0.158635 
11   0.157892 
12   0.170176 
13   0.156596 
14   0.15928 
15   0.159582 
16   0.256295 
17   0.362169 
 
$$$$ 
 
