PCCDB-ID:  14017 
public computational chemistry database (PCCDB) project, http://pccdb.org 
 
 12 11  0  0  0  0  0  0  0  0999 V2000 
    1.0485   -0.0602   -0.0122 C   0  0  0  0  0  0  0  0  0  0  0  0 
    0.6509   -1.4366   -0.2918 N   0  0  0  0  0  0  0  0  0  0  0  0 
    3.0083    0.0797   -1.8272 O   0  0  0  0  0  0  0  0  0  0  0  0 
    2.9512    1.8691    0.0524 O   0  0  0  0  0  0  0  0  0  0  0  0 
    3.7957   -0.5479    0.5808 O   0  0  0  0  0  0  0  0  0  0  0  0 
    2.8356    0.2649   -0.2147 P   0  0  0  0  0  0  0  0  0  0  0  0 
    0.7863    0.1960    1.0202 H   0  0  0  0  0  0  0  0  0  0  0  0 
    0.4927    0.6256   -0.6612 H   0  0  0  0  0  0  0  0  0  0  0  0 
    1.1785   -2.0748    0.3022 H   0  0  0  0  0  0  0  0  0  0  0  0 
    0.8862   -1.6742   -1.2540 H   0  0  0  0  0  0  0  0  0  0  0  0 
    3.8949   -0.2662   -2.0275 H   0  0  0  0  0  0  0  0  0  0  0  0 
    3.7567    2.0590    0.5628 H   0  0  0  0  0  0  0  0  0  0  0  0 
  1  7  1  0  0  0  0 
  2  1  1  0  0  0  0 
  2  9  1  0  0  0  0 
  3  6  1  0  0  0  0 
  4 12  1  0  0  0  0 
  6  1  1  0  0  0  0 
  6  4  1  0  0  0  0 
  6  5  2  0  0  0  0 
  8  1  1  0  0  0  0 
 10  2  1  0  0  0  0 
 11  3  1  0  0  0  0 
M  END 
>  <HBA> 
4 
 
>  <HBD> 
3 
 
>  <TPSA> 
93.36 
 
>  <cid> 
14017 
 
>  <dipole> 
1.42 
 
>  <excitation_energy_1> 
5.632 
 
>  <excitation_energy_2> 
6.199 
 
>  <excitation_energy_3> 
6.627 
 
>  <excitation_energy_4> 
6.809 
 
>  <homo_energy> 
-6.68 
 
>  <homo_lumo_gap> 
7.682 
 
>  <logP> 
-0.219 
 
>  <lumo_energy> 
1.001 
 
>  <melting_point> 
117.34 
 
>  <molecular_refractivity> 
20.62 
 
>  <oscillator_strength_1> 
0.0049 
 
>  <oscillator_strength_2> 
0.0708 
 
>  <oscillator_strength_3> 
0.0044 
 
>  <oscillator_strength_4> 
0.0196 
 
>  <open_babel_can_smiles> 
NCP(=O)(O)O 
 
>  <mulliken_charges> 
12 
1   -0.323501 
2   -0.712031 
3   -0.656334 
4   -0.649358 
5   -0.567552 
6   1.010789 
7   0.189537 
8   0.194744 
9   0.320689 
10   0.316258 
11   0.437081 
12   0.439678 
 
>  <lowdin_charges> 
12 
1   -0.373922 
2   -0.538458 
3   -0.586515 
4   -0.58405 
5   -0.613436 
6   1.031464 
7   0.179883 
8   0.185352 
9   0.27088 
10   0.265361 
11   0.380071 
12   0.383372 
 
$$$$ 
 
