PCCDB-ID:  22055 
public computational chemistry database (PCCDB) project, http://pccdb.org 
 
 19 19  0  0  0  0  0  0  0  0999 V2000 
   -1.0624    0.4067    1.1827 C   0  0  0  0  0  0  0  0  0  0  0  0 
   -0.4149    0.0409   -0.0883 C   0  0  0  0  0  0  0  0  0  0  0  0 
   -0.3884    0.3700   -2.4767 C   0  0  0  0  0  0  0  0  0  0  0  0 
   -0.4279    2.2901   -1.0195 C   0  0  0  0  0  0  0  0  0  0  0  0 
   -0.9104    1.2605   -3.6029 C   0  0  0  0  0  0  0  0  0  0  0  0 
   -0.9468    3.1219   -2.1897 C   0  0  0  0  0  0  0  0  0  0  0  0 
   -1.5576    0.6986    2.1904 N   0  0  0  0  0  0  0  0  0  0  0  0 
   -0.8492    0.8940   -1.1874 N   0  0  0  0  0  0  0  0  0  0  0  0 
   -0.4897    2.6054   -3.4328 O   0  0  0  0  0  0  0  0  0  0  0  0 
   -0.6857   -0.9965   -0.3193 H   0  0  0  0  0  0  0  0  0  0  0  0 
    0.6819    0.0584    0.0704 H   0  0  0  0  0  0  0  0  0  0  0  0 
    0.7171    0.3280   -2.5301 H   0  0  0  0  0  0  0  0  0  0  0  0 
   -0.7717   -0.6499   -2.6055 H   0  0  0  0  0  0  0  0  0  0  0  0 
   -0.8378    2.6762   -0.0796 H   0  0  0  0  0  0  0  0  0  0  0  0 
    0.6754    2.3750   -0.9724 H   0  0  0  0  0  0  0  0  0  0  0  0 
   -2.0108    1.2053   -3.6311 H   0  0  0  0  0  0  0  0  0  0  0  0 
   -0.5160    0.9283   -4.5676 H   0  0  0  0  0  0  0  0  0  0  0  0 
   -0.5760    4.1486   -2.1234 H   0  0  0  0  0  0  0  0  0  0  0  0 
   -2.0482    3.1399   -2.1673 H   0  0  0  0  0  0  0  0  0  0  0  0 
  1  7  3  0  0  0  0 
  2 11  1  0  0  0  0 
  2  1  1  0  0  0  0 
  3  8  1  0  0  0  0 
  4 15  1  0  0  0  0 
  4 14  1  0  0  0  0 
  5  9  1  0  0  0  0 
  5  3  1  0  0  0  0 
  6 19  1  0  0  0  0 
  6 18  1  0  0  0  0 
  6  4  1  0  0  0  0 
  8  4  1  0  0  0  0 
  8  2  1  0  0  0  0 
  9  6  1  0  0  0  0 
 10  2  1  0  0  0  0 
 12  3  1  0  0  0  0 
 13  3  1  0  0  0  0 
 16  5  1  0  0  0  0 
 17  5  1  0  0  0  0 
M  END 
>  <HBA> 
3 
 
>  <HBD> 
0 
 
>  <TPSA> 
36.26 
 
>  <cid> 
22055 
 
>  <dipole> 
3.2 
 
>  <excitation_energy_1> 
5.667 
 
>  <excitation_energy_2> 
6.128 
 
>  <excitation_energy_3> 
6.343 
 
>  <excitation_energy_4> 
6.433 
 
>  <homo_energy> 
-6.585 
 
>  <homo_lumo_gap> 
7.051 
 
>  <logP> 
-0.22 
 
>  <lumo_energy> 
0.465 
 
>  <melting_point> 
23.6 
 
>  <molecular_refractivity> 
36.49 
 
>  <oscillator_strength_1> 
0.01 
 
>  <oscillator_strength_2> 
0.0258 
 
>  <oscillator_strength_3> 
0.0629 
 
>  <oscillator_strength_4> 
0.0065 
 
>  <open_babel_can_smiles> 
N#CCN1CCOCC1 
 
>  <mulliken_charges> 
19 
1   0.36237 
2   -0.173768 
3   -0.135834 
4   -0.152282 
5   -0.034025 
6   -0.03677 
7   -0.473251 
8   -0.400742 
9   -0.464329 
10   0.193481 
11   0.168129 
12   0.127376 
13   0.145174 
14   0.169874 
15   0.126264 
16   0.136075 
17   0.150888 
18   0.153132 
19   0.138238 
 
>  <lowdin_charges> 
19 
1   -0.016365 
2   -0.191091 
3   -0.212806 
4   -0.21725 
5   -0.132459 
6   -0.131693 
7   -0.116454 
8   -0.183576 
9   -0.270735 
10   0.179826 
11   0.152096 
12   0.123955 
13   0.150871 
14   0.164237 
15   0.123941 
16   0.133209 
17   0.154872 
18   0.155029 
19   0.134394 
 
$$$$ 
 
