PCCDB-ID:  8134 
public computational chemistry database (PCCDB) project, http://pccdb.org 
 
 20 19  0  0  0  0  0  0  0  0999 V2000 
    1.0434   -0.7916    0.5605 C   0  0  0  0  0  0  0  0  0  0  0  0 
    5.9571   -0.0644   -4.4657 C   0  0  0  0  0  0  0  0  0  0  0  0 
    5.8362   -0.0421   -2.9498 C   0  0  0  0  0  0  0  0  0  0  0  0 
    2.6994   -0.6045   -1.0999 C   0  0  0  0  0  0  0  0  0  0  0  0 
    4.1660   -0.2362   -1.2711 C   0  0  0  0  0  0  0  0  0  0  0  0 
    5.0851    0.8788   -5.0640 O   0  0  0  0  0  0  0  0  0  0  0  0 
    2.3877   -0.4727    0.2711 O   0  0  0  0  0  0  0  0  0  0  0  0 
    4.4852   -0.3618   -2.6452 O   0  0  0  0  0  0  0  0  0  0  0  0 
    0.9042   -0.6558    1.6361 H   0  0  0  0  0  0  0  0  0  0  0  0 
    0.8062   -1.8352    0.2980 H   0  0  0  0  0  0  0  0  0  0  0  0 
    0.3432   -0.1320    0.0229 H   0  0  0  0  0  0  0  0  0  0  0  0 
    5.7552   -1.0858   -4.8277 H   0  0  0  0  0  0  0  0  0  0  0  0 
    6.9763    0.2042   -4.7627 H   0  0  0  0  0  0  0  0  0  0  0  0 
    6.0836    0.9610   -2.5676 H   0  0  0  0  0  0  0  0  0  0  0  0 
    6.5241   -0.7688   -2.4866 H   0  0  0  0  0  0  0  0  0  0  0  0 
    2.5303   -1.6359   -1.4508 H   0  0  0  0  0  0  0  0  0  0  0  0 
    2.0739    0.0622   -1.7169 H   0  0  0  0  0  0  0  0  0  0  0  0 
    4.7906   -0.9060   -0.6598 H   0  0  0  0  0  0  0  0  0  0  0  0 
    4.3359    0.7935   -0.9197 H   0  0  0  0  0  0  0  0  0  0  0  0 
    4.2170    0.7178   -4.6581 H   0  0  0  0  0  0  0  0  0  0  0  0 
  1  9  1  0  0  0  0 
  2  3  1  0  0  0  0 
  3  8  1  0  0  0  0 
  3 14  1  0  0  0  0 
  3 15  1  0  0  0  0 
  4  7  1  0  0  0  0 
  5  4  1  0  0  0  0 
  5 19  1  0  0  0  0 
  5 18  1  0  0  0  0 
  6 20  1  0  0  0  0 
  6  2  1  0  0  0  0 
  7  1  1  0  0  0  0 
  8  5  1  0  0  0  0 
 10  1  1  0  0  0  0 
 11  1  1  0  0  0  0 
 12  2  1  0  0  0  0 
 13  2  1  0  0  0  0 
 16  4  1  0  0  0  0 
 17  4  1  0  0  0  0 
M  END 
>  <HBA> 
3 
 
>  <HBD> 
1 
 
>  <TPSA> 
38.69 
 
>  <cid> 
8134 
 
>  <dipole> 
1.95 
 
>  <excitation_energy_1> 
6.661 
 
>  <excitation_energy_2> 
6.834 
 
>  <excitation_energy_3> 
6.876 
 
>  <excitation_energy_4> 
7.04 
 
>  <homo_energy> 
-7.048 
 
>  <homo_lumo_gap> 
9.1 
 
>  <logP> 
-0.358 
 
>  <lumo_energy> 
2.052 
 
>  <melting_point> 
-25.18 
 
>  <molecular_refractivity> 
29.48 
 
>  <oscillator_strength_1> 
0.0264 
 
>  <oscillator_strength_2> 
0.0078 
 
>  <oscillator_strength_3> 
0.0021 
 
>  <oscillator_strength_4> 
0.0015 
 
>  <open_babel_can_smiles> 
COCCOCCO 
 
>  <mulliken_charges> 
20 
1   -0.191141 
2   -0.03527 
3   -0.031489 
4   -0.025081 
5   -0.02133 
6   -0.621068 
7   -0.466153 
8   -0.499477 
9   0.160565 
10   0.132525 
11   0.132565 
12   0.130229 
13   0.145532 
14   0.134117 
15   0.123273 
16   0.13148 
17   0.127501 
18   0.136175 
19   0.138283 
20   0.398763 
 
>  <lowdin_charges> 
20 
1   -0.27575 
2   -0.137015 
3   -0.148044 
4   -0.134615 
5   -0.132453 
6   -0.467586 
7   -0.271241 
8   -0.283857 
9   0.154548 
10   0.131813 
11   0.134569 
12   0.130942 
13   0.149537 
14   0.134598 
15   0.134302 
16   0.131511 
17   0.132108 
18   0.137668 
19   0.135729 
20   0.343239 
 
$$$$ 
 
