PCCDB-ID:  69803 
public computational chemistry database (PCCDB) project, http://pccdb.org 
 
 22 21  0  0  0  0  0  0  0  0999 V2000 
    1.1720   -1.0959   -1.5320 C   0  0  0  0  0  0  0  0  0  0  0  0 
   10.5908   -0.7488    0.1351 C   0  0  0  0  0  0  0  0  0  0  0  0 
    1.4790   -0.2143   -0.3317 C   0  0  0  0  0  0  0  0  0  0  0  0 
    9.5614   -1.6892    0.7413 C   0  0  0  0  0  0  0  0  0  0  0  0 
    5.1019   -0.0115    0.0858 C   0  0  0  0  0  0  0  0  0  0  0  0 
    6.2250   -0.2290    0.4828 C   0  0  0  0  0  0  0  0  0  0  0  0 
    3.7968    0.2891   -0.4724 C   0  0  0  0  0  0  0  0  0  0  0  0 
    7.5483   -0.4572    1.0321 C   0  0  0  0  0  0  0  0  0  0  0  0 
    3.6272    1.0838   -1.3728 O   0  0  0  0  0  0  0  0  0  0  0  0 
    7.9616    0.0963    2.0285 O   0  0  0  0  0  0  0  0  0  0  0  0 
    2.8378   -0.4244    0.1415 O   0  0  0  0  0  0  0  0  0  0  0  0 
    8.2208   -1.3539    0.2898 O   0  0  0  0  0  0  0  0  0  0  0  0 
    0.1188   -0.9819   -1.8128 H   0  0  0  0  0  0  0  0  0  0  0  0 
    1.3532   -2.1497   -1.2974 H   0  0  0  0  0  0  0  0  0  0  0  0 
    1.7885   -0.8115   -2.3894 H   0  0  0  0  0  0  0  0  0  0  0  0 
   11.5980   -1.0700    0.4240 H   0  0  0  0  0  0  0  0  0  0  0  0 
   10.4416    0.2736    0.4944 H   0  0  0  0  0  0  0  0  0  0  0  0 
   10.5273   -0.7524   -0.9575 H   0  0  0  0  0  0  0  0  0  0  0  0 
    0.8588   -0.4718    0.5295 H   0  0  0  0  0  0  0  0  0  0  0  0 
    1.3522    0.8443   -0.5693 H   0  0  0  0  0  0  0  0  0  0  0  0 
    9.5809   -1.6551    1.8326 H   0  0  0  0  0  0  0  0  0  0  0  0 
    9.7044   -2.7183    0.4041 H   0  0  0  0  0  0  0  0  0  0  0  0 
  1 14  1  0  0  0  0 
  1  3  1  0  0  0  0 
  2 16  1  0  0  0  0 
  2 17  1  0  0  0  0 
  2  4  1  0  0  0  0 
  3 11  1  0  0  0  0 
  3 19  1  0  0  0  0 
  4 21  1  0  0  0  0 
  5  6  3  0  0  0  0 
  6  8  1  0  0  0  0 
  7  5  1  0  0  0  0 
  7 11  1  0  0  0  0 
  8 10  2  0  0  0  0 
  9  7  2  0  0  0  0 
 12  4  1  0  0  0  0 
 12  8  1  0  0  0  0 
 13  1  1  0  0  0  0 
 15  1  1  0  0  0  0 
 18  2  1  0  0  0  0 
 20  3  1  0  0  0  0 
 22  4  1  0  0  0  0 
M  END 
>  <HBA> 
4 
 
>  <HBD> 
0 
 
>  <TPSA> 
52.6 
 
>  <cid> 
69803 
 
>  <dipole> 
2.47 
 
>  <excitation_energy_1> 
4.819 
 
>  <excitation_energy_2> 
4.877 
 
>  <excitation_energy_3> 
5.324 
 
>  <excitation_energy_4> 
5.691 
 
>  <homo_energy> 
-7.807 
 
>  <homo_lumo_gap> 
6.308 
 
>  <logP> 
0.116 
 
>  <lumo_energy> 
-1.499 
 
>  <melting_point> 
14.34 
 
>  <molecular_refractivity> 
41.3 
 
>  <oscillator_strength_1> 
0.0001 
 
>  <oscillator_strength_2> 
0.0027 
 
>  <oscillator_strength_3> 
0.0001 
 
>  <oscillator_strength_4> 
0.0091 
 
>  <open_babel_can_smiles> 
CCOC(=O)C#CC(=O)OCC 
 
>  <mulliken_charges> 
22 
1   -0.465369 
2   -0.462579 
3   -0.044178 
4   -0.0464 
5   0.102288 
6   0.113305 
7   0.459068 
8   0.457207 
9   -0.452307 
10   -0.450945 
11   -0.44432 
12   -0.444374 
13   0.156152 
14   0.163868 
15   0.179362 
16   0.15584 
17   0.177447 
18   0.165257 
19   0.163261 
20   0.17697 
21   0.178059 
22   0.162389 
 
>  <lowdin_charges> 
22 
1   -0.452287 
2   -0.450136 
3   -0.123886 
4   -0.122016 
5   -0.02574 
6   -0.026485 
7   0.203082 
8   0.204153 
9   -0.235423 
10   -0.235217 
11   -0.172619 
12   -0.172791 
13   0.161003 
14   0.158303 
15   0.167699 
16   0.161472 
17   0.165552 
18   0.158402 
19   0.159162 
20   0.160718 
21   0.160658 
22   0.156396 
 
$$$$ 
 
