PCCDB-ID:  70830 
public computational chemistry database (PCCDB) project, http://pccdb.org 
 
 30 31  0  0  0  0  0  0  0  0999 V2000 
    1.4527    0.4922    0.4782 C   0  0  0  0  0  0  0  0  0  0  0  0 
    5.6849   -2.1478    1.4577 C   0  0  0  0  0  0  0  0  0  0  0  0 
    1.3301   -5.0325   -1.1422 C   0  0  0  0  0  0  0  0  0  0  0  0 
    2.1053   -3.9989   -1.6710 C   0  0  0  0  0  0  0  0  0  0  0  0 
    1.0264   -5.0541    0.2236 C   0  0  0  0  0  0  0  0  0  0  0  0 
    5.1418    1.3328   -0.0067 C   0  0  0  0  0  0  0  0  0  0  0  0 
    3.7517    1.4272   -0.0060 C   0  0  0  0  0  0  0  0  0  0  0  0 
    5.7607    0.1750    0.4604 C   0  0  0  0  0  0  0  0  0  0  0  0 
    2.5778   -2.9849   -0.8374 C   0  0  0  0  0  0  0  0  0  0  0  0 
    1.4974   -4.0448    1.0564 C   0  0  0  0  0  0  0  0  0  0  0  0 
    2.9605    0.3685    0.4542 C   0  0  0  0  0  0  0  0  0  0  0  0 
    5.0039   -0.9044    0.9296 C   0  0  0  0  0  0  0  0  0  0  0  0 
    2.2773   -3.0002    0.5331 C   0  0  0  0  0  0  0  0  0  0  0  0 
    3.5999   -0.7989    0.9132 C   0  0  0  0  0  0  0  0  0  0  0  0 
    2.7652   -1.9360    1.4669 C   0  0  0  0  0  0  0  0  0  0  0  0 
    2.5036   -1.9778    2.6616 O   0  0  0  0  0  0  0  0  0  0  0  0 
    1.1310    1.4412    0.0390 H   0  0  0  0  0  0  0  0  0  0  0  0 
    1.0686    0.4477    1.5043 H   0  0  0  0  0  0  0  0  0  0  0  0 
    0.9673   -0.3174   -0.0803 H   0  0  0  0  0  0  0  0  0  0  0  0 
    6.7717   -2.0711    1.3580 H   0  0  0  0  0  0  0  0  0  0  0  0 
    5.3621   -3.0481    0.9205 H   0  0  0  0  0  0  0  0  0  0  0  0 
    5.4517   -2.3069    2.5169 H   0  0  0  0  0  0  0  0  0  0  0  0 
    0.9621   -5.8218   -1.7924 H   0  0  0  0  0  0  0  0  0  0  0  0 
    2.3412   -3.9820   -2.7315 H   0  0  0  0  0  0  0  0  0  0  0  0 
    0.4233   -5.8597    0.6334 H   0  0  0  0  0  0  0  0  0  0  0  0 
    5.7431    2.1628   -0.3684 H   0  0  0  0  0  0  0  0  0  0  0  0 
    3.2683    2.3332   -0.3636 H   0  0  0  0  0  0  0  0  0  0  0  0 
    6.8457    0.1037    0.4667 H   0  0  0  0  0  0  0  0  0  0  0  0 
    3.1803   -2.1793   -1.2460 H   0  0  0  0  0  0  0  0  0  0  0  0 
    1.2762   -4.0389    2.1188 H   0  0  0  0  0  0  0  0  0  0  0  0 
  1 18  1  0  0  0  0 
  2 22  1  0  0  0  0 
  3  5  1  0  0  0  0 
  4  3  2  0  0  0  0 
  4  9  1  0  0  0  0 
  5 25  1  0  0  0  0 
  5 10  2  0  0  0  0 
  6  7  2  0  0  0  0 
  6  8  1  0  0  0  0 
  7 11  1  0  0  0  0 
  8 28  1  0  0  0  0 
  8 12  2  0  0  0  0 
  9 13  2  0  0  0  0 
 10 30  1  0  0  0  0 
 11  1  1  0  0  0  0 
 11 14  2  0  0  0  0 
 12  2  1  0  0  0  0 
 13 10  1  0  0  0  0 
 13 15  1  0  0  0  0 
 14 12  1  0  0  0  0 
 14 15  1  0  0  0  0 
 15 16  2  0  0  0  0 
 17  1  1  0  0  0  0 
 19  1  1  0  0  0  0 
 20  2  1  0  0  0  0 
 21  2  1  0  0  0  0 
 23  3  1  0  0  0  0 
 24  4  1  0  0  0  0 
 26  6  1  0  0  0  0 
 27  7  1  0  0  0  0 
 29  9  1  0  0  0  0 
M  END 
>  <HBA> 
1 
 
>  <HBD> 
0 
 
>  <TPSA> 
17.07 
 
>  <cid> 
70830 
 
>  <dipole> 
2.83 
 
>  <excitation_energy_1> 
3.523 
 
>  <excitation_energy_2> 
4.032 
 
>  <excitation_energy_3> 
4.122 
 
>  <excitation_energy_4> 
4.651 
 
>  <homo_energy> 
-6.43 
 
>  <homo_lumo_gap> 
4.836 
 
>  <logP> 
3.534 
 
>  <lumo_energy> 
-1.595 
 
>  <melting_point> 
73.43 
 
>  <molecular_refractivity> 
66.25 
 
>  <oscillator_strength_1> 
0.0001 
 
>  <oscillator_strength_2> 
0.0005 
 
>  <oscillator_strength_3> 
0.0002 
 
>  <oscillator_strength_4> 
0.022 
 
>  <open_babel_can_smiles> 
Cc1cccc(c1C(=O)c1ccccc1)C 
 
>  <mulliken_charges> 
30 
1   -0.542886 
2   -0.54237 
3   -0.118337 
4   -0.134695 
5   -0.133793 
6   -0.111238 
7   -0.198198 
8   -0.19821 
9   -0.182636 
10   -0.155599 
11   0.167544 
12   0.167686 
13   0.084011 
14   -0.048887 
15   0.292454 
16   -0.455028 
17   0.15499 
18   0.18126 
19   0.163779 
20   0.154646 
21   0.16303 
22   0.18266 
23   0.138384 
24   0.137925 
25   0.138875 
26   0.128742 
27   0.123418 
28   0.123489 
29   0.154848 
30   0.164135 
 
>  <lowdin_charges> 
30 
1   -0.448766 
2   -0.445538 
3   -0.139452 
4   -0.155939 
5   -0.155424 
6   -0.153331 
7   -0.17202 
8   -0.169235 
9   -0.147483 
10   -0.126124 
11   0.004931 
12   0.005926 
13   -0.053028 
14   -0.052678 
15   0.16297 
16   -0.23365 
17   0.158006 
18   0.169362 
19   0.16297 
20   0.155893 
21   0.161962 
22   0.169595 
23   0.162807 
24   0.15987 
25   0.162745 
26   0.159095 
27   0.155919 
28   0.153438 
29   0.172328 
30   0.174849 
 
$$$$ 
 
