PCCDB-ID:  72772 
public computational chemistry database (PCCDB) project, http://pccdb.org 
 
 25 27  0  0  0  0  0  0  0  0999 V2000 
    1.0802    0.3642    0.4577 C   0  0  0  0  0  0  0  0  0  0  0  0 
    3.0050   -1.2951    0.4418 C   0  0  0  0  0  0  0  0  0  0  0  0 
    4.3663   -1.5528    0.2527 C   0  0  0  0  0  0  0  0  0  0  0  0 
    8.5989    3.2359    0.3133 C   0  0  0  0  0  0  0  0  0  0  0  0 
    2.5354    0.0099    0.2901 C   0  0  0  0  0  0  0  0  0  0  0  0 
    5.2160   -0.5126   -0.0995 C   0  0  0  0  0  0  0  0  0  0  0  0 
    7.5832    0.8023   -0.0990 C   0  0  0  0  0  0  0  0  0  0  0  0 
    8.9197    0.9830    0.2983 C   0  0  0  0  0  0  0  0  0  0  0  0 
    4.6546    0.7779   -0.1992 C   0  0  0  0  0  0  0  0  0  0  0  0 
    6.8045    1.9587   -0.1981 C   0  0  0  0  0  0  0  0  0  0  0  0 
    9.7805   -0.0731    0.4431 N   0  0  0  0  0  0  0  0  0  0  0  0 
    9.4325    2.2160    0.4956 N   0  0  0  0  0  0  0  0  0  0  0  0 
    7.3020    3.1897    0.0014 N   0  0  0  0  0  0  0  0  0  0  0  0 
    3.3629    1.0302   -0.0073 N   0  0  0  0  0  0  0  0  0  0  0  0 
    5.4534    1.8845   -0.4943 N   0  0  0  0  0  0  0  0  0  0  0  0 
    6.9244   -0.7990   -0.5355 S   0  0  0  0  0  0  0  0  0  0  0  0 
    0.4774   -0.5136    0.7075 H   0  0  0  0  0  0  0  0  0  0  0  0 
    0.6863    0.8075   -0.4641 H   0  0  0  0  0  0  0  0  0  0  0  0 
    0.9558    1.1112    1.2499 H   0  0  0  0  0  0  0  0  0  0  0  0 
    2.3237   -2.0995    0.6997 H   0  0  0  0  0  0  0  0  0  0  0  0 
    4.7579   -2.5604    0.3614 H   0  0  0  0  0  0  0  0  0  0  0  0 
    9.0211    4.2299    0.4496 H   0  0  0  0  0  0  0  0  0  0  0  0 
    9.3829   -0.9777    0.6616 H   0  0  0  0  0  0  0  0  0  0  0  0 
   10.6489    0.1543    0.9095 H   0  0  0  0  0  0  0  0  0  0  0  0 
    4.9658    2.7734   -0.4651 H   0  0  0  0  0  0  0  0  0  0  0  0 
  1 17  1  0  0  0  0 
  1 19  1  0  0  0  0 
  2 20  1  0  0  0  0 
  3 21  1  0  0  0  0 
  3  2  2  0  0  0  0 
  4 22  1  0  0  0  0 
  4 12  2  0  0  0  0 
  5  2  1  0  0  0  0 
  5  1  1  0  0  0  0 
  6  3  1  0  0  0  0 
  7  8  2  0  0  0  0 
  8 11  1  0  0  0  0 
  8 12  1  0  0  0  0 
  9  6  2  0  0  0  0 
  9 14  1  0  0  0  0 
 10  7  1  0  0  0  0 
 10 13  2  0  0  0  0 
 11 23  1  0  0  0  0 
 11 24  1  0  0  0  0 
 13  4  1  0  0  0  0 
 14  5  2  0  0  0  0 
 15 25  1  0  0  0  0 
 15  9  1  0  0  0  0 
 15 10  1  0  0  0  0 
 16  6  1  0  0  0  0 
 16  7  1  0  0  0  0 
 18  1  1  0  0  0  0 
M  END 
>  <HBA> 
5 
 
>  <HBD> 
2 
 
>  <TPSA> 
102.02 
 
>  <cid> 
72772 
 
>  <dipole> 
3.49 
 
>  <excitation_energy_1> 
3.562 
 
>  <excitation_energy_2> 
3.839 
 
>  <excitation_energy_3> 
4.372 
 
>  <excitation_energy_4> 
4.695 
 
>  <homo_energy> 
-5.407 
 
>  <homo_lumo_gap> 
4.509 
 
>  <logP> 
2.69 
 
>  <lumo_energy> 
-0.898 
 
>  <melting_point> 
221.53 
 
>  <molecular_refractivity> 
65.8 
 
>  <oscillator_strength_1> 
0.0025 
 
>  <oscillator_strength_2> 
0.1158 
 
>  <oscillator_strength_3> 
0.0462 
 
>  <oscillator_strength_4> 
0.0075 
 
>  <open_babel_can_smiles> 
Cc1ccc2c(n1)Nc1c(S2)c(N)ncn1 
 
>  <mulliken_charges> 
25 
1   -0.506484 
2   -0.172113 
3   -0.141798 
4   0.180157 
5   0.308905 
6   -0.118647 
7   -0.181884 
8   0.466373 
9   0.487419 
10   0.504759 
11   -0.77374 
12   -0.475914 
13   -0.490154 
14   -0.54441 
15   -0.694901 
16   0.179139 
17   0.151545 
18   0.174103 
19   0.173747 
20   0.134878 
21   0.152917 
22   0.15126 
23   0.343091 
24   0.344069 
25   0.347682 
 
>  <lowdin_charges> 
25 
1   -0.444554 
2   -0.201188 
3   -0.130096 
4   -0.027557 
5   0.065824 
6   -0.166287 
7   -0.231426 
8   0.114638 
9   0.09837 
10   0.115518 
11   -0.455578 
12   -0.211051 
13   -0.20999 
14   -0.180077 
15   -0.221945 
16   0.206636 
17   0.156479 
18   0.170404 
19   0.170324 
20   0.165641 
21   0.170006 
22   0.160166 
23   0.289972 
24   0.293246 
25   0.302527 
 
$$$$ 
 
