PCCDB-ID:  7617 
public computational chemistry database (PCCDB) project, http://pccdb.org 
 
 25 24  0  0  0  0  0  0  0  0999 V2000 
    0.7403   -0.8882    0.2883 C   0  0  0  0  0  0  0  0  0  0  0  0 
    6.0265   -0.3418    3.4957 C   0  0  0  0  0  0  0  0  0  0  0  0 
    5.6055   -4.4763   -1.1201 C   0  0  0  0  0  0  0  0  0  0  0  0 
    1.9947   -1.0584   -0.1311 C   0  0  0  0  0  0  0  0  0  0  0  0 
    5.3248   -0.2675    2.3641 C   0  0  0  0  0  0  0  0  0  0  0  0 
    5.5995   -3.2281   -0.6504 C   0  0  0  0  0  0  0  0  0  0  0  0 
    2.8879   -2.2042    0.2608 C   0  0  0  0  0  0  0  0  0  0  0  0 
    4.1041   -1.0898    2.0511 C   0  0  0  0  0  0  0  0  0  0  0  0 
    5.1895   -2.8324    0.7423 C   0  0  0  0  0  0  0  0  0  0  0  0 
    4.1976   -1.7504    0.7436 N   0  0  0  0  0  0  0  0  0  0  0  0 
    0.1281   -0.0586   -0.0553 H   0  0  0  0  0  0  0  0  0  0  0  0 
    0.2731   -1.5802    0.9865 H   0  0  0  0  0  0  0  0  0  0  0  0 
    6.8814    0.3021    3.6841 H   0  0  0  0  0  0  0  0  0  0  0  0 
    5.7651   -1.0455    4.2839 H   0  0  0  0  0  0  0  0  0  0  0  0 
    5.9441   -4.7091   -2.1261 H   0  0  0  0  0  0  0  0  0  0  0  0 
    5.2801   -5.3171   -0.5103 H   0  0  0  0  0  0  0  0  0  0  0  0 
    2.4398   -0.3444   -0.8244 H   0  0  0  0  0  0  0  0  0  0  0  0 
    5.6142    0.4409    1.5877 H   0  0  0  0  0  0  0  0  0  0  0  0 
    5.9232   -2.4040   -1.2866 H   0  0  0  0  0  0  0  0  0  0  0  0 
    3.0736   -2.8245   -0.6256 H   0  0  0  0  0  0  0  0  0  0  0  0 
    2.3727   -2.8517    0.9980 H   0  0  0  0  0  0  0  0  0  0  0  0 
    3.2319   -0.4247    2.0093 H   0  0  0  0  0  0  0  0  0  0  0  0 
    3.9133   -1.8109    2.8708 H   0  0  0  0  0  0  0  0  0  0  0  0 
    6.0716   -2.4563    1.2764 H   0  0  0  0  0  0  0  0  0  0  0  0 
    4.8372   -3.7227    1.3003 H   0  0  0  0  0  0  0  0  0  0  0  0 
  1 12  1  0  0  0  0 
  2 13  1  0  0  0  0 
  2 14  1  0  0  0  0 
  3  6  2  0  0  0  0 
  3 16  1  0  0  0  0 
  4  7  1  0  0  0  0 
  4  1  2  0  0  0  0 
  5  2  2  0  0  0  0 
  6  9  1  0  0  0  0 
  7 10  1  0  0  0  0 
  7 21  1  0  0  0  0 
  8  5  1  0  0  0  0 
  8 23  1  0  0  0  0 
  9 10  1  0  0  0  0 
  9 24  1  0  0  0  0 
  9 25  1  0  0  0  0 
 10  8  1  0  0  0  0 
 11  1  1  0  0  0  0 
 15  3  1  0  0  0  0 
 17  4  1  0  0  0  0 
 18  5  1  0  0  0  0 
 19  6  1  0  0  0  0 
 20  7  1  0  0  0  0 
 22  8  1  0  0  0  0 
M  END 
>  <HBA> 
1 
 
>  <HBD> 
0 
 
>  <TPSA> 
3.24 
 
>  <cid> 
7617 
 
>  <dipole> 
0.33 
 
>  <excitation_energy_1> 
4.989 
 
>  <excitation_energy_2> 
5.311 
 
>  <excitation_energy_3> 
5.313 
 
>  <excitation_energy_4> 
5.743 
 
>  <homo_energy> 
-5.88 
 
>  <homo_lumo_gap> 
6.068 
 
>  <logP> 
1.846 
 
>  <lumo_energy> 
0.188 
 
>  <melting_point> 
-87.71 
 
>  <molecular_refractivity> 
46.85 
 
>  <oscillator_strength_1> 
0.002 
 
>  <oscillator_strength_2> 
0.0038 
 
>  <oscillator_strength_3> 
0.0037 
 
>  <oscillator_strength_4> 
0.0148 
 
>  <open_babel_can_smiles> 
C=CCN(CC=C)CC=C 
 
>  <mulliken_charges> 
25 
1   -0.340055 
2   -0.340092 
3   -0.340142 
4   -0.046993 
5   -0.046669 
6   -0.046399 
7   -0.167876 
8   -0.167968 
9   -0.168387 
10   -0.404122 
11   0.14163 
12   0.137501 
13   0.141577 
14   0.137418 
15   0.141578 
16   0.137454 
17   0.134813 
18   0.134737 
19   0.134751 
20   0.161504 
21   0.114165 
22   0.161564 
23   0.114192 
24   0.161445 
25   0.114374 
 
>  <lowdin_charges> 
25 
1   -0.342375 
2   -0.341353 
3   -0.340521 
4   -0.150318 
5   -0.149699 
6   -0.150133 
7   -0.202687 
8   -0.202146 
9   -0.202108 
10   -0.189991 
11   0.160331 
12   0.155919 
13   0.15979 
14   0.15539 
15   0.158716 
16   0.155558 
17   0.15666 
18   0.156265 
19   0.156509 
20   0.162048 
21   0.123729 
22   0.162015 
23   0.123148 
24   0.162285 
25   0.122968 
 
$$$$ 
 
