PCCDB-ID:  20924 
public computational chemistry database (PCCDB) project, http://pccdb.org 
 
 34 35  0  0  0  0  0  0  0  0999 V2000 
    1.5824   -0.4189   -0.4583 C   0  0  0  0  0  0  0  0  0  0  0  0 
    4.0451   -0.1674   -1.0133 C   0  0  0  0  0  0  0  0  0  0  0  0 
    4.4426   -4.6309    3.8630 C   0  0  0  0  0  0  0  0  0  0  0  0 
    6.0809   -4.9653    2.0416 C   0  0  0  0  0  0  0  0  0  0  0  0 
    4.9242    1.6710    3.9846 C   0  0  0  0  0  0  0  0  0  0  0  0 
    4.2670    2.1660    2.8514 C   0  0  0  0  0  0  0  0  0  0  0  0 
    5.0658    0.2937    4.1756 C   0  0  0  0  0  0  0  0  0  0  0  0 
    2.9698    1.4562    0.6472 C   0  0  0  0  0  0  0  0  0  0  0  0 
    3.7482    1.2655    1.9277 C   0  0  0  0  0  0  0  0  0  0  0  0 
    4.5472   -0.6074    3.2473 C   0  0  0  0  0  0  0  0  0  0  0  0 
    3.8762   -0.1089    2.1331 C   0  0  0  0  0  0  0  0  0  0  0  0 
    5.4166   -2.7038    2.6045 C   0  0  0  0  0  0  0  0  0  0  0  0 
    2.9535    0.0181    0.0427 C   0  0  0  0  0  0  0  0  0  0  0  0 
    5.3136   -4.0410    2.8592 N   0  0  0  0  0  0  0  0  0  0  0  0 
    6.1081   -2.1967    1.7438 O   0  0  0  0  0  0  0  0  0  0  0  0 
    4.6390   -1.9737    3.4848 O   0  0  0  0  0  0  0  0  0  0  0  0 
    3.3004   -0.8710    1.1679 O   0  0  0  0  0  0  0  0  0  0  0  0 
    1.2682    0.2056   -1.3023 H   0  0  0  0  0  0  0  0  0  0  0  0 
    0.8347   -0.3303    0.3366 H   0  0  0  0  0  0  0  0  0  0  0  0 
    1.6082   -1.4610   -0.7933 H   0  0  0  0  0  0  0  0  0  0  0  0 
    3.8376    0.4512   -1.8945 H   0  0  0  0  0  0  0  0  0  0  0  0 
    4.0982   -1.2152   -1.3243 H   0  0  0  0  0  0  0  0  0  0  0  0 
    5.0219    0.1152   -0.6079 H   0  0  0  0  0  0  0  0  0  0  0  0 
    3.7103   -5.2981    3.3878 H   0  0  0  0  0  0  0  0  0  0  0  0 
    3.9119   -3.8521    4.4049 H   0  0  0  0  0  0  0  0  0  0  0  0 
    5.0315   -5.2251    4.5749 H   0  0  0  0  0  0  0  0  0  0  0  0 
    6.7212   -5.5936    2.6748 H   0  0  0  0  0  0  0  0  0  0  0  0 
    6.7006   -4.3940    1.3522 H   0  0  0  0  0  0  0  0  0  0  0  0 
    5.4118   -5.6232    1.4701 H   0  0  0  0  0  0  0  0  0  0  0  0 
    5.3371    2.3582    4.7170 H   0  0  0  0  0  0  0  0  0  0  0  0 
    4.1625    3.2374    2.7008 H   0  0  0  0  0  0  0  0  0  0  0  0 
    5.5860   -0.1017    5.0427 H   0  0  0  0  0  0  0  0  0  0  0  0 
    3.4346    2.1712   -0.0408 H   0  0  0  0  0  0  0  0  0  0  0  0 
    1.9502    1.8131    0.8481 H   0  0  0  0  0  0  0  0  0  0  0  0 
  1 13  1  0  0  0  0 
  1 19  1  0  0  0  0 
  2 23  1  0  0  0  0 
  2 13  1  0  0  0  0 
  3 25  1  0  0  0  0 
  3 26  1  0  0  0  0 
  4 27  1  0  0  0  0 
  4 14  1  0  0  0  0 
  5  7  1  0  0  0  0 
  5 30  1  0  0  0  0 
  6  5  2  0  0  0  0 
  7 32  1  0  0  0  0 
  8 34  1  0  0  0  0 
  8  9  1  0  0  0  0 
  9 11  2  0  0  0  0 
  9  6  1  0  0  0  0 
 10 16  1  0  0  0  0 
 10  7  2  0  0  0  0 
 11 10  1  0  0  0  0 
 12 14  1  0  0  0  0 
 12 16  1  0  0  0  0 
 13  8  1  0  0  0  0 
 13 17  1  0  0  0  0 
 14  3  1  0  0  0  0 
 15 12  2  0  0  0  0 
 17 11  1  0  0  0  0 
 18  1  1  0  0  0  0 
 20  1  1  0  0  0  0 
 21  2  1  0  0  0  0 
 22  2  1  0  0  0  0 
 24  3  1  0  0  0  0 
 28  4  1  0  0  0  0 
 29  4  1  0  0  0  0 
 31  6  1  0  0  0  0 
 33  8  1  0  0  0  0 
M  END 
>  <HBA> 
4 
 
>  <HBD> 
0 
 
>  <TPSA> 
38.77 
 
>  <cid> 
20924 
 
>  <dipole> 
1.73 
 
>  <excitation_energy_1> 
4.811 
 
>  <excitation_energy_2> 
5.254 
 
>  <excitation_energy_3> 
5.525 
 
>  <excitation_energy_4> 
5.539 
 
>  <homo_energy> 
-5.573 
 
>  <homo_lumo_gap> 
5.693 
 
>  <logP> 
2.461 
 
>  <lumo_energy> 
0.12 
 
>  <melting_point> 
84.67 
 
>  <molecular_refractivity> 
65.03 
 
>  <oscillator_strength_1> 
0.0715 
 
>  <oscillator_strength_2> 
0.0075 
 
>  <oscillator_strength_3> 
0.024 
 
>  <oscillator_strength_4> 
0.0048 
 
>  <open_babel_can_smiles> 
O=C(N(C)C)Oc1cccc2c1OC(C2)(C)C 
 
>  <mulliken_charges> 
34 
1   -0.459881 
2   -0.443196 
3   -0.315061 
4   -0.316139 
5   -0.151363 
6   -0.198096 
7   -0.169806 
8   -0.376174 
9   0.101022 
10   0.302483 
11   0.364361 
12   0.795996 
13   0.30091 
14   -0.435696 
15   -0.512755 
16   -0.571814 
17   -0.554624 
18   0.146057 
19   0.154371 
20   0.15757 
21   0.136527 
22   0.159541 
23   0.172039 
24   0.15375 
25   0.200452 
26   0.152452 
27   0.150911 
28   0.203533 
29   0.151694 
30   0.126381 
31   0.124511 
32   0.134107 
33   0.158493 
34   0.157446 
 
>  <lowdin_charges> 
34 
1   -0.44609 
2   -0.447481 
3   -0.355846 
4   -0.354694 
5   -0.174734 
6   -0.161427 
7   -0.16526 
8   -0.283855 
9   -0.041993 
10   0.074594 
11   0.082409 
12   0.216928 
13   0.14464 
14   -0.105641 
15   -0.306424 
16   -0.180334 
17   -0.205092 
18   0.155677 
19   0.157415 
20   0.157995 
21   0.149867 
22   0.159488 
23   0.16658 
24   0.14964 
25   0.181565 
26   0.149445 
27   0.149338 
28   0.185978 
29   0.148983 
30   0.159205 
31   0.155408 
32   0.166609 
33   0.161506 
34   0.155602 
 
$$$$ 
 
