PCCDB-ID:  20207 
public computational chemistry database (PCCDB) project, http://pccdb.org 
 
 26 25  0  0  0  0  0  0  0  0999 V2000 
    1.0468   -1.4035   -2.1797 C   0  0  0  0  0  0  0  0  0  0  0  0 
    4.1031    6.6117   -0.8853 C   0  0  0  0  0  0  0  0  0  0  0  0 
    2.2261   -0.4463   -1.9847 C   0  0  0  0  0  0  0  0  0  0  0  0 
    5.0664    6.2829   -1.7512 C   0  0  0  0  0  0  0  0  0  0  0  0 
    2.1658    0.3134   -0.6535 C   0  0  0  0  0  0  0  0  0  0  0  0 
    3.3285    1.2762   -0.4468 C   0  0  0  0  0  0  0  0  0  0  0  0 
    4.1413    4.2049   -2.5139 C   0  0  0  0  0  0  0  0  0  0  0  0 
    4.3340    3.2150   -1.3658 C   0  0  0  0  0  0  0  0  0  0  0  0 
    5.1779    5.1842   -2.5468 O   0  0  0  0  0  0  0  0  0  0  0  0 
    3.2776    2.2806   -1.4500 O   0  0  0  0  0  0  0  0  0  0  0  0 
    1.1135   -1.9285   -3.1394 H   0  0  0  0  0  0  0  0  0  0  0  0 
    0.0916   -0.8645   -2.1618 H   0  0  0  0  0  0  0  0  0  0  0  0 
    1.0120   -2.1625   -1.3878 H   0  0  0  0  0  0  0  0  0  0  0  0 
    4.1811    7.5524   -0.3527 H   0  0  0  0  0  0  0  0  0  0  0  0 
    3.2375    5.9941   -0.6749 H   0  0  0  0  0  0  0  0  0  0  0  0 
    2.2577    0.2808   -2.8045 H   0  0  0  0  0  0  0  0  0  0  0  0 
    3.1690   -1.0098   -2.0343 H   0  0  0  0  0  0  0  0  0  0  0  0 
    5.9238    6.9290   -1.9210 H   0  0  0  0  0  0  0  0  0  0  0  0 
    2.1602   -0.3989    0.1840 H   0  0  0  0  0  0  0  0  0  0  0  0 
    1.2273    0.8805   -0.5905 H   0  0  0  0  0  0  0  0  0  0  0  0 
    4.2902    0.7369   -0.5034 H   0  0  0  0  0  0  0  0  0  0  0  0 
    3.2732    1.7403    0.5526 H   0  0  0  0  0  0  0  0  0  0  0  0 
    3.1555    4.6803   -2.4515 H   0  0  0  0  0  0  0  0  0  0  0  0 
    4.2052    3.6735   -3.4670 H   0  0  0  0  0  0  0  0  0  0  0  0 
    4.3260    3.7360   -0.3958 H   0  0  0  0  0  0  0  0  0  0  0  0 
    5.3136    2.7199   -1.4682 H   0  0  0  0  0  0  0  0  0  0  0  0 
  1 12  1  0  0  0  0 
  1  3  1  0  0  0  0 
  1 13  1  0  0  0  0 
  2 15  1  0  0  0  0 
  2 14  1  0  0  0  0 
  3  5  1  0  0  0  0 
  4  2  2  0  0  0  0 
  5 20  1  0  0  0  0 
  5  6  1  0  0  0  0 
  5 19  1  0  0  0  0 
  6 22  1  0  0  0  0 
  7 23  1  0  0  0  0 
  7  8  1  0  0  0  0 
  8 25  1  0  0  0  0 
  9  7  1  0  0  0  0 
  9  4  1  0  0  0  0 
 10  8  1  0  0  0  0 
 10  6  1  0  0  0  0 
 11  1  1  0  0  0  0 
 16  3  1  0  0  0  0 
 17  3  1  0  0  0  0 
 18  4  1  0  0  0  0 
 21  6  1  0  0  0  0 
 24  7  1  0  0  0  0 
 26  8  1  0  0  0  0 
M  END 
>  <HBA> 
2 
 
>  <HBD> 
0 
 
>  <TPSA> 
18.46 
 
>  <cid> 
20207 
 
>  <dipole> 
1.17 
 
>  <excitation_energy_1> 
5.863 
 
>  <excitation_energy_2> 
6.042 
 
>  <excitation_energy_3> 
6.283 
 
>  <excitation_energy_4> 
6.396 
 
>  <homo_energy> 
-6.104 
 
>  <homo_lumo_gap> 
7.222 
 
>  <logP> 
1.963 
 
>  <lumo_energy> 
1.118 
 
>  <melting_point> 
-66.39 
 
>  <molecular_refractivity> 
42.27 
 
>  <oscillator_strength_1> 
0.0293 
 
>  <oscillator_strength_2> 
0.008 
 
>  <oscillator_strength_3> 
0.028 
 
>  <oscillator_strength_4> 
0.002 
 
>  <open_babel_can_smiles> 
CCCCOCCOC=C 
 
>  <mulliken_charges> 
26 
1   -0.442593 
2   -0.398449 
3   -0.246386 
4   0.151631 
5   -0.267709 
6   -0.009708 
7   -0.059398 
8   -0.023986 
9   -0.453123 
10   -0.48132 
11   0.143023 
12   0.142813 
13   0.139067 
14   0.142721 
15   0.143899 
16   0.153263 
17   0.126432 
18   0.14303 
19   0.130385 
20   0.142929 
21   0.11803 
22   0.120257 
23   0.154478 
24   0.163575 
25   0.135839 
26   0.131301 
 
>  <lowdin_charges> 
26 
1   -0.444349 
2   -0.432306 
3   -0.274467 
4   -0.033174 
5   -0.282035 
6   -0.125176 
7   -0.134491 
8   -0.141361 
9   -0.197639 
10   -0.275418 
11   0.149808 
12   0.146786 
13   0.145299 
14   0.169201 
15   0.162327 
16   0.150705 
17   0.137576 
18   0.159667 
19   0.145403 
20   0.147444 
21   0.12507 
22   0.12734 
23   0.147893 
24   0.15864 
25   0.134958 
26   0.132299 
 
$$$$ 
 
