PCCDB-ID:  38675 
public computational chemistry database (PCCDB) project, http://pccdb.org 
 
 17 17  0  0  0  0  0  0  0  0999 V2000 
    1.2035   -0.8346    0.3924 C   0  0  0  0  0  0  0  0  0  0  0  0 
    2.7114   -0.5966    0.3427 C   0  0  0  0  0  0  0  0  0  0  0  0 
    4.8655    0.6417    3.0853 C   0  0  0  0  0  0  0  0  0  0  0  0 
    3.5596    1.4283    3.1872 C   0  0  0  0  0  0  0  0  0  0  0  0 
    4.4896   -0.4746    2.1084 C   0  0  0  0  0  0  0  0  0  0  0  0 
    3.2446   -0.1506    1.6144 N   0  0  0  0  0  0  0  0  0  0  0  0 
    5.1231   -1.4753    1.8204 O   0  0  0  0  0  0  0  0  0  0  0  0 
    2.9074    1.2073    1.9227 O   0  0  0  0  0  0  0  0  0  0  0  0 
    0.8432   -1.1662   -0.5875 H   0  0  0  0  0  0  0  0  0  0  0  0 
    0.6742    0.0853    0.6592 H   0  0  0  0  0  0  0  0  0  0  0  0 
    0.9560   -1.6027    1.1321 H   0  0  0  0  0  0  0  0  0  0  0  0 
    2.9636    0.1458   -0.4280 H   0  0  0  0  0  0  0  0  0  0  0  0 
    3.2594   -1.5170    0.1206 H   0  0  0  0  0  0  0  0  0  0  0  0 
    5.2219    0.2320    4.0329 H   0  0  0  0  0  0  0  0  0  0  0  0 
    5.6759    1.2276    2.6353 H   0  0  0  0  0  0  0  0  0  0  0  0 
    3.6742    2.5093    3.2876 H   0  0  0  0  0  0  0  0  0  0  0  0 
    2.9274    1.0455    4.0002 H   0  0  0  0  0  0  0  0  0  0  0  0 
  1 10  1  0  0  0  0 
  1 11  1  0  0  0  0 
  2  1  1  0  0  0  0 
  2  6  1  0  0  0  0 
  3  4  1  0  0  0  0 
  3 14  1  0  0  0  0 
  4 16  1  0  0  0  0 
  4 17  1  0  0  0  0 
  5  3  1  0  0  0  0 
  6  8  1  0  0  0  0 
  6  5  1  0  0  0  0 
  7  5  2  0  0  0  0 
  8  4  1  0  0  0  0 
  9  1  1  0  0  0  0 
 12  2  1  0  0  0  0 
 13  2  1  0  0  0  0 
 15  3  1  0  0  0  0 
M  END 
>  <HBA> 
3 
 
>  <HBD> 
0 
 
>  <TPSA> 
29.54 
 
>  <cid> 
38675 
 
>  <dipole> 
2.47 
 
>  <excitation_energy_1> 
5.296 
 
>  <excitation_energy_2> 
5.714 
 
>  <excitation_energy_3> 
5.905 
 
>  <excitation_energy_4> 
6.12 
 
>  <homo_energy> 
-6.046 
 
>  <homo_lumo_gap> 
6.455 
 
>  <logP> 
0.108 
 
>  <lumo_energy> 
0.408 
 
>  <melting_point> 
14.1 
 
>  <molecular_refractivity> 
32.13 
 
>  <oscillator_strength_1> 
0.0325 
 
>  <oscillator_strength_2> 
0.016 
 
>  <oscillator_strength_3> 
0.0481 
 
>  <oscillator_strength_4> 
0.011 
 
>  <open_babel_can_smiles> 
CCN1OCCC1=O 
 
>  <mulliken_charges> 
17 
1   -0.446732 
2   -0.138146 
3   -0.39961 
4   -0.026694 
5   0.588966 
6   -0.180915 
7   -0.502939 
8   -0.397181 
9   0.149472 
10   0.166986 
11   0.158499 
12   0.156667 
13   0.187987 
14   0.183696 
15   0.183464 
16   0.164084 
17   0.152395 
 
>  <lowdin_charges> 
17 
1   -0.448814 
2   -0.194863 
3   -0.32017 
4   -0.127968 
5   0.147444 
6   -0.000678 
7   -0.288088 
8   -0.222567 
9   0.155583 
10   0.160508 
11   0.157798 
12   0.150062 
13   0.176373 
14   0.17731 
15   0.175281 
16   0.158543 
17   0.144247 
 
$$$$ 
 
