PCCDB-ID:  25916 
public computational chemistry database (PCCDB) project, http://pccdb.org 
 
 22 22  0  0  0  0  0  0  0  0999 V2000 
    1.5421   -0.5407    1.2868 C   0  0  0  0  0  0  0  0  0  0  0  0 
    1.8386    4.6825   -0.3525 C   0  0  0  0  0  0  0  0  0  0  0  0 
    5.1658    0.4273    1.5440 C   0  0  0  0  0  0  0  0  0  0  0  0 
    2.4974   -0.1037    0.1608 C   0  0  0  0  0  0  0  0  0  0  0  0 
    3.9234    3.7824    0.7960 C   0  0  0  0  0  0  0  0  0  0  0  0 
    2.7050    3.5536    0.1457 C   0  0  0  0  0  0  0  0  0  0  0  0 
    4.2713    1.5334    1.0396 C   0  0  0  0  0  0  0  0  0  0  0  0 
    3.0464    1.2878    0.3834 C   0  0  0  0  0  0  0  0  0  0  0  0 
    4.6979    2.7905    1.2370 N   0  0  0  0  0  0  0  0  0  0  0  0 
    2.2798    2.2986   -0.0531 N   0  0  0  0  0  0  0  0  0  0  0  0 
    1.1385   -1.5396    1.0876 H   0  0  0  0  0  0  0  0  0  0  0  0 
    0.7034    0.1586    1.3666 H   0  0  0  0  0  0  0  0  0  0  0  0 
    2.0505   -0.5695    2.2577 H   0  0  0  0  0  0  0  0  0  0  0  0 
    1.5525    5.3577    0.4631 H   0  0  0  0  0  0  0  0  0  0  0  0 
    0.9313    4.2754   -0.8042 H   0  0  0  0  0  0  0  0  0  0  0  0 
    2.3621    5.2865   -1.1038 H   0  0  0  0  0  0  0  0  0  0  0  0 
    5.5468   -0.1923    0.7221 H   0  0  0  0  0  0  0  0  0  0  0  0 
    4.6395   -0.2421    2.2347 H   0  0  0  0  0  0  0  0  0  0  0  0 
    6.0173    0.8690    2.0662 H   0  0  0  0  0  0  0  0  0  0  0  0 
    1.9523   -0.0982   -0.7890 H   0  0  0  0  0  0  0  0  0  0  0  0 
    3.3144   -0.8276    0.0669 H   0  0  0  0  0  0  0  0  0  0  0  0 
    4.2848    4.7963    0.9643 H   0  0  0  0  0  0  0  0  0  0  0  0 
  1 12  1  0  0  0  0 
  1 13  1  0  0  0  0 
  2  6  1  0  0  0  0 
  2 14  1  0  0  0  0 
  3 19  1  0  0  0  0 
  3 18  1  0  0  0  0 
  4  8  1  0  0  0  0 
  4  1  1  0  0  0  0 
  5 22  1  0  0  0  0 
  5  9  2  0  0  0  0 
  6  5  1  0  0  0  0 
  7  9  1  0  0  0  0 
  7  3  1  0  0  0  0 
  8  7  2  0  0  0  0 
 10  6  2  0  0  0  0 
 10  8  1  0  0  0  0 
 11  1  1  0  0  0  0 
 15  2  1  0  0  0  0 
 16  2  1  0  0  0  0 
 17  3  1  0  0  0  0 
 20  4  1  0  0  0  0 
 21  4  1  0  0  0  0 
M  END 
>  <HBA> 
2 
 
>  <HBD> 
0 
 
>  <TPSA> 
25.78 
 
>  <cid> 
25916 
 
>  <dipole> 
0.52 
 
>  <excitation_energy_1> 
4.126 
 
>  <excitation_energy_2> 
4.727 
 
>  <excitation_energy_3> 
5.02 
 
>  <excitation_energy_4> 
5.573 
 
>  <homo_energy> 
-6.43 
 
>  <homo_lumo_gap> 
5.494 
 
>  <logP> 
1.656 
 
>  <lumo_energy> 
-0.936 
 
>  <melting_point> 
47.18 
 
>  <molecular_refractivity> 
41.74 
 
>  <oscillator_strength_1> 
0.005 
 
>  <oscillator_strength_2> 
0.0001 
 
>  <oscillator_strength_3> 
0.1443 
 
>  <oscillator_strength_4> 
0.0001 
 
>  <open_babel_can_smiles> 
CCc1nc(C)cnc1C 
 
>  <mulliken_charges> 
22 
1   -0.445848 
2   -0.524759 
3   -0.527508 
4   -0.315418 
5   -0.002403 
6   0.300459 
7   0.267067 
8   0.265691 
9   -0.434492 
10   -0.492809 
11   0.148232 
12   0.163694 
13   0.146537 
14   0.164309 
15   0.177155 
16   0.165314 
17   0.164267 
18   0.162415 
19   0.178293 
20   0.161067 
21   0.140768 
22   0.137968 
 
>  <lowdin_charges> 
22 
1   -0.438894 
2   -0.450722 
3   -0.452379 
4   -0.27842 
5   -0.120596 
6   0.033994 
7   0.023965 
8   0.032175 
9   -0.130754 
10   -0.144071 
11   0.151696 
12   0.158068 
13   0.147314 
14   0.164521 
15   0.17173 
16   0.165401 
17   0.163172 
18   0.162226 
19   0.172978 
20   0.161986 
21   0.150323 
22   0.156286 
 
$$$$ 
 
