PCCDB-ID:  45146 
public computational chemistry database (PCCDB) project, http://pccdb.org 
 
 25 25  0  0  0  0  0  0  0  0999 V2000 
    0.3908   -0.3440    0.4296 C   0  0  0  0  0  0  0  0  0  0  0  0 
    2.7188   -1.3457    0.3320 C   0  0  0  0  0  0  0  0  0  0  0  0 
    2.4959    1.0406    0.1628 C   0  0  0  0  0  0  0  0  0  0  0  0 
    4.1024   -1.2245    0.2045 C   0  0  0  0  0  0  0  0  0  0  0  0 
    3.8769    1.1667    0.0350 C   0  0  0  0  0  0  0  0  0  0  0  0 
    6.1942    0.1552   -0.0883 C   0  0  0  0  0  0  0  0  0  0  0  0 
    7.1655    1.1113   -3.5612 C   0  0  0  0  0  0  0  0  0  0  0  0 
    1.8916   -0.2164    0.3113 C   0  0  0  0  0  0  0  0  0  0  0  0 
    4.6997    0.0314    0.0540 C   0  0  0  0  0  0  0  0  0  0  0  0 
    6.7116    1.2965   -2.1244 C   0  0  0  0  0  0  0  0  0  0  0  0 
    6.4758    2.3796   -1.6299 O   0  0  0  0  0  0  0  0  0  0  0  0 
    6.6139    0.1166   -1.4883 O   0  0  0  0  0  0  0  0  0  0  0  0 
    8.8090    1.8873   -3.8555 S   0  0  0  0  0  0  0  0  0  0  0  0 
    0.1011   -1.3255    0.8183 H   0  0  0  0  0  0  0  0  0  0  0  0 
   -0.0968   -0.2199   -0.5464 H   0  0  0  0  0  0  0  0  0  0  0  0 
   -0.0255    0.4200    1.0959 H   0  0  0  0  0  0  0  0  0  0  0  0 
    2.2757   -2.3314    0.4544 H   0  0  0  0  0  0  0  0  0  0  0  0 
    1.8750    1.9339    0.1533 H   0  0  0  0  0  0  0  0  0  0  0  0 
    4.7247   -2.1165    0.2285 H   0  0  0  0  0  0  0  0  0  0  0  0 
    4.3273    2.1474   -0.0866 H   0  0  0  0  0  0  0  0  0  0  0  0 
    6.7061   -0.7001    0.3573 H   0  0  0  0  0  0  0  0  0  0  0  0 
    6.5690    1.0805    0.3527 H   0  0  0  0  0  0  0  0  0  0  0  0 
    6.4221    1.5583   -4.2267 H   0  0  0  0  0  0  0  0  0  0  0  0 
    7.2748    0.0534   -3.8028 H   0  0  0  0  0  0  0  0  0  0  0  0 
    8.4525    3.1115   -3.4115 H   0  0  0  0  0  0  0  0  0  0  0  0 
  1 14  1  0  0  0  0 
  1 16  1  0  0  0  0 
  2 17  1  0  0  0  0 
  3  8  2  0  0  0  0 
  4 19  1  0  0  0  0 
  4  2  2  0  0  0  0 
  5  9  2  0  0  0  0 
  5  3  1  0  0  0  0 
  6  9  1  0  0  0  0 
  6 22  1  0  0  0  0 
  6 21  1  0  0  0  0 
  7 10  1  0  0  0  0 
  8  2  1  0  0  0  0 
  8  1  1  0  0  0  0 
  9  4  1  0  0  0  0 
 10 11  2  0  0  0  0 
 10 12  1  0  0  0  0 
 12  6  1  0  0  0  0 
 13  7  1  0  0  0  0 
 13 25  1  0  0  0  0 
 15  1  1  0  0  0  0 
 18  3  1  0  0  0  0 
 20  5  1  0  0  0  0 
 23  7  1  0  0  0  0 
 24  7  1  0  0  0  0 
M  END 
>  <HBA> 
3 
 
>  <HBD> 
1 
 
>  <TPSA> 
65.1 
 
>  <cid> 
45146 
 
>  <dipole> 
2.67 
 
>  <excitation_energy_1> 
4.864 
 
>  <excitation_energy_2> 
5.195 
 
>  <excitation_energy_3> 
5.434 
 
>  <excitation_energy_4> 
5.518 
 
>  <homo_energy> 
-6.539 
 
>  <homo_lumo_gap> 
6.153 
 
>  <logP> 
1.968 
 
>  <lumo_energy> 
-0.386 
 
>  <melting_point> 
43.36 
 
>  <molecular_refractivity> 
55.2 
 
>  <oscillator_strength_1> 
0.008 
 
>  <oscillator_strength_2> 
0.0009 
 
>  <oscillator_strength_3> 
0.0052 
 
>  <oscillator_strength_4> 
0.0135 
 
>  <open_babel_can_smiles> 
SCC(=O)OCc1ccc(cc1)C 
 
>  <mulliken_charges> 
25 
1   -0.530378 
2   -0.181809 
3   -0.179584 
4   -0.171381 
5   -0.177585 
6   -0.150009 
7   -0.500406 
8   0.180137 
9   0.145112 
10   0.636608 
11   -0.473318 
12   -0.443091 
13   -0.059792 
14   0.156865 
15   0.167649 
16   0.161643 
17   0.124811 
18   0.126709 
19   0.128701 
20   0.159632 
21   0.160992 
22   0.181557 
23   0.208814 
24   0.206471 
25   0.121654 
 
>  <lowdin_charges> 
25 
1   -0.443178 
2   -0.167924 
3   -0.165997 
4   -0.155898 
5   -0.152398 
6   -0.128104 
7   -0.395192 
8   0.008128 
9   -0.030185 
10   0.195295 
11   -0.274835 
12   -0.18406 
13   -0.056761 
14   0.157598 
15   0.163197 
16   0.161845 
17   0.155446 
18   0.157219 
19   0.157595 
20   0.170869 
21   0.161175 
22   0.168293 
23   0.183845 
24   0.184874 
25   0.129154 
 
$$$$ 
 
