PCCDB-ID:  23150 
public computational chemistry database (PCCDB) project, http://pccdb.org 
 
 28 29  0  0  0  0  0  0  0  0999 V2000 
    0.9515   -0.0541   -0.0201 C   0  0  0  0  0  0  0  0  0  0  0  0 
    5.4277   -2.3798    0.0541 C   0  0  0  0  0  0  0  0  0  0  0  0 
    2.3453    2.6264    0.0992 C   0  0  0  0  0  0  0  0  0  0  0  0 
    6.8043    1.9693   -0.2105 C   0  0  0  0  0  0  0  0  0  0  0  0 
    6.7410    0.4642    0.1510 C   0  0  0  0  0  0  0  0  0  0  0  0 
    5.4169    2.5414    0.1737 C   0  0  0  0  0  0  0  0  0  0  0  0 
    3.2345   -1.1052    0.0175 C   0  0  0  0  0  0  0  0  0  0  0  0 
    2.4606    0.0645    0.0252 C   0  0  0  0  0  0  0  0  0  0  0  0 
    4.6331   -1.0958    0.0551 C   0  0  0  0  0  0  0  0  0  0  0  0 
    3.1049    1.3184    0.0750 C   0  0  0  0  0  0  0  0  0  0  0  0 
    5.2593    0.1541    0.0896 C   0  0  0  0  0  0  0  0  0  0  0  0 
    4.5051    1.3319    0.1003 C   0  0  0  0  0  0  0  0  0  0  0  0 
    0.6463   -1.1044   -0.0597 H   0  0  0  0  0  0  0  0  0  0  0  0 
    0.5242    0.4451   -0.8991 H   0  0  0  0  0  0  0  0  0  0  0  0 
    0.4755    0.3918    0.8627 H   0  0  0  0  0  0  0  0  0  0  0  0 
    4.7694   -3.2545    0.0474 H   0  0  0  0  0  0  0  0  0  0  0  0 
    6.0749   -2.4559    0.9375 H   0  0  0  0  0  0  0  0  0  0  0  0 
    6.0833   -2.4500   -0.8241 H   0  0  0  0  0  0  0  0  0  0  0  0 
    1.2634    2.4822    0.1337 H   0  0  0  0  0  0  0  0  0  0  0  0 
    2.5667    3.2340   -0.7886 H   0  0  0  0  0  0  0  0  0  0  0  0 
    2.6248    3.2322    0.9709 H   0  0  0  0  0  0  0  0  0  0  0  0 
    6.9490    2.0732   -1.2925 H   0  0  0  0  0  0  0  0  0  0  0  0 
    7.6316    2.4921    0.2799 H   0  0  0  0  0  0  0  0  0  0  0  0 
    7.1337    0.2815    1.1633 H   0  0  0  0  0  0  0  0  0  0  0  0 
    7.3415   -0.1534   -0.5280 H   0  0  0  0  0  0  0  0  0  0  0  0 
    5.1066    3.3614   -0.4851 H   0  0  0  0  0  0  0  0  0  0  0  0 
    5.4269    2.9530    1.1950 H   0  0  0  0  0  0  0  0  0  0  0  0 
    2.7212   -2.0646   -0.0220 H   0  0  0  0  0  0  0  0  0  0  0  0 
  1  8  1  0  0  0  0 
  1 15  1  0  0  0  0 
  2  9  1  0  0  0  0 
  2 17  1  0  0  0  0 
  3 19  1  0  0  0  0 
  3 21  1  0  0  0  0 
  4  5  1  0  0  0  0 
  4  6  1  0  0  0  0 
  4 23  1  0  0  0  0 
  5 24  1  0  0  0  0 
  6 27  1  0  0  0  0 
  7  8  2  0  0  0  0 
  7  9  1  0  0  0  0 
  8 10  1  0  0  0  0 
  9 11  2  0  0  0  0 
 10  3  1  0  0  0  0 
 10 12  2  0  0  0  0 
 11 12  1  0  0  0  0 
 11  5  1  0  0  0  0 
 12  6  1  0  0  0  0 
 13  1  1  0  0  0  0 
 14  1  1  0  0  0  0 
 16  2  1  0  0  0  0 
 18  2  1  0  0  0  0 
 20  3  1  0  0  0  0 
 22  4  1  0  0  0  0 
 25  5  1  0  0  0  0 
 26  6  1  0  0  0  0 
 28  7  1  0  0  0  0 
M  END 
>  <HBA> 
0 
 
>  <HBD> 
0 
 
>  <TPSA> 
0.0 
 
>  <cid> 
23150 
 
>  <dipole> 
0.33 
 
>  <excitation_energy_1> 
5.03 
 
>  <excitation_energy_2> 
5.516 
 
>  <excitation_energy_3> 
5.604 
 
>  <excitation_energy_4> 
5.677 
 
>  <homo_energy> 
-5.821 
 
>  <homo_lumo_gap> 
6.112 
 
>  <logP> 
3.1 
 
>  <lumo_energy> 
0.291 
 
>  <melting_point> 
48.42 
 
>  <molecular_refractivity> 
53.97 
 
>  <oscillator_strength_1> 
0.0059 
 
>  <oscillator_strength_2> 
0.0051 
 
>  <oscillator_strength_3> 
0.0078 
 
>  <oscillator_strength_4> 
0.0095 
 
>  <open_babel_can_smiles> 
Cc1c(C)cc(c2c1CCC2)C 
 
>  <mulliken_charges> 
28 
1   -0.540267 
2   -0.532541 
3   -0.534789 
4   -0.27914 
5   -0.349817 
6   -0.349543 
7   -0.261895 
8   0.142688 
9   0.135105 
10   0.059196 
11   0.071813 
12   0.077273 
13   0.152501 
14   0.15713 
15   0.157171 
16   0.151704 
17   0.1566 
18   0.157102 
19   0.153246 
20   0.157906 
21   0.157092 
22   0.144729 
23   0.133679 
24   0.146016 
25   0.1421 
26   0.142246 
27   0.146563 
28   0.106134 
 
>  <lowdin_charges> 
28 
1   -0.444288 
2   -0.441609 
3   -0.444209 
4   -0.273337 
5   -0.280926 
6   -0.279612 
7   -0.183382 
8   -0.011529 
9   -0.012668 
10   -0.023359 
11   -0.026531 
12   -0.02065 
13   0.154114 
14   0.156929 
15   0.156753 
16   0.15554 
17   0.157386 
18   0.157282 
19   0.156225 
20   0.158037 
21   0.158277 
22   0.144271 
23   0.145498 
24   0.147264 
25   0.150012 
26   0.149522 
27   0.147456 
28   0.147534 
 
$$$$ 
 
