PCCDB-ID:  50853 
public computational chemistry database (PCCDB) project, http://pccdb.org 
 
 27 27  0  0  0  0  0  0  0  0999 V2000 
    4.2990    0.5907   -3.1304 C   0  0  0  0  0  0  0  0  0  0  0  0 
    4.0487    0.5324    1.6976 C   0  0  0  0  0  0  0  0  0  0  0  0 
    2.8364   -1.4181    0.9215 C   0  0  0  0  0  0  0  0  0  0  0  0 
    3.8586    1.1287    0.4483 C   0  0  0  0  0  0  0  0  0  0  0  0 
    2.6513   -0.8130   -0.3144 C   0  0  0  0  0  0  0  0  0  0  0  0 
    4.2979   -1.7632    5.3763 C   0  0  0  0  0  0  0  0  0  0  0  0 
    4.3478   -0.8004    4.2033 C   0  0  0  0  0  0  0  0  0  0  0  0 
    3.5370   -0.7485    1.9366 C   0  0  0  0  0  0  0  0  0  0  0  0 
    3.1672    0.4681   -0.5712 C   0  0  0  0  0  0  0  0  0  0  0  0 
    2.8907   -3.0409    6.8013 N   0  0  0  0  0  0  0  0  0  0  0  0 
    2.9134   -1.9352    5.8195 N   0  0  0  0  0  0  0  0  0  0  0  0 
    3.6641   -1.4251    3.1143 O   0  0  0  0  0  0  0  0  0  0  0  0 
    2.8967    1.2658   -2.1556 S   0  0  0  0  0  0  0  0  0  0  0  0 
    4.2125    1.0116   -4.1363 H   0  0  0  0  0  0  0  0  0  0  0  0 
    4.2445   -0.4992   -3.1940 H   0  0  0  0  0  0  0  0  0  0  0  0 
    5.2578    0.8891   -2.6984 H   0  0  0  0  0  0  0  0  0  0  0  0 
    4.5889    1.0716    2.4671 H   0  0  0  0  0  0  0  0  0  0  0  0 
    2.4428   -2.4085    1.1285 H   0  0  0  0  0  0  0  0  0  0  0  0 
    4.2530    2.1242    0.2671 H   0  0  0  0  0  0  0  0  0  0  0  0 
    2.0964   -1.3313   -1.0909 H   0  0  0  0  0  0  0  0  0  0  0  0 
    4.8785   -1.3255    6.2003 H   0  0  0  0  0  0  0  0  0  0  0  0 
    4.7767   -2.7180    5.1046 H   0  0  0  0  0  0  0  0  0  0  0  0 
    5.3896   -0.5914    3.9244 H   0  0  0  0  0  0  0  0  0  0  0  0 
    3.8515    0.1432    4.4649 H   0  0  0  0  0  0  0  0  0  0  0  0 
    1.9027   -3.1138    7.0584 H   0  0  0  0  0  0  0  0  0  0  0  0 
    3.3091   -2.6267    7.6398 H   0  0  0  0  0  0  0  0  0  0  0  0 
    2.4208   -2.3232    5.0130 H   0  0  0  0  0  0  0  0  0  0  0  0 
  1 16  1  0  0  0  0 
  1 13  1  0  0  0  0 
  2  8  1  0  0  0  0 
  2 17  1  0  0  0  0 
  3 18  1  0  0  0  0 
  3  8  2  0  0  0  0 
  4  2  2  0  0  0  0 
  5  3  1  0  0  0  0 
  6 11  1  0  0  0  0 
  6 21  1  0  0  0  0 
  7 24  1  0  0  0  0 
  7  6  1  0  0  0  0 
  8 12  1  0  0  0  0 
  9  5  2  0  0  0  0 
  9  4  1  0  0  0  0 
 10 25  1  0  0  0  0 
 10 26  1  0  0  0  0 
 11 10  1  0  0  0  0 
 12  7  1  0  0  0  0 
 13  9  1  0  0  0  0 
 14  1  1  0  0  0  0 
 15  1  1  0  0  0  0 
 19  4  1  0  0  0  0 
 20  5  1  0  0  0  0 
 22  6  1  0  0  0  0 
 23  7  1  0  0  0  0 
 27 11  1  0  0  0  0 
M  END 
>  <HBA> 
4 
 
>  <HBD> 
2 
 
>  <TPSA> 
72.58 
 
>  <cid> 
50853 
 
>  <dipole> 
2.33 
 
>  <excitation_energy_1> 
4.641 
 
>  <excitation_energy_2> 
4.77 
 
>  <excitation_energy_3> 
4.8 
 
>  <excitation_energy_4> 
4.862 
 
>  <homo_energy> 
-5.453 
 
>  <homo_lumo_gap> 
5.268 
 
>  <logP> 
2.342 
 
>  <lumo_energy> 
-0.185 
 
>  <melting_point> 
103.0 
 
>  <molecular_refractivity> 
54.97 
 
>  <oscillator_strength_1> 
0.0064 
 
>  <oscillator_strength_2> 
0.0017 
 
>  <oscillator_strength_3> 
0.0019 
 
>  <oscillator_strength_4> 
0.0037 
 
>  <open_babel_can_smiles> 
NNCCOc1ccc(cc1)SC 
 
>  <mulliken_charges> 
27 
1   -0.574384 
2   -0.183114 
3   -0.16511 
4   -0.150919 
5   -0.144637 
6   -0.125379 
7   -0.047457 
8   0.381089 
9   -0.095968 
10   -0.59245 
11   -0.478063 
12   -0.528873 
13   0.071613 
14   0.178703 
15   0.179738 
16   0.179709 
17   0.138616 
18   0.139747 
19   0.148539 
20   0.147489 
21   0.138742 
22   0.14793 
23   0.145376 
24   0.156508 
25   0.305976 
26   0.304016 
27   0.322565 
 
>  <lowdin_charges> 
27 
1   -0.539388 
2   -0.214478 
3   -0.182199 
4   -0.140998 
5   -0.144421 
6   -0.216023 
7   -0.130193 
8   0.108592 
9   -0.150296 
10   -0.491888 
11   -0.324804 
12   -0.203915 
13   0.119525 
14   0.172089 
15   0.161226 
16   0.163038 
17   0.166247 
18   0.166884 
19   0.167057 
20   0.169062 
21   0.146577 
22   0.139704 
23   0.143709 
24   0.148298 
25   0.253915 
26   0.252776 
27   0.259903 
 
$$$$ 
 
