PCCDB-ID:  19917 
public computational chemistry database (PCCDB) project, http://pccdb.org 
 
 37 36  0  0  1  0  0  0  0  0999 V2000 
    1.1177   -2.6603    0.1278 C   0  0  0  0  0  0  0  0  0  0  0  0 
    1.7975   -0.3063   -0.4793 C   0  0  0  0  0  0  0  0  0  0  0  0 
    5.9746    2.4931    5.1351 C   0  0  0  0  0  0  0  0  0  0  0  0 
    4.5141    3.6128    3.3968 C   0  0  0  0  0  0  0  0  0  0  0  0 
    7.2900   -0.0930    1.9185 C   0  0  0  0  0  0  0  0  0  0  0  0 
    4.2662   -0.7005    1.4304 C   0  0  0  0  0  0  0  0  0  0  0  0 
    2.9823   -1.5420    1.4225 C   0  0  0  0  0  0  0  0  0  0  0  0 
    4.9726   -0.7231    2.7930 C   0  0  0  0  0  0  0  0  0  0  0  0 
    2.2837   -1.6627    0.0535 C   0  0  0  0  0  0  0  0  0  0  0  0 
    5.0951    2.2818    3.8881 C   0  0  0  0  0  0  0  0  0  0  0  0 
    6.1853    0.2238    2.9332 C   0  0  2  0  0  0  0  0  0  0  0  0 
    5.7802    1.6283    2.7621 N   0  0  0  0  0  0  0  0  0  0  0  0 
    0.6374   -2.7854   -0.8501 H   0  0  0  0  0  0  0  0  0  0  0  0 
    0.3496   -2.3141    0.8321 H   0  0  0  0  0  0  0  0  0  0  0  0 
    1.4561   -3.6475    0.4650 H   0  0  0  0  0  0  0  0  0  0  0  0 
    1.3001   -0.4215   -1.4499 H   0  0  0  0  0  0  0  0  0  0  0  0 
    2.6208    0.4036   -0.6114 H   0  0  0  0  0  0  0  0  0  0  0  0 
    1.0737    0.1465    0.2118 H   0  0  0  0  0  0  0  0  0  0  0  0 
    5.3997    2.9480    5.9510 H   0  0  0  0  0  0  0  0  0  0  0  0 
    6.8137    3.1631    4.9051 H   0  0  0  0  0  0  0  0  0  0  0  0 
    6.3881    1.5501    5.5087 H   0  0  0  0  0  0  0  0  0  0  0  0 
    3.9427    4.1124    4.1876 H   0  0  0  0  0  0  0  0  0  0  0  0 
    3.8594    3.4512    2.5353 H   0  0  0  0  0  0  0  0  0  0  0  0 
    5.3171    4.2953    3.0869 H   0  0  0  0  0  0  0  0  0  0  0  0 
    7.5658   -1.1525    1.9582 H   0  0  0  0  0  0  0  0  0  0  0  0 
    8.1928    0.4943    2.1290 H   0  0  0  0  0  0  0  0  0  0  0  0 
    6.9661    0.1415    0.8990 H   0  0  0  0  0  0  0  0  0  0  0  0 
    4.0484    0.3416    1.1717 H   0  0  0  0  0  0  0  0  0  0  0  0 
    4.9439   -1.0789    0.6519 H   0  0  0  0  0  0  0  0  0  0  0  0 
    2.2684   -1.1253    2.1507 H   0  0  0  0  0  0  0  0  0  0  0  0 
    3.2195   -2.5552    1.7811 H   0  0  0  0  0  0  0  0  0  0  0  0 
    5.3136   -1.7436    3.0203 H   0  0  0  0  0  0  0  0  0  0  0  0 
    4.2410   -0.4762    3.5752 H   0  0  0  0  0  0  0  0  0  0  0  0 
    3.0205   -2.0618   -0.6615 H   0  0  0  0  0  0  0  0  0  0  0  0 
    4.2554    1.6324    4.1670 H   0  0  0  0  0  0  0  0  0  0  0  0 
    6.6082    0.0413    3.9388 H   0  0  0  0  0  0  0  0  0  0  0  0 
    6.5990    2.1846    2.5183 H   0  0  0  0  0  0  0  0  0  0  0  0 
  1 15  1  0  0  0  0 
  1 14  1  0  0  0  0 
  2  9  1  0  0  0  0 
  2 18  1  0  0  0  0 
  3 21  1  0  0  0  0 
  3 19  1  0  0  0  0 
  4 10  1  0  0  0  0 
  4 22  1  0  0  0  0 
  5 25  1  0  0  0  0 
  5 26  1  0  0  0  0 
  5 11  1  0  0  0  0 
  6  8  1  0  0  0  0 
  7  6  1  0  0  0  0 
  7 31  1  0  0  0  0 
  7 30  1  0  0  0  0 
  8 11  1  0  0  0  0 
  8 32  1  0  0  0  0 
  8 33  1  0  0  0  0 
  9  1  1  0  0  0  0 
  9  7  1  0  0  0  0 
 10 35  1  0  0  0  0 
 10  3  1  0  0  0  0 
 11 36  1  1  0  0  0 
 12 11  1  0  0  0  0 
 12 10  1  0  0  0  0 
 13  1  1  0  0  0  0 
 16  2  1  0  0  0  0 
 17  2  1  0  0  0  0 
 20  3  1  0  0  0  0 
 23  4  1  0  0  0  0 
 24  4  1  0  0  0  0 
 27  5  1  0  0  0  0 
 28  6  1  0  0  0  0 
 29  6  1  0  0  0  0 
 34  9  1  0  0  0  0 
 37 12  1  0  0  0  0 
M  END 
>  <HBA> 
1 
 
>  <HBD> 
1 
 
>  <TPSA> 
12.03 
 
>  <cid> 
19917 
 
>  <dipole> 
1.02 
 
>  <excitation_energy_1> 
5.273 
 
>  <excitation_energy_2> 
5.618 
 
>  <excitation_energy_3> 
5.709 
 
>  <excitation_energy_4> 
5.851 
 
>  <homo_energy> 
-5.731 
 
>  <homo_lumo_gap> 
7.788 
 
>  <logP> 
3.59 
 
>  <lumo_energy> 
2.057 
 
>  <melting_point> 
-2.7 
 
>  <molecular_refractivity> 
57.79 
 
>  <oscillator_strength_1> 
0.0076 
 
>  <oscillator_strength_2> 
0.008 
 
>  <oscillator_strength_3> 
0.0151 
 
>  <oscillator_strength_4> 
0.0077 
 
>  <open_babel_can_smiles> 
CC(CCC[C@H](NC(C)C)C)C 
 
>  <mulliken_charges> 
37 
1   -0.441167 
2   -0.444444 
3   -0.449245 
4   -0.436978 
5   -0.472303 
6   -0.261295 
7   -0.247089 
8   -0.258619 
9   -0.06446 
10   0.042536 
11   0.067063 
12   -0.55619 
13   0.137106 
14   0.136687 
15   0.137275 
16   0.136475 
17   0.147664 
18   0.135621 
19   0.140504 
20   0.132122 
21   0.147591 
22   0.137356 
23   0.154814 
24   0.131776 
25   0.145284 
26   0.135966 
27   0.158899 
28   0.15705 
29   0.123608 
30   0.119949 
31   0.120374 
32   0.121754 
33   0.127612 
34   0.117322 
35   0.132812 
36   0.10281 
37   0.283762 
 
>  <lowdin_charges> 
37 
1   -0.444487 
2   -0.448396 
3   -0.464689 
4   -0.448648 
5   -0.449395 
6   -0.281274 
7   -0.275005 
8   -0.281795 
9   -0.121241 
10   -0.061252 
11   -0.057673 
12   -0.363439 
13   0.146011 
14   0.145217 
15   0.145482 
16   0.146135 
17   0.150887 
18   0.145213 
19   0.151152 
20   0.143431 
21   0.149593 
22   0.149039 
23   0.156522 
24   0.143603 
25   0.151699 
26   0.145707 
27   0.153466 
28   0.149808 
29   0.137446 
30   0.135585 
31   0.135218 
32   0.13727 
33   0.139446 
34   0.134217 
35   0.13991 
36   0.116393 
37   0.248844 
 
$$$$ 
 
