PCCDB-ID:  43402 
public computational chemistry database (PCCDB) project, http://pccdb.org 
 
 22 23  0  0  0  0  0  0  0  0999 V2000 
    2.2864    2.1983    0.2764 C   0  0  0  0  0  0  0  0  0  0  0  0 
    2.7332    0.8790    0.4028 C   0  0  0  0  0  0  0  0  0  0  0  0 
    0.9285    2.4584    0.0719 C   0  0  0  0  0  0  0  0  0  0  0  0 
    1.8569   -0.2151    0.3260 C   0  0  0  0  0  0  0  0  0  0  0  0 
   -0.4764   -2.3086   -0.0595 C   0  0  0  0  0  0  0  0  0  0  0  0 
    0.0505    1.3824   -0.0070 C   0  0  0  0  0  0  0  0  0  0  0  0 
    0.5142    0.0578    0.1134 C   0  0  0  0  0  0  0  0  0  0  0  0 
   -0.9684   -3.0052    1.2252 C   0  0  0  0  0  0  0  0  0  0  0  0 
   -1.4066    1.3379   -0.1999 C   0  0  0  0  0  0  0  0  0  0  0  0 
   -1.7568   -0.1844   -0.1624 C   0  0  0  0  0  0  0  0  0  0  0  0 
   -0.5669   -0.8525   -0.0083 N   0  0  0  0  0  0  0  0  0  0  0  0 
   -0.2544   -3.7267    1.8766 O   0  0  0  0  0  0  0  0  0  0  0  0 
   -2.2495   -2.7728    1.5491 O   0  0  0  0  0  0  0  0  0  0  0  0 
   -2.2166    2.2241   -0.3501 O   0  0  0  0  0  0  0  0  0  0  0  0 
   -2.8601   -0.7086   -0.2324 O   0  0  0  0  0  0  0  0  0  0  0  0 
    2.9952    3.0174    0.3433 H   0  0  0  0  0  0  0  0  0  0  0  0 
    3.7894    0.6881    0.5703 H   0  0  0  0  0  0  0  0  0  0  0  0 
    0.5496    3.4717   -0.0228 H   0  0  0  0  0  0  0  0  0  0  0  0 
    2.2281   -1.2271    0.4469 H   0  0  0  0  0  0  0  0  0  0  0  0 
   -1.0816   -2.6534   -0.9072 H   0  0  0  0  0  0  0  0  0  0  0  0 
    0.5589   -2.6000   -0.2275 H   0  0  0  0  0  0  0  0  0  0  0  0 
   -2.6767   -2.1722    0.8940 H   0  0  0  0  0  0  0  0  0  0  0  0 
  1 16  1  0  0  0  0 
  1  2  2  0  0  0  0 
  2 17  1  0  0  0  0 
  3  1  1  0  0  0  0 
  4  2  1  0  0  0  0 
  4 19  1  0  0  0  0 
  5 11  1  0  0  0  0 
  5  8  1  0  0  0  0 
  6  3  2  0  0  0  0 
  6  7  1  0  0  0  0 
  7  4  2  0  0  0  0 
  8 13  1  0  0  0  0 
  8 12  2  0  0  0  0 
  9 10  1  0  0  0  0 
  9  6  1  0  0  0  0 
 10 11  1  0  0  0  0 
 11  7  1  0  0  0  0 
 14  9  2  0  0  0  0 
 15 10  2  0  0  0  0 
 18  3  1  0  0  0  0 
 20  5  1  0  0  0  0 
 21  5  1  0  0  0  0 
 22 13  1  0  0  0  0 
M  END 
>  <HBA> 
5 
 
>  <HBD> 
1 
 
>  <TPSA> 
74.68 
 
>  <cid> 
43402 
 
>  <dipole> 
5.9 
 
>  <excitation_energy_1> 
2.736 
 
>  <excitation_energy_2> 
2.879 
 
>  <excitation_energy_3> 
4.014 
 
>  <excitation_energy_4> 
4.217 
 
>  <homo_energy> 
-6.838 
 
>  <homo_lumo_gap> 
3.644 
 
>  <logP> 
0.365 
 
>  <lumo_energy> 
-3.195 
 
>  <melting_point> 
169.69 
 
>  <molecular_refractivity> 
53.64 
 
>  <oscillator_strength_1> 
0.0005 
 
>  <oscillator_strength_2> 
0.0086 
 
>  <oscillator_strength_3> 
0.0245 
 
>  <oscillator_strength_4> 
0.0797 
 
>  <open_babel_can_smiles> 
OC(=O)CN1c2ccccc2C(=O)C1=O 
 
>  <mulliken_charges> 
22 
1   -0.136399 
2   -0.126609 
3   -0.169424 
4   -0.172823 
5   -0.281138 
6   0.057006 
7   0.335715 
8   0.603787 
9   0.337536 
10   0.570115 
11   -0.567881 
12   -0.435747 
13   -0.575044 
14   -0.419067 
15   -0.511981 
16   0.150919 
17   0.156241 
18   0.171391 
19   0.166788 
20   0.204456 
21   0.197755 
22   0.444404 
 
>  <lowdin_charges> 
22 
1   -0.165675 
2   -0.11144 
3   -0.104616 
4   -0.182351 
5   -0.231029 
6   -0.077165 
7   0.069271 
8   0.185462 
9   0.133832 
10   0.140546 
11   -0.065179 
12   -0.237888 
13   -0.352868 
14   -0.168746 
15   -0.255354 
16   0.170311 
17   0.169891 
18   0.179637 
19   0.174671 
20   0.182137 
21   0.182058 
22   0.364495 
 
$$$$ 
 
