PCCDB-ID:  10726 
public computational chemistry database (PCCDB) project, http://pccdb.org 
 
 22 22  0  0  1  0  0  0  0  0999 V2000 
   -1.9037   -0.1551    0.2945 C   0  0  0  0  0  0  0  0  0  0  0  0 
   -1.3044    1.0969    0.1542 C   0  0  0  0  0  0  0  0  0  0  0  0 
   -1.1225   -1.3100    0.2055 C   0  0  0  0  0  0  0  0  0  0  0  0 
    0.0697    1.1935   -0.0769 C   0  0  0  0  0  0  0  0  0  0  0  0 
    0.2499   -1.2126   -0.0217 C   0  0  0  0  0  0  0  0  0  0  0  0 
    3.1311   -0.0243    0.9761 C   0  0  0  0  0  0  0  0  0  0  0  0 
    0.8662    0.0424   -0.1721 C   0  0  0  0  0  0  0  0  0  0  0  0 
    2.3716    0.1586   -0.3583 C   0  0  2  0  0  0  0  0  0  0  0  0 
    2.9394   -0.7866   -1.4271 C   0  0  0  0  0  0  0  0  0  0  0  0 
    2.7630    0.9558    1.9300 O   0  0  0  0  0  0  0  0  0  0  0  0 
    4.0061   -1.3418   -1.3309 O   0  0  0  0  0  0  0  0  0  0  0  0 
    2.1870   -0.9398   -2.5460 O   0  0  0  0  0  0  0  0  0  0  0  0 
   -2.9728   -0.2324    0.4709 H   0  0  0  0  0  0  0  0  0  0  0  0 
   -1.9043    2.0003    0.2221 H   0  0  0  0  0  0  0  0  0  0  0  0 
   -1.5817   -2.2887    0.3136 H   0  0  0  0  0  0  0  0  0  0  0  0 
    0.5328    2.1714   -0.1842 H   0  0  0  0  0  0  0  0  0  0  0  0 
    0.8478   -2.1187   -0.0894 H   0  0  0  0  0  0  0  0  0  0  0  0 
    4.2006    0.0977    0.7980 H   0  0  0  0  0  0  0  0  0  0  0  0 
    2.9720   -1.0457    1.3529 H   0  0  0  0  0  0  0  0  0  0  0  0 
    2.5937    1.1775   -0.7074 H   0  0  0  0  0  0  0  0  0  0  0  0 
    1.8244    0.8245    2.1398 H   0  0  0  0  0  0  0  0  0  0  0  0 
    1.3352   -0.4829   -2.4290 H   0  0  0  0  0  0  0  0  0  0  0  0 
  1 13  1  0  0  0  0 
  2 14  1  0  0  0  0 
  2  1  2  0  0  0  0 
  3  1  1  0  0  0  0 
  3 15  1  0  0  0  0 
  4  2  1  0  0  0  0 
  5  3  2  0  0  0  0 
  6 19  1  0  0  0  0 
  6 10  1  0  0  0  0 
  7  4  2  0  0  0  0 
  7  5  1  0  0  0  0 
  8 20  1  6  0  0  0 
  8  7  1  0  0  0  0 
  8  6  1  0  0  0  0 
  9 11  2  0  0  0  0 
  9  8  1  0  0  0  0 
 10 21  1  0  0  0  0 
 12 22  1  0  0  0  0 
 12  9  1  0  0  0  0 
 16  4  1  0  0  0  0 
 17  5  1  0  0  0  0 
 18  6  1  0  0  0  0 
M  END 
>  <HBA> 
3 
 
>  <HBD> 
2 
 
>  <TPSA> 
57.53 
 
>  <cid> 
10726 
 
>  <dipole> 
5.2 
 
>  <excitation_energy_1> 
5.28 
 
>  <excitation_energy_2> 
5.526 
 
>  <excitation_energy_3> 
5.662 
 
>  <excitation_energy_4> 
6.036 
 
>  <homo_energy> 
-7.059 
 
>  <homo_lumo_gap> 
6.248 
 
>  <logP> 
0.847 
 
>  <lumo_energy> 
-0.811 
 
>  <melting_point> 
101.6 
 
>  <molecular_refractivity> 
43.96 
 
>  <oscillator_strength_1> 
0.0 
 
>  <oscillator_strength_2> 
0.0094 
 
>  <oscillator_strength_3> 
0.0659 
 
>  <oscillator_strength_4> 
0.0293 
 
>  <open_babel_can_smiles> 
OC[C@H](c1ccccc1)C(=O)O 
 
>  <mulliken_charges> 
22 
1   -0.127356 
2   -0.126139 
3   -0.128808 
4   -0.190309 
5   -0.176517 
6   -0.01951 
7   0.062611 
8   -0.295729 
9   0.607508 
10   -0.619 
11   -0.44847 
12   -0.568644 
13   0.142159 
14   0.142916 
15   0.144669 
16   0.146262 
17   0.153639 
18   0.177743 
19   0.13536 
20   0.178547 
21   0.39459 
22   0.414477 
 
>  <lowdin_charges> 
22 
1   -0.147936 
2   -0.152669 
3   -0.149106 
4   -0.170783 
5   -0.168851 
6   -0.126229 
7   -0.038209 
8   -0.185393 
9   0.188884 
10   -0.459639 
11   -0.235658 
12   -0.351229 
13   0.162095 
14   0.164662 
15   0.164655 
16   0.16421 
17   0.167338 
18   0.164113 
19   0.134282 
20   0.173099 
21   0.341728 
22   0.360636 
 
$$$$ 
 
