PCCDB-ID:  21861 
public computational chemistry database (PCCDB) project, http://pccdb.org 
 
 33 34  0  0  0  0  0  0  0  0999 V2000 
    3.6124    1.1331    0.0834 C   0  0  0  0  0  0  0  0  0  0  0  0 
    1.1630    0.9157   -0.5454 C   0  0  0  0  0  0  0  0  0  0  0  0 
    2.4529   -8.8084   -1.8220 C   0  0  0  0  0  0  0  0  0  0  0  0 
    1.6520   -7.7734   -1.3366 C   0  0  0  0  0  0  0  0  0  0  0  0 
    3.6016   -8.4884   -2.5491 C   0  0  0  0  0  0  0  0  0  0  0  0 
    1.9831   -6.4388   -1.5655 C   0  0  0  0  0  0  0  0  0  0  0  0 
    3.9524   -7.1598   -2.7703 C   0  0  0  0  0  0  0  0  0  0  0  0 
    2.5927   -2.3330    0.0671 C   0  0  0  0  0  0  0  0  0  0  0  0 
    3.0460   -1.1818   -1.9774 C   0  0  0  0  0  0  0  0  0  0  0  0 
    2.8590   -3.5583   -0.5436 C   0  0  0  0  0  0  0  0  0  0  0  0 
    3.2981   -2.3948   -2.6079 C   0  0  0  0  0  0  0  0  0  0  0  0 
    2.3839    0.2038    0.0677 C   0  0  0  0  0  0  0  0  0  0  0  0 
    2.6774   -1.1199   -0.6249 C   0  0  0  0  0  0  0  0  0  0  0  0 
    3.1498   -6.1130   -2.2802 C   0  0  0  0  0  0  0  0  0  0  0  0 
    3.2071   -3.6085   -1.9025 C   0  0  0  0  0  0  0  0  0  0  0  0 
    3.5188   -4.7967   -2.5746 N   0  0  0  0  0  0  0  0  0  0  0  0 
    3.3961    2.0538    0.6387 H   0  0  0  0  0  0  0  0  0  0  0  0 
    3.9075    1.4205   -0.9331 H   0  0  0  0  0  0  0  0  0  0  0  0 
    4.4723    0.6442    0.5541 H   0  0  0  0  0  0  0  0  0  0  0  0 
    0.9332    1.8372    0.0033 H   0  0  0  0  0  0  0  0  0  0  0  0 
    0.2763    0.2730   -0.5200 H   0  0  0  0  0  0  0  0  0  0  0  0 
    1.3464    1.1890   -1.5916 H   0  0  0  0  0  0  0  0  0  0  0  0 
    2.1856   -9.8452   -1.6405 H   0  0  0  0  0  0  0  0  0  0  0  0 
    0.7452   -8.0023   -0.7823 H   0  0  0  0  0  0  0  0  0  0  0  0 
    4.2384   -9.2779   -2.9399 H   0  0  0  0  0  0  0  0  0  0  0  0 
    1.3270   -5.6508   -1.2136 H   0  0  0  0  0  0  0  0  0  0  0  0 
    4.8591   -6.9203   -3.3223 H   0  0  0  0  0  0  0  0  0  0  0  0 
    2.3257   -2.3251    1.1220 H   0  0  0  0  0  0  0  0  0  0  0  0 
    3.1294   -0.2665   -2.5587 H   0  0  0  0  0  0  0  0  0  0  0  0 
    2.8203   -4.4701    0.0415 H   0  0  0  0  0  0  0  0  0  0  0  0 
    3.5643   -2.4116   -3.6630 H   0  0  0  0  0  0  0  0  0  0  0  0 
    2.1363   -0.0286    1.1127 H   0  0  0  0  0  0  0  0  0  0  0  0 
    4.1235   -4.6896   -3.3766 H   0  0  0  0  0  0  0  0  0  0  0  0 
  1 19  1  0  0  0  0 
  1 17  1  0  0  0  0 
  2 21  1  0  0  0  0 
  2 20  1  0  0  0  0 
  2 12  1  0  0  0  0 
  3 23  1  0  0  0  0 
  3  4  2  0  0  0  0 
  4 24  1  0  0  0  0 
  5  3  1  0  0  0  0 
  6  4  1  0  0  0  0 
  6 26  1  0  0  0  0 
  7  5  2  0  0  0  0 
  7 14  1  0  0  0  0 
  8 28  1  0  0  0  0 
  9 13  1  0  0  0  0 
 10 30  1  0  0  0  0 
 10  8  1  0  0  0  0 
 11  9  2  0  0  0  0 
 11 15  1  0  0  0  0 
 12  1  1  0  0  0  0 
 12 32  1  0  0  0  0 
 13  8  2  0  0  0  0 
 13 12  1  0  0  0  0 
 14  6  2  0  0  0  0 
 15 10  2  0  0  0  0 
 16 14  1  0  0  0  0 
 16 15  1  0  0  0  0 
 18  1  1  0  0  0  0 
 22  2  1  0  0  0  0 
 25  5  1  0  0  0  0 
 27  7  1  0  0  0  0 
 29  9  1  0  0  0  0 
 31 11  1  0  0  0  0 
 33 16  1  0  0  0  0 
M  END 
>  <HBA> 
0 
 
>  <HBD> 
1 
 
>  <TPSA> 
12.03 
 
>  <cid> 
21861 
 
>  <dipole> 
0.83 
 
>  <excitation_energy_1> 
4.143 
 
>  <excitation_energy_2> 
4.202 
 
>  <excitation_energy_3> 
4.276 
 
>  <excitation_energy_4> 
4.532 
 
>  <homo_energy> 
-4.991 
 
>  <homo_lumo_gap> 
4.909 
 
>  <logP> 
4.627 
 
>  <lumo_energy> 
-0.082 
 
>  <melting_point> 
80.95 
 
>  <molecular_refractivity> 
70.57 
 
>  <oscillator_strength_1> 
0.1618 
 
>  <oscillator_strength_2> 
0.2782 
 
>  <oscillator_strength_3> 
0.0228 
 
>  <oscillator_strength_4> 
0.1301 
 
>  <open_babel_can_smiles> 
CC(c1ccc(cc1)Nc1ccccc1)C 
 
>  <mulliken_charges> 
33 
1   -0.437502 
2   -0.436973 
3   -0.135378 
4   -0.140678 
5   -0.132331 
6   -0.175389 
7   -0.192882 
8   -0.213204 
9   -0.191575 
10   -0.172539 
11   -0.192166 
12   -0.159843 
13   0.189092 
14   0.368562 
15   0.365926 
16   -0.798154 
17   0.139203 
18   0.14082 
19   0.148536 
20   0.13903 
21   0.148357 
22   0.141161 
23   0.123733 
24   0.128249 
25   0.127425 
26   0.143646 
27   0.11843 
28   0.122421 
29   0.123439 
30   0.142919 
31   0.118193 
32   0.126677 
33   0.322797 
 
>  <lowdin_charges> 
33 
1   -0.44239 
2   -0.441283 
3   -0.181208 
4   -0.146416 
5   -0.148528 
6   -0.197583 
7   -0.195557 
8   -0.1581 
9   -0.156999 
10   -0.195514 
11   -0.189853 
12   -0.115791 
13   -0.020157 
14   0.060418 
15   0.054606 
16   -0.253466 
17   0.147326 
18   0.145408 
19   0.15292 
20   0.147192 
21   0.152412 
22   0.145138 
23   0.155026 
24   0.157191 
25   0.158341 
26   0.167028 
27   0.152349 
28   0.152331 
29   0.154748 
30   0.166117 
31   0.150524 
32   0.139696 
33   0.284074 
 
$$$$ 
 
