PCCDB-ID:  66201 
public computational chemistry database (PCCDB) project, http://pccdb.org 
 
 13 13  0  0  0  0  0  0  0  0999 V2000 
    1.1402    0.0048   -0.2369 C   0  0  0  0  0  0  0  0  0  0  0  0 
    3.2809   -1.3545    0.2361 C   0  0  0  0  0  0  0  0  0  0  0  0 
    4.6068   -0.8294    0.8067 C   0  0  0  0  0  0  0  0  0  0  0  0 
    2.3980   -0.1187    0.1734 C   0  0  0  0  0  0  0  0  0  0  0  0 
    4.3819    0.6631    1.0165 C   0  0  0  0  0  0  0  0  0  0  0  0 
    5.1452    1.4850    1.4413 O   0  0  0  0  0  0  0  0  0  0  0  0 
    3.1010    0.9878    0.6334 O   0  0  0  0  0  0  0  0  0  0  0  0 
    0.5963   -0.8620   -0.5949 H   0  0  0  0  0  0  0  0  0  0  0  0 
    0.6343    0.9632   -0.2237 H   0  0  0  0  0  0  0  0  0  0  0  0 
    2.8282   -2.1205    0.8733 H   0  0  0  0  0  0  0  0  0  0  0  0 
    3.4022   -1.7930   -0.7594 H   0  0  0  0  0  0  0  0  0  0  0  0 
    5.4603   -0.9623    0.1352 H   0  0  0  0  0  0  0  0  0  0  0  0 
    4.8821   -1.2779    1.7660 H   0  0  0  0  0  0  0  0  0  0  0  0 
  1  9  1  0  0  0  0 
  1  4  2  0  0  0  0 
  2  3  1  0  0  0  0 
  2 10  1  0  0  0  0 
  3  5  1  0  0  0  0 
  3 13  1  0  0  0  0 
  4  2  1  0  0  0  0 
  4  7  1  0  0  0  0 
  5  6  2  0  0  0  0 
  7  5  1  0  0  0  0 
  8  1  1  0  0  0  0 
 11  2  1  0  0  0  0 
 12  3  1  0  0  0  0 
M  END 
>  <HBA> 
2 
 
>  <HBD> 
0 
 
>  <TPSA> 
26.3 
 
>  <cid> 
66201 
 
>  <dipole> 
4.0 
 
>  <excitation_energy_1> 
5.672 
 
>  <excitation_energy_2> 
5.802 
 
>  <excitation_energy_3> 
5.959 
 
>  <excitation_energy_4> 
6.325 
 
>  <homo_energy> 
-6.656 
 
>  <homo_lumo_gap> 
6.574 
 
>  <logP> 
0.837 
 
>  <lumo_energy> 
-0.082 
 
>  <melting_point> 
-8.06 
 
>  <molecular_refractivity> 
24.85 
 
>  <oscillator_strength_1> 
0.0005 
 
>  <oscillator_strength_2> 
0.1223 
 
>  <oscillator_strength_3> 
0.0126 
 
>  <oscillator_strength_4> 
0.2172 
 
>  <open_babel_can_smiles> 
C=C1CCC(=O)O1 
 
>  <mulliken_charges> 
13 
1   -0.444145 
2   -0.355838 
3   -0.393705 
4   0.421636 
5   0.609113 
6   -0.440272 
7   -0.460233 
8   0.147304 
9   0.161446 
10   0.181568 
11   0.181748 
12   0.195644 
13   0.195736 
 
>  <lowdin_charges> 
13 
1   -0.388669 
2   -0.291395 
3   -0.313735 
4   0.09857 
5   0.203416 
6   -0.220506 
7   -0.141933 
8   0.17035 
9   0.17694 
10   0.172313 
11   0.170669 
12   0.182275 
13   0.181705 
 
$$$$ 
 
