PCCDB-ID:  16059 
public computational chemistry database (PCCDB) project, http://pccdb.org 
 
 15 15  0  0  0  0  0  0  0  0999 V2000 
    0.8424   -0.0571   -0.2191 C   0  0  0  0  0  0  0  0  0  0  0  0 
    2.7717   -0.0570    1.4377 C   0  0  0  0  0  0  0  0  0  0  0  0 
    3.1002    1.0603   -0.8990 C   0  0  0  0  0  0  0  0  0  0  0  0 
    3.1274   -0.9808   -0.9315 C   0  0  0  0  0  0  0  0  0  0  0  0 
    2.3612    0.0082   -0.0356 C   0  0  0  0  0  0  0  0  0  0  0  0 
    3.2279   -2.1669   -1.0472 O   0  0  0  0  0  0  0  0  0  0  0  0 
    3.7548   -0.0043   -1.6692 O   0  0  0  0  0  0  0  0  0  0  0  0 
    0.3540    0.7654    0.3166 H   0  0  0  0  0  0  0  0  0  0  0  0 
    0.4531   -1.0007    0.1772 H   0  0  0  0  0  0  0  0  0  0  0  0 
    0.5597    0.0064   -1.2757 H   0  0  0  0  0  0  0  0  0  0  0  0 
    2.3215    0.7698    1.9995 H   0  0  0  0  0  0  0  0  0  0  0  0 
    3.8592   -0.0010    1.5576 H   0  0  0  0  0  0  0  0  0  0  0  0 
    2.4316   -0.9973    1.8842 H   0  0  0  0  0  0  0  0  0  0  0  0 
    3.8454    1.6732   -0.3851 H   0  0  0  0  0  0  0  0  0  0  0  0 
    2.4767    1.6767   -1.5516 H   0  0  0  0  0  0  0  0  0  0  0  0 
  1  5  1  0  0  0  0 
  1  9  1  0  0  0  0 
  1  8  1  0  0  0  0 
  2 12  1  0  0  0  0 
  2 13  1  0  0  0  0 
  2 11  1  0  0  0  0 
  3 14  1  0  0  0  0 
  3  5  1  0  0  0  0 
  4  5  1  0  0  0  0 
  5  2  1  0  0  0  0 
  6  4  2  0  0  0  0 
  7  4  1  0  0  0  0 
  7  3  1  0  0  0  0 
 10  1  1  0  0  0  0 
 15  3  1  0  0  0  0 
M  END 
>  <HBA> 
2 
 
>  <HBD> 
0 
 
>  <TPSA> 
26.3 
 
>  <cid> 
16059 
 
>  <dipole> 
4.17 
 
>  <excitation_energy_1> 
5.773 
 
>  <excitation_energy_2> 
6.852 
 
>  <excitation_energy_3> 
7.31 
 
>  <excitation_energy_4> 
7.536 
 
>  <homo_energy> 
-7.323 
 
>  <homo_lumo_gap> 
7.611 
 
>  <logP> 
0.569 
 
>  <lumo_energy> 
0.288 
 
>  <melting_point> 
27.81 
 
>  <molecular_refractivity> 
25.06 
 
>  <oscillator_strength_1> 
0.0021 
 
>  <oscillator_strength_2> 
0.0056 
 
>  <oscillator_strength_3> 
0.0385 
 
>  <oscillator_strength_4> 
0.0022 
 
>  <open_babel_can_smiles> 
O=C1OCC1(C)C 
 
>  <mulliken_charges> 
15 
1   -0.459312 
2   -0.458922 
3   -0.038824 
4   0.622611 
5   -0.05809 
6   -0.439358 
7   -0.456879 
8   0.15417 
9   0.171702 
10   0.159287 
11   0.1541 
12   0.15924 
13   0.171552 
14   0.159359 
15   0.159364 
 
>  <lowdin_charges> 
15 
1   -0.43621 
2   -0.435534 
3   -0.131548 
4   0.181357 
5   -0.027409 
6   -0.213648 
7   -0.206246 
8   0.156749 
9   0.165712 
10   0.15686 
11   0.15672 
12   0.156285 
13   0.165719 
14   0.155539 
15   0.155654 
 
$$$$ 
 
