PCCDB-ID:  8423 
public computational chemistry database (PCCDB) project, http://pccdb.org 
 
 31 31  0  0  1  0  0  0  0  0999 V2000 
    0.8237    0.5524   -0.8373 C   0  0  0  0  0  0  0  0  0  0  0  0 
    2.6106   -6.5035   -2.5856 C   0  0  0  0  0  0  0  0  0  0  0  0 
    1.1672   -3.3806   -5.1953 C   0  0  0  0  0  0  0  0  0  0  0  0 
    3.1054   -2.7848   -0.6302 C   0  0  0  0  0  0  0  0  0  0  0  0 
    2.9135   -4.0290   -1.2378 C   0  0  0  0  0  0  0  0  0  0  0  0 
    3.2517   -0.2562   -0.6953 C   0  0  0  0  0  0  0  0  0  0  0  0 
    2.8151   -1.6990   -2.7451 C   0  0  0  0  0  0  0  0  0  0  0  0 
    2.0113    0.2674    0.0836 C   0  0  1  0  0  0  0  0  0  0  0  0 
    3.0646   -1.5989   -1.3682 C   0  0  0  0  0  0  0  0  0  0  0  0 
    2.6774   -4.1161   -2.6122 C   0  0  0  0  0  0  0  0  0  0  0  0 
    2.6202   -2.9264   -3.3713 C   0  0  0  0  0  0  0  0  0  0  0  0 
    2.2892    1.4732    0.8777 N   0  0  0  0  0  0  0  0  0  0  0  0 
    2.5090   -5.2847   -3.3032 O   0  0  0  0  0  0  0  0  0  0  0  0 
    2.4491   -2.9489   -4.7354 O   0  0  0  0  0  0  0  0  0  0  0  0 
    0.5432   -0.3346   -1.4131 H   0  0  0  0  0  0  0  0  0  0  0  0 
    1.0723    1.3497   -1.5519 H   0  0  0  0  0  0  0  0  0  0  0  0 
   -0.0381    0.8842   -0.2506 H   0  0  0  0  0  0  0  0  0  0  0  0 
    2.4695   -7.2966   -3.3223 H   0  0  0  0  0  0  0  0  0  0  0  0 
    1.8352   -6.5855   -1.8120 H   0  0  0  0  0  0  0  0  0  0  0  0 
    3.5980   -6.6141   -2.1184 H   0  0  0  0  0  0  0  0  0  0  0  0 
    0.3715   -2.7383   -4.7937 H   0  0  0  0  0  0  0  0  0  0  0  0 
    0.9708   -4.4216   -4.9217 H   0  0  0  0  0  0  0  0  0  0  0  0 
    1.1903   -3.2863   -6.2837 H   0  0  0  0  0  0  0  0  0  0  0  0 
    3.3020   -2.7491    0.4390 H   0  0  0  0  0  0  0  0  0  0  0  0 
    2.9640   -4.9273   -0.6328 H   0  0  0  0  0  0  0  0  0  0  0  0 
    4.0873   -0.3209    0.0161 H   0  0  0  0  0  0  0  0  0  0  0  0 
    3.5357    0.4997   -1.4411 H   0  0  0  0  0  0  0  0  0  0  0  0 
    2.7810   -0.8096   -3.3686 H   0  0  0  0  0  0  0  0  0  0  0  0 
    1.7131   -0.5135    0.7972 H   0  0  0  0  0  0  0  0  0  0  0  0 
    2.5769    2.2274    0.2523 H   0  0  0  0  0  0  0  0  0  0  0  0 
    3.0863    1.3047    1.4919 H   0  0  0  0  0  0  0  0  0  0  0  0 
  1 17  1  0  0  0  0 
  1  8  1  0  0  0  0 
  2 20  1  0  0  0  0 
  2 19  1  0  0  0  0 
  3 22  1  0  0  0  0 
  3 21  1  0  0  0  0 
  3 14  1  0  0  0  0 
  4 24  1  0  0  0  0 
  5 25  1  0  0  0  0 
  5  4  1  0  0  0  0 
  6 26  1  0  0  0  0 
  6  8  1  0  0  0  0 
  7  9  1  0  0  0  0 
  8 29  1  1  0  0  0 
  8 12  1  0  0  0  0 
  9  6  1  0  0  0  0 
  9  4  2  0  0  0  0 
 10  5  2  0  0  0  0 
 11  7  2  0  0  0  0 
 11 10  1  0  0  0  0 
 12 31  1  0  0  0  0 
 13 10  1  0  0  0  0 
 13  2  1  0  0  0  0 
 14 11  1  0  0  0  0 
 15  1  1  0  0  0  0 
 16  1  1  0  0  0  0 
 18  2  1  0  0  0  0 
 23  3  1  0  0  0  0 
 27  6  1  0  0  0  0 
 28  7  1  0  0  0  0 
 30 12  1  0  0  0  0 
M  END 
>  <HBA> 
3 
 
>  <HBD> 
1 
 
>  <TPSA> 
44.48 
 
>  <cid> 
8423 
 
>  <dipole> 
1.86 
 
>  <excitation_energy_1> 
4.866 
 
>  <excitation_energy_2> 
5.144 
 
>  <excitation_energy_3> 
5.261 
 
>  <excitation_energy_4> 
5.437 
 
>  <homo_energy> 
-5.584 
 
>  <homo_lumo_gap> 
5.733 
 
>  <logP> 
2.294 
 
>  <lumo_energy> 
0.15 
 
>  <melting_point> 
72.29 
 
>  <molecular_refractivity> 
56.71 
 
>  <oscillator_strength_1> 
0.0301 
 
>  <oscillator_strength_2> 
0.0385 
 
>  <oscillator_strength_3> 
0.0607 
 
>  <oscillator_strength_4> 
0.0263 
 
>  <open_babel_can_smiles> 
COc1cc(ccc1OC)C[C@@H](N)C 
 
>  <mulliken_charges> 
31 
1   -0.440532 
2   -0.21459 
3   -0.209838 
4   -0.192854 
5   -0.204346 
6   -0.357037 
7   -0.239173 
8   0.031346 
9   0.177451 
10   0.344598 
11   0.315768 
12   -0.702684 
13   -0.50869 
14   -0.521453 
15   0.153646 
16   0.128273 
17   0.158466 
18   0.169736 
19   0.150947 
20   0.154092 
21   0.136866 
22   0.162126 
23   0.156905 
24   0.119579 
25   0.131929 
26   0.130398 
27   0.129862 
28   0.129624 
29   0.132993 
30   0.286791 
31   0.289802 
 
>  <lowdin_charges> 
31 
1   -0.451411 
2   -0.27749 
3   -0.273153 
4   -0.167854 
5   -0.208671 
6   -0.292824 
7   -0.182774 
8   -0.064157 
9   -0.015653 
10   0.073675 
11   0.071747 
12   -0.549567 
13   -0.196834 
14   -0.225212 
15   0.157407 
16   0.141888 
17   0.159417 
18   0.163521 
19   0.144755 
20   0.146145 
21   0.138384 
22   0.148067 
23   0.152934 
24   0.151871 
25   0.162557 
26   0.144849 
27   0.144212 
28   0.16405 
29   0.139795 
30   0.250169 
31   0.250156 
 
$$$$ 
 
