PCCDB-ID:  69520 
public computational chemistry database (PCCDB) project, http://pccdb.org 
 
 20 20  0  0  0  0  0  0  0  0999 V2000 
    0.9394   -0.1603    0.0043 C   0  0  0  0  0  0  0  0  0  0  0  0 
    2.6296    2.4454    0.0136 C   0  0  0  0  0  0  0  0  0  0  0  0 
    2.1980    2.9916    1.3876 C   0  0  0  0  0  0  0  0  0  0  0  0 
    4.4711    0.5815    0.1125 C   0  0  0  0  0  0  0  0  0  0  0  0 
    3.2428   -1.1573    0.1372 C   0  0  0  0  0  0  0  0  0  0  0  0 
    3.1790    1.0537    0.0534 C   0  0  0  0  0  0  0  0  0  0  0  0 
    1.6135    4.3277    1.2350 N   0  0  0  0  0  0  0  0  0  0  0  0 
    4.5051   -0.7927    0.1644 N   0  0  0  0  0  0  0  0  0  0  0  0 
    2.3878   -0.0895    0.0719 N   0  0  0  0  0  0  0  0  0  0  0  0 
    0.6449   -1.2073   -0.0978 H   0  0  0  0  0  0  0  0  0  0  0  0 
    0.5625    0.3926   -0.8619 H   0  0  0  0  0  0  0  0  0  0  0  0 
    0.4751    0.2467    0.9091 H   0  0  0  0  0  0  0  0  0  0  0  0 
    3.4048    3.1047   -0.3983 H   0  0  0  0  0  0  0  0  0  0  0  0 
    1.7728    2.5209   -0.6685 H   0  0  0  0  0  0  0  0  0  0  0  0 
    3.0639    2.9430    2.0709 H   0  0  0  0  0  0  0  0  0  0  0  0 
    1.4276    2.3386    1.8166 H   0  0  0  0  0  0  0  0  0  0  0  0 
    5.3821    1.1669    0.1131 H   0  0  0  0  0  0  0  0  0  0  0  0 
    2.8752   -2.1759    0.1562 H   0  0  0  0  0  0  0  0  0  0  0  0 
    2.3372    4.9839    0.9418 H   0  0  0  0  0  0  0  0  0  0  0  0 
    1.2825    4.6646    2.1377 H   0  0  0  0  0  0  0  0  0  0  0  0 
  1  9  1  0  0  0  0 
  1 12  1  0  0  0  0 
  2  6  1  0  0  0  0 
  2  3  1  0  0  0  0 
  3 16  1  0  0  0  0 
  3 15  1  0  0  0  0 
  4 17  1  0  0  0  0 
  4  8  1  0  0  0  0 
  5 18  1  0  0  0  0 
  5  8  2  0  0  0  0 
  6  9  1  0  0  0  0 
  6  4  2  0  0  0  0 
  7  3  1  0  0  0  0 
  7 20  1  0  0  0  0 
  9  5  1  0  0  0  0 
 10  1  1  0  0  0  0 
 11  1  1  0  0  0  0 
 13  2  1  0  0  0  0 
 14  2  1  0  0  0  0 
 19  7  1  0  0  0  0 
M  END 
>  <HBA> 
3 
 
>  <HBD> 
1 
 
>  <TPSA> 
43.84 
 
>  <cid> 
69520 
 
>  <dipole> 
3.43 
 
>  <excitation_energy_1> 
5.169 
 
>  <excitation_energy_2> 
5.481 
 
>  <excitation_energy_3> 
5.671 
 
>  <excitation_energy_4> 
5.676 
 
>  <homo_energy> 
-5.753 
 
>  <homo_lumo_gap> 
6.7 
 
>  <logP> 
0.622 
 
>  <lumo_energy> 
0.947 
 
>  <melting_point> 
79.41 
 
>  <molecular_refractivity> 
35.97 
 
>  <oscillator_strength_1> 
0.0073 
 
>  <oscillator_strength_2> 
0.0088 
 
>  <oscillator_strength_3> 
0.0145 
 
>  <oscillator_strength_4> 
0.05 
 
>  <open_babel_can_smiles> 
Cn1cncc1CCN 
 
>  <mulliken_charges> 
20 
1   -0.326885 
2   -0.340147 
3   -0.132346 
4   -0.08788 
5   0.186912 
6   0.308044 
7   -0.716489 
8   -0.433868 
9   -0.419143 
10   0.173614 
11   0.178586 
12   0.175615 
13   0.150469 
14   0.155375 
15   0.127303 
16   0.138037 
17   0.124628 
18   0.144786 
19   0.294651 
20   0.298737 
 
>  <lowdin_charges> 
20 
1   -0.346267 
2   -0.280285 
3   -0.206148 
4   -0.174905 
5   -0.108277 
6   -0.020492 
7   -0.56039 
8   -0.188588 
9   -0.015593 
10   0.167428 
11   0.164982 
12   0.1605 
13   0.158083 
14   0.156761 
15   0.125317 
16   0.140709 
17   0.156796 
18   0.160509 
19   0.253574 
20   0.256286 
 
$$$$ 
 
