PCCDB-ID:  73018 
public computational chemistry database (PCCDB) project, http://pccdb.org 
 
 17 17  0  0  0  0  0  0  0  0999 V2000 
   -0.5366    1.4818    0.2782 C   0  0  0  0  0  0  0  0  0  0  0  0 
   -1.3627    0.4130   -0.0281 C   0  0  0  0  0  0  0  0  0  0  0  0 
    0.8590    1.2200    0.1267 C   0  0  0  0  0  0  0  0  0  0  0  0 
   -2.8623    0.5192   -0.0077 C   0  0  0  0  0  0  0  0  0  0  0  0 
    0.4494   -0.9298   -0.3926 C   0  0  0  0  0  0  0  0  0  0  0  0 
   -0.9238    2.7959    0.6173 N   0  0  0  0  0  0  0  0  0  0  0  0 
   -0.8738   -0.8052   -0.3716 N   0  0  0  0  0  0  0  0  0  0  0  0 
    1.3505    0.0354   -0.1766 N   0  0  0  0  0  0  0  0  0  0  0  0 
    1.7237    2.2283    0.2960 O   0  0  0  0  0  0  0  0  0  0  0  0 
   -3.4600    1.5492    0.2415 O   0  0  0  0  0  0  0  0  0  0  0  0 
   -3.4906   -0.6269   -0.2900 O   0  0  0  0  0  0  0  0  0  0  0  0 
    0.9673   -2.1360   -0.6786 O   0  0  0  0  0  0  0  0  0  0  0  0 
   -1.9322    2.9019    0.5024 H   0  0  0  0  0  0  0  0  0  0  0  0 
   -0.6853    3.0227    1.5829 H   0  0  0  0  0  0  0  0  0  0  0  0 
    1.1907    3.0507    0.2964 H   0  0  0  0  0  0  0  0  0  0  0  0 
   -2.7848   -1.2915   -0.4611 H   0  0  0  0  0  0  0  0  0  0  0  0 
    0.2183   -2.7383   -0.8267 H   0  0  0  0  0  0  0  0  0  0  0  0 
  1  6  1  0  0  0  0 
  2  4  1  0  0  0  0 
  2  1  2  0  0  0  0 
  3  1  1  0  0  0  0 
  3  9  1  0  0  0  0 
  4 10  2  0  0  0  0 
  5  7  2  0  0  0  0 
  5  8  2  0  0  0  0 
  6 14  1  0  0  0  0 
  7  2  1  0  0  0  0 
  8  3  2  0  0  0  0 
  9 15  1  0  0  0  0 
 11  4  1  0  0  0  0 
 12  5  1  0  0  0  0 
 13  6  1  0  0  0  0 
 16 11  1  0  0  0  0 
 17 12  1  0  0  0  0 
M  END 
>  <HBA> 
5 
 
>  <HBD> 
4 
 
>  <TPSA> 
129.04 
 
>  <cid> 
73018 
 
>  <dipole> 
0.97 
 
>  <excitation_energy_1> 
3.873 
 
>  <excitation_energy_2> 
4.317 
 
>  <excitation_energy_3> 
4.851 
 
>  <excitation_energy_4> 
5.404 
 
>  <homo_energy> 
-6.651 
 
>  <homo_lumo_gap> 
4.509 
 
>  <logP> 
-1.075 
 
>  <lumo_energy> 
-2.142 
 
>  <melting_point> 
310.24 
 
>  <molecular_refractivity> 
39.05 
 
>  <oscillator_strength_1> 
0.0678 
 
>  <oscillator_strength_2> 
0.0508 
 
>  <oscillator_strength_3> 
0.0017 
 
>  <oscillator_strength_4> 
0.0385 
 
>  <open_babel_can_smiles> 
OC(=O)C1=C(N)C(=[N]=[C](=N1)O)O 
 
>  <mulliken_charges> 
17 
1   0.184751 
2   0.231215 
3   0.523699 
4   0.610214 
5   0.637266 
6   -0.841536 
7   -0.634995 
8   -0.475338 
9   -0.588009 
10   -0.480709 
11   -0.574837 
12   -0.57759 
13   0.372314 
14   0.333857 
15   0.430841 
16   0.430409 
17   0.418447 
 
>  <lowdin_charges> 
17 
1   -0.020907 
2   -0.005932 
3   0.148237 
4   0.192453 
5   0.164896 
6   -0.504957 
7   -0.243504 
8   -0.157681 
9   -0.324837 
10   -0.259886 
11   -0.331608 
12   -0.330611 
13   0.295344 
14   0.279947 
15   0.367825 
16   0.364011 
17   0.367212 
 
$$$$ 
 
