PCCDB-ID:  49663 
public computational chemistry database (PCCDB) project, http://pccdb.org 
 
 24 24  0  0  1  0  0  0  0  0999 V2000 
    0.8087    0.1169    0.2020 C   0  0  0  0  0  0  0  0  0  0  0  0 
    3.2018   -3.0931   -3.6470 C   0  0  0  0  0  0  0  0  0  0  0  0 
    3.0102   -3.9768   -2.4353 C   0  0  0  0  0  0  0  0  0  0  0  0 
    2.8132   -1.8374   -3.4145 C   0  0  0  0  0  0  0  0  0  0  0  0 
    2.7512   -2.9524   -1.2996 C   0  0  0  0  0  0  0  0  0  0  0  0 
    2.8104   -0.3507   -1.3298 C   0  0  0  0  0  0  0  0  0  0  0  0 
    2.3233   -0.0927    0.1139 C   0  0  1  0  0  0  0  0  0  0  0  0 
    2.2988   -1.6388   -2.0012 C   0  0  1  0  0  0  0  0  0  0  0  0 
    2.9854    1.0599    0.7511 N   0  0  0  0  0  0  0  0  0  0  0  0 
    0.2537   -0.7641   -0.1366 H   0  0  0  0  0  0  0  0  0  0  0  0 
    0.4959    0.9668   -0.4203 H   0  0  0  0  0  0  0  0  0  0  0  0 
    0.5216    0.3321    1.2356 H   0  0  0  0  0  0  0  0  0  0  0  0 
    3.5719   -3.4686   -4.5976 H   0  0  0  0  0  0  0  0  0  0  0  0 
    3.8747   -4.6209   -2.2294 H   0  0  0  0  0  0  0  0  0  0  0  0 
    2.1521   -4.6509   -2.5806 H   0  0  0  0  0  0  0  0  0  0  0  0 
    2.8205   -1.0329   -4.1464 H   0  0  0  0  0  0  0  0  0  0  0  0 
    3.6917   -2.7616   -0.7666 H   0  0  0  0  0  0  0  0  0  0  0  0 
    2.0290   -3.3126   -0.5600 H   0  0  0  0  0  0  0  0  0  0  0  0 
    3.9107   -0.3810   -1.3241 H   0  0  0  0  0  0  0  0  0  0  0  0 
    2.5302    0.5169   -1.9482 H   0  0  0  0  0  0  0  0  0  0  0  0 
    2.5817   -0.9671    0.7276 H   0  0  0  0  0  0  0  0  0  0  0  0 
    1.1980   -1.5934   -2.0354 H   0  0  0  0  0  0  0  0  0  0  0  0 
    2.7840    1.9000    0.2057 H   0  0  0  0  0  0  0  0  0  0  0  0 
    3.9975    0.9394    0.7001 H   0  0  0  0  0  0  0  0  0  0  0  0 
  1 12  1  0  0  0  0 
  2  4  2  0  0  0  0 
  2  3  1  0  0  0  0 
  3 14  1  0  0  0  0 
  3  5  1  0  0  0  0 
  4  8  1  0  0  0  0 
  5 17  1  0  0  0  0 
  5 18  1  0  0  0  0 
  6 19  1  0  0  0  0 
  6  7  1  0  0  0  0 
  7  1  1  0  0  0  0 
  7 21  1  1  0  0  0 
  7  9  1  0  0  0  0 
  8 22  1  6  0  0  0 
  8  6  1  0  0  0  0 
  8  5  1  0  0  0  0 
 10  1  1  0  0  0  0 
 11  1  1  0  0  0  0 
 13  2  1  0  0  0  0 
 15  3  1  0  0  0  0 
 16  4  1  0  0  0  0 
 20  6  1  0  0  0  0 
 23  9  1  0  0  0  0 
 24  9  1  0  0  0  0 
M  END 
>  <HBA> 
1 
 
>  <HBD> 
1 
 
>  <TPSA> 
26.02 
 
>  <cid> 
49663 
 
>  <dipole> 
1.26 
 
>  <excitation_energy_1> 
5.58 
 
>  <excitation_energy_2> 
5.928 
 
>  <excitation_energy_3> 
6.178 
 
>  <excitation_energy_4> 
6.221 
 
>  <homo_energy> 
-6.09 
 
>  <homo_lumo_gap> 
6.868 
 
>  <logP> 
2.39 
 
>  <lumo_energy> 
0.778 
 
>  <melting_point> 
58.73 
 
>  <molecular_refractivity> 
40.69 
 
>  <oscillator_strength_1> 
0.0365 
 
>  <oscillator_strength_2> 
0.0049 
 
>  <oscillator_strength_3> 
0.0551 
 
>  <oscillator_strength_4> 
0.018 
 
>  <open_babel_can_smiles> 
C[C@@H](C[C@@H]1CCC=C1)N 
 
>  <mulliken_charges> 
24 
1   -0.443241 
2   -0.117703 
3   -0.304335 
4   -0.100379 
5   -0.288147 
6   -0.268646 
7   0.02457 
8   -0.114733 
9   -0.706154 
10   0.144458 
11   0.131434 
12   0.161061 
13   0.12355 
14   0.139873 
15   0.143716 
16   0.119868 
17   0.138988 
18   0.136132 
19   0.120618 
20   0.115771 
21   0.134658 
22   0.133961 
23   0.284887 
24   0.289791 
 
>  <lowdin_charges> 
24 
1   -0.450343 
2   -0.171914 
3   -0.27781 
4   -0.175314 
5   -0.279527 
6   -0.292167 
7   -0.066485 
8   -0.125583 
9   -0.548246 
10   0.150553 
11   0.143214 
12   0.159299 
13   0.152865 
14   0.146992 
15   0.14717 
16   0.152497 
17   0.144303 
18   0.146372 
19   0.133836 
20   0.135395 
21   0.139698 
22   0.139407 
23   0.24809 
24   0.247702 
 
$$$$ 
 
