PCCDB-ID:  33415 
public computational chemistry database (PCCDB) project, http://pccdb.org 
 
 34 34  0  0  1  0  0  0  0  0999 V2000 
    0.9217    0.1163    0.0531 C   0  0  0  0  0  0  0  0  0  0  0  0 
    8.2167   -2.4368   -0.9923 C   0  0  0  0  0  0  0  0  0  0  0  0 
    7.4389    3.7280    3.1383 C   0  0  0  0  0  0  0  0  0  0  0  0 
    7.5799    4.7355    0.8009 C   0  0  0  0  0  0  0  0  0  0  0  0 
    2.4483    0.0615    0.0467 C   0  0  0  0  0  0  0  0  0  0  0  0 
    7.0115   -1.5667   -0.6403 C   0  0  0  0  0  0  0  0  0  0  0  0 
    6.6880    4.0040    1.8214 C   0  0  0  0  0  0  0  0  0  0  0  0 
    6.0907    2.7338    1.2473 C   0  0  2  0  0  0  0  0  0  0  0  0 
    4.2682    1.4283    0.6612 C   0  0  0  0  0  0  0  0  0  0  0  0 
    6.5692    0.5485    0.2874 C   0  0  0  0  0  0  0  0  0  0  0  0 
    2.9998    1.2893    0.5949 N   0  0  0  0  0  0  0  0  0  0  0  0 
    7.4520   -0.2979   -0.0781 N   0  0  0  0  0  0  0  0  0  0  0  0 
    4.8067    2.6046    1.1838 N   0  0  0  0  0  0  0  0  0  0  0  0 
    6.9762    1.7683    0.8281 N   0  0  0  0  0  0  0  0  0  0  0  0 
    5.1903    0.4409    0.2266 N   0  0  0  0  0  0  0  0  0  0  0  0 
    0.4921   -0.8051   -0.3571 H   0  0  0  0  0  0  0  0  0  0  0  0 
    0.5699    0.9631   -0.5448 H   0  0  0  0  0  0  0  0  0  0  0  0 
    0.5514    0.2507    1.0744 H   0  0  0  0  0  0  0  0  0  0  0  0 
    7.8976   -3.3936   -1.4208 H   0  0  0  0  0  0  0  0  0  0  0  0 
    8.8162   -2.6379   -0.0985 H   0  0  0  0  0  0  0  0  0  0  0  0 
    8.8566   -1.9255   -1.7188 H   0  0  0  0  0  0  0  0  0  0  0  0 
    7.7806    4.6708    3.5791 H   0  0  0  0  0  0  0  0  0  0  0  0 
    8.3238    3.0987    2.9818 H   0  0  0  0  0  0  0  0  0  0  0  0 
    6.7916    3.2270    3.8654 H   0  0  0  0  0  0  0  0  0  0  0  0 
    7.9065    5.6966    1.2125 H   0  0  0  0  0  0  0  0  0  0  0  0 
    7.0403    4.9313   -0.1316 H   0  0  0  0  0  0  0  0  0  0  0  0 
    8.4837    4.1635    0.5553 H   0  0  0  0  0  0  0  0  0  0  0  0 
    2.7975   -0.1055   -0.9897 H   0  0  0  0  0  0  0  0  0  0  0  0 
    2.7791   -0.8187    0.6293 H   0  0  0  0  0  0  0  0  0  0  0  0 
    6.3675   -2.1153    0.0706 H   0  0  0  0  0  0  0  0  0  0  0  0 
    6.4049   -1.4080   -1.5500 H   0  0  0  0  0  0  0  0  0  0  0  0 
    5.8209    4.6336    2.0413 H   0  0  0  0  0  0  0  0  0  0  0  0 
    7.9772    1.8957    0.8881 H   0  0  0  0  0  0  0  0  0  0  0  0 
    4.8184   -0.4157   -0.1563 H   0  0  0  0  0  0  0  0  0  0  0  0 
  1 18  1  0  0  0  0 
  2  6  1  0  0  0  0 
  2 20  1  0  0  0  0 
  3 22  1  0  0  0  0 
  3 24  1  0  0  0  0 
  4 25  1  0  0  0  0 
  4  7  1  0  0  0  0 
  5  1  1  0  0  0  0 
  5 11  1  0  0  0  0 
  5 29  1  0  0  0  0 
  6 12  1  0  0  0  0 
  6 30  1  0  0  0  0 
  7 32  1  0  0  0  0 
  7  3  1  0  0  0  0 
  8  7  1  1  0  0  0 
  9 13  2  0  0  0  0 
 10 14  1  0  0  0  0 
 11  9  1  0  0  0  0 
 12 10  2  0  0  0  0 
 13  8  1  0  0  0  0 
 14 33  1  0  0  0  0 
 14  8  1  0  0  0  0 
 15 10  1  0  0  0  0 
 15  9  1  0  0  0  0 
 16  1  1  0  0  0  0 
 17  1  1  0  0  0  0 
 19  2  1  0  0  0  0 
 21  2  1  0  0  0  0 
 23  3  1  0  0  0  0 
 26  4  1  0  0  0  0 
 27  4  1  0  0  0  0 
 28  5  1  0  0  0  0 
 31  6  1  0  0  0  0 
 34 15  1  0  0  0  0 
M  RAD  2   8   2  11   2 
M  END 
>  <HBA> 
5 
 
>  <HBD> 
2 
 
>  <TPSA> 
62.73 
 
>  <cid> 
33415 
 
>  <dipole> 
2.75 
 
>  <excitation_energy_1> 
4.917 
 
>  <excitation_energy_2> 
4.947 
 
>  <excitation_energy_3> 
5.154 
 
>  <excitation_energy_4> 
5.398 
 
>  <homo_energy> 
-6.109 
 
>  <homo_lumo_gap> 
5.578 
 
>  <logP> 
2.005 
 
>  <lumo_energy> 
-0.531 
 
>  <melting_point> 
122.13 
 
>  <molecular_refractivity> 
62.63 
 
>  <oscillator_strength_1> 
0.0003 
 
>  <oscillator_strength_2> 
0.1139 
 
>  <oscillator_strength_3> 
0.0692 
 
>  <oscillator_strength_4> 
0.0006 
 
>  <open_babel_can_smiles> 
CC[N]C1=N[C](N/C(=N/CC)/N1)C(C)C 
 
>  <mulliken_charges> 
34 
1   -0.431585 
2   -0.434175 
3   -0.451682 
4   -0.453906 
5   -0.159334 
6   -0.152419 
7   -0.162655 
8   0.534661 
9   0.651423 
10   0.761208 
11   -0.45472 
12   -0.505662 
13   -0.506424 
14   -0.688424 
15   -0.746019 
16   0.129605 
17   0.156214 
18   0.15632 
19   0.135393 
20   0.153404 
21   0.153643 
22   0.157966 
23   0.138514 
24   0.168601 
25   0.15899 
26   0.167393 
27   0.137179 
28   0.124455 
29   0.12511 
30   0.128693 
31   0.129607 
32   0.177631 
33   0.347695 
34   0.353297 
 
>  <lowdin_charges> 
34 
1   -0.443335 
2   -0.444232 
3   -0.443587 
4   -0.443318 
5   -0.207261 
6   -0.202789 
7   -0.130028 
8   0.113244 
9   0.117121 
10   0.136838 
11   -0.218213 
12   -0.272734 
13   -0.196675 
14   -0.223176 
15   -0.271233 
16   0.144359 
17   0.156843 
18   0.15535 
19   0.147168 
20   0.154777 
21   0.155752 
22   0.158295 
23   0.145124 
24   0.163307 
25   0.158776 
26   0.161371 
27   0.144298 
28   0.125822 
29   0.127891 
30   0.130326 
31   0.129674 
32   0.172615 
33   0.299783 
34   0.297849 
 
$$$$ 
 
