PCCDB-ID:  13566 
public computational chemistry database (PCCDB) project, http://pccdb.org 
 
 11 10  0  0  0  0  0  0  0  0999 V2000 
    0.9967    0.0055    0.0908 C   0  0  0  0  0  0  0  0  0  0  0  0 
    2.2040    0.0180    0.1189 C   0  0  0  0  0  0  0  0  0  0  0  0 
    3.6656    0.0395    0.1061 C   0  0  0  0  0  0  0  0  0  0  0  0 
    4.2380    0.4354   -1.2710 C   0  0  0  0  0  0  0  0  0  0  0  0 
    5.6563    0.4097   -1.2831 O   0  0  0  0  0  0  0  0  0  0  0  0 
   -0.0692   -0.0052    0.0661 H   0  0  0  0  0  0  0  0  0  0  0  0 
    4.0664   -0.9452    0.3787 H   0  0  0  0  0  0  0  0  0  0  0  0 
    4.0334    0.7467    0.8645 H   0  0  0  0  0  0  0  0  0  0  0  0 
    3.8428    1.4186   -1.5671 H   0  0  0  0  0  0  0  0  0  0  0  0 
    3.9147   -0.2888   -2.0237 H   0  0  0  0  0  0  0  0  0  0  0  0 
    5.9712    1.1363   -0.7232 H   0  0  0  0  0  0  0  0  0  0  0  0 
  1  2  3  0  0  0  0 
  3  2  1  0  0  0  0 
  3  7  1  0  0  0  0 
  3  8  1  0  0  0  0 
  4  3  1  0  0  0  0 
  5  4  1  0  0  0  0 
  5 11  1  0  0  0  0 
  6  1  1  0  0  0  0 
  9  4  1  0  0  0  0 
 10  4  1  0  0  0  0 
M  END 
>  <HBA> 
1 
 
>  <HBD> 
1 
 
>  <TPSA> 
20.23 
 
>  <cid> 
13566 
 
>  <dipole> 
1.38 
 
>  <excitation_energy_1> 
6.358 
 
>  <excitation_energy_2> 
6.49 
 
>  <excitation_energy_3> 
6.646 
 
>  <excitation_energy_4> 
6.727 
 
>  <homo_energy> 
-7.04 
 
>  <homo_lumo_gap> 
8.436 
 
>  <logP> 
0.002 
 
>  <lumo_energy> 
1.396 
 
>  <melting_point> 
10.73 
 
>  <molecular_refractivity> 
20.67 
 
>  <oscillator_strength_1> 
0.0033 
 
>  <oscillator_strength_2> 
0.0016 
 
>  <oscillator_strength_3> 
0.0028 
 
>  <oscillator_strength_4> 
0.0049 
 
>  <open_babel_can_smiles> 
OCCC#C 
 
>  <mulliken_charges> 
11 
1   -0.495514 
2   0.331971 
3   -0.419596 
4   -0.03122 
5   -0.605799 
6   0.187794 
7   0.184032 
8   0.158253 
9   0.136326 
10   0.163346 
11   0.390406 
 
>  <lowdin_charges> 
11 
1   -0.256485 
2   -0.043401 
3   -0.280031 
4   -0.129842 
5   -0.462725 
6   0.202663 
7   0.173559 
8   0.161434 
9   0.134311 
10   0.156646 
11   0.343873 
 
$$$$ 
 
