PCCDB-ID:  12034 
public computational chemistry database (PCCDB) project, http://pccdb.org 
 
 26 25  0  0  0  0  0  0  0  0999 V2000 
    0.8197   -0.1662   -0.9937 C   0  0  0  0  0  0  0  0  0  0  0  0 
    2.3440   -0.1438   -0.8432 C   0  0  0  0  0  0  0  0  0  0  0  0 
    2.9014    1.2575   -0.5622 C   0  0  0  0  0  0  0  0  0  0  0  0 
    4.4278    1.2823   -0.4061 C   0  0  0  0  0  0  0  0  0  0  0  0 
    4.9617    2.6900   -0.1116 C   0  0  0  0  0  0  0  0  0  0  0  0 
    6.5081    2.7780    0.0918 C   0  0  0  0  0  0  0  0  0  0  0  0 
    6.8954    1.9857    1.3583 C   0  0  0  0  0  0  0  0  0  0  0  0 
    7.2256    2.3803   -1.1780 C   0  0  0  0  0  0  0  0  0  0  0  0 
    6.6215    2.4288    2.4483 O   0  0  0  0  0  0  0  0  0  0  0  0 
    7.4740    0.7876    1.2003 O   0  0  0  0  0  0  0  0  0  0  0  0 
    7.7396    1.2935   -1.4015 O   0  0  0  0  0  0  0  0  0  0  0  0 
    7.2148    3.3589   -2.0973 O   0  0  0  0  0  0  0  0  0  0  0  0 
    0.4534   -1.1799   -1.1911 H   0  0  0  0  0  0  0  0  0  0  0  0 
    0.4925    0.4734   -1.8227 H   0  0  0  0  0  0  0  0  0  0  0  0 
    0.3261    0.1946   -0.0831 H   0  0  0  0  0  0  0  0  0  0  0  0 
    2.8087   -0.5426   -1.7563 H   0  0  0  0  0  0  0  0  0  0  0  0 
    2.6423   -0.8202   -0.0301 H   0  0  0  0  0  0  0  0  0  0  0  0 
    2.4369    1.6564    0.3513 H   0  0  0  0  0  0  0  0  0  0  0  0 
    2.6057    1.9367   -1.3758 H   0  0  0  0  0  0  0  0  0  0  0  0 
    4.8907    0.8867   -1.3215 H   0  0  0  0  0  0  0  0  0  0  0  0 
    4.7196    0.5991    0.4029 H   0  0  0  0  0  0  0  0  0  0  0  0 
    4.5134    3.0761    0.8102 H   0  0  0  0  0  0  0  0  0  0  0  0 
    4.6858    3.3764   -0.9210 H   0  0  0  0  0  0  0  0  0  0  0  0 
    6.7455    3.8253    0.2998 H   0  0  0  0  0  0  0  0  0  0  0  0 
    7.6592    0.6393    0.2424 H   0  0  0  0  0  0  0  0  0  0  0  0 
    7.6683    3.0102   -2.8893 H   0  0  0  0  0  0  0  0  0  0  0  0 
  1  2  1  0  0  0  0 
  1 15  1  0  0  0  0 
  2  3  1  0  0  0  0 
  2 17  1  0  0  0  0 
  3  4  1  0  0  0  0 
  3 18  1  0  0  0  0 
  4  5  1  0  0  0  0 
  4 21  1  0  0  0  0 
  5  6  1  0  0  0  0 
  5 22  1  0  0  0  0 
  6 24  1  0  0  0  0 
  6  7  1  0  0  0  0 
  7  9  2  0  0  0  0 
  8  6  1  0  0  0  0 
 10  7  1  0  0  0  0 
 11  8  2  0  0  0  0 
 12  8  1  0  0  0  0 
 13  1  1  0  0  0  0 
 14  1  1  0  0  0  0 
 16  2  1  0  0  0  0 
 19  3  1  0  0  0  0 
 20  4  1  0  0  0  0 
 23  5  1  0  0  0  0 
 25 10  1  0  0  0  0 
 26 12  1  0  0  0  0 
M  END 
>  <HBA> 
4 
 
>  <HBD> 
2 
 
>  <TPSA> 
74.6 
 
>  <cid> 
12034 
 
>  <dipole> 
4.94 
 
>  <excitation_energy_1> 
5.553 
 
>  <excitation_energy_2> 
5.797 
 
>  <excitation_energy_3> 
5.905 
 
>  <excitation_energy_4> 
6.616 
 
>  <homo_energy> 
-7.306 
 
>  <homo_lumo_gap> 
6.52 
 
>  <logP> 
1.352 
 
>  <lumo_energy> 
-0.786 
 
>  <melting_point> 
126.43 
 
>  <molecular_refractivity> 
44.11 
 
>  <oscillator_strength_1> 
0.0053 
 
>  <oscillator_strength_2> 
0.0059 
 
>  <oscillator_strength_3> 
0.0019 
 
>  <oscillator_strength_4> 
0.0113 
 
>  <open_babel_can_smiles> 
CCCCCC(C(=O)O)C(=O)O 
 
>  <mulliken_charges> 
26 
1   -0.442661 
2   -0.249899 
3   -0.248888 
4   -0.283205 
5   -0.277889 
6   -0.292931 
7   0.611735 
8   0.611809 
9   -0.459049 
10   -0.585476 
11   -0.496549 
12   -0.5521 
13   0.145176 
14   0.14135 
15   0.144654 
16   0.131632 
17   0.137999 
18   0.137017 
19   0.128607 
20   0.138668 
21   0.158057 
22   0.180083 
23   0.157609 
24   0.199885 
25   0.443004 
26   0.421363 
 
>  <lowdin_charges> 
26 
1   -0.444899 
2   -0.272952 
3   -0.274154 
4   -0.287416 
5   -0.261389 
6   -0.194271 
7   0.190372 
8   0.206389 
9   -0.252044 
10   -0.351462 
11   -0.282146 
12   -0.328764 
13   0.150626 
14   0.147097 
15   0.148434 
16   0.13991 
17   0.143515 
18   0.142829 
19   0.138859 
20   0.142504 
21   0.153091 
22   0.167646 
23   0.154557 
24   0.190274 
25   0.362645 
26   0.37075 
 
$$$$ 
 
