PCCDB-ID:  18802 
public computational chemistry database (PCCDB) project, http://pccdb.org 
 
 24 24  0  0  1  0  0  0  0  0999 V2000 
    4.2939    0.7008   -4.1205 C   0  0  0  0  0  0  0  0  0  0  0  0 
   -0.1152   -2.4135   -5.0859 C   0  0  0  0  0  0  0  0  0  0  0  0 
    2.9643    0.0567   -2.0151 C   0  0  0  0  0  0  0  0  0  0  0  0 
    0.9469   -0.7694   -3.3956 C   0  0  0  0  0  0  0  0  0  0  0  0 
    4.3315    0.4807   -2.6039 C   0  0  1  0  0  0  0  0  0  0  0  0 
    0.5356   -2.2184   -3.7300 C   0  0  2  0  0  0  0  0  0  0  0  0 
    2.7180   -2.2275   -3.0045 C   0  0  0  0  0  0  0  0  0  0  0  0 
    2.2285   -0.9800   -2.7430 N   0  0  0  0  0  0  0  0  0  0  0  0 
    5.3732   -0.3959   -2.2210 O   0  0  0  0  0  0  0  0  0  0  0  0 
    3.8155   -2.6753   -2.7219 O   0  0  0  0  0  0  0  0  0  0  0  0 
    1.7806   -2.9567   -3.6754 O   0  0  0  0  0  0  0  0  0  0  0  0 
    3.5245    1.4291   -4.4087 H   0  0  0  0  0  0  0  0  0  0  0  0 
    4.0969   -0.2388   -4.6485 H   0  0  0  0  0  0  0  0  0  0  0  0 
    5.2656    1.0741   -4.4565 H   0  0  0  0  0  0  0  0  0  0  0  0 
   -1.0646   -1.8674   -5.1305 H   0  0  0  0  0  0  0  0  0  0  0  0 
   -0.3191   -3.4731   -5.2658 H   0  0  0  0  0  0  0  0  0  0  0  0 
    0.5385   -2.0454   -5.8834 H   0  0  0  0  0  0  0  0  0  0  0  0 
    2.2999    0.9257   -1.9770 H   0  0  0  0  0  0  0  0  0  0  0  0 
    3.1345   -0.2768   -0.9844 H   0  0  0  0  0  0  0  0  0  0  0  0 
    0.2271   -0.2826   -2.7284 H   0  0  0  0  0  0  0  0  0  0  0  0 
    1.0495   -0.1523   -4.3013 H   0  0  0  0  0  0  0  0  0  0  0  0 
    4.5720    1.4374   -2.1199 H   0  0  0  0  0  0  0  0  0  0  0  0 
   -0.1067   -2.6187   -2.9353 H   0  0  0  0  0  0  0  0  0  0  0  0 
    5.0697   -1.3061   -2.4157 H   0  0  0  0  0  0  0  0  0  0  0  0 
  1  5  1  0  0  0  0 
  2  6  1  0  0  0  0 
  3 18  1  0  0  0  0 
  3 19  1  0  0  0  0 
  4  8  1  0  0  0  0 
  4 20  1  0  0  0  0 
  5  9  1  0  0  0  0 
  5 22  1  1  0  0  0 
  5  3  1  0  0  0  0 
  6 11  1  0  0  0  0 
  6  4  1  0  0  0  0 
  6 23  1  1  0  0  0 
  7  8  1  0  0  0  0 
  7 10  2  0  0  0  0 
  8  3  1  0  0  0  0 
 11  7  1  0  0  0  0 
 12  1  1  0  0  0  0 
 13  1  1  0  0  0  0 
 14  1  1  0  0  0  0 
 15  2  1  0  0  0  0 
 16  2  1  0  0  0  0 
 17  2  1  0  0  0  0 
 21  4  1  0  0  0  0 
 24  9  1  0  0  0  0 
M  END 
>  <HBA> 
4 
 
>  <HBD> 
1 
 
>  <TPSA> 
49.77 
 
>  <cid> 
18802 
 
>  <dipole> 
6.36 
 
>  <excitation_energy_1> 
5.886 
 
>  <excitation_energy_2> 
6.257 
 
>  <excitation_energy_3> 
6.356 
 
>  <excitation_energy_4> 
6.457 
 
>  <homo_energy> 
-6.626 
 
>  <homo_lumo_gap> 
7.652 
 
>  <logP> 
0.146 
 
>  <lumo_energy> 
1.026 
 
>  <melting_point> 
39.38 
 
>  <molecular_refractivity> 
43.3 
 
>  <oscillator_strength_1> 
0.0188 
 
>  <oscillator_strength_2> 
0.0052 
 
>  <oscillator_strength_3> 
0.0054 
 
>  <oscillator_strength_4> 
0.0289 
 
>  <open_babel_can_smiles> 
C[C@@H](CN1C[C@H](OC1=O)C)O 
 
>  <mulliken_charges> 
24 
1   -0.455177 
2   -0.463167 
3   -0.166342 
4   -0.141295 
5   0.147799 
6   0.125075 
7   0.795571 
8   -0.462759 
9   -0.652223 
10   -0.531522 
11   -0.481648 
12   0.123604 
13   0.148568 
14   0.164759 
15   0.154324 
16   0.175962 
17   0.164933 
18   0.145477 
19   0.176646 
20   0.161839 
21   0.158147 
22   0.130109 
23   0.156287 
24   0.425031 
 
>  <lowdin_charges> 
24 
1   -0.464245 
2   -0.447606 
3   -0.211785 
4   -0.203753 
5   -0.0039 
6   0.011512 
7   0.207869 
8   -0.121928 
9   -0.479205 
10   -0.29772 
11   -0.19653 
12   0.143004 
13   0.151978 
14   0.163262 
15   0.160351 
16   0.16781 
17   0.162461 
18   0.156708 
19   0.162801 
20   0.156613 
21   0.145416 
22   0.141741 
23   0.149234 
24   0.345912 
 
$$$$ 
 
