PCCDB-ID:  34088 
public computational chemistry database (PCCDB) project, http://pccdb.org 
 
 20 20  0  0  0  0  0  0  0  0999 V2000 
    3.7731    0.6252    0.8277 C   0  0  0  0  0  0  0  0  0  0  0  0 
    3.5641    0.4961   -2.8276 C   0  0  0  0  0  0  0  0  0  0  0  0 
    2.5748    0.0964    0.0165 C   0  0  0  0  0  0  0  0  0  0  0  0 
    2.8430   -2.3753   -0.4233 C   0  0  0  0  0  0  0  0  0  0  0  0 
    3.2166   -3.4356   -1.2463 C   0  0  0  0  0  0  0  0  0  0  0  0 
    3.7680   -2.0127   -2.9330 C   0  0  0  0  0  0  0  0  0  0  0  0 
    3.4258   -0.8699   -2.1988 C   0  0  0  0  0  0  0  0  0  0  0  0 
    2.9442   -1.0600   -0.8884 C   0  0  0  0  0  0  0  0  0  0  0  0 
    3.6766   -3.2715   -2.4915 N   0  0  0  0  0  0  0  0  0  0  0  0 
    3.4676    1.4565    1.4728 H   0  0  0  0  0  0  0  0  0  0  0  0 
    4.5750    0.9825    0.1724 H   0  0  0  0  0  0  0  0  0  0  0  0 
    4.1918   -0.1631    1.4627 H   0  0  0  0  0  0  0  0  0  0  0  0 
    3.9902    0.4180   -3.8328 H   0  0  0  0  0  0  0  0  0  0  0  0 
    4.2149    1.1569   -2.2428 H   0  0  0  0  0  0  0  0  0  0  0  0 
    2.5944    1.0020   -2.9195 H   0  0  0  0  0  0  0  0  0  0  0  0 
    2.1454    0.9155   -0.5722 H   0  0  0  0  0  0  0  0  0  0  0  0 
    1.7918   -0.2302    0.7117 H   0  0  0  0  0  0  0  0  0  0  0  0 
    2.4695   -2.5727    0.5790 H   0  0  0  0  0  0  0  0  0  0  0  0 
    3.1396   -4.4626   -0.8918 H   0  0  0  0  0  0  0  0  0  0  0  0 
    4.1413   -1.8955   -3.9509 H   0  0  0  0  0  0  0  0  0  0  0  0 
  1 12  1  0  0  0  0 
  1 10  1  0  0  0  0 
  2 14  1  0  0  0  0 
  2  7  1  0  0  0  0 
  3 17  1  0  0  0  0 
  3  1  1  0  0  0  0 
  4 18  1  0  0  0  0 
  5 19  1  0  0  0  0 
  5  4  2  0  0  0  0 
  6  9  2  0  0  0  0 
  6  7  1  0  0  0  0 
  7  8  2  0  0  0  0 
  8  4  1  0  0  0  0 
  8  3  1  0  0  0  0 
  9  5  1  0  0  0  0 
 11  1  1  0  0  0  0 
 13  2  1  0  0  0  0 
 15  2  1  0  0  0  0 
 16  3  1  0  0  0  0 
 20  6  1  0  0  0  0 
M  END 
>  <HBA> 
1 
 
>  <HBD> 
0 
 
>  <TPSA> 
12.89 
 
>  <cid> 
34088 
 
>  <dipole> 
2.84 
 
>  <excitation_energy_1> 
4.883 
 
>  <excitation_energy_2> 
5.21 
 
>  <excitation_energy_3> 
5.321 
 
>  <excitation_energy_4> 
6.003 
 
>  <homo_energy> 
-6.683 
 
>  <homo_lumo_gap> 
6.226 
 
>  <logP> 
1.952 
 
>  <lumo_energy> 
-0.457 
 
>  <melting_point> 
26.83 
 
>  <molecular_refractivity> 
38.98 
 
>  <oscillator_strength_1> 
0.0049 
 
>  <oscillator_strength_2> 
0.0 
 
>  <oscillator_strength_3> 
0.0379 
 
>  <oscillator_strength_4> 
0.0127 
 
>  <open_babel_can_smiles> 
CCc1ccncc1C 
 
>  <mulliken_charges> 
20 
1   -0.44072 
2   -0.544336 
3   -0.337964 
4   -0.190555 
5   0.037993 
6   -0.015234 
7   0.120036 
8   0.144387 
9   -0.411034 
10   0.149303 
11   0.153696 
12   0.154518 
13   0.161864 
14   0.164096 
15   0.165285 
16   0.147411 
17   0.148225 
18   0.126166 
19   0.136262 
20   0.130601 
 
>  <lowdin_charges> 
20 
1   -0.441986 
2   -0.44366 
3   -0.275338 
4   -0.184562 
5   -0.094832 
6   -0.102576 
7   -0.02822 
8   0.013332 
9   -0.152135 
10   0.153371 
11   0.152057 
12   0.154388 
13   0.160339 
14   0.161117 
15   0.160642 
16   0.153382 
17   0.153528 
18   0.157687 
19   0.153465 
20   0.150002 
 
$$$$ 
 
