PCCDB-ID:  20140 
public computational chemistry database (PCCDB) project, http://pccdb.org 
 
 27 26  0  0  1  0  0  0  0  0999 V2000 
    0.9038    2.2110   -1.9339 C   0  0  0  0  0  0  0  0  0  0  0  0 
    7.3009    2.3885   -1.1111 C   0  0  0  0  0  0  0  0  0  0  0  0 
    3.2733    4.0766   -2.6950 C   0  0  0  0  0  0  0  0  0  0  0  0 
    2.1919    2.3832   -1.1203 C   0  0  0  0  0  0  0  0  0  0  0  0 
    6.0315    2.6462   -1.9308 C   0  0  0  0  0  0  0  0  0  0  0  0 
    3.4399    2.7364   -1.9576 C   0  0  2  0  0  0  0  0  0  0  0  0 
    4.7363    2.6489   -1.0867 C   0  0  2  0  0  0  0  0  0  0  0  0 
    4.7629    3.6883    0.0368 C   0  0  0  0  0  0  0  0  0  0  0  0 
    4.4577    3.5117    1.2575 N   0  0  0  0  0  0  0  0  0  0  0  0 
    5.1378    4.9540   -0.3182 O   0  0  0  0  0  0  0  0  0  0  0  0 
    0.0853    1.8692   -1.2907 H   0  0  0  0  0  0  0  0  0  0  0  0 
    1.0318    1.4672   -2.7306 H   0  0  0  0  0  0  0  0  0  0  0  0 
    0.5804    3.1477   -2.4002 H   0  0  0  0  0  0  0  0  0  0  0  0 
    8.1840    2.3570   -1.7584 H   0  0  0  0  0  0  0  0  0  0  0  0 
    7.2398    1.4299   -0.5823 H   0  0  0  0  0  0  0  0  0  0  0  0 
    7.4606    3.1717   -0.3621 H   0  0  0  0  0  0  0  0  0  0  0  0 
    2.4293    4.0349   -3.3900 H   0  0  0  0  0  0  0  0  0  0  0  0 
    4.1566    4.3298   -3.2940 H   0  0  0  0  0  0  0  0  0  0  0  0 
    3.0845    4.8989   -1.9953 H   0  0  0  0  0  0  0  0  0  0  0  0 
    2.3926    1.4455   -0.5827 H   0  0  0  0  0  0  0  0  0  0  0  0 
    2.0427    3.1495   -0.3484 H   0  0  0  0  0  0  0  0  0  0  0  0 
    5.9252    1.8721   -2.7018 H   0  0  0  0  0  0  0  0  0  0  0  0 
    6.1463    3.5888   -2.4865 H   0  0  0  0  0  0  0  0  0  0  0  0 
    3.5540    1.9511   -2.7209 H   0  0  0  0  0  0  0  0  0  0  0  0 
    4.6973    1.6741   -0.5823 H   0  0  0  0  0  0  0  0  0  0  0  0 
    4.1999    2.5356    1.4082 H   0  0  0  0  0  0  0  0  0  0  0  0 
    5.3465    4.9734   -1.2635 H   0  0  0  0  0  0  0  0  0  0  0  0 
  1 11  1  0  0  0  0 
  1  4  1  0  0  0  0 
  2 15  1  0  0  0  0 
  2 16  1  0  0  0  0 
  3 19  1  0  0  0  0 
  3  6  1  0  0  0  0 
  4 20  1  0  0  0  0 
  4 21  1  0  0  0  0 
  5  2  1  0  0  0  0 
  5  7  1  0  0  0  0 
  6 24  1  6  0  0  0 
  6  4  1  0  0  0  0 
  6  7  1  0  0  0  0 
  7 25  1  1  0  0  0 
  7  8  1  0  0  0  0 
  8  9  2  0  0  0  0 
  9 26  1  0  0  0  0 
 10  8  1  0  0  0  0 
 12  1  1  0  0  0  0 
 13  1  1  0  0  0  0 
 14  2  1  0  0  0  0 
 17  3  1  0  0  0  0 
 18  3  1  0  0  0  0 
 22  5  1  0  0  0  0 
 23  5  1  0  0  0  0 
 27 10  1  0  0  0  0 
M  END 
>  <HBA> 
2 
 
>  <HBD> 
1 
 
>  <TPSA> 
43.09 
 
>  <cid> 
20140 
 
>  <dipole> 
4.28 
 
>  <excitation_energy_1> 
6.044 
 
>  <excitation_energy_2> 
6.28 
 
>  <excitation_energy_3> 
6.316 
 
>  <excitation_energy_4> 
6.711 
 
>  <homo_energy> 
-6.904 
 
>  <homo_lumo_gap> 
7.685 
 
>  <logP> 
2.244 
 
>  <lumo_energy> 
0.781 
 
>  <melting_point> 
47.75 
 
>  <molecular_refractivity> 
43.48 
 
>  <oscillator_strength_1> 
0.0008 
 
>  <oscillator_strength_2> 
0.003 
 
>  <oscillator_strength_3> 
0.0006 
 
>  <oscillator_strength_4> 
0.0021 
 
>  <open_babel_can_smiles> 
CC[C@H]([C@@H](CC)C)C(=N)O 
 
>  <mulliken_charges> 
27 
1   -0.450623 
2   -0.450891 
3   -0.491882 
4   -0.262412 
5   -0.282277 
6   -0.058703 
7   -0.18053 
8   0.484108 
9   -0.588853 
10   -0.586216 
11   0.148822 
12   0.140503 
13   0.149476 
14   0.148989 
15   0.148848 
16   0.169801 
17   0.158375 
18   0.136673 
19   0.165863 
20   0.125678 
21   0.155562 
22   0.145822 
23   0.123059 
24   0.124039 
25   0.132202 
26   0.281552 
27   0.413015 
 
>  <lowdin_charges> 
27 
1   -0.447879 
2   -0.449444 
3   -0.46362 
4   -0.280086 
5   -0.279042 
6   -0.121684 
7   -0.163834 
8   0.121939 
9   -0.396721 
10   -0.364399 
11   0.154893 
12   0.146228 
13   0.149662 
14   0.15446 
15   0.150858 
16   0.160903 
17   0.158792 
18   0.144425 
19   0.157652 
20   0.138801 
21   0.1524 
22   0.150545 
23   0.132917 
24   0.139285 
25   0.150145 
26   0.252314 
27   0.350488 
 
$$$$ 
 
