PCCDB-ID:  50977 
public computational chemistry database (PCCDB) project, http://pccdb.org 
 
 26 25  0  0  0  0  0  0  0  0999 V2000 
    6.2670   -5.0403    3.3638 C   0  0  0  0  0  0  0  0  0  0  0  0 
   -0.7905   -3.9444   -2.9920 C   0  0  0  0  0  0  0  0  0  0  0  0 
    2.1849   -2.7893   -1.1268 C   0  0  0  0  0  0  0  0  0  0  0  0 
    3.3543   -3.5263   -0.4647 C   0  0  0  0  0  0  0  0  0  0  0  0 
    4.3253   -2.4197    1.6050 C   0  0  0  0  0  0  0  0  0  0  0  0 
    5.9878   -3.6747    2.7884 C   0  0  0  0  0  0  0  0  0  0  0  0 
    1.1919   -3.7631   -1.7299 C   0  0  0  0  0  0  0  0  0  0  0  0 
    5.2542   -1.9629   -0.5179 N   0  0  0  0  0  0  0  0  0  0  0  0 
    4.2922   -2.6066    0.1812 N   0  0  0  0  0  0  0  0  0  0  0  0 
    6.7501   -2.7394    2.7754 O   0  0  0  0  0  0  0  0  0  0  0  0 
    1.2573   -4.9707   -1.6407 O   0  0  0  0  0  0  0  0  0  0  0  0 
    5.2180   -2.1589   -1.7248 O   0  0  0  0  0  0  0  0  0  0  0  0 
    0.2089   -3.1089   -2.3811 O   0  0  0  0  0  0  0  0  0  0  0  0 
    4.7170   -3.6295    2.2761 O   0  0  0  0  0  0  0  0  0  0  0  0 
    5.4970   -5.3094    4.0936 H   0  0  0  0  0  0  0  0  0  0  0  0 
    7.2495   -5.0403    3.8364 H   0  0  0  0  0  0  0  0  0  0  0  0 
    6.2396   -5.7909    2.5666 H   0  0  0  0  0  0  0  0  0  0  0  0 
   -1.4915   -3.2588   -3.4684 H   0  0  0  0  0  0  0  0  0  0  0  0 
   -1.2973   -4.5512   -2.2370 H   0  0  0  0  0  0  0  0  0  0  0  0 
   -0.3351   -4.6063   -3.7330 H   0  0  0  0  0  0  0  0  0  0  0  0 
    2.5530   -2.1212   -1.9118 H   0  0  0  0  0  0  0  0  0  0  0  0 
    1.6540   -2.1561   -0.4045 H   0  0  0  0  0  0  0  0  0  0  0  0 
    3.9096   -4.0911   -1.2173 H   0  0  0  0  0  0  0  0  0  0  0  0 
    3.0010   -4.2288    0.2920 H   0  0  0  0  0  0  0  0  0  0  0  0 
    3.3259   -2.1889    1.9813 H   0  0  0  0  0  0  0  0  0  0  0  0 
    5.0327   -1.6195    1.8219 H   0  0  0  0  0  0  0  0  0  0  0  0 
  1 16  1  0  0  0  0 
  1 15  1  0  0  0  0 
  2 13  1  0  0  0  0 
  2 19  1  0  0  0  0 
  3  4  1  0  0  0  0 
  3 22  1  0  0  0  0 
  4  9  1  0  0  0  0 
  4 24  1  0  0  0  0 
  5 26  1  0  0  0  0 
  5 25  1  0  0  0  0 
  5 14  1  0  0  0  0 
  6  1  1  0  0  0  0 
  7 11  2  0  0  0  0 
  7  3  1  0  0  0  0 
  8  9  1  0  0  0  0 
  9  5  1  0  0  0  0 
 10  6  2  0  0  0  0 
 12  8  1  0  0  0  0 
 13  7  1  0  0  0  0 
 14  6  1  0  0  0  0 
 17  1  1  0  0  0  0 
 18  2  1  0  0  0  0 
 20  2  1  0  0  0  0 
 21  3  1  0  0  0  0 
 23  4  1  0  0  0  0 
M  RAD  2   8   2  12   2 
M  END 
>  <HBA> 
7 
 
>  <HBD> 
0 
 
>  <TPSA> 
85.27 
 
>  <cid> 
50977 
 
>  <dipole> 
4.46 
 
>  <excitation_energy_1> 
3.316 
 
>  <excitation_energy_2> 
5.648 
 
>  <excitation_energy_3> 
5.668 
 
>  <excitation_energy_4> 
5.748 
 
>  <homo_energy> 
-6.425 
 
>  <homo_lumo_gap> 
5.184 
 
>  <logP> 
0.053 
 
>  <lumo_energy> 
-1.241 
 
>  <melting_point> 
19.34 
 
>  <molecular_refractivity> 
45.97 
 
>  <oscillator_strength_1> 
0.001 
 
>  <oscillator_strength_2> 
0.0039 
 
>  <oscillator_strength_3> 
0.0337 
 
>  <oscillator_strength_4> 
0.0006 
 
>  <open_babel_can_smiles> 
[O][N]N(COC(=O)C)CCC(=O)OC 
 
>  <mulliken_charges> 
26 
1   -0.524709 
2   -0.220828 
3   -0.370906 
4   -0.150382 
5   0.054995 
6   0.602123 
7   0.63189 
8   0.169643 
9   -0.231557 
10   -0.44321 
11   -0.47822 
12   -0.363681 
13   -0.451564 
14   -0.455393 
15   0.185303 
16   0.188833 
17   0.189823 
18   0.168721 
19   0.171316 
20   0.174712 
21   0.208171 
22   0.175616 
23   0.197762 
24   0.187133 
25   0.167512 
26   0.216899 
 
>  <lowdin_charges> 
26 
1   -0.464319 
2   -0.282036 
3   -0.309878 
4   -0.213205 
5   -0.079053 
6   0.21152 
7   0.194212 
8   0.065181 
9   -0.048538 
10   -0.243562 
11   -0.262796 
12   -0.250279 
13   -0.188285 
14   -0.216677 
15   0.180796 
16   0.178917 
17   0.183206 
18   0.164467 
19   0.161425 
20   0.162966 
21   0.187201 
22   0.171556 
23   0.17968 
24   0.173785 
25   0.157107 
26   0.186607 
 
$$$$ 
 
