PCCDB-ID:  8022 
public computational chemistry database (PCCDB) project, http://pccdb.org 
 
 10  9  0  0  0  0  0  0  0  0999 V2000 
    0.9379    0.1264   -0.0231 C   0  0  0  0  0  0  0  0  0  0  0  0 
    2.4655    0.1218   -0.0994 C   0  0  0  0  0  0  0  0  0  0  0  0 
    3.0443   -1.6373    1.5632 C   0  0  0  0  0  0  0  0  0  0  0  0 
    3.0861   -0.5630    1.0158 N   0  0  0  0  0  0  0  0  0  0  0  0 
    3.1049   -2.6359    2.1924 O   0  0  0  0  0  0  0  0  0  0  0  0 
    0.5222    0.6879   -0.8672 H   0  0  0  0  0  0  0  0  0  0  0  0 
    0.5971    0.5949    0.9054 H   0  0  0  0  0  0  0  0  0  0  0  0 
    0.5404   -0.8937   -0.0609 H   0  0  0  0  0  0  0  0  0  0  0  0 
    2.8453    1.1480   -0.0991 H   0  0  0  0  0  0  0  0  0  0  0  0 
    2.8016   -0.3415   -1.0359 H   0  0  0  0  0  0  0  0  0  0  0  0 
  1  7  1  0  0  0  0 
  2  9  1  0  0  0  0 
  2  1  1  0  0  0  0 
  2  4  1  0  0  0  0 
  3  5  2  0  0  0  0 
  4  3  2  0  0  0  0 
  6  1  1  0  0  0  0 
  8  1  1  0  0  0  0 
 10  2  1  0  0  0  0 
M  END 
>  <HBA> 
2 
 
>  <HBD> 
0 
 
>  <TPSA> 
29.43 
 
>  <cid> 
8022 
 
>  <dipole> 
3.01 
 
>  <excitation_energy_1> 
6.09 
 
>  <excitation_energy_2> 
6.776 
 
>  <excitation_energy_3> 
7.094 
 
>  <excitation_energy_4> 
7.417 
 
>  <homo_energy> 
-7.486 
 
>  <homo_lumo_gap> 
8.163 
 
>  <logP> 
0.342 
 
>  <lumo_energy> 
0.678 
 
>  <melting_point> 
26.2 
 
>  <molecular_refractivity> 
18.79 
 
>  <oscillator_strength_1> 
0.0016 
 
>  <oscillator_strength_2> 
0.0091 
 
>  <oscillator_strength_3> 
0.0122 
 
>  <oscillator_strength_4> 
0.0064 
 
>  <open_babel_can_smiles> 
CCN=C=O 
 
>  <mulliken_charges> 
10 
1   -0.449117 
2   -0.136615 
3   0.608711 
4   -0.424506 
5   -0.415973 
6   0.15499 
7   0.166895 
8   0.159781 
9   0.169836 
10   0.165998 
 
>  <lowdin_charges> 
10 
1   -0.448641 
2   -0.165278 
3   0.171291 
4   -0.179988 
5   -0.166987 
6   0.160042 
7   0.160946 
8   0.155726 
9   0.157855 
10   0.155036 
 
$$$$ 
 
