PCCDB-ID:  70743 
public computational chemistry database (PCCDB) project, http://pccdb.org 
 
 16 16  0  0  0  0  0  0  0  0999 V2000 
    2.2500    1.3296   -0.3103 C   0  0  0  0  0  0  0  0  0  0  0  0 
    2.7404   -2.2799   -0.5952 C   0  0  0  0  0  0  0  0  0  0  0  0 
    3.5521   -0.5330   -2.0204 C   0  0  0  0  0  0  0  0  0  0  0  0 
    3.3601   -3.2057   -1.4052 C   0  0  0  0  0  0  0  0  0  0  0  0 
    4.1582   -1.5000   -2.8085 C   0  0  0  0  0  0  0  0  0  0  0  0 
    2.8242   -0.9101   -0.8870 C   0  0  0  0  0  0  0  0  0  0  0  0 
    4.0760   -2.8341   -2.5195 N   0  3  0  0  0  0  0  0  0  0  0  0 
    4.6435   -3.7129   -3.2590 O   0  5  0  0  0  0  0  0  0  0  0  0 
    2.1857   -0.0629   -0.0360 O   0  0  0  0  0  0  0  0  0  0  0  0 
    1.6788    1.8167    0.4813 H   0  0  0  0  0  0  0  0  0  0  0  0 
    1.8001    1.5679   -1.2830 H   0  0  0  0  0  0  0  0  0  0  0  0 
    3.2851    1.6950   -0.2896 H   0  0  0  0  0  0  0  0  0  0  0  0 
    2.1832   -2.6111    0.2744 H   0  0  0  0  0  0  0  0  0  0  0  0 
    3.6621    0.5037   -2.3147 H   0  0  0  0  0  0  0  0  0  0  0  0 
    3.3376   -4.2747   -1.2418 H   0  0  0  0  0  0  0  0  0  0  0  0 
    4.7344   -1.2822   -3.6976 H   0  0  0  0  0  0  0  0  0  0  0  0 
  1 12  1  0  0  0  0 
  1  9  1  0  0  0  0 
  1 10  1  0  0  0  0 
  2 13  1  0  0  0  0 
  3  6  2  0  0  0  0 
  4 15  1  0  0  0  0 
  4  2  2  0  0  0  0 
  5  7  2  0  0  0  0 
  5  3  1  0  0  0  0 
  6  2  1  0  0  0  0 
  6  9  1  0  0  0  0 
  7  4  1  0  0  0  0 
  8  7  1  0  0  0  0 
 11  1  1  0  0  0  0 
 14  3  1  0  0  0  0 
 16  5  1  0  0  0  0 
M  CHG  2   7   1   8  -1 
M  END 
>  <HBA> 
2 
 
>  <HBD> 
0 
 
>  <TPSA> 
34.69 
 
>  <cid> 
70743 
 
>  <dipole> 
5.1 
 
>  <excitation_energy_1> 
3.849 
 
>  <excitation_energy_2> 
4.244 
 
>  <excitation_energy_3> 
4.581 
 
>  <excitation_energy_4> 
4.642 
 
>  <homo_energy> 
-5.282 
 
>  <homo_lumo_gap> 
4.569 
 
>  <logP> 
1.124 
 
>  <lumo_energy> 
-0.713 
 
>  <melting_point> 
23.93 
 
>  <molecular_refractivity> 
34.1 
 
>  <oscillator_strength_1> 
0.0303 
 
>  <oscillator_strength_2> 
0.0 
 
>  <oscillator_strength_3> 
0.2922 
 
>  <oscillator_strength_4> 
0.0002 
 
>  <open_babel_can_smiles> 
COc1cc[n+](cc1)[O-] 
 
>  <mulliken_charges> 
16 
1   -0.221197 
2   -0.212503 
3   -0.231898 
4   0.073447 
5   0.06888 
6   0.399612 
7   -0.009073 
8   -0.538263 
9   -0.499823 
10   0.178474 
11   0.157176 
12   0.157175 
13   0.162931 
14   0.154013 
15   0.181434 
16   0.179615 
 
>  <lowdin_charges> 
16 
1   -0.275459 
2   -0.173349 
3   -0.205053 
4   -0.113708 
5   -0.117742 
6   0.089699 
7   0.212453 
8   -0.414413 
9   -0.191239 
10   0.169137 
11   0.147829 
12   0.147142 
13   0.182086 
14   0.174713 
15   0.183732 
16   0.184171 
 
$$$$ 
 
