PCCDB-ID:  61229 
public computational chemistry database (PCCDB) project, http://pccdb.org 
 
 24 24  0  0  0  0  0  0  0  0999 V2000 
    1.1637   -0.2940    0.8717 C   0  0  0  0  0  0  0  0  0  0  0  0 
    5.6171    2.3980    0.7670 C   0  0  0  0  0  0  0  0  0  0  0  0 
    6.6350   -2.5467    0.4236 C   0  0  0  0  0  0  0  0  0  0  0  0 
    5.2721   -2.4093    0.6907 C   0  0  0  0  0  0  0  0  0  0  0  0 
    6.8778   -0.1251    0.4722 C   0  0  0  0  0  0  0  0  0  0  0  0 
    8.8770   -1.5412    0.0243 C   0  0  0  0  0  0  0  0  0  0  0  0 
    2.5230   -0.4916    0.2524 C   0  0  0  0  0  0  0  0  0  0  0  0 
    7.4328   -1.4061    0.3107 C   0  0  0  0  0  0  0  0  0  0  0  0 
    4.7247   -1.1447    0.8458 C   0  0  0  0  0  0  0  0  0  0  0  0 
    5.5218    0.0188    0.7470 C   0  0  0  0  0  0  0  0  0  0  0  0 
    9.6518   -0.6096   -0.0892 O   0  0  0  0  0  0  0  0  0  0  0  0 
    2.8432   -0.2381   -0.8789 O   0  0  0  0  0  0  0  0  0  0  0  0 
    4.8774    1.1957    0.9476 O   0  0  0  0  0  0  0  0  0  0  0  0 
    3.3855   -1.0272    1.1877 O   0  0  0  0  0  0  0  0  0  0  0  0 
    1.2214    0.4950    1.6296 H   0  0  0  0  0  0  0  0  0  0  0  0 
    0.8326   -1.2082    1.3733 H   0  0  0  0  0  0  0  0  0  0  0  0 
    0.4511   -0.0071    0.0979 H   0  0  0  0  0  0  0  0  0  0  0  0 
    4.9066    3.2096    0.9297 H   0  0  0  0  0  0  0  0  0  0  0  0 
    6.0243    2.4643   -0.2490 H   0  0  0  0  0  0  0  0  0  0  0  0 
    6.4348    2.4765    1.4943 H   0  0  0  0  0  0  0  0  0  0  0  0 
    7.0736   -3.5335    0.3003 H   0  0  0  0  0  0  0  0  0  0  0  0 
    4.6204   -3.2723    0.7819 H   0  0  0  0  0  0  0  0  0  0  0  0 
    7.5392    0.7284    0.3811 H   0  0  0  0  0  0  0  0  0  0  0  0 
    9.2300   -2.5905   -0.0862 H   0  0  0  0  0  0  0  0  0  0  0  0 
  1 16  1  0  0  0  0 
  1 15  1  0  0  0  0 
  2 18  1  0  0  0  0 
  2 13  1  0  0  0  0 
  2 20  1  0  0  0  0 
  3  4  1  0  0  0  0 
  4 22  1  0  0  0  0 
  4  9  2  0  0  0  0 
  5 10  2  0  0  0  0 
  6  8  1  0  0  0  0 
  7  1  1  0  0  0  0 
  7 14  1  0  0  0  0 
  8  3  2  0  0  0  0 
  8  5  1  0  0  0  0 
  9 14  1  0  0  0  0 
 10  9  1  0  0  0  0 
 10 13  1  0  0  0  0 
 11  6  2  0  0  0  0 
 12  7  2  0  0  0  0 
 17  1  1  0  0  0  0 
 19  2  1  0  0  0  0 
 21  3  1  0  0  0  0 
 23  5  1  0  0  0  0 
 24  6  1  0  0  0  0 
M  END 
>  <HBA> 
4 
 
>  <HBD> 
0 
 
>  <TPSA> 
52.6 
 
>  <cid> 
61229 
 
>  <dipole> 
3.15 
 
>  <excitation_energy_1> 
3.725 
 
>  <excitation_energy_2> 
4.119 
 
>  <excitation_energy_3> 
4.859 
 
>  <excitation_energy_4> 
5.307 
 
>  <homo_energy> 
-6.397 
 
>  <homo_lumo_gap> 
4.697 
 
>  <logP> 
1.433 
 
>  <lumo_energy> 
-1.701 
 
>  <melting_point> 
70.03 
 
>  <molecular_refractivity> 
49.82 
 
>  <oscillator_strength_1> 
0.0001 
 
>  <oscillator_strength_2> 
0.0881 
 
>  <oscillator_strength_3> 
0.2254 
 
>  <oscillator_strength_4> 
0.0142 
 
>  <open_babel_can_smiles> 
COc1cc(C=O)ccc1OC(=O)C 
 
>  <mulliken_charges> 
24 
1   -0.528681 
2   -0.220442 
3   -0.198216 
4   -0.166686 
5   -0.25107 
6   0.191813 
7   0.606765 
8   0.103758 
9   0.333394 
10   0.385994 
11   -0.411089 
12   -0.43896 
13   -0.513369 
14   -0.523028 
15   0.191803 
16   0.183931 
17   0.185963 
18   0.174744 
19   0.16756 
20   0.160384 
21   0.14269 
22   0.148776 
23   0.169318 
24   0.104647 
 
>  <lowdin_charges> 
24 
1   -0.464076 
2   -0.274985 
3   -0.153607 
4   -0.161833 
5   -0.182283 
6   0.0502 
7   0.21333 
8   -0.049655 
9   0.098597 
10   0.092392 
11   -0.232914 
12   -0.232062 
13   -0.188464 
14   -0.166024 
15   0.184355 
16   0.179247 
17   0.178759 
18   0.166911 
19   0.153822 
20   0.150749 
21   0.164488 
22   0.173334 
23   0.182273 
24   0.117446 
 
$$$$ 
 
