PCCDB-ID:  21896 
public computational chemistry database (PCCDB) project, http://pccdb.org 
 
 31 32  0  0  1  0  0  0  0  0999 V2000 
    0.2110   -0.5421   -0.6346 C   0  0  0  0  0  0  0  0  0  0  0  0 
    6.3618    1.7063    0.4069 C   0  0  0  0  0  0  0  0  0  0  0  0 
    5.9406    0.5558    1.0760 C   0  0  0  0  0  0  0  0  0  0  0  0 
    5.4205    2.5127   -0.2368 C   0  0  0  0  0  0  0  0  0  0  0  0 
    4.5872    0.2143    1.0985 C   0  0  0  0  0  0  0  0  0  0  0  0 
    4.0687    2.1683   -0.2119 C   0  0  0  0  0  0  0  0  0  0  0  0 
    2.1714    0.6306    0.4648 C   0  0  0  0  0  0  0  0  0  0  0  0 
    1.8986   -0.5238   -4.0469 C   0  0  0  0  0  0  0  0  0  0  0  0 
    3.3864   -1.0875   -2.0346 C   0  0  0  0  0  0  0  0  0  0  0  0 
    3.6333    1.0130    0.4538 C   0  0  0  0  0  0  0  0  0  0  0  0 
    2.7287    0.0092   -2.8780 C   0  0  2  0  0  0  0  0  0  0  0  0 
    1.6797   -0.1473   -0.7792 C   0  0  1  0  0  0  0  0  0  0  0  0 
    1.1042    0.4968   -4.6194 O   0  0  0  0  0  0  0  0  0  0  0  0 
    2.4364   -1.3322   -0.9983 O   0  0  0  0  0  0  0  0  0  0  0  0 
    1.8566    0.6712   -1.9451 O   0  0  0  0  0  0  0  0  0  0  0  0 
    0.0760   -1.1990    0.2303 H   0  0  0  0  0  0  0  0  0  0  0  0 
   -0.1198   -1.0744   -1.5304 H   0  0  0  0  0  0  0  0  0  0  0  0 
   -0.4116    0.3478   -0.4992 H   0  0  0  0  0  0  0  0  0  0  0  0 
    7.4146    1.9757    0.3920 H   0  0  0  0  0  0  0  0  0  0  0  0 
    6.6648   -0.0751    1.5853 H   0  0  0  0  0  0  0  0  0  0  0  0 
    5.7379    3.4141   -0.7549 H   0  0  0  0  0  0  0  0  0  0  0  0 
    4.2654   -0.6844    1.6192 H   0  0  0  0  0  0  0  0  0  0  0  0 
    3.3387    2.7965   -0.7152 H   0  0  0  0  0  0  0  0  0  0  0  0 
    1.5514    1.5313    0.5484 H   0  0  0  0  0  0  0  0  0  0  0  0 
    1.9545    0.0096    1.3416 H   0  0  0  0  0  0  0  0  0  0  0  0 
    1.2849   -1.3697   -3.6931 H   0  0  0  0  0  0  0  0  0  0  0  0 
    2.5606   -0.8968   -4.8367 H   0  0  0  0  0  0  0  0  0  0  0  0 
    4.3493   -0.7668   -1.6224 H   0  0  0  0  0  0  0  0  0  0  0  0 
    3.5245   -2.0245   -2.5850 H   0  0  0  0  0  0  0  0  0  0  0  0 
    3.4431    0.7562   -3.2386 H   0  0  0  0  0  0  0  0  0  0  0  0 
    0.6711    0.9369   -3.8679 H   0  0  0  0  0  0  0  0  0  0  0  0 
  1 18  1  0  0  0  0 
  1 16  1  0  0  0  0 
  2  3  2  0  0  0  0 
  3  5  1  0  0  0  0 
  3 20  1  0  0  0  0 
  4  6  2  0  0  0  0 
  4  2  1  0  0  0  0 
  5 22  1  0  0  0  0 
  6 10  1  0  0  0  0 
  7 24  1  0  0  0  0 
  7 25  1  0  0  0  0 
  8 26  1  0  0  0  0 
  8 11  1  0  0  0  0 
  9 28  1  0  0  0  0 
  9 14  1  0  0  0  0 
 10  7  1  0  0  0  0 
 10  5  2  0  0  0  0 
 11 30  1  6  0  0  0 
 11  9  1  0  0  0  0 
 11 15  1  0  0  0  0 
 12  1  1  1  0  0  0 
 12  7  1  0  0  0  0 
 13  8  1  0  0  0  0 
 13 31  1  0  0  0  0 
 14 12  1  0  0  0  0 
 15 12  1  0  0  0  0 
 17  1  1  0  0  0  0 
 19  2  1  0  0  0  0 
 21  4  1  0  0  0  0 
 23  6  1  0  0  0  0 
 27  8  1  0  0  0  0 
 29  9  1  0  0  0  0 
M  END 
>  <HBA> 
3 
 
>  <HBD> 
1 
 
>  <TPSA> 
38.69 
 
>  <cid> 
21896 
 
>  <dipole> 
1.64 
 
>  <excitation_energy_1> 
5.268 
 
>  <excitation_energy_2> 
5.699 
 
>  <excitation_energy_3> 
5.984 
 
>  <excitation_energy_4> 
6.119 
 
>  <homo_energy> 
-6.465 
 
>  <homo_lumo_gap> 
6.4 
 
>  <logP> 
1.353 
 
>  <lumo_energy> 
-0.065 
 
>  <melting_point> 
38.15 
 
>  <molecular_refractivity> 
56.7 
 
>  <oscillator_strength_1> 
0.0001 
 
>  <oscillator_strength_2> 
0.0812 
 
>  <oscillator_strength_3> 
0.0065 
 
>  <oscillator_strength_4> 
0.0076 
 
>  <open_babel_can_smiles> 
OC[C@@H]1CO[C@@](O1)(C)Cc1ccccc1 
 
>  <mulliken_charges> 
31 
1   -0.455007 
2   -0.13095 
3   -0.131722 
4   -0.13304 
5   -0.179717 
6   -0.174499 
7   -0.356066 
8   -0.03287 
9   -0.06629 
10   0.15528 
11   0.098878 
12   0.536757 
13   -0.622972 
14   -0.511929 
15   -0.54092 
16   0.156218 
17   0.158135 
18   0.150853 
19   0.128814 
20   0.129413 
21   0.129824 
22   0.130314 
23   0.135446 
24   0.149606 
25   0.147576 
26   0.126469 
27   0.140796 
28   0.161062 
29   0.150965 
30   0.150504 
31   0.399068 
 
>  <lowdin_charges> 
31 
1   -0.455756 
2   -0.159338 
3   -0.16082 
4   -0.158334 
5   -0.164397 
6   -0.165801 
7   -0.290576 
8   -0.153181 
9   -0.143123 
10   -0.005023 
11   -0.030074 
12   0.22114 
13   -0.465867 
14   -0.263948 
15   -0.276766 
16   0.161688 
17   0.160856 
18   0.158352 
19   0.155825 
20   0.158877 
21   0.157751 
22   0.158353 
23   0.162278 
24   0.159715 
25   0.158411 
26   0.129751 
27   0.149002 
28   0.150837 
29   0.152736 
30   0.153411 
31   0.344022 
 
$$$$ 
 
