PCCDB-ID:  66460 
public computational chemistry database (PCCDB) project, http://pccdb.org 
 
 21 20  0  0  0  0  0  0  0  0999 V2000 
    3.8674    1.9379    2.7682 C   0  0  0  0  0  0  0  0  0  0  0  0 
    4.7692   -0.1566    1.9134 C   0  0  0  0  0  0  0  0  0  0  0  0 
    4.7202    3.5965    0.0727 C   0  0  0  0  0  0  0  0  0  0  0  0 
    2.7033    2.9982   -1.1537 C   0  0  0  0  0  0  0  0  0  0  0  0 
    3.6791    1.3858    0.3695 C   0  0  0  0  0  0  0  0  0  0  0  0 
    3.2246    0.4661   -0.4070 N   0  0  0  0  0  0  0  0  0  0  0  0 
    4.3422    1.1955    1.6010 N   0  0  0  0  0  0  0  0  0  0  0  0 
    3.5452    2.7303    0.0048 N   0  0  0  0  0  0  0  0  0  0  0  0 
    3.0828    1.3831    3.3099 H   0  0  0  0  0  0  0  0  0  0  0  0 
    3.4519    2.8945    2.4525 H   0  0  0  0  0  0  0  0  0  0  0  0 
    4.6964    2.1193    3.4631 H   0  0  0  0  0  0  0  0  0  0  0  0 
    5.4983   -0.1181    2.7299 H   0  0  0  0  0  0  0  0  0  0  0  0 
    5.2517   -0.6051    1.0410 H   0  0  0  0  0  0  0  0  0  0  0  0 
    3.9409   -0.8134    2.2347 H   0  0  0  0  0  0  0  0  0  0  0  0 
    4.4058    4.6378    0.2091 H   0  0  0  0  0  0  0  0  0  0  0  0 
    5.3186    3.5387   -0.8521 H   0  0  0  0  0  0  0  0  0  0  0  0 
    5.3560    3.3062    0.9086 H   0  0  0  0  0  0  0  0  0  0  0  0 
    2.4542    4.0655   -1.1635 H   0  0  0  0  0  0  0  0  0  0  0  0 
    1.7886    2.4088   -1.0862 H   0  0  0  0  0  0  0  0  0  0  0  0 
    3.1998    2.7403   -2.1015 H   0  0  0  0  0  0  0  0  0  0  0  0 
    3.2260   -0.4414    0.0594 H   0  0  0  0  0  0  0  0  0  0  0  0 
  1  9  1  0  0  0  0 
  1 11  1  0  0  0  0 
  2 14  1  0  0  0  0 
  2 12  1  0  0  0  0 
  3 15  1  0  0  0  0 
  3 17  1  0  0  0  0 
  4 19  1  0  0  0  0 
  4  8  1  0  0  0  0 
  5  7  1  0  0  0  0 
  6 21  1  0  0  0  0 
  6  5  2  0  0  0  0 
  7  2  1  0  0  0  0 
  7  1  1  0  0  0  0 
  8  3  1  0  0  0  0 
  8  5  1  0  0  0  0 
 10  1  1  0  0  0  0 
 13  2  1  0  0  0  0 
 16  3  1  0  0  0  0 
 18  4  1  0  0  0  0 
 20  4  1  0  0  0  0 
M  END 
>  <HBA> 
3 
 
>  <HBD> 
1 
 
>  <TPSA> 
30.33 
 
>  <cid> 
66460 
 
>  <dipole> 
2.54 
 
>  <excitation_energy_1> 
5.365 
 
>  <excitation_energy_2> 
5.414 
 
>  <excitation_energy_3> 
5.737 
 
>  <excitation_energy_4> 
5.874 
 
>  <homo_energy> 
-5.81 
 
>  <homo_lumo_gap> 
7.11 
 
>  <logP> 
0.144 
 
>  <lumo_energy> 
1.301 
 
>  <melting_point> 
10.67 
 
>  <molecular_refractivity> 
35.53 
 
>  <oscillator_strength_1> 
0.0319 
 
>  <oscillator_strength_2> 
0.0039 
 
>  <oscillator_strength_3> 
0.0458 
 
>  <oscillator_strength_4> 
0.038 
 
>  <open_babel_can_smiles> 
CN(C(=N)N(C)C)C 
 
>  <mulliken_charges> 
21 
1   -0.315071 
2   -0.322606 
3   -0.312573 
4   -0.283499 
5   0.593014 
6   -0.659131 
7   -0.415553 
8   -0.419464 
9   0.141288 
10   0.181463 
11   0.149573 
12   0.154461 
13   0.17192 
14   0.136698 
15   0.148968 
16   0.14381 
17   0.173124 
18   0.134346 
19   0.176646 
20   0.146267 
21   0.276319 
 
>  <lowdin_charges> 
21 
1   -0.356084 
2   -0.360373 
3   -0.353582 
4   -0.346184 
5   0.118757 
6   -0.464152 
7   -0.156073 
8   -0.139348 
9   0.138203 
10   0.168957 
11   0.147896 
12   0.154969 
13   0.163542 
14   0.132217 
15   0.146008 
16   0.138277 
17   0.165134 
18   0.14132 
19   0.169457 
20   0.141416 
21   0.249644 
 
$$$$ 
 
