PCCDB-ID:  66838 
public computational chemistry database (PCCDB) project, http://pccdb.org 
 
 22 21  0  0  0  0  0  0  0  0999 V2000 
    1.9798    1.7901   -0.3755 C   0  0  0  0  0  0  0  0  0  0  0  0 
    6.2990   -5.6262   -1.3891 C   0  0  0  0  0  0  0  0  0  0  0  0 
    2.4636    0.6196    0.0409 C   0  0  0  0  0  0  0  0  0  0  0  0 
    6.8981   -4.4710   -1.1022 C   0  0  0  0  0  0  0  0  0  0  0  0 
    2.9532   -0.4847   -0.8556 C   0  0  0  0  0  0  0  0  0  0  0  0 
    4.4390   -0.7993   -0.6279 C   0  0  0  0  0  0  0  0  0  0  0  0 
    6.8587   -3.2673   -1.9974 C   0  0  0  0  0  0  0  0  0  0  0  0 
    4.9242   -1.9750   -1.4552 C   0  0  0  0  0  0  0  0  0  0  0  0 
    4.2261   -2.6780   -2.1523 O   0  0  0  0  0  0  0  0  0  0  0  0 
    6.2636   -2.1328   -1.3125 O   0  0  0  0  0  0  0  0  0  0  0  0 
    1.6396    2.5510    0.3218 H   0  0  0  0  0  0  0  0  0  0  0  0 
    1.8987    2.0303   -1.4340 H   0  0  0  0  0  0  0  0  0  0  0  0 
    6.3629   -6.4842   -0.7253 H   0  0  0  0  0  0  0  0  0  0  0  0 
    5.7188   -5.7550   -2.2998 H   0  0  0  0  0  0  0  0  0  0  0  0 
    2.5258    0.4246    1.1136 H   0  0  0  0  0  0  0  0  0  0  0  0 
    7.4611   -4.3565   -0.1763 H   0  0  0  0  0  0  0  0  0  0  0  0 
    2.7912   -0.2195   -1.9064 H   0  0  0  0  0  0  0  0  0  0  0  0 
    2.3748   -1.4009   -0.6775 H   0  0  0  0  0  0  0  0  0  0  0  0 
    4.6349   -1.0334    0.4277 H   0  0  0  0  0  0  0  0  0  0  0  0 
    5.0666    0.0703   -0.8570 H   0  0  0  0  0  0  0  0  0  0  0  0 
    6.2988   -3.4703   -2.9124 H   0  0  0  0  0  0  0  0  0  0  0  0 
    7.8674   -2.9258   -2.2498 H   0  0  0  0  0  0  0  0  0  0  0  0 
  1  3  2  0  0  0  0 
  1 11  1  0  0  0  0 
  2  4  2  0  0  0  0 
  2 13  1  0  0  0  0 
  3 15  1  0  0  0  0 
  4 16  1  0  0  0  0 
  5 18  1  0  0  0  0 
  5  6  1  0  0  0  0 
  5  3  1  0  0  0  0 
  6 19  1  0  0  0  0 
  7 10  1  0  0  0  0 
  7  4  1  0  0  0  0 
  8 10  1  0  0  0  0 
  8  6  1  0  0  0  0 
  9  8  2  0  0  0  0 
 12  1  1  0  0  0  0 
 14  2  1  0  0  0  0 
 17  5  1  0  0  0  0 
 20  6  1  0  0  0  0 
 21  7  1  0  0  0  0 
 22  7  1  0  0  0  0 
M  END 
>  <HBA> 
2 
 
>  <HBD> 
0 
 
>  <TPSA> 
26.3 
 
>  <cid> 
66838 
 
>  <dipole> 
1.65 
 
>  <excitation_energy_1> 
5.812 
 
>  <excitation_energy_2> 
6.243 
 
>  <excitation_energy_3> 
6.458 
 
>  <excitation_energy_4> 
6.543 
 
>  <homo_energy> 
-6.868 
 
>  <homo_lumo_gap> 
6.961 
 
>  <logP> 
1.682 
 
>  <lumo_energy> 
0.093 
 
>  <melting_point> 
-56.65 
 
>  <molecular_refractivity> 
40.91 
 
>  <oscillator_strength_1> 
0.0004 
 
>  <oscillator_strength_2> 
0.0461 
 
>  <oscillator_strength_3> 
0.0106 
 
>  <oscillator_strength_4> 
0.0372 
 
>  <open_babel_can_smiles> 
C=CCCC(=O)OCC=C 
 
>  <mulliken_charges> 
22 
1   -0.340005 
2   -0.31928 
3   -0.047105 
4   -0.065139 
5   -0.297774 
6   -0.363546 
7   -0.097826 
8   0.62734 
9   -0.474008 
10   -0.468231 
11   0.139098 
12   0.136814 
13   0.147364 
14   0.156331 
15   0.123685 
16   0.138596 
17   0.153627 
18   0.164848 
19   0.172135 
20   0.178056 
21   0.176864 
22   0.158153 
 
>  <lowdin_charges> 
22 
1   -0.341054 
2   -0.311728 
3   -0.144778 
4   -0.163826 
5   -0.266017 
6   -0.300684 
7   -0.129349 
8   0.203794 
9   -0.264726 
10   -0.202197 
11   0.159458 
12   0.153293 
13   0.162996 
14   0.164935 
15   0.146417 
16   0.156148 
17   0.154328 
18   0.16209 
19   0.167484 
20   0.171742 
21   0.164687 
22   0.156987 
 
$$$$ 
 
