PCCDB-ID:  33930 
public computational chemistry database (PCCDB) project, http://pccdb.org 
 
 31 32  0  0  0  0  0  0  0  0999 V2000 
    4.9974    0.3289    1.3112 C   0  0  0  0  0  0  0  0  0  0  0  0 
   -0.9174    0.7558    6.4197 C   0  0  0  0  0  0  0  0  0  0  0  0 
    2.5203   -2.9841    2.9356 C   0  0  0  0  0  0  0  0  0  0  0  0 
    1.7040   -2.6168    4.0007 C   0  0  0  0  0  0  0  0  0  0  0  0 
    2.8196   -2.0598    1.9344 C   0  0  0  0  0  0  0  0  0  0  0  0 
    0.8678    1.0027    3.1265 C   0  0  0  0  0  0  0  0  0  0  0  0 
   -0.3093    1.0875    4.0979 C   0  0  0  0  0  0  0  0  0  0  0  0 
    0.2415   -0.9660    5.2156 C   0  0  0  0  0  0  0  0  0  0  0  0 
    3.6655    0.5951    0.6431 C   0  0  0  0  0  0  0  0  0  0  0  0 
    1.1670   -1.3243    4.0683 C   0  0  0  0  0  0  0  0  0  0  0  0 
    1.4493   -0.3911    3.0641 C   0  0  0  0  0  0  0  0  0  0  0  0 
    2.3005   -0.7585    1.9967 C   0  0  0  0  0  0  0  0  0  0  0  0 
    2.5153    0.1687    0.9642 N   0  0  0  0  0  0  0  0  0  0  0  0 
    0.0506    0.4716    5.3734 N   0  0  0  0  0  0  0  0  0  0  0  0 
    3.7205    1.4313   -0.4349 O   0  0  0  0  0  0  0  0  0  0  0  0 
    5.4671    1.2784    1.5990 H   0  0  0  0  0  0  0  0  0  0  0  0 
    5.6807   -0.1866    0.6248 H   0  0  0  0  0  0  0  0  0  0  0  0 
    4.8743   -0.2861    2.2032 H   0  0  0  0  0  0  0  0  0  0  0  0 
   -1.0057    1.8390    6.5570 H   0  0  0  0  0  0  0  0  0  0  0  0 
   -0.5776    0.3190    7.3659 H   0  0  0  0  0  0  0  0  0  0  0  0 
   -1.9275    0.3523    6.2035 H   0  0  0  0  0  0  0  0  0  0  0  0 
    2.9277   -3.9904    2.8806 H   0  0  0  0  0  0  0  0  0  0  0  0 
    1.4734   -3.3353    4.7845 H   0  0  0  0  0  0  0  0  0  0  0  0 
    3.4331   -2.3445    1.0839 H   0  0  0  0  0  0  0  0  0  0  0  0 
    1.6431    1.7123    3.4485 H   0  0  0  0  0  0  0  0  0  0  0  0 
    0.5644    1.3185    2.1214 H   0  0  0  0  0  0  0  0  0  0  0  0 
   -1.2069    0.6095    3.6529 H   0  0  0  0  0  0  0  0  0  0  0  0 
   -0.5647    2.1376    4.2798 H   0  0  0  0  0  0  0  0  0  0  0  0 
    0.6497   -1.3654    6.1535 H   0  0  0  0  0  0  0  0  0  0  0  0 
   -0.7318   -1.4823    5.0587 H   0  0  0  0  0  0  0  0  0  0  0  0 
    4.6351    1.7268   -0.5621 H   0  0  0  0  0  0  0  0  0  0  0  0 
  1 16  1  0  0  0  0 
  1 18  1  0  0  0  0 
  2 19  1  0  0  0  0 
  2 20  1  0  0  0  0 
  3  4  2  0  0  0  0 
  4 10  1  0  0  0  0 
  4 23  1  0  0  0  0 
  5 12  2  0  0  0  0 
  5  3  1  0  0  0  0 
  6 25  1  0  0  0  0 
  6  7  1  0  0  0  0 
  7 28  1  0  0  0  0 
  7 14  1  0  0  0  0 
  8 14  1  0  0  0  0 
  8 29  1  0  0  0  0 
  9 13  2  0  0  0  0 
  9  1  1  0  0  0  0 
 10  8  1  0  0  0  0 
 11  6  1  0  0  0  0 
 11 10  2  0  0  0  0 
 12 11  1  0  0  0  0 
 13 12  1  0  0  0  0 
 14  2  1  0  0  0  0 
 15  9  1  0  0  0  0 
 17  1  1  0  0  0  0 
 21  2  1  0  0  0  0 
 22  3  1  0  0  0  0 
 24  5  1  0  0  0  0 
 26  6  1  0  0  0  0 
 27  7  1  0  0  0  0 
 30  8  1  0  0  0  0 
 31 15  1  0  0  0  0 
M  END 
>  <HBA> 
3 
 
>  <HBD> 
1 
 
>  <TPSA> 
32.34 
 
>  <cid> 
33930 
 
>  <dipole> 
3.07 
 
>  <excitation_energy_1> 
4.642 
 
>  <excitation_energy_2> 
4.785 
 
>  <excitation_energy_3> 
4.846 
 
>  <excitation_energy_4> 
4.902 
 
>  <homo_energy> 
-5.494 
 
>  <homo_lumo_gap> 
5.456 
 
>  <logP> 
1.644 
 
>  <lumo_energy> 
-0.038 
 
>  <melting_point> 
92.16 
 
>  <molecular_refractivity> 
65.0 
 
>  <oscillator_strength_1> 
0.0892 
 
>  <oscillator_strength_2> 
0.0065 
 
>  <oscillator_strength_3> 
0.0135 
 
>  <oscillator_strength_4> 
0.0254 
 
>  <open_babel_can_smiles> 
CN1CCc2c(C1)cccc2/N=C(/O)\C 
 
>  <mulliken_charges> 
31 
1   -0.554617 
2   -0.286487 
3   -0.141922 
4   -0.181941 
5   -0.157861 
6   -0.327844 
7   -0.135862 
8   -0.181566 
9   0.481505 
10   0.088119 
11   0.096477 
12   0.178507 
13   -0.468708 
14   -0.388583 
15   -0.571552 
16   0.16962 
17   0.175217 
18   0.200989 
19   0.147909 
20   0.146111 
21   0.115975 
22   0.123079 
23   0.114513 
24   0.119084 
25   0.148611 
26   0.166371 
27   0.114246 
28   0.133746 
29   0.146573 
30   0.12277 
31   0.40752 
 
>  <lowdin_charges> 
31 
1   -0.484533 
2   -0.352186 
3   -0.1565 
4   -0.181261 
5   -0.19368 
6   -0.277831 
7   -0.198021 
8   -0.197898 
9   0.145464 
10   -0.01134 
11   -0.02752 
12   0.038894 
13   -0.167962 
14   -0.184491 
15   -0.3609 
16   0.167178 
17   0.171 
18   0.185842 
19   0.1477 
20   0.148602 
21   0.118695 
22   0.154322 
23   0.152977 
24   0.155032 
25   0.153797 
26   0.164033 
27   0.117655 
28   0.143905 
29   0.150631 
30   0.123857 
31   0.354537 
 
$$$$ 
 
