PCCDB-ID:  28989 
public computational chemistry database (PCCDB) project, http://pccdb.org 
 
 27 28  0  0  0  0  0  0  0  0999 V2000 
    2.7643    0.8154   -0.5384 C   0  0  0  0  0  0  0  0  0  0  0  0 
    2.4983    2.1849   -0.3328 C   0  0  0  0  0  0  0  0  0  0  0  0 
   -1.2096   -2.6363    0.8474 C   0  0  0  0  0  0  0  0  0  0  0  0 
   -1.1339   -1.8384   -0.4731 C   0  0  0  0  0  0  0  0  0  0  0  0 
    1.7381   -0.1206   -0.5509 C   0  0  0  0  0  0  0  0  0  0  0  0 
    1.2006    2.6439   -0.1390 C   0  0  0  0  0  0  0  0  0  0  0  0 
    0.1075   -2.7157    1.6206 C   0  0  0  0  0  0  0  0  0  0  0  0 
   -1.8037    0.6161   -0.1085 C   0  0  0  0  0  0  0  0  0  0  0  0 
   -0.8653   -0.3638   -0.3213 C   0  0  0  0  0  0  0  0  0  0  0  0 
    0.4128    0.3094   -0.3569 C   0  0  0  0  0  0  0  0  0  0  0  0 
    0.1706    1.6973   -0.1550 C   0  0  0  0  0  0  0  0  0  0  0  0 
   -0.0605   -3.5458    2.8233 N   0  0  0  0  0  0  0  0  0  0  0  0 
   -1.1908    1.8522    0.0002 N   0  0  0  0  0  0  0  0  0  0  0  0 
    3.7902    0.4903   -0.6893 H   0  0  0  0  0  0  0  0  0  0  0  0 
    3.3212    2.8945   -0.3272 H   0  0  0  0  0  0  0  0  0  0  0  0 
   -1.5434   -3.6597    0.6348 H   0  0  0  0  0  0  0  0  0  0  0  0 
   -1.9782   -2.1823    1.4905 H   0  0  0  0  0  0  0  0  0  0  0  0 
   -2.0835   -1.9762   -1.0060 H   0  0  0  0  0  0  0  0  0  0  0  0 
   -0.3636   -2.2850   -1.1169 H   0  0  0  0  0  0  0  0  0  0  0  0 
    1.9572   -1.1732   -0.7109 H   0  0  0  0  0  0  0  0  0  0  0  0 
    0.9953    3.6998    0.0185 H   0  0  0  0  0  0  0  0  0  0  0  0 
    0.4761   -1.6974    1.8293 H   0  0  0  0  0  0  0  0  0  0  0  0 
    0.8655   -3.2004    0.9900 H   0  0  0  0  0  0  0  0  0  0  0  0 
   -2.8796    0.5321   -0.0291 H   0  0  0  0  0  0  0  0  0  0  0  0 
   -0.6919   -3.0718    3.4695 H   0  0  0  0  0  0  0  0  0  0  0  0 
    0.8301   -3.6175    3.3139 H   0  0  0  0  0  0  0  0  0  0  0  0 
   -1.6685    2.7297    0.1314 H   0  0  0  0  0  0  0  0  0  0  0  0 
  1  2  1  0  0  0  0 
  2 15  1  0  0  0  0 
  2  6  2  0  0  0  0 
  3 17  1  0  0  0  0 
  3  7  1  0  0  0  0 
  4  9  1  0  0  0  0 
  4  3  1  0  0  0  0 
  5  1  2  0  0  0  0 
  5 10  1  0  0  0  0 
  6 21  1  0  0  0  0 
  7 22  1  0  0  0  0 
  7 12  1  0  0  0  0 
  8 24  1  0  0  0  0 
  8 13  1  0  0  0  0 
  9  8  2  0  0  0  0 
 10  9  1  0  0  0  0 
 10 11  2  0  0  0  0 
 11  6  1  0  0  0  0 
 11 13  1  0  0  0  0 
 12 26  1  0  0  0  0 
 12 25  1  0  0  0  0 
 13 27  1  0  0  0  0 
 14  1  1  0  0  0  0 
 16  3  1  0  0  0  0 
 18  4  1  0  0  0  0 
 19  4  1  0  0  0  0 
 20  5  1  0  0  0  0 
 23  7  1  0  0  0  0 
M  END 
>  <HBA> 
1 
 
>  <HBD> 
2 
 
>  <TPSA> 
41.81 
 
>  <cid> 
28989 
 
>  <dipole> 
2.79 
 
>  <excitation_energy_1> 
4.529 
 
>  <excitation_energy_2> 
4.675 
 
>  <excitation_energy_3> 
4.811 
 
>  <excitation_energy_4> 
5.137 
 
>  <homo_energy> 
-5.287 
 
>  <homo_lumo_gap> 
5.195 
 
>  <logP> 
2.76 
 
>  <lumo_energy> 
-0.093 
 
>  <melting_point> 
152.68 
 
>  <molecular_refractivity> 
55.59 
 
>  <oscillator_strength_1> 
0.0686 
 
>  <oscillator_strength_2> 
0.0016 
 
>  <oscillator_strength_3> 
0.0225 
 
>  <oscillator_strength_4> 
0.0184 
 
>  <open_babel_can_smiles> 
NCCCc1c[nH]c2c1cccc2 
 
>  <mulliken_charges> 
27 
1   -0.141412 
2   -0.15185 
3   -0.235384 
4   -0.353178 
5   -0.209383 
6   -0.163588 
7   -0.140253 
8   -0.004818 
9   0.07663 
10   0.074373 
11   0.313186 
12   -0.718592 
13   -0.689769 
14   0.118727 
15   0.121079 
16   0.143825 
17   0.120712 
18   0.139406 
19   0.141118 
20   0.124491 
21   0.118786 
22   0.132744 
23   0.131795 
24   0.14411 
25   0.288965 
26   0.293287 
27   0.324994 
 
>  <lowdin_charges> 
27 
1   -0.176748 
2   -0.166903 
3   -0.275669 
4   -0.271256 
5   -0.16294 
6   -0.186849 
7   -0.209335 
8   -0.135839 
9   -0.061657 
10   -0.037478 
11   0.030771 
12   -0.562671 
13   -0.202805 
14   0.152793 
15   0.155695 
16   0.147216 
17   0.136312 
18   0.151529 
19   0.149689 
20   0.153548 
21   0.152703 
22   0.127161 
23   0.13855 
24   0.16018 
25   0.25087 
26   0.252852 
27   0.290283 
 
$$$$ 
 
