PCCDB-ID:  15687 
public computational chemistry database (PCCDB) project, http://pccdb.org 
 
 18 18  0  0  0  0  0  0  0  0999 V2000 
   -1.5135   -0.0532    0.7547 C   0  0  0  0  0  0  0  0  0  0  0  0 
   -0.0385   -1.4780   -0.5789 C   0  0  0  0  0  0  0  0  0  0  0  0 
   -1.2900    1.2710    0.0290 C   0  0  0  0  0  0  0  0  0  0  0  0 
    1.1837   -1.1655    0.3010 C   0  0  0  0  0  0  0  0  0  0  0  0 
    1.1178    1.2534    0.3207 C   0  0  0  0  0  0  0  0  0  0  0  0 
   -1.3306   -1.2185   -0.0226 O   0  0  0  0  0  0  0  0  0  0  0  0 
    0.0099    1.4526   -0.5275 O   0  0  0  0  0  0  0  0  0  0  0  0 
    1.8254    0.0784    0.0316 O   0  0  0  0  0  0  0  0  0  0  0  0 
   -2.5603   -0.0834    1.0796 H   0  0  0  0  0  0  0  0  0  0  0  0 
   -0.9033   -0.0902    1.6703 H   0  0  0  0  0  0  0  0  0  0  0  0 
   -0.0565   -2.5552   -0.7789 H   0  0  0  0  0  0  0  0  0  0  0  0 
    0.0907   -0.9559   -1.5352 H   0  0  0  0  0  0  0  0  0  0  0  0 
   -1.5278    2.0899    0.7294 H   0  0  0  0  0  0  0  0  0  0  0  0 
   -1.9718    1.3474   -0.8232 H   0  0  0  0  0  0  0  0  0  0  0  0 
    1.9571   -1.9091    0.0860 H   0  0  0  0  0  0  0  0  0  0  0  0 
    0.9310   -1.2611    1.3687 H   0  0  0  0  0  0  0  0  0  0  0  0 
    0.8118    1.2859    1.3797 H   0  0  0  0  0  0  0  0  0  0  0  0 
    1.8295    2.0594    0.1226 H   0  0  0  0  0  0  0  0  0  0  0  0 
  1  9  1  0  0  0  0 
  1 10  1  0  0  0  0 
  2  6  1  0  0  0  0 
  2  4  1  0  0  0  0 
  3 13  1  0  0  0  0 
  3  1  1  0  0  0  0 
  4 16  1  0  0  0  0 
  5 17  1  0  0  0  0 
  6  1  1  0  0  0  0 
  7  3  1  0  0  0  0 
  7  5  1  0  0  0  0 
  8  4  1  0  0  0  0 
  8  5  1  0  0  0  0 
 11  2  1  0  0  0  0 
 12  2  1  0  0  0  0 
 14  3  1  0  0  0  0 
 15  4  1  0  0  0  0 
 18  5  1  0  0  0  0 
M  END 
>  <HBA> 
3 
 
>  <HBD> 
0 
 
>  <TPSA> 
27.69 
 
>  <cid> 
15687 
 
>  <dipole> 
1.74 
 
>  <excitation_energy_1> 
6.124 
 
>  <excitation_energy_2> 
6.44 
 
>  <excitation_energy_3> 
6.543 
 
>  <excitation_energy_4> 
6.786 
 
>  <homo_energy> 
-6.514 
 
>  <homo_lumo_gap> 
8.798 
 
>  <logP> 
0.007 
 
>  <lumo_energy> 
2.283 
 
>  <melting_point> 
-30.17 
 
>  <molecular_refractivity> 
27.29 
 
>  <oscillator_strength_1> 
0.0132 
 
>  <oscillator_strength_2> 
0.005 
 
>  <oscillator_strength_3> 
0.0053 
 
>  <oscillator_strength_4> 
0.0052 
 
>  <open_babel_can_smiles> 
C1OCCOCCO1 
 
>  <mulliken_charges> 
18 
1   -0.054746 
2   -0.034241 
3   -0.042078 
4   -0.071056 
5   0.174282 
6   -0.476013 
7   -0.464097 
8   -0.454877 
9   0.152235 
10   0.123603 
11   0.142212 
12   0.160006 
13   0.125069 
14   0.16027 
15   0.157185 
16   0.137665 
17   0.111685 
18   0.152894 
 
>  <lowdin_charges> 
18 
1   -0.156132 
2   -0.149078 
3   -0.150766 
4   -0.15198 
5   -0.02384 
6   -0.27554 
7   -0.271014 
8   -0.260471 
9   0.156701 
10   0.126169 
11   0.148485 
12   0.149095 
13   0.135044 
14   0.158188 
15   0.161413 
16   0.135437 
17   0.115474 
18   0.152815 
 
$$$$ 
 
