PCCDB-ID:  38622 
public computational chemistry database (PCCDB) project, http://pccdb.org 
 
 23 22  0  0  1  0  0  0  0  0999 V2000 
    2.8568    0.6122   -1.5160 C   0  0  0  0  0  0  0  0  0  0  0  0 
    1.6721   -1.4137   -0.6346 C   0  0  0  0  0  0  0  0  0  0  0  0 
    0.4951    1.0913    4.3236 C   0  0  0  0  0  0  0  0  0  0  0  0 
    0.8105    0.6331    1.8301 C   0  0  0  0  0  0  0  0  0  0  0  0 
    2.5000   -0.1610   -0.4820 C   0  0  0  0  0  0  0  0  0  0  0  0 
    0.3556    1.6431    2.9025 C   0  0  2  0  0  0  0  0  0  0  0  0 
    2.9601    0.2066    0.9047 C   0  0  0  0  0  0  0  0  0  0  0  0 
    2.2582    0.5021    1.9171 N   0  0  0  0  0  0  0  0  0  0  0  0 
    1.0764    2.8601    2.7451 O   0  0  0  0  0  0  0  0  0  0  0  0 
    4.3182    0.2168    1.0675 O   0  0  0  0  0  0  0  0  0  0  0  0 
    2.5432    0.3815   -2.5310 H   0  0  0  0  0  0  0  0  0  0  0  0 
    3.4496    1.5136   -1.3814 H   0  0  0  0  0  0  0  0  0  0  0  0 
    1.4513   -1.6076   -1.6886 H   0  0  0  0  0  0  0  0  0  0  0  0 
    0.7223   -1.3372   -0.0944 H   0  0  0  0  0  0  0  0  0  0  0  0 
    2.1988   -2.2848   -0.2249 H   0  0  0  0  0  0  0  0  0  0  0  0 
   -0.1658    0.2298    4.4830 H   0  0  0  0  0  0  0  0  0  0  0  0 
    0.2349    1.8674    5.0500 H   0  0  0  0  0  0  0  0  0  0  0  0 
    1.5261    0.7700    4.5082 H   0  0  0  0  0  0  0  0  0  0  0  0 
    0.4830    0.9893    0.8422 H   0  0  0  0  0  0  0  0  0  0  0  0 
    0.3268   -0.3366    2.0197 H   0  0  0  0  0  0  0  0  0  0  0  0 
   -0.6944    1.8971    2.7121 H   0  0  0  0  0  0  0  0  0  0  0  0 
    2.0138    2.5936    2.7396 H   0  0  0  0  0  0  0  0  0  0  0  0 
    4.7220   -0.0640    0.2311 H   0  0  0  0  0  0  0  0  0  0  0  0 
  1 12  1  0  0  0  0 
  1  5  2  0  0  0  0 
  2  5  1  0  0  0  0 
  2 15  1  0  0  0  0 
  2 14  1  0  0  0  0 
  3 16  1  0  0  0  0 
  3 18  1  0  0  0  0 
  3 17  1  0  0  0  0 
  4  8  1  0  0  0  0 
  4 20  1  0  0  0  0 
  4  6  1  0  0  0  0 
  5  7  1  0  0  0  0 
  6 21  1  6  0  0  0 
  6  3  1  0  0  0  0 
  7 10  1  0  0  0  0 
  7  8  2  0  0  0  0 
  9  6  1  0  0  0  0 
 11  1  1  0  0  0  0 
 13  2  1  0  0  0  0 
 19  4  1  0  0  0  0 
 22  9  1  0  0  0  0 
 23 10  1  0  0  0  0 
M  END 
>  <HBA> 
3 
 
>  <HBD> 
2 
 
>  <TPSA> 
49.33 
 
>  <cid> 
38622 
 
>  <dipole> 
4.66 
 
>  <excitation_energy_1> 
4.893 
 
>  <excitation_energy_2> 
5.387 
 
>  <excitation_energy_3> 
5.505 
 
>  <excitation_energy_4> 
6.057 
 
>  <homo_energy> 
-6.572 
 
>  <homo_lumo_gap> 
5.88 
 
>  <logP> 
0.45 
 
>  <lumo_energy> 
-0.691 
 
>  <melting_point> 
22.78 
 
>  <molecular_refractivity> 
39.45 
 
>  <oscillator_strength_1> 
0.0034 
 
>  <oscillator_strength_2> 
0.0613 
 
>  <oscillator_strength_3> 
0.0042 
 
>  <oscillator_strength_4> 
0.0016 
 
>  <open_babel_can_smiles> 
C[C@H](C/N=C(\C(=C)C)/O)O 
 
>  <mulliken_charges> 
23 
1   -0.377583 
2   -0.507983 
3   -0.45846 
4   -0.157928 
5   0.102703 
6   0.143379 
7   0.43633 
8   -0.439645 
9   -0.635868 
10   -0.576424 
11   0.154444 
12   0.163958 
13   0.161706 
14   0.179422 
15   0.168756 
16   0.127398 
17   0.152421 
18   0.161229 
19   0.13814 
20   0.136251 
21   0.125251 
22   0.39771 
23   0.404794 
 
>  <lowdin_charges> 
23 
1   -0.332466 
2   -0.437588 
3   -0.464465 
4   -0.218945 
5   -0.02933 
6   -0.001804 
7   0.133053 
8   -0.215416 
9   -0.467887 
10   -0.363963 
11   0.164299 
12   0.168182 
13   0.160637 
14   0.169256 
15   0.165127 
16   0.145005 
17   0.156876 
18   0.156963 
19   0.138278 
20   0.14263 
21   0.136827 
22   0.339326 
23   0.355402 
 
$$$$ 
 
