PCCDB-ID:  7756 
public computational chemistry database (PCCDB) project, http://pccdb.org 
 
 21 20  0  0  0  0  0  0  0  0999 V2000 
    2.8754    1.6485    0.1522 C   0  0  0  0  0  0  0  0  0  0  0  0 
    1.1181   -0.1596    0.3760 C   0  0  0  0  0  0  0  0  0  0  0  0 
    5.5839   -1.2095   -0.0569 C   0  0  0  0  0  0  0  0  0  0  0  0 
    3.2074   -0.6183   -0.9714 C   0  0  0  0  0  0  0  0  0  0  0  0 
    2.6186    0.1381    0.2452 C   0  0  0  0  0  0  0  0  0  0  0  0 
    4.7099   -0.5388   -1.0864 C   0  0  0  0  0  0  0  0  0  0  0  0 
    5.1691    0.1191   -2.0879 N   0  0  0  0  0  0  0  0  0  0  0  0 
    6.5851    0.1337   -2.0848 O   0  0  0  0  0  0  0  0  0  0  0  0 
    2.4758    2.1676    1.0313 H   0  0  0  0  0  0  0  0  0  0  0  0 
    2.3890    2.0712   -0.7364 H   0  0  0  0  0  0  0  0  0  0  0  0 
    3.9440    1.8756    0.0795 H   0  0  0  0  0  0  0  0  0  0  0  0 
    0.6897    0.3468    1.2488 H   0  0  0  0  0  0  0  0  0  0  0  0 
    0.9291   -1.2344    0.4840 H   0  0  0  0  0  0  0  0  0  0  0  0 
    0.5722    0.1881   -0.5106 H   0  0  0  0  0  0  0  0  0  0  0  0 
    4.9916   -1.8038    0.6439 H   0  0  0  0  0  0  0  0  0  0  0  0 
    6.1563   -0.4656    0.5102 H   0  0  0  0  0  0  0  0  0  0  0  0 
    6.3183   -1.8572   -0.5474 H   0  0  0  0  0  0  0  0  0  0  0  0 
    2.7655   -0.2242   -1.8940 H   0  0  0  0  0  0  0  0  0  0  0  0 
    2.9203   -1.6779   -0.8974 H   0  0  0  0  0  0  0  0  0  0  0  0 
    3.1150   -0.2371    1.1529 H   0  0  0  0  0  0  0  0  0  0  0  0 
    6.7788    0.6358   -2.8911 H   0  0  0  0  0  0  0  0  0  0  0  0 
  1  5  1  0  0  0  0 
  1  9  1  0  0  0  0 
  2 13  1  0  0  0  0 
  2 12  1  0  0  0  0 
  3 16  1  0  0  0  0 
  3 15  1  0  0  0  0 
  4 19  1  0  0  0  0 
  4  5  1  0  0  0  0 
  5  2  1  0  0  0  0 
  5 20  1  0  0  0  0 
  6  4  1  0  0  0  0 
  6  3  1  0  0  0  0 
  7  8  1  0  0  0  0 
  7  6  2  0  0  0  0 
 10  1  1  0  0  0  0 
 11  1  1  0  0  0  0 
 14  2  1  0  0  0  0 
 17  3  1  0  0  0  0 
 18  4  1  0  0  0  0 
 21  8  1  0  0  0  0 
M  END 
>  <HBA> 
2 
 
>  <HBD> 
1 
 
>  <TPSA> 
32.59 
 
>  <cid> 
7756 
 
>  <dipole> 
0.66 
 
>  <excitation_energy_1> 
6.072 
 
>  <excitation_energy_2> 
6.124 
 
>  <excitation_energy_3> 
6.488 
 
>  <excitation_energy_4> 
6.617 
 
>  <homo_energy> 
-6.493 
 
>  <homo_lumo_gap> 
6.909 
 
>  <logP> 
1.883 
 
>  <lumo_energy> 
0.416 
 
>  <melting_point> 
45.21 
 
>  <molecular_refractivity> 
35.37 
 
>  <oscillator_strength_1> 
0.0064 
 
>  <oscillator_strength_2> 
0.006 
 
>  <oscillator_strength_3> 
0.0569 
 
>  <oscillator_strength_4> 
0.151 
 
>  <open_babel_can_smiles> 
CC(C/C(=N/O)/C)C 
 
>  <mulliken_charges> 
21 
1   -0.439723 
2   -0.440544 
3   -0.504834 
4   -0.314639 
5   -0.079086 
6   0.326459 
7   -0.228619 
8   -0.520124 
9   0.138585 
10   0.143042 
11   0.153763 
12   0.142913 
13   0.139292 
14   0.142445 
15   0.149996 
16   0.178194 
17   0.1818 
18   0.153827 
19   0.137929 
20   0.125746 
21   0.413577 
 
>  <lowdin_charges> 
21 
1   -0.446083 
2   -0.443497 
3   -0.462613 
4   -0.274952 
5   -0.120115 
6   0.023683 
7   -0.081381 
8   -0.393301 
9   0.148393 
10   0.148937 
11   0.152797 
12   0.150429 
13   0.145453 
14   0.147966 
15   0.158133 
16   0.174285 
17   0.176443 
18   0.158107 
19   0.147905 
20   0.136445 
21   0.352967 
 
$$$$ 
 
