PCCDB-ID:  17072 
public computational chemistry database (PCCDB) project, http://pccdb.org 
 
 30 29  0  0  0  0  0  0  0  0999 V2000 
    0.4545   -4.5160   -0.6064 C   0  0  0  0  0  0  0  0  0  0  0  0 
    0.7628   -2.0341   -0.9387 C   0  0  0  0  0  0  0  0  0  0  0  0 
    5.2488   -2.7658   -0.4065 C   0  0  0  0  0  0  0  0  0  0  0  0 
    5.9350   -4.1241   -0.6207 C   0  0  0  0  0  0  0  0  0  0  0  0 
    3.8683   -2.6302   -1.0738 C   0  0  0  0  0  0  0  0  0  0  0  0 
    7.3682   -4.2099   -0.0672 C   0  0  0  0  0  0  0  0  0  0  0  0 
    2.7841   -3.5416   -0.4794 C   0  0  0  0  0  0  0  0  0  0  0  0 
    7.4775   -4.0888    1.4570 C   0  0  0  0  0  0  0  0  0  0  0  0 
    1.3930   -3.4213   -1.1363 C   0  0  0  0  0  0  0  0  0  0  0  0 
    6.7792   -5.1179    2.1535 O   0  0  0  0  0  0  0  0  0  0  0  0 
   -0.5271   -4.4693   -1.0928 H   0  0  0  0  0  0  0  0  0  0  0  0 
    0.2940   -4.4049    0.4742 H   0  0  0  0  0  0  0  0  0  0  0  0 
    0.8679   -5.5169   -0.7796 H   0  0  0  0  0  0  0  0  0  0  0  0 
   -0.2303   -1.9868   -1.4010 H   0  0  0  0  0  0  0  0  0  0  0  0 
    1.3688   -1.2360   -1.3803 H   0  0  0  0  0  0  0  0  0  0  0  0 
    0.6415   -1.8103    0.1297 H   0  0  0  0  0  0  0  0  0  0  0  0 
    5.9077   -1.9779   -0.7988 H   0  0  0  0  0  0  0  0  0  0  0  0 
    5.1426   -2.5583    0.6685 H   0  0  0  0  0  0  0  0  0  0  0  0 
    5.9631   -4.3389   -1.6979 H   0  0  0  0  0  0  0  0  0  0  0  0 
    5.3357   -4.9309   -0.1765 H   0  0  0  0  0  0  0  0  0  0  0  0 
    3.9656   -2.8378   -2.1500 H   0  0  0  0  0  0  0  0  0  0  0  0 
    3.5512   -1.5828   -0.9931 H   0  0  0  0  0  0  0  0  0  0  0  0 
    7.9867   -3.4225   -0.5227 H   0  0  0  0  0  0  0  0  0  0  0  0 
    7.8073   -5.1709   -0.3641 H   0  0  0  0  0  0  0  0  0  0  0  0 
    2.6860   -3.3341    0.5984 H   0  0  0  0  0  0  0  0  0  0  0  0 
    3.1079   -4.5883   -0.5596 H   0  0  0  0  0  0  0  0  0  0  0  0 
    7.1447   -3.0935    1.7921 H   0  0  0  0  0  0  0  0  0  0  0  0 
    8.5249   -4.1937    1.7586 H   0  0  0  0  0  0  0  0  0  0  0  0 
    1.5218   -3.5839   -2.2179 H   0  0  0  0  0  0  0  0  0  0  0  0 
    5.8306   -4.9667    2.0262 H   0  0  0  0  0  0  0  0  0  0  0  0 
  1 12  1  0  0  0  0 
  2 16  1  0  0  0  0 
  3 18  1  0  0  0  0 
  4  3  1  0  0  0  0 
  4 20  1  0  0  0  0 
  4  6  1  0  0  0  0 
  5 22  1  0  0  0  0 
  5  7  1  0  0  0  0 
  5  3  1  0  0  0  0 
  6  8  1  0  0  0  0 
  7 25  1  0  0  0  0 
  8 28  1  0  0  0  0 
  8 27  1  0  0  0  0 
  8 10  1  0  0  0  0 
  9  2  1  0  0  0  0 
  9  1  1  0  0  0  0 
  9  7  1  0  0  0  0 
 11  1  1  0  0  0  0 
 13  1  1  0  0  0  0 
 14  2  1  0  0  0  0 
 15  2  1  0  0  0  0 
 17  3  1  0  0  0  0 
 19  4  1  0  0  0  0 
 21  5  1  0  0  0  0 
 23  6  1  0  0  0  0 
 24  6  1  0  0  0  0 
 26  7  1  0  0  0  0 
 29  9  1  0  0  0  0 
 30 10  1  0  0  0  0 
M  END 
>  <HBA> 
1 
 
>  <HBD> 
1 
 
>  <TPSA> 
20.23 
 
>  <cid> 
17072 
 
>  <dipole> 
1.84 
 
>  <excitation_energy_1> 
6.369 
 
>  <excitation_energy_2> 
7.036 
 
>  <excitation_energy_3> 
7.18 
 
>  <excitation_energy_4> 
7.22 
 
>  <homo_energy> 
-7.078 
 
>  <homo_lumo_gap> 
8.686 
 
>  <logP> 
2.585 
 
>  <lumo_energy> 
1.608 
 
>  <melting_point> 
-9.94 
 
>  <molecular_refractivity> 
46.54 
 
>  <oscillator_strength_1> 
0.0067 
 
>  <oscillator_strength_2> 
0.0166 
 
>  <oscillator_strength_3> 
0.0046 
 
>  <oscillator_strength_4> 
0.0053 
 
>  <open_babel_can_smiles> 
OCCCCCCC(C)C 
 
>  <mulliken_charges> 
30 
1   -0.442887 
2   -0.445246 
3   -0.258858 
4   -0.273178 
5   -0.260722 
6   -0.264236 
7   -0.250618 
8   -0.039763 
9   -0.064766 
10   -0.617231 
11   0.140018 
12   0.137999 
13   0.139425 
14   0.140636 
15   0.144922 
16   0.137399 
17   0.130398 
18   0.124615 
19   0.135177 
20   0.129009 
21   0.127734 
22   0.133855 
23   0.125278 
24   0.142105 
25   0.118688 
26   0.130022 
27   0.122492 
28   0.145258 
29   0.1205 
30   0.391974 
 
>  <lowdin_charges> 
30 
1   -0.441283 
2   -0.446166 
3   -0.278197 
4   -0.284124 
5   -0.273787 
6   -0.295386 
7   -0.275582 
8   -0.135491 
9   -0.117735 
10   -0.469167 
11   0.147365 
12   0.143278 
13   0.146228 
14   0.148162 
15   0.149391 
16   0.143369 
17   0.142885 
18   0.132902 
19   0.143295 
20   0.136814 
21   0.136257 
22   0.141685 
23   0.143424 
24   0.149043 
25   0.132003 
26   0.138466 
27   0.124342 
28   0.146371 
29   0.132674 
30   0.338966 
 
$$$$ 
 
