PCCDB-ID:  40091 
public computational chemistry database (PCCDB) project, http://pccdb.org 
 
 32 33  0  0  1  0  0  0  0  0999 V2000 
    2.8822   -0.3886    1.6101 C   0  0  0  0  0  0  0  0  0  0  0  0 
    1.5778    1.6646   -0.0298 C   0  0  0  0  0  0  0  0  0  0  0  0 
    2.7660   -3.9125   -4.6104 C   0  0  0  0  0  0  0  0  0  0  0  0 
    3.5360    1.4399   -2.3281 C   0  0  0  0  0  0  0  0  0  0  0  0 
    3.7458    2.1916   -1.0025 C   0  0  0  0  0  0  0  0  0  0  0  0 
    3.6656   -0.8983   -3.2668 C   0  0  0  0  0  0  0  0  0  0  0  0 
    3.6318   -2.0456   -0.7609 C   0  0  0  0  0  0  0  0  0  0  0  0 
    3.5605    0.2460    0.3892 C   0  0  1  0  0  0  0  0  0  0  0  0 
    3.6043   -0.0650   -2.1424 C   0  0  0  0  0  0  0  0  0  0  0  0 
    3.5752   -0.6481   -0.8629 C   0  0  0  0  0  0  0  0  0  0  0  0 
    3.7109   -2.8663   -1.8845 C   0  0  0  0  0  0  0  0  0  0  0  0 
    3.7193   -2.2840   -3.1655 C   0  0  0  0  0  0  0  0  0  0  0  0 
    3.0290    1.5948    0.1252 N   0  0  0  0  0  0  0  0  0  0  0  0 
    3.7897   -4.2336   -1.7977 O   0  0  0  0  0  0  0  0  0  0  0  0 
    3.8513   -3.0325   -4.3106 O   0  0  0  0  0  0  0  0  0  0  0  0 
    1.8768   -0.7582    1.3837 H   0  0  0  0  0  0  0  0  0  0  0  0 
    2.8127    0.3549    2.4104 H   0  0  0  0  0  0  0  0  0  0  0  0 
    3.4691   -1.2305    1.9903 H   0  0  0  0  0  0  0  0  0  0  0  0 
    1.3022    2.6999   -0.2587 H   0  0  0  0  0  0  0  0  0  0  0  0 
    1.0865    1.3952    0.9097 H   0  0  0  0  0  0  0  0  0  0  0  0 
    1.1654    1.0184   -0.8249 H   0  0  0  0  0  0  0  0  0  0  0  0 
    3.0183   -4.3872   -5.5616 H   0  0  0  0  0  0  0  0  0  0  0  0 
    1.8287   -3.3508   -4.7244 H   0  0  0  0  0  0  0  0  0  0  0  0 
    2.6410   -4.6799   -3.8401 H   0  0  0  0  0  0  0  0  0  0  0  0 
    4.2836    1.7653   -3.0636 H   0  0  0  0  0  0  0  0  0  0  0  0 
    2.5596    1.7095   -2.7568 H   0  0  0  0  0  0  0  0  0  0  0  0 
    3.4368    3.2391   -1.1037 H   0  0  0  0  0  0  0  0  0  0  0  0 
    4.8135    2.1953   -0.7457 H   0  0  0  0  0  0  0  0  0  0  0  0 
    3.6861   -0.4694   -4.2658 H   0  0  0  0  0  0  0  0  0  0  0  0 
    3.6267   -2.5189    0.2190 H   0  0  0  0  0  0  0  0  0  0  0  0 
    4.6121    0.4128    0.6725 H   0  0  0  0  0  0  0  0  0  0  0  0 
    3.7901   -4.4805   -0.8599 H   0  0  0  0  0  0  0  0  0  0  0  0 
  1 18  1  0  0  0  0 
  1 17  1  0  0  0  0 
  2 13  1  0  0  0  0 
  2 20  1  0  0  0  0 
  3 15  1  0  0  0  0 
  3 24  1  0  0  0  0 
  4  9  1  0  0  0  0 
  4  5  1  0  0  0  0 
  5 28  1  0  0  0  0 
  5 13  1  0  0  0  0 
  6 12  2  0  0  0  0 
  6  9  1  0  0  0  0 
  7 30  1  0  0  0  0 
  8 31  1  1  0  0  0 
  8  1  1  0  0  0  0 
  9 10  2  0  0  0  0 
 10  7  1  0  0  0  0 
 10  8  1  0  0  0  0 
 11 14  1  0  0  0  0 
 11  7  2  0  0  0  0 
 12 11  1  0  0  0  0 
 13  8  1  0  0  0  0 
 14 32  1  0  0  0  0 
 15 12  1  0  0  0  0 
 16  1  1  0  0  0  0 
 19  2  1  0  0  0  0 
 21  2  1  0  0  0  0 
 22  3  1  0  0  0  0 
 23  3  1  0  0  0  0 
 25  4  1  0  0  0  0 
 26  4  1  0  0  0  0 
 27  5  1  0  0  0  0 
 29  6  1  0  0  0  0 
M  END 
>  <HBA> 
3 
 
>  <HBD> 
1 
 
>  <TPSA> 
32.7 
 
>  <cid> 
40091 
 
>  <dipole> 
1.89 
 
>  <excitation_energy_1> 
4.574 
 
>  <excitation_energy_2> 
4.753 
 
>  <excitation_energy_3> 
4.821 
 
>  <excitation_energy_4> 
4.88 
 
>  <homo_energy> 
-5.494 
 
>  <homo_lumo_gap> 
5.627 
 
>  <logP> 
1.888 
 
>  <lumo_energy> 
0.133 
 
>  <melting_point> 
82.3 
 
>  <molecular_refractivity> 
64.01 
 
>  <oscillator_strength_1> 
0.0131 
 
>  <oscillator_strength_2> 
0.0461 
 
>  <oscillator_strength_3> 
0.0149 
 
>  <oscillator_strength_4> 
0.0022 
 
>  <open_babel_can_smiles> 
COc1cc2CCN([C@H](c2cc1O)C)C 
 
>  <mulliken_charges> 
32 
1   -0.474487 
2   -0.309099 
3   -0.212858 
4   -0.354853 
5   -0.148664 
6   -0.247703 
7   -0.273661 
8   -0.035223 
9   0.115042 
10   0.112097 
11   0.322039 
12   0.338079 
13   -0.372582 
14   -0.648025 
15   -0.523966 
16   0.152614 
17   0.161261 
18   0.145653 
19   0.145672 
20   0.152513 
21   0.131508 
22   0.156773 
23   0.136234 
24   0.167464 
25   0.146225 
26   0.150432 
27   0.13619 
28   0.141134 
29   0.127273 
30   0.108659 
31   0.146507 
32   0.407754 
 
>  <lowdin_charges> 
32 
1   -0.450645 
2   -0.362813 
3   -0.276861 
4   -0.293923 
5   -0.200806 
6   -0.17536 
7   -0.220485 
8   -0.059109 
9   -0.028098 
10   -0.030354 
11   0.077019 
12   0.065904 
13   -0.186931 
14   -0.379374 
15   -0.223732 
16   0.151542 
17   0.161445 
18   0.152462 
19   0.149373 
20   0.151978 
21   0.128512 
22   0.155017 
23   0.137039 
24   0.152483 
25   0.155107 
26   0.149808 
27   0.142896 
28   0.141584 
29   0.162498 
30   0.150631 
31   0.147327 
32   0.355864 
 
$$$$ 
 
