PCCDB-ID:  70718 
public computational chemistry database (PCCDB) project, http://pccdb.org 
 
 14 14  0  0  0  0  0  0  0  0999 V2000 
   -1.3757   -0.0616    0.0156 C   0  0  0  0  0  0  0  0  0  0  0  0 
   -0.6258   -1.2365    0.0107 C   0  0  0  0  0  0  0  0  0  0  0  0 
   -0.7288    1.1745   -0.0164 C   0  0  0  0  0  0  0  0  0  0  0  0 
    0.7685   -1.1719   -0.0240 C   0  0  0  0  0  0  0  0  0  0  0  0 
    0.6647    1.2386   -0.0521 C   0  0  0  0  0  0  0  0  0  0  0  0 
    1.4300    0.0590   -0.0557 C   0  0  0  0  0  0  0  0  0  0  0  0 
    1.3557    2.4185   -0.0845 O   0  0  0  0  0  0  0  0  0  0  0  0 
    3.2066    0.2360   -0.1011 S   0  0  0  0  0  0  0  0  0  0  0  0 
   -2.4607   -0.1000    0.0427 H   0  0  0  0  0  0  0  0  0  0  0  0 
   -1.1187   -2.2039    0.0340 H   0  0  0  0  0  0  0  0  0  0  0  0 
   -1.3047    2.0985   -0.0123 H   0  0  0  0  0  0  0  0  0  0  0  0 
    1.3497   -2.0903   -0.0286 H   0  0  0  0  0  0  0  0  0  0  0  0 
    0.7287    3.1579   -0.0803 H   0  0  0  0  0  0  0  0  0  0  0  0 
    3.4648   -1.0884   -0.0955 H   0  0  0  0  0  0  0  0  0  0  0  0 
  1  9  1  0  0  0  0 
  2  1  1  0  0  0  0 
  2 10  1  0  0  0  0 
  3 11  1  0  0  0  0 
  3  1  2  0  0  0  0 
  4  2  2  0  0  0  0 
  5  3  1  0  0  0  0 
  6  5  2  0  0  0  0 
  6  4  1  0  0  0  0 
  7 13  1  0  0  0  0 
  7  5  1  0  0  0  0 
  8 14  1  0  0  0  0 
  8  6  1  0  0  0  0 
 12  4  1  0  0  0  0 
M  END 
>  <HBA> 
2 
 
>  <HBD> 
2 
 
>  <TPSA> 
59.03 
 
>  <cid> 
70718 
 
>  <dipole> 
1.98 
 
>  <excitation_energy_1> 
4.655 
 
>  <excitation_energy_2> 
4.686 
 
>  <excitation_energy_3> 
5.087 
 
>  <excitation_energy_4> 
5.235 
 
>  <homo_energy> 
-5.655 
 
>  <homo_lumo_gap> 
5.535 
 
>  <logP> 
1.681 
 
>  <lumo_energy> 
-0.12 
 
>  <melting_point> 
69.06 
 
>  <molecular_refractivity> 
35.72 
 
>  <oscillator_strength_1> 
0.0816 
 
>  <oscillator_strength_2> 
0.005 
 
>  <oscillator_strength_3> 
0.0 
 
>  <oscillator_strength_4> 
0.108 
 
>  <open_babel_can_smiles> 
Oc1ccccc1S 
 
>  <mulliken_charges> 
14 
1   -0.141924 
2   -0.121158 
3   -0.179239 
4   -0.157871 
5   0.337491 
6   -0.115569 
7   -0.634998 
8   0.005525 
9   0.132526 
10   0.130213 
11   0.120582 
12   0.128734 
13   0.41248 
14   0.083207 
 
>  <lowdin_charges> 
14 
1   -0.152449 
2   -0.171246 
3   -0.20619 
4   -0.165087 
5   0.092032 
6   -0.141929 
7   -0.370197 
8   0.008729 
9   0.15807 
10   0.159939 
11   0.155543 
12   0.159179 
13   0.362659 
14   0.110948 
 
$$$$ 
 
