PCCDB-ID:  69380 
public computational chemistry database (PCCDB) project, http://pccdb.org 
 
 17 16  0  0  1  0  0  0  0  0999 V2000 
    1.2754   -0.1596    1.8603 C   0  0  0  0  0  0  0  0  0  0  0  0 
    2.5629   -0.9600    1.8883 C   0  0  0  0  0  0  0  0  0  0  0  0 
    5.2456    0.5757   -1.0363 C   0  0  0  0  0  0  0  0  0  0  0  0 
    4.6549   -0.8816    0.6984 C   0  0  1  0  0  0  0  0  0  0  0  0 
    5.9678    1.6032   -1.2555 N   0  0  0  0  0  0  0  0  0  0  0  0 
    5.5209   -0.4540   -0.1368 N   0  0  0  0  0  0  0  0  0  0  0  0 
    4.1317    0.3617   -1.7858 O   0  0  0  0  0  0  0  0  0  0  0  0 
    4.9483   -1.9286    1.4965 O   0  0  0  0  0  0  0  0  0  0  0  0 
    3.4498   -0.3611    0.9077 O   0  0  0  0  0  0  0  0  0  0  0  0 
    0.5680   -0.5754    2.5860 H   0  0  0  0  0  0  0  0  0  0  0  0 
    0.8176   -0.1958    0.8673 H   0  0  0  0  0  0  0  0  0  0  0  0 
    1.4621    0.8873    2.1179 H   0  0  0  0  0  0  0  0  0  0  0  0 
    2.3973   -2.0083    1.6226 H   0  0  0  0  0  0  0  0  0  0  0  0 
    3.0443   -0.9252    2.8705 H   0  0  0  0  0  0  0  0  0  0  0  0 
    6.7701    1.6018   -0.6258 H   0  0  0  0  0  0  0  0  0  0  0  0 
    4.0926    1.1223   -2.3936 H   0  0  0  0  0  0  0  0  0  0  0  0 
    5.8428   -2.2119    1.2356 H   0  0  0  0  0  0  0  0  0  0  0  0 
  1  2  1  0  0  0  0 
  1 12  1  0  0  0  0 
  1 10  1  0  0  0  0 
  2 14  1  0  0  0  0 
  3  6  2  0  0  0  0 
  4  6  1  1  0  0  0 
  4  9  1  0  0  0  0 
  4  8  1  0  0  0  0 
  5  3  1  0  0  0  0 
  5 15  1  0  0  0  0 
  7  3  1  0  0  0  0 
  9  2  1  0  0  0  0 
 11  1  1  0  0  0  0 
 13  2  1  0  0  0  0 
 16  7  1  0  0  0  0 
 17  8  1  0  0  0  0 
M  RAD  2   4   2   5   2 
M  END 
>  <HBA> 
5 
 
>  <HBD> 
2 
 
>  <TPSA> 
81.42 
 
>  <cid> 
69380 
 
>  <dipole> 
3.93 
 
>  <excitation_energy_1> 
5.853 
 
>  <excitation_energy_2> 
6.016 
 
>  <excitation_energy_3> 
6.095 
 
>  <excitation_energy_4> 
6.406 
 
>  <homo_energy> 
-6.449 
 
>  <homo_lumo_gap> 
6.768 
 
>  <logP> 
0.902 
 
>  <lumo_energy> 
0.318 
 
>  <melting_point> 
110.69 
 
>  <molecular_refractivity> 
29.11 
 
>  <oscillator_strength_1> 
0.0405 
 
>  <oscillator_strength_2> 
0.1262 
 
>  <oscillator_strength_3> 
0.0541 
 
>  <oscillator_strength_4> 
0.0089 
 
>  <open_babel_can_smiles> 
CCO[C](/N=C(/O)\[NH])O 
 
>  <mulliken_charges> 
17 
1   -0.461515 
2   -0.034229 
3   0.58713 
4   0.75882 
5   -0.632392 
6   -0.551825 
7   -0.581742 
8   -0.594251 
9   -0.4507 
10   0.155134 
11   0.173563 
12   0.169858 
13   0.16546 
14   0.16368 
15   0.288008 
16   0.412624 
17   0.432376 
 
>  <lowdin_charges> 
17 
1   -0.44701 
2   -0.114276 
3   0.159559 
4   0.221919 
5   -0.454766 
6   -0.264811 
7   -0.375934 
8   -0.351267 
9   -0.170196 
10   0.162454 
11   0.164863 
12   0.1623 
13   0.152615 
14   0.152447 
15   0.261943 
16   0.363416 
17   0.376743 
 
$$$$ 
 
