PCCDB-ID:  30268 
public computational chemistry database (PCCDB) project, http://pccdb.org 
 
 36 36  0  0  1  0  0  0  0  0999 V2000 
    3.6802   -4.0479   -1.4317 C   0  0  0  0  0  0  0  0  0  0  0  0 
    3.1620   -2.7959   -3.5735 C   0  0  0  0  0  0  0  0  0  0  0  0 
    5.8126    1.2348    6.2725 C   0  0  0  0  0  0  0  0  0  0  0  0 
    5.1753    0.0809    6.7282 C   0  0  0  0  0  0  0  0  0  0  0  0 
    5.8675    1.4972    4.9012 C   0  0  0  0  0  0  0  0  0  0  0  0 
    4.5974   -0.8040    5.8152 C   0  0  0  0  0  0  0  0  0  0  0  0 
    5.2868    0.6144    3.9913 C   0  0  0  0  0  0  0  0  0  0  0  0 
    4.7091   -1.7577   -1.8699 C   0  0  0  0  0  0  0  0  0  0  0  0 
    3.9842   -1.5132    3.4636 C   0  0  0  0  0  0  0  0  0  0  0  0 
    4.2200   -3.0867   -2.5004 C   0  0  0  0  0  0  0  0  0  0  0  0 
    4.6423   -0.5474    4.4405 C   0  0  0  0  0  0  0  0  0  0  0  0 
    5.8623   -1.9397   -0.9056 C   0  0  1  0  0  0  0  0  0  0  0  0 
    4.8483   -1.2529    1.1131 C   0  0  0  0  0  0  0  0  0  0  0  0 
    4.0982   -0.2888    0.6987 N   0  0  0  0  0  0  0  0  0  0  0  0 
    4.8002   -1.9123    2.3308 N   0  0  0  0  0  0  0  0  0  0  0  0 
    5.9104   -1.7716    0.3558 N   0  0  0  0  0  0  0  0  0  0  0  0 
    7.0148   -2.4008   -1.4667 O   0  0  0  0  0  0  0  0  0  0  0  0 
    3.3558   -4.9921   -1.8837 H   0  0  0  0  0  0  0  0  0  0  0  0 
    2.8178   -3.6062   -0.9172 H   0  0  0  0  0  0  0  0  0  0  0  0 
    4.4368   -4.2782   -0.6738 H   0  0  0  0  0  0  0  0  0  0  0  0 
    2.8179   -3.7233   -4.0457 H   0  0  0  0  0  0  0  0  0  0  0  0 
    3.5555   -2.1423   -4.3612 H   0  0  0  0  0  0  0  0  0  0  0  0 
    2.2878   -2.2996   -3.1342 H   0  0  0  0  0  0  0  0  0  0  0  0 
    6.2672    1.9234    6.9798 H   0  0  0  0  0  0  0  0  0  0  0  0 
    5.1336   -0.1362    7.7924 H   0  0  0  0  0  0  0  0  0  0  0  0 
    6.3631    2.3937    4.5377 H   0  0  0  0  0  0  0  0  0  0  0  0 
    4.1082   -1.7068    6.1758 H   0  0  0  0  0  0  0  0  0  0  0  0 
    5.3346    0.8258    2.9267 H   0  0  0  0  0  0  0  0  0  0  0  0 
    3.8966   -1.2527   -1.3444 H   0  0  0  0  0  0  0  0  0  0  0  0 
    5.0416   -1.0738   -2.6653 H   0  0  0  0  0  0  0  0  0  0  0  0 
    3.0555   -1.0836    3.0677 H   0  0  0  0  0  0  0  0  0  0  0  0 
    3.6833   -2.4194    4.0028 H   0  0  0  0  0  0  0  0  0  0  0  0 
    5.0698   -3.5811   -2.9984 H   0  0  0  0  0  0  0  0  0  0  0  0 
    3.4396    0.0074    1.4215 H   0  0  0  0  0  0  0  0  0  0  0  0 
    5.6415   -2.4360    2.5347 H   0  0  0  0  0  0  0  0  0  0  0  0 
    6.8854   -2.4861   -2.4242 H   0  0  0  0  0  0  0  0  0  0  0  0 
  1 19  1  0  0  0  0 
  1 20  1  0  0  0  0 
  2 23  1  0  0  0  0 
  2 10  1  0  0  0  0 
  3  4  1  0  0  0  0 
  3 24  1  0  0  0  0 
  4 25  1  0  0  0  0 
  5  3  2  0  0  0  0 
  6 27  1  0  0  0  0 
  6  4  2  0  0  0  0 
  7 11  2  0  0  0  0 
  7  5  1  0  0  0  0 
  8 29  1  0  0  0  0 
  8 12  1  0  0  0  0 
  9 32  1  0  0  0  0 
  9 11  1  0  0  0  0 
 10  8  1  0  0  0  0 
 10  1  1  0  0  0  0 
 11  6  1  0  0  0  0 
 12 17  1  1  0  0  0 
 12 16  1  0  0  0  0 
 13 15  1  0  0  0  0 
 14 13  1  0  0  0  0 
 14 34  1  0  0  0  0 
 15 35  1  0  0  0  0 
 15  9  1  0  0  0  0 
 16 13  2  0  0  0  0 
 18  1  1  0  0  0  0 
 21  2  1  0  0  0  0 
 22  2  1  0  0  0  0 
 26  5  1  0  0  0  0 
 28  7  1  0  0  0  0 
 30  8  1  0  0  0  0 
 31  9  1  0  0  0  0 
 33 10  1  0  0  0  0 
 36 17  1  0  0  0  0 
M  RAD  2  12   2  14   2 
M  END 
>  <HBA> 
4 
 
>  <HBD> 
2 
 
>  <TPSA> 
67.48 
 
>  <cid> 
30268 
 
>  <dipole> 
2.08 
 
>  <excitation_energy_1> 
4.871 
 
>  <excitation_energy_2> 
5.045 
 
>  <excitation_energy_3> 
5.118 
 
>  <excitation_energy_4> 
5.262 
 
>  <homo_energy> 
-5.902 
 
>  <homo_lumo_gap> 
5.671 
 
>  <logP> 
2.755 
 
>  <lumo_energy> 
-0.231 
 
>  <melting_point> 
123.85 
 
>  <molecular_refractivity> 
69.64 
 
>  <oscillator_strength_1> 
0.0243 
 
>  <oscillator_strength_2> 
0.0075 
 
>  <oscillator_strength_3> 
0.0249 
 
>  <oscillator_strength_4> 
0.027 
 
>  <open_babel_can_smiles> 
O[C](/N=C(/NCc1ccccc1)\[NH])CC(C)C 
 
>  <mulliken_charges> 
36 
1   -0.447832 
2   -0.44039 
3   -0.128874 
4   -0.126259 
5   -0.130361 
6   -0.189002 
7   -0.186427 
8   -0.363473 
9   -0.242587 
10   -0.08348 
11   0.167732 
12   0.515891 
13   0.592196 
14   -0.659362 
15   -0.57641 
16   -0.498474 
17   -0.573809 
18   0.143634 
19   0.151225 
20   0.160339 
21   0.146201 
22   0.140646 
23   0.151512 
24   0.129213 
25   0.128754 
26   0.132992 
27   0.121727 
28   0.155629 
29   0.212847 
30   0.147457 
31   0.163835 
32   0.156082 
33   0.110173 
34   0.27306 
35   0.333941 
36   0.411653 
 
>  <lowdin_charges> 
36 
1   -0.449657 
2   -0.444921 
3   -0.1597 
4   -0.154106 
5   -0.152049 
6   -0.169451 
7   -0.161337 
8   -0.321412 
9   -0.199543 
10   -0.120147 
11   -0.022181 
12   0.168121 
13   0.131184 
14   -0.486397 
15   -0.295404 
16   -0.203104 
17   -0.349152 
18   0.150824 
19   0.153348 
20   0.157888 
21   0.15193 
22   0.14906 
23   0.153017 
24   0.158996 
25   0.155629 
26   0.159423 
27   0.153398 
28   0.167966 
29   0.19124 
30   0.158261 
31   0.157692 
32   0.155405 
33   0.127136 
34   0.24642 
35   0.28734 
36   0.354286 
 
$$$$ 
 
