PCCDB-ID:  50415 
public computational chemistry database (PCCDB) project, http://pccdb.org 
 
 35 35  0  0  1  0  0  0  0  0999 V2000 
    4.3389   -1.8292   -4.5555 C   0  0  0  0  0  0  0  0  0  0  0  0 
    6.6740   -0.5172    1.9453 C   0  0  0  0  0  0  0  0  0  0  0  0 
    3.5576   -6.4244    4.9210 C   0  0  0  0  0  0  0  0  0  0  0  0 
    3.6005   -0.8294   -3.6778 C   0  0  0  0  0  0  0  0  0  0  0  0 
    4.0107   -2.2250    2.6251 C   0  0  0  0  0  0  0  0  0  0  0  0 
    5.7312   -3.8729    2.3357 C   0  0  0  0  0  0  0  0  0  0  0  0 
    3.3190   -3.0873    3.4648 C   0  0  0  0  0  0  0  0  0  0  0  0 
    5.0523   -4.7529    3.1855 C   0  0  0  0  0  0  0  0  0  0  0  0 
    6.0038   -1.6464    1.1495 C   0  0  1  0  0  0  0  0  0  0  0  0 
    5.2345   -2.6018    2.0446 C   0  0  0  0  0  0  0  0  0  0  0  0 
    3.8373   -4.3588    3.7543 C   0  0  0  0  0  0  0  0  0  0  0  0 
    5.2062   -0.2511   -1.9642 C   0  0  0  0  0  0  0  0  0  0  0  0 
    5.0648   -1.0728    0.1678 N   0  0  0  0  0  0  0  0  0  0  0  0 
    5.7477   -0.3343   -0.8172 N   0  0  0  0  0  0  0  0  0  0  0  0 
    5.7682    0.5042   -2.9466 O   0  0  0  0  0  0  0  0  0  0  0  0 
    3.0812   -5.1309    4.5924 O   0  0  0  0  0  0  0  0  0  0  0  0 
    4.0579   -0.8676   -2.3074 O   0  0  0  0  0  0  0  0  0  0  0  0 
    3.9055   -1.8303   -5.5625 H   0  0  0  0  0  0  0  0  0  0  0  0 
    4.2554   -2.8406   -4.1445 H   0  0  0  0  0  0  0  0  0  0  0  0 
    5.3976   -1.5675   -4.6393 H   0  0  0  0  0  0  0  0  0  0  0  0 
    7.3885   -0.9322    2.6642 H   0  0  0  0  0  0  0  0  0  0  0  0 
    5.9225    0.0606    2.4937 H   0  0  0  0  0  0  0  0  0  0  0  0 
    7.2033    0.1585    1.2676 H   0  0  0  0  0  0  0  0  0  0  0  0 
    2.8132   -6.8576    5.5919 H   0  0  0  0  0  0  0  0  0  0  0  0 
    4.5271   -6.3807    5.4355 H   0  0  0  0  0  0  0  0  0  0  0  0 
    3.6544   -7.0593    4.0298 H   0  0  0  0  0  0  0  0  0  0  0  0 
    2.5393   -1.0797   -3.6022 H   0  0  0  0  0  0  0  0  0  0  0  0 
    3.6932    0.1891   -4.0631 H   0  0  0  0  0  0  0  0  0  0  0  0 
    3.5983   -1.2464    2.3983 H   0  0  0  0  0  0  0  0  0  0  0  0 
    6.6729   -4.1930    1.8944 H   0  0  0  0  0  0  0  0  0  0  0  0 
    2.3718   -2.8008    3.9118 H   0  0  0  0  0  0  0  0  0  0  0  0 
    5.4740   -5.7314    3.3854 H   0  0  0  0  0  0  0  0  0  0  0  0 
    6.7990   -2.2182    0.6398 H   0  0  0  0  0  0  0  0  0  0  0  0 
    4.5142   -1.8205   -0.2585 H   0  0  0  0  0  0  0  0  0  0  0  0 
    6.5527    0.9091   -2.5375 H   0  0  0  0  0  0  0  0  0  0  0  0 
  1 19  1  0  0  0  0 
  1  4  1  0  0  0  0 
  2 22  1  0  0  0  0 
  2 21  1  0  0  0  0 
  3 25  1  0  0  0  0 
  3 24  1  0  0  0  0 
  4 27  1  0  0  0  0 
  4 17  1  0  0  0  0 
  5  7  2  0  0  0  0 
  6  8  1  0  0  0  0 
  7 11  1  0  0  0  0 
  7 31  1  0  0  0  0 
  8 32  1  0  0  0  0 
  8 11  2  0  0  0  0 
  9 33  1  6  0  0  0 
  9  2  1  0  0  0  0 
  9 10  1  0  0  0  0 
 10  6  2  0  0  0  0 
 10  5  1  0  0  0  0 
 11 16  1  0  0  0  0 
 12 14  2  0  0  0  0 
 13  9  1  0  0  0  0 
 14 13  1  0  0  0  0 
 15 35  1  0  0  0  0 
 15 12  1  0  0  0  0 
 16  3  1  0  0  0  0 
 17 12  1  0  0  0  0 
 18  1  1  0  0  0  0 
 20  1  1  0  0  0  0 
 23  2  1  0  0  0  0 
 26  3  1  0  0  0  0 
 28  4  1  0  0  0  0 
 29  5  1  0  0  0  0 
 30  6  1  0  0  0  0 
 34 13  1  0  0  0  0 
M  END 
>  <HBA> 
5 
 
>  <HBD> 
2 
 
>  <TPSA> 
59.59 
 
>  <cid> 
50415 
 
>  <dipole> 
2.79 
 
>  <excitation_energy_1> 
4.5 
 
>  <excitation_energy_2> 
4.63 
 
>  <excitation_energy_3> 
4.814 
 
>  <excitation_energy_4> 
4.974 
 
>  <homo_energy> 
-5.067 
 
>  <homo_lumo_gap> 
5.255 
 
>  <logP> 
2.789 
 
>  <lumo_energy> 
0.188 
 
>  <melting_point> 
87.74 
 
>  <molecular_refractivity> 
64.41 
 
>  <oscillator_strength_1> 
0.0037 
 
>  <oscillator_strength_2> 
0.0073 
 
>  <oscillator_strength_3> 
0.0113 
 
>  <oscillator_strength_4> 
0.028 
 
>  <open_babel_can_smiles> 
CCO/C(=N\N[C@H](c1ccc(cc1)OC)C)/O 
 
>  <mulliken_charges> 
35 
1   -0.46327 
2   -0.429683 
3   -0.212736 
4   -0.034912 
5   -0.175802 
6   -0.202265 
7   -0.174287 
8   -0.196597 
9   -0.002887 
10   0.128137 
11   0.374322 
12   0.740735 
13   -0.453378 
14   -0.386448 
15   -0.615652 
16   -0.507757 
17   -0.488652 
18   0.15055 
19   0.160068 
20   0.171985 
21   0.13648 
22   0.148327 
23   0.159299 
24   0.167624 
25   0.15035 
26   0.14943 
27   0.158656 
28   0.169923 
29   0.148442 
30   0.123216 
31   0.135203 
32   0.12716 
33   0.112142 
34   0.308361 
35   0.423915 
 
>  <lowdin_charges> 
35 
1   -0.455098 
2   -0.450108 
3   -0.278402 
4   -0.117245 
5   -0.150398 
6   -0.157825 
7   -0.181616 
8   -0.21688 
9   -0.055598 
10   -0.031869 
11   0.098898 
12   0.161164 
13   -0.275318 
14   -0.20864 
15   -0.376813 
16   -0.200754 
17   -0.202348 
18   0.15864 
19   0.156856 
20   0.161372 
21   0.149861 
22   0.153843 
23   0.159415 
24   0.162956 
25   0.143605 
26   0.144087 
27   0.15389 
28   0.155293 
29   0.16699 
30   0.154025 
31   0.164847 
32   0.159833 
33   0.12565 
34   0.25419 
35   0.373495 
 
$$$$ 
 
