PCCDB-ID:  30246 
public computational chemistry database (PCCDB) project, http://pccdb.org 
 
 29 29  0  0  1  0  0  0  0  0999 V2000 
    0.6390    0.7090   -0.2800 C   0  0  0  0  0  0  0  0  0  0  0  0 
    7.6368   -2.4246    0.8600 C   0  0  0  0  0  0  0  0  0  0  0  0 
    6.6017   -0.6990    2.4046 C   0  0  0  0  0  0  0  0  0  0  0  0 
    2.1566    0.5718   -0.1778 C   0  0  0  0  0  0  0  0  0  0  0  0 
    6.6692    3.4429   -2.8444 C   0  0  0  0  0  0  0  0  0  0  0  0 
    6.6754   -1.2359    0.9655 C   0  0  0  0  0  0  0  0  0  0  0  0 
    5.9940    2.4743   -2.0061 C   0  0  1  0  0  0  0  0  0  0  0  0 
    4.0862    1.5554   -1.1103 C   0  0  0  0  0  0  0  0  0  0  0  0 
    6.3202    0.6058   -0.5008 C   0  0  0  0  0  0  0  0  0  0  0  0 
    7.2428    4.2049   -3.5061 N   0  0  0  0  0  0  0  0  0  0  0  0 
    2.8134    1.5511   -1.0291 N   0  0  0  0  0  0  0  0  0  0  0  0 
    7.1409   -0.1865    0.0614 N   0  0  0  0  0  0  0  0  0  0  0  0 
    4.7081    2.5013   -1.9315 N   0  0  0  0  0  0  0  0  0  0  0  0 
    6.8238    1.5963   -1.3548 N   0  0  0  0  0  0  0  0  0  0  0  0 
    4.9342    0.6631   -0.4085 N   0  0  0  0  0  0  0  0  0  0  0  0 
    0.1359   -0.0249    0.3596 H   0  0  0  0  0  0  0  0  0  0  0  0 
    0.3123    0.5547   -1.3131 H   0  0  0  0  0  0  0  0  0  0  0  0 
    0.3267    1.7123    0.0255 H   0  0  0  0  0  0  0  0  0  0  0  0 
    7.3182   -3.2431    1.5155 H   0  0  0  0  0  0  0  0  0  0  0  0 
    8.6478   -2.1175    1.1491 H   0  0  0  0  0  0  0  0  0  0  0  0 
    7.6779   -2.7991   -0.1678 H   0  0  0  0  0  0  0  0  0  0  0  0 
    6.2863   -1.4870    3.0978 H   0  0  0  0  0  0  0  0  0  0  0  0 
    5.8934    0.1335    2.4878 H   0  0  0  0  0  0  0  0  0  0  0  0 
    7.5856   -0.3343    2.7187 H   0  0  0  0  0  0  0  0  0  0  0  0 
    2.4482   -0.4568   -0.4596 H   0  0  0  0  0  0  0  0  0  0  0  0 
    2.4639    0.7058    0.8754 H   0  0  0  0  0  0  0  0  0  0  0  0 
    5.6717   -1.6023    0.6785 H   0  0  0  0  0  0  0  0  0  0  0  0 
    7.8289    1.6178   -1.4689 H   0  0  0  0  0  0  0  0  0  0  0  0 
    4.4950   -0.0154    0.1961 H   0  0  0  0  0  0  0  0  0  0  0  0 
  1  4  1  0  0  0  0 
  1 18  1  0  0  0  0 
  1 16  1  0  0  0  0 
  2  6  1  0  0  0  0 
  2 20  1  0  0  0  0 
  2 19  1  0  0  0  0 
  3 23  1  0  0  0  0 
  3 24  1  0  0  0  0 
  3 22  1  0  0  0  0 
  4 26  1  0  0  0  0 
  6  3  1  0  0  0  0 
  7  5  1  6  0  0  0 
  7 13  1  0  0  0  0 
  7 14  1  0  0  0  0 
  8 11  1  0  0  0  0 
  8 15  1  0  0  0  0 
  9 15  1  0  0  0  0 
  9 12  2  0  0  0  0 
 10  5  3  0  0  0  0 
 11  4  1  0  0  0  0 
 12  6  1  0  0  0  0 
 13  8  2  0  0  0  0 
 14  9  1  0  0  0  0 
 15 29  1  0  0  0  0 
 17  1  1  0  0  0  0 
 21  2  1  0  0  0  0 
 25  4  1  0  0  0  0 
 27  6  1  0  0  0  0 
 28 14  1  0  0  0  0 
M  RAD  2   7   2  11   2 
M  END 
>  <HBA> 
6 
 
>  <HBD> 
2 
 
>  <TPSA> 
86.52 
 
>  <cid> 
30246 
 
>  <dipole> 
5.52 
 
>  <excitation_energy_1> 
3.966 
 
>  <excitation_energy_2> 
4.055 
 
>  <excitation_energy_3> 
4.2 
 
>  <excitation_energy_4> 
4.681 
 
>  <homo_energy> 
-6.819 
 
>  <homo_lumo_gap> 
4.604 
 
>  <logP> 
1.141 
 
>  <lumo_energy> 
-2.215 
 
>  <melting_point> 
156.69 
 
>  <molecular_refractivity> 
57.57 
 
>  <oscillator_strength_1> 
0.0037 
 
>  <oscillator_strength_2> 
0.0327 
 
>  <oscillator_strength_3> 
0.1853 
 
>  <oscillator_strength_4> 
0.0005 
 
>  <open_babel_can_smiles> 
CC[N]C1=N[C](N/C(=N/C(C)C)/N1)C#N 
 
>  <mulliken_charges> 
29 
1   -0.433974 
2   -0.430271 
3   -0.436338 
4   -0.168566 
5   0.303143 
6   0.004586 
7   0.561686 
8   0.671596 
9   0.764751 
10   -0.450989 
11   -0.442348 
12   -0.488943 
13   -0.468151 
14   -0.684635 
15   -0.755207 
16   0.135964 
17   0.161134 
18   0.161898 
19   0.139391 
20   0.155369 
21   0.151351 
22   0.147704 
23   0.139876 
24   0.162185 
25   0.131628 
26   0.135727 
27   0.10444 
28   0.367331 
29   0.359662 
 
>  <lowdin_charges> 
29 
1   -0.442425 
2   -0.441753 
3   -0.450659 
4   -0.206016 
5   -0.005312 
6   -0.053686 
7   0.101276 
8   0.116379 
9   0.138763 
10   -0.064008 
11   -0.192867 
12   -0.246533 
13   -0.144845 
14   -0.212988 
15   -0.275647 
16   0.14898 
17   0.157839 
18   0.158689 
19   0.149923 
20   0.155641 
21   0.154414 
22   0.154494 
23   0.147398 
24   0.158969 
25   0.130295 
26   0.132727 
27   0.115236 
28   0.31546 
29   0.300258 
 
$$$$ 
 
