PCCDB-ID:  30997 
public computational chemistry database (PCCDB) project, http://pccdb.org 
 
 32 33  0  0  1  0  0  0  0  0999 V2000 
    2.4473    1.1677    0.7998 C   0  0  0  0  0  0  0  0  0  0  0  0 
    0.7694    0.1105   -0.7076 C   0  0  0  0  0  0  0  0  0  0  0  0 
    4.9312    1.2861   -3.7490 C   0  0  0  0  0  0  0  0  0  0  0  0 
    5.4425    1.3791   -2.4543 C   0  0  0  0  0  0  0  0  0  0  0  0 
    3.8396    0.4524   -3.9909 C   0  0  0  0  0  0  0  0  0  0  0  0 
    4.8685    0.6444   -1.4158 C   0  0  0  0  0  0  0  0  0  0  0  0 
    3.2696   -0.2802   -2.9482 C   0  0  0  0  0  0  0  0  0  0  0  0 
    2.5999   -2.3881   -0.9361 C   0  0  0  0  0  0  0  0  0  0  0  0 
    4.1765   -1.4503    0.6012 C   0  0  0  0  0  0  0  0  0  0  0  0 
    1.9808   -0.1702    0.1990 C   0  0  0  0  0  0  0  0  0  0  0  0 
    3.7713   -0.2033   -1.6388 C   0  0  0  0  0  0  0  0  0  0  0  0 
    2.9406   -3.2426    0.2665 C   0  0  0  0  0  0  0  0  0  0  0  0 
    3.1374   -0.9928   -0.4966 C   0  0  2  0  0  0  0  0  0  0  0  0 
    3.7658   -2.7626    1.1032 N   0  0  0  0  0  0  0  0  0  0  0  0 
    2.4213   -4.4859    0.4221 O   0  0  0  0  0  0  0  0  0  0  0  0 
    1.6306    1.6165    1.3768 H   0  0  0  0  0  0  0  0  0  0  0  0 
    2.7290    1.8787    0.0158 H   0  0  0  0  0  0  0  0  0  0  0  0 
    3.2983    1.0606    1.4794 H   0  0  0  0  0  0  0  0  0  0  0  0 
   -0.0069    0.6306   -0.1345 H   0  0  0  0  0  0  0  0  0  0  0  0 
    0.3094   -0.7963   -1.1141 H   0  0  0  0  0  0  0  0  0  0  0  0 
    1.0440    0.7543   -1.5503 H   0  0  0  0  0  0  0  0  0  0  0  0 
    5.3790    1.8554   -4.5591 H   0  0  0  0  0  0  0  0  0  0  0  0 
    6.2944    2.0221   -2.2485 H   0  0  0  0  0  0  0  0  0  0  0  0 
    3.4288    0.3670   -4.9937 H   0  0  0  0  0  0  0  0  0  0  0  0 
    5.2871    0.7351   -0.4177 H   0  0  0  0  0  0  0  0  0  0  0  0 
    2.4201   -0.9224   -3.1636 H   0  0  0  0  0  0  0  0  0  0  0  0 
    1.5302   -2.4095   -1.1713 H   0  0  0  0  0  0  0  0  0  0  0  0 
    3.1309   -2.7675   -1.8196 H   0  0  0  0  0  0  0  0  0  0  0  0 
    4.2491   -0.7473    1.4355 H   0  0  0  0  0  0  0  0  0  0  0  0 
    5.1825   -1.5370    0.1693 H   0  0  0  0  0  0  0  0  0  0  0  0 
    1.6396   -0.8051    1.0303 H   0  0  0  0  0  0  0  0  0  0  0  0 
    1.7743   -4.6445   -0.2817 H   0  0  0  0  0  0  0  0  0  0  0  0 
  1 16  1  0  0  0  0 
  1 18  1  0  0  0  0 
  2 19  1  0  0  0  0 
  2 10  1  0  0  0  0 
  3  4  1  0  0  0  0 
  4 23  1  0  0  0  0 
  4  6  2  0  0  0  0 
  5  3  2  0  0  0  0 
  5  7  1  0  0  0  0 
  6 25  1  0  0  0  0 
  7 11  2  0  0  0  0 
  8 13  1  0  0  0  0 
  8 12  1  0  0  0  0 
  9 14  1  0  0  0  0 
  9 29  1  0  0  0  0 
 10  1  1  0  0  0  0 
 10 31  1  0  0  0  0 
 11  6  1  0  0  0  0 
 11 13  1  0  0  0  0 
 12 15  1  0  0  0  0 
 12 14  2  0  0  0  0 
 13 10  1  1  0  0  0 
 13  9  1  0  0  0  0 
 17  1  1  0  0  0  0 
 20  2  1  0  0  0  0 
 21  2  1  0  0  0  0 
 22  3  1  0  0  0  0 
 24  5  1  0  0  0  0 
 26  7  1  0  0  0  0 
 27  8  1  0  0  0  0 
 28  8  1  0  0  0  0 
 30  9  1  0  0  0  0 
 32 15  1  0  0  0  0 
M  END 
>  <HBA> 
2 
 
>  <HBD> 
1 
 
>  <TPSA> 
29.1 
 
>  <cid> 
30997 
 
>  <dipole> 
3.72 
 
>  <excitation_energy_1> 
5.285 
 
>  <excitation_energy_2> 
5.694 
 
>  <excitation_energy_3> 
5.764 
 
>  <excitation_energy_4> 
5.828 
 
>  <homo_energy> 
-6.553 
 
>  <homo_lumo_gap> 
6.427 
 
>  <logP> 
2.429 
 
>  <lumo_energy> 
-0.125 
 
>  <melting_point> 
81.26 
 
>  <molecular_refractivity> 
64.94 
 
>  <oscillator_strength_1> 
0.0005 
 
>  <oscillator_strength_2> 
0.0039 
 
>  <oscillator_strength_3> 
0.0011 
 
>  <oscillator_strength_4> 
0.0447 
 
>  <open_babel_can_smiles> 
OC1=NC[C@@](C1)(C(C)C)c1ccccc1 
 
>  <mulliken_charges> 
32 
1   -0.460548 
2   -0.460414 
3   -0.128639 
4   -0.13343 
5   -0.132778 
6   -0.177768 
7   -0.17894 
8   -0.40311 
9   -0.170932 
10   -0.07114 
11   0.128594 
12   0.502818 
13   0.001088 
14   -0.41888 
15   -0.592193 
16   0.144433 
17   0.156102 
18   0.146063 
19   0.146361 
20   0.135203 
21   0.156968 
22   0.129744 
23   0.131107 
24   0.129001 
25   0.134504 
26   0.124963 
27   0.14549 
28   0.173776 
29   0.146755 
30   0.150944 
31   0.134876 
32   0.409985 
 
>  <lowdin_charges> 
32 
1   -0.452011 
2   -0.453298 
3   -0.161259 
4   -0.15466 
5   -0.156083 
6   -0.16703 
7   -0.171918 
8   -0.319272 
9   -0.209369 
10   -0.119183 
11   -0.003156 
12   0.111511 
13   0.000311 
14   -0.206513 
15   -0.355451 
16   0.152997 
17   0.155125 
18   0.148653 
19   0.154111 
20   0.142456 
21   0.15546 
22   0.159167 
23   0.158565 
24   0.156601 
25   0.159164 
26   0.155231 
27   0.150208 
28   0.167276 
29   0.148673 
30   0.148213 
31   0.14505 
32   0.360431 
 
$$$$ 
 
