PCCDB-ID:  47108 
public computational chemistry database (PCCDB) project, http://pccdb.org 
 
 26 28  0  0  0  0  0  0  0  0999 V2000 
    3.4237   -0.2130    0.1111 C   0  0  0  0  0  0  0  0  0  0  0  0 
   -3.4264   -0.2069   -0.0520 C   0  0  0  0  0  0  0  0  0  0  0  0 
    2.4808   -1.2360    0.1124 C   0  0  0  0  0  0  0  0  0  0  0  0 
   -2.4865   -1.2315   -0.0064 C   0  0  0  0  0  0  0  0  0  0  0  0 
    1.6895    1.4836    0.0353 C   0  0  0  0  0  0  0  0  0  0  0  0 
   -1.6877    1.4868   -0.0368 C   0  0  0  0  0  0  0  0  0  0  0  0 
    3.0459    1.1487    0.0720 C   0  0  0  0  0  0  0  0  0  0  0  0 
   -3.0449    1.1543   -0.0648 C   0  0  0  0  0  0  0  0  0  0  0  0 
    0.7240    0.4695    0.0397 C   0  0  0  0  0  0  0  0  0  0  0  0 
   -0.7251    0.4707    0.0021 C   0  0  0  0  0  0  0  0  0  0  0  0 
    1.1294   -0.8899    0.0775 C   0  0  0  0  0  0  0  0  0  0  0  0 
   -1.1342   -0.8879    0.0202 C   0  0  0  0  0  0  0  0  0  0  0  0 
    4.0380    2.1500    0.1374 N   0  0  0  0  0  0  0  0  0  0  0  0 
   -4.0346    2.1545   -0.1709 N   0  0  0  0  0  0  0  0  0  0  0  0 
   -0.0036   -1.6931    0.0687 N   0  0  0  0  0  0  0  0  0  0  0  0 
    4.4814   -0.4641    0.1469 H   0  0  0  0  0  0  0  0  0  0  0  0 
   -4.4846   -0.4563   -0.0834 H   0  0  0  0  0  0  0  0  0  0  0  0 
    2.7990   -2.2750    0.1389 H   0  0  0  0  0  0  0  0  0  0  0  0 
   -2.8075   -2.2699    0.0088 H   0  0  0  0  0  0  0  0  0  0  0  0 
    1.3898    2.5293    0.0070 H   0  0  0  0  0  0  0  0  0  0  0  0 
   -1.3851    2.5320   -0.0474 H   0  0  0  0  0  0  0  0  0  0  0  0 
    4.9187    1.8722   -0.2816 H   0  0  0  0  0  0  0  0  0  0  0  0 
    3.7383    3.0367   -0.2526 H   0  0  0  0  0  0  0  0  0  0  0  0 
   -4.9138    1.8989    0.2651 H   0  0  0  0  0  0  0  0  0  0  0  0 
   -3.7302    3.0571    0.1769 H   0  0  0  0  0  0  0  0  0  0  0  0 
   -0.0046   -2.7001    0.0748 H   0  0  0  0  0  0  0  0  0  0  0  0 
  1  3  1  0  0  0  0 
  1 16  1  0  0  0  0 
  2  4  1  0  0  0  0 
  3 18  1  0  0  0  0 
  4 19  1  0  0  0  0 
  4 12  2  0  0  0  0 
  5  9  2  0  0  0  0 
  5  7  1  0  0  0  0 
  6 10  2  0  0  0  0 
  7  1  2  0  0  0  0 
  7 13  1  0  0  0  0 
  8  2  2  0  0  0  0 
  8  6  1  0  0  0  0 
  9 11  1  0  0  0  0 
 10 12  1  0  0  0  0 
 10  9  1  0  0  0  0 
 11  3  2  0  0  0  0 
 12 15  1  0  0  0  0 
 14  8  1  0  0  0  0 
 14 25  1  0  0  0  0 
 14 24  1  0  0  0  0 
 15 26  1  0  0  0  0 
 15 11  1  0  0  0  0 
 17  2  1  0  0  0  0 
 20  5  1  0  0  0  0 
 21  6  1  0  0  0  0 
 22 13  1  0  0  0  0 
 23 13  1  0  0  0  0 
M  END 
>  <HBA> 
2 
 
>  <HBD> 
3 
 
>  <TPSA> 
67.83 
 
>  <cid> 
47108 
 
>  <dipole> 
0.37 
 
>  <excitation_energy_1> 
3.356 
 
>  <excitation_energy_2> 
3.967 
 
>  <excitation_energy_3> 
4.126 
 
>  <excitation_energy_4> 
4.238 
 
>  <homo_energy> 
-4.504 
 
>  <homo_lumo_gap> 
4.008 
 
>  <logP> 
3.648 
 
>  <lumo_energy> 
-0.495 
 
>  <melting_point> 
240.58 
 
>  <molecular_refractivity> 
64.61 
 
>  <oscillator_strength_1> 
0.0316 
 
>  <oscillator_strength_2> 
0.1333 
 
>  <oscillator_strength_3> 
0.0131 
 
>  <oscillator_strength_4> 
0.0065 
 
>  <open_babel_can_smiles> 
Nc1ccc2c(c1)c1cc(N)ccc1[nH]2 
 
>  <mulliken_charges> 
26 
1   -0.184208 
2   -0.184011 
3   -0.186281 
4   -0.186312 
5   -0.250906 
6   -0.251087 
7   0.292559 
8   0.292527 
9   0.060316 
10   0.060248 
11   0.339058 
12   0.33904 
13   -0.788536 
14   -0.788618 
15   -0.825142 
16   0.113788 
17   0.113945 
18   0.120407 
19   0.120412 
20   0.114188 
21   0.114112 
22   0.311522 
23   0.3124 
24   0.311583 
25   0.31236 
26   0.316638 
 
>  <lowdin_charges> 
26 
1   -0.189376 
2   -0.189199 
3   -0.181129 
4   -0.181143 
5   -0.198379 
6   -0.198481 
7   0.040956 
8   0.040951 
9   -0.027268 
10   -0.027306 
11   0.029282 
12   0.029295 
13   -0.500325 
14   -0.500226 
15   -0.223885 
16   0.150941 
17   0.151026 
18   0.154154 
19   0.154165 
20   0.150427 
21   0.150387 
22   0.269813 
23   0.269703 
24   0.269872 
25   0.269443 
26   0.286304 
 
$$$$ 
 
