PCCDB-ID:  16932 
public computational chemistry database (PCCDB) project, http://pccdb.org 
 
 29 32  0  0  0  0  0  0  0  0999 V2000 
    0.8042   -0.0661   -0.0047 C   0  0  0  0  0  0  0  0  0  0  0  0 
    6.6328    4.8160    0.0119 C   0  0  0  0  0  0  0  0  0  0  0  0 
    7.3172    3.6014    0.0147 C   0  0  0  0  0  0  0  0  0  0  0  0 
    5.2401    4.8421    0.0075 C   0  0  0  0  0  0  0  0  0  0  0  0 
    3.0341   -1.2356    0.0039 C   0  0  0  0  0  0  0  0  0  0  0  0 
    4.4263   -1.2608    0.0094 C   0  0  0  0  0  0  0  0  0  0  0  0 
    7.2972    1.1142    0.0165 C   0  0  0  0  0  0  0  0  0  0  0  0 
    6.6011   -0.0550    0.0150 C   0  0  0  0  0  0  0  0  0  0  0  0 
    3.0652    3.6332    0.0014 C   0  0  0  0  0  0  0  0  0  0  0  0 
    2.3659    2.4640   -0.0003 C   0  0  0  0  0  0  0  0  0  0  0  0 
    2.3150   -0.0366   -0.0001 C   0  0  0  0  0  0  0  0  0  0  0  0 
    6.6210    2.3826    0.0132 C   0  0  0  0  0  0  0  0  0  0  0  0 
    4.5001    3.6480    0.0055 C   0  0  0  0  0  0  0  0  0  0  0  0 
    5.1639   -0.0697    0.0104 C   0  0  0  0  0  0  0  0  0  0  0  0 
    3.0279    1.1867    0.0015 C   0  0  0  0  0  0  0  0  0  0  0  0 
    5.1912    2.3986    0.0083 C   0  0  0  0  0  0  0  0  0  0  0  0 
    4.4583    1.1726    0.0066 C   0  0  0  0  0  0  0  0  0  0  0  0 
    0.4362   -1.0964   -0.0246 H   0  0  0  0  0  0  0  0  0  0  0  0 
    0.3865    0.4503   -0.8782 H   0  0  0  0  0  0  0  0  0  0  0  0 
    0.3827    0.4176    0.8859 H   0  0  0  0  0  0  0  0  0  0  0  0 
    7.1903    5.7489    0.0133 H   0  0  0  0  0  0  0  0  0  0  0  0 
    8.4046    3.5888    0.0185 H   0  0  0  0  0  0  0  0  0  0  0  0 
    4.7111    5.7922    0.0051 H   0  0  0  0  0  0  0  0  0  0  0  0 
    2.4866   -2.1752    0.0028 H   0  0  0  0  0  0  0  0  0  0  0  0 
    4.9520   -2.2127    0.0125 H   0  0  0  0  0  0  0  0  0  0  0  0 
    8.3847    1.1089    0.0198 H   0  0  0  0  0  0  0  0  0  0  0  0 
    7.1249   -1.0080    0.0173 H   0  0  0  0  0  0  0  0  0  0  0  0 
    2.5393    4.5852    0.0001 H   0  0  0  0  0  0  0  0  0  0  0  0 
    1.2810    2.4921   -0.0022 H   0  0  0  0  0  0  0  0  0  0  0  0 
  1 11  1  0  0  0  0 
  1 20  1  0  0  0  0 
  2 21  1  0  0  0  0 
  2  3  2  0  0  0  0 
  3 22  1  0  0  0  0 
  4  2  1  0  0  0  0 
  5  6  2  0  0  0  0 
  6 14  1  0  0  0  0 
  6 25  1  0  0  0  0 
  7 26  1  0  0  0  0 
  8  7  2  0  0  0  0 
  8 27  1  0  0  0  0 
  9 13  1  0  0  0  0 
 10  9  2  0  0  0  0 
 10 15  1  0  0  0  0 
 11 15  2  0  0  0  0 
 11  5  1  0  0  0  0 
 12  3  1  0  0  0  0 
 12  7  1  0  0  0  0 
 13  4  2  0  0  0  0 
 13 16  1  0  0  0  0 
 14  8  1  0  0  0  0 
 15 17  1  0  0  0  0 
 16 12  2  0  0  0  0 
 17 16  1  0  0  0  0 
 17 14  2  0  0  0  0 
 18  1  1  0  0  0  0 
 19  1  1  0  0  0  0 
 23  4  1  0  0  0  0 
 24  5  1  0  0  0  0 
 28  9  1  0  0  0  0 
 29 10  1  0  0  0  0 
M  END 
>  <HBA> 
0 
 
>  <HBD> 
0 
 
>  <TPSA> 
0.0 
 
>  <cid> 
16932 
 
>  <dipole> 
0.42 
 
>  <excitation_energy_1> 
3.577 
 
>  <excitation_energy_2> 
3.704 
 
>  <excitation_energy_3> 
4.263 
 
>  <excitation_energy_4> 
4.53 
 
>  <homo_energy> 
-5.222 
 
>  <homo_lumo_gap> 
3.758 
 
>  <logP> 
4.892 
 
>  <lumo_energy> 
-1.464 
 
>  <melting_point> 
142.39 
 
>  <molecular_refractivity> 
75.11 
 
>  <oscillator_strength_1> 
0.3051 
 
>  <oscillator_strength_2> 
0.0019 
 
>  <oscillator_strength_3> 
0.0026 
 
>  <oscillator_strength_4> 
0.2788 
 
>  <open_babel_can_smiles> 
Cc1ccc2c3c1ccc1c3c(cc2)ccc1 
 
>  <mulliken_charges> 
29 
1   -0.538334 
2   -0.122755 
3   -0.225997 
4   -0.225393 
5   -0.187079 
6   -0.224213 
7   -0.197628 
8   -0.194416 
9   -0.194638 
10   -0.200803 
11   0.1065 
12   0.163612 
13   0.165737 
14   0.164014 
15   0.096211 
16   -0.017635 
17   -0.001948 
18   0.156684 
19   0.164077 
20   0.164361 
21   0.129389 
22   0.128159 
23   0.128001 
24   0.121692 
25   0.127904 
26   0.128937 
27   0.128977 
28   0.128466 
29   0.12812 
 
>  <lowdin_charges> 
29 
1   -0.444597 
2   -0.156954 
3   -0.159688 
4   -0.162909 
5   -0.167467 
6   -0.160994 
7   -0.156499 
8   -0.156043 
9   -0.155326 
10   -0.159254 
11   -0.002108 
12   0.000493 
13   0.000357 
14   -0.002865 
15   -0.010795 
16   -0.002049 
17   0.000486 
18   0.157445 
19   0.161149 
20   0.161231 
21   0.159109 
22   0.155299 
23   0.157474 
24   0.1556 
25   0.1575 
26   0.156213 
27   0.15843 
28   0.15802 
29   0.15874 
 
$$$$ 
 
