PCCDB-ID:  37476 
public computational chemistry database (PCCDB) project, http://pccdb.org 
 
 28 29  0  0  1  0  0  0  0  0999 V2000 
    1.0410    0.0056   -0.0177 C   0  0  0  0  0  0  0  0  0  0  0  0 
    7.4758    0.1220    1.4075 C   0  0  0  0  0  0  0  0  0  0  0  0 
    5.4783   -2.4190   -0.1862 C   0  0  0  0  0  0  0  0  0  0  0  0 
    6.8963    1.9281   -0.3306 C   0  0  0  0  0  0  0  0  0  0  0  0 
    5.5383    2.5064    0.1383 C   0  0  0  0  0  0  0  0  0  0  0  0 
    3.3089   -1.1213   -0.0930 C   0  0  0  0  0  0  0  0  0  0  0  0 
    3.2258    1.2813    0.0755 C   0  0  0  0  0  0  0  0  0  0  0  0 
    2.5524    0.0537   -0.0073 C   0  0  0  0  0  0  0  0  0  0  0  0 
    6.8520    0.4162    0.0287 C   0  0  2  0  0  0  0  0  0  0  0  0 
    4.7121   -1.1194   -0.0919 C   0  0  0  0  0  0  0  0  0  0  0  0 
    4.6164    1.3062    0.0693 C   0  0  0  0  0  0  0  0  0  0  0  0 
    5.3594    0.1195   -0.0078 C   0  0  0  0  0  0  0  0  0  0  0  0 
    0.6738   -1.0236   -0.0819 H   0  0  0  0  0  0  0  0  0  0  0  0 
    0.6270    0.5604   -0.8693 H   0  0  0  0  0  0  0  0  0  0  0  0 
    0.6187    0.4535    0.8908 H   0  0  0  0  0  0  0  0  0  0  0  0 
    8.5438    0.3718    1.4118 H   0  0  0  0  0  0  0  0  0  0  0  0 
    7.3775   -0.9356    1.6756 H   0  0  0  0  0  0  0  0  0  0  0  0 
    6.9871    0.7088    2.1944 H   0  0  0  0  0  0  0  0  0  0  0  0 
    4.8193   -3.2460   -0.4696 H   0  0  0  0  0  0  0  0  0  0  0  0 
    5.9466   -2.6862    0.7702 H   0  0  0  0  0  0  0  0  0  0  0  0 
    6.2838   -2.3617   -0.9284 H   0  0  0  0  0  0  0  0  0  0  0  0 
    7.7558    2.4398    0.1160 H   0  0  0  0  0  0  0  0  0  0  0  0 
    6.9778    2.0403   -1.4184 H   0  0  0  0  0  0  0  0  0  0  0  0 
    5.2005    3.3444   -0.4825 H   0  0  0  0  0  0  0  0  0  0  0  0 
    5.6011    2.8870    1.1682 H   0  0  0  0  0  0  0  0  0  0  0  0 
    2.7887   -2.0745   -0.1722 H   0  0  0  0  0  0  0  0  0  0  0  0 
    2.6572    2.2082    0.1331 H   0  0  0  0  0  0  0  0  0  0  0  0 
    7.3958   -0.1738   -0.7213 H   0  0  0  0  0  0  0  0  0  0  0  0 
  1  8  1  0  0  0  0 
  1 15  1  0  0  0  0 
  2 16  1  0  0  0  0 
  2 17  1  0  0  0  0 
  2 18  1  0  0  0  0 
  3 10  1  0  0  0  0 
  3 20  1  0  0  0  0 
  4  9  1  0  0  0  0 
  4 22  1  0  0  0  0 
  4  5  1  0  0  0  0 
  5 25  1  0  0  0  0 
  6 10  2  0  0  0  0 
  6  8  1  0  0  0  0 
  7 27  1  0  0  0  0 
  8  7  2  0  0  0  0 
  9 28  1  6  0  0  0 
  9  2  1  0  0  0  0 
 10 12  1  0  0  0  0 
 11  7  1  0  0  0  0 
 11  5  1  0  0  0  0 
 12  9  1  0  0  0  0 
 12 11  2  0  0  0  0 
 13  1  1  0  0  0  0 
 14  1  1  0  0  0  0 
 19  3  1  0  0  0  0 
 21  3  1  0  0  0  0 
 23  4  1  0  0  0  0 
 24  5  1  0  0  0  0 
 26  6  1  0  0  0  0 
M  END 
>  <HBA> 
0 
 
>  <HBD> 
0 
 
>  <TPSA> 
0.0 
 
>  <cid> 
37476 
 
>  <dipole> 
0.23 
 
>  <excitation_energy_1> 
5.009 
 
>  <excitation_energy_2> 
5.466 
 
>  <excitation_energy_3> 
5.639 
 
>  <excitation_energy_4> 
5.789 
 
>  <homo_energy> 
-5.929 
 
>  <homo_lumo_gap> 
6.104 
 
>  <logP> 
3.353 
 
>  <lumo_energy> 
0.174 
 
>  <melting_point> 
42.92 
 
>  <molecular_refractivity> 
53.81 
 
>  <oscillator_strength_1> 
0.019 
 
>  <oscillator_strength_2> 
0.0277 
 
>  <oscillator_strength_3> 
0.0092 
 
>  <oscillator_strength_4> 
0.0164 
 
>  <open_babel_can_smiles> 
Cc1cc(C)c2c(c1)CC[C@H]2C 
 
>  <mulliken_charges> 
28 
1   -0.531735 
2   -0.44553 
3   -0.535162 
4   -0.283296 
5   -0.350502 
6   -0.254945 
7   -0.258117 
8   0.192824 
9   -0.160369 
10   0.131505 
11   0.139016 
12   0.064979 
13   0.152371 
14   0.158914 
15   0.15858 
16   0.140768 
17   0.14659 
18   0.146683 
19   0.152852 
20   0.162107 
21   0.157295 
22   0.131905 
23   0.142354 
24   0.145149 
25   0.149474 
26   0.107777 
27   0.111422 
28   0.127093 
 
>  <lowdin_charges> 
28 
1   -0.442878 
2   -0.441407 
3   -0.443461 
4   -0.274847 
5   -0.27967 
6   -0.185148 
7   -0.182782 
8   0.001628 
9   -0.127169 
10   -0.006211 
11   -0.009539 
12   -0.029343 
13   0.154046 
14   0.159206 
15   0.158762 
16   0.145504 
17   0.148333 
18   0.150451 
19   0.156742 
20   0.158381 
21   0.157695 
22   0.144223 
23   0.144891 
24   0.151726 
25   0.14903 
26   0.148395 
27   0.150743 
28   0.142699 
 
$$$$ 
 
