PCCDB-ID:  25008 
public computational chemistry database (PCCDB) project, http://pccdb.org 
 
 27 26  0  0  0  0  0  0  0  0999 V2000 
    6.2942   -6.2365   -4.2295 C   0  0  0  0  0  0  0  0  0  0  0  0 
   10.7041   -1.0838   -8.5327 C   0  0  0  0  0  0  0  0  0  0  0  0 
    7.1869   -5.6942   -3.3940 C   0  0  0  0  0  0  0  0  0  0  0  0 
   10.4793   -0.8204   -7.0448 C   0  0  0  0  0  0  0  0  0  0  0  0 
    8.7047   -4.8435   -5.0350 C   0  0  0  0  0  0  0  0  0  0  0  0 
    8.0858   -0.6822   -6.7835 C   0  0  0  0  0  0  0  0  0  0  0  0 
    7.9967   -3.6629   -5.6850 C   0  0  0  0  0  0  0  0  0  0  0  0 
    7.7489   -1.2999   -5.4239 C   0  0  0  0  0  0  0  0  0  0  0  0 
    8.3401   -5.0316   -3.6697 O   0  0  0  0  0  0  0  0  0  0  0  0 
    9.3302   -0.0059   -6.8025 O   0  0  0  0  0  0  0  0  0  0  0  0 
    8.4876   -2.4718   -5.0986 O   0  0  0  0  0  0  0  0  0  0  0  0 
    5.4364   -6.7508   -3.8118 H   0  0  0  0  0  0  0  0  0  0  0  0 
    6.3710   -6.2048   -5.3101 H   0  0  0  0  0  0  0  0  0  0  0  0 
   11.6285   -1.6543   -8.6838 H   0  0  0  0  0  0  0  0  0  0  0  0 
   10.7869   -0.1385   -9.0792 H   0  0  0  0  0  0  0  0  0  0  0  0 
    9.8822   -1.6597   -8.9740 H   0  0  0  0  0  0  0  0  0  0  0  0 
    7.0581   -5.7483   -2.3160 H   0  0  0  0  0  0  0  0  0  0  0  0 
   11.3228   -0.2525   -6.6372 H   0  0  0  0  0  0  0  0  0  0  0  0 
   10.4094   -1.7571   -6.4794 H   0  0  0  0  0  0  0  0  0  0  0  0 
    9.7808   -4.6506   -5.0195 H   0  0  0  0  0  0  0  0  0  0  0  0 
    8.5225   -5.7612   -5.6094 H   0  0  0  0  0  0  0  0  0  0  0  0 
    7.3267    0.0785   -7.0061 H   0  0  0  0  0  0  0  0  0  0  0  0 
    8.0240   -1.4407   -7.5795 H   0  0  0  0  0  0  0  0  0  0  0  0 
    6.9085   -3.7415   -5.5420 H   0  0  0  0  0  0  0  0  0  0  0  0 
    8.1946   -3.6951   -6.7703 H   0  0  0  0  0  0  0  0  0  0  0  0 
    6.6671   -1.5129   -5.3794 H   0  0  0  0  0  0  0  0  0  0  0  0 
    7.9878   -0.5703   -4.6434 H   0  0  0  0  0  0  0  0  0  0  0  0 
  1 12  1  0  0  0  0 
  1  3  2  0  0  0  0 
  2  4  1  0  0  0  0 
  3 17  1  0  0  0  0 
  4 10  1  0  0  0  0 
  4 18  1  0  0  0  0 
  4 19  1  0  0  0  0 
  5 20  1  0  0  0  0 
  5  9  1  0  0  0  0 
  6  8  1  0  0  0  0 
  7 24  1  0  0  0  0 
  7 11  1  0  0  0  0 
  7  5  1  0  0  0  0 
  8 26  1  0  0  0  0 
  8 11  1  0  0  0  0 
  8 27  1  0  0  0  0 
  9  3  1  0  0  0  0 
 10  6  1  0  0  0  0 
 13  1  1  0  0  0  0 
 14  2  1  0  0  0  0 
 15  2  1  0  0  0  0 
 16  2  1  0  0  0  0 
 21  5  1  0  0  0  0 
 22  6  1  0  0  0  0 
 23  6  1  0  0  0  0 
 25  7  1  0  0  0  0 
M  END 
>  <HBA> 
3 
 
>  <HBD> 
0 
 
>  <TPSA> 
27.69 
 
>  <cid> 
25008 
 
>  <dipole> 
2.17 
 
>  <excitation_energy_1> 
5.681 
 
>  <excitation_energy_2> 
5.856 
 
>  <excitation_energy_3> 
6.033 
 
>  <excitation_energy_4> 
6.2 
 
>  <homo_energy> 
-6.15 
 
>  <homo_lumo_gap> 
7.225 
 
>  <logP> 
1.2 
 
>  <lumo_energy> 
1.075 
 
>  <melting_point> 
-75.34 
 
>  <molecular_refractivity> 
43.35 
 
>  <oscillator_strength_1> 
0.0146 
 
>  <oscillator_strength_2> 
0.0385 
 
>  <oscillator_strength_3> 
0.0274 
 
>  <oscillator_strength_4> 
0.0089 
 
>  <open_babel_can_smiles> 
CCOCCOCCOC=C 
 
>  <mulliken_charges> 
27 
1   -0.400475 
2   -0.455082 
3   0.154172 
4   -0.033607 
5   -0.056144 
6   -0.047015 
7   -0.034203 
8   -0.030701 
9   -0.437711 
10   -0.467701 
11   -0.463022 
12   0.14341 
13   0.135277 
14   0.140376 
15   0.157068 
16   0.142149 
17   0.144998 
18   0.143326 
19   0.146864 
20   0.168454 
21   0.142542 
22   0.142139 
23   0.123712 
24   0.143578 
25   0.120215 
26   0.117197 
27   0.160186 
 
>  <lowdin_charges> 
27 
1   -0.435579 
2   -0.462093 
3   -0.028437 
4   -0.136057 
5   -0.134416 
6   -0.151783 
7   -0.142201 
8   -0.145568 
9   -0.190047 
10   -0.277099 
11   -0.267054 
12   0.170087 
13   0.155207 
14   0.152666 
15   0.155601 
16   0.147181 
17   0.158196 
18   0.147642 
19   0.14025 
20   0.161009 
21   0.145855 
22   0.151509 
23   0.130916 
24   0.13971 
25   0.126738 
26   0.12912 
27   0.158647 
 
$$$$ 
 
