PCCDB-ID:  70227 
public computational chemistry database (PCCDB) project, http://pccdb.org 
 
 28 27  0  0  0  0  0  0  0  0999 V2000 
    2.0546   -1.1269    0.0109 C   0  0  0  0  0  0  0  0  0  0  0  0 
    4.5661   -0.9656   -0.2736 C   0  0  0  0  0  0  0  0  0  0  0  0 
    3.0350    0.5870   -1.5613 C   0  0  0  0  0  0  0  0  0  0  0  0 
    4.2826    1.1929    3.9405 C   0  0  0  0  0  0  0  0  0  0  0  0 
    5.2664    2.9066    2.3709 C   0  0  0  0  0  0  0  0  0  0  0  0 
    2.7545    2.7471    2.6513 C   0  0  0  0  0  0  0  0  0  0  0  0 
    3.2466   -0.1876   -0.2476 C   0  0  0  0  0  0  0  0  0  0  0  0 
    4.0734    1.9679    2.6267 C   0  0  0  0  0  0  0  0  0  0  0  0 
    3.1587    0.8489    0.8280 N   0  0  0  0  0  0  0  0  0  0  0  0 
    4.1615    0.9318    1.5508 N   0  0  0  0  0  0  0  0  0  0  0  0 
    1.9618   -1.8576   -0.8004 H   0  0  0  0  0  0  0  0  0  0  0  0 
    1.1211   -0.5584    0.0761 H   0  0  0  0  0  0  0  0  0  0  0  0 
    2.1880   -1.6742    0.9509 H   0  0  0  0  0  0  0  0  0  0  0  0 
    4.5448   -1.7003   -1.0865 H   0  0  0  0  0  0  0  0  0  0  0  0 
    4.7337   -1.4947    0.6692 H   0  0  0  0  0  0  0  0  0  0  0  0 
    5.4182   -0.2976   -0.4305 H   0  0  0  0  0  0  0  0  0  0  0  0 
    2.9641   -0.1074   -2.4059 H   0  0  0  0  0  0  0  0  0  0  0  0 
    3.8715    1.2699   -1.7487 H   0  0  0  0  0  0  0  0  0  0  0  0 
    2.1143    1.1781   -1.5180 H   0  0  0  0  0  0  0  0  0  0  0  0 
    4.3528    1.8872    4.7853 H   0  0  0  0  0  0  0  0  0  0  0  0 
    5.2028    0.6011    3.8984 H   0  0  0  0  0  0  0  0  0  0  0  0 
    3.4454    0.5106    4.1268 H   0  0  0  0  0  0  0  0  0  0  0  0 
    5.3589    3.6359    3.1834 H   0  0  0  0  0  0  0  0  0  0  0  0 
    5.1344    3.4556    1.4315 H   0  0  0  0  0  0  0  0  0  0  0  0 
    6.1996    2.3376    2.3056 H   0  0  0  0  0  0  0  0  0  0  0  0 
    2.7757    3.4820    3.4641 H   0  0  0  0  0  0  0  0  0  0  0  0 
    1.9016    2.0800    2.8079 H   0  0  0  0  0  0  0  0  0  0  0  0 
    2.5883    3.2762    1.7082 H   0  0  0  0  0  0  0  0  0  0  0  0 
  1 12  1  0  0  0  0 
  1 13  1  0  0  0  0 
  2  7  1  0  0  0  0 
  2 15  1  0  0  0  0 
  3 19  1  0  0  0  0 
  3  7  1  0  0  0  0 
  4 22  1  0  0  0  0 
  4 20  1  0  0  0  0 
  5  8  1  0  0  0  0 
  5 23  1  0  0  0  0 
  6 27  1  0  0  0  0 
  6 26  1  0  0  0  0 
  7  1  1  0  0  0  0 
  7  9  1  0  0  0  0 
  8  6  1  0  0  0  0 
  8  4  1  0  0  0  0 
  9 10  1  0  0  0  0 
 10  8  1  0  0  0  0 
 11  1  1  0  0  0  0 
 14  2  1  0  0  0  0 
 16  2  1  0  0  0  0 
 17  3  1  0  0  0  0 
 18  3  1  0  0  0  0 
 21  4  1  0  0  0  0 
 24  5  1  0  0  0  0 
 25  5  1  0  0  0  0 
 28  6  1  0  0  0  0 
M  RAD  2   9   2  10   2 
M  END 
>  <HBA> 
2 
 
>  <HBD> 
0 
 
>  <TPSA> 
24.72 
 
>  <cid> 
70227 
 
>  <dipole> 
0.0 
 
>  <excitation_energy_1> 
3.424 
 
>  <excitation_energy_2> 
5.47 
 
>  <excitation_energy_3> 
5.818 
 
>  <excitation_energy_4> 
6.004 
 
>  <homo_energy> 
-5.657 
 
>  <homo_lumo_gap> 
5.102 
 
>  <logP> 
3.036 
 
>  <lumo_energy> 
-0.555 
 
>  <melting_point> 
9.68 
 
>  <molecular_refractivity> 
45.5 
 
>  <oscillator_strength_1> 
0.0 
 
>  <oscillator_strength_2> 
0.0 
 
>  <oscillator_strength_3> 
0.0099 
 
>  <oscillator_strength_4> 
0.0049 
 
>  <open_babel_can_smiles> 
CC([N][N]C(C)(C)C)(C)C 
 
>  <mulliken_charges> 
28 
1   -0.438889 
2   -0.434175 
3   -0.439092 
4   -0.439041 
5   -0.438945 
6   -0.434176 
7   0.184044 
8   0.184097 
9   -0.195653 
10   -0.195693 
11   0.143864 
12   0.153933 
13   0.146916 
14   0.134485 
15   0.150057 
16   0.149859 
17   0.14383 
18   0.146944 
19   0.153913 
20   0.143845 
21   0.153895 
22   0.146931 
23   0.143874 
24   0.146895 
25   0.153922 
26   0.134465 
27   0.149859 
28   0.150037 
 
>  <lowdin_charges> 
28 
1   -0.442942 
2   -0.451582 
3   -0.443746 
4   -0.443726 
5   -0.442953 
6   -0.451587 
7   0.050237 
8   0.050228 
9   -0.093689 
10   -0.093729 
11   0.152566 
12   0.15595 
13   0.151892 
14   0.149193 
15   0.155406 
16   0.155752 
17   0.152431 
18   0.152524 
19   0.156064 
20   0.152447 
21   0.156056 
22   0.152505 
23   0.152579 
24   0.151877 
25   0.155938 
26   0.149177 
27   0.155737 
28   0.155396 
 
$$$$ 
 
