PCCDB-ID:  71540 
public computational chemistry database (PCCDB) project, http://pccdb.org 
 
 37 37  0  0  1  0  0  0  0  0999 V2000 
    0.3550   -0.5167    0.0164 C   0  0  0  0  0  0  0  0  0  0  0  0 
    2.7621   -2.1973   -3.7202 C   0  0  0  0  0  0  0  0  0  0  0  0 
    1.3807   -0.1542   -3.2717 C   0  0  0  0  0  0  0  0  0  0  0  0 
    3.8301   -0.1769   -2.6986 C   0  0  0  0  0  0  0  0  0  0  0  0 
    4.2415   -5.4579    1.9409 C   0  0  0  0  0  0  0  0  0  0  0  0 
    5.2113   -4.6025    1.2729 C   0  0  0  0  0  0  0  0  0  0  0  0 
    3.1039   -4.7415    2.1714 C   0  0  0  0  0  0  0  0  0  0  0  0 
    4.6618   -3.3675    1.0958 C   0  0  0  0  0  0  0  0  0  0  0  0 
    2.6332   -0.9819    1.1171 C   0  0  0  0  0  0  0  0  0  0  0  0 
    2.2334   -1.6246   -1.3471 C   0  0  0  0  0  0  0  0  0  0  0  0 
    1.8713   -0.6408   -0.2033 C   0  0  1  0  0  0  0  0  0  0  0  0 
    3.3080   -3.3904    1.6488 C   0  0  0  0  0  0  0  0  0  0  0  0 
    2.4107   -2.3587    1.6739 C   0  0  0  0  0  0  0  0  0  0  0  0 
    2.5403   -1.0209   -2.7464 C   0  0  0  0  0  0  0  0  0  0  0  0 
    1.1834   -2.4842    2.2352 O   0  0  0  0  0  0  0  0  0  0  0  0 
    0.1287    0.1973    0.8174 H   0  0  0  0  0  0  0  0  0  0  0  0 
   -0.0877   -1.4769    0.2973 H   0  0  0  0  0  0  0  0  0  0  0  0 
   -0.1434   -0.1684   -0.8937 H   0  0  0  0  0  0  0  0  0  0  0  0 
    3.0217   -1.8353   -4.7227 H   0  0  0  0  0  0  0  0  0  0  0  0 
    1.8589   -2.8131   -3.8105 H   0  0  0  0  0  0  0  0  0  0  0  0 
    3.5764   -2.8453   -3.3747 H   0  0  0  0  0  0  0  0  0  0  0  0 
    1.5985    0.2056   -4.2849 H   0  0  0  0  0  0  0  0  0  0  0  0 
    1.2074    0.7274   -2.6435 H   0  0  0  0  0  0  0  0  0  0  0  0 
    0.4451   -0.7251   -3.3159 H   0  0  0  0  0  0  0  0  0  0  0  0 
    4.0755    0.2135   -3.6937 H   0  0  0  0  0  0  0  0  0  0  0  0 
    4.6820   -0.7780   -2.3571 H   0  0  0  0  0  0  0  0  0  0  0  0 
    3.7380    0.6854   -2.0266 H   0  0  0  0  0  0  0  0  0  0  0  0 
    4.4062   -6.4958    2.2085 H   0  0  0  0  0  0  0  0  0  0  0  0 
    6.2079   -4.9092    0.9759 H   0  0  0  0  0  0  0  0  0  0  0  0 
    2.2079   -5.1228    2.6520 H   0  0  0  0  0  0  0  0  0  0  0  0 
    5.1381   -2.5091    0.6398 H   0  0  0  0  0  0  0  0  0  0  0  0 
    2.3350   -0.2594    1.8886 H   0  0  0  0  0  0  0  0  0  0  0  0 
    3.7036   -0.8474    0.9443 H   0  0  0  0  0  0  0  0  0  0  0  0 
    1.4188   -2.3543   -1.4554 H   0  0  0  0  0  0  0  0  0  0  0  0 
    3.1120   -2.2134   -1.0554 H   0  0  0  0  0  0  0  0  0  0  0  0 
    2.2419    0.3578   -0.4715 H   0  0  0  0  0  0  0  0  0  0  0  0 
    1.0802   -3.3886    2.5767 H   0  0  0  0  0  0  0  0  0  0  0  0 
  1 17  1  0  0  0  0 
  1 16  1  0  0  0  0 
  2 21  1  0  0  0  0 
  2 14  1  0  0  0  0 
  3 14  1  0  0  0  0 
  3 23  1  0  0  0  0 
  4 26  1  0  0  0  0 
  4 27  1  0  0  0  0 
  5  7  2  0  0  0  0 
  5 28  1  0  0  0  0 
  6  5  1  0  0  0  0 
  7 30  1  0  0  0  0 
  8  6  2  0  0  0  0 
  8 12  1  0  0  0  0 
  9 13  1  0  0  0  0 
  9 32  1  0  0  0  0 
 10 35  1  0  0  0  0 
 10 11  1  0  0  0  0 
 11 36  1  6  0  0  0 
 11  1  1  0  0  0  0 
 11  9  1  0  0  0  0 
 12 13  2  0  0  0  0 
 12  7  1  0  0  0  0 
 13 15  1  0  0  0  0 
 14  4  1  0  0  0  0 
 14 10  1  0  0  0  0 
 15 37  1  0  0  0  0 
 18  1  1  0  0  0  0 
 19  2  1  0  0  0  0 
 20  2  1  0  0  0  0 
 22  3  1  0  0  0  0 
 24  3  1  0  0  0  0 
 25  4  1  0  0  0  0 
 29  6  1  0  0  0  0 
 31  8  1  0  0  0  0 
 33  9  1  0  0  0  0 
 34 10  1  0  0  0  0 
M  END 
>  <HBA> 
1 
 
>  <HBD> 
1 
 
>  <TPSA> 
20.23 
 
>  <cid> 
71540 
 
>  <dipole> 
1.16 
 
>  <excitation_energy_1> 
3.477 
 
>  <excitation_energy_2> 
4.6 
 
>  <excitation_energy_3> 
4.825 
 
>  <excitation_energy_4> 
5.238 
 
>  <homo_energy> 
-5.47 
 
>  <homo_lumo_gap> 
4.248 
 
>  <logP> 
4.387 
 
>  <lumo_energy> 
-1.222 
 
>  <melting_point> 
56.89 
 
>  <molecular_refractivity> 
67.19 
 
>  <oscillator_strength_1> 
0.0141 
 
>  <oscillator_strength_2> 
0.4309 
 
>  <oscillator_strength_3> 
0.0019 
 
>  <oscillator_strength_4> 
0.0052 
 
>  <open_babel_can_smiles> 
C[C@H](CC(C)(C)C)C/C(=C\1/C=CC=C1)/O 
 
>  <mulliken_charges> 
37 
1   -0.453666 
2   -0.442076 
3   -0.444871 
4   -0.447432 
5   -0.146579 
6   -0.163156 
7   -0.191218 
8   -0.164959 
9   -0.349708 
10   -0.27304 
11   -0.071538 
12   0.051038 
13   0.294352 
14   0.094551 
15   -0.601449 
16   0.137573 
17   0.157656 
18   0.146426 
19   0.1359 
20   0.13821 
21   0.142945 
22   0.137325 
23   0.141647 
24   0.138944 
25   0.139714 
26   0.138401 
27   0.138667 
28   0.119717 
29   0.118869 
30   0.103813 
31   0.121745 
32   0.159346 
33   0.162612 
34   0.129631 
35   0.143159 
36   0.132955 
37   0.424497 
 
>  <lowdin_charges> 
37 
1   -0.452191 
2   -0.442044 
3   -0.444561 
4   -0.446256 
5   -0.167291 
6   -0.182954 
7   -0.220151 
8   -0.198294 
9   -0.281928 
10   -0.284947 
11   -0.117752 
12   -0.077415 
13   0.142661 
14   0.015857 
15   -0.342525 
16   0.147678 
17   0.153537 
18   0.151091 
19   0.145121 
20   0.14677 
21   0.149811 
22   0.146489 
23   0.147015 
24   0.146573 
25   0.147771 
26   0.147037 
27   0.144778 
28   0.152362 
29   0.152862 
30   0.143768 
31   0.154841 
32   0.163585 
33   0.161125 
34   0.144127 
35   0.150374 
36   0.141491 
37   0.361587 
 
$$$$ 
 
