PCCDB-ID:  58294 
public computational chemistry database (PCCDB) project, http://pccdb.org 
 
 32 32  0  0  0  0  0  0  0  0999 V2000 
    4.2845   -4.0234    0.1920 C   0  0  0  0  0  0  0  0  0  0  0  0 
    5.2841   -3.2137    2.3126 C   0  0  0  0  0  0  0  0  0  0  0  0 
    1.3160    1.1997   -1.1586 C   0  0  0  0  0  0  0  0  0  0  0  0 
    2.5990    1.5658   -1.4013 C   0  0  0  0  0  0  0  0  0  0  0  0 
    6.5189   -0.8557   -1.6502 C   0  0  0  0  0  0  0  0  0  0  0  0 
    5.7585    0.0184   -2.6620 C   0  0  0  0  0  0  0  0  0  0  0  0 
    1.9065   -1.1218   -1.5243 C   0  0  0  0  0  0  0  0  0  0  0  0 
    5.8600   -2.1531    0.1851 C   0  0  0  0  0  0  0  0  0  0  0  0 
    0.9489   -0.1848   -1.2383 C   0  0  0  0  0  0  0  0  0  0  0  0 
    3.6240    0.6037   -1.7818 C   0  0  0  0  0  0  0  0  0  0  0  0 
    5.6663   -1.8830   -1.0561 N   0  0  0  0  0  0  0  0  0  0  0  0 
    4.8137    0.9732   -2.1025 N   0  0  0  0  0  0  0  0  0  0  0  0 
    3.1729   -0.7462   -1.7857 N   0  0  0  0  0  0  0  0  0  0  0  0 
    5.2421   -3.1613    0.8621 N   0  0  0  0  0  0  0  0  0  0  0  0 
   -0.3968   -0.6163   -0.9749 N   0  0  0  0  0  0  0  0  0  0  0  0 
   -0.6504   -1.8275   -1.0459 O   0  0  0  0  0  0  0  0  0  0  0  0 
   -1.2288    0.2518   -0.6878 O   0  0  0  0  0  0  0  0  0  0  0  0 
    4.3227   -5.0231    0.6377 H   0  0  0  0  0  0  0  0  0  0  0  0 
    4.5462   -4.0872   -0.8655 H   0  0  0  0  0  0  0  0  0  0  0  0 
    3.2546   -3.6465    0.2826 H   0  0  0  0  0  0  0  0  0  0  0  0 
    5.4666   -4.2413    2.6489 H   0  0  0  0  0  0  0  0  0  0  0  0 
    4.3426   -2.8675    2.7639 H   0  0  0  0  0  0  0  0  0  0  0  0 
    6.0946   -2.5798    2.6822 H   0  0  0  0  0  0  0  0  0  0  0  0 
    0.5511    1.9231   -0.9035 H   0  0  0  0  0  0  0  0  0  0  0  0 
    2.9173    2.6008   -1.3568 H   0  0  0  0  0  0  0  0  0  0  0  0 
    6.9832   -0.2094   -0.8869 H   0  0  0  0  0  0  0  0  0  0  0  0 
    7.3348   -1.3472   -2.2011 H   0  0  0  0  0  0  0  0  0  0  0  0 
    5.2786   -0.6548   -3.3945 H   0  0  0  0  0  0  0  0  0  0  0  0 
    6.5080    0.5979   -3.2143 H   0  0  0  0  0  0  0  0  0  0  0  0 
    1.6793   -2.1809   -1.5368 H   0  0  0  0  0  0  0  0  0  0  0  0 
    6.5782   -1.5955    0.8013 H   0  0  0  0  0  0  0  0  0  0  0  0 
    3.9177   -1.4574   -1.7800 H   0  0  0  0  0  0  0  0  0  0  0  0 
  1 20  1  0  0  0  0 
  1 18  1  0  0  0  0 
  1 14  1  0  0  0  0 
  2 21  1  0  0  0  0 
  2 23  1  0  0  0  0 
  2 22  1  0  0  0  0 
  3 24  1  0  0  0  0 
  4 25  1  0  0  0  0 
  4  3  2  0  0  0  0 
  5 11  1  0  0  0  0 
  5 26  1  0  0  0  0 
  6 12  1  0  0  0  0 
  6  5  1  0  0  0  0 
  7  9  2  0  0  0  0 
  8 31  1  0  0  0  0 
  8 14  1  0  0  0  0 
  9  3  1  0  0  0  0 
  9 15  1  0  0  0  0 
 10  4  1  0  0  0  0 
 11  8  2  0  0  0  0 
 12 10  2  0  0  0  0 
 13 10  1  0  0  0  0 
 13 32  1  0  0  0  0 
 13  7  1  0  0  0  0 
 14  2  1  0  0  0  0 
 15 17  2  0  0  0  0 
 16 15  2  0  0  0  0 
 19  1  1  0  0  0  0 
 27  5  1  0  0  0  0 
 28  6  1  0  0  0  0 
 29  6  1  0  0  0  0 
 30  7  1  0  0  0  0 
M  END 
>  <HBA> 
4 
 
>  <HBD> 
1 
 
>  <TPSA> 
86.34 
 
>  <cid> 
58294 
 
>  <dipole> 
6.8 
 
>  <excitation_energy_1> 
3.104 
 
>  <excitation_energy_2> 
3.679 
 
>  <excitation_energy_3> 
3.79 
 
>  <excitation_energy_4> 
3.95 
 
>  <homo_energy> 
-5.559 
 
>  <homo_lumo_gap> 
3.608 
 
>  <logP> 
1.588 
 
>  <lumo_energy> 
-1.951 
 
>  <melting_point> 
111.02 
 
>  <molecular_refractivity> 
68.17 
 
>  <oscillator_strength_1> 
0.1554 
 
>  <oscillator_strength_2> 
0.0065 
 
>  <oscillator_strength_3> 
0.0007 
 
>  <oscillator_strength_4> 
0.2103 
 
>  <open_babel_can_smiles> 
CN(/C=N/CC/N=c\1/ccc(c[nH]1)N(=O)=O)C 
 
>  <mulliken_charges> 
32 
1   -0.320954 
2   -0.314325 
3   -0.107402 
4   -0.186631 
5   -0.123783 
6   -0.180308 
7   0.093881 
8   0.281676 
9   0.215969 
10   0.531416 
11   -0.491514 
12   -0.481435 
13   -0.679957 
14   -0.367962 
15   0.356272 
16   -0.43252 
17   -0.410442 
18   0.161594 
19   0.190228 
20   0.158436 
21   0.165294 
22   0.165409 
23   0.16874 
24   0.181519 
25   0.158015 
26   0.132231 
27   0.142022 
28   0.129525 
29   0.148118 
30   0.206258 
31   0.130014 
32   0.380617 
 
>  <lowdin_charges> 
32 
1   -0.352294 
2   -0.345806 
3   -0.137554 
4   -0.164567 
5   -0.205644 
6   -0.218478 
7   -0.044182 
8   -0.028896 
9   -0.060288 
10   0.089114 
11   -0.277328 
12   -0.245556 
13   -0.193106 
14   -0.091007 
15   0.30875 
16   -0.284384 
17   -0.268092 
18   0.157347 
19   0.173572 
20   0.146909 
21   0.155083 
22   0.151279 
23   0.16419 
24   0.18933 
25   0.179144 
26   0.13502 
27   0.146637 
28   0.133084 
29   0.153423 
30   0.190963 
31   0.138897 
32   0.304441 
 
$$$$ 
 
