PCCDB-ID:  20491 
public computational chemistry database (PCCDB) project, http://pccdb.org 
 
 32 33  0  0  1  0  0  0  0  0999 V2000 
    4.8426   -1.9394   -2.3949 C   0  0  0  0  0  0  0  0  0  0  0  0 
    3.9096   -2.6197   -1.6114 C   0  0  0  0  0  0  0  0  0  0  0  0 
    4.6201   -0.6011   -2.7255 C   0  0  0  0  0  0  0  0  0  0  0  0 
    2.7608   -1.9649   -1.1642 C   0  0  0  0  0  0  0  0  0  0  0  0 
    3.4732    0.0497   -2.2714 C   0  0  0  0  0  0  0  0  0  0  0  0 
   -0.2650    1.1230    1.5337 C   0  0  0  0  0  0  0  0  0  0  0  0 
   -0.3243    2.8074   -0.1894 C   0  0  0  0  0  0  0  0  0  0  0  0 
   -1.1323    2.0315    2.4064 C   0  0  0  0  0  0  0  0  0  0  0  0 
   -1.1769    3.6743    0.7359 C   0  0  0  0  0  0  0  0  0  0  0  0 
    1.6213    1.2627   -0.0475 C   0  0  0  0  0  0  0  0  0  0  0  0 
    2.5247   -0.6235   -1.4866 C   0  0  0  0  0  0  0  0  0  0  0  0 
    1.2723    0.0871   -0.9968 C   0  0  2  0  0  0  0  0  0  0  0  0 
    0.5313    1.9470    0.6299 N   0  0  0  0  0  0  0  0  0  0  0  0 
    0.4292    0.5037   -2.0781 O   0  0  0  0  0  0  0  0  0  0  0  0 
   -1.9592    2.8728    1.6142 O   0  0  0  0  0  0  0  0  0  0  0  0 
    5.7362   -2.4476   -2.7468 H   0  0  0  0  0  0  0  0  0  0  0  0 
    4.0723   -3.6626   -1.3523 H   0  0  0  0  0  0  0  0  0  0  0  0 
    5.3416   -0.0626   -3.3343 H   0  0  0  0  0  0  0  0  0  0  0  0 
    2.0332   -2.5039   -0.5616 H   0  0  0  0  0  0  0  0  0  0  0  0 
    3.3226    1.0956   -2.5344 H   0  0  0  0  0  0  0  0  0  0  0  0 
   -0.9259    0.4160    0.9971 H   0  0  0  0  0  0  0  0  0  0  0  0 
    0.4086    0.5360    2.1717 H   0  0  0  0  0  0  0  0  0  0  0  0 
    0.3123    3.4507   -0.8108 H   0  0  0  0  0  0  0  0  0  0  0  0 
   -0.9814    2.2340   -0.8620 H   0  0  0  0  0  0  0  0  0  0  0  0 
   -0.4820    2.6411    3.0555 H   0  0  0  0  0  0  0  0  0  0  0  0 
   -1.8054    1.4398    3.0349 H   0  0  0  0  0  0  0  0  0  0  0  0 
   -1.8843    4.2796    0.1603 H   0  0  0  0  0  0  0  0  0  0  0  0 
   -0.5244    4.3454    1.3189 H   0  0  0  0  0  0  0  0  0  0  0  0 
    2.1856    2.0172   -0.6144 H   0  0  0  0  0  0  0  0  0  0  0  0 
    2.3060    0.8767    0.7211 H   0  0  0  0  0  0  0  0  0  0  0  0 
    0.6597   -0.6349   -0.4470 H   0  0  0  0  0  0  0  0  0  0  0  0 
    0.9680    1.0349   -2.6856 H   0  0  0  0  0  0  0  0  0  0  0  0 
  1  2  1  0  0  0  0 
  2 17  1  0  0  0  0 
  2  4  2  0  0  0  0 
  3  1  2  0  0  0  0 
  3  5  1  0  0  0  0 
  4 19  1  0  0  0  0 
  5 11  2  0  0  0  0 
  6 22  1  0  0  0  0 
  6  8  1  0  0  0  0 
  7 13  1  0  0  0  0 
  7  9  1  0  0  0  0 
  8 26  1  0  0  0  0 
  8 25  1  0  0  0  0 
  9 28  1  0  0  0  0 
  9 15  1  0  0  0  0 
 10 13  1  0  0  0  0 
 10 30  1  0  0  0  0 
 11  4  1  0  0  0  0 
 11 12  1  0  0  0  0 
 12 31  1  1  0  0  0 
 12 10  1  0  0  0  0 
 13  6  1  0  0  0  0 
 14 12  1  0  0  0  0 
 15  8  1  0  0  0  0 
 16  1  1  0  0  0  0 
 18  3  1  0  0  0  0 
 20  5  1  0  0  0  0 
 21  6  1  0  0  0  0 
 23  7  1  0  0  0  0 
 24  7  1  0  0  0  0 
 27  9  1  0  0  0  0 
 29 10  1  0  0  0  0 
 32 14  1  0  0  0  0 
M  END 
>  <HBA> 
3 
 
>  <HBD> 
1 
 
>  <TPSA> 
32.7 
 
>  <cid> 
20491 
 
>  <dipole> 
2.87 
 
>  <excitation_energy_1> 
4.445 
 
>  <excitation_energy_2> 
4.499 
 
>  <excitation_energy_3> 
4.868 
 
>  <excitation_energy_4> 
5.215 
 
>  <homo_energy> 
-5.429 
 
>  <homo_lumo_gap> 
5.178 
 
>  <logP> 
0.99 
 
>  <lumo_energy> 
-0.25 
 
>  <melting_point> 
38.71 
 
>  <molecular_refractivity> 
62.39 
 
>  <oscillator_strength_1> 
0.0405 
 
>  <oscillator_strength_2> 
0.0032 
 
>  <oscillator_strength_3> 
0.0031 
 
>  <oscillator_strength_4> 
0.0057 
 
>  <open_babel_can_smiles> 
O[C@@H](c1ccccc1)CN1CCOCC1 
 
>  <mulliken_charges> 
32 
1   -0.128876 
2   -0.125739 
3   -0.128311 
4   -0.190179 
5   -0.197537 
6   -0.138983 
7   -0.133716 
8   -0.027017 
9   -0.029305 
10   -0.140778 
11   0.182586 
12   0.023516 
13   -0.394091 
14   -0.612642 
15   -0.470245 
16   0.132649 
17   0.133195 
18   0.132426 
19   0.130222 
20   0.117928 
21   0.130639 
22   0.132242 
23   0.121633 
24   0.153309 
25   0.124465 
26   0.14071 
27   0.140469 
28   0.122027 
29   0.126489 
30   0.141735 
31   0.144544 
32   0.386635 
 
>  <lowdin_charges> 
32 
1   -0.156422 
2   -0.150357 
3   -0.153672 
4   -0.163143 
5   -0.170017 
6   -0.219524 
7   -0.221378 
8   -0.14013 
9   -0.142194 
10   -0.220757 
11   -0.016156 
12   -0.018795 
13   -0.187272 
14   -0.455782 
15   -0.273577 
16   0.159813 
17   0.15811 
18   0.160212 
19   0.158775 
20   0.147303 
21   0.128055 
22   0.147787 
23   0.143775 
24   0.140959 
25   0.13114 
26   0.150721 
27   0.150692 
28   0.12985 
29   0.141776 
30   0.150187 
31   0.150395 
32   0.339626 
 
$$$$ 
 
