PCCDB-ID:  15761 
public computational chemistry database (PCCDB) project, http://pccdb.org 
 
 19 19  0  0  1  0  0  0  0  0999 V2000 
    3.3018    0.4527    1.1750 C   0  0  0  0  0  0  0  0  0  0  0  0 
    3.6289   -4.0901   -1.0804 C   0  0  0  0  0  0  0  0  0  0  0  0 
    2.6240   -3.8964   -0.1314 C   0  0  0  0  0  0  0  0  0  0  0  0 
    4.2249   -2.9852   -1.6907 C   0  0  0  0  0  0  0  0  0  0  0  0 
    2.2196   -2.6038    0.2040 C   0  0  0  0  0  0  0  0  0  0  0  0 
    3.8220   -1.6929   -1.3526 C   0  0  0  0  0  0  0  0  0  0  0  0 
    2.3842    0.8614   -1.0866 C   0  0  0  0  0  0  0  0  0  0  0  0 
    2.3987   -0.0885    0.0382 C   0  0  1  0  0  0  0  0  0  0  0  0 
    2.8158   -1.4914   -0.4008 C   0  0  0  0  0  0  0  0  0  0  0  0 
    2.3915    1.6234   -1.9626 N   0  0  0  0  0  0  0  0  0  0  0  0 
    2.9724    1.4454    1.4972 H   0  0  0  0  0  0  0  0  0  0  0  0 
    4.3409    0.5204    0.8402 H   0  0  0  0  0  0  0  0  0  0  0  0 
    3.2584   -0.2296    2.0292 H   0  0  0  0  0  0  0  0  0  0  0  0 
    3.9406   -5.0960   -1.3478 H   0  0  0  0  0  0  0  0  0  0  0  0 
    2.1486   -4.7503    0.3436 H   0  0  0  0  0  0  0  0  0  0  0  0 
    5.0028   -3.1273   -2.4359 H   0  0  0  0  0  0  0  0  0  0  0  0 
    1.4323   -2.4587    0.9409 H   0  0  0  0  0  0  0  0  0  0  0  0 
    4.2800   -0.8377   -1.8428 H   0  0  0  0  0  0  0  0  0  0  0  0 
    1.3696   -0.1406    0.4170 H   0  0  0  0  0  0  0  0  0  0  0  0 
  1 11  1  0  0  0  0 
  1 13  1  0  0  0  0 
  2  3  2  0  0  0  0 
  3  5  1  0  0  0  0 
  3 15  1  0  0  0  0 
  4  6  2  0  0  0  0 
  4  2  1  0  0  0  0 
  5 17  1  0  0  0  0 
  6  9  1  0  0  0  0 
  7  8  1  0  0  0  0 
  8 19  1  1  0  0  0 
  8  1  1  0  0  0  0 
  9  8  1  0  0  0  0 
  9  5  2  0  0  0  0 
 10  7  3  0  0  0  0 
 12  1  1  0  0  0  0 
 14  2  1  0  0  0  0 
 16  4  1  0  0  0  0 
 18  6  1  0  0  0  0 
M  END 
>  <HBA> 
1 
 
>  <HBD> 
0 
 
>  <TPSA> 
23.79 
 
>  <cid> 
15761 
 
>  <dipole> 
3.96 
 
>  <excitation_energy_1> 
5.321 
 
>  <excitation_energy_2> 
5.926 
 
>  <excitation_energy_3> 
6.196 
 
>  <excitation_energy_4> 
6.31 
 
>  <homo_energy> 
-6.947 
 
>  <homo_lumo_gap> 
6.558 
 
>  <logP> 
2.314 
 
>  <lumo_energy> 
-0.389 
 
>  <melting_point> 
39.72 
 
>  <molecular_refractivity> 
40.77 
 
>  <oscillator_strength_1> 
0.0003 
 
>  <oscillator_strength_2> 
0.0379 
 
>  <oscillator_strength_3> 
0.0042 
 
>  <oscillator_strength_4> 
0.004 
 
>  <open_babel_can_smiles> 
C[C@H](c1ccccc1)C#N 
 
>  <mulliken_charges> 
19 
1   -0.432036 
2   -0.125646 
3   -0.12868 
4   -0.132272 
5   -0.179245 
6   -0.172673 
7   0.352179 
8   -0.246579 
9   0.163817 
10   -0.476255 
11   0.167601 
12   0.170705 
13   0.16367 
14   0.135276 
15   0.135526 
16   0.138559 
17   0.127966 
18   0.151337 
19   0.186752 
 
>  <lowdin_charges> 
19 
1   -0.427801 
2   -0.153277 
3   -0.152709 
4   -0.148146 
5   -0.165028 
6   -0.160819 
7   -0.014393 
8   -0.119342 
9   -0.002632 
10   -0.130074 
11   0.162267 
12   0.162921 
13   0.161943 
14   0.160128 
15   0.161704 
16   0.162297 
17   0.15664 
18   0.169093 
19   0.177229 
 
$$$$ 
 
