PCCDB-ID:  37064 
public computational chemistry database (PCCDB) project, http://pccdb.org 
 
 43 42  0  0  0  0  0  0  0  0999 V2000 
    5.3278   -3.1421   -2.4007 C   0  0  0  0  0  0  0  0  0  0  0  0 
    5.3630   -1.7760   -1.7047 C   0  0  0  0  0  0  0  0  0  0  0  0 
    5.6663   -1.8338   -0.1977 C   0  0  0  0  0  0  0  0  0  0  0  0 
    7.0835   -2.3137    0.1373 C   0  0  0  0  0  0  0  0  0  0  0  0 
    7.4501   -2.3500    1.6016 C   0  0  0  0  0  0  0  0  0  0  0  0 
    6.6672   -2.0183    2.6324 C   0  0  0  0  0  0  0  0  0  0  0  0 
    7.0372   -2.0600    4.0954 C   0  0  0  0  0  0  0  0  0  0  0  0 
    8.4557   -2.5341    4.4308 C   0  0  0  0  0  0  0  0  0  0  0  0 
    8.7341   -2.5421    5.9408 C   0  0  0  0  0  0  0  0  0  0  0  0 
   10.1182   -3.0844    6.3349 C   0  0  0  0  0  0  0  0  0  0  0  0 
   11.3022   -2.2257    5.8675 C   0  0  0  0  0  0  0  0  0  0  0  0 
   12.6525   -2.7739    6.3521 C   0  0  0  0  0  0  0  0  0  0  0  0 
   13.8964   -2.0033    5.8755 C   0  0  0  0  0  0  0  0  0  0  0  0 
   14.1174   -0.6331    6.5094 C   0  0  0  0  0  0  0  0  0  0  0  0 
   13.1353    0.2825    6.0272 O   0  0  0  0  0  0  0  0  0  0  0  0 
    5.0593   -3.0379   -3.4583 H   0  0  0  0  0  0  0  0  0  0  0  0 
    4.5868   -3.8030   -1.9333 H   0  0  0  0  0  0  0  0  0  0  0  0 
    6.2979   -3.6495   -2.3577 H   0  0  0  0  0  0  0  0  0  0  0  0 
    4.3923   -1.2818   -1.8457 H   0  0  0  0  0  0  0  0  0  0  0  0 
    6.1051   -1.1324   -2.1990 H   0  0  0  0  0  0  0  0  0  0  0  0 
    4.9322   -2.4887    0.2931 H   0  0  0  0  0  0  0  0  0  0  0  0 
    5.5196   -0.8331    0.2304 H   0  0  0  0  0  0  0  0  0  0  0  0 
    7.8105   -1.6735   -0.3891 H   0  0  0  0  0  0  0  0  0  0  0  0 
    7.2433   -3.3198   -0.2794 H   0  0  0  0  0  0  0  0  0  0  0  0 
    8.4677   -2.6864    1.8008 H   0  0  0  0  0  0  0  0  0  0  0  0 
    5.6491   -1.6816    2.4355 H   0  0  0  0  0  0  0  0  0  0  0  0 
    6.3103   -2.7004    4.6209 H   0  0  0  0  0  0  0  0  0  0  0  0 
    6.8836   -1.0558    4.5230 H   0  0  0  0  0  0  0  0  0  0  0  0 
    9.1823   -1.8892    3.9205 H   0  0  0  0  0  0  0  0  0  0  0  0 
    8.6067   -3.5473    4.0314 H   0  0  0  0  0  0  0  0  0  0  0  0 
    7.9634   -3.1485    6.4383 H   0  0  0  0  0  0  0  0  0  0  0  0 
    8.6197   -1.5218    6.3363 H   0  0  0  0  0  0  0  0  0  0  0  0 
   10.2297   -4.1077    5.9444 H   0  0  0  0  0  0  0  0  0  0  0  0 
   10.1586   -3.1746    7.4304 H   0  0  0  0  0  0  0  0  0  0  0  0 
   11.1768   -1.1953    6.2183 H   0  0  0  0  0  0  0  0  0  0  0  0 
   11.3180   -2.1708    4.7702 H   0  0  0  0  0  0  0  0  0  0  0  0 
   12.7487   -3.8171    6.0171 H   0  0  0  0  0  0  0  0  0  0  0  0 
   12.6575   -2.8130    7.4524 H   0  0  0  0  0  0  0  0  0  0  0  0 
   13.8690   -1.8782    4.7845 H   0  0  0  0  0  0  0  0  0  0  0  0 
   14.7889   -2.6047    6.0977 H   0  0  0  0  0  0  0  0  0  0  0  0 
   15.1302   -0.2782    6.2565 H   0  0  0  0  0  0  0  0  0  0  0  0 
   14.0673   -0.7230    7.6080 H   0  0  0  0  0  0  0  0  0  0  0  0 
   13.2785    1.1322    6.4707 H   0  0  0  0  0  0  0  0  0  0  0  0 
  1 18  1  0  0  0  0 
  1 17  1  0  0  0  0 
  1  2  1  0  0  0  0 
  2  3  1  0  0  0  0 
  3  4  1  0  0  0  0 
  3 22  1  0  0  0  0 
  3 21  1  0  0  0  0 
  4  5  1  0  0  0  0 
  5 25  1  0  0  0  0 
  5  6  2  0  0  0  0 
  6  7  1  0  0  0  0 
  7  8  1  0  0  0  0 
  7 28  1  0  0  0  0 
  7 27  1  0  0  0  0 
  8  9  1  0  0  0  0 
  9 10  1  0  0  0  0 
  9 32  1  0  0  0  0 
  9 31  1  0  0  0  0 
 10 34  1  0  0  0  0 
 11 35  1  0  0  0  0 
 11 10  1  0  0  0  0 
 11 12  1  0  0  0  0 
 12 38  1  0  0  0  0 
 13 40  1  0  0  0  0 
 13 12  1  0  0  0  0 
 13 14  1  0  0  0  0 
 14 42  1  0  0  0  0 
 15 43  1  0  0  0  0 
 15 14  1  0  0  0  0 
 16  1  1  0  0  0  0 
 19  2  1  0  0  0  0 
 20  2  1  0  0  0  0 
 23  4  1  0  0  0  0 
 24  4  1  0  0  0  0 
 26  6  1  0  0  0  0 
 29  8  1  0  0  0  0 
 30  8  1  0  0  0  0 
 33 10  1  0  0  0  0 
 36 11  1  0  0  0  0 
 37 12  1  0  0  0  0 
 39 13  1  0  0  0  0 
 41 14  1  0  0  0  0 
M  END 
>  <HBA> 
1 
 
>  <HBD> 
1 
 
>  <TPSA> 
20.23 
 
>  <cid> 
37064 
 
>  <dipole> 
1.75 
 
>  <excitation_energy_1> 
6.057 
 
>  <excitation_energy_2> 
6.066 
 
>  <excitation_energy_3> 
6.114 
 
>  <excitation_energy_4> 
6.306 
 
>  <homo_energy> 
-6.24 
 
>  <homo_lumo_gap> 
7.421 
 
>  <logP> 
4.456 
 
>  <lumo_energy> 
1.181 
 
>  <melting_point> 
-3.47 
 
>  <molecular_refractivity> 
70.1 
 
>  <oscillator_strength_1> 
0.0017 
 
>  <oscillator_strength_2> 
0.0027 
 
>  <oscillator_strength_3> 
0.0011 
 
>  <oscillator_strength_4> 
0.0002 
 
>  <open_babel_can_smiles> 
CCCC/C=C/CCCCCCCCO 
 
>  <mulliken_charges> 
43 
1   -0.443509 
2   -0.250031 
3   -0.254182 
4   -0.296052 
5   -0.109931 
6   -0.106924 
7   -0.297003 
8   -0.259045 
9   -0.255149 
10   -0.255705 
11   -0.249457 
12   -0.255051 
13   -0.266053 
14   -0.029677 
15   -0.609969 
16   0.141197 
17   0.141263 
18   0.145771 
19   0.130081 
20   0.129214 
21   0.132501 
22   0.134349 
23   0.137496 
24   0.142418 
25   0.117347 
26   0.115558 
27   0.136877 
28   0.138511 
29   0.143857 
30   0.131148 
31   0.123324 
32   0.126188 
33   0.121133 
34   0.122177 
35   0.15472 
36   0.12903 
37   0.125874 
38   0.121561 
39   0.144533 
40   0.128594 
41   0.117581 
42   0.114933 
43   0.390503 
 
>  <lowdin_charges> 
43 
1   -0.447016 
2   -0.27339 
3   -0.277449 
4   -0.274217 
5   -0.177439 
6   -0.177292 
7   -0.271754 
8   -0.278533 
9   -0.274556 
10   -0.272728 
11   -0.278945 
12   -0.269341 
13   -0.28027 
14   -0.130482 
15   -0.47166 
16   0.147839 
17   0.147287 
18   0.146474 
19   0.141334 
20   0.139651 
21   0.141344 
22   0.142571 
23   0.147411 
24   0.14742 
25   0.147183 
26   0.146249 
27   0.146915 
28   0.146079 
29   0.145735 
30   0.138707 
31   0.139326 
32   0.136455 
33   0.13314 
34   0.135412 
35   0.150334 
36   0.136588 
37   0.13754 
38   0.132407 
39   0.14667 
40   0.146731 
41   0.124664 
42   0.120051 
43   0.343554 
 
$$$$ 
 
