PCCDB-ID:  31676 
public computational chemistry database (PCCDB) project, http://pccdb.org 
 
 23 22  0  0  0  0  0  0  0  0999 V2000 
    0.4523   -0.4430   -0.6789 C   0  0  0  0  0  0  0  0  0  0  0  0 
    0.5187    1.0887   -0.6001 C   0  0  0  0  0  0  0  0  0  0  0  0 
    1.7020   -1.1145   -1.2676 C   0  0  0  0  0  0  0  0  0  0  0  0 
   -0.7773    1.7170   -0.0714 C   0  0  0  0  0  0  0  0  0  0  0  0 
    2.9955   -0.9224   -0.4417 C   0  0  0  0  0  0  0  0  0  0  0  0 
   -0.7422    3.2548    0.0212 C   0  0  0  0  0  0  0  0  0  0  0  0 
    2.8801   -1.4356    0.9277 C   0  0  0  0  0  0  0  0  0  0  0  0 
    0.2234    3.8473    0.9516 N   0  0  0  0  0  0  0  0  0  0  0  0 
    2.7671   -1.8434    2.0090 N   0  0  0  0  0  0  0  0  0  0  0  0 
   -0.4087   -0.7300   -1.2976 H   0  0  0  0  0  0  0  0  0  0  0  0 
    0.2584   -0.8530    0.3218 H   0  0  0  0  0  0  0  0  0  0  0  0 
    0.7387    1.4975   -1.5985 H   0  0  0  0  0  0  0  0  0  0  0  0 
    1.3524    1.3916    0.0488 H   0  0  0  0  0  0  0  0  0  0  0  0 
    1.8982   -0.7229   -2.2741 H   0  0  0  0  0  0  0  0  0  0  0  0 
    1.5183   -2.1898   -1.3776 H   0  0  0  0  0  0  0  0  0  0  0  0 
   -1.0035    1.3024    0.9227 H   0  0  0  0  0  0  0  0  0  0  0  0 
   -1.6133    1.4229   -0.7232 H   0  0  0  0  0  0  0  0  0  0  0  0 
    3.2681    0.1382   -0.3877 H   0  0  0  0  0  0  0  0  0  0  0  0 
    3.8314   -1.4354   -0.9323 H   0  0  0  0  0  0  0  0  0  0  0  0 
   -1.7378    3.6148    0.3097 H   0  0  0  0  0  0  0  0  0  0  0  0 
   -0.5412    3.6749   -0.9737 H   0  0  0  0  0  0  0  0  0  0  0  0 
    1.1734    3.5936    0.6865 H   0  0  0  0  0  0  0  0  0  0  0  0 
    0.0797    3.4689    1.8875 H   0  0  0  0  0  0  0  0  0  0  0  0 
  1  2  1  0  0  0  0 
  1 11  1  0  0  0  0 
  2  4  1  0  0  0  0 
  2 13  1  0  0  0  0 
  3  1  1  0  0  0  0 
  3  5  1  0  0  0  0 
  4  6  1  0  0  0  0 
  4 16  1  0  0  0  0 
  5 18  1  0  0  0  0 
  5  7  1  0  0  0  0 
  6 20  1  0  0  0  0 
  6  8  1  0  0  0  0 
  7  9  3  0  0  0  0 
  8 23  1  0  0  0  0 
 10  1  1  0  0  0  0 
 12  2  1  0  0  0  0 
 14  3  1  0  0  0  0 
 15  3  1  0  0  0  0 
 17  4  1  0  0  0  0 
 19  5  1  0  0  0  0 
 21  6  1  0  0  0  0 
 22  8  1  0  0  0  0 
M  END 
>  <HBA> 
2 
 
>  <HBD> 
1 
 
>  <TPSA> 
49.81 
 
>  <cid> 
31676 
 
>  <dipole> 
3.49 
 
>  <excitation_energy_1> 
5.57 
 
>  <excitation_energy_2> 
5.959 
 
>  <excitation_energy_3> 
6.223 
 
>  <excitation_energy_4> 
6.387 
 
>  <homo_energy> 
-6.324 
 
>  <homo_lumo_gap> 
7.159 
 
>  <logP> 
2.119 
 
>  <lumo_energy> 
0.835 
 
>  <melting_point> 
60.92 
 
>  <molecular_refractivity> 
38.22 
 
>  <oscillator_strength_1> 
0.0255 
 
>  <oscillator_strength_2> 
0.0118 
 
>  <oscillator_strength_3> 
0.0163 
 
>  <oscillator_strength_4> 
0.0085 
 
>  <open_babel_can_smiles> 
NCCCCCCC#N 
 
>  <mulliken_charges> 
23 
1   -0.265512 
2   -0.257723 
3   -0.264115 
4   -0.260446 
5   -0.349845 
6   -0.145608 
7   0.353773 
8   -0.705211 
9   -0.473102 
10   0.140277 
11   0.158126 
12   0.128318 
13   0.121094 
14   0.147079 
15   0.156786 
16   0.13046 
17   0.12857 
18   0.192802 
19   0.193375 
20   0.143559 
21   0.138083 
22   0.295127 
23   0.294134 
 
>  <lowdin_charges> 
23 
1   -0.279191 
2   -0.282034 
3   -0.263789 
4   -0.294085 
5   -0.277679 
6   -0.206868 
7   -0.018856 
8   -0.552029 
9   -0.131694 
10   0.148674 
11   0.1525 
12   0.136907 
13   0.133682 
14   0.14936 
15   0.154015 
16   0.138783 
17   0.143114 
18   0.177146 
19   0.183595 
20   0.145058 
21   0.140469 
22   0.250386 
23   0.252535 
 
$$$$ 
 
