PCCDB-ID:  15800 
public computational chemistry database (PCCDB) project, http://pccdb.org 
 
 26 27  0  0  0  0  0  0  0  0999 V2000 
    4.5530   -2.9140    3.4425 C   0  0  0  0  0  0  0  0  0  0  0  0 
    3.8822   -2.8632    2.0781 C   0  0  0  0  0  0  0  0  0  0  0  0 
    6.8922    4.0003   -2.0129 C   0  0  0  0  0  0  0  0  0  0  0  0 
    7.7573    3.2613   -2.8384 C   0  0  0  0  0  0  0  0  0  0  0  0 
    6.1031    3.3447   -1.0813 C   0  0  0  0  0  0  0  0  0  0  0  0 
    7.8384    1.8771   -2.7356 C   0  0  0  0  0  0  0  0  0  0  0  0 
    5.3868    1.1857   -0.0246 C   0  0  0  0  0  0  0  0  0  0  0  0 
    6.1647    1.9417   -0.9567 C   0  0  0  0  0  0  0  0  0  0  0  0 
    5.4737   -0.1713    0.0661 C   0  0  0  0  0  0  0  0  0  0  0  0 
    7.0405    1.2233   -1.7934 C   0  0  0  0  0  0  0  0  0  0  0  0 
    4.5960   -0.8295    1.0870 C   0  0  0  0  0  0  0  0  0  0  0  0 
    6.3921   -0.9187   -0.8099 C   0  0  0  0  0  0  0  0  0  0  0  0 
    3.8539   -0.1874    1.8109 O   0  0  0  0  0  0  0  0  0  0  0  0 
    6.5885   -2.1043   -0.8547 O   0  0  0  0  0  0  0  0  0  0  0  0 
    4.7052   -2.1626    1.1130 O   0  0  0  0  0  0  0  0  0  0  0  0 
    7.1359   -0.1283   -1.7091 O   0  0  0  0  0  0  0  0  0  0  0  0 
    3.9576   -3.5320    4.1245 H   0  0  0  0  0  0  0  0  0  0  0  0 
    4.6352   -1.9112    3.8709 H   0  0  0  0  0  0  0  0  0  0  0  0 
    5.5535   -3.3515    3.3655 H   0  0  0  0  0  0  0  0  0  0  0  0 
    2.9064   -2.3744    2.1309 H   0  0  0  0  0  0  0  0  0  0  0  0 
    3.7698   -3.8615    1.6494 H   0  0  0  0  0  0  0  0  0  0  0  0 
    6.8435    5.0805   -2.1073 H   0  0  0  0  0  0  0  0  0  0  0  0 
    8.3749    3.7771   -3.5682 H   0  0  0  0  0  0  0  0  0  0  0  0 
    5.4284    3.8995   -0.4348 H   0  0  0  0  0  0  0  0  0  0  0  0 
    8.5007    1.2919   -3.3645 H   0  0  0  0  0  0  0  0  0  0  0  0 
    4.6968    1.6955    0.6426 H   0  0  0  0  0  0  0  0  0  0  0  0 
  1 18  1  0  0  0  0 
  1 17  1  0  0  0  0 
  2 20  1  0  0  0  0 
  2  1  1  0  0  0  0 
  3  5  2  0  0  0  0 
  4  6  2  0  0  0  0 
  4  3  1  0  0  0  0 
  5  8  1  0  0  0  0 
  5 24  1  0  0  0  0 
  6 10  1  0  0  0  0 
  7  9  2  0  0  0  0 
  7 26  1  0  0  0  0 
  8  7  1  0  0  0  0 
  9 11  1  0  0  0  0 
 10 16  1  0  0  0  0 
 10  8  2  0  0  0  0 
 11 15  1  0  0  0  0 
 11 13  2  0  0  0  0 
 12  9  1  0  0  0  0 
 14 12  2  0  0  0  0 
 15  2  1  0  0  0  0 
 16 12  1  0  0  0  0 
 19  1  1  0  0  0  0 
 21  2  1  0  0  0  0 
 22  3  1  0  0  0  0 
 23  4  1  0  0  0  0 
 25  6  1  0  0  0  0 
M  END 
>  <HBA> 
4 
 
>  <HBD> 
0 
 
>  <TPSA> 
56.51 
 
>  <cid> 
15800 
 
>  <dipole> 
3.43 
 
>  <excitation_energy_1> 
3.767 
 
>  <excitation_energy_2> 
4.116 
 
>  <excitation_energy_3> 
4.242 
 
>  <excitation_energy_4> 
4.29 
 
>  <homo_energy> 
-6.642 
 
>  <homo_lumo_gap> 
4.286 
 
>  <logP> 
1.97 
 
>  <lumo_energy> 
-2.357 
 
>  <melting_point> 
108.61 
 
>  <molecular_refractivity> 
58.57 
 
>  <oscillator_strength_1> 
0.1617 
 
>  <oscillator_strength_2> 
0.0001 
 
>  <oscillator_strength_3> 
0.0024 
 
>  <oscillator_strength_4> 
0.2727 
 
>  <open_babel_can_smiles> 
CCOC(=O)c1cc2ccccc2oc1=O 
 
>  <mulliken_charges> 
26 
1   -0.464793 
2   -0.044812 
3   -0.136667 
4   -0.126719 
5   -0.18758 
6   -0.170061 
7   -0.167493 
8   0.127901 
9   -0.062373 
10   0.327048 
11   0.622402 
12   0.568657 
13   -0.502556 
14   -0.431024 
15   -0.446096 
16   -0.52233 
17   0.150551 
18   0.17469 
19   0.164929 
20   0.169474 
21   0.160845 
22   0.14428 
23   0.148912 
24   0.150771 
25   0.161341 
26   0.190704 
 
>  <lowdin_charges> 
26 
1   -0.45506 
2   -0.124833 
3   -0.163864 
4   -0.127553 
5   -0.136102 
6   -0.174755 
7   -0.073233 
8   -0.04689 
9   -0.096673 
10   0.121845 
11   0.201886 
12   0.197615 
13   -0.286743 
14   -0.212837 
15   -0.160484 
16   -0.134135 
17   0.160461 
18   0.163971 
19   0.159364 
20   0.157879 
21   0.156404 
22   0.164247 
23   0.169375 
24   0.169519 
25   0.179647 
26   0.190949 
 
$$$$ 
 
