PCCDB-ID:  69031 
public computational chemistry database (PCCDB) project, http://pccdb.org 
 
 29 30  0  0  0  0  0  0  0  0999 V2000 
    1.3305    0.3168   -0.3011 C   0  0  0  0  0  0  0  0  0  0  0  0 
    3.0623   -0.3306    4.5538 C   0  0  0  0  0  0  0  0  0  0  0  0 
    2.5598   -4.4666   -1.2948 C   0  0  0  0  0  0  0  0  0  0  0  0 
    4.1276   -0.6711    3.7150 C   0  0  0  0  0  0  0  0  0  0  0  0 
    1.8275   -0.0067    3.9955 C   0  0  0  0  0  0  0  0  0  0  0  0 
    1.7213   -4.0991   -0.2402 C   0  0  0  0  0  0  0  0  0  0  0  0 
    3.4221   -3.5191   -1.8456 C   0  0  0  0  0  0  0  0  0  0  0  0 
    3.9542   -0.6870    2.3336 C   0  0  0  0  0  0  0  0  0  0  0  0 
    1.6560   -0.0205    2.6076 C   0  0  0  0  0  0  0  0  0  0  0  0 
    1.7496   -2.7968    0.2563 C   0  0  0  0  0  0  0  0  0  0  0  0 
    3.4474   -2.2126   -1.3515 C   0  0  0  0  0  0  0  0  0  0  0  0 
    2.7149   -0.3620    1.7584 C   0  0  0  0  0  0  0  0  0  0  0  0 
    2.6110   -1.8380   -0.2940 C   0  0  0  0  0  0  0  0  0  0  0  0 
    2.5921   -0.3938    0.2261 C   0  0  0  0  0  0  0  0  0  0  0  0 
    3.7437    0.2561   -0.3414 O   0  0  0  0  0  0  0  0  0  0  0  0 
    0.4100   -0.1928   -0.0009 H   0  0  0  0  0  0  0  0  0  0  0  0 
    1.3712    0.3290   -1.3936 H   0  0  0  0  0  0  0  0  0  0  0  0 
    1.2852    1.3524    0.0589 H   0  0  0  0  0  0  0  0  0  0  0  0 
    3.1964   -0.3181    5.6322 H   0  0  0  0  0  0  0  0  0  0  0  0 
    2.5422   -5.4827   -1.6799 H   0  0  0  0  0  0  0  0  0  0  0  0 
    5.0953   -0.9256    4.1397 H   0  0  0  0  0  0  0  0  0  0  0  0 
    0.9916    0.2619    4.6363 H   0  0  0  0  0  0  0  0  0  0  0  0 
    1.0475   -4.8286    0.2019 H   0  0  0  0  0  0  0  0  0  0  0  0 
    4.0819   -3.7941   -2.6647 H   0  0  0  0  0  0  0  0  0  0  0  0 
    4.7823   -0.9457    1.6809 H   0  0  0  0  0  0  0  0  0  0  0  0 
    0.6866    0.2424    2.1963 H   0  0  0  0  0  0  0  0  0  0  0  0 
    1.1048   -2.5277    1.0890 H   0  0  0  0  0  0  0  0  0  0  0  0 
    4.1181   -1.4786   -1.7821 H   0  0  0  0  0  0  0  0  0  0  0  0 
    3.7829    1.1439    0.0481 H   0  0  0  0  0  0  0  0  0  0  0  0 
  1 16  1  0  0  0  0 
  1 18  1  0  0  0  0 
  1 14  1  0  0  0  0 
  2 19  1  0  0  0  0 
  3  6  2  0  0  0  0 
  4 21  1  0  0  0  0 
  4  2  2  0  0  0  0 
  5  2  1  0  0  0  0 
  5 22  1  0  0  0  0 
  6 23  1  0  0  0  0 
  6 10  1  0  0  0  0 
  7 11  2  0  0  0  0 
  7  3  1  0  0  0  0 
  8  4  1  0  0  0  0 
  9  5  2  0  0  0  0 
 10 27  1  0  0  0  0 
 11 13  1  0  0  0  0 
 12  8  2  0  0  0  0 
 12  9  1  0  0  0  0 
 13 14  1  0  0  0  0 
 13 10  2  0  0  0  0 
 14 12  1  0  0  0  0 
 15 29  1  0  0  0  0 
 15 14  1  0  0  0  0 
 17  1  1  0  0  0  0 
 20  3  1  0  0  0  0 
 24  7  1  0  0  0  0 
 25  8  1  0  0  0  0 
 26  9  1  0  0  0  0 
 28 11  1  0  0  0  0 
M  END 
>  <HBA> 
1 
 
>  <HBD> 
1 
 
>  <TPSA> 
20.23 
 
>  <cid> 
69031 
 
>  <dipole> 
1.49 
 
>  <excitation_energy_1> 
5.207 
 
>  <excitation_energy_2> 
5.276 
 
>  <excitation_energy_3> 
5.426 
 
>  <excitation_energy_4> 
5.625 
 
>  <homo_energy> 
-6.308 
 
>  <homo_lumo_gap> 
6.128 
 
>  <logP> 
2.942 
 
>  <lumo_energy> 
-0.18 
 
>  <melting_point> 
62.44 
 
>  <molecular_refractivity> 
61.75 
 
>  <oscillator_strength_1> 
0.019 
 
>  <oscillator_strength_2> 
0.0008 
 
>  <oscillator_strength_3> 
0.0275 
 
>  <oscillator_strength_4> 
0.0159 
 
>  <open_babel_can_smiles> 
CC(c1ccccc1)(c1ccccc1)O 
 
>  <mulliken_charges> 
29 
1   -0.461531 
2   -0.127053 
3   -0.126713 
4   -0.131162 
5   -0.132918 
6   -0.136832 
7   -0.131642 
8   -0.167746 
9   -0.19284 
10   -0.173947 
11   -0.174898 
12   0.111809 
13   0.128067 
14   0.193336 
15   -0.649089 
16   0.15126 
17   0.166005 
18   0.13689 
19   0.129595 
20   0.125423 
21   0.13121 
22   0.129161 
23   0.126434 
24   0.126441 
25   0.148228 
26   0.127916 
27   0.129021 
28   0.154395 
29   0.391179 
 
>  <lowdin_charges> 
29 
1   -0.450892 
2   -0.154622 
3   -0.159908 
4   -0.154897 
5   -0.158547 
6   -0.1584 
7   -0.156494 
8   -0.154586 
9   -0.174807 
10   -0.164569 
11   -0.164288 
12   -0.025579 
13   -0.008543 
14   0.127319 
15   -0.449279 
16   0.156028 
17   0.162908 
18   0.145295 
19   0.15581 
20   0.154872 
21   0.158072 
22   0.158233 
23   0.157313 
24   0.156433 
25   0.16897 
26   0.158457 
27   0.158789 
28   0.172591 
29   0.344321 
 
$$$$ 
 
