PCCDB-ID:  27890 
public computational chemistry database (PCCDB) project, http://pccdb.org 
 
 15 15  0  0  0  0  0  0  0  0999 V2000 
    0.7618    1.2981   -0.2418 C   0  0  0  0  0  0  0  0  0  0  0  0 
    1.5610    0.0891    0.2521 C   0  0  0  0  0  0  0  0  0  0  0  0 
   -0.6825    1.3339    0.2679 C   0  0  0  0  0  0  0  0  0  0  0  0 
   -0.7775   -1.4025    0.3500 C   0  0  0  0  0  0  0  0  0  0  0  0 
   -3.0621    0.0764    0.4002 O   0  0  0  0  0  0  0  0  0  0  0  0 
    0.8989   -1.5174   -0.3417 S   0  0  0  0  0  0  0  0  0  0  0  0 
   -1.7733   -0.0150   -0.3852 S   0  0  1  0  0  0  0  0  0  0  0  0 
    0.7731    1.3196   -1.3379 H   0  0  0  0  0  0  0  0  0  0  0  0 
    1.2649    2.2144    0.0981 H   0  0  0  0  0  0  0  0  0  0  0  0 
    1.6091    0.0723    1.3477 H   0  0  0  0  0  0  0  0  0  0  0  0 
    2.5881    0.1279   -0.1237 H   0  0  0  0  0  0  0  0  0  0  0  0 
   -1.1880    2.2558   -0.0373 H   0  0  0  0  0  0  0  0  0  0  0  0 
   -0.7445    1.2667    1.3614 H   0  0  0  0  0  0  0  0  0  0  0  0 
   -0.7805   -1.2773    1.4391 H   0  0  0  0  0  0  0  0  0  0  0  0 
   -1.3072   -2.3258    0.1020 H   0  0  0  0  0  0  0  0  0  0  0  0 
  1  9  1  0  0  0  0 
  1  2  1  0  0  0  0 
  1  3  1  0  0  0  0 
  2 10  1  0  0  0  0 
  3 13  1  0  0  0  0 
  4 14  1  0  0  0  0 
  6  2  1  0  0  0  0 
  6  4  1  0  0  0  0 
  7  3  1  0  0  0  0 
  7  4  1  0  0  0  0 
  7  5  2  1  0  0  0 
  8  1  1  0  0  0  0 
 11  2  1  0  0  0  0 
 12  3  1  0  0  0  0 
 15  4  1  0  0  0  0 
M  END 
>  <HBA> 
2 
 
>  <HBD> 
0 
 
>  <TPSA> 
61.58 
 
>  <cid> 
27890 
 
>  <dipole> 
3.91 
 
>  <excitation_energy_1> 
5.127 
 
>  <excitation_energy_2> 
5.345 
 
>  <excitation_energy_3> 
5.505 
 
>  <excitation_energy_4> 
5.686 
 
>  <homo_energy> 
-6.147 
 
>  <homo_lumo_gap> 
6.419 
 
>  <logP> 
1.695 
 
>  <lumo_energy> 
0.272 
 
>  <melting_point> 
25.62 
 
>  <molecular_refractivity> 
35.1 
 
>  <oscillator_strength_1> 
0.0196 
 
>  <oscillator_strength_2> 
0.0015 
 
>  <oscillator_strength_3> 
0.0079 
 
>  <oscillator_strength_4> 
0.0258 
 
>  <open_babel_can_smiles> 
O=[S@]1CCCSC1 
 
>  <mulliken_charges> 
15 
1   -0.275213 
2   -0.417141 
3   -0.464608 
4   -0.607441 
5   -0.627867 
6   0.121901 
7   0.776188 
8   0.173291 
9   0.160898 
10   0.17611 
11   0.18692 
12   0.191427 
13   0.181778 
14   0.205169 
15   0.218589 
 
>  <lowdin_charges> 
15 
1   -0.280621 
2   -0.374911 
3   -0.4259 
4   -0.540483 
5   -0.665993 
6   0.131883 
7   0.798167 
8   0.159118 
9   0.160244 
10   0.156671 
11   0.174854 
12   0.177221 
13   0.162461 
14   0.172631 
15   0.194658 
 
$$$$ 
 
