PCCDB-ID:  11684 
public computational chemistry database (PCCDB) project, http://pccdb.org 
 
 20 19  0  0  0  0  0  0  0  0999 V2000 
    3.3765   -0.1711    1.4917 C   0  0  0  0  0  0  0  0  0  0  0  0 
    2.5722    1.3798   -2.0384 C   0  0  0  0  0  0  0  0  0  0  0  0 
    2.5120    2.5744    0.1734 C   0  0  0  0  0  0  0  0  0  0  0  0 
    2.7758    0.0410    0.0973 C   0  0  0  0  0  0  0  0  0  0  0  0 
    4.6529    1.5845   -0.6546 C   0  0  0  0  0  0  0  0  0  0  0  0 
    3.1247    1.3909   -0.5927 C   0  0  0  0  0  0  0  0  0  0  0  0 
    5.2391    2.5547   -0.2441 O   0  0  0  0  0  0  0  0  0  0  0  0 
    5.3637    0.5742   -1.2353 O   0  0  0  0  0  0  0  0  0  0  0  0 
    3.0761   -1.1459    1.8909 H   0  0  0  0  0  0  0  0  0  0  0  0 
    3.0395    0.5929    2.1991 H   0  0  0  0  0  0  0  0  0  0  0  0 
    4.4717   -0.1458    1.4665 H   0  0  0  0  0  0  0  0  0  0  0  0 
    1.4821    1.2693   -2.0197 H   0  0  0  0  0  0  0  0  0  0  0  0 
    2.9759    0.5529   -2.6356 H   0  0  0  0  0  0  0  0  0  0  0  0 
    2.8093    2.3141   -2.5584 H   0  0  0  0  0  0  0  0  0  0  0  0 
    1.4240    2.4563    0.2350 H   0  0  0  0  0  0  0  0  0  0  0  0 
    2.7314    3.5178   -0.3339 H   0  0  0  0  0  0  0  0  0  0  0  0 
    2.9142    2.6532    1.1862 H   0  0  0  0  0  0  0  0  0  0  0  0 
    1.6811   -0.0217    0.1537 H   0  0  0  0  0  0  0  0  0  0  0  0 
    3.0755   -0.7966   -0.5520 H   0  0  0  0  0  0  0  0  0  0  0  0 
    4.7660   -0.1410   -1.5072 H   0  0  0  0  0  0  0  0  0  0  0  0 
  1  9  1  0  0  0  0 
  1 10  1  0  0  0  0 
  2 12  1  0  0  0  0 
  2  6  1  0  0  0  0 
  3 15  1  0  0  0  0 
  3 17  1  0  0  0  0 
  4 18  1  0  0  0  0 
  4  1  1  0  0  0  0 
  5  6  1  0  0  0  0 
  5  7  2  0  0  0  0 
  6  4  1  0  0  0  0 
  6  3  1  0  0  0  0 
  8  5  1  0  0  0  0 
 11  1  1  0  0  0  0 
 13  2  1  0  0  0  0 
 14  2  1  0  0  0  0 
 16  3  1  0  0  0  0 
 19  4  1  0  0  0  0 
 20  8  1  0  0  0  0 
M  END 
>  <HBA> 
2 
 
>  <HBD> 
1 
 
>  <TPSA> 
37.3 
 
>  <cid> 
11684 
 
>  <dipole> 
4.22 
 
>  <excitation_energy_1> 
5.608 
 
>  <excitation_energy_2> 
6.416 
 
>  <excitation_energy_3> 
7.216 
 
>  <excitation_energy_4> 
7.298 
 
>  <homo_energy> 
-7.159 
 
>  <homo_lumo_gap> 
7.513 
 
>  <logP> 
1.507 
 
>  <lumo_energy> 
0.354 
 
>  <melting_point> 
69.28 
 
>  <molecular_refractivity> 
32.47 
 
>  <oscillator_strength_1> 
0.0021 
 
>  <oscillator_strength_2> 
0.0111 
 
>  <oscillator_strength_3> 
0.0251 
 
>  <oscillator_strength_4> 
0.0093 
 
>  <open_babel_can_smiles> 
CCC(C(=O)O)(C)C 
 
>  <mulliken_charges> 
20 
1   -0.456919 
2   -0.452134 
3   -0.44051 
4   -0.267437 
5   0.614649 
6   -0.035302 
7   -0.44664 
8   -0.581477 
9   0.150289 
10   0.159703 
11   0.164808 
12   0.157324 
13   0.131395 
14   0.167623 
15   0.134599 
16   0.16351 
17   0.164445 
18   0.14741 
19   0.114737 
20   0.409928 
 
>  <lowdin_charges> 
20 
1   -0.449916 
2   -0.439445 
3   -0.434396 
4   -0.273199 
5   0.193336 
6   -0.029859 
7   -0.237445 
8   -0.362204 
9   0.155512 
10   0.15709 
11   0.155674 
12   0.155475 
13   0.143459 
14   0.162025 
15   0.144958 
16   0.162872 
17   0.160653 
18   0.1486 
19   0.131667 
20   0.35514 
 
$$$$ 
 
