PCCDB-ID:  44808 
public computational chemistry database (PCCDB) project, http://pccdb.org 
 
 28 27  0  0  1  0  0  0  0  0999 V2000 
    4.5454   -1.2410   -1.8127 C   0  0  0  0  0  0  0  0  0  0  0  0 
    4.8240    2.0446    4.4024 C   0  0  0  0  0  0  0  0  0  0  0  0 
    7.4043    3.3918    1.9385 C   0  0  0  0  0  0  0  0  0  0  0  0 
    4.2384   -0.8198   -0.3719 C   0  0  0  0  0  0  0  0  0  0  0  0 
    4.5790    2.8916    3.1478 C   0  0  0  0  0  0  0  0  0  0  0  0 
    4.8283    0.5479   -0.0053 C   0  0  0  0  0  0  0  0  0  0  0  0 
    4.5198    0.9798    1.4331 C   0  0  0  0  0  0  0  0  0  0  0  0 
    5.1707    2.3178    1.8339 C   0  0  2  0  0  0  0  0  0  0  0  0 
    6.6315    2.1615    1.8193 N   0  0  0  0  0  0  0  0  0  0  0  0 
    4.1131   -2.2209   -2.0459 H   0  0  0  0  0  0  0  0  0  0  0  0 
    5.6271   -1.3036   -1.9842 H   0  0  0  0  0  0  0  0  0  0  0  0 
    4.1396   -0.5182   -2.5314 H   0  0  0  0  0  0  0  0  0  0  0  0 
    4.4092    2.5359    5.2896 H   0  0  0  0  0  0  0  0  0  0  0  0 
    5.8954    1.8966    4.5873 H   0  0  0  0  0  0  0  0  0  0  0  0 
    4.3592    1.0551    4.3271 H   0  0  0  0  0  0  0  0  0  0  0  0 
    8.4716    3.1526    1.8744 H   0  0  0  0  0  0  0  0  0  0  0  0 
    7.2433    3.9693    2.8663 H   0  0  0  0  0  0  0  0  0  0  0  0 
    7.1622    4.0498    1.0951 H   0  0  0  0  0  0  0  0  0  0  0  0 
    4.6277   -1.5797    0.3212 H   0  0  0  0  0  0  0  0  0  0  0  0 
    3.1491   -0.8024   -0.2211 H   0  0  0  0  0  0  0  0  0  0  0  0 
    4.9888    3.8969    3.3111 H   0  0  0  0  0  0  0  0  0  0  0  0 
    3.4980    3.0282    3.0060 H   0  0  0  0  0  0  0  0  0  0  0  0 
    4.4398    1.3075   -0.7008 H   0  0  0  0  0  0  0  0  0  0  0  0 
    5.9162    0.5355   -0.1427 H   0  0  0  0  0  0  0  0  0  0  0  0 
    4.8538    0.1927    2.1261 H   0  0  0  0  0  0  0  0  0  0  0  0 
    3.4316    1.0601    1.5693 H   0  0  0  0  0  0  0  0  0  0  0  0 
    4.9418    3.0470    1.0414 H   0  0  0  0  0  0  0  0  0  0  0  0 
    6.9112    1.5044    2.5456 H   0  0  0  0  0  0  0  0  0  0  0  0 
  1  4  1  0  0  0  0 
  2 14  1  0  0  0  0 
  2 13  1  0  0  0  0 
  3 17  1  0  0  0  0 
  4 20  1  0  0  0  0 
  4  6  1  0  0  0  0 
  4 19  1  0  0  0  0 
  5 21  1  0  0  0  0 
  5  2  1  0  0  0  0 
  6  7  1  0  0  0  0 
  7 26  1  0  0  0  0 
  7  8  1  0  0  0  0 
  7 25  1  0  0  0  0 
  8 27  1  6  0  0  0 
  8  5  1  0  0  0  0 
  9  8  1  0  0  0  0 
  9  3  1  0  0  0  0 
  9 28  1  0  0  0  0 
 10  1  1  0  0  0  0 
 11  1  1  0  0  0  0 
 12  1  1  0  0  0  0 
 15  2  1  0  0  0  0 
 16  3  1  0  0  0  0 
 18  3  1  0  0  0  0 
 22  5  1  0  0  0  0 
 23  6  1  0  0  0  0 
 24  6  1  0  0  0  0 
M  END 
>  <HBA> 
1 
 
>  <HBD> 
1 
 
>  <TPSA> 
12.03 
 
>  <cid> 
44808 
 
>  <dipole> 
1.02 
 
>  <excitation_energy_1> 
5.206 
 
>  <excitation_energy_2> 
5.525 
 
>  <excitation_energy_3> 
5.791 
 
>  <excitation_energy_4> 
5.933 
 
>  <homo_energy> 
-5.706 
 
>  <homo_lumo_gap> 
7.793 
 
>  <logP> 
2.566 
 
>  <lumo_energy> 
2.087 
 
>  <melting_point> 
-0.71 
 
>  <molecular_refractivity> 
43.37 
 
>  <oscillator_strength_1> 
0.002 
 
>  <oscillator_strength_2> 
0.0064 
 
>  <oscillator_strength_3> 
0.0043 
 
>  <oscillator_strength_4> 
0.0128 
 
>  <open_babel_can_smiles> 
CCCC[C@H](NC)CC 
 
>  <mulliken_charges> 
28 
1   -0.439903 
2   -0.453849 
3   -0.300298 
4   -0.247392 
5   -0.261543 
6   -0.2435 
7   -0.263966 
8   0.042606 
9   -0.542417 
10   0.13836 
11   0.141691 
12   0.139678 
13   0.145867 
14   0.134121 
15   0.149308 
16   0.14668 
17   0.122922 
18   0.149279 
19   0.126503 
20   0.125322 
21   0.132317 
22   0.129011 
23   0.119426 
24   0.152368 
25   0.121999 
26   0.124221 
27   0.120619 
28   0.290571 
 
>  <lowdin_charges> 
28 
1   -0.443205 
2   -0.449467 
3   -0.360268 
4   -0.271283 
5   -0.289637 
6   -0.275335 
7   -0.278142 
8   -0.066132 
9   -0.362128 
10   0.147041 
11   0.144684 
12   0.146476 
13   0.153124 
14   0.140094 
15   0.148223 
16   0.148044 
17   0.121179 
18   0.148536 
19   0.137756 
20   0.133684 
21   0.140611 
22   0.140605 
23   0.135693 
24   0.14847 
25   0.137003 
26   0.137208 
27   0.137063 
28   0.250104 
 
$$$$ 
 
