PCCDB-ID:  6836 
public computational chemistry database (PCCDB) project, http://pccdb.org 
 
 28 30  0  0  0  0  0  0  0  0999 V2000 
    1.4908    0.6256    0.8232 C   0  0  0  0  0  0  0  0  0  0  0  0 
    2.6293    0.0337   -0.0157 C   0  0  0  0  0  0  0  0  0  0  0  0 
    1.7082   -5.1128   -0.5136 C   0  0  0  0  0  0  0  0  0  0  0  0 
    5.8089   -2.6130    3.2193 C   0  0  0  0  0  0  0  0  0  0  0  0 
    1.0969   -4.0414   -1.1870 C   0  0  0  0  0  0  0  0  0  0  0  0 
    5.7163   -1.2251    3.0188 C   0  0  0  0  0  0  0  0  0  0  0  0 
    2.7096   -4.8805    0.4256 C   0  0  0  0  0  0  0  0  0  0  0  0 
    4.9943   -3.4878    2.5052 C   0  0  0  0  0  0  0  0  0  0  0  0 
    1.4696   -2.7213   -0.9408 C   0  0  0  0  0  0  0  0  0  0  0  0 
    4.8145   -0.6818    2.1057 C   0  0  0  0  0  0  0  0  0  0  0  0 
    3.1037   -3.5646    0.6926 C   0  0  0  0  0  0  0  0  0  0  0  0 
    4.0794   -2.9696    1.5817 C   0  0  0  0  0  0  0  0  0  0  0  0 
    2.4792   -2.4928   -0.0003 C   0  0  0  0  0  0  0  0  0  0  0  0 
    4.0018   -1.5643    1.3869 C   0  0  0  0  0  0  0  0  0  0  0  0 
    3.0420   -1.2909    0.4174 N   0  0  0  0  0  0  0  0  0  0  0  0 
    1.2224    1.6215    0.4524 H   0  0  0  0  0  0  0  0  0  0  0  0 
    1.7875    0.7173    1.8731 H   0  0  0  0  0  0  0  0  0  0  0  0 
    0.6008   -0.0104    0.7769 H   0  0  0  0  0  0  0  0  0  0  0  0 
    3.5083    0.6862    0.0171 H   0  0  0  0  0  0  0  0  0  0  0  0 
    2.3345   -0.0338   -1.0685 H   0  0  0  0  0  0  0  0  0  0  0  0 
    1.3936   -6.1303   -0.7273 H   0  0  0  0  0  0  0  0  0  0  0  0 
    6.5213   -3.0047    3.9398 H   0  0  0  0  0  0  0  0  0  0  0  0 
    0.3141   -4.2431   -1.9134 H   0  0  0  0  0  0  0  0  0  0  0  0 
    6.3575   -0.5583    3.5891 H   0  0  0  0  0  0  0  0  0  0  0  0 
    3.1801   -5.7111    0.9455 H   0  0  0  0  0  0  0  0  0  0  0  0 
    5.0673   -4.5608    2.6635 H   0  0  0  0  0  0  0  0  0  0  0  0 
    0.9834   -1.9034   -1.4645 H   0  0  0  0  0  0  0  0  0  0  0  0 
    4.7503    0.3934    1.9664 H   0  0  0  0  0  0  0  0  0  0  0  0 
  1 17  1  0  0  0  0 
  2 19  1  0  0  0  0 
  2 15  1  0  0  0  0 
  2  1  1  0  0  0  0 
  3  7  2  0  0  0  0 
  4 22  1  0  0  0  0 
  5  9  2  0  0  0  0 
  5  3  1  0  0  0  0 
  6  4  1  0  0  0  0 
  6 24  1  0  0  0  0 
  7 11  1  0  0  0  0 
  7 25  1  0  0  0  0 
  8 26  1  0  0  0  0 
  8  4  2  0  0  0  0 
  9 13  1  0  0  0  0 
 10  6  2  0  0  0  0 
 11 12  1  0  0  0  0 
 12  8  1  0  0  0  0 
 13 15  1  0  0  0  0 
 13 11  2  0  0  0  0 
 14 12  2  0  0  0  0 
 14 10  1  0  0  0  0 
 15 14  1  0  0  0  0 
 16  1  1  0  0  0  0 
 18  1  1  0  0  0  0 
 20  2  1  0  0  0  0 
 21  3  1  0  0  0  0 
 23  5  1  0  0  0  0 
 27  9  1  0  0  0  0 
 28 10  1  0  0  0  0 
M  END 
>  <HBA> 
1 
 
>  <HBD> 
0 
 
>  <TPSA> 
4.93 
 
>  <cid> 
6836 
 
>  <dipole> 
1.89 
 
>  <excitation_energy_1> 
3.909 
 
>  <excitation_energy_2> 
4.394 
 
>  <excitation_energy_3> 
4.776 
 
>  <excitation_energy_4> 
5.036 
 
>  <homo_energy> 
-5.298 
 
>  <homo_lumo_gap> 
4.672 
 
>  <logP> 
3.814 
 
>  <lumo_energy> 
-0.626 
 
>  <melting_point> 
95.49 
 
>  <molecular_refractivity> 
65.51 
 
>  <oscillator_strength_1> 
0.0368 
 
>  <oscillator_strength_2> 
0.0964 
 
>  <oscillator_strength_3> 
0.0186 
 
>  <oscillator_strength_4> 
0.464 
 
>  <open_babel_can_smiles> 
CCn1c2ccccc2c2c1cccc2 
 
>  <mulliken_charges> 
28 
1   -0.443678 
2   -0.158291 
3   -0.146675 
4   -0.146796 
5   -0.140895 
6   -0.140929 
7   -0.197096 
8   -0.196841 
9   -0.183892 
10   -0.183621 
11   0.060649 
12   0.060599 
13   0.321789 
14   0.321453 
15   -0.623335 
16   0.148436 
17   0.163518 
18   0.16356 
19   0.160155 
20   0.160027 
21   0.122288 
22   0.122328 
23   0.124383 
24   0.124377 
25   0.128376 
26   0.128319 
27   0.125909 
28   0.125882 
 
>  <lowdin_charges> 
28 
1   -0.451261 
2   -0.188958 
3   -0.178292 
4   -0.179396 
5   -0.153869 
6   -0.155934 
7   -0.153463 
8   -0.149979 
9   -0.199683 
10   -0.196548 
11   -0.033574 
12   -0.035137 
13   0.044026 
14   0.043901 
15   -0.046895 
16   0.154513 
17   0.157526 
18   0.159021 
19   0.156424 
20   0.154148 
21   0.154819 
22   0.156551 
23   0.156825 
24   0.157915 
25   0.158685 
26   0.155762 
27   0.157904 
28   0.154969 
 
$$$$ 
 
