PCCDB-ID:  21873 
public computational chemistry database (PCCDB) project, http://pccdb.org 
 
 23 23  0  0  0  0  0  0  0  0999 V2000 
    0.7773    0.1914    1.1106 C   0  0  0  0  0  0  0  0  0  0  0  0 
    1.6523   -0.3738    0.3189 C   0  0  0  0  0  0  0  0  0  0  0  0 
    5.2768   -2.7398   -2.3486 C   0  0  0  0  0  0  0  0  0  0  0  0 
    5.1585   -1.2110   -2.2467 C   0  0  0  0  0  0  0  0  0  0  0  0 
    4.1169   -3.4387   -1.6221 C   0  0  0  0  0  0  0  0  0  0  0  0 
    2.5333   -0.9322   -0.4721 C   0  0  0  0  0  0  0  0  0  0  0  0 
    5.0496   -0.7508   -0.7834 C   0  0  0  0  0  0  0  0  0  0  0  0 
    4.0122   -2.9777   -0.1589 C   0  0  0  0  0  0  0  0  0  0  0  0 
    3.8927   -1.4390   -0.0165 C   0  0  0  0  0  0  0  0  0  0  0  0 
    0.0231   -0.3901    1.6384 H   0  0  0  0  0  0  0  0  0  0  0  0 
    0.7679    1.2676    1.2755 H   0  0  0  0  0  0  0  0  0  0  0  0 
    6.2294   -3.0593   -1.8998 H   0  0  0  0  0  0  0  0  0  0  0  0 
    5.3094   -3.0496   -3.4010 H   0  0  0  0  0  0  0  0  0  0  0  0 
    4.2758   -0.8782   -2.8112 H   0  0  0  0  0  0  0  0  0  0  0  0 
    6.0228   -0.7287   -2.7208 H   0  0  0  0  0  0  0  0  0  0  0  0 
    4.2447   -4.5280   -1.6578 H   0  0  0  0  0  0  0  0  0  0  0  0 
    3.1766   -3.2218   -2.1483 H   0  0  0  0  0  0  0  0  0  0  0  0 
    2.2795   -1.0411   -1.5274 H   0  0  0  0  0  0  0  0  0  0  0  0 
    4.9345    0.3386   -0.7309 H   0  0  0  0  0  0  0  0  0  0  0  0 
    5.9900   -0.9950   -0.2678 H   0  0  0  0  0  0  0  0  0  0  0  0 
    4.9167   -3.2995    0.3784 H   0  0  0  0  0  0  0  0  0  0  0  0 
    3.1620   -3.4621    0.3365 H   0  0  0  0  0  0  0  0  0  0  0  0 
    3.9900   -1.1882    1.0464 H   0  0  0  0  0  0  0  0  0  0  0  0 
  1 11  1  0  0  0  0 
  1 10  1  0  0  0  0 
  2  1  2  0  0  0  0 
  3  4  1  0  0  0  0 
  3 12  1  0  0  0  0 
  3  5  1  0  0  0  0 
  4  7  1  0  0  0  0 
  5  8  1  0  0  0  0 
  6  9  1  0  0  0  0 
  6  2  2  0  0  0  0 
  7 19  1  0  0  0  0 
  7 20  1  0  0  0  0 
  7  9  1  0  0  0  0 
  8  9  1  0  0  0  0 
  8 22  1  0  0  0  0 
  8 21  1  0  0  0  0 
  9 23  1  0  0  0  0 
 13  3  1  0  0  0  0 
 14  4  1  0  0  0  0 
 15  4  1  0  0  0  0 
 16  5  1  0  0  0  0 
 17  5  1  0  0  0  0 
 18  6  1  0  0  0  0 
M  END 
>  <HBA> 
0 
 
>  <HBD> 
0 
 
>  <TPSA> 
0.0 
 
>  <cid> 
21873 
 
>  <dipole> 
0.52 
 
>  <excitation_energy_1> 
5.577 
 
>  <excitation_energy_2> 
6.023 
 
>  <excitation_energy_3> 
6.239 
 
>  <excitation_energy_4> 
6.491 
 
>  <homo_energy> 
-6.615 
 
>  <homo_lumo_gap> 
7.328 
 
>  <logP> 
2.908 
 
>  <lumo_energy> 
0.713 
 
>  <melting_point> 
-25.91 
 
>  <molecular_refractivity> 
41.49 
 
>  <oscillator_strength_1> 
0.0002 
 
>  <oscillator_strength_2> 
0.0009 
 
>  <oscillator_strength_3> 
0.0117 
 
>  <oscillator_strength_4> 
0.0347 
 
>  <open_babel_can_smiles> 
C=C=CC1CCCCC1 
 
>  <mulliken_charges> 
23 
1   -0.538735 
2   0.332224 
3   -0.254083 
4   -0.263611 
5   -0.263044 
6   -0.299004 
7   -0.260813 
8   -0.258684 
9   -0.114243 
10   0.161205 
11   0.161528 
12   0.126809 
13   0.129706 
14   0.131884 
15   0.13227 
16   0.132063 
17   0.131985 
18   0.150347 
19   0.137237 
20   0.128826 
21   0.12818 
22   0.13708 
23   0.130872 
 
>  <lowdin_charges> 
23 
1   -0.370767 
2   -0.007296 
3   -0.276754 
4   -0.282232 
5   -0.2786 
6   -0.19293 
7   -0.275767 
8   -0.279022 
9   -0.114774 
10   0.175184 
11   0.172443 
12   0.136798 
13   0.141542 
14   0.138674 
15   0.14569 
16   0.142684 
17   0.138651 
18   0.165937 
19   0.144601 
20   0.140532 
21   0.140302 
22   0.147687 
23   0.147416 
 
$$$$ 
 
