PCCDB-ID:  69263 
public computational chemistry database (PCCDB) project, http://pccdb.org 
 
 19 19  0  0  0  0  0  0  0  0999 V2000 
   -1.3952   -0.0008   -0.0811 C   0  0  0  0  0  0  0  0  0  0  0  0 
   -0.7393    1.2282   -0.0508 C   0  0  0  0  0  0  0  0  0  0  0  0 
    0.7394   -1.1284    0.0180 C   0  0  0  0  0  0  0  0  0  0  0  0 
   -0.6618   -1.1934   -0.0415 C   0  0  0  0  0  0  0  0  0  0  0  0 
    0.6560    1.2945    0.0100 C   0  0  0  0  0  0  0  0  0  0  0  0 
    1.4066    0.0901    0.0269 C   0  0  0  0  0  0  0  0  0  0  0  0 
   -1.2859   -2.5484   -0.0463 C   0  0  0  0  0  0  0  0  0  0  0  0 
    1.3583    2.5019    0.0162 N   0  0  0  0  0  0  0  0  0  0  0  0 
    2.8095    0.2016    0.1134 N   0  0  0  0  0  0  0  0  0  0  0  0 
   -0.7117   -3.5549    0.3034 O   0  0  0  0  0  0  0  0  0  0  0  0 
   -2.5777   -2.6296   -0.4796 O   0  0  0  0  0  0  0  0  0  0  0  0 
   -2.4827   -0.0064   -0.0754 H   0  0  0  0  0  0  0  0  0  0  0  0 
   -1.3150    2.1508   -0.0501 H   0  0  0  0  0  0  0  0  0  0  0  0 
    1.2959   -2.0608    0.0483 H   0  0  0  0  0  0  0  0  0  0  0  0 
    0.7878    3.3154    0.2162 H   0  0  0  0  0  0  0  0  0  0  0  0 
    2.1828    2.4748    0.6102 H   0  0  0  0  0  0  0  0  0  0  0  0 
    3.2796   -0.6956    0.0536 H   0  0  0  0  0  0  0  0  0  0  0  0 
    3.1915    0.8352   -0.5855 H   0  0  0  0  0  0  0  0  0  0  0  0 
   -2.8431   -1.7846   -0.8767 H   0  0  0  0  0  0  0  0  0  0  0  0 
  1 12  1  0  0  0  0 
  1  2  2  0  0  0  0 
  1  4  1  0  0  0  0 
  2 13  1  0  0  0  0 
  2  5  1  0  0  0  0 
  3  6  1  0  0  0  0 
  3 14  1  0  0  0  0 
  4  3  2  0  0  0  0 
  5  8  1  0  0  0  0 
  5  6  2  0  0  0  0 
  6  9  1  0  0  0  0 
  7  4  1  0  0  0  0 
  7 10  2  0  0  0  0 
  8 15  1  0  0  0  0 
  8 16  1  0  0  0  0 
 11  7  1  0  0  0  0 
 17  9  1  0  0  0  0 
 18  9  1  0  0  0  0 
 19 11  1  0  0  0  0 
M  END 
>  <HBA> 
4 
 
>  <HBD> 
3 
 
>  <TPSA> 
89.34 
 
>  <cid> 
69263 
 
>  <dipole> 
6.14 
 
>  <excitation_energy_1> 
4.285 
 
>  <excitation_energy_2> 
4.649 
 
>  <excitation_energy_3> 
4.742 
 
>  <excitation_energy_4> 
4.91 
 
>  <homo_energy> 
-5.655 
 
>  <homo_lumo_gap> 
4.825 
 
>  <logP> 
1.712 
 
>  <lumo_energy> 
-0.83 
 
>  <melting_point> 
194.96 
 
>  <molecular_refractivity> 
42.21 
 
>  <oscillator_strength_1> 
0.1209 
 
>  <oscillator_strength_2> 
0.0608 
 
>  <oscillator_strength_3> 
0.0152 
 
>  <oscillator_strength_4> 
0.0108 
 
>  <open_babel_can_smiles> 
OC(=O)c1ccc(c(c1)N)N 
 
>  <mulliken_charges> 
19 
1   -0.21643 
2   -0.186896 
3   -0.222021 
4   0.054674 
5   0.292027 
6   0.266504 
7   0.541844 
8   -0.804206 
9   -0.810418 
10   -0.459172 
11   -0.582712 
12   0.124501 
13   0.124537 
14   0.154636 
15   0.324549 
16   0.336229 
17   0.326796 
18   0.327627 
19   0.40793 
 
>  <lowdin_charges> 
19 
1   -0.173168 
2   -0.194445 
3   -0.166089 
4   -0.074847 
5   0.044698 
6   0.025554 
7   0.196248 
8   -0.487598 
9   -0.503117 
10   -0.255005 
11   -0.365781 
12   0.151724 
13   0.156963 
14   0.174571 
15   0.27805 
16   0.282844 
17   0.277168 
18   0.278091 
19   0.354137 
 
$$$$ 
 
