PCCDB-ID:  7739 
public computational chemistry database (PCCDB) project, http://pccdb.org 
 
 30 29  0  0  0  0  0  0  0  0999 V2000 
    2.5325   -0.4356   -3.0851 C   0  0  0  0  0  0  0  0  0  0  0  0 
    0.6830    0.8818    0.0665 C   0  0  0  0  0  0  0  0  0  0  0  0 
    8.6385    0.0675   -1.9367 C   0  0  0  0  0  0  0  0  0  0  0  0 
    2.3352    0.9653   -2.4772 C   0  0  0  0  0  0  0  0  0  0  0  0 
    2.1538    0.4806   -0.0660 C   0  0  0  0  0  0  0  0  0  0  0  0 
    5.1467    1.9033   -1.9160 C   0  0  0  0  0  0  0  0  0  0  0  0 
    6.6529    1.7141   -1.7127 C   0  0  0  0  0  0  0  0  0  0  0  0 
    4.3163    0.9834   -1.0131 C   0  0  0  0  0  0  0  0  0  0  0  0 
    7.2131    0.4292   -2.3202 C   0  0  0  0  0  0  0  0  0  0  0  0 
    2.8709    1.1954   -1.1269 N   0  0  0  0  0  0  0  0  0  0  0  0 
    6.5645   -0.2668   -3.0799 O   0  0  0  0  0  0  0  0  0  0  0  0 
    2.0394   -0.4862   -4.0633 H   0  0  0  0  0  0  0  0  0  0  0  0 
    2.0971   -1.2209   -2.4564 H   0  0  0  0  0  0  0  0  0  0  0  0 
    3.5920   -0.6682   -3.2363 H   0  0  0  0  0  0  0  0  0  0  0  0 
    0.2615    0.4489    0.9809 H   0  0  0  0  0  0  0  0  0  0  0  0 
    0.0718    0.5282   -0.7704 H   0  0  0  0  0  0  0  0  0  0  0  0 
    0.5880    1.9715    0.1239 H   0  0  0  0  0  0  0  0  0  0  0  0 
    9.3103    0.9271   -2.0487 H   0  0  0  0  0  0  0  0  0  0  0  0 
    8.9900   -0.7638   -2.5511 H   0  0  0  0  0  0  0  0  0  0  0  0 
    8.6727   -0.2276   -0.8798 H   0  0  0  0  0  0  0  0  0  0  0  0 
    1.2673    1.2038   -2.4501 H   0  0  0  0  0  0  0  0  0  0  0  0 
    2.7831    1.7092   -3.1452 H   0  0  0  0  0  0  0  0  0  0  0  0 
    2.2269   -0.6201   -0.1696 H   0  0  0  0  0  0  0  0  0  0  0  0 
    2.6618    0.7271    0.8751 H   0  0  0  0  0  0  0  0  0  0  0  0 
    4.9239    1.7109   -2.9698 H   0  0  0  0  0  0  0  0  0  0  0  0 
    4.8713    2.9438   -1.7070 H   0  0  0  0  0  0  0  0  0  0  0  0 
    6.9268    1.7522   -0.6480 H   0  0  0  0  0  0  0  0  0  0  0  0 
    7.2068    2.5436   -2.1790 H   0  0  0  0  0  0  0  0  0  0  0  0 
    4.5861    1.1966    0.0307 H   0  0  0  0  0  0  0  0  0  0  0  0 
    4.6061   -0.0666   -1.1999 H   0  0  0  0  0  0  0  0  0  0  0  0 
  1  4  1  0  0  0  0 
  1 13  1  0  0  0  0 
  2 17  1  0  0  0  0 
  2 15  1  0  0  0  0 
  3 20  1  0  0  0  0 
  4 21  1  0  0  0  0 
  4 10  1  0  0  0  0 
  5  2  1  0  0  0  0 
  5 24  1  0  0  0  0 
  6  7  1  0  0  0  0 
  6 26  1  0  0  0  0 
  6  8  1  0  0  0  0 
  7 27  1  0  0  0  0 
  8 29  1  0  0  0  0 
  9  3  1  0  0  0  0 
  9  7  1  0  0  0  0 
 10  8  1  0  0  0  0 
 10  5  1  0  0  0  0 
 11  9  2  0  0  0  0 
 12  1  1  0  0  0  0 
 14  1  1  0  0  0  0 
 16  2  1  0  0  0  0 
 18  3  1  0  0  0  0 
 19  3  1  0  0  0  0 
 22  4  1  0  0  0  0 
 23  5  1  0  0  0  0 
 25  6  1  0  0  0  0 
 28  7  1  0  0  0  0 
 30  8  1  0  0  0  0 
M  END 
>  <HBA> 
2 
 
>  <HBD> 
0 
 
>  <TPSA> 
20.31 
 
>  <cid> 
7739 
 
>  <dipole> 
2.36 
 
>  <excitation_energy_1> 
4.212 
 
>  <excitation_energy_2> 
4.437 
 
>  <excitation_energy_3> 
4.891 
 
>  <excitation_energy_4> 
5.212 
 
>  <homo_energy> 
-5.344 
 
>  <homo_lumo_gap> 
4.972 
 
>  <logP> 
1.697 
 
>  <lumo_energy> 
-0.373 
 
>  <melting_point> 
-4.53 
 
>  <molecular_refractivity> 
48.47 
 
>  <oscillator_strength_1> 
0.0017 
 
>  <oscillator_strength_2> 
0.0002 
 
>  <oscillator_strength_3> 
0.0031 
 
>  <oscillator_strength_4> 
0.0106 
 
>  <open_babel_can_smiles> 
CCN(CCCC(=O)C)CC 
 
>  <mulliken_charges> 
30 
1   -0.471688 
2   -0.456222 
3   -0.528866 
4   -0.13833 
5   -0.101697 
6   -0.265884 
7   -0.364996 
8   -0.110083 
9   0.459087 
10   -0.391761 
11   -0.437824 
12   0.138181 
13   0.143092 
14   0.175321 
15   0.14052 
16   0.148125 
17   0.154114 
18   0.164471 
19   0.180343 
20   0.172546 
21   0.138511 
22   0.140777 
23   0.111331 
24   0.130957 
25   0.161532 
26   0.140968 
27   0.150678 
28   0.164142 
29   0.12229 
30   0.130364 
 
>  <lowdin_charges> 
30 
1   -0.470177 
2   -0.451419 
3   -0.476084 
4   -0.206443 
5   -0.193801 
6   -0.277511 
7   -0.312034 
8   -0.1996 
9   0.169092 
10   -0.194216 
11   -0.239652 
12   0.15092 
13   0.147792 
14   0.159916 
15   0.152371 
16   0.148948 
17   0.152029 
18   0.167156 
19   0.173925 
20   0.171255 
21   0.142909 
22   0.144746 
23   0.113126 
24   0.140857 
25   0.155064 
26   0.148444 
27   0.154428 
28   0.16842 
29   0.135136 
30   0.124404 
 
$$$$ 
 
