PCCDB-ID:  15457 
public computational chemistry database (PCCDB) project, http://pccdb.org 
 
 17 16  0  0  0  0  0  0  0  0999 V2000 
    2.1485   -1.1272    0.8996 C   0  0  0  0  0  0  0  0  0  0  0  0 
    7.5308   -1.9636   -2.6173 C   0  0  0  0  0  0  0  0  0  0  0  0 
    2.7578   -2.3160    0.9326 C   0  0  0  0  0  0  0  0  0  0  0  0 
    5.7416   -2.4124   -1.1583 C   0  0  0  0  0  0  0  0  0  0  0  0 
    4.5172   -1.7417   -0.5540 C   0  0  0  0  0  0  0  0  0  0  0  0 
    6.3658   -1.4629   -1.9966 O   0  0  0  0  0  0  0  0  0  0  0  0 
    3.8833   -2.7058    0.2787 O   0  0  0  0  0  0  0  0  0  0  0  0 
    1.2495   -0.9824    1.4875 H   0  0  0  0  0  0  0  0  0  0  0  0 
    2.5012   -0.2867    0.3135 H   0  0  0  0  0  0  0  0  0  0  0  0 
    7.9344   -1.1608   -3.2398 H   0  0  0  0  0  0  0  0  0  0  0  0 
    7.3104   -2.8349   -3.2547 H   0  0  0  0  0  0  0  0  0  0  0  0 
    8.2913   -2.2598   -1.8769 H   0  0  0  0  0  0  0  0  0  0  0  0 
    2.3809   -3.1419    1.5299 H   0  0  0  0  0  0  0  0  0  0  0  0 
    5.4356   -3.3069   -1.7253 H   0  0  0  0  0  0  0  0  0  0  0  0 
    6.4207   -2.7442   -0.3557 H   0  0  0  0  0  0  0  0  0  0  0  0 
    3.8345   -1.4100   -1.3475 H   0  0  0  0  0  0  0  0  0  0  0  0 
    4.8144   -0.8626    0.0331 H   0  0  0  0  0  0  0  0  0  0  0  0 
  1  3  2  0  0  0  0 
  1  8  1  0  0  0  0 
  2  6  1  0  0  0  0 
  2 12  1  0  0  0  0 
  3 13  1  0  0  0  0 
  4  5  1  0  0  0  0 
  4 15  1  0  0  0  0 
  5 17  1  0  0  0  0 
  5  7  1  0  0  0  0 
  6  4  1  0  0  0  0 
  7  3  1  0  0  0  0 
  9  1  1  0  0  0  0 
 10  2  1  0  0  0  0 
 11  2  1  0  0  0  0 
 14  4  1  0  0  0  0 
 16  5  1  0  0  0  0 
M  END 
>  <HBA> 
2 
 
>  <HBD> 
0 
 
>  <TPSA> 
18.46 
 
>  <cid> 
15457 
 
>  <dipole> 
1.03 
 
>  <excitation_energy_1> 
5.95 
 
>  <excitation_energy_2> 
6.227 
 
>  <excitation_energy_3> 
6.266 
 
>  <excitation_energy_4> 
6.715 
 
>  <homo_energy> 
-6.142 
 
>  <homo_lumo_gap> 
7.336 
 
>  <logP> 
0.793 
 
>  <lumo_energy> 
1.195 
 
>  <melting_point> 
-64.4 
 
>  <molecular_refractivity> 
27.84 
 
>  <oscillator_strength_1> 
0.045 
 
>  <oscillator_strength_2> 
0.0091 
 
>  <oscillator_strength_3> 
0.0 
 
>  <oscillator_strength_4> 
0.0115 
 
>  <open_babel_can_smiles> 
COCCOC=C 
 
>  <mulliken_charges> 
17 
1   -0.400684 
2   -0.191229 
3   0.158486 
4   -0.025592 
5   -0.046774 
6   -0.466852 
7   -0.456193 
8   0.141837 
9   0.145437 
10   0.160786 
11   0.133007 
12   0.133043 
13   0.141957 
14   0.133404 
15   0.133038 
16   0.153306 
17   0.153022 
 
>  <lowdin_charges> 
17 
1   -0.428155 
2   -0.280185 
3   -0.036189 
4   -0.136007 
5   -0.133982 
6   -0.269763 
7   -0.197992 
8   0.168887 
9   0.164059 
10   0.157785 
11   0.133696 
12   0.134439 
13   0.159393 
14   0.134125 
15   0.134491 
16   0.147984 
17   0.147413 
 
$$$$ 
 
