PCCDB-ID:  51520 
public computational chemistry database (PCCDB) project, http://pccdb.org 
 
 20 20  0  0  1  0  0  0  0  0999 V2000 
    0.8961   -0.0397   -0.2397 C   0  0  0  0  0  0  0  0  0  0  0  0 
    2.7730    0.0867    4.6344 C   0  0  0  0  0  0  0  0  0  0  0  0 
    2.9734   -1.2591    0.6586 C   0  0  0  0  0  0  0  0  0  0  0  0 
    2.5448    1.3388    2.4481 C   0  0  0  0  0  0  0  0  0  0  0  0 
    2.4165   -0.0236   -0.0639 C   0  0  2  0  0  0  0  0  0  0  0  0 
    3.1107    0.0956    3.1402 C   0  0  2  0  0  0  0  0  0  0  0  0 
    3.0507    1.5431    0.6936 S   0  0  0  0  0  0  0  0  0  0  0  0 
    2.4375   -1.4613    2.4051 S   0  0  0  0  0  0  0  0  0  0  0  0 
    0.5918   -0.9327   -0.8015 H   0  0  0  0  0  0  0  0  0  0  0  0 
    0.5614    0.8440   -0.7901 H   0  0  0  0  0  0  0  0  0  0  0  0 
    0.3816   -0.0660    0.7250 H   0  0  0  0  0  0  0  0  0  0  0  0 
    3.2059    0.9676    5.1232 H   0  0  0  0  0  0  0  0  0  0  0  0 
    3.1750   -0.8062    5.1243 H   0  0  0  0  0  0  0  0  0  0  0  0 
    1.6893    0.1059    4.7958 H   0  0  0  0  0  0  0  0  0  0  0  0 
    4.0672   -1.2529    0.6213 H   0  0  0  0  0  0  0  0  0  0  0  0 
    2.6256   -2.1698    0.1562 H   0  0  0  0  0  0  0  0  0  0  0  0 
    2.9301    2.2402    2.9407 H   0  0  0  0  0  0  0  0  0  0  0  0 
    1.4530    1.3561    2.5325 H   0  0  0  0  0  0  0  0  0  0  0  0 
    2.8863    0.0002   -1.0561 H   0  0  0  0  0  0  0  0  0  0  0  0 
    4.1991    0.0793    3.0094 H   0  0  0  0  0  0  0  0  0  0  0  0 
  1  5  1  0  0  0  0 
  1 11  1  0  0  0  0 
  2 14  1  0  0  0  0 
  2 12  1  0  0  0  0 
  2 13  1  0  0  0  0 
  3  8  1  0  0  0  0 
  4 18  1  0  0  0  0 
  4 17  1  0  0  0  0 
  4  6  1  0  0  0  0 
  5 19  1  6  0  0  0 
  5  3  1  0  0  0  0 
  5  7  1  0  0  0  0 
  6 20  1  6  0  0  0 
  6  2  1  0  0  0  0 
  7  4  1  0  0  0  0 
  8  6  1  0  0  0  0 
  9  1  1  0  0  0  0 
 10  1  1  0  0  0  0 
 15  3  1  0  0  0  0 
 16  3  1  0  0  0  0 
M  END 
>  <HBA> 
2 
 
>  <HBD> 
0 
 
>  <TPSA> 
50.6 
 
>  <cid> 
51520 
 
>  <dipole> 
0.15 
 
>  <excitation_energy_1> 
5.193 
 
>  <excitation_energy_2> 
5.262 
 
>  <excitation_energy_3> 
5.376 
 
>  <excitation_energy_4> 
5.622 
 
>  <homo_energy> 
-5.927 
 
>  <homo_lumo_gap> 
6.865 
 
>  <logP> 
2.243 
 
>  <lumo_energy> 
0.939 
 
>  <melting_point> 
13.96 
 
>  <molecular_refractivity> 
44.02 
 
>  <oscillator_strength_1> 
0.0033 
 
>  <oscillator_strength_2> 
0.0013 
 
>  <oscillator_strength_3> 
0.0042 
 
>  <oscillator_strength_4> 
0.039 
 
>  <open_babel_can_smiles> 
C[C@H]1SC[C@H](SC1)C 
 
>  <mulliken_charges> 
20 
1   -0.437143 
2   -0.457986 
3   -0.415423 
4   -0.411396 
5   -0.239404 
6   -0.223585 
7   0.080144 
8   0.082242 
9   0.144508 
10   0.161331 
11   0.173522 
12   0.153207 
13   0.168909 
14   0.162188 
15   0.182471 
16   0.174769 
17   0.174772 
18   0.181263 
19   0.171645 
20   0.173965 
 
>  <lowdin_charges> 
20 
1   -0.450696 
2   -0.444798 
3   -0.379432 
4   -0.380802 
5   -0.222502 
6   -0.218816 
7   0.081903 
8   0.08039 
9   0.151473 
10   0.161173 
11   0.162176 
12   0.156413 
13   0.164605 
14   0.156481 
15   0.162276 
16   0.169445 
17   0.169869 
18   0.159695 
19   0.165461 
20   0.155686 
 
$$$$ 
 
