PCCDB-ID:  12957 
public computational chemistry database (PCCDB) project, http://pccdb.org 
 
 18 17  0  0  0  0  0  0  0  0999 V2000 
    1.0627    0.1837   -0.1133 C   0  0  0  0  0  0  0  0  0  0  0  0 
    2.9585   -1.4327   -0.3996 C   0  0  0  0  0  0  0  0  0  0  0  0 
    3.2785    0.9663   -1.0612 C   0  0  0  0  0  0  0  0  0  0  0  0 
    3.0855    0.3693    1.3793 C   0  0  0  0  0  0  0  0  0  0  0  0 
    2.5998    0.0194   -0.0426 C   0  0  0  0  0  0  0  0  0  0  0  0 
    3.7029   -0.3622    2.2125 N   0  0  0  0  0  0  0  0  0  0  0  0 
    2.8092    1.6437    1.7901 O   0  0  0  0  0  0  0  0  0  0  0  0 
    0.7027   -0.0730   -1.1161 H   0  0  0  0  0  0  0  0  0  0  0  0 
    0.7363    1.2102    0.0932 H   0  0  0  0  0  0  0  0  0  0  0  0 
    0.5639   -0.4726    0.6079 H   0  0  0  0  0  0  0  0  0  0  0  0 
    2.6082   -1.6658   -1.4107 H   0  0  0  0  0  0  0  0  0  0  0  0 
    2.4864   -2.1441    0.2873 H   0  0  0  0  0  0  0  0  0  0  0  0 
    4.0418   -1.5969   -0.3782 H   0  0  0  0  0  0  0  0  0  0  0  0 
    2.9573    0.7173   -2.0789 H   0  0  0  0  0  0  0  0  0  0  0  0 
    4.3691    0.8768   -1.0146 H   0  0  0  0  0  0  0  0  0  0  0  0 
    3.0260    2.0199   -0.8914 H   0  0  0  0  0  0  0  0  0  0  0  0 
    3.8675   -1.2893    1.8237 H   0  0  0  0  0  0  0  0  0  0  0  0 
    2.3347    2.1172    1.0917 H   0  0  0  0  0  0  0  0  0  0  0  0 
  1  5  1  0  0  0  0 
  1  9  1  0  0  0  0 
  1 10  1  0  0  0  0 
  2 13  1  0  0  0  0 
  2  5  1  0  0  0  0 
  2 12  1  0  0  0  0 
  3 15  1  0  0  0  0 
  3 16  1  0  0  0  0 
  3  5  1  0  0  0  0 
  4  7  1  0  0  0  0 
  4  6  2  0  0  0  0 
  5  4  1  0  0  0  0 
  8  1  1  0  0  0  0 
 11  2  1  0  0  0  0 
 14  3  1  0  0  0  0 
 17  6  1  0  0  0  0 
 18  7  1  0  0  0  0 
M  END 
>  <HBA> 
2 
 
>  <HBD> 
1 
 
>  <TPSA> 
43.09 
 
>  <cid> 
12957 
 
>  <dipole> 
4.39 
 
>  <excitation_energy_1> 
6.16 
 
>  <excitation_energy_2> 
6.236 
 
>  <excitation_energy_3> 
6.312 
 
>  <excitation_energy_4> 
6.882 
 
>  <homo_energy> 
-6.923 
 
>  <homo_lumo_gap> 
7.807 
 
>  <logP> 
1.218 
 
>  <lumo_energy> 
0.884 
 
>  <melting_point> 
68.43 
 
>  <molecular_refractivity> 
28.8 
 
>  <oscillator_strength_1> 
0.0008 
 
>  <oscillator_strength_2> 
0.0053 
 
>  <oscillator_strength_3> 
0.0005 
 
>  <oscillator_strength_4> 
0.001 
 
>  <open_babel_can_smiles> 
OC(=N)C(C)(C)C 
 
>  <mulliken_charges> 
18 
1   -0.447274 
2   -0.474616 
3   -0.447102 
4   0.500895 
5   -0.006412 
6   -0.599997 
7   -0.587742 
8   0.153147 
9   0.132572 
10   0.165533 
11   0.149908 
12   0.156561 
13   0.156436 
14   0.153051 
15   0.165545 
16   0.132847 
17   0.290374 
18   0.406275 
 
>  <lowdin_charges> 
18 
1   -0.44176 
2   -0.445757 
3   -0.437471 
4   0.126573 
5   -0.021518 
6   -0.398709 
7   -0.368836 
8   0.154588 
9   0.142469 
10   0.161995 
11   0.155169 
12   0.156244 
13   0.153173 
14   0.154201 
15   0.158766 
16   0.142201 
17   0.257865 
18   0.350805 
 
$$$$ 
 
