PCCDB-ID:  69461 
public computational chemistry database (PCCDB) project, http://pccdb.org 
 
 22 22  0  0  0  0  0  0  0  0999 V2000 
   -4.0405   -1.2953    0.6325 C   0  0  0  0  0  0  0  0  0  0  0  0 
   -2.7588   -1.8401    0.7273 C   0  0  0  0  0  0  0  0  0  0  0  0 
   -4.1845    0.0538    0.3319 C   0  0  0  0  0  0  0  0  0  0  0  0 
   -1.6330   -1.0420    0.5321 C   0  0  0  0  0  0  0  0  0  0  0  0 
    0.5721    0.6441   -0.2838 C   0  0  0  0  0  0  0  0  0  0  0  0 
   -3.0711    0.8809    0.1122 C   0  0  0  0  0  0  0  0  0  0  0  0 
   -1.7801    0.3158    0.2275 C   0  0  0  0  0  0  0  0  0  0  0  0 
    1.3453    1.7801   -0.9671 C   0  0  0  0  0  0  0  0  0  0  0  0 
   -3.3770    2.2931   -0.2454 C   0  0  0  0  0  0  0  0  0  0  0  0 
    2.5166    1.6599   -1.2295 O   0  0  0  0  0  0  0  0  0  0  0  0 
    0.6287    2.8708   -1.2637 O   0  0  0  0  0  0  0  0  0  0  0  0 
   -4.4936    2.7692   -0.2170 O   0  0  0  0  0  0  0  0  0  0  0  0 
   -2.3162    3.0520   -0.6510 O   0  0  0  0  0  0  0  0  0  0  0  0 
   -0.7119    1.1437    0.0716 O   0  0  0  0  0  0  0  0  0  0  0  0 
   -4.9165   -1.9162    0.7907 H   0  0  0  0  0  0  0  0  0  0  0  0 
   -2.6273   -2.8922    0.9646 H   0  0  0  0  0  0  0  0  0  0  0  0 
   -5.1663    0.5065    0.2469 H   0  0  0  0  0  0  0  0  0  0  0  0 
   -0.6414   -1.4683    0.6370 H   0  0  0  0  0  0  0  0  0  0  0  0 
    1.1343    0.3136    0.5962 H   0  0  0  0  0  0  0  0  0  0  0  0 
    0.4911   -0.1941   -0.9868 H   0  0  0  0  0  0  0  0  0  0  0  0 
   -0.2964    2.7530   -0.9532 H   0  0  0  0  0  0  0  0  0  0  0  0 
   -2.7019    3.9235   -0.8641 H   0  0  0  0  0  0  0  0  0  0  0  0 
  1  2  1  0  0  0  0 
  1 15  1  0  0  0  0 
  2 16  1  0  0  0  0 
  3  1  2  0  0  0  0 
  4 18  1  0  0  0  0 
  4  2  2  0  0  0  0 
  5 14  1  0  0  0  0 
  5 19  1  0  0  0  0 
  6  7  2  0  0  0  0 
  6  3  1  0  0  0  0 
  7  4  1  0  0  0  0 
  8  5  1  0  0  0  0 
  9 12  2  0  0  0  0 
  9  6  1  0  0  0  0 
 10  8  2  0  0  0  0 
 11  8  1  0  0  0  0 
 11 21  1  0  0  0  0 
 13  9  1  0  0  0  0 
 14  7  1  0  0  0  0 
 17  3  1  0  0  0  0 
 20  5  1  0  0  0  0 
 22 13  1  0  0  0  0 
M  END 
>  <HBA> 
5 
 
>  <HBD> 
2 
 
>  <TPSA> 
83.83 
 
>  <cid> 
69461 
 
>  <dipole> 
4.34 
 
>  <excitation_energy_1> 
4.414 
 
>  <excitation_energy_2> 
4.908 
 
>  <excitation_energy_3> 
5.24 
 
>  <excitation_energy_4> 
5.316 
 
>  <homo_energy> 
-6.879 
 
>  <homo_lumo_gap> 
5.124 
 
>  <logP> 
0.848 
 
>  <lumo_energy> 
-1.755 
 
>  <melting_point> 
177.25 
 
>  <molecular_refractivity> 
46.47 
 
>  <oscillator_strength_1> 
0.0846 
 
>  <oscillator_strength_2> 
0.0026 
 
>  <oscillator_strength_3> 
0.0014 
 
>  <oscillator_strength_4> 
0.1363 
 
>  <open_babel_can_smiles> 
OC(=O)COc1ccccc1C(=O)O 
 
>  <mulliken_charges> 
22 
1   -0.132073 
2   -0.125188 
3   -0.169041 
4   -0.18906 
5   -0.142529 
6   0.033554 
7   0.340169 
8   0.575114 
9   0.559882 
10   -0.448804 
11   -0.591751 
12   -0.466625 
13   -0.595389 
14   -0.541823 
15   0.145424 
16   0.14915 
17   0.176764 
18   0.15206 
19   0.19073 
20   0.187935 
21   0.471692 
22   0.41981 
 
>  <lowdin_charges> 
22 
1   -0.170862 
2   -0.120003 
3   -0.113453 
4   -0.203102 
5   -0.167906 
6   -0.076216 
7   0.115786 
8   0.177529 
9   0.204763 
10   -0.244575 
11   -0.34279 
12   -0.264396 
13   -0.360273 
14   -0.198667 
15   0.167672 
16   0.165879 
17   0.183616 
18   0.169816 
19   0.173423 
20   0.172267 
21   0.364323 
22   0.367168 
 
$$$$ 
 
