PCCDB-ID:  26385 
public computational chemistry database (PCCDB) project, http://pccdb.org 
 
 14 14  0  0  0  0  0  0  0  0999 V2000 
    0.9325    0.0588    0.0466 C   0  0  0  0  0  0  0  0  0  0  0  0 
    4.4827    0.4739   -0.2804 C   0  0  0  0  0  0  0  0  0  0  0  0 
    2.4133   -0.0976   -0.0553 C   0  0  0  0  0  0  0  0  0  0  0  0 
    3.1819   -1.2522    0.0058 C   0  0  0  0  0  0  0  0  0  0  0  0 
    3.2538    0.9690   -0.2347 N   0  0  0  0  0  0  0  0  0  0  0  0 
    4.4975   -0.8711   -0.1405 N   0  0  0  0  0  0  0  0  0  0  0  0 
    2.8483   -2.6157    0.1724 N   0  0  0  0  0  0  0  0  0  0  0  0 
    1.6549   -2.9053    0.2989 O   0  0  0  0  0  0  0  0  0  0  0  0 
    3.7881   -3.4270    0.1794 O   0  0  0  0  0  0  0  0  0  0  0  0 
    0.4204   -0.5031   -0.7418 H   0  0  0  0  0  0  0  0  0  0  0  0 
    0.6775    1.1172   -0.0395 H   0  0  0  0  0  0  0  0  0  0  0  0 
    0.5582   -0.3289    1.0000 H   0  0  0  0  0  0  0  0  0  0  0  0 
    5.3852    1.0548   -0.4140 H   0  0  0  0  0  0  0  0  0  0  0  0 
    5.2757   -1.5174   -0.1306 H   0  0  0  0  0  0  0  0  0  0  0  0 
  1 12  1  0  0  0  0 
  2  5  2  0  0  0  0 
  2  6  1  0  0  0  0 
  3  4  2  0  0  0  0 
  3  1  1  0  0  0  0 
  4  7  1  0  0  0  0 
  5  3  1  0  0  0  0 
  6 14  1  0  0  0  0 
  6  4  1  0  0  0  0 
  7  9  2  0  0  0  0 
  7  8  2  0  0  0  0 
 10  1  1  0  0  0  0 
 11  1  1  0  0  0  0 
 13  2  1  0  0  0  0 
M  END 
>  <HBA> 
1 
 
>  <HBD> 
1 
 
>  <TPSA> 
74.5 
 
>  <cid> 
26385 
 
>  <dipole> 
3.27 
 
>  <excitation_energy_1> 
3.847 
 
>  <excitation_energy_2> 
4.249 
 
>  <excitation_energy_3> 
4.34 
 
>  <excitation_energy_4> 
4.946 
 
>  <homo_energy> 
-7.135 
 
>  <homo_lumo_gap> 
4.738 
 
>  <logP> 
1.149 
 
>  <lumo_energy> 
-2.397 
 
>  <melting_point> 
109.73 
 
>  <molecular_refractivity> 
32.38 
 
>  <oscillator_strength_1> 
0.0 
 
>  <oscillator_strength_2> 
0.0004 
 
>  <oscillator_strength_3> 
0.245 
 
>  <oscillator_strength_4> 
0.0 
 
>  <open_babel_can_smiles> 
Cc1nc[nH]c1N(=O)=O 
 
>  <mulliken_charges> 
14 
1   -0.512277 
2   0.235148 
3   0.279162 
4   0.46773 
5   -0.460519 
6   -0.589478 
7   0.332517 
8   -0.408424 
9   -0.433731 
10   0.18285 
11   0.177517 
12   0.182968 
13   0.181298 
14   0.36524 
 
>  <lowdin_charges> 
14 
1   -0.439524 
2   -0.051798 
3   0.049297 
4   -0.016879 
5   -0.18115 
6   -0.159042 
7   0.308663 
8   -0.249162 
9   -0.283057 
10   0.177637 
11   0.172063 
12   0.176621 
13   0.180653 
14   0.315677 
 
$$$$ 
 
