PCCDB-ID:  13627 
public computational chemistry database (PCCDB) project, http://pccdb.org 
 
 24 24  0  0  0  0  0  0  0  0999 V2000 
    3.4978   -0.2669   -1.1518 C   0  0  0  0  0  0  0  0  0  0  0  0 
    2.5222    5.0738    0.7297 C   0  0  0  0  0  0  0  0  0  0  0  0 
    4.8473    1.9497    3.9678 C   0  0  0  0  0  0  0  0  0  0  0  0 
    2.4501    0.0775   -0.0779 C   0  0  0  0  0  0  0  0  0  0  0  0 
    3.6484    3.4552    2.3205 C   0  0  0  0  0  0  0  0  0  0  0  0 
    2.5034    2.5652    0.4023 C   0  0  0  0  0  0  0  0  0  0  0  0 
    3.6057    1.0808    1.9416 C   0  0  0  0  0  0  0  0  0  0  0  0 
    2.8959    3.6737    1.1613 C   0  0  0  0  0  0  0  0  0  0  0  0 
    4.0158    2.1662    2.7237 C   0  0  0  0  0  0  0  0  0  0  0  0 
    2.8519    1.2626    0.7764 C   0  0  0  0  0  0  0  0  0  0  0  0 
    3.1779   -1.1270   -1.7518 H   0  0  0  0  0  0  0  0  0  0  0  0 
    4.4628   -0.5117   -0.6937 H   0  0  0  0  0  0  0  0  0  0  0  0 
    3.6579    0.5798   -1.8289 H   0  0  0  0  0  0  0  0  0  0  0  0 
    2.6300    5.7890    1.5516 H   0  0  0  0  0  0  0  0  0  0  0  0 
    1.4864    5.1215    0.3744 H   0  0  0  0  0  0  0  0  0  0  0  0 
    3.1608    5.4215   -0.0934 H   0  0  0  0  0  0  0  0  0  0  0  0 
    4.7983    2.8137    4.6387 H   0  0  0  0  0  0  0  0  0  0  0  0 
    5.9047    1.7895    3.7179 H   0  0  0  0  0  0  0  0  0  0  0  0 
    4.5122    1.0685    4.5267 H   0  0  0  0  0  0  0  0  0  0  0  0 
    2.2905   -0.7995    0.5623 H   0  0  0  0  0  0  0  0  0  0  0  0 
    1.4897    0.2856   -0.5665 H   0  0  0  0  0  0  0  0  0  0  0  0 
    3.9496    4.3076    2.9270 H   0  0  0  0  0  0  0  0  0  0  0  0 
    1.9060    2.7185   -0.4955 H   0  0  0  0  0  0  0  0  0  0  0  0 
    3.8720    0.0707    2.2501 H   0  0  0  0  0  0  0  0  0  0  0  0 
  1 12  1  0  0  0  0 
  1  4  1  0  0  0  0 
  2  8  1  0  0  0  0 
  2 14  1  0  0  0  0 
  3 19  1  0  0  0  0 
  3 17  1  0  0  0  0 
  4 20  1  0  0  0  0 
  4 10  1  0  0  0  0 
  5  9  1  0  0  0  0 
  5 22  1  0  0  0  0 
  6 10  2  0  0  0  0 
  6  8  1  0  0  0  0 
  7 24  1  0  0  0  0 
  7  9  2  0  0  0  0 
  8  5  2  0  0  0  0 
  9  3  1  0  0  0  0 
 10  7  1  0  0  0  0 
 11  1  1  0  0  0  0 
 13  1  1  0  0  0  0 
 15  2  1  0  0  0  0 
 16  2  1  0  0  0  0 
 18  3  1  0  0  0  0 
 21  4  1  0  0  0  0 
 23  6  1  0  0  0  0 
M  END 
>  <HBA> 
0 
 
>  <HBD> 
0 
 
>  <TPSA> 
0.0 
 
>  <cid> 
13627 
 
>  <dipole> 
0.1 
 
>  <excitation_energy_1> 
5.099 
 
>  <excitation_energy_2> 
5.644 
 
>  <excitation_energy_3> 
5.831 
 
>  <excitation_energy_4> 
5.888 
 
>  <homo_energy> 
-6.172 
 
>  <homo_lumo_gap> 
6.381 
 
>  <logP> 
2.866 
 
>  <lumo_energy> 
0.21 
 
>  <melting_point> 
16.16 
 
>  <molecular_refractivity> 
46.15 
 
>  <oscillator_strength_1> 
0.0004 
 
>  <oscillator_strength_2> 
0.0029 
 
>  <oscillator_strength_3> 
0.0059 
 
>  <oscillator_strength_4> 
0.0468 
 
>  <open_babel_can_smiles> 
CCc1cc(C)cc(c1)C 
 
>  <mulliken_charges> 
24 
1   -0.432714 
2   -0.530077 
3   -0.529847 
4   -0.339449 
5   -0.244389 
6   -0.242769 
7   -0.242988 
8   0.190046 
9   0.190117 
10   0.187554 
11   0.141417 
12   0.148353 
13   0.148401 
14   0.153396 
15   0.156741 
16   0.16252 
17   0.153545 
18   0.162737 
19   0.156262 
20   0.140853 
21   0.140748 
22   0.109876 
23   0.109831 
24   0.10984 
 
>  <lowdin_charges> 
24 
1   -0.44136 
2   -0.442404 
3   -0.441948 
4   -0.27084 
5   -0.187324 
6   -0.18379 
7   -0.184534 
8   0.00377 
9   0.004975 
10   0.00332 
11   0.148775 
12   0.149873 
13   0.150679 
14   0.156396 
15   0.15682 
16   0.161009 
17   0.15635 
18   0.158916 
19   0.158157 
20   0.148158 
21   0.14743 
22   0.150126 
23   0.149038 
24   0.14841 
 
$$$$ 
 
