PCCDB-ID:  15593 
public computational chemistry database (PCCDB) project, http://pccdb.org 
 
 15 15  0  0  0  0  0  0  0  0999 V2000 
    0.9961    0.0380   -0.0884 C   0  0  0  0  0  0  0  0  0  0  0  0 
    5.1696   -2.4546   -0.0902 C   0  0  0  0  0  0  0  0  0  0  0  0 
    4.4694    1.1134   -0.0822 C   0  0  0  0  0  0  0  0  0  0  0  0 
    2.4983    0.0275   -0.0861 C   0  0  0  0  0  0  0  0  0  0  0  0 
    4.4481   -1.1370   -0.0882 C   0  0  0  0  0  0  0  0  0  0  0  0 
    3.1384    1.2095   -0.0836 N   0  0  0  0  0  0  0  0  0  0  0  0 
    5.1852   -0.0129   -0.0865 N   0  0  0  0  0  0  0  0  0  0  0  0 
    3.1077   -1.1667   -0.0866 N   0  0  0  0  0  0  0  0  0  0  0  0 
    0.6218    1.0628   -0.0793 H   0  0  0  0  0  0  0  0  0  0  0  0 
    0.6153   -0.5023    0.7854 H   0  0  0  0  0  0  0  0  0  0  0  0 
    0.6185   -0.4844   -0.9745 H   0  0  0  0  0  0  0  0  0  0  0  0 
    6.2493   -2.2984   -0.1103 H   0  0  0  0  0  0  0  0  0  0  0  0 
    4.8653   -3.0487   -0.9589 H   0  0  0  0  0  0  0  0  0  0  0  0 
    4.8982   -3.0321    0.8006 H   0  0  0  0  0  0  0  0  0  0  0  0 
    5.0280    2.0486   -0.0775 H   0  0  0  0  0  0  0  0  0  0  0  0 
  1  4  1  0  0  0  0 
  1  9  1  0  0  0  0 
  1 10  1  0  0  0  0 
  2  5  1  0  0  0  0 
  2 14  1  0  0  0  0 
  3 15  1  0  0  0  0 
  4  6  2  0  0  0  0 
  5  8  1  0  0  0  0 
  5  7  2  0  0  0  0 
  6  3  2  0  0  0  0 
  7  3  1  0  0  0  0 
  8  4  1  0  0  0  0 
 11  1  1  0  0  0  0 
 12  2  1  0  0  0  0 
 13  2  1  0  0  0  0 
M  RAD  1   8   2 
M  END 
>  <HBA> 
3 
 
>  <HBD> 
0 
 
>  <TPSA> 
38.67 
 
>  <cid> 
15593 
 
>  <dipole> 
0.84 
 
>  <excitation_energy_1> 
4.504 
 
>  <excitation_energy_2> 
4.551 
 
>  <excitation_energy_3> 
4.697 
 
>  <excitation_energy_4> 
4.855 
 
>  <homo_energy> 
-7.129 
 
>  <homo_lumo_gap> 
5.88 
 
>  <logP> 
0.488 
 
>  <lumo_energy> 
-1.249 
 
>  <melting_point> 
58.51 
 
>  <molecular_refractivity> 
29.76 
 
>  <oscillator_strength_1> 
0.0057 
 
>  <oscillator_strength_2> 
0.0 
 
>  <oscillator_strength_3> 
0.0 
 
>  <oscillator_strength_4> 
0.0075 
 
>  <open_babel_can_smiles> 
CC1=NC=[N]=C([N]1)C 
 
>  <mulliken_charges> 
15 
1   -0.50429 
2   -0.504181 
3   0.179553 
4   0.424235 
5   0.424138 
6   -0.409503 
7   -0.409463 
8   -0.436815 
9   0.178268 
10   0.179264 
11   0.179321 
12   0.178242 
13   0.179175 
14   0.179396 
15   0.162661 
 
>  <lowdin_charges> 
15 
1   -0.447902 
2   -0.446243 
3   -0.013117 
4   0.119713 
5   0.119684 
6   -0.18026 
7   -0.180303 
8   -0.182915 
9   0.170856 
10   0.17649 
11   0.176471 
12   0.169935 
13   0.176332 
14   0.176421 
15   0.164837 
 
$$$$ 
 
