PCCDB-ID:  70370 
public computational chemistry database (PCCDB) project, http://pccdb.org 
 
 38 38  0  0  0  0  0  0  0  0999 V2000 
    2.5667   -0.4911    1.7584 C   0  0  0  0  0  0  0  0  0  0  0  0 
    3.0766   -1.3804   -0.4911 C   0  0  0  0  0  0  0  0  0  0  0  0 
    0.7807   -0.5640   -0.0816 C   0  0  0  0  0  0  0  0  0  0  0  0 
    2.0164    4.9529    2.0269 C   0  0  0  0  0  0  0  0  0  0  0  0 
    2.3514    6.1646   -0.1186 C   0  0  0  0  0  0  0  0  0  0  0  0 
    0.2567    4.8609    0.1968 C   0  0  0  0  0  0  0  0  0  0  0  0 
    3.6780    1.3173   -1.1731 C   0  0  0  0  0  0  0  0  0  0  0  0 
    3.4500    3.7104   -1.0516 C   0  0  0  0  0  0  0  0  0  0  0  0 
    4.0674    2.5841   -1.5977 C   0  0  0  0  0  0  0  0  0  0  0  0 
    2.6807    1.1402   -0.2037 C   0  0  0  0  0  0  0  0  0  0  0  0 
    2.4471    3.6069   -0.0847 C   0  0  0  0  0  0  0  0  0  0  0  0 
    2.0780    2.3040    0.3289 C   0  0  0  0  0  0  0  0  0  0  0  0 
    2.2738   -0.2868    0.2464 C   0  0  0  0  0  0  0  0  0  0  0  0 
    1.7759    4.8726    0.4986 C   0  0  0  0  0  0  0  0  0  0  0  0 
    1.0896    2.2341    1.2881 O   0  0  0  0  0  0  0  0  0  0  0  0 
    5.3352    2.8487   -2.8387 S   0  0  0  0  0  0  0  0  0  0  0  0 
    2.2641   -1.4979    2.0698 H   0  0  0  0  0  0  0  0  0  0  0  0 
    2.0617    0.2201    2.4210 H   0  0  0  0  0  0  0  0  0  0  0  0 
    3.6397   -0.3844    1.9501 H   0  0  0  0  0  0  0  0  0  0  0  0 
    2.7524   -2.3654   -0.1372 H   0  0  0  0  0  0  0  0  0  0  0  0 
    4.1520   -1.3002   -0.3004 H   0  0  0  0  0  0  0  0  0  0  0  0 
    2.9122   -1.3499   -1.5735 H   0  0  0  0  0  0  0  0  0  0  0  0 
    0.5016   -1.5706    0.2511 H   0  0  0  0  0  0  0  0  0  0  0  0 
    0.6181   -0.5064   -1.1632 H   0  0  0  0  0  0  0  0  0  0  0  0 
    0.0754    0.1376    0.3760 H   0  0  0  0  0  0  0  0  0  0  0  0 
    1.5522    5.8623    2.4285 H   0  0  0  0  0  0  0  0  0  0  0  0 
    3.0897    4.9997    2.2466 H   0  0  0  0  0  0  0  0  0  0  0  0 
    1.5953    4.0938    2.5511 H   0  0  0  0  0  0  0  0  0  0  0  0 
    1.8469    7.0288    0.3275 H   0  0  0  0  0  0  0  0  0  0  0  0 
    2.1901    6.2141   -1.2015 H   0  0  0  0  0  0  0  0  0  0  0  0 
    3.4241    6.2751    0.0772 H   0  0  0  0  0  0  0  0  0  0  0  0 
   -0.2070    5.7746    0.5892 H   0  0  0  0  0  0  0  0  0  0  0  0 
   -0.2415    4.0025    0.6494 H   0  0  0  0  0  0  0  0  0  0  0  0 
    0.0787    4.8331   -0.8848 H   0  0  0  0  0  0  0  0  0  0  0  0 
    4.1594    0.4505   -1.6074 H   0  0  0  0  0  0  0  0  0  0  0  0 
    3.7644    4.6886   -1.3935 H   0  0  0  0  0  0  0  0  0  0  0  0 
    0.9183    1.3101    1.5054 H   0  0  0  0  0  0  0  0  0  0  0  0 
    5.6816    1.5549   -2.9958 H   0  0  0  0  0  0  0  0  0  0  0  0 
  1 19  1  0  0  0  0 
  1 17  1  0  0  0  0 
  1 18  1  0  0  0  0 
  2 21  1  0  0  0  0 
  2 20  1  0  0  0  0 
  2 13  1  0  0  0  0 
  3 13  1  0  0  0  0 
  3 23  1  0  0  0  0 
  3 25  1  0  0  0  0 
  4 27  1  0  0  0  0 
  4 26  1  0  0  0  0 
  4 28  1  0  0  0  0 
  5 31  1  0  0  0  0 
  5 29  1  0  0  0  0 
  5 14  1  0  0  0  0 
  6 14  1  0  0  0  0 
  6 32  1  0  0  0  0 
  6 33  1  0  0  0  0 
  7 10  1  0  0  0  0 
  8 11  2  0  0  0  0 
  9  7  2  0  0  0  0 
  9  8  1  0  0  0  0 
 10 13  1  0  0  0  0 
 10 12  2  0  0  0  0 
 11 12  1  0  0  0  0 
 11 14  1  0  0  0  0 
 12 15  1  0  0  0  0 
 13  1  1  0  0  0  0 
 14  4  1  0  0  0  0 
 15 37  1  0  0  0  0 
 16  9  1  0  0  0  0 
 22  2  1  0  0  0  0 
 24  3  1  0  0  0  0 
 30  5  1  0  0  0  0 
 34  6  1  0  0  0  0 
 35  7  1  0  0  0  0 
 36  8  1  0  0  0  0 
 38 16  1  0  0  0  0 
M  END 
>  <HBA> 
2 
 
>  <HBD> 
2 
 
>  <TPSA> 
59.03 
 
>  <cid> 
70370 
 
>  <dipole> 
3.13 
 
>  <excitation_energy_1> 
4.371 
 
>  <excitation_energy_2> 
4.481 
 
>  <excitation_energy_3> 
4.831 
 
>  <excitation_energy_4> 
5.042 
 
>  <homo_energy> 
-5.328 
 
>  <homo_lumo_gap> 
5.342 
 
>  <logP> 
4.276 
 
>  <lumo_energy> 
0.014 
 
>  <melting_point> 
88.64 
 
>  <molecular_refractivity> 
74.26 
 
>  <oscillator_strength_1> 
0.0054 
 
>  <oscillator_strength_2> 
0.047 
 
>  <oscillator_strength_3> 
0.0007 
 
>  <oscillator_strength_4> 
0.1653 
 
>  <open_babel_can_smiles> 
Sc1cc(c(c(c1)C(C)(C)C)O)C(C)(C)C 
 
>  <mulliken_charges> 
38 
1   -0.457695 
2   -0.458891 
3   -0.457696 
4   -0.44957 
5   -0.459588 
6   -0.449506 
7   -0.244127 
8   -0.24847 
9   -0.043719 
10   0.182685 
11   0.159932 
12   0.181465 
13   -0.017043 
14   0.034429 
15   -0.655599 
16   -0.042362 
17   0.1474 
18   0.141945 
19   0.161647 
20   0.14516 
21   0.151508 
22   0.152164 
23   0.147167 
24   0.161675 
25   0.142271 
26   0.131834 
27   0.137987 
28   0.168925 
29   0.141501 
30   0.14514 
31   0.145336 
32   0.131761 
33   0.169121 
34   0.138079 
35   0.120501 
36   0.139033 
37   0.414835 
38   0.090762 
 
>  <lowdin_charges> 
38 
1   -0.447828 
2   -0.437296 
3   -0.447783 
4   -0.446243 
5   -0.441585 
6   -0.445953 
7   -0.187185 
8   -0.176181 
9   -0.125761 
10   -0.044809 
11   -0.018307 
12   0.085965 
13   0.011898 
14   0.023732 
15   -0.383464 
16   -0.024116 
17   0.150856 
18   0.147029 
19   0.158496 
20   0.152114 
21   0.150312 
22   0.15053 
23   0.150747 
24   0.158377 
25   0.147256 
26   0.14452 
27   0.145216 
28   0.16148 
29   0.151643 
30   0.146662 
31   0.146882 
32   0.144499 
33   0.161598 
34   0.145125 
35   0.160156 
36   0.168081 
37   0.348115 
38   0.115219 
 
$$$$ 
 
