PCCDB-ID:  40152 
public computational chemistry database (PCCDB) project, http://pccdb.org 
 
 30 29  0  0  1  0  0  0  0  0999 V2000 
    1.3066    3.1081   -2.8992 C   0  0  0  0  0  0  0  0  0  0  0  0 
    4.9281   -1.8932   -3.4080 C   0  0  0  0  0  0  0  0  0  0  0  0 
    5.3385    3.8473   -0.4878 C   0  0  0  0  0  0  0  0  0  0  0  0 
    2.7960    2.7459   -2.8777 C   0  0  0  0  0  0  0  0  0  0  0  0 
    4.3947   -0.8597   -2.4095 C   0  0  0  0  0  0  0  0  0  0  0  0 
    3.1931    1.9860   -1.6017 C   0  0  0  0  0  0  0  0  0  0  0  0 
    5.0894    0.5025   -2.5424 C   0  0  0  0  0  0  0  0  0  0  0  0 
    5.6676    2.7456   -1.4993 C   0  0  2  0  0  0  0  0  0  0  0  0 
    4.6756    1.5547   -1.4903 C   0  0  0  0  0  0  0  0  0  0  0  0 
    7.0120    2.2896   -1.2931 O   0  0  0  0  0  0  0  0  0  0  0  0 
    1.0375    3.6430   -3.8171 H   0  0  0  0  0  0  0  0  0  0  0  0 
    1.0414    3.7497   -2.0496 H   0  0  0  0  0  0  0  0  0  0  0  0 
    0.6799    2.2096   -2.8408 H   0  0  0  0  0  0  0  0  0  0  0  0 
    4.4218   -2.8588   -3.2950 H   0  0  0  0  0  0  0  0  0  0  0  0 
    6.0031   -2.0601   -3.2680 H   0  0  0  0  0  0  0  0  0  0  0  0 
    4.7793   -1.5585   -4.4421 H   0  0  0  0  0  0  0  0  0  0  0  0 
    4.3977    4.3583   -0.7163 H   0  0  0  0  0  0  0  0  0  0  0  0 
    6.1412    4.5912   -0.4881 H   0  0  0  0  0  0  0  0  0  0  0  0 
    5.2561    3.4345    0.5275 H   0  0  0  0  0  0  0  0  0  0  0  0 
    3.3904    3.6649   -2.9702 H   0  0  0  0  0  0  0  0  0  0  0  0 
    3.0320    2.1418   -3.7632 H   0  0  0  0  0  0  0  0  0  0  0  0 
    4.5322   -1.2383   -1.3859 H   0  0  0  0  0  0  0  0  0  0  0  0 
    3.3108   -0.7529   -2.5500 H   0  0  0  0  0  0  0  0  0  0  0  0 
    2.5640    1.0895   -1.5213 H   0  0  0  0  0  0  0  0  0  0  0  0 
    2.9314    2.6005   -0.7302 H   0  0  0  0  0  0  0  0  0  0  0  0 
    4.9150    0.9014   -3.5522 H   0  0  0  0  0  0  0  0  0  0  0  0 
    6.1730    0.3599   -2.4611 H   0  0  0  0  0  0  0  0  0  0  0  0 
    5.6952    3.1816   -2.5051 H   0  0  0  0  0  0  0  0  0  0  0  0 
    4.7848    1.0819   -0.4973 H   0  0  0  0  0  0  0  0  0  0  0  0 
    7.0411    1.8842   -0.4105 H   0  0  0  0  0  0  0  0  0  0  0  0 
  1  4  1  0  0  0  0 
  1 13  1  0  0  0  0 
  1 12  1  0  0  0  0 
  2 14  1  0  0  0  0 
  2 15  1  0  0  0  0 
  2  5  1  0  0  0  0 
  3 19  1  0  0  0  0 
  4  6  1  0  0  0  0 
  5 22  1  0  0  0  0 
  6 24  1  0  0  0  0 
  6  9  1  0  0  0  0 
  6 25  1  0  0  0  0 
  7 27  1  0  0  0  0 
  7  5  1  0  0  0  0 
  7  9  1  0  0  0  0 
  8 28  1  6  0  0  0 
  8  9  1  0  0  0  0 
  8 10  1  0  0  0  0 
  8  3  1  0  0  0  0 
  9 29  1  0  0  0  0 
 10 30  1  0  0  0  0 
 11  1  1  0  0  0  0 
 16  2  1  0  0  0  0 
 17  3  1  0  0  0  0 
 18  3  1  0  0  0  0 
 20  4  1  0  0  0  0 
 21  4  1  0  0  0  0 
 23  5  1  0  0  0  0 
 26  7  1  0  0  0  0 
M  END 
>  <HBA> 
1 
 
>  <HBD> 
1 
 
>  <TPSA> 
20.23 
 
>  <cid> 
40152 
 
>  <dipole> 
1.53 
 
>  <excitation_energy_1> 
6.412 
 
>  <excitation_energy_2> 
6.976 
 
>  <excitation_energy_3> 
7.077 
 
>  <excitation_energy_4> 
7.202 
 
>  <homo_energy> 
-7.026 
 
>  <homo_lumo_gap> 
8.936 
 
>  <logP> 
2.584 
 
>  <lumo_energy> 
1.91 
 
>  <melting_point> 
-9.94 
 
>  <molecular_refractivity> 
46.54 
 
>  <oscillator_strength_1> 
0.0121 
 
>  <oscillator_strength_2> 
0.0041 
 
>  <oscillator_strength_3> 
0.0142 
 
>  <oscillator_strength_4> 
0.0216 
 
>  <open_babel_can_smiles> 
CCCC([C@H](O)C)CCC 
 
>  <mulliken_charges> 
30 
1   -0.442203 
2   -0.440894 
3   -0.46787 
4   -0.258925 
5   -0.254922 
6   -0.269712 
7   -0.257638 
8   0.140152 
9   -0.097026 
10   -0.623465 
11   0.142752 
12   0.140873 
13   0.142226 
14   0.139558 
15   0.142994 
16   0.141259 
17   0.149141 
18   0.15879 
19   0.130557 
20   0.135733 
21   0.139102 
22   0.125787 
23   0.131973 
24   0.134124 
25   0.130114 
26   0.126222 
27   0.150489 
28   0.135176 
29   0.096115 
30   0.379519 
 
>  <lowdin_charges> 
30 
1   -0.444737 
2   -0.440521 
3   -0.462292 
4   -0.278336 
5   -0.271113 
6   -0.282478 
7   -0.281516 
8   -0.001139 
9   -0.142201 
10   -0.462202 
11   0.150008 
12   0.146403 
13   0.146867 
14   0.14768 
15   0.145257 
16   0.145188 
17   0.154244 
18   0.159875 
19   0.141993 
20   0.139757 
21   0.142796 
22   0.135421 
23   0.13561 
24   0.1436 
25   0.141372 
26   0.137025 
27   0.150393 
28   0.141407 
29   0.126722 
30   0.334918 
 
$$$$ 
 
