PCCDB-ID:  7353 
public computational chemistry database (PCCDB) project, http://pccdb.org 
 
 26 25  0  0  0  0  0  0  0  0999 V2000 
   10.1776    0.2051   -3.8913 C   0  0  0  0  0  0  0  0  0  0  0  0 
    4.3846   -3.8787   -3.1415 C   0  0  0  0  0  0  0  0  0  0  0  0 
    4.4667   -4.6267   -0.7138 C   0  0  0  0  0  0  0  0  0  0  0  0 
    9.6366   -0.2280   -2.5249 C   0  0  0  0  0  0  0  0  0  0  0  0 
    8.2325   -0.8420   -2.6090 C   0  0  0  0  0  0  0  0  0  0  0  0 
    7.7108   -1.2746   -1.2427 C   0  0  0  0  0  0  0  0  0  0  0  0 
    4.7318   -3.4745   -1.6972 C   0  0  0  0  0  0  0  0  0  0  0  0 
    6.2002   -3.0777   -1.6297 C   0  0  0  0  0  0  0  0  0  0  0  0 
    7.1248   -3.8388   -1.8293 O   0  0  0  0  0  0  0  0  0  0  0  0 
    6.3523   -1.7685   -1.3232 O   0  0  0  0  0  0  0  0  0  0  0  0 
   11.1805    0.6376   -3.8034 H   0  0  0  0  0  0  0  0  0  0  0  0 
    9.5282    0.9583   -4.3538 H   0  0  0  0  0  0  0  0  0  0  0  0 
   10.2397   -0.6467   -4.5791 H   0  0  0  0  0  0  0  0  0  0  0  0 
    3.3347   -4.1849   -3.2070 H   0  0  0  0  0  0  0  0  0  0  0  0 
    5.0113   -4.7169   -3.4631 H   0  0  0  0  0  0  0  0  0  0  0  0 
    4.5397   -3.0479   -3.8390 H   0  0  0  0  0  0  0  0  0  0  0  0 
    3.4208   -4.9467   -0.7773 H   0  0  0  0  0  0  0  0  0  0  0  0 
    4.6669   -4.3255    0.3206 H   0  0  0  0  0  0  0  0  0  0  0  0 
    5.1080   -5.4818   -0.9494 H   0  0  0  0  0  0  0  0  0  0  0  0 
    9.6184    0.6378   -1.8476 H   0  0  0  0  0  0  0  0  0  0  0  0 
   10.3252   -0.9557   -2.0733 H   0  0  0  0  0  0  0  0  0  0  0  0 
    8.2485   -1.7157   -3.2717 H   0  0  0  0  0  0  0  0  0  0  0  0 
    7.5320   -0.1166   -3.0441 H   0  0  0  0  0  0  0  0  0  0  0  0 
    7.6534   -0.4273   -0.5534 H   0  0  0  0  0  0  0  0  0  0  0  0 
    8.3446   -2.0529   -0.8090 H   0  0  0  0  0  0  0  0  0  0  0  0 
    4.1342   -2.6026   -1.4117 H   0  0  0  0  0  0  0  0  0  0  0  0 
  1 11  1  0  0  0  0 
  1  4  1  0  0  0  0 
  2  7  1  0  0  0  0 
  3 18  1  0  0  0  0 
  4 21  1  0  0  0  0 
  4 20  1  0  0  0  0 
  5  4  1  0  0  0  0 
  5  6  1  0  0  0  0 
  6 25  1  0  0  0  0 
  6 24  1  0  0  0  0 
  7  8  1  0  0  0  0 
  7 26  1  0  0  0  0 
  7  3  1  0  0  0  0 
  8 10  1  0  0  0  0 
  9  8  2  0  0  0  0 
 10  6  1  0  0  0  0 
 12  1  1  0  0  0  0 
 13  1  1  0  0  0  0 
 14  2  1  0  0  0  0 
 15  2  1  0  0  0  0 
 16  2  1  0  0  0  0 
 17  3  1  0  0  0  0 
 19  3  1  0  0  0  0 
 22  5  1  0  0  0  0 
 23  5  1  0  0  0  0 
M  END 
>  <HBA> 
2 
 
>  <HBD> 
0 
 
>  <TPSA> 
26.3 
 
>  <cid> 
7353 
 
>  <dipole> 
1.54 
 
>  <excitation_energy_1> 
5.778 
 
>  <excitation_energy_2> 
6.921 
 
>  <excitation_energy_3> 
7.355 
 
>  <excitation_energy_4> 
7.426 
 
>  <homo_energy> 
-7.176 
 
>  <homo_lumo_gap> 
7.641 
 
>  <logP> 
1.986 
 
>  <lumo_energy> 
0.465 
 
>  <melting_point> 
-15.45 
 
>  <molecular_refractivity> 
41.85 
 
>  <oscillator_strength_1> 
0.0012 
 
>  <oscillator_strength_2> 
0.0045 
 
>  <oscillator_strength_3> 
0.0045 
 
>  <oscillator_strength_4> 
0.0008 
 
>  <open_babel_can_smiles> 
CCCCOC(=O)C(C)C 
 
>  <mulliken_charges> 
26 
1   -0.441037 
2   -0.450679 
3   -0.449509 
4   -0.258501 
5   -0.272382 
6   -0.046371 
7   -0.153625 
8   0.62353 
9   -0.490565 
10   -0.465026 
11   0.144898 
12   0.143486 
13   0.14756 
14   0.147855 
15   0.167714 
16   0.150791 
17   0.145832 
18   0.15026 
19   0.16938 
20   0.132273 
21   0.140535 
22   0.159433 
23   0.140199 
24   0.147278 
25   0.166896 
26   0.149772 
 
>  <lowdin_charges> 
26 
1   -0.443472 
2   -0.438532 
3   -0.437074 
4   -0.273358 
5   -0.28881 
6   -0.135196 
7   -0.143754 
8   0.202099 
9   -0.277928 
10   -0.194898 
11   0.150449 
12   0.148674 
13   0.150077 
14   0.151337 
15   0.161339 
16   0.1536 
17   0.150613 
18   0.151939 
19   0.162208 
20   0.139885 
21   0.144889 
22   0.155523 
23   0.146466 
24   0.150508 
25   0.158636 
26   0.154781 
 
$$$$ 
 
