PCCDB-ID:  65932 
public computational chemistry database (PCCDB) project, http://pccdb.org 
 
 27 28  0  0  0  0  0  0  0  0999 V2000 
   -1.5344   -0.3551   -0.4523 C   0  0  0  0  0  0  0  0  0  0  0  0 
   -0.4466   -1.2205   -0.3261 C   0  0  0  0  0  0  0  0  0  0  0  0 
   -1.3349    1.0183   -0.3299 C   0  0  0  0  0  0  0  0  0  0  0  0 
    2.0326   -1.6904    0.0258 C   0  0  0  0  0  0  0  0  0  0  0  0 
    2.5651   -3.0423    2.2263 C   0  0  0  0  0  0  0  0  0  0  0  0 
    0.1618    3.0099    0.1509 C   0  0  0  0  0  0  0  0  0  0  0  0 
    3.3879   -1.4684    3.4137 C   0  0  0  0  0  0  0  0  0  0  0  0 
    0.8460   -0.7450   -0.0881 C   0  0  0  0  0  0  0  0  0  0  0  0 
   -0.0609    1.5332   -0.0718 C   0  0  0  0  0  0  0  0  0  0  0  0 
    2.5177   -1.9219    1.4289 C   0  0  0  0  0  0  0  0  0  0  0  0 
    1.0235    0.6423    0.0365 C   0  0  0  0  0  0  0  0  0  0  0  0 
    3.1094   -2.7542    3.4593 N   0  0  0  0  0  0  0  0  0  0  0  0 
    3.0560   -0.9168    2.2098 N   0  0  0  0  0  0  0  0  0  0  0  0 
    1.3400    3.5061   -0.5246 O   0  0  0  0  0  0  0  0  0  0  0  0 
    2.2934    1.1117    0.2796 O   0  0  0  0  0  0  0  0  0  0  0  0 
   -2.5267   -0.7494   -0.6496 H   0  0  0  0  0  0  0  0  0  0  0  0 
   -0.5971   -2.2930   -0.4241 H   0  0  0  0  0  0  0  0  0  0  0  0 
   -2.1743    1.7039   -0.4241 H   0  0  0  0  0  0  0  0  0  0  0  0 
    2.8548   -1.3033   -0.5915 H   0  0  0  0  0  0  0  0  0  0  0  0 
    1.7524   -2.6616   -0.3946 H   0  0  0  0  0  0  0  0  0  0  0  0 
    2.2400   -4.0441    1.9757 H   0  0  0  0  0  0  0  0  0  0  0  0 
    0.3546    3.2276    1.2075 H   0  0  0  0  0  0  0  0  0  0  0  0 
   -0.7215    3.5871   -0.1498 H   0  0  0  0  0  0  0  0  0  0  0  0 
    3.8307   -0.8893    4.2135 H   0  0  0  0  0  0  0  0  0  0  0  0 
    3.1290    0.0490    1.9123 H   0  0  0  0  0  0  0  0  0  0  0  0 
    1.2058    3.3714   -1.4778 H   0  0  0  0  0  0  0  0  0  0  0  0 
    2.3008    2.0689    0.0493 H   0  0  0  0  0  0  0  0  0  0  0  0 
  1  3  2  0  0  0  0 
  1  2  1  0  0  0  0 
  2  8  2  0  0  0  0 
  3  9  1  0  0  0  0 
  4 10  1  0  0  0  0 
  5 12  1  0  0  0  0 
  6 22  1  0  0  0  0 
  7 12  2  0  0  0  0 
  7 24  1  0  0  0  0 
  8  4  1  0  0  0  0 
  8 11  1  0  0  0  0 
  9 11  2  0  0  0  0 
  9  6  1  0  0  0  0 
 10 13  1  0  0  0  0 
 10  5  2  0  0  0  0 
 11 15  1  0  0  0  0 
 13  7  1  0  0  0  0 
 14  6  1  0  0  0  0 
 16  1  1  0  0  0  0 
 17  2  1  0  0  0  0 
 18  3  1  0  0  0  0 
 19  4  1  0  0  0  0 
 20  4  1  0  0  0  0 
 21  5  1  0  0  0  0 
 23  6  1  0  0  0  0 
 25 13  1  0  0  0  0 
 26 14  1  0  0  0  0 
 27 15  1  0  0  0  0 
M  END 
>  <HBA> 
3 
 
>  <HBD> 
3 
 
>  <TPSA> 
69.14 
 
>  <cid> 
65932 
 
>  <dipole> 
6.34 
 
>  <excitation_energy_1> 
4.334 
 
>  <excitation_energy_2> 
4.732 
 
>  <excitation_energy_3> 
4.865 
 
>  <excitation_energy_4> 
5.094 
 
>  <homo_energy> 
-5.559 
 
>  <homo_lumo_gap> 
5.108 
 
>  <logP> 
1.198 
 
>  <lumo_energy> 
-0.452 
 
>  <melting_point> 
164.76 
 
>  <molecular_refractivity> 
56.19 
 
>  <oscillator_strength_1> 
0.0052 
 
>  <oscillator_strength_2> 
0.0124 
 
>  <oscillator_strength_3> 
0.0593 
 
>  <oscillator_strength_4> 
0.0017 
 
>  <open_babel_can_smiles> 
OCc1cccc(c1O)Cc1cnc[nH]1 
 
>  <mulliken_charges> 
27 
1   -0.123419 
2   -0.19426 
3   -0.200588 
4   -0.436609 
5   -0.083061 
6   -0.140051 
7   0.202505 
8   0.157482 
9   0.095143 
10   0.327919 
11   0.230877 
12   -0.431417 
13   -0.602905 
14   -0.62211 
15   -0.69797 
16   0.131369 
17   0.132306 
18   0.126158 
19   0.169877 
20   0.158879 
21   0.120468 
22   0.180724 
23   0.156072 
24   0.144664 
25   0.354212 
26   0.405917 
27   0.43782 
 
>  <lowdin_charges> 
27 
1   -0.172154 
2   -0.146837 
3   -0.160971 
4   -0.268419 
5   -0.178613 
6   -0.13495 
7   -0.103118 
8   -0.025943 
9   -0.081678 
10   -0.012308 
11   0.089635 
12   -0.193038 
13   -0.18238 
14   -0.460138 
15   -0.411032 
16   0.159853 
17   0.158246 
18   0.157108 
19   0.166083 
20   0.164994 
21   0.154345 
22   0.16143 
23   0.150976 
24   0.163113 
25   0.295437 
26   0.350849 
27   0.359511 
 
$$$$ 
 
