PCCDB-ID:  61830 
public computational chemistry database (PCCDB) project, http://pccdb.org 
 
 34 33  0  0  0  0  0  0  0  0999 V2000 
    6.3097    2.1682    1.1445 C   0  0  0  0  0  0  0  0  0  0  0  0 
   11.0067   -6.5941   -0.2418 C   0  0  0  0  0  0  0  0  0  0  0  0 
    6.2328    2.2986   -0.3801 C   0  0  0  0  0  0  0  0  0  0  0  0 
   11.0439   -6.9780   -1.7266 C   0  0  0  0  0  0  0  0  0  0  0  0 
    6.3294    0.9430   -1.0943 C   0  0  0  0  0  0  0  0  0  0  0  0 
   10.2131   -6.0633   -2.6435 C   0  0  0  0  0  0  0  0  0  0  0  0 
    6.2526    1.0918   -2.6079 C   0  0  0  0  0  0  0  0  0  0  0  0 
   10.7724   -4.6486   -2.7410 C   0  0  0  0  0  0  0  0  0  0  0  0 
    7.4646   -0.7322   -3.4790 C   0  0  0  0  0  0  0  0  0  0  0  0 
    8.9441   -3.2613   -3.2840 C   0  0  0  0  0  0  0  0  0  0  0  0 
    8.5485   -0.2692   -3.2517 O   0  0  0  0  0  0  0  0  0  0  0  0 
    8.4659   -3.2639   -2.1827 O   0  0  0  0  0  0  0  0  0  0  0  0 
    6.2622   -0.2043   -3.2690 O   0  0  0  0  0  0  0  0  0  0  0  0 
   10.0421   -3.8664   -3.7269 O   0  0  0  0  0  0  0  0  0  0  0  0 
    7.2068   -1.9691   -4.0465 O   0  0  0  0  0  0  0  0  0  0  0  0 
    8.4424   -2.5983   -4.3914 O   0  0  0  0  0  0  0  0  0  0  0  0 
    6.2404    3.1479    1.6301 H   0  0  0  0  0  0  0  0  0  0  0  0 
    7.2550    1.7071    1.4542 H   0  0  0  0  0  0  0  0  0  0  0  0 
    5.4942    1.5449    1.5305 H   0  0  0  0  0  0  0  0  0  0  0  0 
   11.5617   -7.3206    0.3622 H   0  0  0  0  0  0  0  0  0  0  0  0 
    9.9762   -6.5663    0.1319 H   0  0  0  0  0  0  0  0  0  0  0  0 
   11.4513   -5.6095   -0.0572 H   0  0  0  0  0  0  0  0  0  0  0  0 
    7.0412    2.9545   -0.7319 H   0  0  0  0  0  0  0  0  0  0  0  0 
    5.2916    2.7939   -0.6579 H   0  0  0  0  0  0  0  0  0  0  0  0 
   10.6686   -8.0026   -1.8407 H   0  0  0  0  0  0  0  0  0  0  0  0 
   12.0857   -6.9978   -2.0774 H   0  0  0  0  0  0  0  0  0  0  0  0 
    5.5188    0.2825   -0.7605 H   0  0  0  0  0  0  0  0  0  0  0  0 
    7.2746    0.4516   -0.8338 H   0  0  0  0  0  0  0  0  0  0  0  0 
    9.1795   -6.0107   -2.2795 H   0  0  0  0  0  0  0  0  0  0  0  0 
   10.1796   -6.4882   -3.6544 H   0  0  0  0  0  0  0  0  0  0  0  0 
    7.0829    1.6867   -2.9973 H   0  0  0  0  0  0  0  0  0  0  0  0 
    5.3063    1.5379   -2.9230 H   0  0  0  0  0  0  0  0  0  0  0  0 
   11.7988   -4.6489   -3.1161 H   0  0  0  0  0  0  0  0  0  0  0  0 
   10.7328   -4.1203   -1.7863 H   0  0  0  0  0  0  0  0  0  0  0  0 
  1 18  1  0  0  0  0 
  1 19  1  0  0  0  0 
  1 17  1  0  0  0  0 
  2 22  1  0  0  0  0 
  2 21  1  0  0  0  0 
  2 20  1  0  0  0  0 
  3  1  1  0  0  0  0 
  4  2  1  0  0  0  0 
  5 28  1  0  0  0  0 
  5 27  1  0  0  0  0 
  5  3  1  0  0  0  0 
  6 29  1  0  0  0  0 
  6  4  1  0  0  0  0 
  7  5  1  0  0  0  0 
  8  6  1  0  0  0  0 
  8 34  1  0  0  0  0 
  9 13  1  0  0  0  0 
  9 11  2  0  0  0  0 
 10 12  2  0  0  0  0 
 13  7  1  0  0  0  0 
 14 10  1  0  0  0  0 
 14  8  1  0  0  0  0 
 15  9  1  0  0  0  0 
 16 15  1  0  0  0  0 
 16 10  1  0  0  0  0 
 23  3  1  0  0  0  0 
 24  3  1  0  0  0  0 
 25  4  1  0  0  0  0 
 26  4  1  0  0  0  0 
 30  6  1  0  0  0  0 
 31  7  1  0  0  0  0 
 32  7  1  0  0  0  0 
 33  8  1  0  0  0  0 
M  END 
>  <HBA> 
6 
 
>  <HBD> 
0 
 
>  <TPSA> 
71.06 
 
>  <cid> 
61830 
 
>  <dipole> 
1.64 
 
>  <excitation_energy_1> 
6.482 
 
>  <excitation_energy_2> 
6.55 
 
>  <excitation_energy_3> 
6.81 
 
>  <excitation_energy_4> 
6.924 
 
>  <homo_energy> 
-8.117 
 
>  <homo_lumo_gap> 
7.81 
 
>  <logP> 
2.808 
 
>  <lumo_energy> 
-0.307 
 
>  <melting_point> 
3.12 
 
>  <molecular_refractivity> 
55.7 
 
>  <oscillator_strength_1> 
0.0005 
 
>  <oscillator_strength_2> 
0.0037 
 
>  <oscillator_strength_3> 
0.0004 
 
>  <oscillator_strength_4> 
0.001 
 
>  <open_babel_can_smiles> 
CCCCOC(=O)OOC(=O)OCCCC 
 
>  <mulliken_charges> 
34 
1   -0.441636 
2   -0.446529 
3   -0.261337 
4   -0.263449 
5   -0.276024 
6   -0.278987 
7   -0.052025 
8   -0.050441 
9   0.838603 
10   0.839128 
11   -0.462136 
12   -0.463578 
13   -0.458511 
14   -0.458308 
15   -0.262411 
16   -0.262081 
17   0.146633 
18   0.150016 
19   0.14667 
20   0.14833 
21   0.153745 
22   0.14712 
23   0.141539 
24   0.134871 
25   0.14506 
26   0.135141 
27   0.15179 
28   0.167626 
29   0.162006 
30   0.151014 
31   0.174749 
32   0.16178 
33   0.162204 
34   0.179426 
 
>  <lowdin_charges> 
34 
1   -0.44283 
2   -0.447854 
3   -0.272743 
4   -0.270224 
5   -0.288393 
6   -0.28723 
7   -0.122756 
8   -0.122307 
9   0.23529 
10   0.232946 
11   -0.25343 
12   -0.2541 
13   -0.165076 
14   -0.163181 
15   -0.059947 
16   -0.058059 
17   0.151879 
18   0.151038 
19   0.150176 
20   0.154646 
21   0.151813 
22   0.147189 
23   0.144977 
24   0.140863 
25   0.148908 
26   0.1399 
27   0.15234 
28   0.159424 
29   0.155193 
30   0.152231 
31   0.161917 
32   0.157928 
33   0.156721 
34   0.16275 
 
$$$$ 
 
