PCCDB-ID:  10971 
public computational chemistry database (PCCDB) project, http://pccdb.org 
 
 12 11  0  0  0  0  0  0  0  0999 V2000 
    1.0638   -0.0316   -0.0664 C   0  0  0  0  0  0  0  0  0  0  0  0 
   -0.1510   -0.0285   -0.0824 C   0  0  0  0  0  0  0  0  0  0  0  0 
    2.5089   -0.0623   -0.0316 C   0  0  0  0  0  0  0  0  0  0  0  0 
   -1.5961   -0.0387   -0.1281 C   0  0  0  0  0  0  0  0  0  0  0  0 
    3.2223   -0.9645    0.5104 N   0  0  0  0  0  0  0  0  0  0  0  0 
   -2.3098   -0.6058   -1.0144 N   0  0  0  0  0  0  0  0  0  0  0  0 
    3.1350    0.9813   -0.6384 O   0  0  0  0  0  0  0  0  0  0  0  0 
   -2.2219    0.6300    0.8772 O   0  0  0  0  0  0  0  0  0  0  0  0 
    2.6344   -1.6858    0.9287 H   0  0  0  0  0  0  0  0  0  0  0  0 
   -1.7224   -1.0677   -1.7091 H   0  0  0  0  0  0  0  0  0  0  0  0 
    2.4735    1.5823   -1.0159 H   0  0  0  0  0  0  0  0  0  0  0  0 
   -1.5605    0.9945    1.4863 H   0  0  0  0  0  0  0  0  0  0  0  0 
  1  3  1  0  0  0  0 
  2  1  3  0  0  0  0 
  3  5  2  0  0  0  0 
  4  2  1  0  0  0  0 
  4  8  1  0  0  0  0 
  5  9  1  0  0  0  0 
  6  4  2  0  0  0  0 
  7  3  1  0  0  0  0 
  8 12  1  0  0  0  0 
 10  6  1  0  0  0  0 
 11  7  1  0  0  0  0 
M  END 
>  <HBA> 
4 
 
>  <HBD> 
2 
 
>  <TPSA> 
86.18 
 
>  <cid> 
10971 
 
>  <dipole> 
1.29 
 
>  <excitation_energy_1> 
4.718 
 
>  <excitation_energy_2> 
4.81 
 
>  <excitation_energy_3> 
5.032 
 
>  <excitation_energy_4> 
5.419 
 
>  <homo_energy> 
-7.636 
 
>  <homo_lumo_gap> 
5.989 
 
>  <logP> 
-0.639 
 
>  <lumo_energy> 
-1.646 
 
>  <melting_point> 
143.39 
 
>  <molecular_refractivity> 
25.32 
 
>  <oscillator_strength_1> 
0.0001 
 
>  <oscillator_strength_2> 
0.0031 
 
>  <oscillator_strength_3> 
0.006 
 
>  <oscillator_strength_4> 
0.0018 
 
>  <open_babel_can_smiles> 
OC(=N)C#CC(=N)O 
 
>  <mulliken_charges> 
12 
1   0.009343 
2   0.011357 
3   0.381362 
4   0.380801 
5   -0.553926 
6   -0.553891 
7   -0.562941 
8   -0.562946 
9   0.306941 
10   0.306964 
11   0.418482 
12   0.418454 
 
>  <lowdin_charges> 
12 
1   -0.08444 
2   -0.084368 
3   0.139934 
4   0.139815 
5   -0.351998 
6   -0.352051 
7   -0.344633 
8   -0.344555 
9   0.274192 
10   0.274291 
11   0.366928 
12   0.366886 
 
$$$$ 
 
