PCCDB-ID:  22311 
public computational chemistry database (PCCDB) project, http://pccdb.org 
 
 26 26  0  0  1  0  0  0  0  0999 V2000 
    2.2327    0.9070   -0.8591 C   0  0  0  0  0  0  0  0  0  0  0  0 
    0.7054   -0.9306   -0.2196 C   0  0  0  0  0  0  0  0  0  0  0  0 
    1.8659   -4.8353    1.8375 C   0  0  0  0  0  0  0  0  0  0  0  0 
    2.1333   -2.4285    2.4351 C   0  0  0  0  0  0  0  0  0  0  0  0 
    3.1714   -3.2324    0.3189 C   0  0  0  0  0  0  0  0  0  0  0  0 
    2.6032   -1.0071    2.2477 C   0  0  0  0  0  0  0  0  0  0  0  0 
    3.9249   -1.8943    0.2854 C   0  0  0  0  0  0  0  0  0  0  0  0 
    2.0225   -0.1935   -0.1261 C   0  0  0  0  0  0  0  0  0  0  0  0 
    2.3761   -3.4391    1.5895 C   0  0  0  0  0  0  0  0  0  0  0  0 
    3.1136   -0.6877    0.8208 C   0  0  1  0  0  0  0  0  0  0  0  0 
    1.4828    1.2879   -1.5486 H   0  0  0  0  0  0  0  0  0  0  0  0 
    3.1636    1.4668   -0.8020 H   0  0  0  0  0  0  0  0  0  0  0  0 
   -0.0006   -0.3825   -0.8516 H   0  0  0  0  0  0  0  0  0  0  0  0 
    0.2469   -1.0657    0.7667 H   0  0  0  0  0  0  0  0  0  0  0  0 
    0.8232   -1.9348   -0.6437 H   0  0  0  0  0  0  0  0  0  0  0  0 
    1.2775   -4.8966    2.7589 H   0  0  0  0  0  0  0  0  0  0  0  0 
    2.6940   -5.5541    1.9132 H   0  0  0  0  0  0  0  0  0  0  0  0 
    1.2323   -5.1795    1.0075 H   0  0  0  0  0  0  0  0  0  0  0  0 
    1.5633   -2.6290    3.3432 H   0  0  0  0  0  0  0  0  0  0  0  0 
    3.8925   -4.0556    0.2053 H   0  0  0  0  0  0  0  0  0  0  0  0 
    2.5004   -3.3241   -0.5489 H   0  0  0  0  0  0  0  0  0  0  0  0 
    3.4129   -0.8038    2.9661 H   0  0  0  0  0  0  0  0  0  0  0  0 
    1.7985   -0.3106    2.5215 H   0  0  0  0  0  0  0  0  0  0  0  0 
    4.2746   -1.6819   -0.7316 H   0  0  0  0  0  0  0  0  0  0  0  0 
    4.8216   -1.9869    0.9135 H   0  0  0  0  0  0  0  0  0  0  0  0 
    3.8257    0.1420    0.9078 H   0  0  0  0  0  0  0  0  0  0  0  0 
  1 12  1  0  0  0  0 
  1  8  2  0  0  0  0 
  2  8  1  0  0  0  0 
  2 14  1  0  0  0  0 
  3 17  1  0  0  0  0 
  3 16  1  0  0  0  0 
  4 19  1  0  0  0  0 
  5  9  1  0  0  0  0 
  6  4  1  0  0  0  0 
  6 23  1  0  0  0  0 
  6 22  1  0  0  0  0 
  7  5  1  0  0  0  0 
  7 10  1  0  0  0  0 
  7 25  1  0  0  0  0 
  8 10  1  0  0  0  0 
  9  3  1  0  0  0  0 
  9  4  2  0  0  0  0 
 10 26  1  1  0  0  0 
 10  6  1  0  0  0  0 
 11  1  1  0  0  0  0 
 13  2  1  0  0  0  0 
 15  2  1  0  0  0  0 
 18  3  1  0  0  0  0 
 20  5  1  0  0  0  0 
 21  5  1  0  0  0  0 
 24  7  1  0  0  0  0 
M  END 
>  <HBA> 
0 
 
>  <HBD> 
0 
 
>  <TPSA> 
0.0 
 
>  <cid> 
22311 
 
>  <dipole> 
0.59 
 
>  <excitation_energy_1> 
5.526 
 
>  <excitation_energy_2> 
5.822 
 
>  <excitation_energy_3> 
5.911 
 
>  <excitation_energy_4> 
6.043 
 
>  <homo_energy> 
-6.117 
 
>  <homo_lumo_gap> 
6.795 
 
>  <logP> 
3.309 
 
>  <lumo_energy> 
0.678 
 
>  <melting_point> 
-10.61 
 
>  <molecular_refractivity> 
47.12 
 
>  <oscillator_strength_1> 
0.016 
 
>  <oscillator_strength_2> 
0.0501 
 
>  <oscillator_strength_3> 
0.0169 
 
>  <oscillator_strength_4> 
0.0209 
 
>  <open_babel_can_smiles> 
CC1=CC[C@@H](CC1)C(=C)C 
 
>  <mulliken_charges> 
26 
1   -0.407926 
2   -0.516006 
3   -0.513467 
4   -0.172505 
5   -0.332846 
6   -0.312349 
7   -0.264705 
8   0.2382 
9   0.191327 
10   -0.159748 
11   0.128647 
12   0.12916 
13   0.146653 
14   0.159459 
15   0.156878 
16   0.150755 
17   0.149543 
18   0.149167 
19   0.110312 
20   0.137593 
21   0.145994 
22   0.145016 
23   0.144426 
24   0.136438 
25   0.13538 
26   0.124603 
 
>  <lowdin_charges> 
26 
1   -0.369968 
2   -0.443269 
3   -0.440671 
4   -0.196803 
5   -0.280974 
6   -0.279665 
7   -0.272605 
8   0.009713 
9   -0.018025 
10   -0.125738 
11   0.152532 
12   0.15076 
13   0.154882 
14   0.159394 
15   0.155783 
16   0.154606 
17   0.153322 
18   0.153561 
19   0.146564 
20   0.148722 
21   0.146656 
22   0.152114 
23   0.151217 
24   0.146474 
25   0.144081 
26   0.147339 
 
$$$$ 
 
