PCCDB-ID:  27951 
public computational chemistry database (PCCDB) project, http://pccdb.org 
 
 28 29  0  0  1  0  0  0  0  0999 V2000 
    0.7106    0.0038    0.1948 C   0  0  0  0  0  0  0  0  0  0  0  0 
    2.9362    2.1828   -2.3856 C   0  0  0  0  0  0  0  0  0  0  0  0 
    2.5356    3.0289   -3.4349 C   0  0  0  0  0  0  0  0  0  0  0  0 
    2.8856    1.3593    0.0028 C   0  0  0  0  0  0  0  0  0  0  0  0 
    1.4895    3.3248   -0.8040 C   0  0  0  0  0  0  0  0  0  0  0  0 
    0.1851    5.7385   -3.1328 C   0  0  0  0  0  0  0  0  0  0  0  0 
    2.2241   -0.0360   -0.0516 C   0  0  1  0  0  0  0  0  0  0  0  0 
    2.4306    2.3101   -1.0860 C   0  0  0  0  0  0  0  0  0  0  0  0 
    1.6132    4.0091   -3.1277 C   0  0  0  0  0  0  0  0  0  0  0  0 
    1.1042    4.1507   -1.8411 C   0  0  0  0  0  0  0  0  0  0  0  0 
    2.4343   -2.2811    0.8031 N   0  0  0  0  0  0  0  0  0  0  0  0 
    2.9714   -0.9013    0.8857 N   0  0  0  0  0  0  0  0  0  0  0  0 
    1.0625    4.9609   -3.9553 O   0  0  0  0  0  0  0  0  0  0  0  0 
    0.2126    5.1978   -1.8064 O   0  0  0  0  0  0  0  0  0  0  0  0 
    0.1937    0.5708   -0.5863 H   0  0  0  0  0  0  0  0  0  0  0  0 
    0.4915    0.4839    1.1590 H   0  0  0  0  0  0  0  0  0  0  0  0 
    0.3075   -1.0118    0.2246 H   0  0  0  0  0  0  0  0  0  0  0  0 
    3.6704    1.4081   -2.5919 H   0  0  0  0  0  0  0  0  0  0  0  0 
    2.9372    2.9256   -4.4372 H   0  0  0  0  0  0  0  0  0  0  0  0 
    3.9695    1.2086   -0.0576 H   0  0  0  0  0  0  0  0  0  0  0  0 
    2.6845    1.8050    0.9871 H   0  0  0  0  0  0  0  0  0  0  0  0 
    1.0823    3.4555    0.1934 H   0  0  0  0  0  0  0  0  0  0  0  0 
   -0.8355    5.6790   -3.5295 H   0  0  0  0  0  0  0  0  0  0  0  0 
    0.5321    6.7792   -3.1100 H   0  0  0  0  0  0  0  0  0  0  0  0 
    2.4071   -0.4502   -1.0546 H   0  0  0  0  0  0  0  0  0  0  0  0 
    3.0342   -2.8048    1.4460 H   0  0  0  0  0  0  0  0  0  0  0  0 
    2.7557   -2.6028   -0.1148 H   0  0  0  0  0  0  0  0  0  0  0  0 
    2.6921   -0.6035    1.8249 H   0  0  0  0  0  0  0  0  0  0  0  0 
  1 17  1  0  0  0  0 
  1 16  1  0  0  0  0 
  2  8  2  0  0  0  0 
  3  9  2  0  0  0  0 
  3  2  1  0  0  0  0 
  4 21  1  0  0  0  0 
  5 22  1  0  0  0  0 
  6 24  1  0  0  0  0 
  6 14  1  0  0  0  0 
  7 25  1  6  0  0  0 
  7  4  1  0  0  0  0 
  7  1  1  0  0  0  0 
  7 12  1  0  0  0  0 
  8  5  1  0  0  0  0 
  8  4  1  0  0  0  0 
  9 10  1  0  0  0  0 
 10 14  1  0  0  0  0 
 10  5  2  0  0  0  0 
 11 12  1  0  0  0  0 
 11 26  1  0  0  0  0 
 12 28  1  0  0  0  0 
 13  6  1  0  0  0  0 
 13  9  1  0  0  0  0 
 15  1  1  0  0  0  0 
 18  2  1  0  0  0  0 
 19  3  1  0  0  0  0 
 20  4  1  0  0  0  0 
 23  6  1  0  0  0  0 
 27 11  1  0  0  0  0 
M  END 
>  <HBA> 
4 
 
>  <HBD> 
2 
 
>  <TPSA> 
56.51 
 
>  <cid> 
27951 
 
>  <dipole> 
0.24 
 
>  <excitation_energy_1> 
4.704 
 
>  <excitation_energy_2> 
4.721 
 
>  <excitation_energy_3> 
4.782 
 
>  <excitation_energy_4> 
5.007 
 
>  <homo_energy> 
-5.268 
 
>  <homo_lumo_gap> 
5.382 
 
>  <logP> 
1.901 
 
>  <lumo_energy> 
0.114 
 
>  <melting_point> 
122.71 
 
>  <molecular_refractivity> 
52.59 
 
>  <oscillator_strength_1> 
0.0011 
 
>  <oscillator_strength_2> 
0.0686 
 
>  <oscillator_strength_3> 
0.0098 
 
>  <oscillator_strength_4> 
0.0016 
 
>  <open_babel_can_smiles> 
NN[C@H](Cc1ccc2c(c1)OCO2)C 
 
>  <mulliken_charges> 
28 
1   -0.452485 
2   -0.200964 
3   -0.181694 
4   -0.353139 
5   -0.241338 
6   0.195986 
7   0.03913 
8   0.164152 
9   0.327991 
10   0.335533 
11   -0.592781 
12   -0.467669 
13   -0.533972 
14   -0.5353 
15   0.150709 
16   0.124507 
17   0.174732 
18   0.126051 
19   0.142613 
20   0.158306 
21   0.131357 
22   0.138166 
23   0.158654 
24   0.15731 
25   0.126905 
26   0.304753 
27   0.303851 
28   0.298637 
 
>  <lowdin_charges> 
28 
1   -0.466015 
2   -0.176184 
3   -0.181655 
4   -0.274197 
5   -0.194544 
6   0.021793 
7   -0.067184 
8   -0.005189 
9   0.066521 
10   0.072999 
11   -0.496784 
12   -0.319887 
13   -0.207774 
14   -0.209215 
15   0.157091 
16   0.139818 
17   0.164611 
18   0.157981 
19   0.168403 
20   0.157682 
21   0.143407 
22   0.166478 
23   0.146409 
24   0.144447 
25   0.13475 
26   0.256549 
27   0.251945 
28   0.247744 
 
$$$$ 
 
