PCCDB-ID:  28311 
public computational chemistry database (PCCDB) project, http://pccdb.org 
 
  9  8  0  0  0  0  0  0  0  0999 V2000 
    0.9936   -0.0367    0.0746 C   0  0  0  0  0  0  0  0  0  0  0  0 
    3.2610    1.1748   -1.0141 C   0  0  0  0  0  0  0  0  0  0  0  0 
    0.4036   -1.1448    0.7222 N   0  0  0  0  0  0  0  0  0  0  0  0 
    3.5108    2.1849   -1.5436 N   0  0  0  0  0  0  0  0  0  0  0  0 
    2.8910   -0.2913   -0.2448 S   0  0  0  0  0  0  0  0  0  0  0  0 
    0.9173    0.8644    0.6829 H   0  0  0  0  0  0  0  0  0  0  0  0 
    0.5510    0.1303   -0.9073 H   0  0  0  0  0  0  0  0  0  0  0  0 
    0.7657   -1.3184    1.6544 H   0  0  0  0  0  0  0  0  0  0  0  0 
    0.4253   -2.0006    0.1769 H   0  0  0  0  0  0  0  0  0  0  0  0 
  1  6  1  0  0  0  0 
  1  3  1  0  0  0  0 
  2  5  1  0  0  0  0 
  3  8  1  0  0  0  0 
  4  2  3  0  0  0  0 
  5  1  1  0  0  0  0 
  7  1  1  0  0  0  0 
  9  3  1  0  0  0  0 
M  END 
>  <HBA> 
3 
 
>  <HBD> 
1 
 
>  <TPSA> 
75.11 
 
>  <cid> 
28311 
 
>  <dipole> 
4.78 
 
>  <excitation_energy_1> 
4.725 
 
>  <excitation_energy_2> 
5.648 
 
>  <excitation_energy_3> 
5.83 
 
>  <excitation_energy_4> 
6.349 
 
>  <homo_energy> 
-7.061 
 
>  <homo_lumo_gap> 
6.212 
 
>  <logP> 
0.817 
 
>  <lumo_energy> 
-0.849 
 
>  <melting_point> 
73.21 
 
>  <molecular_refractivity> 
21.78 
 
>  <oscillator_strength_1> 
0.0003 
 
>  <oscillator_strength_2> 
0.0837 
 
>  <oscillator_strength_3> 
0.0037 
 
>  <oscillator_strength_4> 
0.1502 
 
>  <open_babel_can_smiles> 
NCSC#N 
 
>  <mulliken_charges> 
9 
1   -0.263688 
2   0.112513 
3   -0.684366 
4   -0.385905 
5   0.134367 
6   0.211769 
7   0.211807 
8   0.331733 
9   0.331772 
 
>  <lowdin_charges> 
9 
1   -0.263522 
2   -0.173994 
3   -0.502634 
4   -0.128173 
5   0.155506 
6   0.178984 
7   0.178476 
8   0.277352 
9   0.278004 
 
$$$$ 
 
