PCCDB-ID:  9208 
public computational chemistry database (PCCDB) project, http://pccdb.org 
 
 16 17  0  0  0  0  0  0  0  0999 V2000 
    2.4125    0.7160    0.0315 C   0  0  0  0  0  0  0  0  0  0  0  0 
    2.3929   -0.7045   -0.0139 C   0  0  0  0  0  0  0  0  0  0  0  0 
    1.2415    1.4376    0.0303 C   0  0  0  0  0  0  0  0  0  0  0  0 
    1.1996   -1.3848   -0.0598 C   0  0  0  0  0  0  0  0  0  0  0  0 
   -1.2693    1.3885   -0.0236 C   0  0  0  0  0  0  0  0  0  0  0  0 
   -2.3845    0.5838   -0.0723 C   0  0  0  0  0  0  0  0  0  0  0  0 
   -0.0069    0.7614   -0.0169 C   0  0  0  0  0  0  0  0  0  0  0  0 
   -0.0258   -0.6653   -0.0627 C   0  0  0  0  0  0  0  0  0  0  0  0 
   -2.3385   -0.7784   -0.1140 N   0  0  0  0  0  0  0  0  0  0  0  0 
   -1.1853   -1.3898   -0.1092 N   0  0  0  0  0  0  0  0  0  0  0  0 
    3.3673    1.2333    0.0680 H   0  0  0  0  0  0  0  0  0  0  0  0 
    3.3325   -1.2495   -0.0116 H   0  0  0  0  0  0  0  0  0  0  0  0 
    1.2549    2.5241    0.0658 H   0  0  0  0  0  0  0  0  0  0  0  0 
    1.1496   -2.4684   -0.0945 H   0  0  0  0  0  0  0  0  0  0  0  0 
   -1.3564    2.4717    0.0098 H   0  0  0  0  0  0  0  0  0  0  0  0 
   -3.3887    0.9977   -0.0805 H   0  0  0  0  0  0  0  0  0  0  0  0 
  1 11  1  0  0  0  0 
  2 12  1  0  0  0  0 
  2  1  2  0  0  0  0 
  3  1  1  0  0  0  0 
  3 13  1  0  0  0  0 
  4  2  1  0  0  0  0 
  5  7  1  0  0  0  0 
  5 15  1  0  0  0  0 
  6  5  2  0  0  0  0 
  7  3  2  0  0  0  0 
  8  4  2  0  0  0  0 
  8  7  1  0  0  0  0 
  9 10  2  0  0  0  0 
  9  6  1  0  0  0  0 
 10  8  1  0  0  0  0 
 14  4  1  0  0  0  0 
 16  6  1  0  0  0  0 
M  END 
>  <HBA> 
2 
 
>  <HBD> 
0 
 
>  <TPSA> 
25.78 
 
>  <cid> 
9208 
 
>  <dipole> 
4.23 
 
>  <excitation_energy_1> 
3.006 
 
>  <excitation_energy_2> 
4.139 
 
>  <excitation_energy_3> 
4.171 
 
>  <excitation_energy_4> 
4.594 
 
>  <homo_energy> 
-6.182 
 
>  <homo_lumo_gap> 
4.207 
 
>  <logP> 
1.63 
 
>  <lumo_energy> 
-1.976 
 
>  <melting_point> 
78.66 
 
>  <molecular_refractivity> 
39.54 
 
>  <oscillator_strength_1> 
0.0024 
 
>  <oscillator_strength_2> 
0.0003 
 
>  <oscillator_strength_3> 
0.0487 
 
>  <oscillator_strength_4> 
0.0079 
 
>  <open_babel_can_smiles> 
c1ccc2c(c1)nncc2 
 
>  <mulliken_charges> 
16 
1   -0.126508 
2   -0.138739 
3   -0.191122 
4   -0.12752 
5   -0.169114 
6   0.024602 
7   0.178936 
8   0.235811 
9   -0.238597 
10   -0.338798 
11   0.14341 
12   0.14401 
13   0.141331 
14   0.157844 
15   0.149488 
16   0.154964 
 
>  <lowdin_charges> 
16 
1   -0.1401 
2   -0.150748 
3   -0.155241 
4   -0.134784 
5   -0.14095 
6   -0.119642 
7   -0.000402 
8   0.021064 
9   -0.089622 
10   -0.089266 
11   0.164857 
12   0.165631 
13   0.160969 
14   0.174326 
15   0.166967 
16   0.166942 
 
$$$$ 
 
