PCCDB-ID:  59847 
public computational chemistry database (PCCDB) project, http://pccdb.org 
 
 24 25  0  0  0  0  0  0  0  0999 V2000 
    2.6429    2.5903   -2.9809 C   0  0  0  0  0  0  0  0  0  0  0  0 
    9.2395    2.1926   -3.2104 C   0  0  0  0  0  0  0  0  0  0  0  0 
   10.1134    1.1121   -3.4089 C   0  0  0  0  0  0  0  0  0  0  0  0 
    7.8639    2.0346   -3.3435 C   0  0  0  0  0  0  0  0  0  0  0  0 
    9.6262   -0.1505   -3.7440 C   0  0  0  0  0  0  0  0  0  0  0  0 
    7.3531    0.7745   -3.6785 C   0  0  0  0  0  0  0  0  0  0  0  0 
    8.2469   -0.3067   -3.8719 C   0  0  0  0  0  0  0  0  0  0  0  0 
    3.3671   -0.8555   -4.1148 C   0  0  0  0  0  0  0  0  0  0  0  0 
    3.2810    0.3444   -3.1665 C   0  0  0  0  0  0  0  0  0  0  0  0 
    5.8527   -0.7638   -4.1636 C   0  0  0  0  0  0  0  0  0  0  0  0 
    6.0095    0.4821   -3.8673 N   0  0  0  0  0  0  0  0  0  0  0  0 
    4.6272   -1.3670   -4.3920 N   0  0  0  0  0  0  0  0  0  0  0  0 
    2.3612   -1.4067   -4.5162 O   0  0  0  0  0  0  0  0  0  0  0  0 
    3.4771    0.2433   -1.9787 O   0  0  0  0  0  0  0  0  0  0  0  0 
    2.8391    1.4275   -3.8089 O   0  0  0  0  0  0  0  0  0  0  0  0 
    7.3292   -1.7567   -4.2692 S   0  0  0  0  0  0  0  0  0  0  0  0 
    1.9167    2.3779   -2.1926 H   0  0  0  0  0  0  0  0  0  0  0  0 
    2.2705    3.3634   -3.6524 H   0  0  0  0  0  0  0  0  0  0  0  0 
    3.5916    2.8919   -2.5299 H   0  0  0  0  0  0  0  0  0  0  0  0 
    9.6438    3.1663   -2.9496 H   0  0  0  0  0  0  0  0  0  0  0  0 
   11.1841    1.2578   -3.2996 H   0  0  0  0  0  0  0  0  0  0  0  0 
    7.1790    2.8632   -3.1950 H   0  0  0  0  0  0  0  0  0  0  0  0 
   10.3035   -0.9852   -3.8955 H   0  0  0  0  0  0  0  0  0  0  0  0 
    4.6026   -2.2491   -4.8919 H   0  0  0  0  0  0  0  0  0  0  0  0 
  1 19  1  0  0  0  0 
  1 17  1  0  0  0  0 
  2 20  1  0  0  0  0 
  3 21  1  0  0  0  0 
  3  2  2  0  0  0  0 
  4  2  1  0  0  0  0 
  4 22  1  0  0  0  0 
  5  3  1  0  0  0  0 
  6  4  2  0  0  0  0 
  7  5  2  0  0  0  0 
  7  6  1  0  0  0  0 
  8  9  1  0  0  0  0 
  9 14  2  0  0  0  0 
 10 11  2  0  0  0  0 
 11  6  1  0  0  0  0 
 12 10  1  0  0  0  0 
 12  8  1  0  0  0  0 
 13  8  2  0  0  0  0 
 15  9  1  0  0  0  0 
 15  1  1  0  0  0  0 
 16 10  1  0  0  0  0 
 16  7  1  0  0  0  0 
 18  1  1  0  0  0  0 
 23  5  1  0  0  0  0 
 24 12  1  0  0  0  0 
M  END 
>  <HBA> 
6 
 
>  <HBD> 
1 
 
>  <TPSA> 
96.53 
 
>  <cid> 
59847 
 
>  <dipole> 
3.53 
 
>  <excitation_energy_1> 
4.42 
 
>  <excitation_energy_2> 
4.528 
 
>  <excitation_energy_3> 
4.573 
 
>  <excitation_energy_4> 
4.784 
 
>  <homo_energy> 
-6.378 
 
>  <homo_lumo_gap> 
4.988 
 
>  <logP> 
1.481 
 
>  <lumo_energy> 
-1.391 
 
>  <melting_point> 
130.45 
 
>  <molecular_refractivity> 
60.02 
 
>  <oscillator_strength_1> 
0.3074 
 
>  <oscillator_strength_2> 
0.0211 
 
>  <oscillator_strength_3> 
0.0015 
 
>  <oscillator_strength_4> 
0.0406 
 
>  <open_babel_can_smiles> 
COC(=O)C(=O)Nc1nc2c(s1)cccc2 
 
>  <mulliken_charges> 
24 
1   -0.226012 
2   -0.146459 
3   -0.118824 
4   -0.145551 
5   -0.183998 
6   0.305356 
7   -0.124288 
8   0.553466 
9   0.588337 
10   0.34156 
11   -0.517789 
12   -0.663152 
13   -0.450453 
14   -0.456437 
15   -0.427545 
16   0.215313 
17   0.179078 
18   0.172951 
19   0.177872 
20   0.138173 
21   0.137875 
22   0.144662 
23   0.14796 
24   0.357905 
 
>  <lowdin_charges> 
24 
1   -0.277429 
2   -0.153958 
3   -0.154084 
4   -0.157493 
5   -0.160129 
6   0.029122 
7   -0.144796 
8   0.173347 
9   0.175599 
10   -0.018434 
11   -0.175315 
12   -0.222318 
13   -0.238407 
14   -0.234936 
15   -0.15947 
16   0.252351 
17   0.165219 
18   0.166902 
19   0.164111 
20   0.162713 
21   0.161511 
22   0.170968 
23   0.168762 
24   0.306163 
 
$$$$ 
 
