PCCDB-ID:  7670 
public computational chemistry database (PCCDB) project, http://pccdb.org 
 
 20 20  0  0  0  0  0  0  0  0999 V2000 
    1.8258   -0.2924    0.4623 C   0  0  0  0  0  0  0  0  0  0  0  0 
    3.3192   -0.2527    0.1482 C   0  0  0  0  0  0  0  0  0  0  0  0 
    7.7695    2.1663   -0.8503 C   0  0  0  0  0  0  0  0  0  0  0  0 
    7.4502    0.8473   -0.5318 C   0  0  0  0  0  0  0  0  0  0  0  0 
    6.7489    3.1225   -0.8570 C   0  0  0  0  0  0  0  0  0  0  0  0 
    6.1401    0.4756   -0.2254 C   0  0  0  0  0  0  0  0  0  0  0  0 
    5.4411    2.7673   -0.5483 C   0  0  0  0  0  0  0  0  0  0  0  0 
    5.1114    1.4356   -0.2234 C   0  0  0  0  0  0  0  0  0  0  0  0 
    3.7974    1.1215    0.1204 N   0  0  0  0  0  0  0  0  0  0  0  0 
    1.4729   -1.3271    0.5174 H   0  0  0  0  0  0  0  0  0  0  0  0 
    1.2427    0.2161   -0.3161 H   0  0  0  0  0  0  0  0  0  0  0  0 
    1.6168    0.1956    1.4203 H   0  0  0  0  0  0  0  0  0  0  0  0 
    3.5182   -0.7760   -0.8039 H   0  0  0  0  0  0  0  0  0  0  0  0 
    3.8671   -0.7989    0.9264 H   0  0  0  0  0  0  0  0  0  0  0  0 
    8.7908    2.4463   -1.0910 H   0  0  0  0  0  0  0  0  0  0  0  0 
    8.2273    0.0866   -0.5259 H   0  0  0  0  0  0  0  0  0  0  0  0 
    6.9729    4.1571   -1.1053 H   0  0  0  0  0  0  0  0  0  0  0  0 
    5.9214   -0.5604    0.0108 H   0  0  0  0  0  0  0  0  0  0  0  0 
    4.6567    3.5221   -0.5506 H   0  0  0  0  0  0  0  0  0  0  0  0 
    3.1179    1.7776   -0.2454 H   0  0  0  0  0  0  0  0  0  0  0  0 
  1 10  1  0  0  0  0 
  1 12  1  0  0  0  0 
  2  1  1  0  0  0  0 
  2 14  1  0  0  0  0 
  3  4  1  0  0  0  0 
  4 16  1  0  0  0  0 
  4  6  2  0  0  0  0 
  5  3  2  0  0  0  0 
  5  7  1  0  0  0  0 
  6  8  1  0  0  0  0 
  6 18  1  0  0  0  0 
  7  8  2  0  0  0  0 
  8  9  1  0  0  0  0 
  9  2  1  0  0  0  0 
 11  1  1  0  0  0  0 
 13  2  1  0  0  0  0 
 15  3  1  0  0  0  0 
 17  5  1  0  0  0  0 
 19  7  1  0  0  0  0 
 20  9  1  0  0  0  0 
M  END 
>  <HBA> 
1 
 
>  <HBD> 
1 
 
>  <TPSA> 
12.03 
 
>  <cid> 
7670 
 
>  <dipole> 
1.85 
 
>  <excitation_energy_1> 
4.568 
 
>  <excitation_energy_2> 
4.801 
 
>  <excitation_energy_3> 
5.078 
 
>  <excitation_energy_4> 
5.195 
 
>  <homo_energy> 
-5.165 
 
>  <homo_lumo_gap> 
5.486 
 
>  <logP> 
2.191 
 
>  <lumo_energy> 
0.321 
 
>  <melting_point> 
37.2 
 
>  <molecular_refractivity> 
40.55 
 
>  <oscillator_strength_1> 
0.0353 
 
>  <oscillator_strength_2> 
0.0111 
 
>  <oscillator_strength_3> 
0.019 
 
>  <oscillator_strength_4> 
0.0401 
 
>  <open_babel_can_smiles> 
CCNc1ccccc1 
 
>  <mulliken_charges> 
20 
1   -0.470037 
2   -0.100863 
3   -0.138608 
4   -0.138283 
5   -0.133678 
6   -0.18385 
7   -0.189872 
8   0.355811 
9   -0.655656 
10   0.155348 
11   0.145006 
12   0.162495 
13   0.134782 
14   0.152615 
15   0.118194 
16   0.122215 
17   0.122498 
18   0.121306 
19   0.111732 
20   0.308845 
 
>  <lowdin_charges> 
20 
1   -0.448928 
2   -0.192379 
3   -0.189331 
4   -0.147677 
5   -0.14643 
6   -0.209752 
7   -0.20251 
8   0.060793 
9   -0.304848 
10   0.15815 
11   0.149043 
12   0.157175 
13   0.130159 
14   0.148081 
15   0.152684 
16   0.155137 
17   0.153441 
18   0.155191 
19   0.150485 
20   0.271516 
 
$$$$ 
 
