PCCDB-ID:  34273 
public computational chemistry database (PCCDB) project, http://pccdb.org 
 
 26 25  0  0  0  0  0  0  0  0999 V2000 
    0.2151    3.5151   -1.0228 C   0  0  0  0  0  0  0  0  0  0  0  0 
    5.9309    3.6158    3.6484 C   0  0  0  0  0  0  0  0  0  0  0  0 
    1.6854    3.1753   -0.7566 C   0  0  0  0  0  0  0  0  0  0  0  0 
    1.8555    1.9181    0.1082 C   0  0  0  0  0  0  0  0  0  0  0  0 
    3.3123    1.4539    0.2926 C   0  0  0  0  0  0  0  0  0  0  0  0 
    4.2741    2.4928    0.8945 C   0  0  0  0  0  0  0  0  0  0  0  0 
    3.8712    2.9567    2.3031 C   0  0  0  0  0  0  0  0  0  0  0  0 
    4.6188    5.2714    2.5766 N   0  0  0  0  0  0  0  0  0  0  0  0 
    4.7781    3.9689    2.8436 N   0  0  0  0  0  0  0  0  0  0  0  0 
    3.6631    5.5425    1.8500 O   0  0  0  0  0  0  0  0  0  0  0  0 
    0.1195    4.4159   -1.6394 H   0  0  0  0  0  0  0  0  0  0  0  0 
   -0.3251    3.6971   -0.0854 H   0  0  0  0  0  0  0  0  0  0  0  0 
   -0.2952    2.6961   -1.5451 H   0  0  0  0  0  0  0  0  0  0  0  0 
    6.6180    2.9675    3.0910 H   0  0  0  0  0  0  0  0  0  0  0  0 
    5.6235    3.0968    4.5644 H   0  0  0  0  0  0  0  0  0  0  0  0 
    6.4444    4.5429    3.9106 H   0  0  0  0  0  0  0  0  0  0  0  0 
    2.1697    4.0310   -0.2693 H   0  0  0  0  0  0  0  0  0  0  0  0 
    2.2060    3.0279   -1.7143 H   0  0  0  0  0  0  0  0  0  0  0  0 
    1.2917    1.0914   -0.3471 H   0  0  0  0  0  0  0  0  0  0  0  0 
    1.3869    2.0896    1.0881 H   0  0  0  0  0  0  0  0  0  0  0  0 
    3.7129    1.1495   -0.6842 H   0  0  0  0  0  0  0  0  0  0  0  0 
    3.3208    0.5491    0.9178 H   0  0  0  0  0  0  0  0  0  0  0  0 
    4.3340    3.3748    0.2486 H   0  0  0  0  0  0  0  0  0  0  0  0 
    5.2840    2.0630    0.9342 H   0  0  0  0  0  0  0  0  0  0  0  0 
    3.8606    2.1158    3.0060 H   0  0  0  0  0  0  0  0  0  0  0  0 
    2.8779    3.4115    2.2871 H   0  0  0  0  0  0  0  0  0  0  0  0 
  1  3  1  0  0  0  0 
  1 12  1  0  0  0  0 
  2 16  1  0  0  0  0 
  2 15  1  0  0  0  0 
  3 17  1  0  0  0  0 
  3  4  1  0  0  0  0 
  4  5  1  0  0  0  0 
  4 20  1  0  0  0  0 
  5  6  1  0  0  0  0 
  5 22  1  0  0  0  0 
  6 24  1  0  0  0  0 
  6  7  1  0  0  0  0 
  7  9  1  0  0  0  0 
  7 25  1  0  0  0  0 
  8  9  1  0  0  0  0 
  9  2  1  0  0  0  0 
 10  8  2  0  0  0  0 
 11  1  1  0  0  0  0 
 13  1  1  0  0  0  0 
 14  2  1  0  0  0  0 
 18  3  1  0  0  0  0 
 19  4  1  0  0  0  0 
 21  5  1  0  0  0  0 
 23  6  1  0  0  0  0 
 26  7  1  0  0  0  0 
M  END 
>  <HBA> 
3 
 
>  <HBD> 
0 
 
>  <TPSA> 
32.67 
 
>  <cid> 
34273 
 
>  <dipole> 
3.84 
 
>  <excitation_energy_1> 
3.413 
 
>  <excitation_energy_2> 
5.56 
 
>  <excitation_energy_3> 
5.798 
 
>  <excitation_energy_4> 
6.048 
 
>  <homo_energy> 
-6.0 
 
>  <homo_lumo_gap> 
5.268 
 
>  <logP> 
2.18 
 
>  <lumo_energy> 
-0.732 
 
>  <melting_point> 
-5.54 
 
>  <molecular_refractivity> 
43.4 
 
>  <oscillator_strength_1> 
0.0013 
 
>  <oscillator_strength_2> 
0.008 
 
>  <oscillator_strength_3> 
0.1346 
 
>  <oscillator_strength_4> 
0.0011 
 
>  <open_babel_can_smiles> 
CCCCCCN(N=O)C 
 
>  <mulliken_charges> 
26 
1   -0.441456 
2   -0.311799 
3   -0.261635 
4   -0.253321 
5   -0.263291 
6   -0.264247 
7   -0.151544 
8   0.146233 
9   -0.204166 
10   -0.388135 
11   0.144832 
12   0.142441 
13   0.137532 
14   0.166543 
15   0.164645 
16   0.191673 
17   0.163288 
18   0.126834 
19   0.129181 
20   0.129893 
21   0.135979 
22   0.126304 
23   0.1693 
24   0.130899 
25   0.146559 
26   0.187458 
 
>  <lowdin_charges> 
26 
1   -0.444474 
2   -0.356853 
3   -0.28033 
4   -0.27956 
5   -0.276528 
6   -0.283687 
7   -0.219137 
8   0.049965 
9   -0.037115 
10   -0.282712 
11   0.151224 
12   0.147089 
13   0.144911 
14   0.15707 
15   0.155852 
16   0.177316 
17   0.153405 
18   0.137244 
19   0.142664 
20   0.136649 
21   0.145277 
22   0.139417 
23   0.158806 
24   0.141537 
25   0.151978 
26   0.169992 
 
$$$$ 
 
