PCCDB-ID:  15118 
public computational chemistry database (PCCDB) project, http://pccdb.org 
 
 20 21  0  0  0  0  0  0  0  0999 V2000 
   -2.4620   -0.5071   -0.2600 C   0  0  0  0  0  0  0  0  0  0  0  0 
   -1.8636    0.8687    0.1306 C   0  0  0  0  0  0  0  0  0  0  0  0 
   -1.3880   -1.5461    0.1517 C   0  0  0  0  0  0  0  0  0  0  0  0 
    0.6800    1.5324    0.0050 C   0  0  0  0  0  0  0  0  0  0  0  0 
    1.9980    1.0679   -0.0397 C   0  0  0  0  0  0  0  0  0  0  0  0 
    1.2081   -1.2310    0.0308 C   0  0  0  0  0  0  0  0  0  0  0  0 
   -0.3704    0.6210    0.0594 C   0  0  0  0  0  0  0  0  0  0  0  0 
   -0.0978   -0.7560    0.0712 C   0  0  0  0  0  0  0  0  0  0  0  0 
    2.2597   -0.3076   -0.0272 C   0  0  0  0  0  0  0  0  0  0  0  0 
    3.5336   -0.8126   -0.0745 O   0  0  0  0  0  0  0  0  0  0  0  0 
   -2.5996   -0.5441   -1.3473 H   0  0  0  0  0  0  0  0  0  0  0  0 
   -3.4366   -0.6960    0.2011 H   0  0  0  0  0  0  0  0  0  0  0  0 
   -2.1628    1.1475    1.1524 H   0  0  0  0  0  0  0  0  0  0  0  0 
   -2.2030    1.6774   -0.5273 H   0  0  0  0  0  0  0  0  0  0  0  0 
   -1.3916   -2.4373   -0.4863 H   0  0  0  0  0  0  0  0  0  0  0  0 
   -1.5554   -1.8948    1.1818 H   0  0  0  0  0  0  0  0  0  0  0  0 
    0.4891    2.6031   -0.0091 H   0  0  0  0  0  0  0  0  0  0  0  0 
    2.8247    1.7746   -0.0940 H   0  0  0  0  0  0  0  0  0  0  0  0 
    1.4385   -2.2925    0.0344 H   0  0  0  0  0  0  0  0  0  0  0  0 
    4.1603   -0.0740   -0.1169 H   0  0  0  0  0  0  0  0  0  0  0  0 
  1  2  1  0  0  0  0 
  1  3  1  0  0  0  0 
  1 12  1  0  0  0  0 
  2 13  1  0  0  0  0 
  3 16  1  0  0  0  0 
  4  7  2  0  0  0  0 
  5  9  2  0  0  0  0 
  5  4  1  0  0  0  0 
  6 19  1  0  0  0  0 
  6  8  2  0  0  0  0 
  7  8  1  0  0  0  0 
  7  2  1  0  0  0  0 
  8  3  1  0  0  0  0 
  9  6  1  0  0  0  0 
 10  9  1  0  0  0  0 
 11  1  1  0  0  0  0 
 14  2  1  0  0  0  0 
 15  3  1  0  0  0  0 
 17  4  1  0  0  0  0 
 18  5  1  0  0  0  0 
 20 10  1  0  0  0  0 
M  END 
>  <HBA> 
1 
 
>  <HBD> 
1 
 
>  <TPSA> 
20.23 
 
>  <cid> 
15118 
 
>  <dipole> 
1.16 
 
>  <excitation_energy_1> 
4.813 
 
>  <excitation_energy_2> 
5.0 
 
>  <excitation_energy_3> 
5.594 
 
>  <excitation_energy_4> 
5.618 
 
>  <homo_energy> 
-5.636 
 
>  <homo_lumo_gap> 
5.701 
 
>  <logP> 
1.881 
 
>  <lumo_energy> 
0.065 
 
>  <melting_point> 
74.88 
 
>  <molecular_refractivity> 
41.09 
 
>  <oscillator_strength_1> 
0.0591 
 
>  <oscillator_strength_2> 
0.0005 
 
>  <oscillator_strength_3> 
0.0066 
 
>  <oscillator_strength_4> 
0.0216 
 
>  <open_babel_can_smiles> 
Oc1ccc2c(c1)CCC2 
 
>  <mulliken_charges> 
20 
1   -0.280456 
2   -0.34603 
3   -0.34708 
4   -0.204743 
5   -0.199672 
6   -0.234516 
7   0.131656 
8   0.130016 
9   0.353523 
10   -0.648051 
11   0.146566 
12   0.135234 
13   0.147323 
14   0.14366 
15   0.147585 
16   0.151721 
17   0.124044 
18   0.112424 
19   0.131845 
20   0.404952 
 
>  <lowdin_charges> 
20 
1   -0.271895 
2   -0.278413 
3   -0.277543 
4   -0.152439 
5   -0.220277 
6   -0.194227 
7   -0.035646 
8   -0.003003 
9   0.103348 
10   -0.385615 
11   0.144888 
12   0.144794 
13   0.147561 
14   0.150455 
15   0.152233 
16   0.150945 
17   0.153973 
18   0.151435 
19   0.16295 
20   0.356476 
 
$$$$ 
 
