PCCDB-ID:  20736 
public computational chemistry database (PCCDB) project, http://pccdb.org 
 
 21 20  0  0  0  0  0  0  0  0999 V2000 
    0.9522    0.5328    0.1799 C   0  0  0  0  0  0  0  0  0  0  0  0 
    3.2069   -3.3054    1.9102 C   0  0  0  0  0  0  0  0  0  0  0  0 
    2.7557   -3.9999   -2.4106 C   0  0  0  0  0  0  0  0  0  0  0  0 
    1.5297   -0.6587    0.9093 C   0  0  0  0  0  0  0  0  0  0  0  0 
    3.6766   -2.0546    1.2056 C   0  0  0  0  0  0  0  0  0  0  0  0 
    2.7084   -1.3741    0.2046 C   0  0  0  0  0  0  0  0  0  0  0  0 
    2.1612   -2.3201   -0.8629 C   0  0  0  0  0  0  0  0  0  0  0  0 
    1.1114   -1.0339    1.9850 O   0  0  0  0  0  0  0  0  0  0  0  0 
    4.7558   -1.5417    1.4142 O   0  0  0  0  0  0  0  0  0  0  0  0 
    1.0101   -2.3634   -1.2393 O   0  0  0  0  0  0  0  0  0  0  0  0 
    3.1460   -3.0903   -1.3624 O   0  0  0  0  0  0  0  0  0  0  0  0 
    1.7236    1.2997    0.0357 H   0  0  0  0  0  0  0  0  0  0  0  0 
    0.1219    0.9489    0.7538 H   0  0  0  0  0  0  0  0  0  0  0  0 
    0.6023    0.2212   -0.8105 H   0  0  0  0  0  0  0  0  0  0  0  0 
    2.3081   -3.0680    2.4893 H   0  0  0  0  0  0  0  0  0  0  0  0 
    3.9981   -3.6717    2.5671 H   0  0  0  0  0  0  0  0  0  0  0  0 
    2.9400   -4.0826    1.1851 H   0  0  0  0  0  0  0  0  0  0  0  0 
    3.6643   -4.5387   -2.6781 H   0  0  0  0  0  0  0  0  0  0  0  0 
    2.3681   -3.4447   -3.2683 H   0  0  0  0  0  0  0  0  0  0  0  0 
    1.9870   -4.6887   -2.0522 H   0  0  0  0  0  0  0  0  0  0  0  0 
    3.3159   -0.6262   -0.3195 H   0  0  0  0  0  0  0  0  0  0  0  0 
  1 13  1  0  0  0  0 
  1  4  1  0  0  0  0 
  2 15  1  0  0  0  0 
  2 16  1  0  0  0  0 
  3 20  1  0  0  0  0 
  3 11  1  0  0  0  0 
  4  8  2  0  0  0  0 
  5  9  2  0  0  0  0 
  5  2  1  0  0  0  0 
  6  4  1  0  0  0  0 
  6  5  1  0  0  0  0 
  7  6  1  0  0  0  0 
 10  7  2  0  0  0  0 
 11  7  1  0  0  0  0 
 12  1  1  0  0  0  0 
 14  1  1  0  0  0  0 
 17  2  1  0  0  0  0 
 18  3  1  0  0  0  0 
 19  3  1  0  0  0  0 
 21  6  1  0  0  0  0 
M  END 
>  <HBA> 
4 
 
>  <HBD> 
0 
 
>  <TPSA> 
60.44 
 
>  <cid> 
20736 
 
>  <dipole> 
3.13 
 
>  <excitation_energy_1> 
4.329 
 
>  <excitation_energy_2> 
4.419 
 
>  <excitation_energy_3> 
5.176 
 
>  <excitation_energy_4> 
5.393 
 
>  <homo_energy> 
-6.844 
 
>  <homo_lumo_gap> 
5.932 
 
>  <logP> 
-0.046 
 
>  <lumo_energy> 
-0.912 
 
>  <melting_point> 
28.0 
 
>  <molecular_refractivity> 
37.45 
 
>  <oscillator_strength_1> 
0.0017 
 
>  <oscillator_strength_2> 
0.0004 
 
>  <oscillator_strength_3> 
0.0048 
 
>  <oscillator_strength_4> 
0.0034 
 
>  <open_babel_can_smiles> 
COC(=O)C(C(=O)C)C(=O)C 
 
>  <mulliken_charges> 
21 
1   -0.536465 
2   -0.54553 
3   -0.22517 
4   0.477031 
5   0.488765 
6   -0.369198 
7   0.634495 
8   -0.424503 
9   -0.432437 
10   -0.471083 
11   -0.445025 
12   0.174245 
13   0.185874 
14   0.197641 
15   0.211558 
16   0.178613 
17   0.16868 
18   0.176344 
19   0.177186 
20   0.17834 
21   0.200639 
 
>  <lowdin_charges> 
21 
1   -0.473356 
2   -0.481818 
3   -0.278873 
4   0.18454 
5   0.179547 
6   -0.217807 
7   0.194174 
8   -0.217773 
9   -0.218405 
10   -0.252576 
11   -0.180796 
12   0.173469 
13   0.177729 
14   0.18451 
15   0.191909 
16   0.174905 
17   0.170983 
18   0.167791 
19   0.164258 
20   0.164908 
21   0.19268 
 
$$$$ 
 
