PCCDB-ID:  72718 
public computational chemistry database (PCCDB) project, http://pccdb.org 
 
 28 29  0  0  0  0  0  0  0  0999 V2000 
   -1.9542   -0.0597    0.8572 C   0  0  0  0  0  0  0  0  0  0  0  0 
   -1.1876    1.0635    1.1732 C   0  0  0  0  0  0  0  0  0  0  0  0 
   -1.3574   -1.1361    0.1983 C   0  0  0  0  0  0  0  0  0  0  0  0 
    0.1634    1.1095    0.8333 C   0  0  0  0  0  0  0  0  0  0  0  0 
   -0.0062   -1.0901   -0.1409 C   0  0  0  0  0  0  0  0  0  0  0  0 
    3.0247   -1.0667   -0.1161 C   0  0  0  0  0  0  0  0  0  0  0  0 
    2.8142    1.2790   -0.6248 C   0  0  0  0  0  0  0  0  0  0  0  0 
    4.3721   -1.0210   -0.4541 C   0  0  0  0  0  0  0  0  0  0  0  0 
    4.1646    1.3290   -0.9584 C   0  0  0  0  0  0  0  0  0  0  0  0 
    0.7784    0.0336    0.1705 C   0  0  0  0  0  0  0  0  0  0  0  0 
    2.2174    0.0828   -0.1904 C   0  0  0  0  0  0  0  0  0  0  0  0 
    4.9630    0.1801   -0.8671 C   0  0  0  0  0  0  0  0  0  0  0  0 
    6.4200    0.1598   -1.2102 C   0  0  0  0  0  0  0  0  0  0  0  0 
    8.4683    1.4318   -1.3364 N   0  0  0  0  0  0  0  0  0  0  0  0 
    7.0610    1.3805   -1.1983 N   0  0  0  0  0  0  0  0  0  0  0  0 
    7.0242   -0.8733   -1.4855 O   0  0  0  0  0  0  0  0  0  0  0  0 
   -3.0073   -0.0957    1.1220 H   0  0  0  0  0  0  0  0  0  0  0  0 
   -1.6401    1.9036    1.6933 H   0  0  0  0  0  0  0  0  0  0  0  0 
   -1.9468   -2.0118   -0.0602 H   0  0  0  0  0  0  0  0  0  0  0  0 
    0.7565    1.9773    1.1081 H   0  0  0  0  0  0  0  0  0  0  0  0 
    0.4408   -1.9221   -0.6777 H   0  0  0  0  0  0  0  0  0  0  0  0 
    2.5937   -1.9996    0.2354 H   0  0  0  0  0  0  0  0  0  0  0  0 
    2.2046    2.1710   -0.7360 H   0  0  0  0  0  0  0  0  0  0  0  0 
    4.9925   -1.9095   -0.3979 H   0  0  0  0  0  0  0  0  0  0  0  0 
    4.5835    2.2597   -1.3314 H   0  0  0  0  0  0  0  0  0  0  0  0 
    8.6675    1.4460   -2.3376 H   0  0  0  0  0  0  0  0  0  0  0  0 
    8.8189    0.5271   -1.0112 H   0  0  0  0  0  0  0  0  0  0  0  0 
    6.6944    2.1116   -0.6037 H   0  0  0  0  0  0  0  0  0  0  0  0 
  1 17  1  0  0  0  0 
  1  2  1  0  0  0  0 
  2 18  1  0  0  0  0 
  3  1  2  0  0  0  0 
  4 20  1  0  0  0  0 
  4  2  2  0  0  0  0 
  5 10  2  0  0  0  0 
  5  3  1  0  0  0  0 
  6 22  1  0  0  0  0 
  7 11  2  0  0  0  0 
  8 24  1  0  0  0  0 
  8  6  2  0  0  0  0 
  9 12  2  0  0  0  0 
  9  7  1  0  0  0  0 
 10  4  1  0  0  0  0 
 11  6  1  0  0  0  0 
 11 10  1  0  0  0  0 
 12  8  1  0  0  0  0 
 13 15  1  0  0  0  0 
 13 12  1  0  0  0  0 
 14 15  1  0  0  0  0 
 14 27  1  0  0  0  0 
 15 28  1  0  0  0  0 
 16 13  2  0  0  0  0 
 19  3  1  0  0  0  0 
 21  5  1  0  0  0  0 
 23  7  1  0  0  0  0 
 25  9  1  0  0  0  0 
 26 14  1  0  0  0  0 
M  END 
>  <HBA> 
3 
 
>  <HBD> 
2 
 
>  <TPSA> 
55.12 
 
>  <cid> 
72718 
 
>  <dipole> 
2.83 
 
>  <excitation_energy_1> 
4.415 
 
>  <excitation_energy_2> 
4.614 
 
>  <excitation_energy_3> 
4.731 
 
>  <excitation_energy_4> 
4.775 
 
>  <homo_energy> 
-6.299 
 
>  <homo_lumo_gap> 
4.92 
 
>  <logP> 
3.048 
 
>  <lumo_energy> 
-1.38 
 
>  <melting_point> 
158.58 
 
>  <molecular_refractivity> 
62.77 
 
>  <oscillator_strength_1> 
0.566 
 
>  <oscillator_strength_2> 
0.0606 
 
>  <oscillator_strength_3> 
0.0026 
 
>  <oscillator_strength_4> 
0.0047 
 
>  <open_babel_can_smiles> 
NNC(=O)c1ccc(cc1)c1ccccc1 
 
>  <mulliken_charges> 
28 
1   -0.125179 
2   -0.133469 
3   -0.133592 
4   -0.172553 
5   -0.172554 
6   -0.180893 
7   -0.180248 
8   -0.164153 
9   -0.190911 
10   0.088223 
11   0.098065 
12   0.077498 
13   0.535519 
14   -0.56543 
15   -0.505326 
16   -0.51774 
17   0.133027 
18   0.133271 
19   0.134135 
20   0.13302 
21   0.13663 
22   0.14023 
23   0.138545 
24   0.164077 
25   0.138691 
26   0.325423 
27   0.326444 
28   0.339252 
 
>  <lowdin_charges> 
28 
1   -0.152307 
2   -0.154135 
3   -0.153701 
4   -0.160764 
5   -0.159691 
6   -0.159178 
7   -0.161732 
8   -0.130966 
9   -0.157856 
10   -0.003632 
11   0.011298 
12   -0.044375 
13   0.150668 
14   -0.456146 
15   -0.240932 
16   -0.309293 
17   0.158107 
18   0.16038 
19   0.160549 
20   0.160285 
21   0.162106 
22   0.163594 
23   0.163055 
24   0.178068 
25   0.161264 
26   0.263739 
27   0.265251 
28   0.286346 
 
$$$$ 
 
