PCCDB-ID:  31097 
public computational chemistry database (PCCDB) project, http://pccdb.org 
 
 31 33  0  0  0  0  0  0  0  0999 V2000 
    1.0182    0.1618   -0.2867 C   0  0  0  0  0  0  0  0  0  0  0  0 
    7.5515    5.4980    2.5016 C   0  0  0  0  0  0  0  0  0  0  0  0 
    8.6746    4.8580    1.9654 C   0  0  0  0  0  0  0  0  0  0  0  0 
    6.8376    0.2009   -1.3730 C   0  0  0  0  0  0  0  0  0  0  0  0 
    6.2628    5.0364    2.2112 C   0  0  0  0  0  0  0  0  0  0  0  0 
    8.5300    3.7474    1.1316 C   0  0  0  0  0  0  0  0  0  0  0  0 
    7.5259    1.2040   -0.6891 C   0  0  0  0  0  0  0  0  0  0  0  0 
    5.4434    0.1561   -1.3662 C   0  0  0  0  0  0  0  0  0  0  0  0 
    4.8490    3.2434    0.9109 C   0  0  0  0  0  0  0  0  0  0  0  0 
    2.5174   -0.0654   -0.3413 C   0  0  0  0  0  0  0  0  0  0  0  0 
    6.1135    3.9311    1.3809 C   0  0  0  0  0  0  0  0  0  0  0  0 
    7.2440    3.2868    0.8406 C   0  0  0  0  0  0  0  0  0  0  0  0 
    6.7912    2.1581    0.0156 C   0  0  0  0  0  0  0  0  0  0  0  0 
    5.3803    2.1201    0.0429 C   0  0  0  0  0  0  0  0  0  0  0  0 
    4.7051    1.1152   -0.6545 C   0  0  0  0  0  0  0  0  0  0  0  0 
    3.2810    1.0468   -0.6769 N   0  0  0  0  0  0  0  0  0  0  0  0 
    3.0424   -1.1465   -0.1314 O   0  0  0  0  0  0  0  0  0  0  0  0 
    2.6053    2.2820   -0.7391 O   0  0  0  0  0  0  0  0  0  0  0  0 
    0.6354    0.5521   -1.2354 H   0  0  0  0  0  0  0  0  0  0  0  0 
    0.7553    0.8871    0.4894 H   0  0  0  0  0  0  0  0  0  0  0  0 
    0.5496   -0.7989   -0.0693 H   0  0  0  0  0  0  0  0  0  0  0  0 
    7.6811    6.3609    3.1494 H   0  0  0  0  0  0  0  0  0  0  0  0 
    9.6688    5.2282    2.2009 H   0  0  0  0  0  0  0  0  0  0  0  0 
    7.3889   -0.5560   -1.9240 H   0  0  0  0  0  0  0  0  0  0  0  0 
    5.3943    5.5384    2.6314 H   0  0  0  0  0  0  0  0  0  0  0  0 
    9.4062    3.2540    0.7189 H   0  0  0  0  0  0  0  0  0  0  0  0 
    8.6121    1.2321   -0.6999 H   0  0  0  0  0  0  0  0  0  0  0  0 
    4.9168   -0.6299   -1.8935 H   0  0  0  0  0  0  0  0  0  0  0  0 
    4.1885    3.9181    0.3549 H   0  0  0  0  0  0  0  0  0  0  0  0 
    4.2473    2.8574    1.7457 H   0  0  0  0  0  0  0  0  0  0  0  0 
    2.6160    2.5170   -1.6854 H   0  0  0  0  0  0  0  0  0  0  0  0 
  1 21  1  0  0  0  0 
  1 20  1  0  0  0  0 
  2 22  1  0  0  0  0 
  3 23  1  0  0  0  0 
  3  2  2  0  0  0  0 
  4  8  2  0  0  0  0 
  4  7  1  0  0  0  0 
  5  2  1  0  0  0  0 
  5 25  1  0  0  0  0 
  6  3  1  0  0  0  0 
  7 13  2  0  0  0  0 
  8 15  1  0  0  0  0 
  9 11  1  0  0  0  0 
  9 30  1  0  0  0  0 
 10  1  1  0  0  0  0 
 10 17  2  0  0  0  0 
 11  5  2  0  0  0  0 
 12  6  2  0  0  0  0 
 12 11  1  0  0  0  0 
 13 14  1  0  0  0  0 
 13 12  1  0  0  0  0 
 14  9  1  0  0  0  0 
 15 14  2  0  0  0  0 
 16 15  1  0  0  0  0 
 16 10  1  0  0  0  0 
 18 16  1  0  0  0  0 
 19  1  1  0  0  0  0 
 24  4  1  0  0  0  0 
 26  6  1  0  0  0  0 
 27  7  1  0  0  0  0 
 28  8  1  0  0  0  0 
 29  9  1  0  0  0  0 
 31 18  1  0  0  0  0 
M  END 
>  <HBA> 
3 
 
>  <HBD> 
1 
 
>  <TPSA> 
40.54 
 
>  <cid> 
31097 
 
>  <dipole> 
3.35 
 
>  <excitation_energy_1> 
4.341 
 
>  <excitation_energy_2> 
4.548 
 
>  <excitation_energy_3> 
4.741 
 
>  <excitation_energy_4> 
4.814 
 
>  <homo_energy> 
-5.807 
 
>  <homo_lumo_gap> 
4.966 
 
>  <logP> 
3.0 
 
>  <lumo_energy> 
-0.841 
 
>  <melting_point> 
159.15 
 
>  <molecular_refractivity> 
70.03 
 
>  <oscillator_strength_1> 
0.0411 
 
>  <oscillator_strength_2> 
0.1855 
 
>  <oscillator_strength_3> 
0.2214 
 
>  <oscillator_strength_4> 
0.1999 
 
>  <open_babel_can_smiles> 
CC(=O)N(c1cccc2c1Cc1c2cccc1)O 
 
>  <mulliken_charges> 
31 
1   -0.515044 
2   -0.129018 
3   -0.13796 
4   -0.149995 
5   -0.205797 
6   -0.192509 
7   -0.185073 
8   -0.137745 
9   -0.401864 
10   0.562935 
11   0.110832 
12   0.083196 
13   0.072849 
14   0.085802 
15   0.225001 
16   -0.321305 
17   -0.482857 
18   -0.504073 
19   0.160444 
20   0.183425 
21   0.181214 
22   0.127312 
23   0.128077 
24   0.133757 
25   0.125755 
26   0.1292 
27   0.131062 
28   0.150739 
29   0.177481 
30   0.176128 
31   0.418031 
 
>  <lowdin_charges> 
31 
1   -0.467788 
2   -0.156917 
3   -0.156767 
4   -0.153512 
5   -0.165263 
6   -0.162875 
7   -0.161736 
8   -0.158237 
9   -0.27468 
10   0.16351 
11   -0.004772 
12   -0.011753 
13   -0.007133 
14   -0.013078 
15   0.031025 
16   0.001325 
17   -0.284162 
18   -0.362001 
19   0.166422 
20   0.177804 
21   0.175196 
22   0.157487 
23   0.15699 
24   0.162138 
25   0.157572 
26   0.15809 
27   0.157148 
28   0.174526 
29   0.173588 
30   0.173057 
31   0.354795 
 
$$$$ 
 
