PCCDB-ID:  30993 
public computational chemistry database (PCCDB) project, http://pccdb.org 
 
 20 19  0  0  1  0  0  0  0  0999 V2000 
    1.5759    0.7371    0.0359 C   0  0  0  0  0  0  0  0  0  0  0  0 
    2.8333    0.8853    0.8895 C   0  0  0  0  0  0  0  0  0  0  0  0 
    5.3110    2.2298    1.3937 C   0  0  0  0  0  0  0  0  0  0  0  0 
    5.3902    3.4180    2.3834 C   0  0  1  0  0  0  0  0  0  0  0  0 
    4.2276    3.4233    3.4032 C   0  0  0  0  0  0  0  0  0  0  0  0 
    6.6983    3.3879    3.0276 N   0  0  0  0  0  0  0  0  0  0  0  0 
    4.4014    3.2624    4.5882 O   0  0  0  0  0  0  0  0  0  0  0  0 
    2.9884    3.6277    2.9038 O   0  0  0  0  0  0  0  0  0  0  0  0 
    3.8761    2.2626    0.2334 S   0  0  0  0  0  0  0  0  0  0  0  0 
    0.9678   -0.0913    0.4154 H   0  0  0  0  0  0  0  0  0  0  0  0 
    1.8248    0.5252   -1.0091 H   0  0  0  0  0  0  0  0  0  0  0  0 
    0.9638    1.6446    0.0651 H   0  0  0  0  0  0  0  0  0  0  0  0 
    3.4308   -0.0314    0.8637 H   0  0  0  0  0  0  0  0  0  0  0  0 
    2.5742    1.1066    1.9290 H   0  0  0  0  0  0  0  0  0  0  0  0 
    5.2962    1.2775    1.9349 H   0  0  0  0  0  0  0  0  0  0  0  0 
    6.2224    2.2508    0.7929 H   0  0  0  0  0  0  0  0  0  0  0  0 
    5.3234    4.3419    1.7939 H   0  0  0  0  0  0  0  0  0  0  0  0 
    6.6569    2.7106    3.7903 H   0  0  0  0  0  0  0  0  0  0  0  0 
    6.8550    4.2808    3.4935 H   0  0  0  0  0  0  0  0  0  0  0  0 
    3.0297    3.6196    1.9207 H   0  0  0  0  0  0  0  0  0  0  0  0 
  1 12  1  0  0  0  0 
  1 10  1  0  0  0  0 
  1  2  1  0  0  0  0 
  2 14  1  0  0  0  0 
  3 15  1  0  0  0  0 
  3  4  1  0  0  0  0 
  4 17  1  6  0  0  0 
  4  6  1  0  0  0  0 
  4  5  1  0  0  0  0 
  5  7  2  0  0  0  0 
  6 19  1  0  0  0  0 
  6 18  1  0  0  0  0 
  8  5  1  0  0  0  0 
  9  2  1  0  0  0  0 
  9  3  1  0  0  0  0 
 11  1  1  0  0  0  0 
 13  2  1  0  0  0  0 
 16  3  1  0  0  0  0 
 20  8  1  0  0  0  0 
M  END 
>  <HBA> 
4 
 
>  <HBD> 
2 
 
>  <TPSA> 
88.62 
 
>  <cid> 
30993 
 
>  <dipole> 
2.48 
 
>  <excitation_energy_1> 
5.305 
 
>  <excitation_energy_2> 
5.584 
 
>  <excitation_energy_3> 
5.754 
 
>  <excitation_energy_4> 
5.975 
 
>  <homo_energy> 
-6.637 
 
>  <homo_lumo_gap> 
6.751 
 
>  <logP> 
0.852 
 
>  <lumo_energy> 
0.114 
 
>  <melting_point> 
114.48 
 
>  <molecular_refractivity> 
38.22 
 
>  <oscillator_strength_1> 
0.0013 
 
>  <oscillator_strength_2> 
0.0023 
 
>  <oscillator_strength_3> 
0.0015 
 
>  <oscillator_strength_4> 
0.0023 
 
>  <open_babel_can_smiles> 
CCSC[C@@H](C(=O)O)N 
 
>  <mulliken_charges> 
20 
1   -0.454114 
2   -0.408179 
3   -0.417919 
4   -0.110145 
5   0.576341 
6   -0.693106 
7   -0.449896 
8   -0.574715 
9   0.052473 
10   0.164134 
11   0.169179 
12   0.166705 
13   0.178646 
14   0.192665 
15   0.181708 
16   0.209761 
17   0.167609 
18   0.312574 
19   0.311666 
20   0.424611 
 
>  <lowdin_charges> 
20 
1   -0.444289 
2   -0.367356 
3   -0.379784 
4   -0.116631 
5   0.166024 
6   -0.532069 
7   -0.250692 
8   -0.358026 
9   0.088225 
10   0.163852 
11   0.160093 
12   0.160565 
13   0.160354 
14   0.162835 
15   0.168006 
16   0.184511 
17   0.16052 
18   0.264479 
19   0.265154 
20   0.344231 
 
$$$$ 
 
