PCCDB-ID:  29680 
public computational chemistry database (PCCDB) project, http://pccdb.org 
 
 20 20  0  0  0  0  0  0  0  0999 V2000 
    2.8999    1.7153    0.2803 C   0  0  0  0  0  0  0  0  0  0  0  0 
    4.6227   -1.3816   -3.5584 C   0  0  0  0  0  0  0  0  0  0  0  0 
    4.7230    0.0678   -3.1615 C   0  0  0  0  0  0  0  0  0  0  0  0 
    3.9947   -2.2014   -2.4209 C   0  0  0  0  0  0  0  0  0  0  0  0 
    4.0480    0.5850   -2.1239 C   0  0  0  0  0  0  0  0  0  0  0  0 
    2.7706   -1.4882   -1.8411 C   0  0  0  0  0  0  0  0  0  0  0  0 
    2.5095    0.3280   -0.2097 C   0  0  0  0  0  0  0  0  0  0  0  0 
    3.1324   -0.1483   -1.3533 N   0  0  0  0  0  0  0  0  0  0  0  0 
    1.6770   -0.3440    0.3868 O   0  0  0  0  0  0  0  0  0  0  0  0 
    3.9775    1.8033    0.4560 H   0  0  0  0  0  0  0  0  0  0  0  0 
    2.3686    1.8878    1.2167 H   0  0  0  0  0  0  0  0  0  0  0  0 
    2.6113    2.4931   -0.4364 H   0  0  0  0  0  0  0  0  0  0  0  0 
    5.6178   -1.7759   -3.8041 H   0  0  0  0  0  0  0  0  0  0  0  0 
    4.0253   -1.4862   -4.4775 H   0  0  0  0  0  0  0  0  0  0  0  0 
    5.3804    0.7250   -3.7233 H   0  0  0  0  0  0  0  0  0  0  0  0 
    4.7322   -2.3456   -1.6216 H   0  0  0  0  0  0  0  0  0  0  0  0 
    3.6983   -3.1964   -2.7715 H   0  0  0  0  0  0  0  0  0  0  0  0 
    4.1644    1.6239   -1.8429 H   0  0  0  0  0  0  0  0  0  0  0  0 
    2.3368   -2.0302   -1.0011 H   0  0  0  0  0  0  0  0  0  0  0  0 
    1.9918   -1.3852   -2.6100 H   0  0  0  0  0  0  0  0  0  0  0  0 
  1 10  1  0  0  0  0 
  1 11  1  0  0  0  0 
  2  3  1  0  0  0  0 
  2  4  1  0  0  0  0 
  3  5  2  0  0  0  0 
  4  6  1  0  0  0  0 
  4 16  1  0  0  0  0 
  5 18  1  0  0  0  0 
  5  8  1  0  0  0  0 
  6  8  1  0  0  0  0 
  6 19  1  0  0  0  0 
  7  1  1  0  0  0  0 
  7  9  2  0  0  0  0 
  8  7  1  0  0  0  0 
 12  1  1  0  0  0  0 
 13  2  1  0  0  0  0 
 14  2  1  0  0  0  0 
 15  3  1  0  0  0  0 
 17  4  1  0  0  0  0 
 20  6  1  0  0  0  0 
M  END 
>  <HBA> 
2 
 
>  <HBD> 
0 
 
>  <TPSA> 
20.31 
 
>  <cid> 
29680 
 
>  <dipole> 
2.95 
 
>  <excitation_energy_1> 
5.088 
 
>  <excitation_energy_2> 
5.26 
 
>  <excitation_energy_3> 
5.412 
 
>  <excitation_energy_4> 
5.612 
 
>  <homo_energy> 
-5.704 
 
>  <homo_lumo_gap> 
5.755 
 
>  <logP> 
1.08 
 
>  <lumo_energy> 
0.052 
 
>  <melting_point> 
29.17 
 
>  <molecular_refractivity> 
40.19 
 
>  <oscillator_strength_1> 
0.0247 
 
>  <oscillator_strength_2> 
0.0061 
 
>  <oscillator_strength_3> 
0.4105 
 
>  <oscillator_strength_4> 
0.02 
 
>  <open_babel_can_smiles> 
CC(=O)N1CCCC=C1 
 
>  <mulliken_charges> 
20 
1   -0.551406 
2   -0.291963 
3   -0.168104 
4   -0.287828 
5   0.073894 
6   -0.142089 
7   0.577819 
8   -0.455975 
9   -0.498885 
10   0.171933 
11   0.189061 
12   0.172748 
13   0.146584 
14   0.148422 
15   0.128136 
16   0.152344 
17   0.143194 
18   0.148111 
19   0.190516 
20   0.15349 
 
>  <lowdin_charges> 
20 
1   -0.474847 
2   -0.273687 
3   -0.219602 
4   -0.280205 
5   -0.117625 
6   -0.195695 
7   0.165286 
8   -0.07817 
9   -0.299312 
10   0.166662 
11   0.18021 
12   0.16975 
13   0.152663 
14   0.149397 
15   0.161215 
16   0.151386 
17   0.152008 
18   0.164708 
19   0.177694 
20   0.148163 
 
$$$$ 
 
