PCCDB-ID:  12227 
public computational chemistry database (PCCDB) project, http://pccdb.org 
 
  8  7  0  0  0  0  0  0  0  0999 V2000 
    0.9532   -0.0953   -0.0759 C   0  0  0  0  0  0  0  0  0  0  0  0 
    0.2856    0.7347   -0.7734 N   0  0  0  0  0  0  0  0  0  0  0  0 
    2.3302   -0.3452   -0.1273 N   0  0  0  0  0  0  0  0  0  0  0  0 
    2.8382   -0.8848    1.0900 O   0  0  0  0  0  0  0  0  0  0  0  0 
    0.4403   -0.7714    0.6101 H   0  0  0  0  0  0  0  0  0  0  0  0 
    0.8970    1.3045   -1.3713 H   0  0  0  0  0  0  0  0  0  0  0  0 
    2.8899    0.4741   -0.3576 H   0  0  0  0  0  0  0  0  0  0  0  0 
    3.1881   -1.7494    0.8179 H   0  0  0  0  0  0  0  0  0  0  0  0 
  1  5  1  0  0  0  0 
  2  1  2  0  0  0  0 
  3  1  1  0  0  0  0 
  3  4  1  0  0  0  0 
  6  2  1  0  0  0  0 
  7  3  1  0  0  0  0 
  8  4  1  0  0  0  0 
M  END 
>  <HBA> 
3 
 
>  <HBD> 
2 
 
>  <TPSA> 
58.61 
 
>  <cid> 
12227 
 
>  <dipole> 
2.98 
 
>  <excitation_energy_1> 
5.926 
 
>  <excitation_energy_2> 
6.069 
 
>  <excitation_energy_3> 
6.246 
 
>  <excitation_energy_4> 
6.81 
 
>  <homo_energy> 
-6.776 
 
>  <homo_lumo_gap> 
7.143 
 
>  <logP> 
0.063 
 
>  <lumo_energy> 
0.367 
 
>  <melting_point> 
102.78 
 
>  <molecular_refractivity> 
14.04 
 
>  <oscillator_strength_1> 
0.0235 
 
>  <oscillator_strength_2> 
0.0042 
 
>  <oscillator_strength_3> 
0.0302 
 
>  <oscillator_strength_4> 
0.0408 
 
>  <open_babel_can_smiles> 
ONC=N 
 
>  <mulliken_charges> 
8 
1   0.226174 
2   -0.55141 
3   -0.349761 
4   -0.509809 
5   0.16398 
6   0.270895 
7   0.329484 
8   0.420448 
 
>  <lowdin_charges> 
8 
1   -0.03805 
2   -0.397063 
3   -0.203839 
4   -0.398847 
5   0.162345 
6   0.246147 
7   0.272814 
8   0.356492 
 
$$$$ 
 
