PCCDB-ID:  70133 
public computational chemistry database (PCCDB) project, http://pccdb.org 
 
 21 21  0  0  0  0  0  0  0  0999 V2000 
    0.9242    0.5103   -0.0316 C   0  0  0  0  0  0  0  0  0  0  0  0 
    0.8071   -2.5376   -0.1685 C   0  0  0  0  0  0  0  0  0  0  0  0 
    5.2257   -0.0503   -0.1985 C   0  0  0  0  0  0  0  0  0  0  0  0 
    4.4048   -1.1584   -0.0626 C   0  0  0  0  0  0  0  0  0  0  0  0 
    3.2487    1.3398   -0.2368 C   0  0  0  0  0  0  0  0  0  0  0  0 
    2.4109    0.2287   -0.1094 C   0  0  0  0  0  0  0  0  0  0  0  0 
    2.2963   -2.3848    0.1030 C   0  0  0  0  0  0  0  0  0  0  0  0 
    4.6393    1.2154   -0.2902 C   0  0  0  0  0  0  0  0  0  0  0  0 
    3.0012   -1.0622   -0.0271 C   0  0  0  0  0  0  0  0  0  0  0  0 
    2.9371   -3.3861    0.3990 O   0  0  0  0  0  0  0  0  0  0  0  0 
    5.3651    2.3608   -0.4241 O   0  0  0  0  0  0  0  0  0  0  0  0 
    0.7481    1.5896   -0.0320 H   0  0  0  0  0  0  0  0  0  0  0  0 
    0.4755    0.1063    0.8820 H   0  0  0  0  0  0  0  0  0  0  0  0 
    0.3726    0.0896   -0.8787 H   0  0  0  0  0  0  0  0  0  0  0  0 
    0.5178   -2.0908   -1.1255 H   0  0  0  0  0  0  0  0  0  0  0  0 
    0.2039   -2.0622    0.6122 H   0  0  0  0  0  0  0  0  0  0  0  0 
    0.5829   -3.6059   -0.1814 H   0  0  0  0  0  0  0  0  0  0  0  0 
    6.3079   -0.1627   -0.2324 H   0  0  0  0  0  0  0  0  0  0  0  0 
    4.8358   -2.1501    0.0189 H   0  0  0  0  0  0  0  0  0  0  0  0 
    2.8255    2.3380   -0.2926 H   0  0  0  0  0  0  0  0  0  0  0  0 
    6.3089    2.1368   -0.4435 H   0  0  0  0  0  0  0  0  0  0  0  0 
  1 13  1  0  0  0  0 
  2  7  1  0  0  0  0 
  2 16  1  0  0  0  0 
  3  4  2  0  0  0  0 
  4  9  1  0  0  0  0 
  4 19  1  0  0  0  0 
  5  6  1  0  0  0  0 
  6  1  1  0  0  0  0 
  6  9  2  0  0  0  0 
  7 10  2  0  0  0  0 
  8  5  2  0  0  0  0 
  8  3  1  0  0  0  0 
  9  7  1  0  0  0  0 
 11  8  1  0  0  0  0 
 12  1  1  0  0  0  0 
 14  1  1  0  0  0  0 
 15  2  1  0  0  0  0 
 17  2  1  0  0  0  0 
 18  3  1  0  0  0  0 
 20  5  1  0  0  0  0 
 21 11  1  0  0  0  0 
M  END 
>  <HBA> 
2 
 
>  <HBD> 
1 
 
>  <TPSA> 
37.3 
 
>  <cid> 
70133 
 
>  <dipole> 
2.42 
 
>  <excitation_energy_1> 
3.884 
 
>  <excitation_energy_2> 
4.725 
 
>  <excitation_energy_3> 
4.745 
 
>  <excitation_energy_4> 
5.394 
 
>  <homo_energy> 
-6.221 
 
>  <homo_lumo_gap> 
5.083 
 
>  <logP> 
1.903 
 
>  <lumo_energy> 
-1.137 
 
>  <melting_point> 
84.03 
 
>  <molecular_refractivity> 
43.63 
 
>  <oscillator_strength_1> 
0.0015 
 
>  <oscillator_strength_2> 
0.0849 
 
>  <oscillator_strength_3> 
0.2084 
 
>  <oscillator_strength_4> 
0.0004 
 
>  <open_babel_can_smiles> 
Oc1ccc(c(c1)C)C(=O)C 
 
>  <mulliken_charges> 
21 
1   -0.538702 
2   -0.538539 
3   -0.194699 
4   -0.166102 
5   -0.228188 
6   0.132794 
7   0.402856 
8   0.368776 
9   0.006844 
10   -0.461034 
11   -0.635447 
12   0.162325 
13   0.166662 
14   0.166563 
15   0.16425 
16   0.168617 
17   0.178632 
18   0.125402 
19   0.169673 
20   0.137415 
21   0.4119 
 
>  <lowdin_charges> 
21 
1   -0.442134 
2   -0.472899 
3   -0.215215 
4   -0.114185 
5   -0.200188 
6   0.023742 
7   0.16418 
8   0.113901 
9   -0.085316 
10   -0.258444 
11   -0.36392 
12   0.158708 
13   0.162506 
14   0.163425 
15   0.164627 
16   0.17045 
17   0.171799 
18   0.154477 
19   0.179604 
20   0.165551 
21   0.359333 
 
$$$$ 
 
