PCCDB-ID:  27695 
public computational chemistry database (PCCDB) project, http://pccdb.org 
 
 22 23  0  0  0  0  0  0  0  0999 V2000 
    0.9722   -0.2594   -0.0496 C   0  0  0  0  0  0  0  0  0  0  0  0 
    5.3548   -3.0767    0.0469 C   0  0  0  0  0  0  0  0  0  0  0  0 
    4.0114   -3.5171    0.0564 C   0  0  0  0  0  0  0  0  0  0  0  0 
    5.6637   -1.7269    0.0104 C   0  0  0  0  0  0  0  0  0  0  0  0 
    2.9534   -2.6201    0.0341 C   0  0  0  0  0  0  0  0  0  0  0  0 
    4.5468    0.6318   -0.0635 C   0  0  0  0  0  0  0  0  0  0  0  0 
    4.6125   -0.7897   -0.0172 C   0  0  0  0  0  0  0  0  0  0  0  0 
    3.2662   -1.2523    0.0044 C   0  0  0  0  0  0  0  0  0  0  0  0 
    3.2086    0.9887   -0.0646 C   0  0  0  0  0  0  0  0  0  0  0  0 
    2.6460    2.3559   -0.0573 C   0  0  0  0  0  0  0  0  0  0  0  0 
    2.4261   -0.1611   -0.0102 N   0  0  0  0  0  0  0  0  0  0  0  0 
    1.5301    2.6573    0.3090 O   0  0  0  0  0  0  0  0  0  0  0  0 
    3.4985    3.3253   -0.4870 O   0  0  0  0  0  0  0  0  0  0  0  0 
    0.6423   -0.6965   -0.9995 H   0  0  0  0  0  0  0  0  0  0  0  0 
    0.5493    0.7351    0.0691 H   0  0  0  0  0  0  0  0  0  0  0  0 
    0.6269   -0.8959    0.7716 H   0  0  0  0  0  0  0  0  0  0  0  0 
    6.1537   -3.8125    0.0664 H   0  0  0  0  0  0  0  0  0  0  0  0 
    3.8033   -4.5831    0.0835 H   0  0  0  0  0  0  0  0  0  0  0  0 
    6.6979   -1.3933   -0.0006 H   0  0  0  0  0  0  0  0  0  0  0  0 
    1.9248   -2.9670    0.0412 H   0  0  0  0  0  0  0  0  0  0  0  0 
    5.3899    1.3104   -0.0278 H   0  0  0  0  0  0  0  0  0  0  0  0 
    4.2826    2.9150   -0.8880 H   0  0  0  0  0  0  0  0  0  0  0  0 
  1 11  1  0  0  0  0 
  1 15  1  0  0  0  0 
  1 16  1  0  0  0  0 
  2  3  1  0  0  0  0 
  2 17  1  0  0  0  0 
  3 18  1  0  0  0  0 
  4  2  2  0  0  0  0 
  5 20  1  0  0  0  0 
  5  3  2  0  0  0  0 
  6 21  1  0  0  0  0 
  6  7  1  0  0  0  0 
  7  8  2  0  0  0  0 
  7  4  1  0  0  0  0 
  8  5  1  0  0  0  0 
  9  6  2  0  0  0  0 
  9 10  1  0  0  0  0 
  9 11  1  0  0  0  0 
 10 12  2  0  0  0  0 
 11  8  1  0  0  0  0 
 13 10  1  0  0  0  0 
 14  1  1  0  0  0  0 
 19  4  1  0  0  0  0 
 22 13  1  0  0  0  0 
M  END 
>  <HBA> 
3 
 
>  <HBD> 
1 
 
>  <TPSA> 
42.23 
 
>  <cid> 
27695 
 
>  <dipole> 
3.44 
 
>  <excitation_energy_1> 
3.992 
 
>  <excitation_energy_2> 
4.414 
 
>  <excitation_energy_3> 
4.837 
 
>  <excitation_energy_4> 
5.232 
 
>  <homo_energy> 
-5.951 
 
>  <homo_lumo_gap> 
4.517 
 
>  <logP> 
1.877 
 
>  <lumo_energy> 
-1.434 
 
>  <melting_point> 
143.15 
 
>  <molecular_refractivity> 
50.16 
 
>  <oscillator_strength_1> 
0.0758 
 
>  <oscillator_strength_2> 
0.2944 
 
>  <oscillator_strength_3> 
0.0038 
 
>  <oscillator_strength_4> 
0.0084 
 
>  <open_babel_can_smiles> 
OC(=O)c1cc2c(n1C)cccc2 
 
>  <mulliken_charges> 
22 
1   -0.351909 
2   -0.138245 
3   -0.145684 
4   -0.199924 
5   -0.168312 
6   -0.287159 
7   0.108749 
8   0.324219 
9   0.232829 
10   0.577095 
11   -0.566526 
12   -0.463437 
13   -0.574028 
14   0.167217 
15   0.227174 
16   0.170785 
17   0.129261 
18   0.132021 
19   0.131955 
20   0.135504 
21   0.143753 
22   0.414659 
 
>  <lowdin_charges> 
22 
1   -0.359281 
2   -0.171644 
3   -0.15018 
4   -0.152678 
5   -0.18388 
6   -0.221425 
7   -0.025928 
8   0.034467 
9   -0.027792 
10   0.19097 
11   -0.01147 
12   -0.249743 
13   -0.352036 
14   0.157365 
15   0.195096 
16   0.16301 
17   0.159855 
18   0.158351 
19   0.158918 
20   0.161777 
21   0.165425 
22   0.360822 
 
$$$$ 
 
