PCCDB-ID:  65098 
public computational chemistry database (PCCDB) project, http://pccdb.org 
 
 19 18  0  0  1  0  0  0  0  0999 V2000 
    1.0280   -0.0525   -0.0070 C   0  0  0  0  0  0  0  0  0  0  0  0 
    2.5303    0.2046   -0.1670 C   0  0  0  0  0  0  0  0  0  0  0  0 
    2.8278    1.6063   -0.7161 C   0  0  0  0  0  0  0  0  0  0  0  0 
    4.3194    1.9234   -0.9220 C   0  0  2  0  0  0  0  0  0  0  0  0 
    4.9526    1.0252   -2.0116 C   0  0  0  0  0  0  0  0  0  0  0  0 
    5.1805    1.8846    0.2777 N   0  0  0  0  0  0  0  0  0  0  0  0 
    4.3481    0.6395   -2.9853 O   0  0  0  0  0  0  0  0  0  0  0  0 
    6.2483    0.7508   -1.7956 O   0  0  0  0  0  0  0  0  0  0  0  0 
    0.5118    0.0292   -0.9706 H   0  0  0  0  0  0  0  0  0  0  0  0 
    0.8372   -1.0556    0.3900 H   0  0  0  0  0  0  0  0  0  0  0  0 
    0.5701    0.6712    0.6787 H   0  0  0  0  0  0  0  0  0  0  0  0 
    2.9590   -0.5440   -0.8444 H   0  0  0  0  0  0  0  0  0  0  0  0 
    3.0172    0.0641    0.8102 H   0  0  0  0  0  0  0  0  0  0  0  0 
    2.4007    2.3658   -0.0459 H   0  0  0  0  0  0  0  0  0  0  0  0 
    2.3327    1.7207   -1.6867 H   0  0  0  0  0  0  0  0  0  0  0  0 
    4.3976    2.9431   -1.3233 H   0  0  0  0  0  0  0  0  0  0  0  0 
    5.0955    2.7422    0.8178 H   0  0  0  0  0  0  0  0  0  0  0  0 
    4.9055    1.1186    0.8907 H   0  0  0  0  0  0  0  0  0  0  0  0 
    6.4506    1.1681   -0.9204 H   0  0  0  0  0  0  0  0  0  0  0  0 
  1 10  1  0  0  0  0 
  1 11  1  0  0  0  0 
  2  1  1  0  0  0  0 
  2 13  1  0  0  0  0 
  3  2  1  0  0  0  0 
  3 14  1  0  0  0  0 
  4 16  1  6  0  0  0 
  4  3  1  0  0  0  0 
  4  6  1  0  0  0  0 
  5  8  1  0  0  0  0 
  5  4  1  0  0  0  0 
  6 17  1  0  0  0  0 
  6 18  1  0  0  0  0 
  7  5  2  0  0  0  0 
  8 19  1  0  0  0  0 
  9  1  1  0  0  0  0 
 12  2  1  0  0  0  0 
 15  3  1  0  0  0  0 
M  END 
>  <HBA> 
3 
 
>  <HBD> 
2 
 
>  <TPSA> 
63.32 
 
>  <cid> 
65098 
 
>  <dipole> 
5.18 
 
>  <excitation_energy_1> 
5.412 
 
>  <excitation_energy_2> 
6.146 
 
>  <excitation_energy_3> 
6.655 
 
>  <excitation_energy_4> 
6.829 
 
>  <homo_energy> 
-6.838 
 
>  <homo_lumo_gap> 
7.249 
 
>  <logP> 
0.899 
 
>  <lumo_energy> 
0.411 
 
>  <melting_point> 
105.51 
 
>  <molecular_refractivity> 
30.63 
 
>  <oscillator_strength_1> 
0.0029 
 
>  <oscillator_strength_2> 
0.0136 
 
>  <oscillator_strength_3> 
0.0205 
 
>  <oscillator_strength_4> 
0.0075 
 
>  <open_babel_can_smiles> 
CCC[C@H](C(=O)O)N 
 
>  <mulliken_charges> 
19 
1   -0.443553 
2   -0.268 
3   -0.250048 
4   -0.098387 
5   0.613039 
6   -0.773436 
7   -0.470039 
8   -0.581759 
9   0.154361 
10   0.147568 
11   0.140341 
12   0.165801 
13   0.114146 
14   0.124428 
15   0.169306 
16   0.174976 
17   0.323095 
18   0.326099 
19   0.432061 
 
>  <lowdin_charges> 
19 
1   -0.442107 
2   -0.280424 
3   -0.285192 
4   -0.110804 
5   0.175393 
6   -0.550538 
7   -0.260353 
8   -0.356667 
9   0.153001 
10   0.152127 
11   0.146924 
12   0.157218 
13   0.128491 
14   0.140718 
15   0.165498 
16   0.167707 
17   0.272197 
18   0.267675 
19   0.359135 
 
$$$$ 
 
