PCCDB-ID:  37166 
public computational chemistry database (PCCDB) project, http://pccdb.org 
 
 20 19  0  0  0  0  0  0  0  0999 V2000 
    1.6581    1.1204   -0.2342 C   0  0  0  0  0  0  0  0  0  0  0  0 
    7.2864   -3.4164    0.8747 C   0  0  0  0  0  0  0  0  0  0  0  0 
    4.1769   -0.1501    1.2889 C   0  0  0  0  0  0  0  0  0  0  0  0 
    5.5926   -0.7067    1.0769 C   0  0  0  0  0  0  0  0  0  0  0  0 
    2.7424    1.6631    0.6004 N   0  0  0  0  0  0  0  0  0  0  0  0 
    7.1007   -2.3927    1.9160 N   0  0  0  0  0  0  0  0  0  0  0  0 
    3.9165    0.8975    0.4794 N   0  0  0  0  0  0  0  0  0  0  0  0 
    5.8276   -1.7997    1.8321 N   0  0  0  0  0  0  0  0  0  0  0  0 
    3.3977   -0.6137    2.1210 O   0  0  0  0  0  0  0  0  0  0  0  0 
    6.4047   -0.1847    0.3135 O   0  0  0  0  0  0  0  0  0  0  0  0 
    0.7617    1.7178   -0.0402 H   0  0  0  0  0  0  0  0  0  0  0  0 
    1.4390    0.0628   -0.0335 H   0  0  0  0  0  0  0  0  0  0  0  0 
    1.9258    1.2364   -1.2885 H   0  0  0  0  0  0  0  0  0  0  0  0 
    8.3139   -3.7852    0.9539 H   0  0  0  0  0  0  0  0  0  0  0  0 
    7.1139   -3.0412   -0.1433 H   0  0  0  0  0  0  0  0  0  0  0  0 
    6.6066   -4.2513    1.0685 H   0  0  0  0  0  0  0  0  0  0  0  0 
    2.4675    1.5859    1.5803 H   0  0  0  0  0  0  0  0  0  0  0  0 
    7.7647   -1.6358    1.7492 H   0  0  0  0  0  0  0  0  0  0  0  0 
    4.6789    1.2885   -0.0616 H   0  0  0  0  0  0  0  0  0  0  0  0 
    5.1415   -2.0582    2.5317 H   0  0  0  0  0  0  0  0  0  0  0  0 
  1 11  1  0  0  0  0 
  1 12  1  0  0  0  0 
  1  5  1  0  0  0  0 
  2 14  1  0  0  0  0 
  2 16  1  0  0  0  0 
  2  6  1  0  0  0  0 
  3  9  2  0  0  0  0 
  4  3  1  0  0  0  0 
  4  8  1  0  0  0  0 
  5 17  1  0  0  0  0 
  7  5  1  0  0  0  0 
  7  3  1  0  0  0  0 
  8  6  1  0  0  0  0 
  8 20  1  0  0  0  0 
 10  4  2  0  0  0  0 
 13  1  1  0  0  0  0 
 15  2  1  0  0  0  0 
 18  6  1  0  0  0  0 
 19  7  1  0  0  0  0 
M  END 
>  <HBA> 
6 
 
>  <HBD> 
4 
 
>  <TPSA> 
82.26 
 
>  <cid> 
37166 
 
>  <dipole> 
0.97 
 
>  <excitation_energy_1> 
4.097 
 
>  <excitation_energy_2> 
4.792 
 
>  <excitation_energy_3> 
4.883 
 
>  <excitation_energy_4> 
5.857 
 
>  <homo_energy> 
-6.416 
 
>  <homo_lumo_gap> 
5.312 
 
>  <logP> 
-0.949 
 
>  <lumo_energy> 
-1.105 
 
>  <melting_point> 
126.26 
 
>  <molecular_refractivity> 
32.95 
 
>  <oscillator_strength_1> 
0.0004 
 
>  <oscillator_strength_2> 
0.1311 
 
>  <oscillator_strength_3> 
0.0009 
 
>  <oscillator_strength_4> 
0.0006 
 
>  <open_babel_can_smiles> 
CNNC(=O)C(=O)NNC 
 
>  <mulliken_charges> 
20 
1   -0.298408 
2   -0.298543 
3   0.555414 
4   0.555587 
5   -0.408153 
6   -0.407992 
7   -0.47853 
8   -0.478822 
9   -0.544971 
10   -0.544941 
11   0.158607 
12   0.159076 
13   0.162489 
14   0.15855 
15   0.159309 
16   0.162465 
17   0.328733 
18   0.328648 
19   0.36576 
20   0.365723 
 
>  <lowdin_charges> 
20 
1   -0.360668 
2   -0.361152 
3   0.117965 
4   0.118345 
5   -0.27375 
6   -0.275866 
7   -0.190491 
8   -0.191886 
9   -0.320759 
10   -0.320835 
11   0.158466 
12   0.143619 
13   0.153392 
14   0.157047 
15   0.144264 
16   0.155376 
17   0.266833 
18   0.26929 
19   0.305434 
20   0.305377 
 
$$$$ 
 
