PCCDB-ID:  39454 
public computational chemistry database (PCCDB) project, http://pccdb.org 
 
 29 31  0  0  0  0  0  0  0  0999 V2000 
    3.6756   -0.0647    0.9956 C   0  0  0  0  0  0  0  0  0  0  0  0 
    3.6939    1.0286   -0.0759 C   0  0  0  0  0  0  0  0  0  0  0  0 
   -3.7710   -0.0359    0.7008 C   0  0  0  0  0  0  0  0  0  0  0  0 
   -3.4288    1.2900    0.4471 C   0  0  0  0  0  0  0  0  0  0  0  0 
    2.7879   -1.2336    0.5527 C   0  0  0  0  0  0  0  0  0  0  0  0 
    2.2796    1.5804   -0.2899 C   0  0  0  0  0  0  0  0  0  0  0  0 
   -2.8531   -1.0461    0.4134 C   0  0  0  0  0  0  0  0  0  0  0  0 
   -2.1666    1.5908   -0.0700 C   0  0  0  0  0  0  0  0  0  0  0  0 
    0.5038   -1.8666   -0.3259 C   0  0  0  0  0  0  0  0  0  0  0  0 
    1.4562   -0.7886   -0.0286 C   0  0  0  0  0  0  0  0  0  0  0  0 
    1.2276    0.4980   -0.3885 C   0  0  0  0  0  0  0  0  0  0  0  0 
   -1.5828   -0.7665   -0.1080 C   0  0  0  0  0  0  0  0  0  0  0  0 
   -1.2422    0.5819   -0.3520 C   0  0  0  0  0  0  0  0  0  0  0  0 
   -0.7771   -1.8868   -0.4008 N   0  0  0  0  0  0  0  0  0  0  0  0 
    0.0084    0.9313   -0.9362 N   0  0  0  0  0  0  0  0  0  0  0  0 
    3.2894    0.3561    1.9344 H   0  0  0  0  0  0  0  0  0  0  0  0 
    4.6906   -0.4236    1.2032 H   0  0  0  0  0  0  0  0  0  0  0  0 
    4.0690    0.6082   -1.0188 H   0  0  0  0  0  0  0  0  0  0  0  0 
    4.3717    1.8442    0.2018 H   0  0  0  0  0  0  0  0  0  0  0  0 
   -4.7493   -0.2871    1.1005 H   0  0  0  0  0  0  0  0  0  0  0  0 
   -4.1343    2.0924    0.6444 H   0  0  0  0  0  0  0  0  0  0  0  0 
    2.6118   -1.9049    1.4046 H   0  0  0  0  0  0  0  0  0  0  0  0 
    3.3257   -1.8412   -0.1936 H   0  0  0  0  0  0  0  0  0  0  0  0 
    2.2452    2.1904   -1.2052 H   0  0  0  0  0  0  0  0  0  0  0  0 
    2.0090    2.2594    0.5341 H   0  0  0  0  0  0  0  0  0  0  0  0 
   -3.1019   -2.0910    0.5715 H   0  0  0  0  0  0  0  0  0  0  0  0 
   -1.8941    2.6264   -0.2664 H   0  0  0  0  0  0  0  0  0  0  0  0 
    0.9842   -2.8352   -0.5139 H   0  0  0  0  0  0  0  0  0  0  0  0 
    0.0328    1.9061   -1.2105 H   0  0  0  0  0  0  0  0  0  0  0  0 
  1 17  1  0  0  0  0 
  1 16  1  0  0  0  0 
  2 19  1  0  0  0  0 
  2  1  1  0  0  0  0 
  3 20  1  0  0  0  0 
  4 21  1  0  0  0  0 
  4  3  1  0  0  0  0 
  5  1  1  0  0  0  0 
  5 22  1  0  0  0  0 
  6  2  1  0  0  0  0 
  6 25  1  0  0  0  0 
  7 26  1  0  0  0  0 
  7  3  2  0  0  0  0 
  8  4  2  0  0  0  0 
  9 10  1  0  0  0  0 
 10  5  1  0  0  0  0 
 11  6  1  0  0  0  0 
 11 10  2  0  0  0  0 
 12  7  1  0  0  0  0 
 13 12  2  0  0  0  0 
 13  8  1  0  0  0  0 
 14  9  2  0  0  0  0 
 14 12  1  0  0  0  0 
 15 11  1  0  0  0  0 
 15 13  1  0  0  0  0 
 18  2  1  0  0  0  0 
 23  5  1  0  0  0  0 
 24  6  1  0  0  0  0 
 27  8  1  0  0  0  0 
 28  9  1  0  0  0  0 
 29 15  1  0  0  0  0 
M  END 
>  <HBA> 
2 
 
>  <HBD> 
1 
 
>  <TPSA> 
24.39 
 
>  <cid> 
39454 
 
>  <dipole> 
3.64 
 
>  <excitation_energy_1> 
2.863 
 
>  <excitation_energy_2> 
3.979 
 
>  <excitation_energy_3> 
4.196 
 
>  <excitation_energy_4> 
4.367 
 
>  <homo_energy> 
-4.972 
 
>  <homo_lumo_gap> 
3.845 
 
>  <logP> 
3.216 
 
>  <lumo_energy> 
-1.127 
 
>  <melting_point> 
122.58 
 
>  <molecular_refractivity> 
70.55 
 
>  <oscillator_strength_1> 
0.009 
 
>  <oscillator_strength_2> 
0.0049 
 
>  <oscillator_strength_3> 
0.0298 
 
>  <oscillator_strength_4> 
0.0021 
 
>  <open_babel_can_smiles> 
C1CCC2=C(C1)C=Nc1c(N2)cccc1 
 
>  <mulliken_charges> 
29 
1   -0.269577 
2   -0.264093 
3   -0.1357 
4   -0.133576 
5   -0.334823 
6   -0.35367 
7   -0.161036 
8   -0.198015 
9   -0.002764 
10   0.078372 
11   0.27613 
12   0.250821 
13   0.290543 
14   -0.464396 
15   -0.696882 
16   0.139981 
17   0.137321 
18   0.144806 
19   0.137995 
20   0.12694 
21   0.127315 
22   0.148415 
23   0.1443 
24   0.148596 
25   0.159987 
26   0.1396 
27   0.116556 
28   0.129993 
29   0.316861 
 
>  <lowdin_charges> 
29 
1   -0.274428 
2   -0.275092 
3   -0.168326 
4   -0.156705 
5   -0.270796 
6   -0.285119 
7   -0.149771 
8   -0.192143 
9   -0.063405 
10   -0.108674 
11   0.061793 
12   0.021513 
13   0.041939 
14   -0.160018 
15   -0.267102 
16   0.143545 
17   0.147207 
18   0.146249 
19   0.149205 
20   0.157446 
21   0.158628 
22   0.151737 
23   0.146826 
24   0.152493 
25   0.156852 
26   0.165751 
27   0.149945 
28   0.148139 
29   0.272311 
 
$$$$ 
 
