PCCDB-ID:  72925 
public computational chemistry database (PCCDB) project, http://pccdb.org 
 
 16 16  0  0  0  0  0  0  0  0999 V2000 
   -1.4071   -0.0548   -0.0412 C   0  0  0  0  0  0  0  0  0  0  0  0 
   -0.7872    1.1854   -0.0043 C   0  0  0  0  0  0  0  0  0  0  0  0 
    0.7621   -1.0487   -0.1500 C   0  0  0  0  0  0  0  0  0  0  0  0 
   -0.6282   -1.2212   -0.1078 C   0  0  0  0  0  0  0  0  0  0  0  0 
    0.6179    1.2238   -0.0464 C   0  0  0  0  0  0  0  0  0  0  0  0 
   -1.2356   -2.5824   -0.1184 C   0  0  0  0  0  0  0  0  0  0  0  0 
   -0.7960   -3.6291    0.4538 N   0  0  0  0  0  0  0  0  0  0  0  0 
    1.3772    0.1333   -0.1236 N   0  0  0  0  0  0  0  0  0  0  0  0 
    1.3116    2.3869   -0.0130 O   0  0  0  0  0  0  0  0  0  0  0  0 
   -2.4151   -2.6909   -0.8020 O   0  0  0  0  0  0  0  0  0  0  0  0 
   -2.4910   -0.1209    0.0095 H   0  0  0  0  0  0  0  0  0  0  0  0 
   -1.3714    2.0997    0.0627 H   0  0  0  0  0  0  0  0  0  0  0  0 
    1.4114   -1.9196   -0.2280 H   0  0  0  0  0  0  0  0  0  0  0  0 
    0.0343   -3.4055    1.0041 H   0  0  0  0  0  0  0  0  0  0  0  0 
    0.6901    3.1294    0.0477 H   0  0  0  0  0  0  0  0  0  0  0  0 
   -2.4905   -1.9476   -1.4201 H   0  0  0  0  0  0  0  0  0  0  0  0 
  1  2  2  0  0  0  0 
  1 11  1  0  0  0  0 
  2 12  1  0  0  0  0 
  3  8  1  0  0  0  0 
  3  4  2  0  0  0  0 
  4  1  1  0  0  0  0 
  5  9  1  0  0  0  0 
  5  2  1  0  0  0  0 
  6  4  1  0  0  0  0 
  6  7  2  0  0  0  0 
  7 14  1  0  0  0  0 
  8  5  2  0  0  0  0 
  9 15  1  0  0  0  0 
 10  6  1  0  0  0  0 
 13  3  1  0  0  0  0 
 16 10  1  0  0  0  0 
M  END 
>  <HBA> 
3 
 
>  <HBD> 
2 
 
>  <TPSA> 
75.95 
 
>  <cid> 
72925 
 
>  <dipole> 
5.36 
 
>  <excitation_energy_1> 
4.74 
 
>  <excitation_energy_2> 
4.97 
 
>  <excitation_energy_3> 
5.052 
 
>  <excitation_energy_4> 
5.241 
 
>  <homo_energy> 
-6.738 
 
>  <homo_lumo_gap> 
5.467 
 
>  <logP> 
0.174 
 
>  <lumo_energy> 
-1.271 
 
>  <melting_point> 
175.84 
 
>  <molecular_refractivity> 
35.16 
 
>  <oscillator_strength_1> 
0.0473 
 
>  <oscillator_strength_2> 
0.0069 
 
>  <oscillator_strength_3> 
0.0389 
 
>  <oscillator_strength_4> 
0.106 
 
>  <open_babel_can_smiles> 
Oc1ccc(cn1)C(=N)O 
 
>  <mulliken_charges> 
16 
1   -0.152166 
2   -0.200871 
3   0.004515 
4   0.036557 
5   0.505617 
6   0.41986 
7   -0.575505 
8   -0.445255 
9   -0.586791 
10   -0.576507 
11   0.159813 
12   0.139694 
13   0.162233 
14   0.290002 
15   0.413712 
16   0.405092 
 
>  <lowdin_charges> 
16 
1   -0.125076 
2   -0.222062 
3   -0.070911 
4   -0.090276 
5   0.143844 
6   0.12579 
7   -0.383232 
8   -0.148227 
9   -0.34377 
10   -0.365839 
11   0.168344 
12   0.164784 
13   0.16742 
14   0.260711 
15   0.362772 
16   0.35573 
 
$$$$ 
 
