PCCDB-ID:  23019 
public computational chemistry database (PCCDB) project, http://pccdb.org 
 
 31 31  0  0  0  0  0  0  0  0999 V2000 
    0.2265    0.1907   -0.0041 C   0  0  0  0  0  0  0  0  0  0  0  0 
    1.7335    0.3592   -0.2198 C   0  0  0  0  0  0  0  0  0  0  0  0 
    2.4390    1.0403    0.9604 C   0  0  0  0  0  0  0  0  0  0  0  0 
    3.9495    1.2052    0.7463 C   0  0  0  0  0  0  0  0  0  0  0  0 
    9.2630    0.4541    1.9442 C   0  0  0  0  0  0  0  0  0  0  0  0 
    8.6888    2.6746    1.1769 C   0  0  0  0  0  0  0  0  0  0  0  0 
   10.6061    0.7117    1.6984 C   0  0  0  0  0  0  0  0  0  0  0  0 
   10.0284    2.9411    0.9274 C   0  0  0  0  0  0  0  0  0  0  0  0 
    4.6262    1.8865    1.9318 C   0  0  0  0  0  0  0  0  0  0  0  0 
    8.2895    1.4288    1.6880 C   0  0  0  0  0  0  0  0  0  0  0  0 
   10.9926    1.9584    1.1884 C   0  0  0  0  0  0  0  0  0  0  0  0 
    6.8723    1.0918    1.9745 C   0  0  0  0  0  0  0  0  0  0  0  0 
   12.2922    2.2728    0.9255 O   0  0  0  0  0  0  0  0  0  0  0  0 
    6.4980    0.0224    2.4211 O   0  0  0  0  0  0  0  0  0  0  0  0 
    6.0314    2.1156    1.6858 O   0  0  0  0  0  0  0  0  0  0  0  0 
   -0.2483   -0.2963   -0.8634 H   0  0  0  0  0  0  0  0  0  0  0  0 
   -0.2645    1.1608    0.1419 H   0  0  0  0  0  0  0  0  0  0  0  0 
    0.0186   -0.4214    0.8822 H   0  0  0  0  0  0  0  0  0  0  0  0 
    1.9111    0.9443   -1.1332 H   0  0  0  0  0  0  0  0  0  0  0  0 
    2.1924   -0.6239   -0.3946 H   0  0  0  0  0  0  0  0  0  0  0  0 
    2.2607    0.4542    1.8739 H   0  0  0  0  0  0  0  0  0  0  0  0 
    1.9808    2.0254    1.1355 H   0  0  0  0  0  0  0  0  0  0  0  0 
    4.1386    1.7971   -0.1592 H   0  0  0  0  0  0  0  0  0  0  0  0 
    4.4139    0.2236    0.5953 H   0  0  0  0  0  0  0  0  0  0  0  0 
    8.9458   -0.5057    2.3384 H   0  0  0  0  0  0  0  0  0  0  0  0 
    7.9402    3.4325    0.9754 H   0  0  0  0  0  0  0  0  0  0  0  0 
   11.3568   -0.0505    1.8996 H   0  0  0  0  0  0  0  0  0  0  0  0 
   10.3502    3.8990    0.5319 H   0  0  0  0  0  0  0  0  0  0  0  0 
    4.5188    1.2886    2.8408 H   0  0  0  0  0  0  0  0  0  0  0  0 
    4.2125    2.8844    2.1041 H   0  0  0  0  0  0  0  0  0  0  0  0 
   12.8545    1.5139    1.1474 H   0  0  0  0  0  0  0  0  0  0  0  0 
  1 17  1  0  0  0  0 
  1 18  1  0  0  0  0 
  2  1  1  0  0  0  0 
  2  3  1  0  0  0  0 
  3 22  1  0  0  0  0 
  3 21  1  0  0  0  0 
  4  3  1  0  0  0  0 
  4  9  1  0  0  0  0 
  5 25  1  0  0  0  0 
  6 10  1  0  0  0  0 
  7 27  1  0  0  0  0 
  7  5  1  0  0  0  0 
  8  6  2  0  0  0  0 
  8 11  1  0  0  0  0 
  9 30  1  0  0  0  0 
  9 29  1  0  0  0  0 
 10  5  2  0  0  0  0 
 10 12  1  0  0  0  0 
 11  7  2  0  0  0  0 
 12 14  2  0  0  0  0 
 13 31  1  0  0  0  0 
 13 11  1  0  0  0  0 
 15  9  1  0  0  0  0 
 15 12  1  0  0  0  0 
 16  1  1  0  0  0  0 
 19  2  1  0  0  0  0 
 20  2  1  0  0  0  0 
 23  4  1  0  0  0  0 
 24  4  1  0  0  0  0 
 26  6  1  0  0  0  0 
 28  8  1  0  0  0  0 
M  END 
>  <HBA> 
3 
 
>  <HBD> 
1 
 
>  <TPSA> 
46.53 
 
>  <cid> 
23019 
 
>  <dipole> 
1.15 
 
>  <excitation_energy_1> 
4.936 
 
>  <excitation_energy_2> 
4.987 
 
>  <excitation_energy_3> 
5.024 
 
>  <excitation_energy_4> 
5.433 
 
>  <homo_energy> 
-6.289 
 
>  <homo_lumo_gap> 
5.393 
 
>  <logP> 
2.739 
 
>  <lumo_energy> 
-0.895 
 
>  <melting_point> 
67.58 
 
>  <molecular_refractivity> 
58.97 
 
>  <oscillator_strength_1> 
0.0035 
 
>  <oscillator_strength_2> 
0.0144 
 
>  <oscillator_strength_3> 
0.3749 
 
>  <oscillator_strength_4> 
0.0002 
 
>  <open_babel_can_smiles> 
CCCCCOC(=O)c1ccc(cc1)O 
 
>  <mulliken_charges> 
31 
1   -0.442781 
2   -0.246352 
3   -0.257704 
4   -0.278445 
5   -0.159068 
6   -0.165171 
7   -0.202621 
8   -0.165693 
9   -0.040636 
10   0.045399 
11   0.362389 
12   0.59319 
13   -0.633984 
14   -0.50208 
15   -0.487474 
16   0.143531 
17   0.141288 
18   0.143395 
19   0.131946 
20   0.136118 
21   0.136381 
22   0.127551 
23   0.139967 
24   0.161212 
25   0.165114 
26   0.158023 
27   0.126446 
28   0.145908 
29   0.166626 
30   0.145929 
31   0.411596 
 
>  <lowdin_charges> 
31 
1   -0.445666 
2   -0.270262 
3   -0.273897 
4   -0.287249 
5   -0.117476 
6   -0.127817 
7   -0.216269 
8   -0.186778 
9   -0.129055 
10   -0.066227 
11   0.117525 
12   0.195723 
13   -0.36872 
14   -0.282913 
15   -0.195961 
16   0.151162 
17   0.146047 
18   0.147688 
19   0.139875 
20   0.141523 
21   0.141938 
22   0.13702 
23   0.145532 
24   0.155825 
25   0.178145 
26   0.174966 
27   0.157709 
28   0.170225 
29   0.157404 
30   0.148783 
31   0.3612 
 
$$$$ 
 
