PCCDB-ID:  37566 
public computational chemistry database (PCCDB) project, http://pccdb.org 
 
 32 32  0  0  0  0  0  0  0  0999 V2000 
    5.9157    5.8201    1.7069 C   0  0  0  0  0  0  0  0  0  0  0  0 
    4.7614    6.5734   -0.2576 C   0  0  0  0  0  0  0  0  0  0  0  0 
    8.8371    1.5635   -4.6357 C   0  0  0  0  0  0  0  0  0  0  0  0 
    9.5103    1.7368   -3.4238 C   0  0  0  0  0  0  0  0  0  0  0  0 
    7.5819    0.9551   -4.6460 C   0  0  0  0  0  0  0  0  0  0  0  0 
    8.9331    1.3023   -2.2312 C   0  0  0  0  0  0  0  0  0  0  0  0 
    7.0039    0.5216   -3.4509 C   0  0  0  0  0  0  0  0  0  0  0  0 
    5.4548    4.2617   -0.0983 C   0  0  0  0  0  0  0  0  0  0  0  0 
    5.1666    2.9793    0.6846 C   0  0  0  0  0  0  0  0  0  0  0  0 
    7.0495    0.2062   -0.9317 C   0  0  0  0  0  0  0  0  0  0  0  0 
    7.6742    0.6854   -2.2341 C   0  0  0  0  0  0  0  0  0  0  0  0 
    6.7906    1.3694    0.0130 C   0  0  0  0  0  0  0  0  0  0  0  0 
    5.0017    5.4441    0.6326 N   0  0  0  0  0  0  0  0  0  0  0  0 
    7.6206    1.8467    0.7575 O   0  0  0  0  0  0  0  0  0  0  0  0 
    5.5233    1.8233   -0.1081 O   0  0  0  0  0  0  0  0  0  0  0  0 
    5.4909    6.6583    2.2695 H   0  0  0  0  0  0  0  0  0  0  0  0 
    6.9143    6.1235    1.3362 H   0  0  0  0  0  0  0  0  0  0  0  0 
    6.0555    4.9884    2.4032 H   0  0  0  0  0  0  0  0  0  0  0  0 
    4.3616    7.4140    0.3203 H   0  0  0  0  0  0  0  0  0  0  0  0 
    4.0194    6.2995   -1.0150 H   0  0  0  0  0  0  0  0  0  0  0  0 
    5.6738    6.9245   -0.7786 H   0  0  0  0  0  0  0  0  0  0  0  0 
    9.2883    1.9020   -5.5646 H   0  0  0  0  0  0  0  0  0  0  0  0 
   10.4874    2.2124   -3.4067 H   0  0  0  0  0  0  0  0  0  0  0  0 
    7.0483    0.8185   -5.5830 H   0  0  0  0  0  0  0  0  0  0  0  0 
    9.4523    1.4469   -1.2876 H   0  0  0  0  0  0  0  0  0  0  0  0 
    6.0244    0.0495   -3.4640 H   0  0  0  0  0  0  0  0  0  0  0  0 
    4.9041    4.2060   -1.0437 H   0  0  0  0  0  0  0  0  0  0  0  0 
    6.5306    4.3054   -0.3506 H   0  0  0  0  0  0  0  0  0  0  0  0 
    4.0958    2.8845    0.8740 H   0  0  0  0  0  0  0  0  0  0  0  0 
    5.7139    2.9408    1.6281 H   0  0  0  0  0  0  0  0  0  0  0  0 
    7.7310   -0.4772   -0.4141 H   0  0  0  0  0  0  0  0  0  0  0  0 
    6.1124   -0.3192   -1.1322 H   0  0  0  0  0  0  0  0  0  0  0  0 
  1 16  1  0  0  0  0 
  1 18  1  0  0  0  0 
  2 19  1  0  0  0  0 
  2 13  1  0  0  0  0 
  3  4  1  0  0  0  0 
  4 23  1  0  0  0  0 
  4  6  2  0  0  0  0 
  5  3  2  0  0  0  0 
  5  7  1  0  0  0  0 
  6 25  1  0  0  0  0 
  7 11  2  0  0  0  0 
  8 13  1  0  0  0  0 
  8  9  1  0  0  0  0 
  9 29  1  0  0  0  0 
  9 30  1  0  0  0  0 
 10 31  1  0  0  0  0 
 10 12  1  0  0  0  0 
 11  6  1  0  0  0  0 
 11 10  1  0  0  0  0 
 12 14  2  0  0  0  0 
 13  1  1  0  0  0  0 
 15 12  1  0  0  0  0 
 15  9  1  0  0  0  0 
 17  1  1  0  0  0  0 
 20  2  1  0  0  0  0 
 21  2  1  0  0  0  0 
 22  3  1  0  0  0  0 
 24  5  1  0  0  0  0 
 26  7  1  0  0  0  0 
 27  8  1  0  0  0  0 
 28  8  1  0  0  0  0 
 32 10  1  0  0  0  0 
M  END 
>  <HBA> 
3 
 
>  <HBD> 
0 
 
>  <TPSA> 
29.54 
 
>  <cid> 
37566 
 
>  <dipole> 
1.48 
 
>  <excitation_energy_1> 
4.918 
 
>  <excitation_energy_2> 
5.203 
 
>  <excitation_energy_3> 
5.262 
 
>  <excitation_energy_4> 
5.455 
 
>  <homo_energy> 
-5.837 
 
>  <homo_lumo_gap> 
5.6 
 
>  <logP> 
1.334 
 
>  <lumo_energy> 
-0.237 
 
>  <melting_point> 
18.91 
 
>  <molecular_refractivity> 
59.62 
 
>  <oscillator_strength_1> 
0.0023 
 
>  <oscillator_strength_2> 
0.0008 
 
>  <oscillator_strength_3> 
0.0002 
 
>  <oscillator_strength_4> 
0.0437 
 
>  <open_babel_can_smiles> 
CN(CCOC(=O)Cc1ccccc1)C 
 
>  <mulliken_charges> 
32 
1   -0.303455 
2   -0.295247 
3   -0.128998 
4   -0.129407 
5   -0.128592 
6   -0.171103 
7   -0.180593 
8   -0.137836 
9   -0.054258 
10   -0.420101 
11   0.147328 
12   0.622047 
13   -0.37549 
14   -0.475431 
15   -0.461278 
16   0.149685 
17   0.125417 
18   0.156625 
19   0.148962 
20   0.150273 
21   0.121672 
22   0.129713 
23   0.132119 
24   0.130224 
25   0.151146 
26   0.127423 
27   0.147707 
28   0.139199 
29   0.161368 
30   0.171415 
31   0.181275 
32   0.168192 
 
>  <lowdin_charges> 
32 
1   -0.358494 
2   -0.357852 
3   -0.158849 
4   -0.151365 
5   -0.155784 
6   -0.162047 
7   -0.163628 
8   -0.208541 
9   -0.135859 
10   -0.294543 
11   -0.002678 
12   0.203433 
13   -0.185239 
14   -0.273356 
15   -0.189198 
16   0.151703 
17   0.12401 
18   0.153115 
19   0.150942 
20   0.150931 
21   0.123072 
22   0.15818 
23   0.158046 
24   0.158256 
25   0.168007 
26   0.155829 
27   0.151052 
28   0.131551 
29   0.156035 
30   0.158525 
31   0.176884 
32   0.167861 
 
$$$$ 
 
