PCCDB-ID:  68315 
public computational chemistry database (PCCDB) project, http://pccdb.org 
 
 22 22  0  0  0  0  0  0  0  0999 V2000 
   -0.8527    1.1197   -0.0185 C   0  0  0  0  0  0  0  0  0  0  0  0 
   -1.4072   -0.1596   -0.0455 C   0  0  0  0  0  0  0  0  0  0  0  0 
    1.3568    0.1752    0.0432 C   0  0  0  0  0  0  0  0  0  0  0  0 
    0.8019   -1.1041    0.0268 C   0  0  0  0  0  0  0  0  0  0  0  0 
    1.1270    2.7042    0.0061 C   0  0  0  0  0  0  0  0  0  0  0  0 
   -1.1750   -2.6883   -0.0832 C   0  0  0  0  0  0  0  0  0  0  0  0 
    0.5342    1.3080    0.0175 C   0  0  0  0  0  0  0  0  0  0  0  0 
   -0.5844   -1.2924   -0.0262 C   0  0  0  0  0  0  0  0  0  0  0  0 
    2.3231    2.7935    0.8534 N   0  0  0  0  0  0  0  0  0  0  0  0 
   -2.4196   -2.7834    0.6905 N   0  0  0  0  0  0  0  0  0  0  0  0 
   -1.5097    1.9876   -0.0247 H   0  0  0  0  0  0  0  0  0  0  0  0 
   -2.4844   -0.2939   -0.0621 H   0  0  0  0  0  0  0  0  0  0  0  0 
    2.4329    0.3095    0.0954 H   0  0  0  0  0  0  0  0  0  0  0  0 
    1.4583   -1.9721    0.0564 H   0  0  0  0  0  0  0  0  0  0  0  0 
    0.3327    3.4262    0.2672 H   0  0  0  0  0  0  0  0  0  0  0  0 
    1.4427    2.9570   -1.0164 H   0  0  0  0  0  0  0  0  0  0  0  0 
   -0.3977   -3.4123    0.2200 H   0  0  0  0  0  0  0  0  0  0  0  0 
   -1.4289   -2.9338   -1.1245 H   0  0  0  0  0  0  0  0  0  0  0  0 
    2.0595    2.6589    1.8287 H   0  0  0  0  0  0  0  0  0  0  0  0 
    2.7221    3.7283    0.7864 H   0  0  0  0  0  0  0  0  0  0  0  0 
   -2.2147   -2.6551    1.6806 H   0  0  0  0  0  0  0  0  0  0  0  0 
   -2.8132   -3.7179    0.5938 H   0  0  0  0  0  0  0  0  0  0  0  0 
  1  7  2  0  0  0  0 
  2  8  2  0  0  0  0 
  2  1  1  0  0  0  0 
  3 13  1  0  0  0  0 
  4  3  2  0  0  0  0 
  4 14  1  0  0  0  0 
  5  7  1  0  0  0  0 
  5 15  1  0  0  0  0 
  5  9  1  0  0  0  0 
  6  8  1  0  0  0  0 
  6 17  1  0  0  0  0 
  6 10  1  0  0  0  0 
  7  3  1  0  0  0  0 
  8  4  1  0  0  0  0 
  9 19  1  0  0  0  0 
 10 21  1  0  0  0  0 
 11  1  1  0  0  0  0 
 12  2  1  0  0  0  0 
 16  5  1  0  0  0  0 
 18  6  1  0  0  0  0 
 20  9  1  0  0  0  0 
 22 10  1  0  0  0  0 
M  END 
>  <HBA> 
2 
 
>  <HBD> 
2 
 
>  <TPSA> 
52.04 
 
>  <cid> 
68315 
 
>  <dipole> 
1.05 
 
>  <excitation_energy_1> 
5.117 
 
>  <excitation_energy_2> 
5.282 
 
>  <excitation_energy_3> 
5.455 
 
>  <excitation_energy_4> 
5.709 
 
>  <homo_energy> 
-5.989 
 
>  <homo_lumo_gap> 
6.169 
 
>  <logP> 
2.005 
 
>  <lumo_energy> 
0.18 
 
>  <melting_point> 
120.49 
 
>  <molecular_refractivity> 
41.79 
 
>  <oscillator_strength_1> 
0.0006 
 
>  <oscillator_strength_2> 
0.09 
 
>  <oscillator_strength_3> 
0.0028 
 
>  <oscillator_strength_4> 
0.0103 
 
>  <open_babel_can_smiles> 
NCc1ccc(cc1)CN 
 
>  <mulliken_charges> 
22 
1   -0.189931 
2   -0.167472 
3   -0.167495 
4   -0.190148 
5   -0.208211 
6   -0.208245 
7   0.145599 
8   0.14581 
9   -0.714931 
10   -0.714875 
11   0.116472 
12   0.146865 
13   0.146933 
14   0.116473 
15   0.120572 
16   0.155975 
17   0.12053 
18   0.155912 
19   0.297585 
20   0.297531 
21   0.297566 
22   0.297484 
 
>  <lowdin_charges> 
22 
1   -0.170238 
2   -0.157745 
3   -0.157863 
4   -0.170257 
5   -0.201958 
6   -0.201728 
7   -0.01847 
8   -0.018433 
9   -0.551886 
10   -0.551651 
11   0.151608 
12   0.165502 
13   0.165547 
14   0.151605 
15   0.124566 
16   0.150741 
17   0.124665 
18   0.150403 
19   0.253476 
20   0.254501 
21   0.253142 
22   0.254473 
 
$$$$ 
 
