PCCDB-ID:  29498 
public computational chemistry database (PCCDB) project, http://pccdb.org 
 
 35 37  0  0  0  0  0  0  0  0999 V2000 
    0.3430    0.1553   -0.6117 C   0  0  0  0  0  0  0  0  0  0  0  0 
    7.0132   -3.3866   -4.9251 C   0  0  0  0  0  0  0  0  0  0  0  0 
    6.2210   -2.2120   -4.9520 C   0  0  0  0  0  0  0  0  0  0  0  0 
    7.6145   -3.8254   -3.7564 C   0  0  0  0  0  0  0  0  0  0  0  0 
    6.0086   -1.4415   -3.8186 C   0  0  0  0  0  0  0  0  0  0  0  0 
    2.6217    1.2011   -1.0506 C   0  0  0  0  0  0  0  0  0  0  0  0 
    2.4788   -1.2197   -0.4246 C   0  0  0  0  0  0  0  0  0  0  0  0 
    4.1160    1.1606   -0.7179 C   0  0  0  0  0  0  0  0  0  0  0  0 
    3.9754   -1.1854   -0.1069 C   0  0  0  0  0  0  0  0  0  0  0  0 
    6.0994   -0.2183   -0.7788 C   0  0  0  0  0  0  0  0  0  0  0  0 
    1.8292    0.1615   -0.2406 C   0  0  0  0  0  0  0  0  0  0  0  0 
    7.4129   -3.0561   -2.5988 C   0  0  0  0  0  0  0  0  0  0  0  0 
    6.6285   -1.8858   -2.6409 C   0  0  0  0  0  0  0  0  0  0  0  0 
    7.8726   -3.2333   -1.3085 N   0  0  0  0  0  0  0  0  0  0  0  0 
    7.4292   -2.2627   -0.5805 N   0  0  0  0  0  0  0  0  0  0  0  0 
    4.6582   -0.1840   -0.9370 N   0  0  0  0  0  0  0  0  0  0  0  0 
    6.6714   -1.4242   -1.3535 N   0  0  0  0  0  0  0  0  0  0  0  0 
   -0.1111    1.1409   -0.4546 H   0  0  0  0  0  0  0  0  0  0  0  0 
   -0.2142   -0.5710   -0.0081 H   0  0  0  0  0  0  0  0  0  0  0  0 
    0.2036   -0.1122   -1.6669 H   0  0  0  0  0  0  0  0  0  0  0  0 
    7.1448   -3.9517   -5.8434 H   0  0  0  0  0  0  0  0  0  0  0  0 
    5.7620   -1.9106   -5.8897 H   0  0  0  0  0  0  0  0  0  0  0  0 
    8.2190   -4.7262   -3.7222 H   0  0  0  0  0  0  0  0  0  0  0  0 
    5.3812   -0.5575   -3.8314 H   0  0  0  0  0  0  0  0  0  0  0  0 
    2.4934    1.0009   -2.1234 H   0  0  0  0  0  0  0  0  0  0  0  0 
    2.2350    2.2107   -0.8598 H   0  0  0  0  0  0  0  0  0  0  0  0 
    1.9889   -1.9620    0.2185 H   0  0  0  0  0  0  0  0  0  0  0  0 
    2.3455   -1.5517   -1.4633 H   0  0  0  0  0  0  0  0  0  0  0  0 
    4.2695    1.4923    0.3291 H   0  0  0  0  0  0  0  0  0  0  0  0 
    4.6635    1.8624   -1.3592 H   0  0  0  0  0  0  0  0  0  0  0  0 
    4.4284   -2.1623   -0.3014 H   0  0  0  0  0  0  0  0  0  0  0  0 
    4.1252   -0.9679    0.9701 H   0  0  0  0  0  0  0  0  0  0  0  0 
    6.4432   -0.2074    0.2687 H   0  0  0  0  0  0  0  0  0  0  0  0 
    6.5214    0.6554   -1.2894 H   0  0  0  0  0  0  0  0  0  0  0  0 
    1.9171    0.4318    0.8241 H   0  0  0  0  0  0  0  0  0  0  0  0 
  1 18  1  0  0  0  0 
  1 11  1  0  0  0  0 
  1 19  1  0  0  0  0 
  2  4  1  0  0  0  0 
  3  2  2  0  0  0  0 
  3  5  1  0  0  0  0 
  4 23  1  0  0  0  0 
  4 12  2  0  0  0  0 
  5 13  2  0  0  0  0 
  6 26  1  0  0  0  0 
  6  8  1  0  0  0  0 
  6 11  1  0  0  0  0 
  7 11  1  0  0  0  0 
  7  9  1  0  0  0  0 
  7 27  1  0  0  0  0 
  8 29  1  0  0  0  0 
  9 32  1  0  0  0  0 
 10 33  1  0  0  0  0 
 11 35  1  0  0  0  0 
 12 14  1  0  0  0  0 
 13 12  1  0  0  0  0 
 13 17  1  0  0  0  0 
 14 15  2  0  0  0  0 
 16 10  1  0  0  0  0 
 16  8  1  0  0  0  0 
 16  9  1  0  0  0  0 
 17 10  1  0  0  0  0 
 17 15  1  0  0  0  0 
 20  1  1  0  0  0  0 
 21  2  1  0  0  0  0 
 22  3  1  0  0  0  0 
 24  5  1  0  0  0  0 
 25  6  1  0  0  0  0 
 28  7  1  0  0  0  0 
 30  8  1  0  0  0  0 
 31  9  1  0  0  0  0 
 34 10  1  0  0  0  0 
M  END 
>  <HBA> 
4 
 
>  <HBD> 
0 
 
>  <TPSA> 
33.95 
 
>  <cid> 
29498 
 
>  <dipole> 
4.31 
 
>  <excitation_energy_1> 
4.451 
 
>  <excitation_energy_2> 
4.729 
 
>  <excitation_energy_3> 
4.954 
 
>  <excitation_energy_4> 
5.118 
 
>  <homo_energy> 
-6.299 
 
>  <homo_lumo_gap> 
5.284 
 
>  <logP> 
2.059 
 
>  <lumo_energy> 
-1.015 
 
>  <melting_point> 
103.06 
 
>  <molecular_refractivity> 
72.33 
 
>  <oscillator_strength_1> 
0.0024 
 
>  <oscillator_strength_2> 
0.0824 
 
>  <oscillator_strength_3> 
0.0034 
 
>  <oscillator_strength_4> 
0.0943 
 
>  <open_babel_can_smiles> 
CC1CCN(CC1)Cn1nnc2c1cccc2 
 
>  <mulliken_charges> 
35 
1   -0.444662 
2   -0.145107 
3   -0.147323 
4   -0.152255 
5   -0.149031 
6   -0.258085 
7   -0.260214 
8   -0.13004 
9   -0.137708 
10   0.006749 
11   -0.080209 
12   0.234636 
13   0.36726 
14   -0.366547 
15   -0.050007 
16   -0.400748 
17   -0.407642 
18   0.14165 
19   0.143665 
20   0.142065 
21   0.133139 
22   0.134029 
23   0.149251 
24   0.148501 
25   0.137823 
26   0.13312 
27   0.135847 
28   0.141052 
29   0.116899 
30   0.139312 
31   0.164416 
32   0.116873 
33   0.162711 
34   0.16039 
35   0.120188 
 
>  <lowdin_charges> 
35 
1   -0.442705 
2   -0.167278 
3   -0.149806 
4   -0.144631 
5   -0.173437 
6   -0.277507 
7   -0.280439 
8   -0.201024 
9   -0.201655 
10   -0.125016 
11   -0.125203 
12   -0.015036 
13   0.015119 
14   -0.130255 
15   -0.068773 
16   -0.192242 
17   0.009102 
18   0.148842 
19   0.151626 
20   0.146181 
21   0.160939 
22   0.160826 
23   0.171225 
24   0.168997 
25   0.142751 
26   0.146084 
27   0.149641 
28   0.145327 
29   0.117879 
30   0.147246 
31   0.157464 
32   0.118613 
33   0.148637 
34   0.155633 
35   0.132872 
 
$$$$ 
 
