PCCDB-ID:  69707 
public computational chemistry database (PCCDB) project, http://pccdb.org 
 
 30 31  0  0  0  0  0  0  0  0999 V2000 
    0.9612   -0.0495   -0.0722 C   0  0  0  0  0  0  0  0  0  0  0  0 
    3.0278    1.2075   -0.8001 C   0  0  0  0  0  0  0  0  0  0  0  0 
    4.9133   -3.5326    2.6846 C   0  0  0  0  0  0  0  0  0  0  0  0 
    3.7548   -4.5371    2.5645 C   0  0  0  0  0  0  0  0  0  0  0  0 
    4.7228   -2.6384    1.4500 C   0  0  0  0  0  0  0  0  0  0  0  0 
    2.5703   -3.6726    2.0897 C   0  0  0  0  0  0  0  0  0  0  0  0 
    3.0430   -1.3104   -0.7407 C   0  0  0  0  0  0  0  0  0  0  0  0 
    3.0330   -0.0619    1.3726 C   0  0  0  0  0  0  0  0  0  0  0  0 
    2.4982   -0.0349   -0.0714 C   0  0  0  0  0  0  0  0  0  0  0  0 
    3.1799   -2.4593    1.3456 C   0  0  0  0  0  0  0  0  0  0  0  0 
    2.7024   -2.4743    0.0077 O   0  0  0  0  0  0  0  0  0  0  0  0 
    2.7305   -1.2902    2.0305 O   0  0  0  0  0  0  0  0  0  0  0  0 
    0.5712   -0.0622   -1.0975 H   0  0  0  0  0  0  0  0  0  0  0  0 
    0.5636    0.8434    0.4259 H   0  0  0  0  0  0  0  0  0  0  0  0 
    0.5809   -0.9314    0.4489 H   0  0  0  0  0  0  0  0  0  0  0  0 
    2.6766    1.2315   -1.8391 H   0  0  0  0  0  0  0  0  0  0  0  0 
    4.1246    1.2334   -0.8158 H   0  0  0  0  0  0  0  0  0  0  0  0 
    2.6777    2.1263   -0.3139 H   0  0  0  0  0  0  0  0  0  0  0  0 
    5.8998   -4.0072    2.7212 H   0  0  0  0  0  0  0  0  0  0  0  0 
    4.7987   -2.9326    3.5967 H   0  0  0  0  0  0  0  0  0  0  0  0 
    3.5427   -5.0685    3.4981 H   0  0  0  0  0  0  0  0  0  0  0  0 
    4.0026   -5.2932    1.8081 H   0  0  0  0  0  0  0  0  0  0  0  0 
    5.0685   -3.1641    0.5514 H   0  0  0  0  0  0  0  0  0  0  0  0 
    5.2688   -1.6931    1.5176 H   0  0  0  0  0  0  0  0  0  0  0  0 
    1.9998   -3.2856    2.9394 H   0  0  0  0  0  0  0  0  0  0  0  0 
    1.8782   -4.2033    1.4309 H   0  0  0  0  0  0  0  0  0  0  0  0 
    4.1369   -1.2355   -0.8602 H   0  0  0  0  0  0  0  0  0  0  0  0 
    2.6058   -1.4546   -1.7344 H   0  0  0  0  0  0  0  0  0  0  0  0 
    2.5698    0.7203    1.9838 H   0  0  0  0  0  0  0  0  0  0  0  0 
    4.1205    0.1194    1.3679 H   0  0  0  0  0  0  0  0  0  0  0  0 
  1  9  1  0  0  0  0 
  1 14  1  0  0  0  0 
  1 15  1  0  0  0  0 
  2 18  1  0  0  0  0 
  2  9  1  0  0  0  0 
  3 19  1  0  0  0  0 
  3 20  1  0  0  0  0 
  4  3  1  0  0  0  0 
  4 21  1  0  0  0  0 
  5 24  1  0  0  0  0 
  5  3  1  0  0  0  0 
  6  4  1  0  0  0  0 
  6 25  1  0  0  0  0 
  7  9  1  0  0  0  0 
  7 11  1  0  0  0  0 
  8 29  1  0  0  0  0 
  8 12  1  0  0  0  0 
  9  8  1  0  0  0  0 
 10  5  1  0  0  0  0 
 10 12  1  0  0  0  0 
 10  6  1  0  0  0  0 
 11 10  1  0  0  0  0 
 13  1  1  0  0  0  0 
 16  2  1  0  0  0  0 
 17  2  1  0  0  0  0 
 22  4  1  0  0  0  0 
 23  5  1  0  0  0  0 
 26  6  1  0  0  0  0 
 27  7  1  0  0  0  0 
 28  7  1  0  0  0  0 
 30  8  1  0  0  0  0 
M  END 
>  <HBA> 
2 
 
>  <HBD> 
0 
 
>  <TPSA> 
18.46 
 
>  <cid> 
69707 
 
>  <dipole> 
1.52 
 
>  <excitation_energy_1> 
6.349 
 
>  <excitation_energy_2> 
6.371 
 
>  <excitation_energy_3> 
6.768 
 
>  <excitation_energy_4> 
6.792 
 
>  <homo_energy> 
-6.776 
 
>  <homo_lumo_gap> 
8.852 
 
>  <logP> 
2.33 
 
>  <lumo_energy> 
2.076 
 
>  <melting_point> 
27.75 
 
>  <molecular_refractivity> 
47.9 
 
>  <oscillator_strength_1> 
0.0145 
 
>  <oscillator_strength_2> 
0.0074 
 
>  <oscillator_strength_3> 
0.0061 
 
>  <oscillator_strength_4> 
0.0071 
 
>  <open_babel_can_smiles> 
CC1(C)COC2(OC1)CCCC2 
 
>  <mulliken_charges> 
30 
1   -0.445807 
2   -0.458839 
3   -0.273533 
4   -0.277574 
5   -0.307409 
6   -0.322127 
7   -0.037981 
8   -0.036515 
9   0.055151 
10   0.574549 
11   -0.51647 
12   -0.516327 
13   0.135326 
14   0.135244 
15   0.171357 
16   0.146616 
17   0.140705 
18   0.146632 
19   0.135072 
20   0.145175 
21   0.136698 
22   0.13822 
23   0.145992 
24   0.140229 
25   0.162432 
26   0.158445 
27   0.12062 
28   0.14242 
29   0.142956 
30   0.118742 
 
>  <lowdin_charges> 
30 
1   -0.445067 
2   -0.439974 
3   -0.278116 
4   -0.281593 
5   -0.310373 
6   -0.292496 
7   -0.134451 
8   -0.136996 
9   -0.021285 
10   0.210395 
11   -0.262606 
12   -0.26734 
13   0.145362 
14   0.146707 
15   0.164053 
16   0.151112 
17   0.145242 
18   0.152494 
19   0.144819 
20   0.146034 
21   0.146907 
22   0.143283 
23   0.151716 
24   0.149122 
25   0.161861 
26   0.161722 
27   0.12609 
28   0.14846 
29   0.150714 
30   0.124205 
 
$$$$ 
 
