PCCDB-ID:  59541 
public computational chemistry database (PCCDB) project, http://pccdb.org 
 
 19 19  0  0  0  0  0  0  0  0999 V2000 
   -1.2403   -0.8083    0.3122 C   0  0  0  0  0  0  0  0  0  0  0  0 
   -1.0881    0.5784    0.3449 C   0  0  0  0  0  0  0  0  0  0  0  0 
   -0.1141   -1.6303    0.2327 C   0  0  0  0  0  0  0  0  0  0  0  0 
    0.1871    1.1451    0.3078 C   0  0  0  0  0  0  0  0  0  0  0  0 
    1.1628   -1.0714    0.1778 C   0  0  0  0  0  0  0  0  0  0  0  0 
    3.7168    0.5753    1.7085 C   0  0  0  0  0  0  0  0  0  0  0  0 
    1.3160    0.3207    0.2270 C   0  0  0  0  0  0  0  0  0  0  0  0 
    4.3315   -0.8316    1.7423 C   0  0  0  0  0  0  0  0  0  0  0  0 
    4.5838   -1.3802    2.7854 O   0  0  0  0  0  0  0  0  0  0  0  0 
    4.6133   -1.3991    0.5511 O   0  0  0  0  0  0  0  0  0  0  0  0 
    2.9368    1.1010    0.1265 S   0  0  0  0  0  0  0  0  0  0  0  0 
   -2.2332   -1.2480    0.3457 H   0  0  0  0  0  0  0  0  0  0  0  0 
   -1.9609    1.2226    0.4070 H   0  0  0  0  0  0  0  0  0  0  0  0 
   -0.2273   -2.7104    0.2020 H   0  0  0  0  0  0  0  0  0  0  0  0 
    0.3108    2.2232    0.3445 H   0  0  0  0  0  0  0  0  0  0  0  0 
    2.0332   -1.7151    0.1010 H   0  0  0  0  0  0  0  0  0  0  0  0 
    4.5247    1.2935    1.8918 H   0  0  0  0  0  0  0  0  0  0  0  0 
    3.0071    0.6614    2.5331 H   0  0  0  0  0  0  0  0  0  0  0  0 
    4.3104   -0.7936   -0.1590 H   0  0  0  0  0  0  0  0  0  0  0  0 
  1  2  1  0  0  0  0 
  1 12  1  0  0  0  0 
  2 13  1  0  0  0  0 
  3  1  2  0  0  0  0 
  4 15  1  0  0  0  0 
  4  2  2  0  0  0  0 
  5  7  2  0  0  0  0 
  5  3  1  0  0  0  0 
  6  8  1  0  0  0  0 
  6 17  1  0  0  0  0 
  6 18  1  0  0  0  0 
  7  4  1  0  0  0  0 
  8  9  2  0  0  0  0 
 10  8  1  0  0  0  0 
 11  7  1  0  0  0  0 
 11  6  1  0  0  0  0 
 14  3  1  0  0  0  0 
 16  5  1  0  0  0  0 
 19 10  1  0  0  0  0 
M  END 
>  <HBA> 
3 
 
>  <HBD> 
1 
 
>  <TPSA> 
62.6 
 
>  <cid> 
59541 
 
>  <dipole> 
3.87 
 
>  <excitation_energy_1> 
4.859 
 
>  <excitation_energy_2> 
5.102 
 
>  <excitation_energy_3> 
5.365 
 
>  <excitation_energy_4> 
5.615 
 
>  <homo_energy> 
-6.77 
 
>  <homo_lumo_gap> 
5.837 
 
>  <logP> 
1.863 
 
>  <lumo_energy> 
-0.933 
 
>  <melting_point> 
92.62 
 
>  <molecular_refractivity> 
44.74 
 
>  <oscillator_strength_1> 
0.0309 
 
>  <oscillator_strength_2> 
0.001 
 
>  <oscillator_strength_3> 
0.0344 
 
>  <oscillator_strength_4> 
0.0089 
 
>  <open_babel_can_smiles> 
OC(=O)CSc1ccccc1 
 
>  <mulliken_charges> 
19 
1   -0.12661 
2   -0.119937 
3   -0.118909 
4   -0.143152 
5   -0.148975 
6   -0.523301 
7   -0.087209 
8   0.594732 
9   -0.431593 
10   -0.563133 
11   0.063852 
12   0.141956 
13   0.141932 
14   0.145707 
15   0.153323 
16   0.157154 
17   0.217989 
18   0.221746 
19   0.424428 
 
>  <lowdin_charges> 
19 
1   -0.145122 
2   -0.151445 
3   -0.144748 
4   -0.150714 
5   -0.159007 
6   -0.423965 
7   -0.131875 
8   0.184578 
9   -0.237552 
10   -0.355764 
11   0.138597 
12   0.163278 
13   0.164751 
14   0.163816 
15   0.168372 
16   0.170258 
17   0.197867 
18   0.194999 
19   0.353675 
 
$$$$ 
 
