PCCDB-ID:  27730 
public computational chemistry database (PCCDB) project, http://pccdb.org 
 
 35 35  0  0  1  0  0  0  0  0999 V2000 
    1.6285   -0.9289    0.3882 C   0  0  0  0  0  0  0  0  0  0  0  0 
    6.6184    4.5591   -2.7975 C   0  0  0  0  0  0  0  0  0  0  0  0 
    3.1303   -0.6757    0.2207 C   0  0  0  0  0  0  0  0  0  0  0  0 
    3.4476    0.4622   -0.7582 C   0  0  0  0  0  0  0  0  0  0  0  0 
    4.9494    0.7203   -0.9340 C   0  0  0  0  0  0  0  0  0  0  0  0 
    5.2658    1.8574   -1.9152 C   0  0  0  0  0  0  0  0  0  0  0  0 
    6.7721    2.0993   -2.0859 C   0  0  0  0  0  0  0  0  0  0  0  0 
   10.9385    3.1431   -2.6001 C   0  0  0  0  0  0  0  0  0  0  0  0 
   10.1114    2.4806   -1.5263 C   0  0  0  0  0  0  0  0  0  0  0  0 
    7.1343    3.1503   -3.1502 C   0  0  2  0  0  0  0  0  0  0  0  0 
    9.4920    3.5283   -2.4213 C   0  0  0  0  0  0  0  0  0  0  0  0 
    8.5802    3.0994   -3.4542 N   0  0  0  0  0  0  0  0  0  0  0  0 
    1.4356   -1.7452    1.0938 H   0  0  0  0  0  0  0  0  0  0  0  0 
    1.1630   -1.1983   -0.5679 H   0  0  0  0  0  0  0  0  0  0  0  0 
    1.1153   -0.0353    0.7645 H   0  0  0  0  0  0  0  0  0  0  0  0 
    5.5250    4.5821   -2.7357 H   0  0  0  0  0  0  0  0  0  0  0  0 
    6.9200    5.2849   -3.5632 H   0  0  0  0  0  0  0  0  0  0  0  0 
    7.0110    4.9034   -1.8332 H   0  0  0  0  0  0  0  0  0  0  0  0 
    3.6204   -1.5972   -0.1245 H   0  0  0  0  0  0  0  0  0  0  0  0 
    3.5742   -0.4450    1.1997 H   0  0  0  0  0  0  0  0  0  0  0  0 
    2.9573    1.3845   -0.4119 H   0  0  0  0  0  0  0  0  0  0  0  0 
    3.0014    0.2320   -1.7373 H   0  0  0  0  0  0  0  0  0  0  0  0 
    5.4385   -0.2027   -1.2789 H   0  0  0  0  0  0  0  0  0  0  0  0 
    5.3954    0.9514    0.0449 H   0  0  0  0  0  0  0  0  0  0  0  0 
    4.7704    2.7742   -1.5670 H   0  0  0  0  0  0  0  0  0  0  0  0 
    4.8208    1.6231   -2.8942 H   0  0  0  0  0  0  0  0  0  0  0  0 
    7.2584    1.1585   -2.3740 H   0  0  0  0  0  0  0  0  0  0  0  0 
    7.2062    2.3903   -1.1195 H   0  0  0  0  0  0  0  0  0  0  0  0 
   11.1794    2.5497   -3.4774 H   0  0  0  0  0  0  0  0  0  0  0  0 
   11.7032    3.8576   -2.3079 H   0  0  0  0  0  0  0  0  0  0  0  0 
   10.3031    2.7376   -0.4877 H   0  0  0  0  0  0  0  0  0  0  0  0 
    9.8111    1.4518   -1.6957 H   0  0  0  0  0  0  0  0  0  0  0  0 
    6.6441    2.8453   -4.0865 H   0  0  0  0  0  0  0  0  0  0  0  0 
    9.3210    4.5038   -1.9553 H   0  0  0  0  0  0  0  0  0  0  0  0 
    8.7515    3.6581   -4.2894 H   0  0  0  0  0  0  0  0  0  0  0  0 
  1 15  1  0  0  0  0 
  1 13  1  0  0  0  0 
  2 16  1  0  0  0  0 
  2 18  1  0  0  0  0 
  3  1  1  0  0  0  0 
  3 20  1  0  0  0  0 
  4 21  1  0  0  0  0 
  4  3  1  0  0  0  0 
  5  4  1  0  0  0  0 
  5 24  1  0  0  0  0 
  6 25  1  0  0  0  0 
  6  5  1  0  0  0  0 
  7  6  1  0  0  0  0 
  7 28  1  0  0  0  0 
  8 11  1  0  0  0  0 
  8 30  1  0  0  0  0 
  8  9  1  0  0  0  0 
  9 31  1  0  0  0  0 
 10 33  1  6  0  0  0 
 10  2  1  0  0  0  0 
 10  7  1  0  0  0  0 
 11 34  1  0  0  0  0 
 11  9  1  0  0  0  0 
 12 10  1  0  0  0  0 
 12 11  1  0  0  0  0 
 14  1  1  0  0  0  0 
 17  2  1  0  0  0  0 
 19  3  1  0  0  0  0 
 22  4  1  0  0  0  0 
 23  5  1  0  0  0  0 
 26  6  1  0  0  0  0 
 27  7  1  0  0  0  0 
 29  8  1  0  0  0  0 
 32  9  1  0  0  0  0 
 35 12  1  0  0  0  0 
M  END 
>  <HBA> 
1 
 
>  <HBD> 
1 
 
>  <TPSA> 
12.03 
 
>  <cid> 
27730 
 
>  <dipole> 
0.89 
 
>  <excitation_energy_1> 
5.301 
 
>  <excitation_energy_2> 
5.758 
 
>  <excitation_energy_3> 
5.959 
 
>  <excitation_energy_4> 
6.039 
 
>  <homo_energy> 
-5.823 
 
>  <homo_lumo_gap> 
8.128 
 
>  <logP> 
3.488 
 
>  <lumo_energy> 
2.305 
 
>  <melting_point> 
19.87 
 
>  <molecular_refractivity> 
55.68 
 
>  <oscillator_strength_1> 
0.0132 
 
>  <oscillator_strength_2> 
0.0173 
 
>  <oscillator_strength_3> 
0.0109 
 
>  <oscillator_strength_4> 
0.0043 
 
>  <open_babel_can_smiles> 
CCCCCC[C@H](NC1CC1)C 
 
>  <mulliken_charges> 
35 
1   -0.441195 
2   -0.456778 
3   -0.246444 
4   -0.245806 
5   -0.2523 
6   -0.261456 
7   -0.250455 
8   -0.327887 
9   -0.296799 
10   0.044228 
11   0.025386 
12   -0.567809 
13   0.140947 
14   0.140808 
15   0.14056 
16   0.146272 
17   0.132766 
18   0.144851 
19   0.130012 
20   0.129545 
21   0.125189 
22   0.125857 
23   0.127854 
24   0.126805 
25   0.130173 
26   0.12537 
27   0.139198 
28   0.134368 
29   0.156242 
30   0.145356 
31   0.142576 
32   0.158486 
33   0.11909 
34   0.123398 
35   0.291596 
 
>  <lowdin_charges> 
35 
1   -0.445842 
2   -0.463189 
3   -0.272 
4   -0.274696 
5   -0.273421 
6   -0.276051 
7   -0.278932 
8   -0.321412 
9   -0.316881 
10   -0.060079 
11   -0.09916 
12   -0.349887 
13   0.149437 
14   0.145954 
15   0.14638 
16   0.150155 
17   0.145854 
18   0.14799 
19   0.138987 
20   0.138138 
21   0.136807 
22   0.136584 
23   0.138182 
24   0.137215 
25   0.138508 
26   0.136164 
27   0.147199 
28   0.14261 
29   0.162749 
30   0.156857 
31   0.153453 
32   0.162455 
33   0.136174 
34   0.130472 
35   0.253225 
 
$$$$ 
 
