PCCDB-ID:  12179 
public computational chemistry database (PCCDB) project, http://pccdb.org 
 
 15 14  0  0  0  0  0  0  0  0999 V2000 
    3.3212    0.7565    0.6922 C   0  0  0  0  0  0  0  0  0  0  0  0 
    2.3404   -0.0216   -0.1814 C   0  0  0  0  0  0  0  0  0  0  0  0 
    2.0472   -2.0439   -1.7915 C   0  0  0  0  0  0  0  0  0  0  0  0 
    2.6122   -2.1720   -3.2004 C   0  0  0  0  0  0  0  0  0  0  0  0 
    2.9679   -1.2022   -0.9010 C   0  0  0  0  0  0  0  0  0  0  0  0 
    1.9441   -2.0658   -4.2023 O   0  0  0  0  0  0  0  0  0  0  0  0 
    4.1480   -1.4831   -0.8097 O   0  0  0  0  0  0  0  0  0  0  0  0 
    2.8133    1.5830    1.1991 H   0  0  0  0  0  0  0  0  0  0  0  0 
    4.1380    1.1677    0.0919 H   0  0  0  0  0  0  0  0  0  0  0  0 
    3.7688    0.1071    1.4504 H   0  0  0  0  0  0  0  0  0  0  0  0 
    1.8846    0.6242   -0.9479 H   0  0  0  0  0  0  0  0  0  0  0  0 
    1.4912   -0.4013    0.4069 H   0  0  0  0  0  0  0  0  0  0  0  0 
    2.0302   -3.0559   -1.3602 H   0  0  0  0  0  0  0  0  0  0  0  0 
    1.0216   -1.6687   -1.8418 H   0  0  0  0  0  0  0  0  0  0  0  0 
    3.7019   -2.3738   -3.2393 H   0  0  0  0  0  0  0  0  0  0  0  0 
  1  8  1  0  0  0  0 
  1 10  1  0  0  0  0 
  2 12  1  0  0  0  0 
  2  1  1  0  0  0  0 
  3 13  1  0  0  0  0 
  3  5  1  0  0  0  0 
  4  3  1  0  0  0  0 
  5  7  2  0  0  0  0 
  5  2  1  0  0  0  0 
  6  4  2  0  0  0  0 
  9  1  1  0  0  0  0 
 11  2  1  0  0  0  0 
 14  3  1  0  0  0  0 
 15  4  1  0  0  0  0 
M  END 
>  <HBA> 
2 
 
>  <HBD> 
0 
 
>  <TPSA> 
34.14 
 
>  <cid> 
12179 
 
>  <dipole> 
2.71 
 
>  <excitation_energy_1> 
4.135 
 
>  <excitation_energy_2> 
4.411 
 
>  <excitation_energy_3> 
5.282 
 
>  <excitation_energy_4> 
5.78 
 
>  <homo_energy> 
-6.833 
 
>  <homo_lumo_gap> 
5.755 
 
>  <logP> 
0.554 
 
>  <lumo_energy> 
-1.078 
 
>  <melting_point> 
27.22 
 
>  <molecular_refractivity> 
26.55 
 
>  <oscillator_strength_1> 
0.005 
 
>  <oscillator_strength_2> 
0.0007 
 
>  <oscillator_strength_3> 
0.0012 
 
>  <oscillator_strength_4> 
0.0575 
 
>  <open_babel_can_smiles> 
CCC(=O)CC=O 
 
>  <mulliken_charges> 
15 
1   -0.435725 
2   -0.354561 
3   -0.427061 
4   0.255779 
5   0.447209 
6   -0.374872 
7   -0.439541 
8   0.146265 
9   0.165344 
10   0.163968 
11   0.17061 
12   0.166287 
13   0.202063 
14   0.17409 
15   0.140145 
 
>  <lowdin_charges> 
15 
1   -0.443461 
2   -0.30774 
3   -0.343075 
4   0.065206 
5   0.162438 
6   -0.208034 
7   -0.233724 
8   0.15497 
9   0.162268 
10   0.161823 
11   0.168545 
12   0.165511 
13   0.193697 
14   0.168479 
15   0.133097 
 
$$$$ 
 
