PCCDB-ID:  29049 
public computational chemistry database (PCCDB) project, http://pccdb.org 
 
 19 20  0  0  1  0  0  0  0  0999 V2000 
    0.9067    0.1490    0.1257 C   0  0  0  0  0  0  0  0  0  0  0  0 
    3.1482    1.2864    0.0993 C   0  0  0  0  0  0  0  0  0  0  0  0 
    4.5141    1.3529    0.0602 C   0  0  0  0  0  0  0  0  0  0  0  0 
    2.4114    0.0453    0.0650 C   0  0  0  0  0  0  0  0  0  0  0  0 
    5.1982    0.1238   -0.0323 C   0  0  0  0  0  0  0  0  0  0  0  0 
    4.5435   -1.1395   -0.0969 C   0  0  0  0  0  0  0  0  0  0  0  0 
    3.1060   -1.1483   -0.0278 C   0  0  2  0  0  0  0  0  0  0  0  0 
    5.4175   -2.1326   -0.1794 N   0  0  0  0  0  0  0  0  0  0  0  0 
    2.4249   -2.4407   -0.0741 N   0  0  0  0  0  0  0  0  0  0  0  0 
    6.5219   -0.1101   -0.0742 N   0  0  0  0  0  0  0  0  0  0  0  0 
    1.3184   -2.5350    0.4631 O   0  0  0  0  0  0  0  0  0  0  0  0 
    3.0107   -3.3571   -0.6444 O   0  0  0  0  0  0  0  0  0  0  0  0 
    7.5163    0.5979   -0.0541 O   0  0  0  0  0  0  0  0  0  0  0  0 
    6.6577   -1.5372   -0.1633 O   0  0  0  0  0  0  0  0  0  0  0  0 
    0.5957    1.1726   -0.1006 H   0  0  0  0  0  0  0  0  0  0  0  0 
    0.5426   -0.1131    1.1246 H   0  0  0  0  0  0  0  0  0  0  0  0 
    0.4151   -0.5358   -0.5681 H   0  0  0  0  0  0  0  0  0  0  0  0 
    2.5722    2.2038    0.1619 H   0  0  0  0  0  0  0  0  0  0  0  0 
    5.0605    2.2890    0.0949 H   0  0  0  0  0  0  0  0  0  0  0  0 
  1 16  1  0  0  0  0 
  2 18  1  0  0  0  0 
  3 19  1  0  0  0  0 
  3  2  1  0  0  0  0 
  4  2  2  0  0  0  0 
  4  1  1  0  0  0  0 
  5  3  2  0  0  0  0 
  6  5  1  0  0  0  0 
  6  7  1  0  0  0  0 
  7  9  1  6  0  0  0 
  7  4  1  0  0  0  0 
  8 14  1  0  0  0  0 
  8  6  2  0  0  0  0 
  9 11  2  0  0  0  0 
 10 13  1  0  0  0  0 
 10  5  1  0  0  0  0 
 12  9  2  0  0  0  0 
 14 10  1  0  0  0  0 
 15  1  1  0  0  0  0 
 17  1  1  0  0  0  0 
M  RAD  2   7   2  13   2 
M  END 
>  <HBA> 
3 
 
>  <HBD> 
0 
 
>  <TPSA> 
97.31 
 
>  <cid> 
29049 
 
>  <dipole> 
6.04 
 
>  <excitation_energy_1> 
2.95 
 
>  <excitation_energy_2> 
3.52 
 
>  <excitation_energy_3> 
3.776 
 
>  <excitation_energy_4> 
4.036 
 
>  <homo_energy> 
-6.702 
 
>  <homo_lumo_gap> 
3.317 
 
>  <logP> 
1.996 
 
>  <lumo_energy> 
-3.385 
 
>  <melting_point> 
122.53 
 
>  <molecular_refractivity> 
48.96 
 
>  <oscillator_strength_1> 
0.1222 
 
>  <oscillator_strength_2> 
0.0037 
 
>  <oscillator_strength_3> 
0.0016 
 
>  <oscillator_strength_4> 
0.0048 
 
>  <open_babel_can_smiles> 
CC1=CC=c2c([C]1N(=O)=O)non2[O] 
 
>  <mulliken_charges> 
19 
1   -0.512515 
2   -0.203738 
3   -0.100069 
4   0.149726 
5   0.347866 
6   0.287676 
7   0.232014 
8   -0.248933 
9   0.341137 
10   0.211965 
11   -0.39322 
12   -0.361492 
13   -0.441957 
14   -0.214312 
15   0.159073 
16   0.203854 
17   0.193648 
18   0.160104 
19   0.189174 
 
>  <lowdin_charges> 
19 
1   -0.439274 
2   -0.156478 
3   -0.118331 
4   0.049563 
5   -0.01684 
6   0.01282 
7   -0.010937 
8   -0.045192 
9   0.305627 
10   0.271912 
11   -0.243257 
12   -0.215573 
13   -0.24038 
14   -0.049253 
15   0.158996 
16   0.186891 
17   0.182404 
18   0.175794 
19   0.191509 
 
$$$$ 
 
