PCCDB-ID:  19502 
public computational chemistry database (PCCDB) project, http://pccdb.org 
 
 24 24  0  0  1  0  0  0  0  0999 V2000 
    3.1295   -1.2689    0.0455 C   0  0  0  0  0  0  0  0  0  0  0  0 
    4.8485    2.8196    2.8397 C   0  0  0  0  0  0  0  0  0  0  0  0 
    2.4442    0.0963   -0.0845 C   0  0  0  0  0  0  0  0  0  0  0  0 
    3.2677    3.6463    0.9934 C   0  0  0  0  0  0  0  0  0  0  0  0 
    2.2171    2.5167    0.7888 C   0  0  0  0  0  0  0  0  0  0  0  0 
    4.4585    1.5688    0.6381 C   0  0  0  0  0  0  0  0  0  0  0  0 
    4.6091    2.9413    1.3272 C   0  0  2  0  0  0  0  0  0  0  0  0 
    2.9860    1.1679    0.8709 C   0  0  2  0  0  0  0  0  0  0  0  0 
    2.6816   -2.0031   -0.6342 H   0  0  0  0  0  0  0  0  0  0  0  0 
    3.0375   -1.6618    1.0659 H   0  0  0  0  0  0  0  0  0  0  0  0 
    4.1982   -1.2088   -0.1906 H   0  0  0  0  0  0  0  0  0  0  0  0 
    4.9252    3.8102    3.3040 H   0  0  0  0  0  0  0  0  0  0  0  0 
    5.7785    2.2779    3.0516 H   0  0  0  0  0  0  0  0  0  0  0  0 
    4.0321    2.2855    3.3410 H   0  0  0  0  0  0  0  0  0  0  0  0 
    1.3660   -0.0256    0.0920 H   0  0  0  0  0  0  0  0  0  0  0  0 
    2.5436    0.4608   -1.1179 H   0  0  0  0  0  0  0  0  0  0  0  0 
    2.9747    4.3524    1.7789 H   0  0  0  0  0  0  0  0  0  0  0  0 
    3.3746    4.2316    0.0726 H   0  0  0  0  0  0  0  0  0  0  0  0 
    1.7352    2.6162   -0.1920 H   0  0  0  0  0  0  0  0  0  0  0  0 
    1.4136    2.5585    1.5324 H   0  0  0  0  0  0  0  0  0  0  0  0 
    5.1734    0.8270    1.0130 H   0  0  0  0  0  0  0  0  0  0  0  0 
    4.6385    1.6765   -0.4420 H   0  0  0  0  0  0  0  0  0  0  0  0 
    5.4531    3.4971    0.8985 H   0  0  0  0  0  0  0  0  0  0  0  0 
    2.8962    0.7769    1.8951 H   0  0  0  0  0  0  0  0  0  0  0  0 
  1 10  1  0  0  0  0 
  2 13  1  0  0  0  0 
  2 12  1  0  0  0  0 
  2 14  1  0  0  0  0 
  3  1  1  0  0  0  0 
  3 15  1  0  0  0  0 
  3  8  1  0  0  0  0 
  4  7  1  0  0  0  0 
  4 17  1  0  0  0  0 
  5  8  1  0  0  0  0 
  5  4  1  0  0  0  0 
  5 20  1  0  0  0  0 
  6  8  1  0  0  0  0 
  6 21  1  0  0  0  0 
  6  7  1  0  0  0  0 
  7 23  1  6  0  0  0 
  7  2  1  0  0  0  0 
  8 24  1  1  0  0  0 
  9  1  1  0  0  0  0 
 11  1  1  0  0  0  0 
 16  3  1  0  0  0  0 
 18  4  1  0  0  0  0 
 19  5  1  0  0  0  0 
 22  6  1  0  0  0  0 
M  END 
>  <HBA> 
0 
 
>  <HBD> 
0 
 
>  <TPSA> 
0.0 
 
>  <cid> 
19502 
 
>  <dipole> 
0.04 
 
>  <excitation_energy_1> 
7.605 
 
>  <excitation_energy_2> 
7.679 
 
>  <excitation_energy_3> 
7.797 
 
>  <excitation_energy_4> 
7.879 
 
>  <homo_energy> 
-8.128 
 
>  <homo_lumo_gap> 
10.327 
 
>  <logP> 
2.833 
 
>  <lumo_energy> 
2.199 
 
>  <melting_point> 
-5.31 
 
>  <molecular_refractivity> 
38.46 
 
>  <oscillator_strength_1> 
0.0033 
 
>  <oscillator_strength_2> 
0.0096 
 
>  <oscillator_strength_3> 
0.0137 
 
>  <oscillator_strength_4> 
0.0314 
 
>  <open_babel_can_smiles> 
CC[C@@H]1CC[C@H](C1)C 
 
>  <mulliken_charges> 
24 
1   -0.446746 
2   -0.450369 
3   -0.256163 
4   -0.275988 
5   -0.280604 
6   -0.271493 
7   -0.07705 
8   -0.067686 
9   0.140538 
10   0.139998 
11   0.146357 
12   0.140254 
13   0.139131 
14   0.142789 
15   0.1293 
16   0.125312 
17   0.131372 
18   0.132746 
19   0.13256 
20   0.13341 
21   0.130722 
22   0.124066 
23   0.117857 
24   0.119686 
 
>  <lowdin_charges> 
24 
1   -0.4455 
2   -0.448221 
3   -0.268638 
4   -0.287001 
5   -0.287746 
6   -0.28502 
7   -0.127819 
8   -0.129989 
9   0.15003 
10   0.144833 
11   0.146094 
12   0.147112 
13   0.146808 
14   0.146677 
15   0.138093 
16   0.135243 
17   0.144033 
18   0.14337 
19   0.142206 
20   0.144604 
21   0.143412 
22   0.136402 
23   0.138015 
24   0.133002 
 
$$$$ 
 
