PCCDB-ID:  24626 
public computational chemistry database (PCCDB) project, http://pccdb.org 
 
 16 15  0  0  0  0  0  0  0  0999 V2000 
    1.0401   -0.0867   -0.2314 C   0  0  0  0  0  0  0  0  0  0  0  0 
    5.3319   -0.0388   -1.2609 C   0  0  0  0  0  0  0  0  0  0  0  0 
    5.0416   -0.9145    1.0602 C   0  0  0  0  0  0  0  0  0  0  0  0 
    4.9870   -2.4403   -0.7896 C   0  0  0  0  0  0  0  0  0  0  0  0 
    2.5225    0.0845   -0.0281 C   0  0  0  0  0  0  0  0  0  0  0  0 
    4.6261   -1.0698   -0.3561 C   0  0  0  0  0  0  0  0  0  0  0  0 
    5.4169   -0.8328    2.1541 N   0  0  0  0  0  0  0  0  0  0  0  0 
    5.2971   -3.4939   -1.1601 N   0  0  0  0  0  0  0  0  0  0  0  0 
    3.0805    1.0310    0.4670 O   0  0  0  0  0  0  0  0  0  0  0  0 
    3.1877   -1.0281   -0.4907 O   0  0  0  0  0  0  0  0  0  0  0  0 
    0.5301    0.8283    0.0705 H   0  0  0  0  0  0  0  0  0  0  0  0 
    0.6800   -0.9284    0.3695 H   0  0  0  0  0  0  0  0  0  0  0  0 
    0.8232   -0.3149   -1.2793 H   0  0  0  0  0  0  0  0  0  0  0  0 
    6.4131   -0.1952   -1.2226 H   0  0  0  0  0  0  0  0  0  0  0  0 
    5.0945    0.9680   -0.9190 H   0  0  0  0  0  0  0  0  0  0  0  0 
    4.9863   -0.1817   -2.2881 H   0  0  0  0  0  0  0  0  0  0  0  0 
  1  5  1  0  0  0  0 
  1 11  1  0  0  0  0 
  1 12  1  0  0  0  0 
  2 14  1  0  0  0  0 
  2 15  1  0  0  0  0 
  2  6  1  0  0  0  0 
  3  7  3  0  0  0  0 
  4  6  1  0  0  0  0 
  5  9  2  0  0  0  0 
  6  3  1  0  0  0  0 
  8  4  3  0  0  0  0 
 10  6  1  0  0  0  0 
 10  5  1  0  0  0  0 
 13  1  1  0  0  0  0 
 16  2  1  0  0  0  0 
M  END 
>  <HBA> 
4 
 
>  <HBD> 
0 
 
>  <TPSA> 
73.88 
 
>  <cid> 
24626 
 
>  <dipole> 
4.36 
 
>  <excitation_energy_1> 
5.71 
 
>  <excitation_energy_2> 
6.35 
 
>  <excitation_energy_3> 
6.97 
 
>  <excitation_energy_4> 
6.989 
 
>  <homo_energy> 
-8.324 
 
>  <homo_lumo_gap> 
7.276 
 
>  <logP> 
0.355 
 
>  <lumo_energy> 
-1.048 
 
>  <melting_point> 
64.7 
 
>  <molecular_refractivity> 
31.78 
 
>  <oscillator_strength_1> 
0.0012 
 
>  <oscillator_strength_2> 
0.0402 
 
>  <oscillator_strength_3> 
0.0074 
 
>  <oscillator_strength_4> 
0.0076 
 
>  <open_babel_can_smiles> 
N#CC(OC(=O)C)(C#N)C 
 
>  <mulliken_charges> 
16 
1   -0.52467 
2   -0.460989 
3   0.37142 
4   0.360595 
5   0.620693 
6   0.240622 
7   -0.434926 
8   -0.44313 
9   -0.437791 
10   -0.479782 
11   0.196866 
12   0.201765 
13   0.194006 
14   0.191516 
15   0.216974 
16   0.186831 
 
>  <lowdin_charges> 
16 
1   -0.458776 
2   -0.430626 
3   -0.018467 
4   -0.007389 
5   0.21699 
6   0.153078 
7   -0.072346 
8   -0.072756 
9   -0.227194 
10   -0.186969 
11   0.184798 
12   0.190314 
13   0.183984 
14   0.180231 
15   0.189701 
16   0.175429 
 
$$$$ 
 
