PCCDB-ID:  72879 
public computational chemistry database (PCCDB) project, http://pccdb.org 
 
 10  9  0  0  0  0  0  0  0  0999 V2000 
    0.9253   -0.0640   -0.1377 C   0  0  0  0  0  0  0  0  0  0  0  0 
    2.9624   -0.2370    1.6501 N   0  0  0  0  0  0  0  0  0  0  0  0 
    3.2082   -1.2937   -0.6709 O   0  0  0  0  0  0  0  0  0  0  0  0 
    3.2044    1.2557   -0.4122 O   0  0  0  0  0  0  0  0  0  0  0  0 
    2.7205   -0.0720   -0.0255 S   0  0  0  0  0  0  0  0  0  0  0  0 
    0.5429   -1.0115    0.2448 H   0  0  0  0  0  0  0  0  0  0  0  0 
    0.6731    0.0517   -1.1943 H   0  0  0  0  0  0  0  0  0  0  0  0 
    0.5392    0.7756    0.4420 H   0  0  0  0  0  0  0  0  0  0  0  0 
    3.4630   -1.1056    1.8296 H   0  0  0  0  0  0  0  0  0  0  0  0 
    3.4994    0.5606    1.9857 H   0  0  0  0  0  0  0  0  0  0  0  0 
  1  5  1  0  0  0  0 
  1  6  1  0  0  0  0 
  1  8  1  0  0  0  0 
  2  9  1  0  0  0  0 
  2 10  1  0  0  0  0 
  3  5  2  0  0  0  0 
  4  5  2  0  0  0  0 
  5  2  1  0  0  0  0 
  7  1  1  0  0  0  0 
M  END 
>  <HBA> 
3 
 
>  <HBD> 
1 
 
>  <TPSA> 
68.54 
 
>  <cid> 
72879 
 
>  <dipole> 
3.3 
 
>  <excitation_energy_1> 
6.998 
 
>  <excitation_energy_2> 
7.358 
 
>  <excitation_energy_3> 
7.743 
 
>  <excitation_energy_4> 
7.766 
 
>  <homo_energy> 
-8.019 
 
>  <homo_lumo_gap> 
9.418 
 
>  <logP> 
0.686 
 
>  <lumo_energy> 
1.399 
 
>  <melting_point> 
60.64 
 
>  <molecular_refractivity> 
18.59 
 
>  <oscillator_strength_1> 
0.041 
 
>  <oscillator_strength_2> 
0.006 
 
>  <oscillator_strength_3> 
0.1225 
 
>  <oscillator_strength_4> 
0.0078 
 
>  <open_babel_can_smiles> 
CS(=O)(=O)N 
 
>  <mulliken_charges> 
10 
1   -0.611338 
2   -0.826778 
3   -0.524983 
4   -0.525807 
5   1.144232 
6   0.206933 
7   0.214375 
8   0.207754 
9   0.357468 
10   0.358144 
 
>  <lowdin_charges> 
10 
1   -0.590659 
2   -0.707934 
3   -0.59781 
4   -0.597313 
5   1.310622 
6   0.192962 
7   0.194563 
8   0.194085 
9   0.300251 
10   0.301234 
 
$$$$ 
 
