PCCDB-ID:  8036 
public computational chemistry database (PCCDB) project, http://pccdb.org 
 
 16 15  0  0  0  0  0  0  0  0999 V2000 
    1.7441    0.0657   -0.2514 C   0  0  0  0  0  0  0  0  0  0  0  0 
    1.0594    1.1106   -1.1843 C   0  0  0  0  0  0  0  0  0  0  0  0 
    3.1936   -0.2374   -0.6016 C   0  0  0  0  0  0  0  0  0  0  0  0 
    1.2923    2.5607   -0.7860 C   0  0  0  0  0  0  0  0  0  0  0  0 
    3.6524   -1.2927   -1.1346 N   0  0  0  0  0  0  0  0  0  0  0  0 
    0.4582    3.3565   -0.2576 N   0  0  0  0  0  0  0  0  0  0  0  0 
    4.0880    0.7738   -0.3715 O   0  0  0  0  0  0  0  0  0  0  0  0 
    2.5648    3.0327   -0.9644 O   0  0  0  0  0  0  0  0  0  0  0  0 
    1.1843   -0.8718   -0.3157 H   0  0  0  0  0  0  0  0  0  0  0  0 
    1.6680    0.4049    0.7912 H   0  0  0  0  0  0  0  0  0  0  0  0 
   -0.0195    0.9314   -1.1680 H   0  0  0  0  0  0  0  0  0  0  0  0 
    1.3888    0.9436   -2.2193 H   0  0  0  0  0  0  0  0  0  0  0  0 
    2.8996   -1.9630   -1.2955 H   0  0  0  0  0  0  0  0  0  0  0  0 
   -0.4445    2.8948   -0.1404 H   0  0  0  0  0  0  0  0  0  0  0  0 
    3.6866    1.4646    0.1816 H   0  0  0  0  0  0  0  0  0  0  0  0 
    3.0863    2.4129   -1.5014 H   0  0  0  0  0  0  0  0  0  0  0  0 
  1 10  1  0  0  0  0 
  2 11  1  0  0  0  0 
  2  4  1  0  0  0  0 
  2  1  1  0  0  0  0 
  3  7  1  0  0  0  0 
  3  1  1  0  0  0  0 
  4  6  2  0  0  0  0 
  5  3  2  0  0  0  0 
  6 14  1  0  0  0  0 
  7 15  1  0  0  0  0 
  8  4  1  0  0  0  0 
  9  1  1  0  0  0  0 
 12  2  1  0  0  0  0 
 13  5  1  0  0  0  0 
 16  8  1  0  0  0  0 
M  END 
>  <HBA> 
4 
 
>  <HBD> 
2 
 
>  <TPSA> 
86.18 
 
>  <cid> 
8036 
 
>  <dipole> 
4.1 
 
>  <excitation_energy_1> 
5.951 
 
>  <excitation_energy_2> 
5.964 
 
>  <excitation_energy_3> 
6.289 
 
>  <excitation_energy_4> 
6.328 
 
>  <homo_energy> 
-7.396 
 
>  <homo_lumo_gap> 
7.407 
 
>  <logP> 
0.138 
 
>  <lumo_energy> 
0.011 
 
>  <melting_point> 
126.04 
 
>  <molecular_refractivity> 
27.16 
 
>  <oscillator_strength_1> 
0.0049 
 
>  <oscillator_strength_2> 
0.0022 
 
>  <oscillator_strength_3> 
0.0138 
 
>  <oscillator_strength_4> 
0.0133 
 
>  <open_babel_can_smiles> 
OC(=N)CCC(=N)O 
 
>  <mulliken_charges> 
16 
1   -0.357562 
2   -0.357911 
3   0.455725 
4   0.45582 
5   -0.562029 
6   -0.56268 
7   -0.582512 
8   -0.582595 
9   0.168013 
10   0.173414 
11   0.168061 
12   0.173446 
13   0.286961 
14   0.286647 
15   0.418545 
16   0.418658 
 
>  <lowdin_charges> 
16 
1   -0.306699 
2   -0.30572 
3   0.116294 
4   0.118923 
5   -0.383076 
6   -0.383606 
7   -0.372929 
8   -0.374805 
9   0.167183 
10   0.163688 
11   0.165367 
12   0.163774 
13   0.259286 
14   0.258413 
15   0.357058 
16   0.356849 
 
$$$$ 
 
