PCCDB-ID:  40691 
public computational chemistry database (PCCDB) project, http://pccdb.org 
 
 22 22  0  0  1  0  0  0  0  0999 V2000 
    1.7465    2.7281   -2.4170 C   0  0  0  0  0  0  0  0  0  0  0  0 
    5.3153   -0.7016   -1.2591 C   0  0  0  0  0  0  0  0  0  0  0  0 
    3.1978    2.5449   -1.9614 C   0  0  0  0  0  0  0  0  0  0  0  0 
    3.6173    1.0686   -1.9162 C   0  0  0  0  0  0  0  0  0  0  0  0 
    7.3963    1.8859   -1.8764 C   0  0  0  0  0  0  0  0  0  0  0  0 
    5.0549    0.8055   -1.4241 C   0  0  2  0  0  0  0  0  0  0  0  0 
    6.0937    1.4009   -2.3558 C   0  0  1  0  0  0  0  0  0  0  0  0 
    6.3648    2.8071   -2.2538 O   0  0  0  0  0  0  0  0  0  0  0  0 
    1.4652    3.7872   -2.4349 H   0  0  0  0  0  0  0  0  0  0  0  0 
    1.0487    2.2096   -1.7471 H   0  0  0  0  0  0  0  0  0  0  0  0 
    1.5926    2.3267   -3.4267 H   0  0  0  0  0  0  0  0  0  0  0  0 
    4.5926   -1.1492   -0.5680 H   0  0  0  0  0  0  0  0  0  0  0  0 
    6.3212   -0.8942   -0.8689 H   0  0  0  0  0  0  0  0  0  0  0  0 
    5.2230   -1.2268   -2.2185 H   0  0  0  0  0  0  0  0  0  0  0  0 
    3.3282    2.9871   -0.9639 H   0  0  0  0  0  0  0  0  0  0  0  0 
    3.8674    3.1029   -2.6256 H   0  0  0  0  0  0  0  0  0  0  0  0 
    3.4981    0.6242   -2.9171 H   0  0  0  0  0  0  0  0  0  0  0  0 
    2.9236    0.5205   -1.2619 H   0  0  0  0  0  0  0  0  0  0  0  0 
    8.2667    1.8624   -2.5329 H   0  0  0  0  0  0  0  0  0  0  0  0 
    7.6214    1.8540   -0.8093 H   0  0  0  0  0  0  0  0  0  0  0  0 
    5.1817    1.2933   -0.4466 H   0  0  0  0  0  0  0  0  0  0  0  0 
    6.0428    1.0411   -3.3885 H   0  0  0  0  0  0  0  0  0  0  0  0 
  1  3  1  0  0  0  0 
  1 10  1  0  0  0  0 
  2 13  1  0  0  0  0 
  2 12  1  0  0  0  0 
  3  4  1  0  0  0  0 
  3 15  1  0  0  0  0 
  4  6  1  0  0  0  0 
  4 18  1  0  0  0  0 
  5 20  1  0  0  0  0 
  6  2  1  0  0  0  0 
  6 21  1  1  0  0  0 
  7 22  1  6  0  0  0 
  7  8  1  0  0  0  0 
  7  5  1  0  0  0  0 
  7  6  1  0  0  0  0 
  8  5  1  0  0  0  0 
  9  1  1  0  0  0  0 
 11  1  1  0  0  0  0 
 14  2  1  0  0  0  0 
 16  3  1  0  0  0  0 
 17  4  1  0  0  0  0 
 19  5  1  0  0  0  0 
M  END 
>  <HBA> 
1 
 
>  <HBD> 
0 
 
>  <TPSA> 
12.53 
 
>  <cid> 
40691 
 
>  <dipole> 
1.83 
 
>  <excitation_energy_1> 
6.742 
 
>  <excitation_energy_2> 
7.102 
 
>  <excitation_energy_3> 
7.146 
 
>  <excitation_energy_4> 
7.226 
 
>  <homo_energy> 
-7.097 
 
>  <homo_lumo_gap> 
9.513 
 
>  <logP> 
1.821 
 
>  <lumo_energy> 
2.416 
 
>  <melting_point> 
-13.6 
 
>  <molecular_refractivity> 
34.73 
 
>  <oscillator_strength_1> 
0.0205 
 
>  <oscillator_strength_2> 
0.0118 
 
>  <oscillator_strength_3> 
0.0031 
 
>  <oscillator_strength_4> 
0.0059 
 
>  <open_babel_can_smiles> 
C[C@@H]([C@@H]1CO1)CCC 
 
>  <mulliken_charges> 
22 
1   -0.443181 
2   -0.453125 
3   -0.251959 
4   -0.254453 
5   -0.112806 
6   -0.098453 
7   0.111005 
8   -0.448834 
9   0.143215 
10   0.137633 
11   0.138983 
12   0.148239 
13   0.14444 
14   0.142852 
15   0.131769 
16   0.159876 
17   0.123255 
18   0.126419 
19   0.147242 
20   0.146695 
21   0.128355 
22   0.132833 
 
>  <lowdin_charges> 
22 
1   -0.444092 
2   -0.444087 
3   -0.276153 
4   -0.275051 
5   -0.169141 
6   -0.12963 
7   -0.020718 
8   -0.290057 
9   0.148678 
10   0.145154 
11   0.144163 
12   0.153918 
13   0.149343 
14   0.147624 
15   0.140394 
16   0.154726 
17   0.135649 
18   0.140879 
19   0.152865 
20   0.148932 
21   0.14415 
22   0.142454 
 
$$$$ 
 
