PCCDB-ID:  23852 
public computational chemistry database (PCCDB) project, http://pccdb.org 
 
 26 25  0  0  1  0  0  0  0  0999 V2000 
    0.7613    0.1461    0.0922 C   0  0  0  0  0  0  0  0  0  0  0  0 
    9.8334   -2.3701    3.4355 C   0  0  0  0  0  0  0  0  0  0  0  0 
    2.2924    0.1064    0.0630 C   0  0  0  0  0  0  0  0  0  0  0  0 
    8.6261   -2.3907    3.4738 C   0  0  0  0  0  0  0  0  0  0  0  0 
    2.8980   -0.6984    1.2201 C   0  0  0  0  0  0  0  0  0  0  0  0 
    4.4314   -0.7377    1.2051 C   0  0  0  0  0  0  0  0  0  0  0  0 
    5.0285   -1.5511    2.3604 C   0  0  0  0  0  0  0  0  0  0  0  0 
    6.5607   -1.5602    2.3617 C   0  0  0  0  0  0  0  0  0  0  0  0 
    7.1556   -2.3629    3.5366 C   0  0  2  0  0  0  0  0  0  0  0  0 
    6.7003   -1.8818    4.8050 O   0  0  0  0  0  0  0  0  0  0  0  0 
    0.3581    0.7213   -0.7491 H   0  0  0  0  0  0  0  0  0  0  0  0 
    0.3944    0.6067    1.0178 H   0  0  0  0  0  0  0  0  0  0  0  0 
    0.3386   -0.8648    0.0385 H   0  0  0  0  0  0  0  0  0  0  0  0 
   10.8993   -2.3650    3.4013 H   0  0  0  0  0  0  0  0  0  0  0  0 
    2.6876    1.1320    0.0891 H   0  0  0  0  0  0  0  0  0  0  0  0 
    2.6292   -0.3233   -0.8914 H   0  0  0  0  0  0  0  0  0  0  0  0 
    2.5064   -1.7262    1.1906 H   0  0  0  0  0  0  0  0  0  0  0  0 
    2.5566   -0.2732    2.1757 H   0  0  0  0  0  0  0  0  0  0  0  0 
    4.8202    0.2910    1.2435 H   0  0  0  0  0  0  0  0  0  0  0  0 
    4.7756   -1.1543    0.2466 H   0  0  0  0  0  0  0  0  0  0  0  0 
    4.6602   -2.5864    2.3050 H   0  0  0  0  0  0  0  0  0  0  0  0 
    4.6742   -1.1541    3.3194 H   0  0  0  0  0  0  0  0  0  0  0  0 
    6.9476   -0.5319    2.4115 H   0  0  0  0  0  0  0  0  0  0  0  0 
    6.9425   -1.9858    1.4238 H   0  0  0  0  0  0  0  0  0  0  0  0 
    6.7758   -3.3913    3.4861 H   0  0  0  0  0  0  0  0  0  0  0  0 
    7.1443   -1.0325    4.9624 H   0  0  0  0  0  0  0  0  0  0  0  0 
  1 12  1  0  0  0  0 
  2  4  3  0  0  0  0 
  3 15  1  0  0  0  0 
  3  1  1  0  0  0  0 
  3  5  1  0  0  0  0 
  4  9  1  0  0  0  0 
  5 18  1  0  0  0  0 
  6  5  1  0  0  0  0 
  6 19  1  0  0  0  0 
  6  7  1  0  0  0  0 
  7  8  1  0  0  0  0 
  7 22  1  0  0  0  0 
  8 23  1  0  0  0  0 
  8  9  1  0  0  0  0 
  9 25  1  6  0  0  0 
  9 10  1  0  0  0  0 
 10 26  1  0  0  0  0 
 11  1  1  0  0  0  0 
 13  1  1  0  0  0  0 
 14  2  1  0  0  0  0 
 16  3  1  0  0  0  0 
 17  5  1  0  0  0  0 
 20  6  1  0  0  0  0 
 21  7  1  0  0  0  0 
 24  8  1  0  0  0  0 
M  END 
>  <HBA> 
1 
 
>  <HBD> 
1 
 
>  <TPSA> 
20.23 
 
>  <cid> 
23852 
 
>  <dipole> 
1.47 
 
>  <excitation_energy_1> 
6.198 
 
>  <excitation_energy_2> 
6.537 
 
>  <excitation_energy_3> 
6.79 
 
>  <excitation_energy_4> 
6.882 
 
>  <homo_energy> 
-7.165 
 
>  <homo_lumo_gap> 
8.063 
 
>  <logP> 
1.951 
 
>  <lumo_energy> 
0.898 
 
>  <melting_point> 
7.41 
 
>  <molecular_refractivity> 
44.7 
 
>  <oscillator_strength_1> 
0.001 
 
>  <oscillator_strength_2> 
0.0151 
 
>  <oscillator_strength_3> 
0.0113 
 
>  <oscillator_strength_4> 
0.0267 
 
>  <open_babel_can_smiles> 
CCCCCC[C@@H](C#C)O 
 
>  <mulliken_charges> 
26 
1   -0.441246 
2   -0.52096 
3   -0.247172 
4   0.348229 
5   -0.245709 
6   -0.254319 
7   -0.252932 
8   -0.269879 
9   -0.005984 
10   -0.607506 
11   0.141454 
12   0.141565 
13   0.141513 
14   0.193582 
15   0.129668 
16   0.129819 
17   0.127581 
18   0.128353 
19   0.126609 
20   0.127 
21   0.128504 
22   0.149188 
23   0.131225 
24   0.143376 
25   0.167827 
26   0.390213 
 
>  <lowdin_charges> 
26 
1   -0.445015 
2   -0.246217 
3   -0.271016 
4   -0.057913 
5   -0.273218 
6   -0.272715 
7   -0.275516 
8   -0.283713 
9   0.01531 
10   -0.448662 
11   0.150007 
12   0.146631 
13   0.145703 
14   0.204658 
15   0.137517 
16   0.138452 
17   0.136882 
18   0.138181 
19   0.136297 
20   0.137061 
21   0.13839 
22   0.14929 
23   0.141584 
24   0.151817 
25   0.161975 
26   0.344229 
 
$$$$ 
 
