PCCDB-ID:  27845 
public computational chemistry database (PCCDB) project, http://pccdb.org 
 
 26 27  0  0  1  0  0  0  0  0999 V2000 
   -1.7964   -0.4963   -0.6267 C   0  0  0  0  0  0  0  0  0  0  0  0 
   -1.2866    0.9831   -0.6550 C   0  0  0  0  0  0  0  0  0  0  0  0 
   -0.6903    0.0003    1.4392 C   0  0  0  0  0  0  0  0  0  0  0  0 
    0.5366   -1.3017   -0.1447 C   0  0  0  0  0  0  0  0  0  0  0  0 
    2.3732    0.4099    0.5158 C   0  0  0  0  0  0  0  0  0  0  0  0 
   -0.8883   -1.1578    0.4374 C   0  0  2  0  0  0  0  0  0  0  0  0 
   -0.1345    0.9779    0.3777 C   0  0  1  0  0  0  0  0  0  0  0  0 
    1.0528    0.1759   -0.2244 C   0  0  2  0  0  0  0  0  0  0  0  0 
    4.7243    0.0023    0.5439 N   0  0  0  0  0  0  0  0  0  0  0  0 
    3.4369   -0.4268   -0.0485 N   0  0  0  0  0  0  0  0  0  0  0  0 
   -1.7136   -0.9913   -1.6009 H   0  0  0  0  0  0  0  0  0  0  0  0 
   -2.8496   -0.5447   -0.3270 H   0  0  0  0  0  0  0  0  0  0  0  0 
   -2.0767    1.6772   -0.3464 H   0  0  0  0  0  0  0  0  0  0  0  0 
   -0.9489    1.2978   -1.6488 H   0  0  0  0  0  0  0  0  0  0  0  0 
    0.0209   -0.2353    2.2390 H   0  0  0  0  0  0  0  0  0  0  0  0 
   -1.6246    0.3498    1.8946 H   0  0  0  0  0  0  0  0  0  0  0  0 
    0.5392   -1.8008   -1.1201 H   0  0  0  0  0  0  0  0  0  0  0  0 
    1.1801   -1.8915    0.5171 H   0  0  0  0  0  0  0  0  0  0  0  0 
    2.2618    0.1305    1.5743 H   0  0  0  0  0  0  0  0  0  0  0  0 
    2.6384    1.4818    0.4936 H   0  0  0  0  0  0  0  0  0  0  0  0 
   -1.2927   -2.0880    0.8485 H   0  0  0  0  0  0  0  0  0  0  0  0 
    0.1426    1.9756    0.7337 H   0  0  0  0  0  0  0  0  0  0  0  0 
    1.2043    0.4793   -1.2708 H   0  0  0  0  0  0  0  0  0  0  0  0 
    5.3743   -0.7385    0.2663 H   0  0  0  0  0  0  0  0  0  0  0  0 
    4.5995   -0.1710    1.5455 H   0  0  0  0  0  0  0  0  0  0  0  0 
    3.5314   -0.1382   -1.0251 H   0  0  0  0  0  0  0  0  0  0  0  0 
  1 12  1  0  0  0  0 
  1  6  1  0  0  0  0 
  2  1  1  0  0  0  0 
  2 13  1  0  0  0  0 
  2  7  1  0  0  0  0 
  3 16  1  0  0  0  0 
  3 15  1  0  0  0  0 
  4  6  1  0  0  0  0 
  4 18  1  0  0  0  0 
  5 19  1  0  0  0  0 
  6 21  1  1  0  0  0 
  6  3  1  0  0  0  0 
  7 22  1  1  0  0  0 
  7  3  1  0  0  0  0 
  8 23  1  6  0  0  0 
  8  4  1  0  0  0  0 
  8  7  1  0  0  0  0 
  8  5  1  0  0  0  0 
  9 25  1  0  0  0  0 
 10  5  1  0  0  0  0 
 10  9  1  0  0  0  0 
 11  1  1  0  0  0  0 
 14  2  1  0  0  0  0 
 17  4  1  0  0  0  0 
 20  5  1  0  0  0  0 
 24  9  1  0  0  0  0 
 26 10  1  0  0  0  0 
M  END 
>  <HBA> 
2 
 
>  <HBD> 
2 
 
>  <TPSA> 
38.05 
 
>  <cid> 
27845 
 
>  <dipole> 
0.44 
 
>  <excitation_energy_1> 
4.738 
 
>  <excitation_energy_2> 
5.164 
 
>  <excitation_energy_3> 
5.272 
 
>  <excitation_energy_4> 
5.632 
 
>  <homo_energy> 
-5.255 
 
>  <homo_lumo_gap> 
7.437 
 
>  <logP> 
1.977 
 
>  <lumo_energy> 
2.182 
 
>  <melting_point> 
98.69 
 
>  <molecular_refractivity> 
41.85 
 
>  <oscillator_strength_1> 
0.0059 
 
>  <oscillator_strength_2> 
0.0049 
 
>  <oscillator_strength_3> 
0.0015 
 
>  <oscillator_strength_4> 
0.0206 
 
>  <open_babel_can_smiles> 
NNC[C@H]1C[C@H]2C[C@@H]1CC2 
 
>  <mulliken_charges> 
26 
1   -0.26912 
2   -0.272384 
3   -0.275078 
4   -0.265964 
5   -0.125756 
6   -0.101312 
7   -0.10427 
8   -0.096092 
9   -0.594064 
10   -0.471423 
11   0.131242 
12   0.13313 
13   0.133349 
14   0.131185 
15   0.132021 
16   0.129913 
17   0.128273 
18   0.148167 
19   0.128842 
20   0.128309 
21   0.113866 
22   0.112993 
23   0.114469 
24   0.303738 
25   0.301025 
26   0.304941 
 
>  <lowdin_charges> 
26 
1   -0.284382 
2   -0.284973 
3   -0.288519 
4   -0.285749 
5   -0.208861 
6   -0.134465 
7   -0.133734 
8   -0.133835 
9   -0.496177 
10   -0.319168 
11   0.141519 
12   0.141693 
13   0.144387 
14   0.140989 
15   0.14223 
16   0.142795 
17   0.142219 
18   0.152978 
19   0.131344 
20   0.125257 
21   0.139826 
22   0.13892 
23   0.132419 
24   0.254097 
25   0.249666 
26   0.249524 
 
$$$$ 
 
