PCCDB-ID:  28617 
public computational chemistry database (PCCDB) project, http://pccdb.org 
 
 27 27  0  0  0  0  0  0  0  0999 V2000 
    0.7110   -0.7711    0.2908 C   0  0  0  0  0  0  0  0  0  0  0  0 
    5.4078   -2.4749   -0.4485 C   0  0  0  0  0  0  0  0  0  0  0  0 
    5.3984    4.8923    0.8982 C   0  0  0  0  0  0  0  0  0  0  0  0 
    2.6998    0.8012    0.3240 C   0  0  0  0  0  0  0  0  0  0  0  0 
    4.9507   -0.0133   -0.0303 C   0  0  0  0  0  0  0  0  0  0  0  0 
    2.1923   -0.4938    0.1777 C   0  0  0  0  0  0  0  0  0  0  0  0 
    4.4790   -1.3182   -0.1805 C   0  0  0  0  0  0  0  0  0  0  0  0 
    4.0646    1.0305    0.2141 C   0  0  0  0  0  0  0  0  0  0  0  0 
    3.0952   -1.5397   -0.0755 C   0  0  0  0  0  0  0  0  0  0  0  0 
    4.6822    3.2129   -0.5701 C   0  0  0  0  0  0  0  0  0  0  0  0 
    5.0613    4.4110   -0.4333 N   0  0  0  0  0  0  0  0  0  0  0  0 
    2.6769   -2.8386   -0.2299 O   0  0  0  0  0  0  0  0  0  0  0  0 
    4.3515    2.6992   -1.7767 O   0  0  0  0  0  0  0  0  0  0  0  0 
    4.5695    2.3185    0.4455 O   0  0  0  0  0  0  0  0  0  0  0  0 
    0.1555    0.1510    0.4813 H   0  0  0  0  0  0  0  0  0  0  0  0 
    0.4801   -1.4613    1.1154 H   0  0  0  0  0  0  0  0  0  0  0  0 
    0.2999   -1.2079   -0.6310 H   0  0  0  0  0  0  0  0  0  0  0  0 
    6.4478   -2.1392   -0.4952 H   0  0  0  0  0  0  0  0  0  0  0  0 
    5.1620   -2.9702   -1.3954 H   0  0  0  0  0  0  0  0  0  0  0  0 
    5.3259   -3.2399    0.3327 H   0  0  0  0  0  0  0  0  0  0  0  0 
    5.4398    5.9855    0.8769 H   0  0  0  0  0  0  0  0  0  0  0  0 
    6.3838    4.5265    1.2188 H   0  0  0  0  0  0  0  0  0  0  0  0 
    4.6700    4.5866    1.6614 H   0  0  0  0  0  0  0  0  0  0  0  0 
    2.0310    1.6327    0.5255 H   0  0  0  0  0  0  0  0  0  0  0  0 
    6.0138    0.1959   -0.1021 H   0  0  0  0  0  0  0  0  0  0  0  0 
    1.7135   -2.8779   -0.1357 H   0  0  0  0  0  0  0  0  0  0  0  0 
    4.4785    3.4375   -2.3986 H   0  0  0  0  0  0  0  0  0  0  0  0 
  1 15  1  0  0  0  0 
  1 16  1  0  0  0  0 
  2  7  1  0  0  0  0 
  2 20  1  0  0  0  0 
  3 22  1  0  0  0  0 
  3 23  1  0  0  0  0 
  4 24  1  0  0  0  0 
  5  8  2  0  0  0  0 
  6  1  1  0  0  0  0 
  6  4  2  0  0  0  0 
  7  9  2  0  0  0  0 
  7  5  1  0  0  0  0 
  8  4  1  0  0  0  0 
  8 14  1  0  0  0  0 
  9  6  1  0  0  0  0 
 10 11  2  0  0  0  0 
 10 14  1  0  0  0  0 
 11  3  1  0  0  0  0 
 12 26  1  0  0  0  0 
 12  9  1  0  0  0  0 
 13 10  1  0  0  0  0 
 17  1  1  0  0  0  0 
 18  2  1  0  0  0  0 
 19  2  1  0  0  0  0 
 21  3  1  0  0  0  0 
 25  5  1  0  0  0  0 
 27 13  1  0  0  0  0 
M  END 
>  <HBA> 
4 
 
>  <HBD> 
2 
 
>  <TPSA> 
58.56 
 
>  <cid> 
28617 
 
>  <dipole> 
2.58 
 
>  <excitation_energy_1> 
4.948 
 
>  <excitation_energy_2> 
5.02 
 
>  <excitation_energy_3> 
5.548 
 
>  <excitation_energy_4> 
5.683 
 
>  <homo_energy> 
-5.81 
 
>  <homo_lumo_gap> 
5.793 
 
>  <logP> 
2.118 
 
>  <lumo_energy> 
-0.016 
 
>  <melting_point> 
117.31 
 
>  <molecular_refractivity> 
53.09 
 
>  <oscillator_strength_1> 
0.0405 
 
>  <oscillator_strength_2> 
0.0019 
 
>  <oscillator_strength_3> 
0.0272 
 
>  <oscillator_strength_4> 
0.0253 
 
>  <open_babel_can_smiles> 
C/N=C(\Oc1cc(C)c(c(c1)C)O)/O 
 
>  <mulliken_charges> 
27 
1   -0.579982 
2   -0.513996 
3   -0.314976 
4   -0.228655 
5   -0.225253 
6   0.161433 
7   0.141385 
8   0.373078 
9   0.217044 
10   0.706931 
11   -0.488599 
12   -0.647802 
13   -0.593149 
14   -0.546404 
15   0.174852 
16   0.163758 
17   0.163858 
18   0.150256 
19   0.169142 
20   0.168456 
21   0.150258 
22   0.14892 
23   0.146851 
24   0.131817 
25   0.13329 
26   0.415283 
27   0.422206 
 
>  <lowdin_charges> 
27 
1   -0.45363 
2   -0.434859 
3   -0.35097 
4   -0.176798 
5   -0.170744 
6   -0.042992 
7   -0.017942 
8   0.087232 
9   0.083135 
10   0.187997 
11   -0.271388 
12   -0.381623 
13   -0.361534 
14   -0.163695 
15   0.169833 
16   0.157661 
17   0.157565 
18   0.154494 
19   0.165248 
20   0.165401 
21   0.147859 
22   0.146327 
23   0.143887 
24   0.165693 
25   0.164671 
26   0.356717 
27   0.372455 
 
$$$$ 
 
