PCCDB-ID:  43641 
public computational chemistry database (PCCDB) project, http://pccdb.org 
 
 25 24  0  0  0  0  0  0  0  0999 V2000 
    4.0804   -2.8561    2.6845 C   0  0  0  0  0  0  0  0  0  0  0  0 
    4.3918   -2.1116    1.6245 C   0  0  0  0  0  0  0  0  0  0  0  0 
    4.4394    1.6325   -0.8011 C   0  0  0  0  0  0  0  0  0  0  0  0 
    5.3220    2.1707   -1.9341 C   0  0  0  0  0  0  0  0  0  0  0  0 
    3.6387   -0.8675    1.2216 C   0  0  0  0  0  0  0  0  0  0  0  0 
    5.2570    0.8777    0.2569 C   0  0  0  0  0  0  0  0  0  0  0  0 
    4.5303    2.9351   -2.9985 C   0  0  0  0  0  0  0  0  0  0  0  0 
    4.4904    1.0484    2.4971 N   0  0  0  0  0  0  0  0  0  0  0  0 
    4.4515    0.3502    1.3514 N   0  0  0  0  0  0  0  0  0  0  0  0 
    5.3425    3.3705   -4.0812 O   0  0  0  0  0  0  0  0  0  0  0  0 
    3.8009    0.6023    3.4094 O   0  0  0  0  0  0  0  0  0  0  0  0 
    4.6438   -3.7497    2.9390 H   0  0  0  0  0  0  0  0  0  0  0  0 
    3.2551   -2.5925    3.3413 H   0  0  0  0  0  0  0  0  0  0  0  0 
    5.2362   -2.3900    0.9936 H   0  0  0  0  0  0  0  0  0  0  0  0 
    3.6693    0.9697   -1.2198 H   0  0  0  0  0  0  0  0  0  0  0  0 
    3.9093    2.4560   -0.3054 H   0  0  0  0  0  0  0  0  0  0  0  0 
    5.8554    1.3473   -2.4272 H   0  0  0  0  0  0  0  0  0  0  0  0 
    6.0917    2.8360   -1.5135 H   0  0  0  0  0  0  0  0  0  0  0  0 
    2.7605   -0.7308    1.8573 H   0  0  0  0  0  0  0  0  0  0  0  0 
    3.3142   -0.9283    0.1766 H   0  0  0  0  0  0  0  0  0  0  0  0 
    5.9903    1.5480    0.7154 H   0  0  0  0  0  0  0  0  0  0  0  0 
    5.8083    0.0487   -0.2053 H   0  0  0  0  0  0  0  0  0  0  0  0 
    3.9934    3.7796   -2.5356 H   0  0  0  0  0  0  0  0  0  0  0  0 
    3.7743    2.2808   -3.4468 H   0  0  0  0  0  0  0  0  0  0  0  0 
    5.9684    4.0249   -3.7340 H   0  0  0  0  0  0  0  0  0  0  0  0 
  1 12  1  0  0  0  0 
  1 13  1  0  0  0  0 
  2  1  2  0  0  0  0 
  3 16  1  0  0  0  0 
  3  6  1  0  0  0  0 
  4 18  1  0  0  0  0 
  4  3  1  0  0  0  0 
  5  9  1  0  0  0  0 
  5  2  1  0  0  0  0 
  5 19  1  0  0  0  0 
  6 21  1  0  0  0  0 
  6  9  1  0  0  0  0 
  7 23  1  0  0  0  0 
  7  4  1  0  0  0  0 
  8 11  2  0  0  0  0 
  9  8  1  0  0  0  0 
 10 25  1  0  0  0  0 
 10  7  1  0  0  0  0 
 14  2  1  0  0  0  0 
 15  3  1  0  0  0  0 
 17  4  1  0  0  0  0 
 20  5  1  0  0  0  0 
 22  6  1  0  0  0  0 
 24  7  1  0  0  0  0 
M  END 
>  <HBA> 
4 
 
>  <HBD> 
1 
 
>  <TPSA> 
52.9 
 
>  <cid> 
43641 
 
>  <dipole> 
2.42 
 
>  <excitation_energy_1> 
3.355 
 
>  <excitation_energy_2> 
5.227 
 
>  <excitation_energy_3> 
5.569 
 
>  <excitation_energy_4> 
5.611 
 
>  <homo_energy> 
-5.97 
 
>  <homo_lumo_gap> 
5.17 
 
>  <logP> 
0.928 
 
>  <lumo_energy> 
-0.8 
 
>  <melting_point> 
-7.52 
 
>  <molecular_refractivity> 
44.08 
 
>  <oscillator_strength_1> 
0.0009 
 
>  <oscillator_strength_2> 
0.0176 
 
>  <oscillator_strength_3> 
0.046 
 
>  <oscillator_strength_4> 
0.0042 
 
>  <open_babel_can_smiles> 
OCCCCN(CC=C)N=O 
 
>  <mulliken_charges> 
25 
1   -0.318085 
2   -0.043449 
3   -0.271359 
4   -0.2823 
5   -0.211154 
6   -0.136377 
7   -0.02784 
8   0.152743 
9   -0.21463 
10   -0.612305 
11   -0.383303 
12   0.146424 
13   0.158234 
14   0.130878 
15   0.14203 
16   0.154972 
17   0.149172 
18   0.128683 
19   0.189586 
20   0.159883 
21   0.176312 
22   0.152873 
23   0.123521 
24   0.147492 
25   0.388001 
 
>  <lowdin_charges> 
25 
1   -0.312876 
2   -0.161214 
3   -0.287223 
4   -0.296058 
5   -0.212188 
6   -0.204389 
7   -0.137873 
8   0.050837 
9   -0.041514 
10   -0.465361 
11   -0.271966 
12   0.162669 
13   0.166793 
14   0.151859 
15   0.145203 
16   0.153274 
17   0.150251 
18   0.139506 
19   0.175512 
20   0.156993 
21   0.167951 
22   0.150592 
23   0.128244 
24   0.148005 
25   0.342976 
 
$$$$ 
 
