PCCDB-ID:  65089 
public computational chemistry database (PCCDB) project, http://pccdb.org 
 
 25 25  0  0  1  0  0  0  0  0999 V2000 
   -1.3406   -0.0467   -0.6065 C   0  0  0  0  0  0  0  0  0  0  0  0 
    0.9650   -0.6929   -0.2927 C   0  0  0  0  0  0  0  0  0  0  0  0 
   -1.7360   -1.3788   -0.5121 C   0  0  0  0  0  0  0  0  0  0  0  0 
    0.5902   -2.0302   -0.2011 C   0  0  0  0  0  0  0  0  0  0  0  0 
    0.4454    1.7646   -0.6023 C   0  0  0  0  0  0  0  0  0  0  0  0 
    0.0101    0.3195   -0.4962 C   0  0  0  0  0  0  0  0  0  0  0  0 
   -0.7611   -2.3531   -0.3123 C   0  0  0  0  0  0  0  0  0  0  0  0 
    1.1465    2.1444   -1.9396 C   0  0  1  0  0  0  0  0  0  0  0  0 
    0.1483    2.0642   -3.1146 C   0  0  0  0  0  0  0  0  0  0  0  0 
    1.7409    3.4667   -1.8007 N   0  0  0  0  0  0  0  0  0  0  0  0 
   -1.1685   -3.7643   -0.2127 N   0  0  0  0  0  0  0  0  0  0  0  0 
   -0.3558    3.0423   -3.6102 O   0  0  0  0  0  0  0  0  0  0  0  0 
   -0.1650    0.8258   -3.5697 O   0  0  0  0  0  0  0  0  0  0  0  0 
   -2.3696   -4.0181   -0.2909 O   0  0  0  0  0  0  0  0  0  0  0  0 
   -0.2818   -4.6035   -0.0584 O   0  0  0  0  0  0  0  0  0  0  0  0 
   -2.0925    0.7210   -0.7657 H   0  0  0  0  0  0  0  0  0  0  0  0 
    2.0142   -0.4274   -0.1879 H   0  0  0  0  0  0  0  0  0  0  0  0 
   -2.7757   -1.6709   -0.5925 H   0  0  0  0  0  0  0  0  0  0  0  0 
    1.3166   -2.8170   -0.0394 H   0  0  0  0  0  0  0  0  0  0  0  0 
    1.1673    2.0004    0.1865 H   0  0  0  0  0  0  0  0  0  0  0  0 
   -0.4146    2.4300   -0.4608 H   0  0  0  0  0  0  0  0  0  0  0  0 
    1.9570    1.4243   -2.1165 H   0  0  0  0  0  0  0  0  0  0  0  0 
    0.9884    4.1548   -1.8566 H   0  0  0  0  0  0  0  0  0  0  0  0 
    2.3215    3.6568   -2.6170 H   0  0  0  0  0  0  0  0  0  0  0  0 
    0.2779    0.1465   -3.0324 H   0  0  0  0  0  0  0  0  0  0  0  0 
  1  3  2  0  0  0  0 
  1  6  1  0  0  0  0 
  2  4  1  0  0  0  0 
  2 17  1  0  0  0  0 
  3  7  1  0  0  0  0 
  4 19  1  0  0  0  0 
  5  6  1  0  0  0  0 
  5 21  1  0  0  0  0 
  5 20  1  0  0  0  0 
  6  2  2  0  0  0  0 
  7 11  1  0  0  0  0 
  7  4  2  0  0  0  0 
  8 22  1  6  0  0  0 
  8 10  1  0  0  0  0 
  8  5  1  0  0  0  0 
  9  8  1  0  0  0  0 
 11 15  2  0  0  0  0 
 12  9  2  0  0  0  0 
 13  9  1  0  0  0  0 
 13 25  1  0  0  0  0 
 14 11  2  0  0  0  0 
 16  1  1  0  0  0  0 
 18  3  1  0  0  0  0 
 23 10  1  0  0  0  0 
 24 10  1  0  0  0  0 
M  END 
>  <HBA> 
3 
 
>  <HBD> 
2 
 
>  <TPSA> 
109.14 
 
>  <cid> 
65089 
 
>  <dipole> 
3.65 
 
>  <excitation_energy_1> 
3.731 
 
>  <excitation_energy_2> 
3.935 
 
>  <excitation_energy_3> 
4.244 
 
>  <excitation_energy_4> 
4.357 
 
>  <homo_energy> 
-7.127 
 
>  <homo_lumo_gap> 
4.435 
 
>  <logP> 
1.773 
 
>  <lumo_energy> 
-2.691 
 
>  <melting_point> 
177.03 
 
>  <molecular_refractivity> 
54.32 
 
>  <oscillator_strength_1> 
0.0 
 
>  <oscillator_strength_2> 
0.0312 
 
>  <oscillator_strength_3> 
0.0003 
 
>  <oscillator_strength_4> 
0.0159 
 
>  <open_babel_can_smiles> 
OC(=O)[C@H](Cc1ccc(cc1)N(=O)=O)N 
 
>  <mulliken_charges> 
25 
1   -0.184189 
2   -0.206629 
3   -0.144764 
4   -0.146017 
5   -0.3404 
6   0.137 
7   0.2707 
8   -0.110708 
9   0.581166 
10   -0.690855 
11   0.382385 
12   -0.444099 
13   -0.559988 
14   -0.389794 
15   -0.392003 
16   0.159652 
17   0.152947 
18   0.191562 
19   0.189158 
20   0.188537 
21   0.165393 
22   0.149724 
23   0.316134 
24   0.310545 
25   0.414542 
 
>  <lowdin_charges> 
25 
1   -0.156738 
2   -0.167092 
3   -0.130676 
4   -0.137526 
5   -0.275568 
6   -0.000929 
7   0.002024 
8   -0.112354 
9   0.175067 
10   -0.53028 
11   0.307589 
12   -0.243336 
13   -0.350882 
14   -0.23992 
15   -0.244938 
16   0.173556 
17   0.166717 
18   0.190996 
19   0.191659 
20   0.177215 
21   0.162097 
22   0.151192 
23   0.266715 
24   0.264845 
25   0.360565 
 
$$$$ 
 
