PCCDB-ID:  72661 
public computational chemistry database (PCCDB) project, http://pccdb.org 
 
 16 16  0  0  0  0  0  0  0  0999 V2000 
   -0.7699    1.1686    0.1036 C   0  0  0  0  0  0  0  0  0  0  0  0 
   -1.4200   -0.0648    0.0375 C   0  0  0  0  0  0  0  0  0  0  0  0 
    0.6068    1.2450    0.0239 C   0  0  0  0  0  0  0  0  0  0  0  0 
    0.7465   -1.1052   -0.1777 C   0  0  0  0  0  0  0  0  0  0  0  0 
   -0.6355   -1.2193   -0.0973 C   0  0  0  0  0  0  0  0  0  0  0  0 
   -1.2557   -2.5832   -0.1426 C   0  0  0  0  0  0  0  0  0  0  0  0 
   -0.8287   -3.6382    0.4198 N   0  0  0  0  0  0  0  0  0  0  0  0 
    1.3768    0.1124   -0.1180 N   0  3  0  0  0  0  0  0  0  0  0  0 
   -2.4233   -2.6624   -0.8410 O   0  0  0  0  0  0  0  0  0  0  0  0 
    2.6426    0.1940   -0.1988 O   0  5  0  0  0  0  0  0  0  0  0  0 
   -1.3317    2.0893    0.2253 H   0  0  0  0  0  0  0  0  0  0  0  0 
   -2.4987   -0.1342    0.1281 H   0  0  0  0  0  0  0  0  0  0  0  0 
    1.1847    2.1583    0.0637 H   0  0  0  0  0  0  0  0  0  0  0  0 
    1.4223   -1.9399   -0.3091 H   0  0  0  0  0  0  0  0  0  0  0  0 
    0.0048   -3.4348    0.9726 H   0  0  0  0  0  0  0  0  0  0  0  0 
   -2.5101   -1.8803   -1.4083 H   0  0  0  0  0  0  0  0  0  0  0  0 
  1 11  1  0  0  0  0 
  2  1  1  0  0  0  0 
  2 12  1  0  0  0  0 
  3 13  1  0  0  0  0 
  3  1  2  0  0  0  0 
  4  8  2  0  0  0  0 
  4  5  1  0  0  0  0 
  5  2  2  0  0  0  0 
  6  5  1  0  0  0  0 
  6  7  2  0  0  0  0 
  7 15  1  0  0  0  0 
  8  3  1  0  0  0  0 
  9  6  1  0  0  0  0 
 10  8  1  0  0  0  0 
 14  4  1  0  0  0  0 
 16  9  1  0  0  0  0 
M  CHG  2   8   1  10  -1 
M  END 
>  <HBA> 
3 
 
>  <HBD> 
1 
 
>  <TPSA> 
68.55 
 
>  <cid> 
72661 
 
>  <dipole> 
4.53 
 
>  <excitation_energy_1> 
3.899 
 
>  <excitation_energy_2> 
3.989 
 
>  <excitation_energy_3> 
4.54 
 
>  <excitation_energy_4> 
4.668 
 
>  <homo_energy> 
-6.332 
 
>  <homo_lumo_gap> 
4.558 
 
>  <logP> 
0.914 
 
>  <lumo_energy> 
-1.774 
 
>  <melting_point> 
108.63 
 
>  <molecular_refractivity> 
35.7 
 
>  <oscillator_strength_1> 
0.0237 
 
>  <oscillator_strength_2> 
0.0004 
 
>  <oscillator_strength_3> 
0.0059 
 
>  <oscillator_strength_4> 
0.1847 
 
>  <open_babel_can_smiles> 
[O-][n+]1cccc(c1)C(=N)O 
 
>  <mulliken_charges> 
16 
1   -0.171862 
2   -0.15918 
3   0.077467 
4   0.037207 
5   0.006072 
6   0.433697 
7   -0.567276 
8   -0.005813 
9   -0.570419 
10   -0.499841 
11   0.166662 
12   0.162869 
13   0.190573 
14   0.194474 
15   0.295598 
16   0.409771 
 
>  <lowdin_charges> 
16 
1   -0.142049 
2   -0.180108 
3   -0.119113 
4   -0.128106 
5   -0.041931 
6   0.12824 
7   -0.371893 
8   0.222622 
9   -0.356479 
10   -0.367972 
11   0.179628 
12   0.171965 
13   0.189987 
14   0.192497 
15   0.264236 
16   0.358477 
 
$$$$ 
 
