PCCDB-ID:  12253 
public computational chemistry database (PCCDB) project, http://pccdb.org 
 
 15 14  0  0  0  0  0  0  0  0999 V2000 
    2.1784   -0.9719   -1.2617 C   0  0  0  0  0  0  0  0  0  0  0  0 
    5.6489   -0.1498    0.8419 C   0  0  0  0  0  0  0  0  0  0  0  0 
    2.8519    0.0560   -0.3459 C   0  0  0  0  0  0  0  0  0  0  0  0 
    4.3225   -0.6164    1.4106 C   0  0  0  0  0  0  0  0  0  0  0  0 
    3.1523   -0.5363    0.9405 N   0  0  0  0  0  0  0  0  0  0  0  0 
    4.4366   -1.2183    2.6407 O   0  0  0  0  0  0  0  0  0  0  0  0 
    1.8717   -0.5072   -2.2060 H   0  0  0  0  0  0  0  0  0  0  0  0 
    1.2943   -1.3943   -0.7742 H   0  0  0  0  0  0  0  0  0  0  0  0 
    2.8631   -1.7964   -1.4904 H   0  0  0  0  0  0  0  0  0  0  0  0 
    5.5457    0.3089   -0.1418 H   0  0  0  0  0  0  0  0  0  0  0  0 
    6.3397   -0.9976    0.7503 H   0  0  0  0  0  0  0  0  0  0  0  0 
    6.1108    0.5859    1.5126 H   0  0  0  0  0  0  0  0  0  0  0  0 
    2.1529    0.8854   -0.1711 H   0  0  0  0  0  0  0  0  0  0  0  0 
    3.7236    0.4888   -0.8645 H   0  0  0  0  0  0  0  0  0  0  0  0 
    5.3696   -1.2294    2.9029 H   0  0  0  0  0  0  0  0  0  0  0  0 
  1  8  1  0  0  0  0 
  1  3  1  0  0  0  0 
  2  4  1  0  0  0  0 
  2 12  1  0  0  0  0 
  3 13  1  0  0  0  0 
  3  5  1  0  0  0  0 
  4  6  1  0  0  0  0 
  5  4  2  0  0  0  0 
  6 15  1  0  0  0  0 
  7  1  1  0  0  0  0 
  9  1  1  0  0  0  0 
 10  2  1  0  0  0  0 
 11  2  1  0  0  0  0 
 14  3  1  0  0  0  0 
M  END 
>  <HBA> 
2 
 
>  <HBD> 
1 
 
>  <TPSA> 
29.1 
 
>  <cid> 
12253 
 
>  <dipole> 
3.47 
 
>  <excitation_energy_1> 
5.703 
 
>  <excitation_energy_2> 
5.804 
 
>  <excitation_energy_3> 
5.905 
 
>  <excitation_energy_4> 
6.481 
 
>  <homo_energy> 
-6.517 
 
>  <homo_lumo_gap> 
7.344 
 
>  <logP> 
0.533 
 
>  <lumo_energy> 
0.827 
 
>  <melting_point> 
23.34 
 
>  <molecular_refractivity> 
24.34 
 
>  <oscillator_strength_1> 
0.0018 
 
>  <oscillator_strength_2> 
0.0034 
 
>  <oscillator_strength_3> 
0.0046 
 
>  <oscillator_strength_4> 
0.0069 
 
>  <open_babel_can_smiles> 
CC/N=C(/O)\C 
 
>  <mulliken_charges> 
15 
1   -0.431107 
2   -0.558055 
3   -0.145047 
4   0.487977 
5   -0.397272 
6   -0.57939 
7   0.135678 
8   0.16235 
9   0.142336 
10   0.182037 
11   0.1707 
12   0.172876 
13   0.147174 
14   0.109084 
15   0.400658 
 
>  <lowdin_charges> 
15 
1   -0.447146 
2   -0.485768 
3   -0.195926 
4   0.127148 
5   -0.200082 
6   -0.375913 
7   0.147547 
8   0.158956 
9   0.148375 
10   0.17189 
11   0.167112 
12   0.168879 
13   0.147066 
14   0.118855 
15   0.349007 
 
$$$$ 
 
