PCCDB-ID:  73100 
public computational chemistry database (PCCDB) project, http://pccdb.org 
 
 17 17  0  0  1  0  0  0  0  0999 V2000 
   -0.9368    0.2209   -1.8313 C   0  0  0  0  0  0  0  0  0  0  0  0 
    0.3354    0.5619   -1.2810 C   0  0  0  0  0  0  0  0  0  0  0  0 
   -1.3203   -0.9393   -1.2280 C   0  0  0  0  0  0  0  0  0  0  0  0 
    0.6430   -0.4163   -0.3736 C   0  0  0  0  0  0  0  0  0  0  0  0 
    1.7841   -0.7018    0.5047 C   0  0  2  0  0  0  0  0  0  0  0  0 
    2.9779    1.2834    0.1456 C   0  0  0  0  0  0  0  0  0  0  0  0 
    3.7380    1.6191   -0.8236 N   0  0  0  0  0  0  0  0  0  0  0  0 
    2.8139    0.0231    0.7033 N   0  0  0  0  0  0  0  0  0  0  0  0 
    1.7354   -1.8923    1.1445 O   0  0  0  0  0  0  0  0  0  0  0  0 
    2.2825    2.2398    0.8170 O   0  0  0  0  0  0  0  0  0  0  0  0 
   -0.3743   -1.3463   -0.3394 O   0  0  0  0  0  0  0  0  0  0  0  0 
   -1.4915    0.7708   -2.5783 H   0  0  0  0  0  0  0  0  0  0  0  0 
    0.9501    1.4125   -1.5332 H   0  0  0  0  0  0  0  0  0  0  0  0 
   -2.1908   -1.5722   -1.3081 H   0  0  0  0  0  0  0  0  0  0  0  0 
    4.2130    0.7996   -1.2023 H   0  0  0  0  0  0  0  0  0  0  0  0 
    0.9140   -2.3513    0.8994 H   0  0  0  0  0  0  0  0  0  0  0  0 
    2.5668    3.0827    0.4181 H   0  0  0  0  0  0  0  0  0  0  0  0 
  1  2  1  0  0  0  0 
  1  3  2  0  0  0  0 
  2  4  2  0  0  0  0 
  3 11  1  0  0  0  0 
  4 11  1  0  0  0  0 
  4  5  1  0  0  0  0 
  5  8  1  6  0  0  0 
  5  9  1  0  0  0  0 
  6  8  2  0  0  0  0 
  6 10  1  0  0  0  0 
  7  6  1  0  0  0  0 
 12  1  1  0  0  0  0 
 13  2  1  0  0  0  0 
 14  3  1  0  0  0  0 
 15  7  1  0  0  0  0 
 16  9  1  0  0  0  0 
 17 10  1  0  0  0  0 
M  RAD  2   5   2   7   2 
M  END 
>  <HBA> 
5 
 
>  <HBD> 
2 
 
>  <TPSA> 
85.33 
 
>  <cid> 
73100 
 
>  <dipole> 
5.24 
 
>  <excitation_energy_1> 
4.27 
 
>  <excitation_energy_2> 
4.764 
 
>  <excitation_energy_3> 
5.302 
 
>  <excitation_energy_4> 
5.636 
 
>  <homo_energy> 
-6.626 
 
>  <homo_lumo_gap> 
5.108 
 
>  <logP> 
1.179 
 
>  <lumo_energy> 
-1.518 
 
>  <melting_point> 
150.59 
 
>  <molecular_refractivity> 
35.0 
 
>  <oscillator_strength_1> 
0.0093 
 
>  <oscillator_strength_2> 
0.2807 
 
>  <oscillator_strength_3> 
0.1189 
 
>  <oscillator_strength_4> 
0.0091 
 
>  <open_babel_can_smiles> 
[NH]/C(=N\[C](c1ccco1)O)/O 
 
>  <mulliken_charges> 
17 
1   -0.195558 
2   -0.165889 
3   0.110715 
4   0.296657 
5   0.470557 
6   0.535968 
7   -0.624125 
8   -0.453112 
9   -0.588863 
10   -0.571436 
11   -0.480312 
12   0.162237 
13   0.189736 
14   0.17497 
15   0.29281 
16   0.431798 
17   0.413847 
 
>  <lowdin_charges> 
17 
1   -0.193631 
2   -0.164254 
3   -0.058747 
4   0.023739 
5   0.1564 
6   0.151907 
7   -0.464772 
8   -0.178226 
9   -0.341617 
10   -0.372162 
11   -0.107793 
12   0.180665 
13   0.194378 
14   0.18096 
15   0.264819 
16   0.364825 
17   0.363508 
 
$$$$ 
 
