PCCDB-ID:  24189 
public computational chemistry database (PCCDB) project, http://pccdb.org 
 
 33 33  0  0  1  0  0  0  0  0999 V2000 
    1.7711    1.6973   -2.1283 C   0  0  0  0  0  0  0  0  0  0  0  0 
    7.0316    1.2858    2.9059 C   0  0  0  0  0  0  0  0  0  0  0  0 
    8.2328   -1.1586    1.2606 C   0  0  0  0  0  0  0  0  0  0  0  0 
    2.5430    0.7173   -1.6582 C   0  0  0  0  0  0  0  0  0  0  0  0 
    3.1607    0.7187   -0.2876 C   0  0  0  0  0  0  0  0  0  0  0  0 
    5.1550    0.7978    1.2559 C   0  0  0  0  0  0  0  0  0  0  0  0 
    6.6522    0.6482    1.5698 C   0  0  2  0  0  0  0  0  0  0  0  0 
    5.2625    1.9329   -1.0413 C   0  0  0  0  0  0  0  0  0  0  0  0 
    5.2491   -0.5228   -0.9574 C   0  0  0  0  0  0  0  0  0  0  0  0 
    5.6186    0.6474   -2.9249 C   0  0  0  0  0  0  0  0  0  0  0  0 
    4.7400    0.7381   -0.2422 C   0  0  2  0  0  0  0  0  0  0  0  0 
    5.6750    1.8909   -2.2443 N   0  0  0  0  0  0  0  0  0  0  0  0 
    5.6073   -0.5624   -2.1798 N   0  0  0  0  0  0  0  0  0  0  0  0 
    5.2660    3.1475   -0.4415 O   0  0  0  0  0  0  0  0  0  0  0  0 
    5.1871   -1.6809   -0.2688 O   0  0  0  0  0  0  0  0  0  0  0  0 
    5.6304    0.6156   -4.1345 O   0  0  0  0  0  0  0  0  0  0  0  0 
    6.9038   -0.7699    1.6023 O   0  0  0  0  0  0  0  0  0  0  0  0 
    1.3370    1.6509   -3.1226 H   0  0  0  0  0  0  0  0  0  0  0  0 
    1.5457    2.5857   -1.5411 H   0  0  0  0  0  0  0  0  0  0  0  0 
    6.9036    2.3734    2.8655 H   0  0  0  0  0  0  0  0  0  0  0  0 
    8.0780    1.0846    3.1550 H   0  0  0  0  0  0  0  0  0  0  0  0 
    6.4059    0.8879    3.7123 H   0  0  0  0  0  0  0  0  0  0  0  0 
    8.2619   -2.2487    1.3128 H   0  0  0  0  0  0  0  0  0  0  0  0 
    8.9634   -0.7468    1.9678 H   0  0  0  0  0  0  0  0  0  0  0  0 
    8.4893   -0.8378    0.2424 H   0  0  0  0  0  0  0  0  0  0  0  0 
    2.7435   -0.1527   -2.2816 H   0  0  0  0  0  0  0  0  0  0  0  0 
    2.8517   -0.1788    0.2642 H   0  0  0  0  0  0  0  0  0  0  0  0 
    2.7976    1.5870    0.2781 H   0  0  0  0  0  0  0  0  0  0  0  0 
    4.7848    1.7304    1.7011 H   0  0  0  0  0  0  0  0  0  0  0  0 
    4.6231    0.0113    1.8045 H   0  0  0  0  0  0  0  0  0  0  0  0 
    7.2531    1.0947    0.7633 H   0  0  0  0  0  0  0  0  0  0  0  0 
    4.8673    3.0894    0.4393 H   0  0  0  0  0  0  0  0  0  0  0  0 
    5.6125   -1.5404    0.6087 H   0  0  0  0  0  0  0  0  0  0  0  0 
  1  4  2  0  0  0  0 
  1 19  1  0  0  0  0 
  2 21  1  0  0  0  0 
  2 22  1  0  0  0  0 
  3 23  1  0  0  0  0 
  3 17  1  0  0  0  0 
  3 24  1  0  0  0  0 
  4  5  1  0  0  0  0 
  5 27  1  0  0  0  0 
  5 28  1  0  0  0  0 
  6  7  1  0  0  0  0 
  6 29  1  0  0  0  0 
  6 30  1  0  0  0  0 
  7 31  1  6  0  0  0 
  7 17  1  0  0  0  0 
  7  2  1  0  0  0  0 
  8 14  1  0  0  0  0 
  8 11  1  0  0  0  0 
  9 15  1  0  0  0  0 
  9 11  1  0  0  0  0 
 10 12  2  0  0  0  0 
 10 13  1  0  0  0  0 
 11  5  1  6  0  0  0 
 11  6  1  0  0  0  0 
 12  8  2  0  0  0  0 
 13  9  2  0  0  0  0 
 14 32  1  0  0  0  0 
 15 33  1  0  0  0  0 
 16 10  2  0  0  0  0 
 18  1  1  0  0  0  0 
 20  2  1  0  0  0  0 
 25  3  1  0  0  0  0 
 26  4  1  0  0  0  0 
M  END 
>  <HBA> 
6 
 
>  <HBD> 
2 
 
>  <TPSA> 
84.5 
 
>  <cid> 
24189 
 
>  <dipole> 
9.52 
 
>  <excitation_energy_1> 
3.918 
 
>  <excitation_energy_2> 
4.19 
 
>  <excitation_energy_3> 
4.985 
 
>  <excitation_energy_4> 
5.27 
 
>  <homo_energy> 
-6.708 
 
>  <homo_lumo_gap> 
5.268 
 
>  <logP> 
0.998 
 
>  <lumo_energy> 
-1.439 
 
>  <melting_point> 
110.7 
 
>  <molecular_refractivity> 
67.65 
 
>  <oscillator_strength_1> 
0.001 
 
>  <oscillator_strength_2> 
0.0007 
 
>  <oscillator_strength_3> 
0.0227 
 
>  <oscillator_strength_4> 
0.0035 
 
>  <open_babel_can_smiles> 
C=CC[C@@]1(C[C@H](OC)C)C(=N[C](=[N]=C1O)=O)O 
 
>  <mulliken_charges> 
33 
1   -0.325198 
2   -0.462769 
3   -0.217321 
4   -0.064191 
5   -0.306693 
6   -0.361522 
7   0.161134 
8   0.5363 
9   0.506281 
10   0.611666 
11   -0.117043 
12   -0.455332 
13   -0.451336 
14   -0.579442 
15   -0.620946 
16   -0.433184 
17   -0.510732 
18   0.16129 
19   0.139134 
20   0.152684 
21   0.163849 
22   0.163087 
23   0.179406 
24   0.152873 
25   0.167787 
26   0.168665 
27   0.175099 
28   0.138578 
29   0.135217 
30   0.178167 
31   0.151578 
32   0.413525 
33   0.449388 
 
>  <lowdin_charges> 
33 
1   -0.313189 
2   -0.451614 
3   -0.280147 
4   -0.162368 
5   -0.260804 
6   -0.294363 
7   0.002396 
8   0.141463 
9   0.1387 
10   0.168162 
11   -0.058554 
12   -0.180086 
13   -0.179407 
14   -0.33541 
15   -0.369395 
16   -0.213226 
17   -0.283239 
18   0.169604 
19   0.155564 
20   0.156245 
21   0.160844 
22   0.161098 
23   0.165544 
24   0.146958 
25   0.151261 
26   0.170861 
27   0.166364 
28   0.148456 
29   0.14733 
30   0.168958 
31   0.145965 
32   0.35356 
33   0.362472 
 
$$$$ 
 
