PCCDB-ID:  45262 
public computational chemistry database (PCCDB) project, http://pccdb.org 
 
 18 17  0  0  0  0  0  0  0  0999 V2000 
    0.9882    0.3952    0.9038 C   0  0  0  0  0  0  0  0  0  0  0  0 
    2.3960    0.5856    0.3675 C   0  0  0  0  0  0  0  0  0  0  0  0 
    5.0439    2.6198    1.8543 C   0  0  0  0  0  0  0  0  0  0  0  0 
    4.4221    1.7003    0.8477 C   0  0  0  0  0  0  0  0  0  0  0  0 
    7.1890    2.7220    0.7182 C   0  0  0  0  0  0  0  0  0  0  0  0 
    6.8323    3.9674    2.8034 C   0  0  0  0  0  0  0  0  0  0  0  0 
    6.3113    3.0880    1.7953 C   0  0  0  0  0  0  0  0  0  0  0  0 
    7.8718    2.4044   -0.1678 N   0  0  0  0  0  0  0  0  0  0  0  0 
    7.2521    4.6794    3.6207 N   0  0  0  0  0  0  0  0  0  0  0  0 
    3.0968    1.4553    1.2512 O   0  0  0  0  0  0  0  0  0  0  0  0 
    0.4205   -0.2733    0.2480 H   0  0  0  0  0  0  0  0  0  0  0  0 
    0.4645    1.3547    0.9593 H   0  0  0  0  0  0  0  0  0  0  0  0 
    1.0147   -0.0419    1.9069 H   0  0  0  0  0  0  0  0  0  0  0  0 
    2.3750    1.0214   -0.6450 H   0  0  0  0  0  0  0  0  0  0  0  0 
    2.9240   -0.3797    0.2982 H   0  0  0  0  0  0  0  0  0  0  0  0 
    4.4098    2.9177    2.6849 H   0  0  0  0  0  0  0  0  0  0  0  0 
    5.0054    0.7633    0.7814 H   0  0  0  0  0  0  0  0  0  0  0  0 
    4.4623    2.1576   -0.1580 H   0  0  0  0  0  0  0  0  0  0  0  0 
  1 12  1  0  0  0  0 
  1 13  1  0  0  0  0 
  2  1  1  0  0  0  0 
  2 10  1  0  0  0  0 
  3 16  1  0  0  0  0 
  4 10  1  0  0  0  0 
  4  3  1  0  0  0  0 
  5  7  1  0  0  0  0 
  6  9  3  0  0  0  0 
  7  3  2  0  0  0  0 
  7  6  1  0  0  0  0 
  8  5  3  0  0  0  0 
 11  1  1  0  0  0  0 
 14  2  1  0  0  0  0 
 15  2  1  0  0  0  0 
 17  4  1  0  0  0  0 
 18  4  1  0  0  0  0 
M  END 
>  <HBA> 
3 
 
>  <HBD> 
0 
 
>  <TPSA> 
56.81 
 
>  <cid> 
45262 
 
>  <dipole> 
5.35 
 
>  <excitation_energy_1> 
4.354 
 
>  <excitation_energy_2> 
5.459 
 
>  <excitation_energy_3> 
5.806 
 
>  <excitation_energy_4> 
5.92 
 
>  <homo_energy> 
-7.657 
 
>  <homo_lumo_gap> 
5.102 
 
>  <logP> 
0.996 
 
>  <lumo_energy> 
-2.555 
 
>  <melting_point> 
44.84 
 
>  <molecular_refractivity> 
35.87 
 
>  <oscillator_strength_1> 
0.0136 
 
>  <oscillator_strength_2> 
0.3531 
 
>  <oscillator_strength_3> 
0.0 
 
>  <oscillator_strength_4> 
0.0008 
 
>  <open_babel_can_smiles> 
CCOCC=C(C#N)C#N 
 
>  <mulliken_charges> 
18 
1   -0.456592 
2   -0.014324 
3   -0.102207 
4   -0.04198 
5   0.292292 
6   0.297391 
7   0.130361 
8   -0.45959 
9   -0.453344 
10   -0.482962 
11   0.15296 
12   0.164265 
13   0.164219 
14   0.131476 
15   0.131401 
16   0.208004 
17   0.169291 
18   0.169338 
 
>  <lowdin_charges> 
18 
1   -0.448097 
2   -0.12316 
3   -0.061926 
4   -0.129409 
5   -0.005835 
6   -0.003585 
7   -0.042296 
8   -0.085465 
9   -0.086527 
10   -0.270045 
11   0.161197 
12   0.160207 
13   0.159696 
14   0.130928 
15   0.131504 
16   0.199128 
17   0.15739 
18   0.156296 
 
$$$$ 
 
