PCCDB-ID:  26982 
public computational chemistry database (PCCDB) project, http://pccdb.org 
 
 21 22  0  0  1  0  0  0  0  0999 V2000 
   -1.2353    0.5037   -0.9530 C   0  0  0  0  0  0  0  0  0  0  0  0 
   -0.3886   -1.5893    0.1565 C   0  0  0  0  0  0  0  0  0  0  0  0 
    0.2137    0.8526   -1.3947 C   0  0  0  0  0  0  0  0  0  0  0  0 
    1.0607   -1.2361   -0.2819 C   0  0  0  0  0  0  0  0  0  0  0  0 
   -0.4358    0.5588    1.3907 C   0  0  0  0  0  0  0  0  0  0  0  0 
    1.7229    1.6465    1.7962 C   0  0  0  0  0  0  0  0  0  0  0  0 
   -1.1921   -0.2769    0.3928 C   0  0  1  0  0  0  0  0  0  0  0  0 
    1.2193    0.3074   -0.3447 C   0  0  2  0  0  0  0  0  0  0  0  0 
    0.8212    0.8675    1.0129 C   0  0  0  0  0  0  0  0  0  0  0  0 
    2.4829    2.2790    2.4120 N   0  0  0  0  0  0  0  0  0  0  0  0 
   -1.7395   -0.1143   -1.7055 H   0  0  0  0  0  0  0  0  0  0  0  0 
   -1.8354    1.4114   -0.8316 H   0  0  0  0  0  0  0  0  0  0  0  0 
   -0.3841   -2.1884    1.0727 H   0  0  0  0  0  0  0  0  0  0  0  0 
   -0.8993   -2.1828   -0.6112 H   0  0  0  0  0  0  0  0  0  0  0  0 
    0.3410    1.9347   -1.5004 H   0  0  0  0  0  0  0  0  0  0  0  0 
    0.4444    0.4064   -2.3693 H   0  0  0  0  0  0  0  0  0  0  0  0 
    1.2847   -1.6552   -1.2700 H   0  0  0  0  0  0  0  0  0  0  0  0 
    1.7935   -1.6537    0.4159 H   0  0  0  0  0  0  0  0  0  0  0  0 
   -0.8707    0.8817    2.3322 H   0  0  0  0  0  0  0  0  0  0  0  0 
   -2.2052   -0.5041    0.7376 H   0  0  0  0  0  0  0  0  0  0  0  0 
    2.2440    0.5826   -0.6081 H   0  0  0  0  0  0  0  0  0  0  0  0 
  1 12  1  0  0  0  0 
  1  7  1  0  0  0  0 
  2  7  1  0  0  0  0 
  2 13  1  0  0  0  0 
  3  1  1  0  0  0  0 
  3  8  1  0  0  0  0 
  4  2  1  0  0  0  0 
  4 18  1  0  0  0  0 
  5 19  1  0  0  0  0 
  6 10  3  0  0  0  0 
  7 20  1  1  0  0  0 
  7  5  1  0  0  0  0 
  8 21  1  6  0  0  0 
  8  4  1  0  0  0  0 
  8  9  1  0  0  0  0 
  9  5  2  0  0  0  0 
  9  6  1  0  0  0  0 
 11  1  1  0  0  0  0 
 14  2  1  0  0  0  0 
 15  3  1  0  0  0  0 
 16  3  1  0  0  0  0 
 17  4  1  0  0  0  0 
M  END 
>  <HBA> 
1 
 
>  <HBD> 
0 
 
>  <TPSA> 
23.79 
 
>  <cid> 
26982 
 
>  <dipole> 
4.76 
 
>  <excitation_energy_1> 
5.732 
 
>  <excitation_energy_2> 
5.975 
 
>  <excitation_energy_3> 
6.172 
 
>  <excitation_energy_4> 
6.357 
 
>  <homo_energy> 
-6.993 
 
>  <homo_lumo_gap> 
5.959 
 
>  <logP> 
2.256 
 
>  <lumo_energy> 
-1.034 
 
>  <melting_point> 
63.71 
 
>  <molecular_refractivity> 
40.42 
 
>  <oscillator_strength_1> 
0.2799 
 
>  <oscillator_strength_2> 
0.0027 
 
>  <oscillator_strength_3> 
0.0093 
 
>  <oscillator_strength_4> 
0.0113 
 
>  <open_babel_can_smiles> 
N#CC1=C[C@@H]2CC[C@H]1CC2 
 
>  <mulliken_charges> 
21 
1   -0.267023 
2   -0.267269 
3   -0.266834 
4   -0.267018 
5   -0.116199 
6   0.245257 
7   -0.145523 
8   -0.159453 
9   0.138988 
10   -0.485167 
11   0.140654 
12   0.147469 
13   0.147572 
14   0.140681 
15   0.151872 
16   0.140979 
17   0.141038 
18   0.151916 
19   0.154404 
20   0.131026 
21   0.14263 
 
>  <lowdin_charges> 
21 
1   -0.279268 
2   -0.279325 
3   -0.276393 
4   -0.27953 
5   -0.127376 
6   -0.015791 
7   -0.131185 
8   -0.11989 
9   -0.039101 
10   -0.129289 
11   0.148867 
12   0.150927 
13   0.150896 
14   0.148874 
15   0.150688 
16   0.147711 
17   0.147652 
18   0.153776 
19   0.17027 
20   0.150493 
21   0.156994 
 
$$$$ 
 
