PCCDB-ID:  37985 
public computational chemistry database (PCCDB) project, http://pccdb.org 
 
 15 15  0  0  1  0  0  0  0  0999 V2000 
    0.1048    1.2045    0.4697 C   0  0  0  0  0  0  0  0  0  0  0  0 
   -1.0422    0.6350   -0.4043 C   0  0  0  0  0  0  0  0  0  0  0  0 
    0.9260   -0.0950    0.1660 C   0  0  2  0  0  0  0  0  0  0  0  0 
   -0.4196   -0.7711   -0.2068 C   0  0  2  0  0  0  0  0  0  0  0  0 
    1.7567   -0.7631    1.1421 N   0  0  0  0  0  0  0  0  0  0  0  0 
   -0.5253   -2.0570   -1.5026 S   0  0  0  0  0  0  0  0  0  0  0  0 
   -0.1765    1.2511    1.5287 H   0  0  0  0  0  0  0  0  0  0  0  0 
    0.5434    2.1645    0.1790 H   0  0  0  0  0  0  0  0  0  0  0  0 
   -0.9645    0.9658   -1.4453 H   0  0  0  0  0  0  0  0  0  0  0  0 
   -2.0727    0.7753   -0.0673 H   0  0  0  0  0  0  0  0  0  0  0  0 
    1.5232    0.0540   -0.7416 H   0  0  0  0  0  0  0  0  0  0  0  0 
   -0.8429   -1.2525    0.6828 H   0  0  0  0  0  0  0  0  0  0  0  0 
    1.2984   -0.7752    2.0522 H   0  0  0  0  0  0  0  0  0  0  0  0 
    2.6409   -0.2736    1.2640 H   0  0  0  0  0  0  0  0  0  0  0  0 
   -0.0104   -1.3061   -2.5018 H   0  0  0  0  0  0  0  0  0  0  0  0 
  1  7  1  0  0  0  0 
  2  4  1  0  0  0  0 
  2 10  1  0  0  0  0 
  2  1  1  0  0  0  0 
  3 11  1  6  0  0  0 
  3  1  1  0  0  0  0 
  3  5  1  0  0  0  0 
  4  3  1  0  0  0  0 
  4 12  1  1  0  0  0 
  5 14  1  0  0  0  0 
  5 13  1  0  0  0  0 
  6  4  1  0  0  0  0 
  8  1  1  0  0  0  0 
  9  2  1  0  0  0  0 
 15  6  1  0  0  0  0 
M  END 
>  <HBA> 
2 
 
>  <HBD> 
2 
 
>  <TPSA> 
64.82 
 
>  <cid> 
37985 
 
>  <dipole> 
3.18 
 
>  <excitation_energy_1> 
5.16 
 
>  <excitation_energy_2> 
5.54 
 
>  <excitation_energy_3> 
5.785 
 
>  <excitation_energy_4> 
5.918 
 
>  <homo_energy> 
-6.109 
 
>  <homo_lumo_gap> 
6.961 
 
>  <logP> 
1.106 
 
>  <lumo_energy> 
0.852 
 
>  <melting_point> 
71.85 
 
>  <molecular_refractivity> 
29.86 
 
>  <oscillator_strength_1> 
0.0093 
 
>  <oscillator_strength_2> 
0.0255 
 
>  <oscillator_strength_3> 
0.0158 
 
>  <oscillator_strength_4> 
0.016 
 
>  <open_babel_can_smiles> 
S[C@@H]1CC[C@H]1N 
 
>  <mulliken_charges> 
15 
1   -0.300447 
2   -0.267384 
3   0.053386 
4   -0.25377 
5   -0.705861 
6   -0.066159 
7   0.131399 
8   0.140908 
9   0.1445 
10   0.149186 
11   0.135222 
12   0.165561 
13   0.2915 
14   0.299895 
15   0.082065 
 
>  <lowdin_charges> 
15 
1   -0.307689 
2   -0.283017 
3   -0.075386 
4   -0.238572 
5   -0.534303 
6   -0.077873 
7   0.141646 
8   0.146158 
9   0.148692 
10   0.150478 
11   0.145761 
12   0.16427 
13   0.251952 
14   0.260124 
15   0.10776 
 
$$$$ 
 
