PCCDB-ID:  67435 
public computational chemistry database (PCCDB) project, http://pccdb.org 
 
 23 24  0  0  0  0  0  0  0  0999 V2000 
    0.5372    1.3556   -0.0685 C   0  0  0  0  0  0  0  0  0  0  0  0 
    0.4688   -0.9235    1.0187 C   0  0  0  0  0  0  0  0  0  0  0  0 
    1.8598    0.9399   -0.7444 C   0  0  0  0  0  0  0  0  0  0  0  0 
    1.7948   -1.2471    0.3020 C   0  0  0  0  0  0  0  0  0  0  0  0 
   -2.1877   -0.6909   -0.8503 C   0  0  0  0  0  0  0  0  0  0  0  0 
   -2.6261    0.3775    0.1461 C   0  0  0  0  0  0  0  0  0  0  0  0 
   -0.3274    0.1303    0.2408 C   0  0  0  0  0  0  0  0  0  0  0  0 
    2.6159   -0.0710    0.0008 N   0  0  0  0  0  0  0  0  0  0  0  0 
   -0.8011   -0.4105   -1.0027 O   0  0  0  0  0  0  0  0  0  0  0  0 
   -1.4901    0.4866    0.9982 O   0  0  0  0  0  0  0  0  0  0  0  0 
   -0.0317    2.0449   -0.7037 H   0  0  0  0  0  0  0  0  0  0  0  0 
    0.7463    1.8698    0.8788 H   0  0  0  0  0  0  0  0  0  0  0  0 
    0.6660   -0.5318    2.0254 H   0  0  0  0  0  0  0  0  0  0  0  0 
   -0.1459   -1.8246    1.1343 H   0  0  0  0  0  0  0  0  0  0  0  0 
    2.5019    1.8155   -0.8941 H   0  0  0  0  0  0  0  0  0  0  0  0 
    1.6401    0.5278   -1.7372 H   0  0  0  0  0  0  0  0  0  0  0  0 
    1.5706   -1.7468   -0.6488 H   0  0  0  0  0  0  0  0  0  0  0  0 
    2.3906   -1.9457    0.9003 H   0  0  0  0  0  0  0  0  0  0  0  0 
   -2.6654   -0.6151   -1.8312 H   0  0  0  0  0  0  0  0  0  0  0  0 
   -2.3488   -1.7024   -0.4480 H   0  0  0  0  0  0  0  0  0  0  0  0 
   -3.4905    0.0951    0.7540 H   0  0  0  0  0  0  0  0  0  0  0  0 
   -2.8382    1.3317   -0.3586 H   0  0  0  0  0  0  0  0  0  0  0  0 
    2.9441    0.3384    0.8760 H   0  0  0  0  0  0  0  0  0  0  0  0 
  1  7  1  0  0  0  0 
  1 12  1  0  0  0  0 
  2 14  1  0  0  0  0 
  2 13  1  0  0  0  0 
  3  1  1  0  0  0  0 
  3  8  1  0  0  0  0 
  4 18  1  0  0  0  0 
  4  2  1  0  0  0  0 
  5 20  1  0  0  0  0 
  5  6  1  0  0  0  0 
  6 21  1  0  0  0  0 
  6 10  1  0  0  0  0 
  7 10  1  0  0  0  0 
  7  2  1  0  0  0  0 
  8  4  1  0  0  0  0 
  8 23  1  0  0  0  0 
  9  5  1  0  0  0  0 
  9  7  1  0  0  0  0 
 11  1  1  0  0  0  0 
 15  3  1  0  0  0  0 
 16  3  1  0  0  0  0 
 17  4  1  0  0  0  0 
 19  5  1  0  0  0  0 
 22  6  1  0  0  0  0 
M  END 
>  <HBA> 
3 
 
>  <HBD> 
1 
 
>  <TPSA> 
30.49 
 
>  <cid> 
67435 
 
>  <dipole> 
1.68 
 
>  <excitation_energy_1> 
5.324 
 
>  <excitation_energy_2> 
5.828 
 
>  <excitation_energy_3> 
6.008 
 
>  <excitation_energy_4> 
6.076 
 
>  <homo_energy> 
-5.829 
 
>  <homo_lumo_gap> 
7.87 
 
>  <logP> 
0.442 
 
>  <lumo_energy> 
2.041 
 
>  <melting_point> 
38.23 
 
>  <molecular_refractivity> 
40.46 
 
>  <oscillator_strength_1> 
0.0119 
 
>  <oscillator_strength_2> 
0.0071 
 
>  <oscillator_strength_3> 
0.0169 
 
>  <oscillator_strength_4> 
0.0084 
 
>  <open_babel_can_smiles> 
N1CCC2(CC1)OCCO2 
 
>  <mulliken_charges> 
23 
1   -0.281403 
2   -0.28066 
3   -0.158962 
4   -0.157183 
5   -0.047849 
6   -0.046171 
7   0.545365 
8   -0.525521 
9   -0.514399 
10   -0.524333 
11   0.135393 
12   0.135144 
13   0.135671 
14   0.133341 
15   0.138497 
16   0.159255 
17   0.156477 
18   0.138337 
19   0.151093 
20   0.136474 
21   0.149048 
22   0.137024 
23   0.285361 
 
>  <lowdin_charges> 
23 
1   -0.308502 
2   -0.308263 
3   -0.211323 
4   -0.212794 
5   -0.142095 
6   -0.143533 
7   0.211825 
8   -0.357859 
9   -0.275031 
10   -0.269652 
11   0.15334 
12   0.147263 
13   0.147046 
14   0.15111 
15   0.147162 
16   0.150069 
17   0.149735 
18   0.148152 
19   0.153739 
20   0.13361 
21   0.153403 
22   0.135224 
23   0.247374 
 
$$$$ 
 
