PCCDB-ID:  7668 
public computational chemistry database (PCCDB) project, http://pccdb.org 
 
 21 21  0  0  0  0  0  0  0  0999 V2000 
    1.0378   -0.6147    2.7324 C   0  0  0  0  0  0  0  0  0  0  0  0 
    2.5662   -0.6510    2.6433 C   0  0  0  0  0  0  0  0  0  0  0  0 
    7.4106   -0.6641    0.9957 C   0  0  0  0  0  0  0  0  0  0  0  0 
    6.6781   -1.8526    0.9818 C   0  0  0  0  0  0  0  0  0  0  0  0 
    6.7376    0.5573    1.0587 C   0  0  0  0  0  0  0  0  0  0  0  0 
    3.0841   -0.5646    1.1933 C   0  0  0  0  0  0  0  0  0  0  0  0 
    5.2841   -1.8166    1.0312 C   0  0  0  0  0  0  0  0  0  0  0  0 
    5.3432    0.5867    1.1083 C   0  0  0  0  0  0  0  0  0  0  0  0 
    4.5946   -0.5980    1.0974 C   0  0  0  0  0  0  0  0  0  0  0  0 
    0.6980   -0.6835    3.7720 H   0  0  0  0  0  0  0  0  0  0  0  0 
    0.5879   -1.4481    2.1786 H   0  0  0  0  0  0  0  0  0  0  0  0 
    0.6369    0.3156    2.3114 H   0  0  0  0  0  0  0  0  0  0  0  0 
    2.9446   -1.5734    3.1037 H   0  0  0  0  0  0  0  0  0  0  0  0 
    2.9939    0.1761    3.2254 H   0  0  0  0  0  0  0  0  0  0  0  0 
    8.4962   -0.6895    0.9524 H   0  0  0  0  0  0  0  0  0  0  0  0 
    7.1922   -2.8088    0.9263 H   0  0  0  0  0  0  0  0  0  0  0  0 
    7.2981    1.4888    1.0639 H   0  0  0  0  0  0  0  0  0  0  0  0 
    2.7052    0.3590    0.7351 H   0  0  0  0  0  0  0  0  0  0  0  0 
    2.6579   -1.3952    0.6143 H   0  0  0  0  0  0  0  0  0  0  0  0 
    4.7203   -2.7472    1.0141 H   0  0  0  0  0  0  0  0  0  0  0  0 
    4.8257    1.5430    1.1524 H   0  0  0  0  0  0  0  0  0  0  0  0 
  1 10  1  0  0  0  0 
  2  1  1  0  0  0  0 
  2 13  1  0  0  0  0 
  2 14  1  0  0  0  0 
  3  5  1  0  0  0  0 
  4  3  2  0  0  0  0 
  4  7  1  0  0  0  0 
  5 17  1  0  0  0  0 
  5  8  2  0  0  0  0 
  6  2  1  0  0  0  0 
  7  9  2  0  0  0  0 
  8 21  1  0  0  0  0 
  9  8  1  0  0  0  0 
  9  6  1  0  0  0  0 
 11  1  1  0  0  0  0 
 12  1  1  0  0  0  0 
 15  3  1  0  0  0  0 
 16  4  1  0  0  0  0 
 18  6  1  0  0  0  0 
 19  6  1  0  0  0  0 
 20  7  1  0  0  0  0 
M  END 
>  <HBA> 
0 
 
>  <HBD> 
0 
 
>  <TPSA> 
0.0 
 
>  <cid> 
7668 
 
>  <dipole> 
0.31 
 
>  <excitation_energy_1> 
5.298 
 
>  <excitation_energy_2> 
5.873 
 
>  <excitation_energy_3> 
6.009 
 
>  <excitation_energy_4> 
6.195 
 
>  <homo_energy> 
-6.397 
 
>  <homo_lumo_gap> 
6.544 
 
>  <logP> 
2.639 
 
>  <lumo_energy> 
0.147 
 
>  <melting_point> 
5.82 
 
>  <molecular_refractivity> 
41.02 
 
>  <oscillator_strength_1> 
0.001 
 
>  <oscillator_strength_2> 
0.0415 
 
>  <oscillator_strength_3> 
0.0018 
 
>  <oscillator_strength_4> 
0.0024 
 
>  <open_babel_can_smiles> 
CCCc1ccccc1 
 
>  <mulliken_charges> 
21 
1   -0.441392 
2   -0.242066 
3   -0.131977 
4   -0.127978 
5   -0.127839 
6   -0.341745 
7   -0.180505 
8   -0.181579 
9   0.17368 
10   0.144747 
11   0.142001 
12   0.142154 
13   0.137851 
14   0.138129 
15   0.126154 
16   0.126533 
17   0.126549 
18   0.137923 
19   0.13853 
20   0.120418 
21   0.120413 
 
>  <lowdin_charges> 
21 
1   -0.44572 
2   -0.27063 
3   -0.159891 
4   -0.156085 
5   -0.156503 
6   -0.274911 
7   -0.16862 
8   -0.168577 
9   0.001291 
10   0.150103 
11   0.14752 
12   0.146925 
13   0.143328 
14   0.144217 
15   0.154024 
16   0.156072 
17   0.156348 
18   0.146836 
19   0.147758 
20   0.153389 
21   0.153127 
 
$$$$ 
 
