PCCDB-ID:  32054 
public computational chemistry database (PCCDB) project, http://pccdb.org 
 
 25 25  0  0  1  0  0  0  0  0999 V2000 
    0.9587   -0.4243   -0.3597 C   0  0  0  0  0  0  0  0  0  0  0  0 
    3.1905   -1.4112    0.1211 C   0  0  0  0  0  0  0  0  0  0  0  0 
    2.4646    0.9367    2.6966 C   0  0  0  0  0  0  0  0  0  0  0  0 
    3.8717    3.7088    0.8359 C   0  0  0  0  0  0  0  0  0  0  0  0 
    4.1293    2.5983    1.8309 C   0  0  0  0  0  0  0  0  0  0  0  0 
    3.0104    3.5975   -0.1805 C   0  0  0  0  0  0  0  0  0  0  0  0 
    2.2421   -0.2427   -0.0288 C   0  0  0  0  0  0  0  0  0  0  0  0 
    3.1346    1.4694    1.6697 C   0  0  0  0  0  0  0  0  0  0  0  0 
    2.1863    2.3503   -0.4309 C   0  0  1  0  0  0  0  0  0  0  0  0 
    2.8848    1.1153    0.2086 C   0  0  2  0  0  0  0  0  0  0  0  0 
    0.8464    2.5534    0.0295 O   0  0  0  0  0  0  0  0  0  0  0  0 
    0.5708   -1.4255   -0.5352 H   0  0  0  0  0  0  0  0  0  0  0  0 
    0.2686    0.4047   -0.4634 H   0  0  0  0  0  0  0  0  0  0  0  0 
    2.6731   -2.3674   -0.0038 H   0  0  0  0  0  0  0  0  0  0  0  0 
    3.6715   -1.4081    1.1075 H   0  0  0  0  0  0  0  0  0  0  0  0 
    3.9980   -1.3626   -0.6231 H   0  0  0  0  0  0  0  0  0  0  0  0 
    2.6363    1.2680    3.7182 H   0  0  0  0  0  0  0  0  0  0  0  0 
    1.7404    0.1408    2.5498 H   0  0  0  0  0  0  0  0  0  0  0  0 
    4.4280    4.6339    0.9820 H   0  0  0  0  0  0  0  0  0  0  0  0 
    4.1041    2.9951    2.8542 H   0  0  0  0  0  0  0  0  0  0  0  0 
    5.1548    2.2172    1.6824 H   0  0  0  0  0  0  0  0  0  0  0  0 
    2.8322    4.4409   -0.8446 H   0  0  0  0  0  0  0  0  0  0  0  0 
    2.0803    2.1743   -1.5065 H   0  0  0  0  0  0  0  0  0  0  0  0 
    3.8759    1.0811   -0.2739 H   0  0  0  0  0  0  0  0  0  0  0  0 
    0.9002    2.6145    0.9994 H   0  0  0  0  0  0  0  0  0  0  0  0 
  1  7  2  0  0  0  0 
  2 15  1  0  0  0  0 
  3 17  1  0  0  0  0 
  4 19  1  0  0  0  0 
  4  5  1  0  0  0  0 
  5 20  1  0  0  0  0 
  6  4  2  0  0  0  0 
  7  2  1  0  0  0  0 
  7 10  1  0  0  0  0 
  8  5  1  0  0  0  0 
  8  3  2  0  0  0  0 
  9 23  1  6  0  0  0 
  9  6  1  0  0  0  0 
  9 11  1  0  0  0  0 
  9 10  1  0  0  0  0 
 10 24  1  6  0  0  0 
 10  8  1  0  0  0  0 
 11 25  1  0  0  0  0 
 12  1  1  0  0  0  0 
 13  1  1  0  0  0  0 
 14  2  1  0  0  0  0 
 16  2  1  0  0  0  0 
 18  3  1  0  0  0  0 
 21  5  1  0  0  0  0 
 22  6  1  0  0  0  0 
M  END 
>  <HBA> 
1 
 
>  <HBD> 
1 
 
>  <TPSA> 
20.23 
 
>  <cid> 
32054 
 
>  <dipole> 
2.12 
 
>  <excitation_energy_1> 
5.612 
 
>  <excitation_energy_2> 
5.801 
 
>  <excitation_energy_3> 
5.807 
 
>  <excitation_energy_4> 
6.028 
 
>  <homo_energy> 
-6.498 
 
>  <homo_lumo_gap> 
6.795 
 
>  <logP> 
2.056 
 
>  <lumo_energy> 
0.297 
 
>  <melting_point> 
-12.59 
 
>  <molecular_refractivity> 
47.81 
 
>  <oscillator_strength_1> 
0.0018 
 
>  <oscillator_strength_2> 
0.0107 
 
>  <oscillator_strength_3> 
0.0008 
 
>  <oscillator_strength_4> 
0.025 
 
>  <open_babel_can_smiles> 
CC(=C)[C@H]1[C@@H](O)C=CCC1=C 
 
>  <mulliken_charges> 
25 
1   -0.411461 
2   -0.511677 
3   -0.419189 
4   -0.114375 
5   -0.360333 
6   -0.114719 
7   0.206321 
8   0.186221 
9   0.087495 
10   -0.229045 
11   -0.616335 
12   0.124475 
13   0.174987 
14   0.151586 
15   0.157486 
16   0.149501 
17   0.135711 
18   0.154694 
19   0.131682 
20   0.153507 
21   0.160389 
22   0.133994 
23   0.144442 
24   0.137238 
25   0.387405 
 
>  <lowdin_charges> 
25 
1   -0.363904 
2   -0.442572 
3   -0.365967 
4   -0.164914 
5   -0.272773 
6   -0.188596 
7   0.000431 
8   -0.000675 
9   0.003658 
10   -0.140395 
11   -0.45251 
12   0.150304 
13   0.175204 
14   0.155559 
15   0.156921 
16   0.153027 
17   0.155509 
18   0.167391 
19   0.156305 
20   0.156775 
21   0.159135 
22   0.159842 
23   0.150184 
24   0.154266 
25   0.337794 
 
$$$$ 
 
