PCCDB-ID:  8389 
public computational chemistry database (PCCDB) project, http://pccdb.org 
 
 24 24  0  0  0  0  0  0  0  0999 V2000 
    0.8615   -0.5794   -0.2663 C   0  0  0  0  0  0  0  0  0  0  0  0 
    1.3036    2.4424    0.8002 C   0  0  0  0  0  0  0  0  0  0  0  0 
    2.6105    3.2523   -1.0565 C   0  0  0  0  0  0  0  0  0  0  0  0 
    3.2222   -1.4312   -0.0551 C   0  0  0  0  0  0  0  0  0  0  0  0 
    4.6095   -1.2828   -0.0364 C   0  0  0  0  0  0  0  0  0  0  0  0 
    4.3071    1.1057   -0.2503 C   0  0  0  0  0  0  0  0  0  0  0  0 
    2.3506   -0.3468   -0.1737 C   0  0  0  0  0  0  0  0  0  0  0  0 
    5.1505   -0.0021   -0.1435 C   0  0  0  0  0  0  0  0  0  0  0  0 
    2.9148    0.9520   -0.2609 C   0  0  0  0  0  0  0  0  0  0  0  0 
    2.0524    2.0784   -0.4021 N   0  0  0  0  0  0  0  0  0  0  0  0 
    6.5005    0.2392   -0.1416 O   0  0  0  0  0  0  0  0  0  0  0  0 
    0.6515   -1.5810   -0.6566 H   0  0  0  0  0  0  0  0  0  0  0  0 
    0.3956    0.1584   -0.9275 H   0  0  0  0  0  0  0  0  0  0  0  0 
    0.3566   -0.5058    0.7073 H   0  0  0  0  0  0  0  0  0  0  0  0 
    0.4941    3.1309    0.5310 H   0  0  0  0  0  0  0  0  0  0  0  0 
    1.9398    2.9376    1.5561 H   0  0  0  0  0  0  0  0  0  0  0  0 
    0.8596    1.5585    1.2602 H   0  0  0  0  0  0  0  0  0  0  0  0 
    1.7895    3.9272   -1.3247 H   0  0  0  0  0  0  0  0  0  0  0  0 
    3.1270    2.9566   -1.9735 H   0  0  0  0  0  0  0  0  0  0  0  0 
    3.3162    3.8237   -0.4255 H   0  0  0  0  0  0  0  0  0  0  0  0 
    2.8024   -2.4334   -0.0018 H   0  0  0  0  0  0  0  0  0  0  0  0 
    5.2577   -2.1539    0.0396 H   0  0  0  0  0  0  0  0  0  0  0  0 
    4.7637    2.0870   -0.3104 H   0  0  0  0  0  0  0  0  0  0  0  0 
    6.9655   -0.6054   -0.0382 H   0  0  0  0  0  0  0  0  0  0  0  0 
  1  7  1  0  0  0  0 
  1 14  1  0  0  0  0 
  2 17  1  0  0  0  0 
  2 16  1  0  0  0  0 
  3 20  1  0  0  0  0 
  3 10  1  0  0  0  0 
  4  5  1  0  0  0  0 
  4 21  1  0  0  0  0 
  5 22  1  0  0  0  0 
  6  8  1  0  0  0  0 
  7  4  2  0  0  0  0 
  8 11  1  0  0  0  0 
  8  5  2  0  0  0  0 
  9  6  2  0  0  0  0 
  9  7  1  0  0  0  0 
 10  9  1  0  0  0  0 
 10  2  1  0  0  0  0 
 11 24  1  0  0  0  0 
 12  1  1  0  0  0  0 
 13  1  1  0  0  0  0 
 15  2  1  0  0  0  0 
 18  3  1  0  0  0  0 
 19  3  1  0  0  0  0 
 23  6  1  0  0  0  0 
M  END 
>  <HBA> 
2 
 
>  <HBD> 
1 
 
>  <TPSA> 
23.47 
 
>  <cid> 
8389 
 
>  <dipole> 
0.67 
 
>  <excitation_energy_1> 
4.655 
 
>  <excitation_energy_2> 
4.81 
 
>  <excitation_energy_3> 
4.939 
 
>  <excitation_energy_4> 
5.152 
 
>  <homo_energy> 
-5.309 
 
>  <homo_lumo_gap> 
5.592 
 
>  <logP> 
1.767 
 
>  <lumo_energy> 
0.283 
 
>  <melting_point> 
58.48 
 
>  <molecular_refractivity> 
47.64 
 
>  <oscillator_strength_1> 
0.058 
 
>  <oscillator_strength_2> 
0.0046 
 
>  <oscillator_strength_3> 
0.0631 
 
>  <oscillator_strength_4> 
0.0283 
 
>  <open_babel_can_smiles> 
Oc1ccc(c(c1)N(C)C)C 
 
>  <mulliken_charges> 
24 
1   -0.536857 
2   -0.30498 
3   -0.304872 
4   -0.204755 
5   -0.192536 
6   -0.216415 
7   0.162125 
8   0.344255 
9   0.225475 
10   -0.453286 
11   -0.648781 
12   0.14881 
13   0.171217 
14   0.151857 
15   0.148501 
16   0.133096 
17   0.162235 
18   0.150399 
19   0.164741 
20   0.129526 
21   0.120216 
22   0.11084 
23   0.13432 
24   0.404869 
 
>  <lowdin_charges> 
24 
1   -0.444757 
2   -0.352022 
3   -0.357848 
4   -0.152277 
5   -0.23017 
6   -0.220375 
7   -0.036202 
8   0.104138 
9   0.04658 
10   -0.149907 
11   -0.386042 
12   0.153965 
13   0.165865 
14   0.150545 
15   0.149138 
16   0.131172 
17   0.159803 
18   0.152411 
19   0.159742 
20   0.127902 
21   0.153516 
22   0.151458 
23   0.167678 
24   0.355686 
 
$$$$ 
 
