PCCDB-ID:  12045 
public computational chemistry database (PCCDB) project, http://pccdb.org 
 
 21 20  0  0  0  0  0  0  0  0999 V2000 
    0.6634    0.2154   -0.2341 C   0  0  0  0  0  0  0  0  0  0  0  0 
    2.5203   -1.5757    4.5425 C   0  0  0  0  0  0  0  0  0  0  0  0 
    3.1638    0.8216   -3.4876 C   0  0  0  0  0  0  0  0  0  0  0  0 
    2.7345   -0.5292    1.0543 C   0  0  0  0  0  0  0  0  0  0  0  0 
    2.1262   -0.0835   -0.0623 C   0  0  0  0  0  0  0  0  0  0  0  0 
    2.0821   -0.8228    2.3519 C   0  0  0  0  0  0  0  0  0  0  0  0 
    3.0421    0.1290   -1.2407 C   0  0  0  0  0  0  0  0  0  0  0  0 
    0.9039   -0.7162    2.6384 O   0  0  0  0  0  0  0  0  0  0  0  0 
    4.2391   -0.0775   -1.2474 O   0  0  0  0  0  0  0  0  0  0  0  0 
    3.0158   -1.2525    3.2351 O   0  0  0  0  0  0  0  0  0  0  0  0 
    2.3661    0.5890   -2.3155 O   0  0  0  0  0  0  0  0  0  0  0  0 
    0.1104   -0.0058    0.6766 H   0  0  0  0  0  0  0  0  0  0  0  0 
    0.2532   -0.3677   -1.0667 H   0  0  0  0  0  0  0  0  0  0  0  0 
    0.5225    1.2696   -0.5011 H   0  0  0  0  0  0  0  0  0  0  0  0 
    3.3910   -1.8999    5.1130 H   0  0  0  0  0  0  0  0  0  0  0  0 
    1.7773   -2.3759    4.4850 H   0  0  0  0  0  0  0  0  0  0  0  0 
    2.0598   -0.6992    5.0068 H   0  0  0  0  0  0  0  0  0  0  0  0 
    2.4688    1.1803   -4.2471 H   0  0  0  0  0  0  0  0  0  0  0  0 
    3.6468   -0.1041   -3.8114 H   0  0  0  0  0  0  0  0  0  0  0  0 
    3.9339    1.5701   -3.2835 H   0  0  0  0  0  0  0  0  0  0  0  0 
    3.8058   -0.6969    1.0207 H   0  0  0  0  0  0  0  0  0  0  0  0 
  1  5  1  0  0  0  0 
  1 12  1  0  0  0  0 
  2 17  1  0  0  0  0 
  2 15  1  0  0  0  0 
  3 20  1  0  0  0  0 
  3 11  1  0  0  0  0 
  4  6  1  0  0  0  0 
  5  4  2  0  0  0  0 
  6  8  2  0  0  0  0 
  6 10  1  0  0  0  0 
  7  5  1  0  0  0  0 
  9  7  2  0  0  0  0 
 10  2  1  0  0  0  0 
 11  7  1  0  0  0  0 
 13  1  1  0  0  0  0 
 14  1  1  0  0  0  0 
 16  2  1  0  0  0  0 
 18  3  1  0  0  0  0 
 19  3  1  0  0  0  0 
 21  4  1  0  0  0  0 
M  END 
>  <HBA> 
4 
 
>  <HBD> 
0 
 
>  <TPSA> 
52.6 
 
>  <cid> 
12045 
 
>  <dipole> 
0.78 
 
>  <excitation_energy_1> 
4.186 
 
>  <excitation_energy_2> 
4.368 
 
>  <excitation_energy_3> 
5.235 
 
>  <excitation_energy_4> 
5.693 
 
>  <homo_energy> 
-7.442 
 
>  <homo_lumo_gap> 
5.421 
 
>  <logP> 
0.279 
 
>  <lumo_energy> 
-2.022 
 
>  <melting_point> 
10.87 
 
>  <molecular_refractivity> 
37.86 
 
>  <oscillator_strength_1> 
0.0 
 
>  <oscillator_strength_2> 
0.0001 
 
>  <oscillator_strength_3> 
0.4366 
 
>  <oscillator_strength_4> 
0.0353 
 
>  <open_babel_can_smiles> 
COC(=O)/C=C(/C(=O)OC)\C 
 
>  <mulliken_charges> 
21 
1   -0.528677 
2   -0.217086 
3   -0.219878 
4   -0.229658 
5   0.101084 
6   0.62192 
7   0.600974 
8   -0.491686 
9   -0.481659 
10   -0.455551 
11   -0.461131 
12   0.208271 
13   0.169319 
14   0.169904 
15   0.16713 
16   0.171492 
17   0.171352 
18   0.167525 
19   0.174571 
20   0.174375 
21   0.187409 
 
>  <lowdin_charges> 
21 
1   -0.45233 
2   -0.280141 
3   -0.27915 
4   -0.171094 
5   0.008906 
6   0.192328 
7   0.187821 
8   -0.265441 
9   -0.260312 
10   -0.185325 
11   -0.181609 
12   0.185824 
13   0.170095 
14   0.168557 
15   0.162874 
16   0.160665 
17   0.161053 
18   0.163392 
19   0.162385 
20   0.162465 
21   0.189034 
 
$$$$ 
 
