PCCDB-ID:  19707 
public computational chemistry database (PCCDB) project, http://pccdb.org 
 
 18 17  0  0  0  0  0  0  0  0999 V2000 
    1.2555    0.0100   -0.6738 C   0  0  0  0  0  0  0  0  0  0  0  0 
    7.3303   -0.8715    1.3865 C   0  0  0  0  0  0  0  0  0  0  0  0 
    2.6886    0.4674   -0.3870 C   0  0  0  0  0  0  0  0  0  0  0  0 
    3.5573   -0.6534    0.1864 C   0  0  0  0  0  0  0  0  0  0  0  0 
    5.9183   -1.3075    1.0792 C   0  0  0  0  0  0  0  0  0  0  0  0 
    4.9750   -0.2246    0.4935 C   0  0  0  0  0  0  0  0  0  0  0  0 
    5.4980   -2.4335    1.2648 O   0  0  0  0  0  0  0  0  0  0  0  0 
    5.4029    0.8993    0.3086 O   0  0  0  0  0  0  0  0  0  0  0  0 
    0.6562    0.8299   -1.0849 H   0  0  0  0  0  0  0  0  0  0  0  0 
    0.7576   -0.3416    0.2382 H   0  0  0  0  0  0  0  0  0  0  0  0 
    1.2355   -0.8130   -1.3988 H   0  0  0  0  0  0  0  0  0  0  0  0 
    7.3220   -0.0447    2.1057 H   0  0  0  0  0  0  0  0  0  0  0  0 
    7.8132   -0.4848    0.4821 H   0  0  0  0  0  0  0  0  0  0  0  0 
    7.8955   -1.7151    1.7864 H   0  0  0  0  0  0  0  0  0  0  0  0 
    2.6812    1.3109    0.3138 H   0  0  0  0  0  0  0  0  0  0  0  0 
    3.1523    0.8477   -1.3051 H   0  0  0  0  0  0  0  0  0  0  0  0 
    3.6071   -1.5151   -0.4953 H   0  0  0  0  0  0  0  0  0  0  0  0 
    3.1244   -1.0679    1.1085 H   0  0  0  0  0  0  0  0  0  0  0  0 
  1  3  1  0  0  0  0 
  1 10  1  0  0  0  0 
  2 14  1  0  0  0  0 
  2 12  1  0  0  0  0 
  3  4  1  0  0  0  0 
  3 15  1  0  0  0  0 
  4  6  1  0  0  0  0 
  4 18  1  0  0  0  0 
  5  7  2  0  0  0  0 
  5  2  1  0  0  0  0 
  6  5  1  0  0  0  0 
  8  6  2  0  0  0  0 
  9  1  1  0  0  0  0 
 11  1  1  0  0  0  0 
 13  2  1  0  0  0  0 
 16  3  1  0  0  0  0 
 17  4  1  0  0  0  0 
M  END 
>  <HBA> 
2 
 
>  <HBD> 
0 
 
>  <TPSA> 
34.14 
 
>  <cid> 
19707 
 
>  <dipole> 
0.22 
 
>  <excitation_energy_1> 
2.67 
 
>  <excitation_energy_2> 
4.464 
 
>  <excitation_energy_3> 
5.871 
 
>  <excitation_energy_4> 
5.987 
 
>  <homo_energy> 
-6.561 
 
>  <homo_lumo_gap> 
4.275 
 
>  <logP> 
0.945 
 
>  <lumo_energy> 
-2.286 
 
>  <melting_point> 
16.22 
 
>  <molecular_refractivity> 
31.36 
 
>  <oscillator_strength_1> 
0.0 
 
>  <oscillator_strength_2> 
0.0 
 
>  <oscillator_strength_3> 
0.0107 
 
>  <oscillator_strength_4> 
0.0002 
 
>  <open_babel_can_smiles> 
CCCC(=O)C(=O)C 
 
>  <mulliken_charges> 
18 
1   -0.446048 
2   -0.522987 
3   -0.245477 
4   -0.347962 
5   0.391922 
6   0.380705 
7   -0.417645 
8   -0.431197 
9   0.148452 
10   0.143885 
11   0.143845 
12   0.186921 
13   0.187104 
14   0.177728 
15   0.14973 
16   0.149325 
17   0.175937 
18   0.175761 
 
>  <lowdin_charges> 
18 
1   -0.446283 
2   -0.470336 
3   -0.270072 
4   -0.305467 
5   0.135292 
6   0.130971 
7   -0.205516 
8   -0.207545 
9   0.154041 
10   0.148102 
11   0.148087 
12   0.183163 
13   0.183108 
14   0.173977 
15   0.151044 
16   0.150841 
17   0.173413 
18   0.173181 
 
$$$$ 
 
