PCCDB-ID:  12298 
public computational chemistry database (PCCDB) project, http://pccdb.org 
 
 18 17  0  0  0  0  0  0  0  0999 V2000 
    1.0332    0.1934   -0.1373 C   0  0  0  0  0  0  0  0  0  0  0  0 
    2.5483   -0.0315   -0.1622 C   0  0  0  0  0  0  0  0  0  0  0  0 
    3.0578   -0.8100    1.0569 C   0  0  0  0  0  0  0  0  0  0  0  0 
    4.5813   -1.0464    1.0253 C   0  0  0  0  0  0  0  0  0  0  0  0 
    5.0992   -1.8028    2.2376 C   0  0  0  0  0  0  0  0  0  0  0  0 
    5.6060   -2.9658    2.2783 N   0  0  0  0  0  0  0  0  0  0  0  0 
    4.9736   -1.1410    3.4271 O   0  0  0  0  0  0  0  0  0  0  0  0 
    0.6998    0.7500   -1.0200 H   0  0  0  0  0  0  0  0  0  0  0  0 
    0.7307    0.7629    0.7500 H   0  0  0  0  0  0  0  0  0  0  0  0 
    0.4914   -0.7598   -0.1194 H   0  0  0  0  0  0  0  0  0  0  0  0 
    3.0638    0.9380   -0.2162 H   0  0  0  0  0  0  0  0  0  0  0  0 
    2.8245   -0.5743   -1.0770 H   0  0  0  0  0  0  0  0  0  0  0  0 
    2.5494   -1.7816    1.1152 H   0  0  0  0  0  0  0  0  0  0  0  0 
    2.7793   -0.2698    1.9735 H   0  0  0  0  0  0  0  0  0  0  0  0 
    5.1010   -0.0780    0.9595 H   0  0  0  0  0  0  0  0  0  0  0  0 
    4.8491   -1.6046    0.1217 H   0  0  0  0  0  0  0  0  0  0  0  0 
    5.6384   -3.3605    1.3374 H   0  0  0  0  0  0  0  0  0  0  0  0 
    4.6163   -0.2552    3.2658 H   0  0  0  0  0  0  0  0  0  0  0  0 
  1 10  1  0  0  0  0 
  1  9  1  0  0  0  0 
  2  1  1  0  0  0  0 
  2  3  1  0  0  0  0 
  3 13  1  0  0  0  0 
  3 14  1  0  0  0  0 
  4  3  1  0  0  0  0 
  4  5  1  0  0  0  0 
  5  6  2  0  0  0  0 
  5  7  1  0  0  0  0 
  8  1  1  0  0  0  0 
 11  2  1  0  0  0  0 
 12  2  1  0  0  0  0 
 15  4  1  0  0  0  0 
 16  4  1  0  0  0  0 
 17  6  1  0  0  0  0 
 18  7  1  0  0  0  0 
M  END 
>  <HBA> 
2 
 
>  <HBD> 
1 
 
>  <TPSA> 
43.09 
 
>  <cid> 
12298 
 
>  <dipole> 
4.51 
 
>  <excitation_energy_1> 
6.118 
 
>  <excitation_energy_2> 
6.374 
 
>  <excitation_energy_3> 
6.458 
 
>  <excitation_energy_4> 
6.896 
 
>  <homo_energy> 
-6.993 
 
>  <homo_lumo_gap> 
7.769 
 
>  <logP> 
1.362 
 
>  <lumo_energy> 
0.776 
 
>  <melting_point> 
49.74 
 
>  <molecular_refractivity> 
29.06 
 
>  <oscillator_strength_1> 
0.0017 
 
>  <oscillator_strength_2> 
0.0056 
 
>  <oscillator_strength_3> 
0.0186 
 
>  <oscillator_strength_4> 
0.0078 
 
>  <open_babel_can_smiles> 
CCCCC(=N)O 
 
>  <mulliken_charges> 
18 
1   -0.443358 
2   -0.248474 
3   -0.254768 
4   -0.362443 
5   0.482043 
6   -0.582592 
7   -0.574101 
8   0.148665 
9   0.144822 
10   0.14818 
11   0.133748 
12   0.138314 
13   0.15388 
14   0.127136 
15   0.150366 
16   0.152006 
17   0.280663 
18   0.405914 
 
>  <lowdin_charges> 
18 
1   -0.444932 
2   -0.272416 
3   -0.274163 
4   -0.310831 
5   0.123005 
6   -0.395533 
7   -0.365791 
8   0.15389 
9   0.148714 
10   0.149989 
11   0.140101 
12   0.143093 
13   0.150958 
14   0.136746 
15   0.152504 
16   0.1577 
17   0.254062 
18   0.352904 
 
$$$$ 
 
