PCCDB-ID:  20799 
public computational chemistry database (PCCDB) project, http://pccdb.org 
 
 16 15  0  0  0  0  0  0  0  0999 V2000 
    0.8193   -0.1848   -0.0180 C   0  0  0  0  0  0  0  0  0  0  0  0 
    2.3759    2.4798   -0.6908 C   0  0  0  0  0  0  0  0  0  0  0  0 
    2.3066    0.0143   -0.0911 C   0  0  0  0  0  0  0  0  0  0  0  0 
    4.4987    1.1057   -0.4111 C   0  0  0  0  0  0  0  0  0  0  0  0 
    2.9857    1.1345   -0.3843 C   0  0  0  0  0  0  0  0  0  0  0  0 
    5.0860    2.0026    0.5367 O   0  0  0  0  0  0  0  0  0  0  0  0 
    0.5223   -0.5493    0.9749 H   0  0  0  0  0  0  0  0  0  0  0  0 
    0.4945   -0.9478   -0.7386 H   0  0  0  0  0  0  0  0  0  0  0  0 
    0.2536    0.7277   -0.2230 H   0  0  0  0  0  0  0  0  0  0  0  0 
    1.2980    2.5152   -0.5170 H   0  0  0  0  0  0  0  0  0  0  0  0 
    2.5573    2.7561   -1.7393 H   0  0  0  0  0  0  0  0  0  0  0  0 
    2.8522    3.2536   -0.0784 H   0  0  0  0  0  0  0  0  0  0  0  0 
    2.8931   -0.8842    0.1118 H   0  0  0  0  0  0  0  0  0  0  0  0 
    4.8739    1.4490   -1.3832 H   0  0  0  0  0  0  0  0  0  0  0  0 
    4.8622    0.0775   -0.2602 H   0  0  0  0  0  0  0  0  0  0  0  0 
    4.7552    1.7387    1.4102 H   0  0  0  0  0  0  0  0  0  0  0  0 
  1  7  1  0  0  0  0 
  2 10  1  0  0  0  0 
  2  5  1  0  0  0  0 
  2 12  1  0  0  0  0 
  3  1  1  0  0  0  0 
  3 13  1  0  0  0  0 
  4  5  1  0  0  0  0 
  4 15  1  0  0  0  0 
  4  6  1  0  0  0  0 
  5  3  2  0  0  0  0 
  6 16  1  0  0  0  0 
  8  1  1  0  0  0  0 
  9  1  1  0  0  0  0 
 11  2  1  0  0  0  0 
 14  4  1  0  0  0  0 
M  END 
>  <HBA> 
1 
 
>  <HBD> 
1 
 
>  <TPSA> 
20.23 
 
>  <cid> 
20799 
 
>  <dipole> 
1.77 
 
>  <excitation_energy_1> 
5.994 
 
>  <excitation_energy_2> 
6.48 
 
>  <excitation_energy_3> 
6.544 
 
>  <excitation_energy_4> 
6.598 
 
>  <homo_energy> 
-6.506 
 
>  <homo_lumo_gap> 
7.097 
 
>  <logP> 
0.945 
 
>  <lumo_energy> 
0.59 
 
>  <melting_point> 
5.93 
 
>  <molecular_refractivity> 
26.84 
 
>  <oscillator_strength_1> 
0.0254 
 
>  <oscillator_strength_2> 
0.049 
 
>  <oscillator_strength_3> 
0.0087 
 
>  <oscillator_strength_4> 
0.008 
 
>  <open_babel_can_smiles> 
C/C(=C\C)/CO 
 
>  <mulliken_charges> 
16 
1   -0.487393 
2   -0.513273 
3   -0.15974 
4   -0.092516 
5   0.150139 
6   -0.610587 
7   0.155355 
8   0.157915 
9   0.15562 
10   0.149849 
11   0.153922 
12   0.16934 
13   0.116672 
14   0.14606 
15   0.124258 
16   0.384379 
 
>  <lowdin_charges> 
16 
1   -0.444199 
2   -0.445173 
3   -0.181084 
4   -0.131453 
5   -0.039132 
6   -0.46896 
7   0.157104 
8   0.159881 
9   0.155798 
10   0.152211 
11   0.156309 
12   0.165841 
13   0.146563 
14   0.147607 
15   0.12921 
16   0.339476 
 
$$$$ 
 
