PCCDB-ID:  15431 
public computational chemistry database (PCCDB) project, http://pccdb.org 
 
 21 21  0  0  0  0  0  0  0  0999 V2000 
    0.9746    0.0106   -0.3141 C   0  0  0  0  0  0  0  0  0  0  0  0 
    2.5034   -0.0186   -0.2046 C   0  0  0  0  0  0  0  0  0  0  0  0 
    5.2367    1.6531    0.0009 C   0  0  0  0  0  0  0  0  0  0  0  0 
    4.1467    2.7121   -0.3419 C   0  0  0  0  0  0  0  0  0  0  0  0 
    4.6013    0.7273    1.0696 C   0  0  0  0  0  0  0  0  0  0  0  0 
    2.9518    2.3984    0.5903 C   0  0  0  0  0  0  0  0  0  0  0  0 
    3.0740    0.8897    0.9027 C   0  0  0  0  0  0  0  0  0  0  0  0 
    0.6216   -0.6730   -1.0948 H   0  0  0  0  0  0  0  0  0  0  0  0 
    0.6000    1.0108   -0.5602 H   0  0  0  0  0  0  0  0  0  0  0  0 
    0.5068   -0.2937    0.6307 H   0  0  0  0  0  0  0  0  0  0  0  0 
    2.9442    0.2508   -1.1748 H   0  0  0  0  0  0  0  0  0  0  0  0 
    2.8236   -1.0508   -0.0044 H   0  0  0  0  0  0  0  0  0  0  0  0 
    6.1574    2.1160    0.3718 H   0  0  0  0  0  0  0  0  0  0  0  0 
    5.5149    1.0839   -0.8930 H   0  0  0  0  0  0  0  0  0  0  0  0 
    3.8462    2.6243   -1.3921 H   0  0  0  0  0  0  0  0  0  0  0  0 
    4.5057    3.7381   -0.2078 H   0  0  0  0  0  0  0  0  0  0  0  0 
    4.8909    1.0648    2.0730 H   0  0  0  0  0  0  0  0  0  0  0  0 
    4.9294   -0.3148    0.9769 H   0  0  0  0  0  0  0  0  0  0  0  0 
    1.9883    2.6771    0.1497 H   0  0  0  0  0  0  0  0  0  0  0  0 
    3.0486    2.9655    1.5252 H   0  0  0  0  0  0  0  0  0  0  0  0 
    2.5543    0.6428    1.8391 H   0  0  0  0  0  0  0  0  0  0  0  0 
  1  2  1  0  0  0  0 
  1 10  1  0  0  0  0 
  2 12  1  0  0  0  0 
  2  7  1  0  0  0  0 
  3 13  1  0  0  0  0 
  3  5  1  0  0  0  0 
  4 16  1  0  0  0  0 
  4  3  1  0  0  0  0 
  4  6  1  0  0  0  0 
  5 17  1  0  0  0  0 
  6  7  1  0  0  0  0 
  6 20  1  0  0  0  0 
  7  5  1  0  0  0  0 
  7 21  1  0  0  0  0 
  8  1  1  0  0  0  0 
  9  1  1  0  0  0  0 
 11  2  1  0  0  0  0 
 14  3  1  0  0  0  0 
 15  4  1  0  0  0  0 
 18  5  1  0  0  0  0 
 19  6  1  0  0  0  0 
M  END 
>  <HBA> 
0 
 
>  <HBD> 
0 
 
>  <TPSA> 
0.0 
 
>  <cid> 
15431 
 
>  <dipole> 
0.03 
 
>  <excitation_energy_1> 
7.616 
 
>  <excitation_energy_2> 
7.715 
 
>  <excitation_energy_3> 
7.911 
 
>  <excitation_energy_4> 
7.995 
 
>  <homo_energy> 
-8.163 
 
>  <homo_lumo_gap> 
10.272 
 
>  <logP> 
2.587 
 
>  <lumo_energy> 
2.109 
 
>  <melting_point> 
-4.65 
 
>  <molecular_refractivity> 
33.65 
 
>  <oscillator_strength_1> 
0.0044 
 
>  <oscillator_strength_2> 
0.013 
 
>  <oscillator_strength_3> 
0.0079 
 
>  <oscillator_strength_4> 
0.0208 
 
>  <open_babel_can_smiles> 
CCC1CCCC1 
 
>  <mulliken_charges> 
21 
1   -0.446141 
2   -0.251963 
3   -0.271053 
4   -0.272412 
5   -0.271068 
6   -0.271873 
7   -0.080328 
8   0.140896 
9   0.144572 
10   0.140857 
11   0.130982 
12   0.128986 
13   0.134449 
14   0.136342 
15   0.136286 
16   0.134091 
17   0.130675 
18   0.128955 
19   0.132858 
20   0.130787 
21   0.114103 
 
>  <lowdin_charges> 
21 
1   -0.446746 
2   -0.274104 
3   -0.288645 
4   -0.285447 
5   -0.282061 
6   -0.285133 
7   -0.131637 
8   0.15012 
9   0.145856 
10   0.145928 
11   0.139431 
12   0.139232 
13   0.14482 
14   0.143252 
15   0.14043 
16   0.143789 
17   0.140501 
18   0.140806 
19   0.142896 
20   0.141231 
21   0.135481 
 
$$$$ 
 
