PCCDB-ID:  33466 
public computational chemistry database (PCCDB) project, http://pccdb.org 
 
 25 25  0  0  1  0  0  0  0  0999 V2000 
    2.8171   -0.1282    1.2828 C   0  0  0  0  0  0  0  0  0  0  0  0 
    2.9962   -1.8375   -3.6865 C   0  0  0  0  0  0  0  0  0  0  0  0 
    2.7851   -2.9808   -2.6890 C   0  0  0  0  0  0  0  0  0  0  0  0 
    1.7077   -1.1053   -4.0686 C   0  0  0  0  0  0  0  0  0  0  0  0 
    2.0518   -2.5959   -1.3923 C   0  0  1  0  0  0  0  0  0  0  0  0 
    2.8818   -1.6201   -0.5381 C   0  0  0  0  0  0  0  0  0  0  0  0 
    0.2988   -0.9032   -2.0037 C   0  0  0  0  0  0  0  0  0  0  0  0 
   -0.7396   -0.3691   -1.4643 N   0  0  0  0  0  0  0  0  0  0  0  0 
    1.1406   -0.3280   -2.9549 N   0  0  0  0  0  0  0  0  0  0  0  0 
    0.6594   -2.1937   -1.6111 N   0  0  0  0  0  0  0  0  0  0  0  0 
    4.0736   -1.4328   -0.6632 O   0  0  0  0  0  0  0  0  0  0  0  0 
    2.1285   -1.0443    0.4162 O   0  0  0  0  0  0  0  0  0  0  0  0 
    3.2541    0.6886    0.7026 H   0  0  0  0  0  0  0  0  0  0  0  0 
    3.6131   -0.6412    1.8296 H   0  0  0  0  0  0  0  0  0  0  0  0 
    2.0587    0.2500    1.9681 H   0  0  0  0  0  0  0  0  0  0  0  0 
    3.4464   -2.2493   -4.5994 H   0  0  0  0  0  0  0  0  0  0  0  0 
    3.7054   -1.1128   -3.2728 H   0  0  0  0  0  0  0  0  0  0  0  0 
    3.7575   -3.4041   -2.4177 H   0  0  0  0  0  0  0  0  0  0  0  0 
    2.1962   -3.7782   -3.1588 H   0  0  0  0  0  0  0  0  0  0  0  0 
    0.9684   -1.8165   -4.4659 H   0  0  0  0  0  0  0  0  0  0  0  0 
    1.9281   -0.3879   -4.8658 H   0  0  0  0  0  0  0  0  0  0  0  0 
    1.9868   -3.5101   -0.7871 H   0  0  0  0  0  0  0  0  0  0  0  0 
   -0.9918    0.4999   -1.9397 H   0  0  0  0  0  0  0  0  0  0  0  0 
    0.8240    0.5946   -3.2231 H   0  0  0  0  0  0  0  0  0  0  0  0 
    0.0332   -2.4768   -0.8662 H   0  0  0  0  0  0  0  0  0  0  0  0 
  1 14  1  0  0  0  0 
  1 15  1  0  0  0  0 
  2 17  1  0  0  0  0 
  2  3  1  0  0  0  0 
  3 18  1  0  0  0  0 
  3  5  1  0  0  0  0 
  4  2  1  0  0  0  0 
  4  9  1  0  0  0  0 
  5 22  1  1  0  0  0 
  5  6  1  0  0  0  0 
  6 12  1  0  0  0  0 
  7 10  1  0  0  0  0 
  7  8  2  0  0  0  0 
  9  7  1  0  0  0  0 
 10  5  1  0  0  0  0 
 10 25  1  0  0  0  0 
 11  6  2  0  0  0  0 
 12  1  1  0  0  0  0 
 13  1  1  0  0  0  0 
 16  2  1  0  0  0  0 
 19  3  1  0  0  0  0 
 20  4  1  0  0  0  0 
 21  4  1  0  0  0  0 
 23  8  1  0  0  0  0 
 24  9  1  0  0  0  0 
M  END 
>  <HBA> 
5 
 
>  <HBD> 
2 
 
>  <TPSA> 
76.71 
 
>  <cid> 
33466 
 
>  <dipole> 
1.36 
 
>  <excitation_energy_1> 
4.881 
 
>  <excitation_energy_2> 
5.201 
 
>  <excitation_energy_3> 
5.544 
 
>  <excitation_energy_4> 
5.684 
 
>  <homo_energy> 
-5.793 
 
>  <homo_lumo_gap> 
6.022 
 
>  <logP> 
-0.309 
 
>  <lumo_energy> 
0.229 
 
>  <melting_point> 
107.08 
 
>  <molecular_refractivity> 
51.37 
 
>  <oscillator_strength_1> 
0.0042 
 
>  <oscillator_strength_2> 
0.0104 
 
>  <oscillator_strength_3> 
0.0008 
 
>  <oscillator_strength_4> 
0.0049 
 
>  <open_babel_can_smiles> 
COC(=O)[C@@H]1CCCNC(=N)N1 
 
>  <mulliken_charges> 
25 
1   -0.217943 
2   -0.260197 
3   -0.245663 
4   -0.143411 
5   -0.08863 
6   0.645884 
7   0.587219 
8   -0.657369 
9   -0.593754 
10   -0.572042 
11   -0.489966 
12   -0.442547 
13   0.171481 
14   0.167404 
15   0.171145 
16   0.133195 
17   0.16701 
18   0.155944 
19   0.139711 
20   0.151048 
21   0.142106 
22   0.17099 
23   0.258246 
24   0.31404 
25   0.336096 
 
>  <lowdin_charges> 
25 
1   -0.280221 
2   -0.287918 
3   -0.278574 
4   -0.199761 
5   -0.086263 
6   0.179553 
7   0.120206 
8   -0.481087 
9   -0.321291 
10   -0.300096 
11   -0.265037 
12   -0.176134 
13   0.161576 
14   0.159002 
15   0.165456 
16   0.148879 
17   0.159861 
18   0.160424 
19   0.149966 
20   0.143529 
21   0.151904 
22   0.171904 
23   0.241852 
24   0.273749 
25   0.288517 
 
$$$$ 
 
