PCCDB-ID:  34935 
public computational chemistry database (PCCDB) project, http://pccdb.org 
 
 21 21  0  0  0  0  0  0  0  0999 V2000 
    1.6797    0.1057   -0.9618 C   0  0  0  0  0  0  0  0  0  0  0  0 
    6.0514    2.0459   -1.7730 C   0  0  0  0  0  0  0  0  0  0  0  0 
    2.9198   -0.3571   -0.2486 C   0  0  0  0  0  0  0  0  0  0  0  0 
    6.5864    1.7648   -0.3910 C   0  0  0  0  0  0  0  0  0  0  0  0 
    4.0475   -1.9559    0.9925 C   0  0  0  0  0  0  0  0  0  0  0  0 
    5.0628    0.1457    0.3352 C   0  0  0  0  0  0  0  0  0  0  0  0 
    4.2168   -3.0656    1.6036 N   0  0  0  0  0  0  0  0  0  0  0  0 
    2.8984   -1.5245    0.3345 N   0  0  0  0  0  0  0  0  0  0  0  0 
    3.9740    0.5370   -0.2939 N   0  0  0  0  0  0  0  0  0  0  0  0 
    6.1987    0.9119    0.4806 N   0  0  0  0  0  0  0  0  0  0  0  0 
    5.1282   -1.0477    0.9718 N   0  0  0  0  0  0  0  0  0  0  0  0 
    7.6477    2.5114   -0.0188 O   0  0  0  0  0  0  0  0  0  0  0  0 
    0.8790   -0.6263   -0.8488 H   0  0  0  0  0  0  0  0  0  0  0  0 
    1.8938    0.2547   -2.0270 H   0  0  0  0  0  0  0  0  0  0  0  0 
    1.3593    1.0753   -0.5641 H   0  0  0  0  0  0  0  0  0  0  0  0 
    5.5154    3.0026   -1.7688 H   0  0  0  0  0  0  0  0  0  0  0  0 
    5.3455    1.2807   -2.0888 H   0  0  0  0  0  0  0  0  0  0  0  0 
    6.8807    2.1176   -2.4879 H   0  0  0  0  0  0  0  0  0  0  0  0 
    3.3501   -3.6019    1.5350 H   0  0  0  0  0  0  0  0  0  0  0  0 
    5.9698   -1.3005    1.4761 H   0  0  0  0  0  0  0  0  0  0  0  0 
    7.8984    3.1066   -0.7435 H   0  0  0  0  0  0  0  0  0  0  0  0 
  1 13  1  0  0  0  0 
  1 15  1  0  0  0  0 
  1  3  1  0  0  0  0 
  2 16  1  0  0  0  0 
  2  4  1  0  0  0  0 
  3  8  2  0  0  0  0 
  4 12  1  0  0  0  0 
  4 10  2  0  0  0  0 
  5  7  1  0  0  0  0 
  6 10  1  0  0  0  0 
  6 11  1  0  0  0  0 
  8  5  2  0  0  0  0 
  9  3  1  0  0  0  0 
  9  6  2  0  0  0  0 
 11  5  1  0  0  0  0 
 11 20  1  0  0  0  0 
 14  1  1  0  0  0  0 
 17  2  1  0  0  0  0 
 18  2  1  0  0  0  0 
 19  7  1  0  0  0  0 
 21 12  1  0  0  0  0 
M  RAD  1   7   2 
M  END 
>  <HBA> 
6 
 
>  <HBD> 
2 
 
>  <TPSA> 
93.79 
 
>  <cid> 
34935 
 
>  <dipole> 
6.68 
 
>  <excitation_energy_1> 
3.66 
 
>  <excitation_energy_2> 
4.255 
 
>  <excitation_energy_3> 
4.803 
 
>  <excitation_energy_4> 
5.037 
 
>  <homo_energy> 
-5.921 
 
>  <homo_lumo_gap> 
4.378 
 
>  <logP> 
0.375 
 
>  <lumo_energy> 
-1.543 
 
>  <melting_point> 
160.11 
 
>  <molecular_refractivity> 
43.51 
 
>  <oscillator_strength_1> 
0.0231 
 
>  <oscillator_strength_2> 
0.0024 
 
>  <oscillator_strength_3> 
0.001 
 
>  <oscillator_strength_4> 
0.0026 
 
>  <open_babel_can_smiles> 
C/C(=N\C1=NC(=[N]=C(N1)[NH])C)/O 
 
>  <mulliken_charges> 
21 
1   -0.502782 
2   -0.536085 
3   0.428545 
4   0.514632 
5   0.599906 
6   0.688277 
7   -0.66194 
8   -0.484892 
9   -0.531659 
10   -0.502075 
11   -0.626285 
12   -0.545698 
13   0.176648 
14   0.16422 
15   0.171017 
16   0.1988 
17   0.217191 
18   0.162512 
19   0.292905 
20   0.35716 
21   0.419603 
 
>  <lowdin_charges> 
21 
1   -0.443858 
2   -0.479851 
3   0.117182 
4   0.190759 
5   0.108647 
6   0.161872 
7   -0.443737 
8   -0.220305 
9   -0.266159 
10   -0.191866 
11   -0.197391 
12   -0.327909 
13   0.171242 
14   0.165817 
15   0.170201 
16   0.186221 
17   0.196582 
18   0.164806 
19   0.262423 
20   0.310279 
21   0.365044 
 
$$$$ 
 
