PCCDB-ID:  62073 
public computational chemistry database (PCCDB) project, http://pccdb.org 
 
 47 46  0  0  0  0  0  0  0  0999 V2000 
    3.2411    3.5880   -5.1894 C   0  0  0  0  0  0  0  0  0  0  0  0 
    4.2535    2.7459   -4.4058 C   0  0  0  0  0  0  0  0  0  0  0  0 
    5.6989    2.9649   -4.8722 C   0  0  0  0  0  0  0  0  0  0  0  0 
    6.7483    2.0825   -4.1603 C   0  0  0  0  0  0  0  0  0  0  0  0 
    6.8798    2.3428   -2.6828 C   0  0  0  0  0  0  0  0  0  0  0  0 
    7.9681    2.8379   -2.0844 C   0  0  0  0  0  0  0  0  0  0  0  0 
    8.0918    3.1148   -0.6096 C   0  0  0  0  0  0  0  0  0  0  0  0 
    8.2415    4.6111   -0.2524 C   0  0  0  0  0  0  0  0  0  0  0  0 
    9.4691    5.3573   -0.8098 C   0  0  0  0  0  0  0  0  0  0  0  0 
   10.8484    4.8915   -0.2925 C   0  0  0  0  0  0  0  0  0  0  0  0 
   11.5270    3.7816   -1.1110 C   0  0  0  0  0  0  0  0  0  0  0  0 
   12.9178    3.4081   -0.5792 C   0  0  0  0  0  0  0  0  0  0  0  0 
   13.6033    2.3121   -1.4068 C   0  0  0  0  0  0  0  0  0  0  0  0 
   15.0366    1.9693   -0.9675 C   0  0  0  0  0  0  0  0  0  0  0  0 
   15.1293    1.3246    0.4308 C   0  0  0  0  0  0  0  0  0  0  0  0 
   16.5614    1.0370    0.8178 C   0  0  0  0  0  0  0  0  0  0  0  0 
   16.9992   -0.0553    1.1042 O   0  0  0  0  0  0  0  0  0  0  0  0 
    2.2180    3.4163   -4.8355 H   0  0  0  0  0  0  0  0  0  0  0  0 
    3.2685    3.3474   -6.2594 H   0  0  0  0  0  0  0  0  0  0  0  0 
    3.4536    4.6593   -5.0865 H   0  0  0  0  0  0  0  0  0  0  0  0 
    3.9987    1.6807   -4.5052 H   0  0  0  0  0  0  0  0  0  0  0  0 
    4.1686    2.9825   -3.3369 H   0  0  0  0  0  0  0  0  0  0  0  0 
    5.9699    4.0213   -4.7358 H   0  0  0  0  0  0  0  0  0  0  0  0 
    5.7565    2.7671   -5.9523 H   0  0  0  0  0  0  0  0  0  0  0  0 
    7.7237    2.2339   -4.6407 H   0  0  0  0  0  0  0  0  0  0  0  0 
    6.4814    1.0267   -4.3242 H   0  0  0  0  0  0  0  0  0  0  0  0 
    6.0106    2.1041   -2.0670 H   0  0  0  0  0  0  0  0  0  0  0  0 
    8.8402    3.0672   -2.6997 H   0  0  0  0  0  0  0  0  0  0  0  0 
    8.9454    2.5585   -0.1960 H   0  0  0  0  0  0  0  0  0  0  0  0 
    7.2014    2.7280   -0.0970 H   0  0  0  0  0  0  0  0  0  0  0  0 
    8.2501    4.7016    0.8435 H   0  0  0  0  0  0  0  0  0  0  0  0 
    7.3385    5.1325   -0.5974 H   0  0  0  0  0  0  0  0  0  0  0  0 
    9.3417    6.4149   -0.5436 H   0  0  0  0  0  0  0  0  0  0  0  0 
    9.4603    5.3283   -1.9083 H   0  0  0  0  0  0  0  0  0  0  0  0 
   10.7555    4.5699    0.7558 H   0  0  0  0  0  0  0  0  0  0  0  0 
   11.5272    5.7557   -0.2778 H   0  0  0  0  0  0  0  0  0  0  0  0 
   11.6177    4.1134   -2.1561 H   0  0  0  0  0  0  0  0  0  0  0  0 
   10.8999    2.8811   -1.1322 H   0  0  0  0  0  0  0  0  0  0  0  0 
   12.8222    3.0867    0.4675 H   0  0  0  0  0  0  0  0  0  0  0  0 
   13.5549    4.3054   -0.5666 H   0  0  0  0  0  0  0  0  0  0  0  0 
   13.6354    2.6312   -2.4579 H   0  0  0  0  0  0  0  0  0  0  0  0 
   12.9899    1.3998   -1.3855 H   0  0  0  0  0  0  0  0  0  0  0  0 
   15.6516    2.8808   -0.9902 H   0  0  0  0  0  0  0  0  0  0  0  0 
   15.4786    1.2814   -1.7000 H   0  0  0  0  0  0  0  0  0  0  0  0 
   14.5618    0.3888    0.4767 H   0  0  0  0  0  0  0  0  0  0  0  0 
   14.7162    2.0132    1.1827 H   0  0  0  0  0  0  0  0  0  0  0  0 
   17.2295    1.9308    0.8161 H   0  0  0  0  0  0  0  0  0  0  0  0 
  1 20  1  0  0  0  0 
  1 18  1  0  0  0  0 
  1  2  1  0  0  0  0 
  2 22  1  0  0  0  0 
  3 23  1  0  0  0  0 
  3  2  1  0  0  0  0 
  3  4  1  0  0  0  0 
  4  5  1  0  0  0  0 
  5  6  2  0  0  0  0 
  5 27  1  0  0  0  0 
  6  7  1  0  0  0  0 
  7  8  1  0  0  0  0 
  7 29  1  0  0  0  0 
  7 30  1  0  0  0  0 
  8 31  1  0  0  0  0 
  9 33  1  0  0  0  0 
  9 10  1  0  0  0  0 
  9  8  1  0  0  0  0 
 10 36  1  0  0  0  0 
 10 35  1  0  0  0  0 
 11 12  1  0  0  0  0 
 11 10  1  0  0  0  0 
 12 40  1  0  0  0  0 
 12 39  1  0  0  0  0 
 13 42  1  0  0  0  0 
 13 14  1  0  0  0  0 
 13 12  1  0  0  0  0 
 14 15  1  0  0  0  0 
 15 45  1  0  0  0  0 
 15 16  1  0  0  0  0 
 15 46  1  0  0  0  0 
 16 17  2  0  0  0  0 
 19  1  1  0  0  0  0 
 21  2  1  0  0  0  0 
 24  3  1  0  0  0  0 
 25  4  1  0  0  0  0 
 26  4  1  0  0  0  0 
 28  6  1  0  0  0  0 
 32  8  1  0  0  0  0 
 34  9  1  0  0  0  0 
 37 11  1  0  0  0  0 
 38 11  1  0  0  0  0 
 41 13  1  0  0  0  0 
 43 14  1  0  0  0  0 
 44 14  1  0  0  0  0 
 47 16  1  0  0  0  0 
M  END 
>  <HBA> 
1 
 
>  <HBD> 
0 
 
>  <TPSA> 
17.07 
 
>  <cid> 
62073 
 
>  <dipole> 
3.1 
 
>  <excitation_energy_1> 
4.235 
 
>  <excitation_energy_2> 
5.39 
 
>  <excitation_energy_3> 
6.023 
 
>  <excitation_energy_4> 
6.085 
 
>  <homo_energy> 
-6.452 
 
>  <homo_lumo_gap> 
5.91 
 
>  <logP> 
5.443 
 
>  <lumo_energy> 
-0.542 
 
>  <melting_point> 
8.31 
 
>  <molecular_refractivity> 
78.75 
 
>  <oscillator_strength_1> 
0.0003 
 
>  <oscillator_strength_2> 
0.0 
 
>  <oscillator_strength_3> 
0.0091 
 
>  <oscillator_strength_4> 
0.0709 
 
>  <open_babel_can_smiles> 
CCCC/C=C/CCCCCCCCCC=O 
 
>  <mulliken_charges> 
47 
1   -0.441121 
2   -0.249713 
3   -0.242091 
4   -0.307384 
5   -0.094488 
6   -0.095873 
7   -0.31023 
8   -0.25244 
9   -0.262384 
10   -0.255322 
11   -0.262738 
12   -0.25865 
13   -0.254344 
14   -0.274612 
15   -0.331413 
16   0.256855 
17   -0.383389 
18   0.141558 
19   0.141201 
20   0.142179 
21   0.128838 
22   0.135759 
23   0.132421 
24   0.127119 
25   0.133519 
26   0.136197 
27   0.117805 
28   0.118097 
29   0.141007 
30   0.135255 
31   0.127546 
32   0.133925 
33   0.131367 
34   0.133576 
35   0.12785 
36   0.128831 
37   0.129017 
38   0.141098 
39   0.132507 
40   0.128033 
41   0.13524 
42   0.135697 
43   0.136977 
44   0.148803 
45   0.162512 
46   0.159105 
47   0.096296 
 
>  <lowdin_charges> 
47 
1   -0.439504 
2   -0.271987 
3   -0.269889 
4   -0.270391 
5   -0.170026 
6   -0.173934 
7   -0.277651 
8   -0.271636 
9   -0.276985 
10   -0.27659 
11   -0.277082 
12   -0.27664 
13   -0.272499 
14   -0.274109 
15   -0.311605 
16   0.055638 
17   -0.218225 
18   0.148194 
19   0.144318 
20   0.145067 
21   0.136304 
22   0.139012 
23   0.139043 
24   0.137633 
25   0.145659 
26   0.143628 
27   0.145576 
28   0.14511 
29   0.145732 
30   0.147629 
31   0.136927 
32   0.143886 
33   0.143608 
34   0.138642 
35   0.13671 
36   0.14155 
37   0.136236 
38   0.142822 
39   0.137147 
40   0.137901 
41   0.143386 
42   0.142354 
43   0.142296 
44   0.151201 
45   0.160686 
46   0.162975 
47   0.111882 
 
$$$$ 
 
