PCCDB-ID:  16952 
public computational chemistry database (PCCDB) project, http://pccdb.org 
 
 28 28  0  0  0  0  0  0  0  0999 V2000 
    1.0133    0.3702   -0.3050 C   0  0  0  0  0  0  0  0  0  0  0  0 
    2.9857    1.4484    0.7372 C   0  0  0  0  0  0  0  0  0  0  0  0 
    4.9155   -5.7067    1.2280 C   0  0  0  0  0  0  0  0  0  0  0  0 
    4.8419   -5.6377   -1.3095 C   0  0  0  0  0  0  0  0  0  0  0  0 
    2.3188   -2.2774    0.1392 C   0  0  0  0  0  0  0  0  0  0  0  0 
    4.4022   -1.0916    0.0788 C   0  0  0  0  0  0  0  0  0  0  0  0 
    3.0041   -3.4860    0.0893 C   0  0  0  0  0  0  0  0  0  0  0  0 
    5.0858   -2.3065    0.0261 C   0  0  0  0  0  0  0  0  0  0  0  0 
    2.2663    0.2485    0.1609 C   0  0  0  0  0  0  0  0  0  0  0  0 
    5.1638   -4.8476   -0.0265 C   0  0  0  0  0  0  0  0  0  0  0  0 
    2.9997   -1.0455    0.1223 C   0  0  0  0  0  0  0  0  0  0  0  0 
    4.4061   -3.5286    0.0283 C   0  0  0  0  0  0  0  0  0  0  0  0 
    0.4821    1.3163   -0.2494 H   0  0  0  0  0  0  0  0  0  0  0  0 
    0.4832   -0.4538   -0.7726 H   0  0  0  0  0  0  0  0  0  0  0  0 
    2.3110    2.3055    0.8179 H   0  0  0  0  0  0  0  0  0  0  0  0 
    3.8309    1.7546    0.1072 H   0  0  0  0  0  0  0  0  0  0  0  0 
    3.3930    1.2322    1.7326 H   0  0  0  0  0  0  0  0  0  0  0  0 
    5.5163   -6.6234    1.1942 H   0  0  0  0  0  0  0  0  0  0  0  0 
    3.8625   -6.0021    1.3065 H   0  0  0  0  0  0  0  0  0  0  0  0 
    5.1772   -5.1600    2.1404 H   0  0  0  0  0  0  0  0  0  0  0  0 
    5.4382   -6.5568   -1.3579 H   0  0  0  0  0  0  0  0  0  0  0  0 
    5.0562   -5.0437   -2.2045 H   0  0  0  0  0  0  0  0  0  0  0  0 
    3.7841   -5.9244   -1.3446 H   0  0  0  0  0  0  0  0  0  0  0  0 
    1.2357   -2.2865    0.2189 H   0  0  0  0  0  0  0  0  0  0  0  0 
    4.9755   -0.1696    0.0714 H   0  0  0  0  0  0  0  0  0  0  0  0 
    2.4359   -4.4131    0.1110 H   0  0  0  0  0  0  0  0  0  0  0  0 
    6.1732   -2.3016   -0.0164 H   0  0  0  0  0  0  0  0  0  0  0  0 
    6.2348   -4.6036   -0.0504 H   0  0  0  0  0  0  0  0  0  0  0  0 
  1 13  1  0  0  0  0 
  1  9  2  0  0  0  0 
  2 15  1  0  0  0  0 
  2 17  1  0  0  0  0 
  3 19  1  0  0  0  0 
  3 20  1  0  0  0  0 
  4 10  1  0  0  0  0 
  5 24  1  0  0  0  0 
  6 11  2  0  0  0  0 
  7 26  1  0  0  0  0 
  7  5  2  0  0  0  0 
  8 12  2  0  0  0  0 
  8  6  1  0  0  0  0 
  9  2  1  0  0  0  0 
 10 12  1  0  0  0  0 
 10  3  1  0  0  0  0 
 11  5  1  0  0  0  0 
 11  9  1  0  0  0  0 
 12  7  1  0  0  0  0 
 14  1  1  0  0  0  0 
 16  2  1  0  0  0  0 
 18  3  1  0  0  0  0 
 21  4  1  0  0  0  0 
 22  4  1  0  0  0  0 
 23  4  1  0  0  0  0 
 25  6  1  0  0  0  0 
 27  8  1  0  0  0  0 
 28 10  1  0  0  0  0 
M  END 
>  <HBA> 
0 
 
>  <HBD> 
0 
 
>  <TPSA> 
0.0 
 
>  <cid> 
16952 
 
>  <dipole> 
0.51 
 
>  <excitation_energy_1> 
4.808 
 
>  <excitation_energy_2> 
4.854 
 
>  <excitation_energy_3> 
5.464 
 
>  <excitation_energy_4> 
5.666 
 
>  <homo_energy> 
-5.85 
 
>  <homo_lumo_gap> 
5.314 
 
>  <logP> 
3.843 
 
>  <lumo_energy> 
-0.536 
 
>  <melting_point> 
-8.19 
 
>  <molecular_refractivity> 
55.92 
 
>  <oscillator_strength_1> 
0.2141 
 
>  <oscillator_strength_2> 
0.203 
 
>  <oscillator_strength_3> 
0.0036 
 
>  <oscillator_strength_4> 
0.1034 
 
>  <open_babel_can_smiles> 
CC(c1ccc(cc1)C(=C)C)C 
 
>  <mulliken_charges> 
28 
1   -0.401534 
2   -0.520447 
3   -0.438826 
4   -0.437939 
5   -0.18198 
6   -0.183347 
7   -0.189326 
8   -0.201061 
9   0.166699 
10   -0.160849 
11   0.115909 
12   0.19206 
13   0.133961 
14   0.139652 
15   0.153095 
16   0.159418 
17   0.16037 
18   0.140955 
19   0.143475 
20   0.149704 
21   0.140735 
22   0.149853 
23   0.143455 
24   0.128764 
25   0.123694 
26   0.123709 
27   0.121623 
28   0.128179 
 
>  <lowdin_charges> 
28 
1   -0.355416 
2   -0.441247 
3   -0.440774 
4   -0.440546 
5   -0.15217 
6   -0.164294 
7   -0.165802 
8   -0.16684 
9   0.008645 
10   -0.116263 
11   -0.009063 
12   5.8e-05 
13   0.156397 
14   0.158498 
15   0.158278 
16   0.158146 
17   0.158005 
18   0.148376 
19   0.146179 
20   0.153071 
21   0.148184 
22   0.153248 
23   0.146258 
24   0.156347 
25   0.157484 
26   0.15426 
27   0.151171 
28   0.139808 
 
$$$$ 
 
