PCCDB-ID:  42958 
public computational chemistry database (PCCDB) project, http://pccdb.org 
 
 20 20  0  0  0  0  0  0  0  0999 V2000 
    1.0376   -0.2940    0.2458 C   0  0  0  0  0  0  0  0  0  0  0  0 
    3.6097    3.6154   -0.0936 C   0  0  0  0  0  0  0  0  0  0  0  0 
    4.6852   -0.7352    0.0091 C   0  0  0  0  0  0  0  0  0  0  0  0 
    2.5159   -0.1050    0.1392 C   0  0  0  0  0  0  0  0  0  0  0  0 
    2.6985    2.4005    0.0242 C   0  0  0  0  0  0  0  0  0  0  0  0 
    4.6752    0.6400   -0.0259 C   0  0  0  0  0  0  0  0  0  0  0  0 
    3.2925    1.0619    0.0549 C   0  0  0  0  0  0  0  0  0  0  0  0 
    5.8032    1.4664   -0.2048 N   0  0  0  0  0  0  0  0  0  0  0  0 
    3.3664   -1.1604    0.0985 N   0  0  0  0  0  0  0  0  0  0  0  0 
    1.4800    2.5599    0.0931 O   0  0  0  0  0  0  0  0  0  0  0  0 
    0.5202    0.1548   -0.6076 H   0  0  0  0  0  0  0  0  0  0  0  0 
    0.6368    0.2000    1.1364 H   0  0  0  0  0  0  0  0  0  0  0  0 
    0.7867   -1.3609    0.2911 H   0  0  0  0  0  0  0  0  0  0  0  0 
    4.3494    3.4911   -0.8911 H   0  0  0  0  0  0  0  0  0  0  0  0 
    4.1575    3.7739    0.8465 H   0  0  0  0  0  0  0  0  0  0  0  0 
    2.9924    4.4963   -0.2812 H   0  0  0  0  0  0  0  0  0  0  0  0 
    5.5032   -1.4393   -0.0346 H   0  0  0  0  0  0  0  0  0  0  0  0 
    6.6686    0.9423   -0.1184 H   0  0  0  0  0  0  0  0  0  0  0  0 
    5.8314    2.2490    0.4405 H   0  0  0  0  0  0  0  0  0  0  0  0 
    3.0739   -2.1252    0.1444 H   0  0  0  0  0  0  0  0  0  0  0  0 
  1 13  1  0  0  0  0 
  1 12  1  0  0  0  0 
  2  5  1  0  0  0  0 
  2 15  1  0  0  0  0 
  3  9  1  0  0  0  0 
  4  1  1  0  0  0  0 
  5  7  1  0  0  0  0 
  5 10  2  0  0  0  0 
  6  3  2  0  0  0  0 
  6  7  1  0  0  0  0 
  7  4  2  0  0  0  0 
  8 18  1  0  0  0  0 
  8  6  1  0  0  0  0 
  8 19  1  0  0  0  0 
  9  4  1  0  0  0  0 
  9 20  1  0  0  0  0 
 11  1  1  0  0  0  0 
 14  2  1  0  0  0  0 
 16  2  1  0  0  0  0 
 17  3  1  0  0  0  0 
M  END 
>  <HBA> 
2 
 
>  <HBD> 
2 
 
>  <TPSA> 
58.88 
 
>  <cid> 
42958 
 
>  <dipole> 
4.46 
 
>  <excitation_energy_1> 
4.13 
 
>  <excitation_energy_2> 
4.165 
 
>  <excitation_energy_3> 
4.39 
 
>  <excitation_energy_4> 
4.598 
 
>  <homo_energy> 
-5.167 
 
>  <homo_lumo_gap> 
4.895 
 
>  <logP> 
1.689 
 
>  <lumo_energy> 
-0.272 
 
>  <melting_point> 
140.48 
 
>  <molecular_refractivity> 
40.36 
 
>  <oscillator_strength_1> 
0.0356 
 
>  <oscillator_strength_2> 
0.0085 
 
>  <oscillator_strength_3> 
0.0013 
 
>  <oscillator_strength_4> 
0.0016 
 
>  <open_babel_can_smiles> 
CC(=O)c1c(C)[nH]cc1N 
 
>  <mulliken_charges> 
20 
1   -0.492786 
2   -0.554762 
3   -0.021947 
4   0.304647 
5   0.398343 
6   0.175 
7   0.002438 
8   -0.795592 
9   -0.614676 
10   -0.500991 
11   0.188797 
12   0.185609 
13   0.12501 
14   0.184721 
15   0.15043 
16   0.172113 
17   0.135053 
18   0.313771 
19   0.317168 
20   0.327655 
 
>  <lowdin_charges> 
20 
1   -0.438422 
2   -0.478674 
3   -0.22098 
4   0.051413 
5   0.154658 
6   0.015761 
7   -0.134302 
8   -0.497962 
9   -0.159658 
10   -0.285037 
11   0.179203 
12   0.177423 
13   0.142618 
14   0.173576 
15   0.158217 
16   0.170244 
17   0.16141 
18   0.270713 
19   0.271566 
20   0.288231 
 
$$$$ 
 
