PCCDB-ID:  43605 
public computational chemistry database (PCCDB) project, http://pccdb.org 
 
 31 31  0  0  1  0  0  0  0  0999 V2000 
    0.8965    1.9687   -1.4758 C   0  0  0  0  0  0  0  0  0  0  0  0 
    6.8337   -0.3725   -0.3199 C   0  0  0  0  0  0  0  0  0  0  0  0 
    6.3089    4.3531    0.0245 C   0  0  0  0  0  0  0  0  0  0  0  0 
    2.4184    2.0980   -1.5994 C   0  0  0  0  0  0  0  0  0  0  0  0 
    5.3048   -0.2796   -0.3036 C   0  0  0  0  0  0  0  0  0  0  0  0 
    3.1533    0.9373   -0.9157 C   0  0  0  0  0  0  0  0  0  0  0  0 
    5.1899    1.1174   -2.4037 C   0  0  0  0  0  0  0  0  0  0  0  0 
    5.1567    2.2089   -0.1368 C   0  0  0  0  0  0  0  0  0  0  0  0 
    6.3061    3.1311   -2.1289 C   0  0  0  0  0  0  0  0  0  0  0  0 
    4.7112    1.0007   -0.9718 C   0  0  2  0  0  0  0  0  0  0  0  0 
    5.8958    2.0525   -2.9139 N   0  0  0  0  0  0  0  0  0  0  0  0 
    5.8811    3.1959   -0.7712 N   0  0  0  0  0  0  0  0  0  0  0  0 
    4.8421    0.1209   -3.2417 O   0  0  0  0  0  0  0  0  0  0  0  0 
    4.8653    2.2756    1.0487 O   0  0  0  0  0  0  0  0  0  0  0  0 
    7.0071    4.0135   -2.5784 O   0  0  0  0  0  0  0  0  0  0  0  0 
    0.3904    2.8065   -1.9670 H   0  0  0  0  0  0  0  0  0  0  0  0 
    0.5833    1.9576   -0.4251 H   0  0  0  0  0  0  0  0  0  0  0  0 
    0.5360    1.0432   -1.9413 H   0  0  0  0  0  0  0  0  0  0  0  0 
    7.1590   -1.2929    0.1759 H   0  0  0  0  0  0  0  0  0  0  0  0 
    7.2900    0.4670    0.2158 H   0  0  0  0  0  0  0  0  0  0  0  0 
    7.2344   -0.3839   -1.3396 H   0  0  0  0  0  0  0  0  0  0  0  0 
    5.5446    4.5603    0.7726 H   0  0  0  0  0  0  0  0  0  0  0  0 
    6.4472    5.1973   -0.6478 H   0  0  0  0  0  0  0  0  0  0  0  0 
    7.2553    4.1417    0.5328 H   0  0  0  0  0  0  0  0  0  0  0  0 
    2.7396    3.0472   -1.1517 H   0  0  0  0  0  0  0  0  0  0  0  0 
    2.6964    2.1448   -2.6605 H   0  0  0  0  0  0  0  0  0  0  0  0 
    4.9403   -0.2842    0.7281 H   0  0  0  0  0  0  0  0  0  0  0  0 
    4.8748   -1.1662   -0.7904 H   0  0  0  0  0  0  0  0  0  0  0  0 
    2.8166   -0.0154   -1.3516 H   0  0  0  0  0  0  0  0  0  0  0  0 
    2.8850    0.9013    0.1455 H   0  0  0  0  0  0  0  0  0  0  0  0 
    4.3137   -0.5401   -2.7660 H   0  0  0  0  0  0  0  0  0  0  0  0 
  1 17  1  0  0  0  0 
  2  5  1  0  0  0  0 
  2 19  1  0  0  0  0 
  2 20  1  0  0  0  0 
  3 24  1  0  0  0  0 
  3 22  1  0  0  0  0 
  4  1  1  0  0  0  0 
  4 25  1  0  0  0  0 
  4  6  1  0  0  0  0 
  5 27  1  0  0  0  0 
  6 30  1  0  0  0  0 
  7 10  1  0  0  0  0 
  8 14  2  0  0  0  0 
  9 12  1  0  0  0  0 
 10  6  1  1  0  0  0 
 10  5  1  0  0  0  0 
 10  8  1  0  0  0  0 
 11  7  2  0  0  0  0 
 11  9  1  0  0  0  0 
 12  8  1  0  0  0  0 
 12  3  1  0  0  0  0 
 13 31  1  0  0  0  0 
 13  7  1  0  0  0  0 
 15  9  2  0  0  0  0 
 16  1  1  0  0  0  0 
 18  1  1  0  0  0  0 
 21  2  1  0  0  0  0 
 23  3  1  0  0  0  0 
 26  4  1  0  0  0  0 
 28  5  1  0  0  0  0 
 29  6  1  0  0  0  0 
M  END 
>  <HBA> 
5 
 
>  <HBD> 
1 
 
>  <TPSA> 
66.48 
 
>  <cid> 
43605 
 
>  <dipole> 
4.95 
 
>  <excitation_energy_1> 
4.513 
 
>  <excitation_energy_2> 
4.836 
 
>  <excitation_energy_3> 
5.089 
 
>  <excitation_energy_4> 
5.33 
 
>  <homo_energy> 
-7.227 
 
>  <homo_lumo_gap> 
5.793 
 
>  <logP> 
1.158 
 
>  <lumo_energy> 
-1.434 
 
>  <melting_point> 
116.37 
 
>  <molecular_refractivity> 
62.33 
 
>  <oscillator_strength_1> 
0.0005 
 
>  <oscillator_strength_2> 
0.0004 
 
>  <oscillator_strength_3> 
0.0112 
 
>  <oscillator_strength_4> 
0.0385 
 
>  <open_babel_can_smiles> 
CCC[C@@]1(CC)C(=NC(=O)N(C1=O)C)O 
 
>  <mulliken_charges> 
31 
1   -0.445662 
2   -0.470833 
3   -0.320187 
4   -0.275994 
5   -0.268541 
6   -0.271623 
7   0.557612 
8   0.647619 
9   0.703606 
10   -0.141006 
11   -0.495162 
12   -0.518041 
13   -0.571936 
14   -0.517933 
15   -0.464613 
16   0.155572 
17   0.152401 
18   0.143927 
19   0.161104 
20   0.167889 
21   0.168775 
22   0.186349 
23   0.19687 
24   0.174445 
25   0.155231 
26   0.156759 
27   0.18549 
28   0.123814 
29   0.119103 
30   0.181899 
31   0.423064 
 
>  <lowdin_charges> 
31 
1   -0.441978 
2   -0.453468 
3   -0.352337 
4   -0.280426 
5   -0.265371 
6   -0.266548 
7   0.161585 
8   0.160821 
9   0.187489 
10   -0.056094 
11   -0.186141 
12   -0.089953 
13   -0.321972 
14   -0.282398 
15   -0.244862 
16   0.158246 
17   0.150786 
18   0.147939 
19   0.162324 
20   0.160848 
21   0.158373 
22   0.174995 
23   0.181391 
24   0.162968 
25   0.151602 
26   0.149232 
27   0.16959 
28   0.137602 
29   0.134643 
30   0.167622 
31   0.36349 
 
$$$$ 
 
