PCCDB-ID:  65087 
public computational chemistry database (PCCDB) project, http://pccdb.org 
 
 20 21  0  0  0  0  0  0  0  0999 V2000 
   -2.4907    0.6119    0.0139 C   0  0  0  0  0  0  0  0  0  0  0  0 
   -2.4308   -0.7860   -0.0021 C   0  0  0  0  0  0  0  0  0  0  0  0 
   -1.3097    1.3452    0.0153 C   0  0  0  0  0  0  0  0  0  0  0  0 
   -1.2041   -1.4378   -0.0173 C   0  0  0  0  0  0  0  0  0  0  0  0 
   -0.0592    0.7152   -0.0003 C   0  0  0  0  0  0  0  0  0  0  0  0 
   -0.0143   -0.6939   -0.0166 C   0  0  0  0  0  0  0  0  0  0  0  0 
    1.2150    1.4761    0.0020 C   0  0  0  0  0  0  0  0  0  0  0  0 
    2.4515   -0.6997   -0.0259 C   0  0  0  0  0  0  0  0  0  0  0  0 
    1.3967    2.7460    0.0173 N   0  0  0  0  0  0  0  0  0  0  0  0 
    3.6086   -1.2508   -0.0306 N   0  0  0  0  0  0  0  0  0  0  0  0 
    1.2149   -1.3404   -0.0328 N   0  0  0  0  0  0  0  0  0  0  0  0 
    2.3564    0.6795   -0.0146 N   0  0  0  0  0  0  0  0  0  0  0  0 
   -3.4491    1.1212    0.0249 H   0  0  0  0  0  0  0  0  0  0  0  0 
   -3.3459   -1.3715   -0.0035 H   0  0  0  0  0  0  0  0  0  0  0  0 
   -1.3576    2.4304    0.0286 H   0  0  0  0  0  0  0  0  0  0  0  0 
   -1.1573   -2.5242   -0.0304 H   0  0  0  0  0  0  0  0  0  0  0  0 
    0.5086    3.2465    0.0284 H   0  0  0  0  0  0  0  0  0  0  0  0 
    3.5403   -2.2688   -0.0402 H   0  0  0  0  0  0  0  0  0  0  0  0 
    1.2267   -2.3499   -0.0384 H   0  0  0  0  0  0  0  0  0  0  0  0 
    3.2411    1.1723   -0.0101 H   0  0  0  0  0  0  0  0  0  0  0  0 
  1  3  2  0  0  0  0 
  1 13  1  0  0  0  0 
  2  1  1  0  0  0  0 
  3 15  1  0  0  0  0 
  4  6  1  0  0  0  0 
  4  2  2  0  0  0  0 
  5  7  1  0  0  0  0 
  5  3  1  0  0  0  0 
  6  5  2  0  0  0  0 
  7  9  2  0  0  0  0 
  8 12  1  0  0  0  0 
  9 17  1  0  0  0  0 
 10  8  2  0  0  0  0 
 11  8  1  0  0  0  0 
 11  6  1  0  0  0  0 
 12 20  1  0  0  0  0 
 12  7  1  0  0  0  0 
 14  2  1  0  0  0  0 
 16  4  1  0  0  0  0 
 18 10  1  0  0  0  0 
 19 11  1  0  0  0  0 
M  END 
>  <HBA> 
4 
 
>  <HBD> 
2 
 
>  <TPSA> 
77.82 
 
>  <cid> 
65087 
 
>  <dipole> 
5.12 
 
>  <excitation_energy_1> 
4.03 
 
>  <excitation_energy_2> 
4.538 
 
>  <excitation_energy_3> 
4.943 
 
>  <excitation_energy_4> 
4.957 
 
>  <homo_energy> 
-5.948 
 
>  <homo_lumo_gap> 
4.792 
 
>  <logP> 
1.957 
 
>  <lumo_energy> 
-1.156 
 
>  <melting_point> 
178.98 
 
>  <molecular_refractivity> 
48.35 
 
>  <oscillator_strength_1> 
0.0328 
 
>  <oscillator_strength_2> 
0.0818 
 
>  <oscillator_strength_3> 
0.0016 
 
>  <oscillator_strength_4> 
0.0942 
 
>  <open_babel_can_smiles> 
N=c1[nH]c2ccccc2c(=N)[nH]1 
 
>  <mulliken_charges> 
20 
1   -0.135264 
2   -0.129194 
3   -0.211423 
4   -0.18353 
5   0.095093 
6   0.356834 
7   0.473602 
8   0.69201 
9   -0.646223 
10   -0.651716 
11   -0.778853 
12   -0.677531 
13   0.137871 
14   0.141299 
15   0.140379 
16   0.131384 
17   0.28859 
18   0.271324 
19   0.330384 
20   0.354964 
 
>  <lowdin_charges> 
20 
1   -0.17338 
2   -0.133018 
3   -0.131672 
4   -0.189156 
5   -0.061903 
6   0.068053 
7   0.096532 
8   0.137107 
9   -0.427689 
10   -0.465211 
11   -0.244494 
12   -0.223245 
13   0.163496 
14   0.164951 
15   0.159554 
16   0.157062 
17   0.253757 
18   0.249277 
19   0.290095 
20   0.309884 
 
$$$$ 
 
