PCCDB-ID:  41126 
public computational chemistry database (PCCDB) project, http://pccdb.org 
 
 21 21  0  0  1  0  0  0  0  0999 V2000 
    0.8709    0.0228    0.2785 C   0  0  0  0  0  0  0  0  0  0  0  0 
    5.3410   -1.1664   -1.6386 C   0  0  0  0  0  0  0  0  0  0  0  0 
    2.7162    2.6796    0.0772 C   0  0  0  0  0  0  0  0  0  0  0  0 
    3.1469   -1.1405   -0.2318 C   0  0  0  0  0  0  0  0  0  0  0  0 
    2.3401    0.1214    0.0116 C   0  0  0  0  0  0  0  0  0  0  0  0 
    4.6069   -0.6683   -0.3899 C   0  0  2  0  0  0  0  0  0  0  0  0 
    3.0975    1.2387   -0.0642 C   0  0  0  0  0  0  0  0  0  0  0  0 
    4.5000    0.8655   -0.3592 C   0  0  0  0  0  0  0  0  0  0  0  0 
    5.4233    1.6398   -0.5510 O   0  0  0  0  0  0  0  0  0  0  0  0 
    0.6824   -0.5769    1.1797 H   0  0  0  0  0  0  0  0  0  0  0  0 
    0.3612   -0.4923   -0.5473 H   0  0  0  0  0  0  0  0  0  0  0  0 
    0.3991    0.9994    0.4145 H   0  0  0  0  0  0  0  0  0  0  0  0 
    5.4970   -2.2503   -1.6036 H   0  0  0  0  0  0  0  0  0  0  0  0 
    6.3151   -0.6742   -1.7191 H   0  0  0  0  0  0  0  0  0  0  0  0 
    4.7710   -0.9351   -2.5466 H   0  0  0  0  0  0  0  0  0  0  0  0 
    1.6440    2.8191    0.2412 H   0  0  0  0  0  0  0  0  0  0  0  0 
    3.0068    3.2386   -0.8201 H   0  0  0  0  0  0  0  0  0  0  0  0 
    3.2562    3.1406    0.9132 H   0  0  0  0  0  0  0  0  0  0  0  0 
    2.7839   -1.6507   -1.1366 H   0  0  0  0  0  0  0  0  0  0  0  0 
    3.0166   -1.8580    0.5901 H   0  0  0  0  0  0  0  0  0  0  0  0 
    5.1899   -0.9570    0.4957 H   0  0  0  0  0  0  0  0  0  0  0  0 
  1 12  1  0  0  0  0 
  1 10  1  0  0  0  0 
  2 13  1  0  0  0  0 
  2  6  1  0  0  0  0 
  3 16  1  0  0  0  0 
  3 18  1  0  0  0  0 
  4  5  1  0  0  0  0 
  4 20  1  0  0  0  0 
  5  1  1  0  0  0  0 
  6  8  1  0  0  0  0 
  6  4  1  0  0  0  0 
  6 21  1  1  0  0  0 
  7  5  2  0  0  0  0 
  7  3  1  0  0  0  0 
  8  7  1  0  0  0  0 
  9  8  2  0  0  0  0 
 11  1  1  0  0  0  0 
 14  2  1  0  0  0  0 
 15  2  1  0  0  0  0 
 17  3  1  0  0  0  0 
 19  4  1  0  0  0  0 
M  END 
>  <HBA> 
1 
 
>  <HBD> 
0 
 
>  <TPSA> 
17.07 
 
>  <cid> 
41126 
 
>  <dipole> 
3.65 
 
>  <excitation_energy_1> 
3.847 
 
>  <excitation_energy_2> 
5.569 
 
>  <excitation_energy_3> 
5.877 
 
>  <excitation_energy_4> 
6.198 
 
>  <homo_energy> 
-6.253 
 
>  <homo_lumo_gap> 
5.342 
 
>  <logP> 
1.932 
 
>  <lumo_energy> 
-0.912 
 
>  <melting_point> 
32.71 
 
>  <molecular_refractivity> 
38.18 
 
>  <oscillator_strength_1> 
0.0004 
 
>  <oscillator_strength_2> 
0.3001 
 
>  <oscillator_strength_3> 
0.0072 
 
>  <oscillator_strength_4> 
0.008 
 
>  <open_babel_can_smiles> 
C[C@@H]1CC(=C(C1=O)C)C 
 
>  <mulliken_charges> 
21 
1   -0.523643 
2   -0.449181 
3   -0.518541 
4   -0.345495 
5   0.100884 
6   -0.164709 
7   0.084176 
8   0.389075 
9   -0.486966 
10   0.165936 
11   0.16569 
12   0.165879 
13   0.142998 
14   0.172016 
15   0.144207 
16   0.147465 
17   0.17435 
18   0.17111 
19   0.154801 
20   0.149738 
21   0.160212 
 
>  <lowdin_charges> 
21 
1   -0.445458 
2   -0.436011 
3   -0.438276 
4   -0.281579 
5   0.020259 
6   -0.154324 
7   -0.065058 
8   0.141199 
9   -0.259045 
10   0.165555 
11   0.165913 
12   0.161904 
13   0.147968 
14   0.164528 
15   0.149021 
16   0.152254 
17   0.170581 
18   0.169075 
19   0.155424 
20   0.153309 
21   0.162763 
 
$$$$ 
 
