PCCDB-ID:  57186 
public computational chemistry database (PCCDB) project, http://pccdb.org 
 
 46 45  0  0  0  0  0  0  0  0999 V2000 
    5.1336   -7.3583   -5.8524 C   0  0  0  0  0  0  0  0  0  0  0  0 
    3.9742   -6.5275   -5.2863 C   0  0  0  0  0  0  0  0  0  0  0  0 
    3.9130   -6.3863   -3.7517 C   0  0  0  0  0  0  0  0  0  0  0  0 
    4.8685   -5.3703   -3.0935 C   0  0  0  0  0  0  0  0  0  0  0  0 
    6.3399   -5.7969   -2.9679 C   0  0  0  0  0  0  0  0  0  0  0  0 
    7.2335   -4.7902   -2.2192 C   0  0  0  0  0  0  0  0  0  0  0  0 
    6.9324   -4.6557   -0.7184 C   0  0  0  0  0  0  0  0  0  0  0  0 
    7.8342   -3.6558    0.0263 C   0  0  0  0  0  0  0  0  0  0  0  0 
   14.3303   -3.2087    0.1194 C   0  0  0  0  0  0  0  0  0  0  0  0 
    9.3125   -4.0628    0.1002 C   0  0  0  0  0  0  0  0  0  0  0  0 
   13.7835   -3.2326    1.5517 C   0  0  0  0  0  0  0  0  0  0  0  0 
   15.7323   -3.8079    0.0054 C   0  0  0  0  0  0  0  0  0  0  0  0 
   10.1483   -3.0873    0.9197 C   0  0  0  0  0  0  0  0  0  0  0  0 
   12.3613   -2.6938    1.6650 C   0  0  0  0  0  0  0  0  0  0  0  0 
   16.2592   -3.7413   -1.3157 O   0  0  0  0  0  0  0  0  0  0  0  0 
   11.4955   -3.5264    0.9141 O   0  0  0  0  0  0  0  0  0  0  0  0 
    5.0082   -7.5124   -6.9308 H   0  0  0  0  0  0  0  0  0  0  0  0 
    5.1763   -8.3477   -5.3799 H   0  0  0  0  0  0  0  0  0  0  0  0 
    6.1059   -6.8790   -5.7032 H   0  0  0  0  0  0  0  0  0  0  0  0 
    3.0350   -6.9928   -5.6156 H   0  0  0  0  0  0  0  0  0  0  0  0 
    3.9833   -5.5252   -5.7383 H   0  0  0  0  0  0  0  0  0  0  0  0 
    4.0549   -7.3749   -3.2890 H   0  0  0  0  0  0  0  0  0  0  0  0 
    2.8892   -6.0827   -3.4934 H   0  0  0  0  0  0  0  0  0  0  0  0 
    4.4791   -5.1576   -2.0891 H   0  0  0  0  0  0  0  0  0  0  0  0 
    4.8142   -4.4178   -3.6428 H   0  0  0  0  0  0  0  0  0  0  0  0 
    6.7652   -5.9519   -3.9658 H   0  0  0  0  0  0  0  0  0  0  0  0 
    6.3923   -6.7723   -2.4609 H   0  0  0  0  0  0  0  0  0  0  0  0 
    7.1449   -3.8022   -2.6960 H   0  0  0  0  0  0  0  0  0  0  0  0 
    8.2792   -5.0970   -2.3509 H   0  0  0  0  0  0  0  0  0  0  0  0 
    7.0201   -5.6442   -0.2434 H   0  0  0  0  0  0  0  0  0  0  0  0 
    5.8896   -4.3435   -0.5793 H   0  0  0  0  0  0  0  0  0  0  0  0 
    7.4484   -3.5328    1.0485 H   0  0  0  0  0  0  0  0  0  0  0  0 
    7.7491   -2.6677   -0.4505 H   0  0  0  0  0  0  0  0  0  0  0  0 
   14.3589   -2.1773   -0.2570 H   0  0  0  0  0  0  0  0  0  0  0  0 
   13.6415   -3.7642   -0.5310 H   0  0  0  0  0  0  0  0  0  0  0  0 
    9.7499   -4.1263   -0.9033 H   0  0  0  0  0  0  0  0  0  0  0  0 
    9.4045   -5.0618    0.5473 H   0  0  0  0  0  0  0  0  0  0  0  0 
   14.4293   -2.6368    2.2117 H   0  0  0  0  0  0  0  0  0  0  0  0 
   13.7959   -4.2599    1.9399 H   0  0  0  0  0  0  0  0  0  0  0  0 
   15.7296   -4.8466    0.3783 H   0  0  0  0  0  0  0  0  0  0  0  0 
   16.4385   -3.2459    0.6272 H   0  0  0  0  0  0  0  0  0  0  0  0 
    9.7702   -3.0320    1.9562 H   0  0  0  0  0  0  0  0  0  0  0  0 
   10.0778   -2.0694    0.4970 H   0  0  0  0  0  0  0  0  0  0  0  0 
   12.3125   -1.6563    1.2891 H   0  0  0  0  0  0  0  0  0  0  0  0 
   12.0447   -2.6719    2.7222 H   0  0  0  0  0  0  0  0  0  0  0  0 
   15.6586   -4.2420   -1.8897 H   0  0  0  0  0  0  0  0  0  0  0  0 
  1 19  1  0  0  0  0 
  1 18  1  0  0  0  0 
  1  2  1  0  0  0  0 
  2  3  1  0  0  0  0 
  3 23  1  0  0  0  0 
  3 22  1  0  0  0  0 
  3  4  1  0  0  0  0 
  4  5  1  0  0  0  0 
  4 24  1  0  0  0  0 
  5 27  1  0  0  0  0 
  5  6  1  0  0  0  0 
  6  7  1  0  0  0  0 
  7 31  1  0  0  0  0 
  7 30  1  0  0  0  0 
  7  8  1  0  0  0  0 
  8 10  1  0  0  0  0 
  8 32  1  0  0  0  0 
  9 11  1  0  0  0  0 
 10 37  1  0  0  0  0 
 10 13  1  0  0  0  0 
 11 14  1  0  0  0  0 
 11 39  1  0  0  0  0 
 11 38  1  0  0  0  0 
 12  9  1  0  0  0  0 
 12 40  1  0  0  0  0 
 12 41  1  0  0  0  0 
 13 42  1  0  0  0  0 
 14 45  1  0  0  0  0 
 15 12  1  0  0  0  0 
 16 13  1  0  0  0  0 
 16 14  1  0  0  0  0 
 17  1  1  0  0  0  0 
 20  2  1  0  0  0  0 
 21  2  1  0  0  0  0 
 25  4  1  0  0  0  0 
 26  5  1  0  0  0  0 
 28  6  1  0  0  0  0 
 29  6  1  0  0  0  0 
 33  8  1  0  0  0  0 
 34  9  1  0  0  0  0 
 35  9  1  0  0  0  0 
 36 10  1  0  0  0  0 
 43 13  1  0  0  0  0 
 44 14  1  0  0  0  0 
 46 15  1  0  0  0  0 
M  END 
>  <HBA> 
2 
 
>  <HBD> 
1 
 
>  <TPSA> 
29.46 
 
>  <cid> 
57186 
 
>  <dipole> 
2.32 
 
>  <excitation_energy_1> 
6.467 
 
>  <excitation_energy_2> 
6.496 
 
>  <excitation_energy_3> 
6.679 
 
>  <excitation_energy_4> 
6.854 
 
>  <homo_energy> 
-6.846 
 
>  <homo_lumo_gap> 
9.053 
 
>  <logP> 
3.916 
 
>  <lumo_energy> 
2.207 
 
>  <melting_point> 
-22.21 
 
>  <molecular_refractivity> 
71.66 
 
>  <oscillator_strength_1> 
0.0087 
 
>  <oscillator_strength_2> 
0.024 
 
>  <oscillator_strength_3> 
0.0022 
 
>  <oscillator_strength_4> 
0.0015 
 
>  <open_babel_can_smiles> 
CCCCCCCCCCOCCCCO 
 
>  <mulliken_charges> 
46 
1   -0.444116 
2   -0.246517 
3   -0.254218 
4   -0.254986 
5   -0.25748 
6   -0.258123 
7   -0.255486 
8   -0.264293 
9   -0.278214 
10   -0.273883 
11   -0.281289 
12   -0.025016 
13   -0.000255 
14   -0.005497 
15   -0.616876 
16   -0.48126 
17   0.139961 
18   0.140504 
19   0.149835 
20   0.130856 
21   0.128888 
22   0.125784 
23   0.12749 
24   0.132035 
25   0.124705 
26   0.135492 
27   0.125379 
28   0.125361 
29   0.133703 
30   0.127473 
31   0.133872 
32   0.128711 
33   0.129353 
34   0.139922 
35   0.14452 
36   0.147757 
37   0.141545 
38   0.133586 
39   0.144464 
40   0.117141 
41   0.141313 
42   0.114003 
43   0.115426 
44   0.115681 
45   0.117669 
46   0.385078 
 
>  <lowdin_charges> 
46 
1   -0.445437 
2   -0.273297 
3   -0.275972 
4   -0.27721 
5   -0.2775 
6   -0.276561 
7   -0.274746 
8   -0.273546 
9   -0.296222 
10   -0.281631 
11   -0.282368 
12   -0.134814 
13   -0.124572 
14   -0.123765 
15   -0.471332 
16   -0.276661 
17   0.146523 
18   0.145328 
19   0.146491 
20   0.141726 
21   0.13784 
22   0.137207 
23   0.141725 
24   0.140103 
25   0.136335 
26   0.142481 
27   0.136694 
28   0.136465 
29   0.140984 
30   0.137455 
31   0.140776 
32   0.139704 
33   0.137913 
34   0.144353 
35   0.147529 
36   0.147457 
37   0.145807 
38   0.147715 
39   0.14699 
40   0.122166 
41   0.145046 
42   0.121882 
43   0.122504 
44   0.122459 
45   0.124812 
46   0.341167 
 
$$$$ 
 
