PCCDB-ID:  12372 
public computational chemistry database (PCCDB) project, http://pccdb.org 
 
 21 20  0  0  0  0  0  0  0  0999 V2000 
    0.7380   -0.4426    0.3468 C   0  0  0  0  0  0  0  0  0  0  0  0 
    2.2535   -0.3372    0.1489 C   0  0  0  0  0  0  0  0  0  0  0  0 
    2.8437   -1.5239   -0.6248 C   0  0  0  0  0  0  0  0  0  0  0  0 
    4.3634   -1.4121   -0.8139 C   0  0  0  0  0  0  0  0  0  0  0  0 
    5.0488   -2.6118   -1.4877 C   0  0  0  0  0  0  0  0  0  0  0  0 
    4.7408   -2.8036   -2.9927 C   0  0  0  0  0  0  0  0  0  0  0  0 
    3.4154   -3.3585   -3.2885 C   0  0  0  0  0  0  0  0  0  0  0  0 
    2.3754   -3.8149   -3.5301 N   0  0  0  0  0  0  0  0  0  0  0  0 
    0.3472    0.4176    0.9021 H   0  0  0  0  0  0  0  0  0  0  0  0 
    0.4735   -1.3487    0.9053 H   0  0  0  0  0  0  0  0  0  0  0  0 
    0.2149   -0.4849   -0.6161 H   0  0  0  0  0  0  0  0  0  0  0  0 
    2.7474   -0.2596    1.1283 H   0  0  0  0  0  0  0  0  0  0  0  0 
    2.4890    0.5954   -0.3838 H   0  0  0  0  0  0  0  0  0  0  0  0 
    2.3421   -1.6019   -1.5974 H   0  0  0  0  0  0  0  0  0  0  0  0 
    2.6122   -2.4576   -0.0916 H   0  0  0  0  0  0  0  0  0  0  0  0 
    4.8300   -1.2747    0.1717 H   0  0  0  0  0  0  0  0  0  0  0  0 
    4.5967   -0.5004   -1.3846 H   0  0  0  0  0  0  0  0  0  0  0  0 
    4.8073   -3.5376   -0.9509 H   0  0  0  0  0  0  0  0  0  0  0  0 
    6.1353   -2.4820   -1.4094 H   0  0  0  0  0  0  0  0  0  0  0  0 
    5.4811   -3.4829   -3.4336 H   0  0  0  0  0  0  0  0  0  0  0  0 
    4.8418   -1.8471   -3.5220 H   0  0  0  0  0  0  0  0  0  0  0  0 
  1  9  1  0  0  0  0 
  1 10  1  0  0  0  0 
  2  1  1  0  0  0  0 
  2 12  1  0  0  0  0 
  3 15  1  0  0  0  0 
  3  2  1  0  0  0  0 
  4  3  1  0  0  0  0 
  4 16  1  0  0  0  0 
  5 19  1  0  0  0  0 
  5 18  1  0  0  0  0 
  5  4  1  0  0  0  0 
  6  5  1  0  0  0  0 
  7  6  1  0  0  0  0 
  8  7  3  0  0  0  0 
 11  1  1  0  0  0  0 
 13  2  1  0  0  0  0 
 14  3  1  0  0  0  0 
 17  4  1  0  0  0  0 
 20  6  1  0  0  0  0 
 21  6  1  0  0  0  0 
M  END 
>  <HBA> 
1 
 
>  <HBD> 
0 
 
>  <TPSA> 
23.79 
 
>  <cid> 
12372 
 
>  <dipole> 
3.81 
 
>  <excitation_energy_1> 
7.36 
 
>  <excitation_energy_2> 
7.558 
 
>  <excitation_energy_3> 
7.707 
 
>  <excitation_energy_4> 
7.841 
 
>  <homo_energy> 
-8.362 
 
>  <homo_lumo_gap> 
9.257 
 
>  <logP> 
2.48 
 
>  <lumo_energy> 
0.895 
 
>  <melting_point> 
6.67 
 
>  <molecular_refractivity> 
35.51 
 
>  <oscillator_strength_1> 
0.0023 
 
>  <oscillator_strength_2> 
0.0133 
 
>  <oscillator_strength_3> 
0.0013 
 
>  <oscillator_strength_4> 
0.0117 
 
>  <open_babel_can_smiles> 
CCCCCCC#N 
 
>  <mulliken_charges> 
21 
1   -0.442275 
2   -0.248771 
3   -0.255438 
4   -0.258928 
5   -0.264065 
6   -0.348854 
7   0.362462 
8   -0.478386 
9   0.141374 
10   0.144071 
11   0.148141 
12   0.128802 
13   0.12952 
14   0.152821 
15   0.133937 
16   0.137767 
17   0.130007 
18   0.156612 
19   0.147233 
20   0.193524 
21   0.190445 
 
>  <lowdin_charges> 
21 
1   -0.445093 
2   -0.27131 
3   -0.281057 
4   -0.275798 
5   -0.264232 
6   -0.277966 
7   -0.018397 
8   -0.134157 
9   0.150057 
10   0.148245 
11   0.149671 
12   0.137115 
13   0.138346 
14   0.1506 
15   0.141843 
16   0.145394 
17   0.139281 
18   0.154201 
19   0.150465 
20   0.184246 
21   0.178544 
 
$$$$ 
 
