PCCDB-ID:  20834 
public computational chemistry database (PCCDB) project, http://pccdb.org 
 
 26 26  0  0  0  0  0  0  0  0999 V2000 
    0.8679    0.6521    2.3869 C   0  0  0  0  0  0  0  0  0  0  0  0 
    2.3926    0.5923    2.5131 C   0  0  0  0  0  0  0  0  0  0  0  0 
    3.0883    0.5891    1.1362 C   0  0  0  0  0  0  0  0  0  0  0  0 
    5.2651    1.7648    1.2538 C   0  0  0  0  0  0  0  0  0  0  0  0 
    7.4106    0.6808    1.4479 C   0  0  0  0  0  0  0  0  0  0  0  0 
    4.6012    0.5344    1.2363 C   0  0  0  0  0  0  0  0  0  0  0  0 
    6.6530    1.8477    1.3671 C   0  0  0  0  0  0  0  0  0  0  0  0 
    6.7604   -0.5461    1.4125 C   0  0  0  0  0  0  0  0  0  0  0  0 
    5.3531   -0.6702    1.3172 C   0  0  0  0  0  0  0  0  0  0  0  0 
    4.6594   -2.0079    1.2904 C   0  0  0  0  0  0  0  0  0  0  0  0 
    7.3244    3.0305    1.3973 O   0  0  0  0  0  0  0  0  0  0  0  0 
    7.5132   -1.6999    1.4866 O   0  0  0  0  0  0  0  0  0  0  0  0 
    3.4741   -2.1470    1.5141 O   0  0  0  0  0  0  0  0  0  0  0  0 
    5.3904   -3.0990    0.9745 O   0  0  0  0  0  0  0  0  0  0  0  0 
    0.3903    0.6641    3.3733 H   0  0  0  0  0  0  0  0  0  0  0  0 
    0.4879   -0.2201    1.8424 H   0  0  0  0  0  0  0  0  0  0  0  0 
    0.5431    1.5515    1.8481 H   0  0  0  0  0  0  0  0  0  0  0  0 
    2.6830   -0.3144    3.0518 H   0  0  0  0  0  0  0  0  0  0  0  0 
    2.7533    1.4487    3.0998 H   0  0  0  0  0  0  0  0  0  0  0  0 
    2.8179    1.5097    0.6019 H   0  0  0  0  0  0  0  0  0  0  0  0 
    2.7107   -0.2543    0.5569 H   0  0  0  0  0  0  0  0  0  0  0  0 
    4.6803    2.6796    1.1787 H   0  0  0  0  0  0  0  0  0  0  0  0 
    8.4915    0.7462    1.5377 H   0  0  0  0  0  0  0  0  0  0  0  0 
    6.6855    3.7588    1.3428 H   0  0  0  0  0  0  0  0  0  0  0  0 
    8.4567   -1.4786    1.4547 H   0  0  0  0  0  0  0  0  0  0  0  0 
    6.3375   -2.8730    0.9092 H   0  0  0  0  0  0  0  0  0  0  0  0 
  1  2  1  0  0  0  0 
  1 15  1  0  0  0  0 
  2 18  1  0  0  0  0 
  2 19  1  0  0  0  0 
  3  6  1  0  0  0  0 
  3  2  1  0  0  0  0 
  4  7  1  0  0  0  0 
  5 23  1  0  0  0  0 
  6  4  2  0  0  0  0 
  6  9  1  0  0  0  0 
  7 11  1  0  0  0  0 
  7  5  2  0  0  0  0 
  8  5  1  0  0  0  0 
  8 12  1  0  0  0  0 
  9  8  2  0  0  0  0 
 10  9  1  0  0  0  0 
 10 13  2  0  0  0  0 
 14 10  1  0  0  0  0 
 16  1  1  0  0  0  0 
 17  1  1  0  0  0  0 
 20  3  1  0  0  0  0 
 21  3  1  0  0  0  0 
 22  4  1  0  0  0  0 
 24 11  1  0  0  0  0 
 25 12  1  0  0  0  0 
 26 14  1  0  0  0  0 
M  END 
>  <HBA> 
4 
 
>  <HBD> 
3 
 
>  <TPSA> 
77.76 
 
>  <cid> 
20834 
 
>  <dipole> 
5.77 
 
>  <excitation_energy_1> 
4.752 
 
>  <excitation_energy_2> 
4.786 
 
>  <excitation_energy_3> 
5.234 
 
>  <excitation_energy_4> 
5.377 
 
>  <homo_energy> 
-6.455 
 
>  <homo_lumo_gap> 
5.54 
 
>  <logP> 
1.748 
 
>  <lumo_energy> 
-0.914 
 
>  <melting_point> 
180.1 
 
>  <molecular_refractivity> 
52.03 
 
>  <oscillator_strength_1> 
0.006 
 
>  <oscillator_strength_2> 
0.0323 
 
>  <oscillator_strength_3> 
0.1424 
 
>  <oscillator_strength_4> 
0.0011 
 
>  <open_babel_can_smiles> 
CCCc1cc(O)cc(c1C(=O)O)O 
 
>  <mulliken_charges> 
26 
1   -0.443977 
2   -0.244384 
3   -0.325475 
4   -0.257594 
5   -0.238521 
6   0.104242 
7   0.37662 
8   0.320078 
9   -0.026465 
10   0.564387 
11   -0.639175 
12   -0.686359 
13   -0.468245 
14   -0.596 
15   0.142009 
16   0.157287 
17   0.132622 
18   0.167912 
19   0.120195 
20   0.125693 
21   0.176646 
22   0.121185 
23   0.137059 
24   0.415952 
25   0.427767 
26   0.436539 
 
>  <lowdin_charges> 
26 
1   -0.444321 
2   -0.2698 
3   -0.276904 
4   -0.237635 
5   -0.242709 
6   0.052627 
7   0.123857 
8   0.116755 
9   -0.113165 
10   0.193705 
11   -0.364565 
12   -0.38169 
13   -0.259818 
14   -0.361426 
15   0.149705 
16   0.154999 
17   0.141922 
18   0.15899 
19   0.134126 
20   0.140682 
21   0.171648 
22   0.156867 
23   0.1658 
24   0.364432 
25   0.368429 
26   0.357489 
 
$$$$ 
 
