PCCDB-ID:  13587 
public computational chemistry database (PCCDB) project, http://pccdb.org 
 
 12 12  0  0  0  0  0  0  0  0999 V2000 
    0.9556   -0.0749    0.0637 C   0  0  0  0  0  0  0  0  0  0  0  0 
    3.3341   -1.2076    0.0629 C   0  0  0  0  0  0  0  0  0  0  0  0 
    4.6073   -0.7292    0.0679 C   0  0  0  0  0  0  0  0  0  0  0  0 
    3.2910    1.0184    0.0736 C   0  0  0  0  0  0  0  0  0  0  0  0 
    2.4599   -0.0638    0.0659 C   0  0  0  0  0  0  0  0  0  0  0  0 
    4.6013    0.6328    0.0747 O   0  0  0  0  0  0  0  0  0  0  0  0 
    0.5762   -1.1014    0.0774 H   0  0  0  0  0  0  0  0  0  0  0  0 
    0.5439    0.4144   -0.8272 H   0  0  0  0  0  0  0  0  0  0  0  0 
    0.5415    0.4393    0.9391 H   0  0  0  0  0  0  0  0  0  0  0  0 
    3.0349   -2.2474    0.0556 H   0  0  0  0  0  0  0  0  0  0  0  0 
    5.5814   -1.1942    0.0699 H   0  0  0  0  0  0  0  0  0  0  0  0 
    3.1205    2.0848    0.0776 H   0  0  0  0  0  0  0  0  0  0  0  0 
  1  5  1  0  0  0  0 
  1  7  1  0  0  0  0 
  1  9  1  0  0  0  0 
  2  5  1  0  0  0  0 
  2  3  2  0  0  0  0 
  3 11  1  0  0  0  0 
  3  6  1  0  0  0  0 
  4  6  1  0  0  0  0 
  4 12  1  0  0  0  0 
  5  4  2  0  0  0  0 
  8  1  1  0  0  0  0 
 10  2  1  0  0  0  0 
M  END 
>  <HBA> 
1 
 
>  <HBD> 
0 
 
>  <TPSA> 
13.14 
 
>  <cid> 
13587 
 
>  <dipole> 
0.92 
 
>  <excitation_energy_1> 
5.642 
 
>  <excitation_energy_2> 
5.789 
 
>  <excitation_energy_3> 
5.975 
 
>  <excitation_energy_4> 
6.204 
 
>  <homo_energy> 
-5.891 
 
>  <homo_lumo_gap> 
6.455 
 
>  <logP> 
1.588 
 
>  <lumo_energy> 
0.563 
 
>  <melting_point> 
6.38 
 
>  <molecular_refractivity> 
23.67 
 
>  <oscillator_strength_1> 
0.001 
 
>  <oscillator_strength_2> 
0.1248 
 
>  <oscillator_strength_3> 
0.0042 
 
>  <oscillator_strength_4> 
0.0131 
 
>  <open_babel_can_smiles> 
Cc1cocc1 
 
>  <mulliken_charges> 
12 
1   -0.527628 
2   -0.20737 
3   0.076142 
4   0.030101 
5   0.109789 
6   -0.398644 
7   0.157258 
8   0.163776 
9   0.163618 
10   0.133168 
11   0.152541 
12   0.147249 
 
>  <lowdin_charges> 
12 
1   -0.438581 
2   -0.215035 
3   -0.084392 
4   -0.100809 
5   -0.044727 
6   -0.097955 
7   0.158945 
8   0.161846 
9   0.161978 
10   0.164417 
11   0.169019 
12   0.165295 
 
$$$$ 
 
