PCCDB-ID:  23175 
public computational chemistry database (PCCDB) project, http://pccdb.org 
 
 25 26  0  0  0  0  0  0  0  0999 V2000 
    1.7579   -0.6150    1.3519 C   0  0  0  0  0  0  0  0  0  0  0  0 
    3.8223   -1.5888   -2.8784 C   0  0  0  0  0  0  0  0  0  0  0  0 
    3.3802   -3.4130   -1.3770 C   0  0  0  0  0  0  0  0  0  0  0  0 
    3.2855   -0.6995   -1.9619 C   0  0  0  0  0  0  0  0  0  0  0  0 
    2.8340   -2.5297   -0.4407 C   0  0  0  0  0  0  0  0  0  0  0  0 
    5.0868   -3.9951   -6.3063 C   0  0  0  0  0  0  0  0  0  0  0  0 
    6.2786   -4.5003   -5.4940 C   0  0  0  0  0  0  0  0  0  0  0  0 
    3.8800   -2.9659   -2.6011 C   0  0  0  0  0  0  0  0  0  0  0  0 
    2.7857   -1.1636   -0.7331 C   0  0  0  0  0  0  0  0  0  0  0  0 
    4.4694   -3.9553   -3.5746 C   0  0  0  0  0  0  0  0  0  0  0  0 
    2.2766   -0.2075    0.0959 O   0  0  0  0  0  0  0  0  0  0  0  0 
    3.5896   -3.9866   -5.2324 S   0  0  0  0  0  0  0  0  0  0  0  0 
    6.2623   -3.6328   -3.8843 S   0  0  0  0  0  0  0  0  0  0  0  0 
    1.4117    0.2965    1.8427 H   0  0  0  0  0  0  0  0  0  0  0  0 
    2.5294   -1.0901    1.9723 H   0  0  0  0  0  0  0  0  0  0  0  0 
    0.9132   -1.3067    1.2348 H   0  0  0  0  0  0  0  0  0  0  0  0 
    4.2000   -1.2212   -3.8277 H   0  0  0  0  0  0  0  0  0  0  0  0 
    3.4138   -4.4739   -1.1394 H   0  0  0  0  0  0  0  0  0  0  0  0 
    3.2379    0.3646   -2.1707 H   0  0  0  0  0  0  0  0  0  0  0  0 
    2.4567   -2.9167    0.4987 H   0  0  0  0  0  0  0  0  0  0  0  0 
    4.8840   -4.6526   -7.1582 H   0  0  0  0  0  0  0  0  0  0  0  0 
    5.2751   -2.9845   -6.6781 H   0  0  0  0  0  0  0  0  0  0  0  0 
    7.2275   -4.2675   -5.9887 H   0  0  0  0  0  0  0  0  0  0  0  0 
    6.2202   -5.5827   -5.3415 H   0  0  0  0  0  0  0  0  0  0  0  0 
    4.3752   -4.9611   -3.1592 H   0  0  0  0  0  0  0  0  0  0  0  0 
  1 14  1  0  0  0  0 
  1 15  1  0  0  0  0 
  2  8  2  0  0  0  0 
  2  4  1  0  0  0  0 
  3 18  1  0  0  0  0 
  3  5  2  0  0  0  0 
  4  9  2  0  0  0  0 
  5 20  1  0  0  0  0 
  6  7  1  0  0  0  0 
  6 12  1  0  0  0  0 
  7 24  1  0  0  0  0 
  7 13  1  0  0  0  0 
  8  3  1  0  0  0  0 
  9  5  1  0  0  0  0 
  9 11  1  0  0  0  0 
 10 25  1  0  0  0  0 
 10  8  1  0  0  0  0 
 11  1  1  0  0  0  0 
 12 10  1  0  0  0  0 
 13 10  1  0  0  0  0 
 16  1  1  0  0  0  0 
 17  2  1  0  0  0  0 
 19  4  1  0  0  0  0 
 21  6  1  0  0  0  0 
 22  6  1  0  0  0  0 
 23  7  1  0  0  0  0 
M  END 
>  <HBA> 
3 
 
>  <HBD> 
0 
 
>  <TPSA> 
59.83 
 
>  <cid> 
23175 
 
>  <dipole> 
1.16 
 
>  <excitation_energy_1> 
4.597 
 
>  <excitation_energy_2> 
4.772 
 
>  <excitation_energy_3> 
4.817 
 
>  <excitation_energy_4> 
4.872 
 
>  <homo_energy> 
-5.75 
 
>  <homo_lumo_gap> 
5.622 
 
>  <logP> 
3.174 
 
>  <lumo_energy> 
-0.128 
 
>  <melting_point> 
52.45 
 
>  <molecular_refractivity> 
60.58 
 
>  <oscillator_strength_1> 
0.0017 
 
>  <oscillator_strength_2> 
0.0088 
 
>  <oscillator_strength_3> 
0.0116 
 
>  <oscillator_strength_4> 
0.0446 
 
>  <open_babel_can_smiles> 
COc1ccc(cc1)C1SCCS1 
 
>  <mulliken_charges> 
25 
1   -0.215771 
2   -0.147744 
3   -0.186747 
4   -0.176561 
5   -0.193852 
6   -0.412506 
7   -0.417965 
8   0.166108 
9   0.379004 
10   -0.49574 
11   -0.504833 
12   0.108494 
13   0.130009 
14   0.170926 
15   0.152998 
16   0.153075 
17   0.150783 
18   0.130541 
19   0.14096 
20   0.132247 
21   0.181189 
22   0.18834 
23   0.183101 
24   0.18475 
25   0.199194 
 
>  <lowdin_charges> 
25 
1   -0.279398 
2   -0.132647 
3   -0.147993 
4   -0.177203 
5   -0.215501 
6   -0.377229 
7   -0.376493 
8   -0.039295 
9   0.104221 
10   -0.308367 
11   -0.195291 
12   0.080439 
13   0.115207 
14   0.164174 
15   0.147207 
16   0.14613 
17   0.170732 
18   0.155999 
19   0.16647 
20   0.163038 
21   0.170764 
22   0.163815 
23   0.173906 
24   0.16067 
25   0.166649 
 
$$$$ 
 
