PCCDB-ID:  11040 
public computational chemistry database (PCCDB) project, http://pccdb.org 
 
 15 14  0  0  1  0  0  0  0  0999 V2000 
    0.8617    0.4226   -0.0055 C   0  0  0  0  0  0  0  0  0  0  0  0 
    3.1528   -2.5173    2.1168 C   0  0  0  0  0  0  0  0  0  0  0  0 
    2.3971    0.4356   -0.0199 C   0  0  1  0  0  0  0  0  0  0  0  0 
    2.9615   -0.9199    0.3973 C   0  0  0  0  0  0  0  0  0  0  0  0 
    2.8897    0.7654   -1.2999 O   0  0  0  0  0  0  0  0  0  0  0  0 
    3.6005   -1.6277   -0.3578 O   0  0  0  0  0  0  0  0  0  0  0  0 
    2.6652   -1.2392    1.6644 O   0  0  0  0  0  0  0  0  0  0  0  0 
    0.4759    0.2485    1.0037 H   0  0  0  0  0  0  0  0  0  0  0  0 
    0.4809   -0.3568   -0.6743 H   0  0  0  0  0  0  0  0  0  0  0  0 
    0.4962    1.3886   -0.3653 H   0  0  0  0  0  0  0  0  0  0  0  0 
    2.8358   -2.5976    3.1565 H   0  0  0  0  0  0  0  0  0  0  0  0 
    4.2422   -2.5574    2.0406 H   0  0  0  0  0  0  0  0  0  0  0  0 
    2.7209   -3.3233    1.5183 H   0  0  0  0  0  0  0  0  0  0  0  0 
    2.7536    1.1791    0.7084 H   0  0  0  0  0  0  0  0  0  0  0  0 
    3.3514   -0.0312   -1.6223 H   0  0  0  0  0  0  0  0  0  0  0  0 
  1  8  1  0  0  0  0 
  2 11  1  0  0  0  0 
  3  1  1  0  0  0  0 
  3  4  1  0  0  0  0 
  3 14  1  1  0  0  0 
  4  7  1  0  0  0  0 
  5  3  1  0  0  0  0 
  6  4  2  0  0  0  0 
  7  2  1  0  0  0  0 
  9  1  1  0  0  0  0 
 10  1  1  0  0  0  0 
 12  2  1  0  0  0  0 
 13  2  1  0  0  0  0 
 15  5  1  0  0  0  0 
M  END 
>  <HBA> 
3 
 
>  <HBD> 
1 
 
>  <TPSA> 
46.53 
 
>  <cid> 
11040 
 
>  <dipole> 
2.93 
 
>  <excitation_energy_1> 
6.002 
 
>  <excitation_energy_2> 
6.168 
 
>  <excitation_energy_3> 
6.916 
 
>  <excitation_energy_4> 
7.42 
 
>  <homo_energy> 
-7.233 
 
>  <homo_lumo_gap> 
7.2 
 
>  <logP> 
-0.46 
 
>  <lumo_energy> 
-0.033 
 
>  <melting_point> 
5.82 
 
>  <molecular_refractivity> 
23.79 
 
>  <oscillator_strength_1> 
0.0015 
 
>  <oscillator_strength_2> 
0.0283 
 
>  <oscillator_strength_3> 
0.006 
 
>  <oscillator_strength_4> 
0.0103 
 
>  <open_babel_can_smiles> 
COC(=O)[C@@H](O)C 
 
>  <mulliken_charges> 
15 
1   -0.450208 
2   -0.223401 
3   0.088073 
4   0.591278 
5   -0.635888 
6   -0.492288 
7   -0.44331 
8   0.154596 
9   0.15293 
10   0.169431 
11   0.171744 
12   0.177603 
13   0.175998 
14   0.154136 
15   0.409306 
 
>  <lowdin_charges> 
15 
1   -0.450217 
2   -0.273208 
3   -0.021826 
4   0.18488 
5   -0.461392 
6   -0.271169 
7   -0.179274 
8   0.157478 
9   0.156588 
10   0.165176 
11   0.163334 
12   0.161354 
13   0.163686 
14   0.15427 
15   0.35032 
 
$$$$ 
 
