PCCDB-ID:  9932 
public computational chemistry database (PCCDB) project, http://pccdb.org 
 
 28 30  0  0  0  0  0  0  0  0999 V2000 
    2.5422   -0.8080   -0.0843 C   0  0  0  0  0  0  0  0  0  0  0  0 
    2.5251    0.6622    0.3527 C   0  0  0  0  0  0  0  0  0  0  0  0 
    1.2403   -1.5098    0.3215 C   0  0  0  0  0  0  0  0  0  0  0  0 
    1.3639    1.4180   -0.3066 C   0  0  0  0  0  0  0  0  0  0  0  0 
   -4.0001    2.7334   -0.4118 C   0  0  0  0  0  0  0  0  0  0  0  0 
   -3.8746    2.3748   -1.8450 C   0  0  0  0  0  0  0  0  0  0  0  0 
   -2.5226   -0.6122   -0.2297 C   0  0  0  0  0  0  0  0  0  0  0  0 
    0.0171   -0.6819    0.0183 C   0  0  0  0  0  0  0  0  0  0  0  0 
    0.0696    0.6401   -0.2661 C   0  0  0  0  0  0  0  0  0  0  0  0 
   -2.5017    0.7006   -0.5402 C   0  0  0  0  0  0  0  0  0  0  0  0 
   -1.3002   -1.3854    0.0581 C   0  0  0  0  0  0  0  0  0  0  0  0 
   -1.1716    1.4074   -0.5857 C   0  0  0  0  0  0  0  0  0  0  0  0 
   -3.7408    1.3326   -0.8048 N   0  0  0  0  0  0  0  0  0  0  0  0 
   -1.3661   -2.5832    0.3225 O   0  0  0  0  0  0  0  0  0  0  0  0 
   -1.0952    2.5985   -0.8796 O   0  0  0  0  0  0  0  0  0  0  0  0 
    3.3987   -1.3339    0.3535 H   0  0  0  0  0  0  0  0  0  0  0  0 
    2.6642   -0.8603   -1.1754 H   0  0  0  0  0  0  0  0  0  0  0  0 
    3.4733    1.1535    0.1046 H   0  0  0  0  0  0  0  0  0  0  0  0 
    2.4215    0.7122    1.4458 H   0  0  0  0  0  0  0  0  0  0  0  0 
    1.2474   -1.7325    1.3995 H   0  0  0  0  0  0  0  0  0  0  0  0 
    1.1365   -2.4863   -0.1648 H   0  0  0  0  0  0  0  0  0  0  0  0 
    1.6031    1.6436   -1.3569 H   0  0  0  0  0  0  0  0  0  0  0  0 
    1.2100    2.3963    0.1624 H   0  0  0  0  0  0  0  0  0  0  0  0 
   -4.9817    2.8803    0.0340 H   0  0  0  0  0  0  0  0  0  0  0  0 
   -3.1892    3.3052    0.0273 H   0  0  0  0  0  0  0  0  0  0  0  0 
   -2.9787    2.7054   -2.3602 H   0  0  0  0  0  0  0  0  0  0  0  0 
   -4.7629    2.2554   -2.4619 H   0  0  0  0  0  0  0  0  0  0  0  0 
   -3.4621   -1.1538   -0.1873 H   0  0  0  0  0  0  0  0  0  0  0  0 
  1  3  1  0  0  0  0 
  1  2  1  0  0  0  0 
  1 16  1  0  0  0  0 
  2 19  1  0  0  0  0 
  3 20  1  0  0  0  0 
  4  9  1  0  0  0  0 
  4 23  1  0  0  0  0 
  4  2  1  0  0  0  0 
  5 25  1  0  0  0  0 
  5 24  1  0  0  0  0 
  6 13  1  0  0  0  0 
  6  5  1  0  0  0  0 
  7 28  1  0  0  0  0 
  7 11  1  0  0  0  0 
  8 11  1  0  0  0  0 
  8  3  1  0  0  0  0 
  9  8  2  0  0  0  0 
 10  7  2  0  0  0  0 
 11 14  2  0  0  0  0 
 12 10  1  0  0  0  0 
 12  9  1  0  0  0  0 
 13 10  1  0  0  0  0 
 13  5  1  0  0  0  0 
 15 12  2  0  0  0  0 
 17  1  1  0  0  0  0 
 18  2  1  0  0  0  0 
 21  3  1  0  0  0  0 
 22  4  1  0  0  0  0 
 26  6  1  0  0  0  0 
 27  6  1  0  0  0  0 
M  END 
>  <HBA> 
3 
 
>  <HBD> 
0 
 
>  <TPSA> 
37.15 
 
>  <cid> 
9932 
 
>  <dipole> 
2.14 
 
>  <excitation_energy_1> 
2.227 
 
>  <excitation_energy_2> 
2.591 
 
>  <excitation_energy_3> 
3.018 
 
>  <excitation_energy_4> 
3.41 
 
>  <homo_energy> 
-6.495 
 
>  <homo_lumo_gap> 
3.314 
 
>  <logP> 
1.146 
 
>  <lumo_energy> 
-3.181 
 
>  <melting_point> 
98.52 
 
>  <molecular_refractivity> 
59.72 
 
>  <oscillator_strength_1> 
0.0 
 
>  <oscillator_strength_2> 
0.0 
 
>  <oscillator_strength_3> 
0.0009 
 
>  <oscillator_strength_4> 
0.0 
 
>  <open_babel_can_smiles> 
O=C1C=C(N2CC2)C(=O)C2=C1CCCC2 
 
>  <mulliken_charges> 
28 
1   -0.271071 
2   -0.272049 
3   -0.329605 
4   -0.325115 
5   -0.192597 
6   -0.192972 
7   -0.22594 
8   0.037437 
9   0.037139 
10   0.274163 
11   0.410356 
12   0.375394 
13   -0.471907 
14   -0.470215 
15   -0.480368 
16   0.141325 
17   0.14107 
18   0.140872 
19   0.14094 
20   0.165822 
21   0.174486 
22   0.163344 
23   0.169546 
24   0.16272 
25   0.182758 
26   0.182947 
27   0.162875 
28   0.168643 
 
>  <lowdin_charges> 
28 
1   -0.274908 
2   -0.274134 
3   -0.272611 
4   -0.272228 
5   -0.227137 
6   -0.22855 
7   -0.168876 
8   -0.021002 
9   -0.033561 
10   0.034979 
11   0.14054 
12   0.139923 
13   -0.177634 
14   -0.222332 
15   -0.230285 
16   0.150818 
17   0.141893 
18   0.149763 
19   0.141695 
20   0.161755 
21   0.170024 
22   0.160054 
23   0.166898 
24   0.160325 
25   0.169377 
26   0.168997 
27   0.161231 
28   0.184983 
 
$$$$ 
 
