PCCDB-ID:  17183 
public computational chemistry database (PCCDB) project, http://pccdb.org 
 
 21 22  0  0  1  0  0  0  0  0999 V2000 
    1.3255   -0.5457    0.6767 C   0  0  0  0  0  0  0  0  0  0  0  0 
    2.2248    0.2066    0.0432 C   0  0  0  0  0  0  0  0  0  0  0  0 
    2.3735   -3.8517   -3.2840 C   0  0  0  0  0  0  0  0  0  0  0  0 
    2.8200   -3.9441   -1.9623 C   0  0  0  0  0  0  0  0  0  0  0  0 
    2.1423   -2.6055   -3.8744 C   0  0  0  0  0  0  0  0  0  0  0  0 
    3.0430   -2.7876   -1.2021 C   0  0  0  0  0  0  0  0  0  0  0  0 
    2.5742    0.7216   -2.4002 C   0  0  0  0  0  0  0  0  0  0  0  0 
    2.2222   -0.0339   -3.4561 C   0  0  0  0  0  0  0  0  0  0  0  0 
    2.9871   -0.1491   -1.2193 C   0  0  2  0  0  0  0  0  0  0  0  0 
    2.3600   -1.4537   -3.1170 C   0  0  0  0  0  0  0  0  0  0  0  0 
    2.8057   -1.5472   -1.7806 C   0  0  0  0  0  0  0  0  0  0  0  0 
    0.8218   -0.1820    1.5684 H   0  0  0  0  0  0  0  0  0  0  0  0 
    1.0584   -1.5408    0.3341 H   0  0  0  0  0  0  0  0  0  0  0  0 
    2.4519    1.1997    0.4336 H   0  0  0  0  0  0  0  0  0  0  0  0 
    2.2070   -4.7585   -3.8596 H   0  0  0  0  0  0  0  0  0  0  0  0 
    2.9966   -4.9209   -1.5201 H   0  0  0  0  0  0  0  0  0  0  0  0 
    1.8022   -2.5385   -4.9049 H   0  0  0  0  0  0  0  0  0  0  0  0 
    3.3931   -2.8653   -0.1759 H   0  0  0  0  0  0  0  0  0  0  0  0 
    2.5652    1.8052   -2.3529 H   0  0  0  0  0  0  0  0  0  0  0  0 
    1.8877    0.3332   -4.4213 H   0  0  0  0  0  0  0  0  0  0  0  0 
    4.0587    0.0248   -1.0160 H   0  0  0  0  0  0  0  0  0  0  0  0 
  1 12  1  0  0  0  0 
  2 14  1  0  0  0  0 
  2  1  2  0  0  0  0 
  3  4  1  0  0  0  0 
  4 16  1  0  0  0  0 
  4  6  2  0  0  0  0 
  5  3  2  0  0  0  0 
  5 10  1  0  0  0  0 
  6 18  1  0  0  0  0 
  7 19  1  0  0  0  0 
  7  9  1  0  0  0  0 
  8 10  1  0  0  0  0 
  8  7  2  0  0  0  0 
  9 21  1  1  0  0  0 
  9  2  1  0  0  0  0 
 10 11  2  0  0  0  0 
 11  9  1  0  0  0  0 
 11  6  1  0  0  0  0 
 13  1  1  0  0  0  0 
 15  3  1  0  0  0  0 
 17  5  1  0  0  0  0 
 20  8  1  0  0  0  0 
M  END 
>  <HBA> 
0 
 
>  <HBD> 
0 
 
>  <TPSA> 
0.0 
 
>  <cid> 
17183 
 
>  <dipole> 
0.51 
 
>  <excitation_energy_1> 
4.671 
 
>  <excitation_energy_2> 
4.74 
 
>  <excitation_energy_3> 
5.341 
 
>  <excitation_energy_4> 
5.463 
 
>  <homo_energy> 
-5.802 
 
>  <homo_lumo_gap> 
5.211 
 
>  <logP> 
2.983 
 
>  <lumo_energy> 
-0.59 
 
>  <melting_point> 
32.33 
 
>  <molecular_refractivity> 
48.52 
 
>  <oscillator_strength_1> 
0.0624 
 
>  <oscillator_strength_2> 
0.0814 
 
>  <oscillator_strength_3> 
0.0289 
 
>  <oscillator_strength_4> 
0.097 
 
>  <open_babel_can_smiles> 
C=C[C@@H]1C=Cc2c1cccc2 
 
>  <mulliken_charges> 
21 
1   -0.337455 
2   -0.047381 
3   -0.130508 
4   -0.139285 
5   -0.200658 
6   -0.18749 
7   -0.132813 
8   -0.142372 
9   -0.254957 
10   0.119476 
11   0.095266 
12   0.137862 
13   0.151417 
14   0.125568 
15   0.126384 
16   0.126175 
17   0.126492 
18   0.131538 
19   0.133878 
20   0.131747 
21   0.167117 
 
>  <lowdin_charges> 
21 
1   -0.338892 
2   -0.142315 
3   -0.157493 
4   -0.163594 
5   -0.166379 
6   -0.161027 
7   -0.156678 
8   -0.163697 
9   -0.120062 
10   -0.007898 
11   -0.007387 
12   0.159488 
13   0.163556 
14   0.150613 
15   0.157011 
16   0.156329 
17   0.15543 
18   0.157906 
19   0.157702 
20   0.15934 
21   0.168047 
 
$$$$ 
 
