PCCDB-ID:  27474 
public computational chemistry database (PCCDB) project, http://pccdb.org 
 
 14 14  0  0  0  0  0  0  0  0999 V2000 
    1.1079    0.0996   -0.8177 C   0  0  0  0  0  0  0  0  0  0  0  0 
    3.0566    1.1797    0.5642 C   0  0  0  0  0  0  0  0  0  0  0  0 
    3.0780   -1.0134    0.5066 C   0  0  0  0  0  0  0  0  0  0  0  0 
    4.8668    0.0608    2.0454 C   0  0  0  0  0  0  0  0  0  0  0  0 
    2.1742    0.0892   -0.0266 C   0  0  0  0  0  0  0  0  0  0  0  0 
    4.1653    0.0877    0.7686 C   0  0  0  0  0  0  0  0  0  0  0  0 
    5.4023    0.0386    3.0762 N   0  0  0  0  0  0  0  0  0  0  0  0 
    0.6410    1.0298   -1.1317 H   0  0  0  0  0  0  0  0  0  0  0  0 
    0.6593   -0.8220   -1.1804 H   0  0  0  0  0  0  0  0  0  0  0  0 
    2.6827    1.5616    1.5211 H   0  0  0  0  0  0  0  0  0  0  0  0 
    3.3228    2.0277   -0.0739 H   0  0  0  0  0  0  0  0  0  0  0  0 
    3.3602   -1.8217   -0.1746 H   0  0  0  0  0  0  0  0  0  0  0  0 
    2.7119   -1.4515    1.4422 H   0  0  0  0  0  0  0  0  0  0  0  0 
    4.8958    0.1163   -0.0455 H   0  0  0  0  0  0  0  0  0  0  0  0 
  1  5  2  0  0  0  0 
  2  6  1  0  0  0  0 
  2 10  1  0  0  0  0 
  3  6  1  0  0  0  0 
  3 13  1  0  0  0  0 
  4  7  3  0  0  0  0 
  5  3  1  0  0  0  0 
  5  2  1  0  0  0  0 
  6  4  1  0  0  0  0 
  8  1  1  0  0  0  0 
  9  1  1  0  0  0  0 
 11  2  1  0  0  0  0 
 12  3  1  0  0  0  0 
 14  6  1  0  0  0  0 
M  END 
>  <HBA> 
1 
 
>  <HBD> 
0 
 
>  <TPSA> 
23.79 
 
>  <cid> 
27474 
 
>  <dipole> 
3.82 
 
>  <excitation_energy_1> 
6.266 
 
>  <excitation_energy_2> 
6.508 
 
>  <excitation_energy_3> 
6.617 
 
>  <excitation_energy_4> 
6.794 
 
>  <homo_energy> 
-7.14 
 
>  <homo_lumo_gap> 
7.094 
 
>  <logP> 
1.476 
 
>  <lumo_energy> 
-0.046 
 
>  <melting_point> 
12.74 
 
>  <molecular_refractivity> 
28.12 
 
>  <oscillator_strength_1> 
0.0284 
 
>  <oscillator_strength_2> 
0.2565 
 
>  <oscillator_strength_3> 
0.0001 
 
>  <oscillator_strength_4> 
0.0253 
 
>  <open_babel_can_smiles> 
N#CC1CC(=C)C1 
 
>  <mulliken_charges> 
14 
1   -0.432263 
2   -0.320894 
3   -0.320713 
4   0.337421 
5   0.21539 
6   -0.190179 
7   -0.467176 
8   0.145745 
9   0.145743 
10   0.178477 
11   0.169093 
12   0.16903 
13   0.178438 
14   0.191889 
 
>  <lowdin_charges> 
14 
1   -0.352954 
2   -0.269791 
3   -0.270121 
4   -0.022007 
5   -0.002759 
6   -0.132021 
7   -0.128946 
8   0.164739 
9   0.164832 
10   0.170462 
11   0.163286 
12   0.163419 
13   0.17066 
14   0.181202 
 
$$$$ 
 
