PCCDB-ID:  14066 
public computational chemistry database (PCCDB) project, http://pccdb.org 
 
 17 16  0  0  0  0  0  0  0  0999 V2000 
    3.1541   -1.4661   -0.1702 C   0  0  0  0  0  0  0  0  0  0  0  0 
    1.7675    2.2077   -0.5209 C   0  0  0  0  0  0  0  0  0  0  0  0 
    2.7998    1.0914   -0.3463 C   0  0  0  0  0  0  0  0  0  0  0  0 
    1.0883    2.1827   -1.8939 C   0  0  0  0  0  0  0  0  0  0  0  0 
    2.1888   -0.2928   -0.1482 C   0  0  0  0  0  0  0  0  0  0  0  0 
    2.0151    2.2862   -2.9750 O   0  0  0  0  0  0  0  0  0  0  0  0 
    0.9942   -0.4547    0.0226 O   0  0  0  0  0  0  0  0  0  0  0  0 
    4.0231   -1.2793    0.4720 H   0  0  0  0  0  0  0  0  0  0  0  0 
    3.5351   -1.6091   -1.1898 H   0  0  0  0  0  0  0  0  0  0  0  0 
    2.6416   -2.3755    0.1501 H   0  0  0  0  0  0  0  0  0  0  0  0 
    2.2601    3.1809   -0.3807 H   0  0  0  0  0  0  0  0  0  0  0  0 
    0.9976    2.1235    0.2546 H   0  0  0  0  0  0  0  0  0  0  0  0 
    3.4432    1.2853    0.5252 H   0  0  0  0  0  0  0  0  0  0  0  0 
    3.4740    1.0607   -1.2123 H   0  0  0  0  0  0  0  0  0  0  0  0 
    0.3292    2.9786   -1.9489 H   0  0  0  0  0  0  0  0  0  0  0  0 
    0.5735    1.2294   -2.0379 H   0  0  0  0  0  0  0  0  0  0  0  0 
    2.4195    3.1668   -2.9275 H   0  0  0  0  0  0  0  0  0  0  0  0 
  1  5  1  0  0  0  0 
  1 10  1  0  0  0  0 
  1  8  1  0  0  0  0 
  2 11  1  0  0  0  0 
  2  3  1  0  0  0  0 
  2 12  1  0  0  0  0 
  3  5  1  0  0  0  0 
  3 13  1  0  0  0  0 
  4  2  1  0  0  0  0 
  5  7  2  0  0  0  0 
  6 17  1  0  0  0  0 
  6  4  1  0  0  0  0 
  9  1  1  0  0  0  0 
 14  3  1  0  0  0  0 
 15  4  1  0  0  0  0 
 16  4  1  0  0  0  0 
M  END 
>  <HBA> 
2 
 
>  <HBD> 
1 
 
>  <TPSA> 
37.3 
 
>  <cid> 
14066 
 
>  <dipole> 
2.91 
 
>  <excitation_energy_1> 
4.44 
 
>  <excitation_energy_2> 
6.044 
 
>  <excitation_energy_3> 
6.185 
 
>  <excitation_energy_4> 
6.437 
 
>  <homo_energy> 
-6.637 
 
>  <homo_lumo_gap> 
6.348 
 
>  <logP> 
0.348 
 
>  <lumo_energy> 
-0.288 
 
>  <melting_point> 
14.11 
 
>  <molecular_refractivity> 
27.51 
 
>  <oscillator_strength_1> 
0.0001 
 
>  <oscillator_strength_2> 
0.0085 
 
>  <oscillator_strength_3> 
0.0005 
 
>  <oscillator_strength_4> 
0.0079 
 
>  <open_babel_can_smiles> 
OCCCC(=O)C 
 
>  <mulliken_charges> 
17 
1   -0.528986 
2   -0.274592 
3   -0.353433 
4   -0.047131 
5   0.45803 
6   -0.614156 
7   -0.442231 
8   0.162174 
9   0.177193 
10   0.178934 
11   0.119801 
12   0.157687 
13   0.157125 
14   0.171049 
15   0.123222 
16   0.170501 
17   0.384813 
 
>  <lowdin_charges> 
17 
1   -0.474065 
2   -0.293761 
3   -0.316281 
4   -0.137993 
5   0.166952 
6   -0.471752 
7   -0.241335 
8   0.165951 
9   0.174218 
10   0.172841 
11   0.137591 
12   0.16137 
13   0.163827 
14   0.167158 
15   0.130236 
16   0.156792 
17   0.338253 
 
$$$$ 
 
