PCCDB-ID:  18685 
public computational chemistry database (PCCDB) project, http://pccdb.org 
 
 32 32  0  0  1  0  0  0  0  0999 V2000 
    1.1598   -0.1155    0.3727 C   0  0  0  0  0  0  0  0  0  0  0  0 
    3.4583    0.3028    1.3060 C   0  0  0  0  0  0  0  0  0  0  0  0 
    3.0362   -1.7287   -0.0773 C   0  0  0  0  0  0  0  0  0  0  0  0 
    3.5574    2.6735   -2.2936 C   0  0  0  0  0  0  0  0  0  0  0  0 
    3.1697    0.7182   -3.6218 C   0  0  0  0  0  0  0  0  0  0  0  0 
    3.3128    1.9338   -1.1368 C   0  0  0  0  0  0  0  0  0  0  0  0 
    2.9268   -0.0183   -2.4628 C   0  0  0  0  0  0  0  0  0  0  0  0 
    3.7453    2.8834   -4.8188 C   0  0  0  0  0  0  0  0  0  0  0  0 
    3.4950    2.0801   -3.5618 C   0  0  0  0  0  0  0  0  0  0  0  0 
    2.9954    0.5669   -1.1883 C   0  0  0  0  0  0  0  0  0  0  0  0 
    2.4993    3.5326   -5.4066 C   0  0  2  0  0  0  0  0  0  0  0  0 
    2.6770   -0.2357    0.0874 C   0  0  0  0  0  0  0  0  0  0  0  0 
    2.4838    4.2473   -6.4687 N   0  0  0  0  0  0  0  0  0  0  0  0 
    1.3042    3.3633   -4.7877 O   0  0  0  0  0  0  0  0  0  0  0  0 
    3.8026    4.3341   -7.0031 O   0  0  0  0  0  0  0  0  0  0  0  0 
    0.8921   -0.6761    1.2770 H   0  0  0  0  0  0  0  0  0  0  0  0 
    0.5691   -0.5132   -0.4604 H   0  0  0  0  0  0  0  0  0  0  0  0 
    0.8671    0.9299    0.5225 H   0  0  0  0  0  0  0  0  0  0  0  0 
    3.2645   -0.3308    2.1789 H   0  0  0  0  0  0  0  0  0  0  0  0 
    3.1600    1.3206    1.5772 H   0  0  0  0  0  0  0  0  0  0  0  0 
    4.5386    0.3024    1.1213 H   0  0  0  0  0  0  0  0  0  0  0  0 
    2.8672   -2.2567    0.8679 H   0  0  0  0  0  0  0  0  0  0  0  0 
    4.0889   -1.8596   -0.3531 H   0  0  0  0  0  0  0  0  0  0  0  0 
    2.4214   -2.2252   -0.8350 H   0  0  0  0  0  0  0  0  0  0  0  0 
    3.8105    3.7282   -2.2085 H   0  0  0  0  0  0  0  0  0  0  0  0 
    3.1150    0.2232   -4.5891 H   0  0  0  0  0  0  0  0  0  0  0  0 
    3.3786    2.4422   -0.1809 H   0  0  0  0  0  0  0  0  0  0  0  0 
    2.6852   -1.0706   -2.5668 H   0  0  0  0  0  0  0  0  0  0  0  0 
    4.1901    2.2574   -5.6012 H   0  0  0  0  0  0  0  0  0  0  0  0 
    4.4763    3.6798   -4.6358 H   0  0  0  0  0  0  0  0  0  0  0  0 
    1.4516    2.8081   -4.0031 H   0  0  0  0  0  0  0  0  0  0  0  0 
    3.6516    4.8869   -7.7840 H   0  0  0  0  0  0  0  0  0  0  0  0 
  1 18  1  0  0  0  0 
  1 16  1  0  0  0  0 
  2 20  1  0  0  0  0 
  2 19  1  0  0  0  0 
  3 12  1  0  0  0  0 
  3 22  1  0  0  0  0 
  4 25  1  0  0  0  0 
  4  6  2  0  0  0  0 
  5  9  2  0  0  0  0 
  5  7  1  0  0  0  0 
  6 27  1  0  0  0  0 
  7 10  2  0  0  0  0 
  8 30  1  0  0  0  0 
  8  9  1  0  0  0  0 
  9  4  1  0  0  0  0 
 10  6  1  0  0  0  0 
 10 12  1  0  0  0  0 
 11 13  1  1  0  0  0 
 11  8  1  0  0  0  0 
 11 14  1  0  0  0  0 
 12  1  1  0  0  0  0 
 12  2  1  0  0  0  0 
 14 31  1  0  0  0  0 
 15 13  1  0  0  0  0 
 17  1  1  0  0  0  0 
 21  2  1  0  0  0  0 
 23  3  1  0  0  0  0 
 24  3  1  0  0  0  0 
 26  5  1  0  0  0  0 
 28  7  1  0  0  0  0 
 29  8  1  0  0  0  0 
 32 15  1  0  0  0  0 
M  RAD  2  11   2  13   2 
M  END 
>  <HBA> 
3 
 
>  <HBD> 
2 
 
>  <TPSA> 
49.33 
 
>  <cid> 
18685 
 
>  <dipole> 
3.56 
 
>  <excitation_energy_1> 
4.84 
 
>  <excitation_energy_2> 
4.955 
 
>  <excitation_energy_3> 
5.199 
 
>  <excitation_energy_4> 
5.501 
 
>  <homo_energy> 
-5.856 
 
>  <homo_lumo_gap> 
5.437 
 
>  <logP> 
2.423 
 
>  <lumo_energy> 
-0.419 
 
>  <melting_point> 
118.76 
 
>  <molecular_refractivity> 
59.22 
 
>  <oscillator_strength_1> 
0.0002 
 
>  <oscillator_strength_2> 
0.0021 
 
>  <oscillator_strength_3> 
0.0009 
 
>  <oscillator_strength_4> 
0.0003 
 
>  <open_babel_can_smiles> 
O[N][C](Cc1ccc(cc1)C(C)(C)C)O 
 
>  <mulliken_charges> 
32 
1   -0.432863 
2   -0.453412 
3   -0.453777 
4   -0.172035 
5   -0.171211 
6   -0.18479 
7   -0.184733 
8   -0.408477 
9   0.068699 
10   0.172503 
11   0.504365 
12   0.018847 
13   -0.250195 
14   -0.589891 
15   -0.531728 
16   0.14258 
17   0.145787 
18   0.145667 
19   0.143532 
20   0.145422 
21   0.150505 
22   0.143585 
23   0.150442 
24   0.14549 
25   0.137303 
26   0.137302 
27   0.131063 
28   0.131105 
29   0.190964 
30   0.190753 
31   0.420499 
32   0.416699 
 
>  <lowdin_charges> 
32 
1   -0.438019 
2   -0.440191 
3   -0.442842 
4   -0.163807 
5   -0.16551 
6   -0.165793 
7   -0.163353 
8   -0.300665 
9   -0.034073 
10   0.005107 
11   0.096618 
12   0.016431 
13   -0.112351 
14   -0.361317 
15   -0.401539 
16   0.149193 
17   0.151696 
18   0.149573 
19   0.151624 
20   0.147386 
21   0.15119 
22   0.151306 
23   0.151677 
24   0.149482 
25   0.15902 
26   0.160556 
27   0.160829 
28   0.159369 
29   0.180825 
30   0.180189 
31   0.362009 
32   0.355376 
 
$$$$ 
 
