PCCDB-ID:  48149 
public computational chemistry database (PCCDB) project, http://pccdb.org 
 
 35 35  0  0  1  0  0  0  0  0999 V2000 
    1.1917   -1.0010    0.1757 C   0  0  0  0  0  0  0  0  0  0  0  0 
    6.8865    3.8553   -1.3288 C   0  0  0  0  0  0  0  0  0  0  0  0 
    8.9498    2.5364   -1.9878 C   0  0  0  0  0  0  0  0  0  0  0  0 
    2.7092   -0.8183    0.2831 C   0  0  0  0  0  0  0  0  0  0  0  0 
    6.7314    1.4451   -2.0996 C   0  0  0  0  0  0  0  0  0  0  0  0 
    3.2664    0.0785   -0.8307 C   0  0  0  0  0  0  0  0  0  0  0  0 
    5.2432    1.2563   -1.9764 C   0  0  0  0  0  0  0  0  0  0  0  0 
    7.4492    2.5453   -1.8217 C   0  0  0  0  0  0  0  0  0  0  0  0 
    5.5452   -1.0194   -0.9077 C   0  0  0  0  0  0  0  0  0  0  0  0 
    5.2172    0.9353    0.5364 C   0  0  0  0  0  0  0  0  0  0  0  0 
    6.6941   -0.7665    1.0947 C   0  0  0  0  0  0  0  0  0  0  0  0 
    4.8091    0.3117   -0.7940 C   0  0  2  0  0  0  0  0  0  0  0  0 
    6.3763   -1.5043   -0.0766 N   0  0  0  0  0  0  0  0  0  0  0  0 
    6.0453    0.4639    1.3778 N   0  0  0  0  0  0  0  0  0  0  0  0 
    5.2962   -1.7539   -2.0181 O   0  0  0  0  0  0  0  0  0  0  0  0 
    4.6313    2.1143    0.8564 O   0  0  0  0  0  0  0  0  0  0  0  0 
    7.5247   -1.1952    1.8629 O   0  0  0  0  0  0  0  0  0  0  0  0 
    0.8192   -1.6437    0.9798 H   0  0  0  0  0  0  0  0  0  0  0  0 
    0.9106   -1.4646   -0.7778 H   0  0  0  0  0  0  0  0  0  0  0  0 
    0.6670   -0.0405    0.2475 H   0  0  0  0  0  0  0  0  0  0  0  0 
    7.2025    4.6786   -1.9829 H   0  0  0  0  0  0  0  0  0  0  0  0 
    7.2740    4.0811   -0.3270 H   0  0  0  0  0  0  0  0  0  0  0  0 
    5.7959    3.8745   -1.2688 H   0  0  0  0  0  0  0  0  0  0  0  0 
    9.2700    3.3048   -2.7049 H   0  0  0  0  0  0  0  0  0  0  0  0 
    9.3186    1.5671   -2.3354 H   0  0  0  0  0  0  0  0  0  0  0  0 
    9.4467    2.7685   -1.0365 H   0  0  0  0  0  0  0  0  0  0  0  0 
    3.2019   -1.7978    0.2436 H   0  0  0  0  0  0  0  0  0  0  0  0 
    2.9592   -0.3866    1.2602 H   0  0  0  0  0  0  0  0  0  0  0  0 
    7.2730    0.5622   -2.4382 H   0  0  0  0  0  0  0  0  0  0  0  0 
    2.7578    1.0534   -0.8052 H   0  0  0  0  0  0  0  0  0  0  0  0 
    2.9951   -0.3438   -1.8090 H   0  0  0  0  0  0  0  0  0  0  0  0 
    4.8475    0.8260   -2.9087 H   0  0  0  0  0  0  0  0  0  0  0  0 
    4.7252    2.2145   -1.8628 H   0  0  0  0  0  0  0  0  0  0  0  0 
    4.6583   -1.2969   -2.5879 H   0  0  0  0  0  0  0  0  0  0  0  0 
    4.0114    2.3814    0.1603 H   0  0  0  0  0  0  0  0  0  0  0  0 
  1 20  1  0  0  0  0 
  1  4  1  0  0  0  0 
  1 18  1  0  0  0  0 
  2 23  1  0  0  0  0 
  2 22  1  0  0  0  0 
  3  8  1  0  0  0  0 
  3 26  1  0  0  0  0 
  4 28  1  0  0  0  0 
  5  7  1  0  0  0  0 
  5  8  2  0  0  0  0 
  6 30  1  0  0  0  0 
  6 12  1  0  0  0  0 
  6  4  1  0  0  0  0 
  7 33  1  0  0  0  0 
  8  2  1  0  0  0  0 
  9 12  1  0  0  0  0 
  9 13  2  0  0  0  0 
 10 16  1  0  0  0  0 
 10 14  2  0  0  0  0 
 11 14  1  0  0  0  0 
 11 17  2  0  0  0  0 
 12  7  1  6  0  0  0 
 12 10  1  0  0  0  0 
 13 11  2  0  0  0  0 
 15  9  1  0  0  0  0 
 19  1  1  0  0  0  0 
 21  2  1  0  0  0  0 
 24  3  1  0  0  0  0 
 25  3  1  0  0  0  0 
 27  4  1  0  0  0  0 
 29  5  1  0  0  0  0 
 31  6  1  0  0  0  0 
 32  7  1  0  0  0  0 
 34 15  1  0  0  0  0 
 35 16  1  0  0  0  0 
M  END 
>  <HBA> 
5 
 
>  <HBD> 
2 
 
>  <TPSA> 
75.27 
 
>  <cid> 
48149 
 
>  <dipole> 
9.49 
 
>  <excitation_energy_1> 
4.004 
 
>  <excitation_energy_2> 
4.175 
 
>  <excitation_energy_3> 
4.571 
 
>  <excitation_energy_4> 
5.253 
 
>  <homo_energy> 
-6.806 
 
>  <homo_lumo_gap> 
5.391 
 
>  <logP> 
2.153 
 
>  <lumo_energy> 
-1.415 
 
>  <melting_point> 
152.79 
 
>  <molecular_refractivity> 
71.37 
 
>  <oscillator_strength_1> 
0.0 
 
>  <oscillator_strength_2> 
0.0 
 
>  <oscillator_strength_3> 
0.0036 
 
>  <oscillator_strength_4> 
0.0002 
 
>  <open_babel_can_smiles> 
CCC[C@@]1(CC=C(C)C)C(=N[C](=[N]=C1O)=O)O 
 
>  <mulliken_charges> 
35 
1   -0.447508 
2   -0.510048 
3   -0.510267 
4   -0.273902 
5   -0.177571 
6   -0.277547 
7   -0.323107 
8   0.19904 
9   0.555463 
10   0.564062 
11   0.62283 
12   -0.148899 
13   -0.472384 
14   -0.473226 
15   -0.583267 
16   -0.58365 
17   -0.434401 
18   0.162839 
19   0.146701 
20   0.146094 
21   0.158304 
22   0.181012 
23   0.135744 
24   0.154216 
25   0.163744 
26   0.169028 
27   0.169351 
28   0.169407 
29   0.144459 
30   0.132035 
31   0.131978 
32   0.14111 
33   0.13736 
34   0.416019 
35   0.414982 
 
>  <lowdin_charges> 
35 
1   -0.443298 
2   -0.442523 
3   -0.439395 
4   -0.281754 
5   -0.216389 
6   -0.272343 
7   -0.269312 
8   0.016733 
9   0.148949 
10   0.152738 
11   0.174655 
12   -0.064304 
13   -0.185036 
14   -0.18408 
15   -0.335509 
16   -0.334666 
17   -0.211049 
18   0.162214 
19   0.148906 
20   0.148523 
21   0.160382 
22   0.170852 
23   0.144268 
24   0.157561 
25   0.161148 
26   0.164327 
27   0.158298 
28   0.158291 
29   0.161424 
30   0.1403 
31   0.140923 
32   0.147353 
33   0.147483 
34   0.358161 
35   0.356167 
 
$$$$ 
 
