PCCDB-ID:  6978 
public computational chemistry database (PCCDB) project, http://pccdb.org 
 
 19 19  0  0  0  0  0  0  0  0999 V2000 
    1.0232   -0.0785    0.2194 C   0  0  0  0  0  0  0  0  0  0  0  0 
    3.2743    1.0939    0.0374 C   0  0  0  0  0  0  0  0  0  0  0  0 
    4.6468    1.0926   -0.0993 C   0  0  0  0  0  0  0  0  0  0  0  0 
    3.2268   -1.2891   -0.0591 C   0  0  0  0  0  0  0  0  0  0  0  0 
    2.5249   -0.1034    0.0641 C   0  0  0  0  0  0  0  0  0  0  0  0 
    5.3861   -0.1117   -0.2237 C   0  0  0  0  0  0  0  0  0  0  0  0 
    4.6262   -1.3123   -0.2032 C   0  0  0  0  0  0  0  0  0  0  0  0 
    6.7419   -0.0607   -0.3237 N   0  0  0  0  0  0  0  0  0  0  0  0 
    5.2494   -2.6118   -0.3443 N   0  0  0  0  0  0  0  0  0  0  0  0 
    4.5368   -3.6167   -0.3090 O   0  0  0  0  0  0  0  0  0  0  0  0 
    6.4848   -2.6745   -0.5006 O   0  0  0  0  0  0  0  0  0  0  0  0 
    0.5432    0.4820   -0.5929 H   0  0  0  0  0  0  0  0  0  0  0  0 
    0.7232    0.3993    1.1607 H   0  0  0  0  0  0  0  0  0  0  0  0 
    0.6085   -1.0909    0.2141 H   0  0  0  0  0  0  0  0  0  0  0  0 
    2.7579    2.0472    0.1286 H   0  0  0  0  0  0  0  0  0  0  0  0 
    5.1943    2.0320   -0.1102 H   0  0  0  0  0  0  0  0  0  0  0  0 
    2.7140   -2.2433   -0.0505 H   0  0  0  0  0  0  0  0  0  0  0  0 
    7.1846    0.8290   -0.4945 H   0  0  0  0  0  0  0  0  0  0  0  0 
    7.2345   -0.9185   -0.5311 H   0  0  0  0  0  0  0  0  0  0  0  0 
  1 13  1  0  0  0  0 
  2  5  1  0  0  0  0 
  2 15  1  0  0  0  0 
  3  2  2  0  0  0  0 
  4 17  1  0  0  0  0 
  4  5  2  0  0  0  0 
  5  1  1  0  0  0  0 
  6  7  2  0  0  0  0 
  6  3  1  0  0  0  0 
  7  4  1  0  0  0  0 
  8  6  1  0  0  0  0 
  9 10  2  0  0  0  0 
  9  7  1  0  0  0  0 
 11  9  2  0  0  0  0 
 12  1  1  0  0  0  0 
 14  1  1  0  0  0  0 
 16  3  1  0  0  0  0 
 18  8  1  0  0  0  0 
 19  8  1  0  0  0  0 
M  END 
>  <HBA> 
1 
 
>  <HBD> 
1 
 
>  <TPSA> 
71.84 
 
>  <cid> 
6978 
 
>  <dipole> 
4.88 
 
>  <excitation_energy_1> 
3.213 
 
>  <excitation_energy_2> 
3.805 
 
>  <excitation_energy_3> 
4.398 
 
>  <excitation_energy_4> 
4.615 
 
>  <homo_energy> 
-5.889 
 
>  <homo_lumo_gap> 
3.774 
 
>  <logP> 
2.59 
 
>  <lumo_energy> 
-2.114 
 
>  <melting_point> 
97.11 
 
>  <molecular_refractivity> 
44.63 
 
>  <oscillator_strength_1> 
0.0892 
 
>  <oscillator_strength_2> 
0.0002 
 
>  <oscillator_strength_3> 
0.0005 
 
>  <oscillator_strength_4> 
0.1447 
 
>  <open_babel_can_smiles> 
Cc1ccc(c(c1)N(=O)=O)N 
 
>  <mulliken_charges> 
19 
1   -0.532462 
2   -0.163127 
3   -0.187462 
4   -0.233848 
5   0.172209 
6   0.343944 
7   0.262669 
8   -0.815338 
9   0.363311 
10   -0.405307 
11   -0.449409 
12   0.162428 
13   0.163025 
14   0.164075 
15   0.135262 
16   0.130651 
17   0.175004 
18   0.334212 
19   0.380164 
 
>  <lowdin_charges> 
19 
1   -0.440727 
2   -0.128711 
3   -0.195783 
4   -0.143268 
5   -0.023996 
6   0.087203 
7   -0.046625 
8   -0.454433 
9   0.311138 
10   -0.257553 
11   -0.289205 
12   0.161142 
13   0.160537 
14   0.161015 
15   0.162107 
16   0.159689 
17   0.184214 
18   0.286536 
19   0.306722 
 
$$$$ 
 
