PCCDB-ID:  67484 
public computational chemistry database (PCCDB) project, http://pccdb.org 
 
 27 30  0  0  0  0  0  0  0  0999 V2000 
    4.3868    0.9943   -0.0074 C   0  0  0  0  0  0  0  0  0  0  0  0 
   -4.1167    1.3698    0.0112 C   0  0  0  0  0  0  0  0  0  0  0  0 
    4.5397   -0.4143    0.0181 C   0  0  0  0  0  0  0  0  0  0  0  0 
   -4.6092    0.0555    0.0338 C   0  0  0  0  0  0  0  0  0  0  0  0 
    3.1282    1.5508   -0.0152 C   0  0  0  0  0  0  0  0  0  0  0  0 
   -2.7440    1.6131    0.0025 C   0  0  0  0  0  0  0  0  0  0  0  0 
    3.4375   -1.2396    0.0354 C   0  0  0  0  0  0  0  0  0  0  0  0 
   -3.7497   -1.0435    0.0483 C   0  0  0  0  0  0  0  0  0  0  0  0 
    0.6551    1.2736   -0.0045 C   0  0  0  0  0  0  0  0  0  0  0  0 
    1.9669    0.7319    0.0023 C   0  0  0  0  0  0  0  0  0  0  0  0 
   -1.8608    0.5300    0.0167 C   0  0  0  0  0  0  0  0  0  0  0  0 
   -0.4144    0.4086    0.0158 C   0  0  0  0  0  0  0  0  0  0  0  0 
    2.1245   -0.6999    0.0283 C   0  0  0  0  0  0  0  0  0  0  0  0 
   -2.3780   -0.7935    0.0407 C   0  0  0  0  0  0  0  0  0  0  0  0 
   -0.1176   -1.0031    0.0403 C   0  0  0  0  0  0  0  0  0  0  0  0 
    1.0663   -1.5652    0.0465 N   0  0  0  0  0  0  0  0  0  0  0  0 
   -1.3166   -1.6907    0.0543 N   0  0  0  0  0  0  0  0  0  0  0  0 
    5.2660    1.6323   -0.0201 H   0  0  0  0  0  0  0  0  0  0  0  0 
   -4.8125    2.2035   -0.0008 H   0  0  0  0  0  0  0  0  0  0  0  0 
    5.5378   -0.8443    0.0240 H   0  0  0  0  0  0  0  0  0  0  0  0 
   -5.6826   -0.1130    0.0388 H   0  0  0  0  0  0  0  0  0  0  0  0 
    3.0022    2.6312   -0.0337 H   0  0  0  0  0  0  0  0  0  0  0  0 
   -2.3657    2.6318   -0.0158 H   0  0  0  0  0  0  0  0  0  0  0  0 
    3.5355   -2.3206    0.0554 H   0  0  0  0  0  0  0  0  0  0  0  0 
   -4.1378   -2.0580    0.0645 H   0  0  0  0  0  0  0  0  0  0  0  0 
    0.5195    2.3528   -0.0247 H   0  0  0  0  0  0  0  0  0  0  0  0 
   -1.3821   -2.6971    0.0725 H   0  0  0  0  0  0  0  0  0  0  0  0 
  1  3  1  0  0  0  0 
  2  4  1  0  0  0  0 
  3 20  1  0  0  0  0 
  3  7  2  0  0  0  0 
  4 21  1  0  0  0  0 
  4  8  2  0  0  0  0 
  5  1  2  0  0  0  0 
  5 10  1  0  0  0  0 
  6  2  2  0  0  0  0 
  6 11  1  0  0  0  0 
  7 24  1  0  0  0  0 
  8 25  1  0  0  0  0 
  9 10  2  0  0  0  0 
  9 12  1  0  0  0  0 
 10 13  1  0  0  0  0 
 11 14  2  0  0  0  0 
 12 11  1  0  0  0  0 
 12 15  2  0  0  0  0 
 13  7  1  0  0  0  0 
 13 16  2  0  0  0  0 
 14  8  1  0  0  0  0 
 14 17  1  0  0  0  0 
 15 16  1  0  0  0  0 
 15 17  1  0  0  0  0 
 17 27  1  0  0  0  0 
 18  1  1  0  0  0  0 
 19  2  1  0  0  0  0 
 22  5  1  0  0  0  0 
 23  6  1  0  0  0  0 
 26  9  1  0  0  0  0 
M  END 
>  <HBA> 
1 
 
>  <HBD> 
1 
 
>  <TPSA> 
28.68 
 
>  <cid> 
67484 
 
>  <dipole> 
1.23 
 
>  <excitation_energy_1> 
3.406 
 
>  <excitation_energy_2> 
3.917 
 
>  <excitation_energy_3> 
4.338 
 
>  <excitation_energy_4> 
4.527 
 
>  <homo_energy> 
-5.51 
 
>  <homo_lumo_gap> 
4.0 
 
>  <logP> 
3.869 
 
>  <lumo_energy> 
-1.51 
 
>  <melting_point> 
201.11 
 
>  <molecular_refractivity> 
71.11 
 
>  <oscillator_strength_1> 
0.0287 
 
>  <oscillator_strength_2> 
0.2305 
 
>  <oscillator_strength_3> 
0.0054 
 
>  <oscillator_strength_4> 
0.001 
 
>  <open_babel_can_smiles> 
c1ccc2c(c1)nc1c(c2)c2c([nH]1)cccc2 
 
>  <mulliken_charges> 
27 
1   -0.139694 
2   -0.147642 
3   -0.135374 
4   -0.13625 
5   -0.192778 
6   -0.189227 
7   -0.161413 
8   -0.182506 
9   -0.21881 
10   0.133465 
11   0.047984 
12   0.079951 
13   0.252407 
14   0.355745 
15   0.515743 
16   -0.613855 
17   -0.784742 
18   0.129039 
19   0.127815 
20   0.130659 
21   0.131059 
22   0.128001 
23   0.132387 
24   0.137809 
25   0.130242 
26   0.139698 
27   0.330287 
 
>  <lowdin_charges> 
27 
1   -0.167314 
2   -0.177429 
3   -0.151859 
4   -0.144326 
5   -0.153634 
6   -0.146951 
7   -0.159224 
8   -0.19007 
9   -0.126897 
10   -0.026101 
11   -0.036718 
12   -0.043297 
13   0.049666 
14   0.054024 
15   0.087057 
16   -0.18353 
17   -0.211747 
18   0.15896 
19   0.159221 
20   0.158626 
21   0.157915 
22   0.15465 
23   0.158998 
24   0.164494 
25   0.159096 
26   0.160605 
27   0.295787 
 
$$$$ 
 
