PCCDB-ID:  69296 
public computational chemistry database (PCCDB) project, http://pccdb.org 
 
 20 20  0  0  0  0  0  0  0  0999 V2000 
   -1.3715    1.3406    0.5605 C   0  0  0  0  0  0  0  0  0  0  0  0 
   -0.4635    0.6692   -0.2609 C   0  0  0  0  0  0  0  0  0  0  0  0 
   -0.9029    2.0257    1.6835 C   0  0  0  0  0  0  0  0  0  0  0  0 
    0.8991    0.6730    0.0377 C   0  0  0  0  0  0  0  0  0  0  0  0 
    0.4576    2.0362    1.9903 C   0  0  0  0  0  0  0  0  0  0  0  0 
    2.5648   -0.6680    2.8087 C   0  0  0  0  0  0  0  0  0  0  0  0 
    3.4252   -1.5392    3.6031 C   0  0  0  0  0  0  0  0  0  0  0  0 
    1.3709    1.3486    1.1747 C   0  0  0  0  0  0  0  0  0  0  0  0 
    3.3126    0.5247    2.1699 C   0  0  0  0  0  0  0  0  0  0  0  0 
    4.1733   -2.1835    4.2155 N   0  0  0  0  0  0  0  0  0  0  0  0 
    2.7516    1.4016    1.4518 N   0  0  0  0  0  0  0  0  0  0  0  0 
    4.6372    0.6295    2.3961 O   0  0  0  0  0  0  0  0  0  0  0  0 
   -2.4311    1.3390    0.3218 H   0  0  0  0  0  0  0  0  0  0  0  0 
   -0.8147    0.1417   -1.1439 H   0  0  0  0  0  0  0  0  0  0  0  0 
   -1.5985    2.5611    2.3244 H   0  0  0  0  0  0  0  0  0  0  0  0 
    1.6109    0.1695   -0.6107 H   0  0  0  0  0  0  0  0  0  0  0  0 
    0.8287    2.5853    2.8513 H   0  0  0  0  0  0  0  0  0  0  0  0 
    1.7531   -0.2780    3.4337 H   0  0  0  0  0  0  0  0  0  0  0  0 
    2.0842   -1.2480    2.0125 H   0  0  0  0  0  0  0  0  0  0  0  0 
    4.9509   -0.0962    2.9631 H   0  0  0  0  0  0  0  0  0  0  0  0 
  1  3  2  0  0  0  0 
  2  4  2  0  0  0  0 
  2  1  1  0  0  0  0 
  3  5  1  0  0  0  0 
  3 15  1  0  0  0  0 
  4  8  1  0  0  0  0 
  5 17  1  0  0  0  0 
  6 18  1  0  0  0  0 
  6  7  1  0  0  0  0 
  7 10  3  0  0  0  0 
  8 11  1  0  0  0  0 
  8  5  2  0  0  0  0 
  9 12  1  0  0  0  0 
  9  6  1  0  0  0  0 
 11  9  2  0  0  0  0 
 12 20  1  0  0  0  0 
 13  1  1  0  0  0  0 
 14  2  1  0  0  0  0 
 16  4  1  0  0  0  0 
 19  6  1  0  0  0  0 
M  END 
>  <HBA> 
3 
 
>  <HBD> 
1 
 
>  <TPSA> 
52.89 
 
>  <cid> 
69296 
 
>  <dipole> 
2.72 
 
>  <excitation_energy_1> 
4.84 
 
>  <excitation_energy_2> 
4.97 
 
>  <excitation_energy_3> 
5.281 
 
>  <excitation_energy_4> 
5.388 
 
>  <homo_energy> 
-6.218 
 
>  <homo_lumo_gap> 
5.897 
 
>  <logP> 
1.612 
 
>  <lumo_energy> 
-0.321 
 
>  <melting_point> 
91.83 
 
>  <molecular_refractivity> 
45.31 
 
>  <oscillator_strength_1> 
0.0005 
 
>  <oscillator_strength_2> 
0.0164 
 
>  <oscillator_strength_3> 
0.0191 
 
>  <oscillator_strength_4> 
0.1629 
 
>  <open_babel_can_smiles> 
N#CC/C(=N\c1ccccc1)/O 
 
>  <mulliken_charges> 
20 
1   -0.128833 
2   -0.137398 
3   -0.13749 
4   -0.157461 
5   -0.156599 
6   -0.421017 
7   0.338753 
8   0.214579 
9   0.489185 
10   -0.464642 
11   -0.450692 
12   -0.564813 
13   0.13049 
14   0.134221 
15   0.134304 
16   0.133509 
17   0.133882 
18   0.239248 
19   0.239292 
20   0.43148 
 
>  <lowdin_charges> 
20 
1   -0.16942 
2   -0.148275 
3   -0.149902 
4   -0.188755 
5   -0.186335 
6   -0.311021 
7   -0.026651 
8   0.044664 
9   0.147981 
10   -0.110143 
11   -0.16104 
12   -0.339049 
13   0.157486 
14   0.160252 
15   0.161393 
16   0.16291 
17   0.162316 
18   0.211738 
19   0.211896 
20   0.369954 
 
$$$$ 
 
