PCCDB-ID:  26728 
public computational chemistry database (PCCDB) project, http://pccdb.org 
 
 24 26  0  0  0  0  0  0  0  0999 V2000 
    3.5568   -0.2853   -0.0017 C   0  0  0  0  0  0  0  0  0  0  0  0 
    2.9012   -1.5313   -0.0008 C   0  0  0  0  0  0  0  0  0  0  0  0 
   -2.8932   -1.5013   -0.0008 C   0  0  0  0  0  0  0  0  0  0  0  0 
   -3.5451   -0.2557    0.0000 C   0  0  0  0  0  0  0  0  0  0  0  0 
    2.8197    0.8824   -0.0015 C   0  0  0  0  0  0  0  0  0  0  0  0 
    1.5178   -1.5931   -0.0002 C   0  0  0  0  0  0  0  0  0  0  0  0 
   -1.5112   -1.5694   -0.0003 C   0  0  0  0  0  0  0  0  0  0  0  0 
   -2.8020    0.9107    0.0005 C   0  0  0  0  0  0  0  0  0  0  0  0 
    0.6525    2.0438   -0.0001 C   0  0  0  0  0  0  0  0  0  0  0  0 
    1.4045    0.8388   -0.0006 C   0  0  0  0  0  0  0  0  0  0  0  0 
    0.7382   -0.4183   -0.0002 C   0  0  0  0  0  0  0  0  0  0  0  0 
   -0.7149   -0.4010    0.0002 C   0  0  0  0  0  0  0  0  0  0  0  0 
   -1.4020    0.8365    0.0009 C   0  0  0  0  0  0  0  0  0  0  0  0 
   -0.6814    2.0704    0.0017 N   0  3  0  0  0  0  0  0  0  0  0  0 
   -1.3346    3.1673    0.0032 O   0  5  0  0  0  0  0  0  0  0  0  0 
    4.6423   -0.2429   -0.0023 H   0  0  0  0  0  0  0  0  0  0  0  0 
    3.4819   -2.4492   -0.0010 H   0  0  0  0  0  0  0  0  0  0  0  0 
   -3.4754   -2.4184   -0.0013 H   0  0  0  0  0  0  0  0  0  0  0  0 
   -4.6300   -0.2072   -0.0007 H   0  0  0  0  0  0  0  0  0  0  0  0 
    3.3164    1.8491   -0.0020 H   0  0  0  0  0  0  0  0  0  0  0  0 
    1.0344   -2.5643    0.0007 H   0  0  0  0  0  0  0  0  0  0  0  0 
   -1.0312   -2.5419   -0.0012 H   0  0  0  0  0  0  0  0  0  0  0  0 
   -3.2543    1.8942    0.0008 H   0  0  0  0  0  0  0  0  0  0  0  0 
    1.1154    3.0225   -0.0002 H   0  0  0  0  0  0  0  0  0  0  0  0 
  1  5  2  0  0  0  0 
  1  2  1  0  0  0  0 
  2  6  2  0  0  0  0 
  3  7  2  0  0  0  0 
  3  4  1  0  0  0  0 
  4  8  2  0  0  0  0 
  5 10  1  0  0  0  0 
  6 11  1  0  0  0  0 
  6 21  1  0  0  0  0 
  7 12  1  0  0  0  0 
  8 23  1  0  0  0  0 
  8 13  1  0  0  0  0 
  9 14  2  0  0  0  0 
 10 11  2  0  0  0  0 
 10  9  1  0  0  0  0 
 11 12  1  0  0  0  0 
 12 13  2  0  0  0  0 
 13 14  1  0  0  0  0 
 14 15  1  0  0  0  0 
 16  1  1  0  0  0  0 
 17  2  1  0  0  0  0 
 18  3  1  0  0  0  0 
 19  4  1  0  0  0  0 
 20  5  1  0  0  0  0 
 22  7  1  0  0  0  0 
 24  9  1  0  0  0  0 
M  CHG  2  14   1  15  -1 
M  END 
>  <HBA> 
1 
 
>  <HBD> 
0 
 
>  <TPSA> 
25.46 
 
>  <cid> 
26728 
 
>  <dipole> 
3.9 
 
>  <excitation_energy_1> 
3.492 
 
>  <excitation_energy_2> 
3.664 
 
>  <excitation_energy_3> 
3.76 
 
>  <excitation_energy_4> 
4.234 
 
>  <homo_energy> 
-5.505 
 
>  <homo_lumo_gap> 
3.859 
 
>  <logP> 
3.421 
 
>  <lumo_energy> 
-1.646 
 
>  <melting_point> 
108.49 
 
>  <molecular_refractivity> 
62.62 
 
>  <oscillator_strength_1> 
0.0152 
 
>  <oscillator_strength_2> 
0.1655 
 
>  <oscillator_strength_3> 
0.0 
 
>  <oscillator_strength_4> 
0.1151 
 
>  <open_babel_can_smiles> 
[O-][n+]1cc2ccccc2c2c1cccc2 
 
>  <mulliken_charges> 
24 
1   -0.126931 
2   -0.138727 
3   -0.122595 
4   -0.136023 
5   -0.203984 
6   -0.181933 
7   -0.203212 
8   -0.140095 
9   0.005462 
10   0.082989 
11   0.119772 
12   0.054338 
13   0.262949 
14   -0.090133 
15   -0.518202 
16   0.138041 
17   0.136364 
18   0.13895 
19   0.142501 
20   0.140455 
21   0.138915 
22   0.141138 
23   0.184764 
24   0.175197 
 
>  <lowdin_charges> 
24 
1   -0.146523 
2   -0.156432 
3   -0.147086 
4   -0.145002 
5   -0.155191 
6   -0.152797 
7   -0.154759 
8   -0.144709 
9   -0.137255 
10   -0.007328 
11   -0.008538 
12   -0.002677 
13   0.020707 
14   0.215434 
15   -0.385375 
16   0.160858 
17   0.162417 
18   0.16347 
19   0.16286 
20   0.162973 
21   0.160755 
22   0.162384 
23   0.190205 
24   0.181611 
 
$$$$ 
 
