PCCDB-ID:  17656 
public computational chemistry database (PCCDB) project, http://pccdb.org 
 
 21 20  0  0  0  0  0  0  0  0999 V2000 
    0.8225   -1.6422   -2.2619 C   0  0  0  0  0  0  0  0  0  0  0  0 
    5.5772   -0.5013   -4.3940 C   0  0  0  0  0  0  0  0  0  0  0  0 
    6.9424   -0.1810   -2.2792 C   0  0  0  0  0  0  0  0  0  0  0  0 
    2.3107   -1.5687   -1.9066 C   0  0  0  0  0  0  0  0  0  0  0  0 
    3.0233   -0.3610   -2.5474 C   0  0  0  0  0  0  0  0  0  0  0  0 
    4.4663   -0.2484   -2.1343 C   0  0  0  0  0  0  0  0  0  0  0  0 
    5.5693   -0.3113   -2.8964 C   0  0  0  0  0  0  0  0  0  0  0  0 
    0.3416   -2.5083   -1.7929 H   0  0  0  0  0  0  0  0  0  0  0  0 
    0.6770   -1.7275   -3.3459 H   0  0  0  0  0  0  0  0  0  0  0  0 
    0.2897   -0.7433   -1.9275 H   0  0  0  0  0  0  0  0  0  0  0  0 
    6.1592   -1.3925   -4.6679 H   0  0  0  0  0  0  0  0  0  0  0  0 
    6.0640    0.3497   -4.8909 H   0  0  0  0  0  0  0  0  0  0  0  0 
    4.5784   -0.6108   -4.8228 H   0  0  0  0  0  0  0  0  0  0  0  0 
    7.5562   -1.0695   -2.4853 H   0  0  0  0  0  0  0  0  0  0  0  0 
    6.8919   -0.0483   -1.1939 H   0  0  0  0  0  0  0  0  0  0  0  0 
    7.4871    0.6758   -2.7011 H   0  0  0  0  0  0  0  0  0  0  0  0 
    2.8158   -2.4903   -2.2251 H   0  0  0  0  0  0  0  0  0  0  0  0 
    2.4270   -1.5192   -0.8149 H   0  0  0  0  0  0  0  0  0  0  0  0 
    2.4911    0.5546   -2.2439 H   0  0  0  0  0  0  0  0  0  0  0  0 
    2.9215   -0.4212   -3.6371 H   0  0  0  0  0  0  0  0  0  0  0  0 
    4.6129   -0.1105   -1.0606 H   0  0  0  0  0  0  0  0  0  0  0  0 
  1 10  1  0  0  0  0 
  1  4  1  0  0  0  0 
  1  8  1  0  0  0  0 
  2  7  1  0  0  0  0 
  3 15  1  0  0  0  0 
  4 18  1  0  0  0  0 
  5 19  1  0  0  0  0 
  5  6  1  0  0  0  0 
  5  4  1  0  0  0  0 
  6 21  1  0  0  0  0 
  7  3  1  0  0  0  0 
  7  6  2  0  0  0  0 
  9  1  1  0  0  0  0 
 11  2  1  0  0  0  0 
 12  2  1  0  0  0  0 
 13  2  1  0  0  0  0 
 14  3  1  0  0  0  0 
 16  3  1  0  0  0  0 
 17  4  1  0  0  0  0 
 20  5  1  0  0  0  0 
M  END 
>  <HBA> 
0 
 
>  <HBD> 
0 
 
>  <TPSA> 
0.0 
 
>  <cid> 
17656 
 
>  <dipole> 
0.21 
 
>  <excitation_energy_1> 
5.738 
 
>  <excitation_energy_2> 
6.183 
 
>  <excitation_energy_3> 
6.244 
 
>  <excitation_energy_4> 
6.367 
 
>  <homo_energy> 
-6.136 
 
>  <homo_lumo_gap> 
7.105 
 
>  <logP> 
2.753 
 
>  <lumo_energy> 
0.969 
 
>  <melting_point> 
-14.02 
 
>  <molecular_refractivity> 
35.29 
 
>  <oscillator_strength_1> 
0.0045 
 
>  <oscillator_strength_2> 
0.0065 
 
>  <oscillator_strength_3> 
0.061 
 
>  <oscillator_strength_4> 
0.1227 
 
>  <open_babel_can_smiles> 
CCCC=C(C)C 
 
>  <mulliken_charges> 
21 
1   -0.441953 
2   -0.512507 
3   -0.505471 
4   -0.244187 
5   -0.293041 
6   -0.160505 
7   0.18718 
8   0.142521 
9   0.140947 
10   0.141104 
11   0.150224 
12   0.151025 
13   0.153671 
14   0.147502 
15   0.150103 
16   0.147885 
17   0.136891 
18   0.131289 
19   0.135703 
20   0.133862 
21   0.107758 
 
>  <lowdin_charges> 
21 
1   -0.444909 
2   -0.445591 
3   -0.438609 
4   -0.268208 
5   -0.272364 
6   -0.188316 
7   -0.011283 
8   0.150491 
9   0.144132 
10   0.146526 
11   0.154579 
12   0.155375 
13   0.154447 
14   0.151833 
15   0.151822 
16   0.152408 
17   0.142446 
18   0.137175 
19   0.145234 
20   0.141182 
21   0.141632 
 
$$$$ 
 
