PCCDB-ID:  46431 
public computational chemistry database (PCCDB) project, http://pccdb.org 
 
 25 24  0  0  0  0  0  0  0  0999 V2000 
    2.9851   -0.4374   -1.5184 C   0  0  0  0  0  0  0  0  0  0  0  0 
    2.8409   -2.0403    3.4740 C   0  0  0  0  0  0  0  0  0  0  0  0 
    5.6751   -0.1236    0.9266 C   0  0  0  0  0  0  0  0  0  0  0  0 
    2.6805   -0.2360   -0.0306 C   0  0  0  0  0  0  0  0  0  0  0  0 
    2.6375   -0.9911    2.3764 C   0  0  0  0  0  0  0  0  0  0  0  0 
    2.3116   -2.6711    0.4566 C   0  0  0  0  0  0  0  0  0  0  0  0 
    3.0507   -1.3954    0.9394 C   0  0  0  0  0  0  0  0  0  0  0  0 
    1.1332   -3.0207    0.7793 N   0  0  0  0  0  0  0  0  0  0  0  0 
    2.9513   -3.4358   -0.4622 O   0  0  0  0  0  0  0  0  0  0  0  0 
    4.8974   -1.7759    0.9071 S   0  0  0  0  0  0  0  0  0  0  0  0 
    2.6873    0.4545   -2.0803 H   0  0  0  0  0  0  0  0  0  0  0  0 
    2.4364   -1.2892   -1.9312 H   0  0  0  0  0  0  0  0  0  0  0  0 
    4.0524   -0.6049   -1.7002 H   0  0  0  0  0  0  0  0  0  0  0  0 
    2.5106   -1.6404    4.4390 H   0  0  0  0  0  0  0  0  0  0  0  0 
    3.8947   -2.3184    3.5656 H   0  0  0  0  0  0  0  0  0  0  0  0 
    2.2687   -2.9505    3.2711 H   0  0  0  0  0  0  0  0  0  0  0  0 
    6.7487   -0.3085    1.0191 H   0  0  0  0  0  0  0  0  0  0  0  0 
    5.3486    0.4595    1.7920 H   0  0  0  0  0  0  0  0  0  0  0  0 
    5.4915    0.4357    0.0066 H   0  0  0  0  0  0  0  0  0  0  0  0 
    1.6013   -0.0735    0.0898 H   0  0  0  0  0  0  0  0  0  0  0  0 
    3.1633    0.6805    0.3295 H   0  0  0  0  0  0  0  0  0  0  0  0 
    3.1918   -0.0792    2.6332 H   0  0  0  0  0  0  0  0  0  0  0  0 
    1.5824   -0.6827    2.3515 H   0  0  0  0  0  0  0  0  0  0  0  0 
    0.7398   -2.3827    1.4698 H   0  0  0  0  0  0  0  0  0  0  0  0 
    3.8374   -3.0623   -0.6284 H   0  0  0  0  0  0  0  0  0  0  0  0 
  1  4  1  0  0  0  0 
  2 15  1  0  0  0  0 
  2 14  1  0  0  0  0 
  3 17  1  0  0  0  0 
  3 18  1  0  0  0  0 
  4 20  1  0  0  0  0 
  4 21  1  0  0  0  0 
  4  7  1  0  0  0  0 
  5 22  1  0  0  0  0 
  5  2  1  0  0  0  0 
  6  8  2  0  0  0  0 
  6  7  1  0  0  0  0 
  7  5  1  0  0  0  0 
  8 24  1  0  0  0  0 
  9  6  1  0  0  0  0 
 10  3  1  0  0  0  0 
 10  7  1  0  0  0  0 
 11  1  1  0  0  0  0 
 12  1  1  0  0  0  0 
 13  1  1  0  0  0  0 
 16  2  1  0  0  0  0 
 19  3  1  0  0  0  0 
 23  5  1  0  0  0  0 
 25  9  1  0  0  0  0 
M  END 
>  <HBA> 
3 
 
>  <HBD> 
1 
 
>  <TPSA> 
68.39 
 
>  <cid> 
46431 
 
>  <dipole> 
5.31 
 
>  <excitation_energy_1> 
5.355 
 
>  <excitation_energy_2> 
5.718 
 
>  <excitation_energy_3> 
5.957 
 
>  <excitation_energy_4> 
6.092 
 
>  <homo_energy> 
-6.612 
 
>  <homo_lumo_gap> 
7.018 
 
>  <logP> 
2.094 
 
>  <lumo_energy> 
0.405 
 
>  <melting_point> 
68.41 
 
>  <molecular_refractivity> 
46.3 
 
>  <oscillator_strength_1> 
0.0007 
 
>  <oscillator_strength_2> 
0.0025 
 
>  <oscillator_strength_3> 
0.0034 
 
>  <oscillator_strength_4> 
0.0074 
 
>  <open_babel_can_smiles> 
CCC(C(=N)O)(SC)CC 
 
>  <mulliken_charges> 
25 
1   -0.474607 
2   -0.457683 
3   -0.597905 
4   -0.25086 
5   -0.268139 
6   0.496242 
7   -0.170034 
8   -0.591728 
9   -0.581208 
10   0.061745 
11   0.151523 
12   0.179751 
13   0.155197 
14   0.14472 
15   0.173268 
16   0.165435 
17   0.195095 
18   0.186795 
19   0.188717 
20   0.156289 
21   0.143978 
22   0.140764 
23   0.141116 
24   0.28845 
25   0.423081 
 
>  <lowdin_charges> 
25 
1   -0.45674 
2   -0.45436 
3   -0.546117 
4   -0.271111 
5   -0.276388 
6   0.123646 
7   -0.114868 
8   -0.399758 
9   -0.356194 
10   0.086879 
11   0.157129 
12   0.16605 
13   0.15131 
14   0.15314 
15   0.161412 
16   0.159594 
17   0.182184 
18   0.167414 
19   0.166721 
20   0.15399 
21   0.147046 
22   0.148133 
23   0.142868 
24   0.257822 
25   0.350198 
 
$$$$ 
 
