PCCDB-ID:  36828 
public computational chemistry database (PCCDB) project, http://pccdb.org 
 
 32 31  0  0  0  0  0  0  0  0999 V2000 
    2.0578    1.5205   -1.1849 C   0  0  0  0  0  0  0  0  0  0  0  0 
    4.6392    6.3614    5.1091 C   0  0  0  0  0  0  0  0  0  0  0  0 
    2.2304    1.0715    0.2710 C   0  0  0  0  0  0  0  0  0  0  0  0 
    3.6373    0.5480    0.6111 C   0  0  0  0  0  0  0  0  0  0  0  0 
    4.7852    1.5642    0.4800 C   0  0  0  0  0  0  0  0  0  0  0  0 
    4.6983    2.7559    1.4451 C   0  0  0  0  0  0  0  0  0  0  0  0 
    5.9053    3.6995    1.3367 C   0  0  0  0  0  0  0  0  0  0  0  0 
    5.8342    4.9477    2.2313 C   0  0  0  0  0  0  0  0  0  0  0  0 
    5.8989    4.6285    3.7341 C   0  0  0  0  0  0  0  0  0  0  0  0 
    6.9891    6.5193    4.8475 N   0  0  0  0  0  0  0  0  0  0  0  0 
    5.8747    5.8291    4.5691 N   0  0  0  0  0  0  0  0  0  0  0  0 
    8.0178    6.0688    4.3462 O   0  0  0  0  0  0  0  0  0  0  0  0 
    1.0235    1.8239   -1.3835 H   0  0  0  0  0  0  0  0  0  0  0  0 
    2.3055    0.7085   -1.8802 H   0  0  0  0  0  0  0  0  0  0  0  0 
    2.7019    2.3727   -1.4304 H   0  0  0  0  0  0  0  0  0  0  0  0 
    3.9412    6.6318    4.3073 H   0  0  0  0  0  0  0  0  0  0  0  0 
    4.8907    7.2557    5.6828 H   0  0  0  0  0  0  0  0  0  0  0  0 
    4.1528    5.6305    5.7665 H   0  0  0  0  0  0  0  0  0  0  0  0 
    1.5072    0.2729    0.4844 H   0  0  0  0  0  0  0  0  0  0  0  0 
    1.9667    1.8995    0.9428 H   0  0  0  0  0  0  0  0  0  0  0  0 
    3.8568   -0.3119   -0.0380 H   0  0  0  0  0  0  0  0  0  0  0  0 
    3.6291    0.1570    1.6388 H   0  0  0  0  0  0  0  0  0  0  0  0 
    4.8396    1.9377   -0.5521 H   0  0  0  0  0  0  0  0  0  0  0  0 
    5.7337    1.0372    0.6559 H   0  0  0  0  0  0  0  0  0  0  0  0 
    4.6075    2.3721    2.4717 H   0  0  0  0  0  0  0  0  0  0  0  0 
    3.7809    3.3295    1.2507 H   0  0  0  0  0  0  0  0  0  0  0  0 
    6.0011    4.0304    0.2934 H   0  0  0  0  0  0  0  0  0  0  0  0 
    6.8272    3.1438    1.5621 H   0  0  0  0  0  0  0  0  0  0  0  0 
    4.9124    5.5059    2.0149 H   0  0  0  0  0  0  0  0  0  0  0  0 
    6.6727    5.6120    1.9970 H   0  0  0  0  0  0  0  0  0  0  0  0 
    6.8331    4.1055    3.9610 H   0  0  0  0  0  0  0  0  0  0  0  0 
    5.0593    4.0018    4.0499 H   0  0  0  0  0  0  0  0  0  0  0  0 
  1  3  1  0  0  0  0 
  2 17  1  0  0  0  0 
  2 18  1  0  0  0  0 
  3 19  1  0  0  0  0 
  3  4  1  0  0  0  0 
  3 20  1  0  0  0  0 
  4 22  1  0  0  0  0 
  5  4  1  0  0  0  0 
  5 24  1  0  0  0  0 
  5  6  1  0  0  0  0 
  6 25  1  0  0  0  0 
  7  6  1  0  0  0  0 
  7 28  1  0  0  0  0 
  7  8  1  0  0  0  0 
  8  9  1  0  0  0  0 
  9 31  1  0  0  0  0 
  9 32  1  0  0  0  0 
  9 11  1  0  0  0  0 
 11 10  1  0  0  0  0 
 11  2  1  0  0  0  0 
 12 10  1  0  0  0  0 
 13  1  1  0  0  0  0 
 14  1  1  0  0  0  0 
 15  1  1  0  0  0  0 
 16  2  1  0  0  0  0 
 21  4  1  0  0  0  0 
 23  5  1  0  0  0  0 
 26  6  1  0  0  0  0 
 27  7  1  0  0  0  0 
 29  8  1  0  0  0  0 
 30  8  1  0  0  0  0 
M  RAD  2  10   2  12   2 
M  END 
>  <HBA> 
3 
 
>  <HBD> 
0 
 
>  <TPSA> 
32.67 
 
>  <cid> 
36828 
 
>  <dipole> 
4.07 
 
>  <excitation_energy_1> 
3.408 
 
>  <excitation_energy_2> 
5.565 
 
>  <excitation_energy_3> 
5.81 
 
>  <excitation_energy_4> 
5.978 
 
>  <homo_energy> 
-5.954 
 
>  <homo_lumo_gap> 
5.265 
 
>  <logP> 
2.96 
 
>  <lumo_energy> 
-0.688 
 
>  <melting_point> 
-6.87 
 
>  <molecular_refractivity> 
53.01 
 
>  <oscillator_strength_1> 
0.0013 
 
>  <oscillator_strength_2> 
0.008 
 
>  <oscillator_strength_3> 
0.1634 
 
>  <oscillator_strength_4> 
0.0002 
 
>  <open_babel_can_smiles> 
CCCCCCCCN([N][O])C 
 
>  <mulliken_charges> 
32 
1   -0.443576 
2   -0.311433 
3   -0.250476 
4   -0.252893 
5   -0.256855 
6   -0.25979 
7   -0.261507 
8   -0.262206 
9   -0.149683 
10   0.144523 
11   -0.205871 
12   -0.386303 
13   0.14252 
14   0.142319 
15   0.144713 
16   0.165693 
17   0.191227 
18   0.16394 
19   0.132108 
20   0.13157 
21   0.128554 
22   0.125935 
23   0.133475 
24   0.130611 
25   0.128414 
26   0.131859 
27   0.136674 
28   0.137976 
29   0.130256 
30   0.166358 
31   0.18131 
32   0.150554 
 
>  <lowdin_charges> 
32 
1   -0.447969 
2   -0.357983 
3   -0.277501 
4   -0.276108 
5   -0.276542 
6   -0.279284 
7   -0.273593 
8   -0.282385 
9   -0.219368 
10   0.047535 
11   -0.038186 
12   -0.280106 
13   0.149132 
14   0.147533 
15   0.146976 
16   0.156218 
17   0.177085 
18   0.156478 
19   0.143458 
20   0.138915 
21   0.141446 
22   0.138198 
23   0.138856 
24   0.14222 
25   0.135145 
26   0.13861 
27   0.144973 
28   0.143412 
29   0.139494 
30   0.161232 
31   0.169138 
32   0.152971 
 
$$$$ 
 
