PCCDB-ID:  52381 
public computational chemistry database (PCCDB) project, http://pccdb.org 
 
 31 30  0  0  0  0  0  0  0  0999 V2000 
    1.5189   -1.4676    1.0170 C   0  0  0  0  0  0  0  0  0  0  0  0 
    8.7694   -3.1331   -1.0657 C   0  0  0  0  0  0  0  0  0  0  0  0 
    5.9466    3.0377   -1.6216 C   0  0  0  0  0  0  0  0  0  0  0  0 
    7.5697    1.1396   -1.7404 C   0  0  0  0  0  0  0  0  0  0  0  0 
    2.2752   -0.3026    1.6392 C   0  0  0  0  0  0  0  0  0  0  0  0 
    7.7880   -3.1045    0.0965 C   0  0  0  0  0  0  0  0  0  0  0  0 
    5.6694   -0.0668    0.1756 C   0  0  0  0  0  0  0  0  0  0  0  0 
    4.5425   -0.5778    1.0035 C   0  0  0  0  0  0  0  0  0  0  0  0 
    6.9252   -0.8915    0.2609 C   0  0  0  0  0  0  0  0  0  0  0  0 
    5.5128    1.1063   -0.3710 N   0  0  0  0  0  0  0  0  0  0  0  0 
    6.3681    1.7234   -1.1516 N   0  0  0  0  0  0  0  0  0  0  0  0 
    4.6633   -1.5089    1.7805 O   0  0  0  0  0  0  0  0  0  0  0  0 
    7.9929   -0.4672    0.6630 O   0  0  0  0  0  0  0  0  0  0  0  0 
    3.3910    0.1021    0.8155 O   0  0  0  0  0  0  0  0  0  0  0  0 
    6.7160   -2.1592   -0.1383 O   0  0  0  0  0  0  0  0  0  0  0  0 
    0.6327   -1.7018    1.6186 H   0  0  0  0  0  0  0  0  0  0  0  0 
    2.1533   -2.3572    0.9774 H   0  0  0  0  0  0  0  0  0  0  0  0 
    1.1903   -1.2198    0.0022 H   0  0  0  0  0  0  0  0  0  0  0  0 
    9.5202   -3.9144   -0.9001 H   0  0  0  0  0  0  0  0  0  0  0  0 
    9.2882   -2.1744   -1.1557 H   0  0  0  0  0  0  0  0  0  0  0  0 
    8.2529   -3.3493   -2.0070 H   0  0  0  0  0  0  0  0  0  0  0  0 
    5.7903    3.0360   -2.7089 H   0  0  0  0  0  0  0  0  0  0  0  0 
    6.7034    3.7937   -1.3789 H   0  0  0  0  0  0  0  0  0  0  0  0 
    5.0124    3.2868   -1.1197 H   0  0  0  0  0  0  0  0  0  0  0  0 
    7.8628    1.7568   -2.5926 H   0  0  0  0  0  0  0  0  0  0  0  0 
    7.3469    0.1278   -2.1009 H   0  0  0  0  0  0  0  0  0  0  0  0 
    8.3917    1.0779   -1.0219 H   0  0  0  0  0  0  0  0  0  0  0  0 
    2.6417   -0.5597    2.6363 H   0  0  0  0  0  0  0  0  0  0  0  0 
    1.6492    0.5915    1.7022 H   0  0  0  0  0  0  0  0  0  0  0  0 
    8.2878   -2.8429    1.0321 H   0  0  0  0  0  0  0  0  0  0  0  0 
    7.2779   -4.0634    0.2144 H   0  0  0  0  0  0  0  0  0  0  0  0 
  1 16  1  0  0  0  0 
  1  5  1  0  0  0  0 
  2 19  1  0  0  0  0 
  2  6  1  0  0  0  0 
  3 23  1  0  0  0  0 
  3 11  1  0  0  0  0 
  3 24  1  0  0  0  0 
  4 11  1  0  0  0  0 
  4 27  1  0  0  0  0 
  5 29  1  0  0  0  0 
  5 28  1  0  0  0  0 
  6 31  1  0  0  0  0 
  6 30  1  0  0  0  0 
  7  9  1  0  0  0  0 
  7  8  1  0  0  0  0 
  8 12  2  0  0  0  0 
  9 13  2  0  0  0  0 
 10  7  2  0  0  0  0 
 11 10  1  0  0  0  0 
 14  8  1  0  0  0  0 
 14  5  1  0  0  0  0 
 15  6  1  0  0  0  0 
 15  9  1  0  0  0  0 
 17  1  1  0  0  0  0 
 18  1  1  0  0  0  0 
 20  2  1  0  0  0  0 
 21  2  1  0  0  0  0 
 22  3  1  0  0  0  0 
 25  4  1  0  0  0  0 
 26  4  1  0  0  0  0 
M  END 
>  <HBA> 
6 
 
>  <HBD> 
0 
 
>  <TPSA> 
68.2 
 
>  <cid> 
52381 
 
>  <dipole> 
3.72 
 
>  <excitation_energy_1> 
4.469 
 
>  <excitation_energy_2> 
4.728 
 
>  <excitation_energy_3> 
5.048 
 
>  <excitation_energy_4> 
5.158 
 
>  <homo_energy> 
-6.011 
 
>  <homo_lumo_gap> 
4.985 
 
>  <logP> 
0.03 
 
>  <lumo_energy> 
-1.026 
 
>  <melting_point> 
16.83 
 
>  <molecular_refractivity> 
54.53 
 
>  <oscillator_strength_1> 
0.097 
 
>  <oscillator_strength_2> 
0.19 
 
>  <oscillator_strength_3> 
0.0046 
 
>  <oscillator_strength_4> 
0.1844 
 
>  <open_babel_can_smiles> 
CCOC(=O)C(=NN(C)C)C(=O)OCC 
 
>  <mulliken_charges> 
31 
1   -0.460895 
2   -0.463509 
3   -0.30321 
4   -0.34314 
5   -0.039393 
6   -0.041079 
7   0.116136 
8   0.635245 
9   0.577382 
10   -0.257455 
11   -0.191272 
12   -0.507642 
13   -0.488935 
14   -0.463419 
15   -0.44083 
16   0.14445 
17   0.177622 
18   0.153934 
19   0.151107 
20   0.168469 
21   0.155276 
22   0.158729 
23   0.166213 
24   0.196631 
25   0.162957 
26   0.176457 
27   0.213616 
28   0.16688 
29   0.147475 
30   0.173009 
31   0.159189 
 
>  <lowdin_charges> 
31 
1   -0.455494 
2   -0.456495 
3   -0.348101 
4   -0.371914 
5   -0.126395 
6   -0.125754 
7   -0.094658 
8   0.192391 
9   0.18951 
10   -0.039565 
11   -0.014989 
12   -0.283694 
13   -0.272931 
14   -0.183651 
15   -0.176643 
16   0.15603 
17   0.16619 
18   0.153615 
19   0.159644 
20   0.160823 
21   0.15477 
22   0.148945 
23   0.156726 
24   0.180084 
25   0.163786 
26   0.16395 
27   0.180892 
28   0.156167 
29   0.15003 
30   0.160859 
31   0.155871 
 
$$$$ 
 
