PCCDB-ID:  34540 
public computational chemistry database (PCCDB) project, http://pccdb.org 
 
 43 44  0  0  1  0  0  0  0  0999 V2000 
    2.6920   -0.8390    1.1179 C   0  0  0  0  0  0  0  0  0  0  0  0 
    0.7041   -0.0326   -0.2414 C   0  0  0  0  0  0  0  0  0  0  0  0 
   -0.2329    3.4972    2.6782 C   0  0  0  0  0  0  0  0  0  0  0  0 
    1.7114    4.6731   -1.8635 C   0  0  0  0  0  0  0  0  0  0  0  0 
    1.9943    4.7601    2.6682 C   0  0  0  0  0  0  0  0  0  0  0  0 
    3.7743    3.1790   -1.7995 C   0  0  0  0  0  0  0  0  0  0  0  0 
    2.0908    5.0718    1.1702 C   0  0  0  0  0  0  0  0  0  0  0  0 
    3.0850    1.8216   -1.6296 C   0  0  0  0  0  0  0  0  0  0  0  0 
    1.9603    2.2962    2.1136 C   0  0  0  0  0  0  0  0  0  0  0  0 
    2.2345    0.0018   -0.0880 C   0  0  0  0  0  0  0  0  0  0  0  0 
    1.2830    3.4196    2.9283 C   0  0  2  0  0  0  0  0  0  0  0  0 
    3.0028    4.3144   -1.1052 C   0  0  2  0  0  0  0  0  0  0  0  0 
    2.8549    1.4385   -0.1506 C   0  0  2  0  0  0  0  0  0  0  0  0 
    2.7926    3.9475    0.3859 C   0  0  2  0  0  0  0  0  0  0  0  0 
    2.0929    2.5731    0.5980 C   0  0  2  0  0  0  0  0  0  0  0  0 
    2.3626   -1.8792    1.0018 H   0  0  0  0  0  0  0  0  0  0  0  0 
    2.2911   -0.4756    2.0688 H   0  0  0  0  0  0  0  0  0  0  0  0 
    3.7856   -0.8458    1.2001 H   0  0  0  0  0  0  0  0  0  0  0  0 
    0.3578   -1.0659   -0.3642 H   0  0  0  0  0  0  0  0  0  0  0  0 
    0.3690    0.5314   -1.1198 H   0  0  0  0  0  0  0  0  0  0  0  0 
    0.1915    0.3805    0.6346 H   0  0  0  0  0  0  0  0  0  0  0  0 
   -0.6938    4.2641    3.3128 H   0  0  0  0  0  0  0  0  0  0  0  0 
   -0.7161    2.5400    2.9089 H   0  0  0  0  0  0  0  0  0  0  0  0 
   -0.4747    3.7431    1.6385 H   0  0  0  0  0  0  0  0  0  0  0  0 
    1.9357    4.8716   -2.9186 H   0  0  0  0  0  0  0  0  0  0  0  0 
    1.2388    5.5727   -1.4559 H   0  0  0  0  0  0  0  0  0  0  0  0 
    0.9680    3.8689   -1.8334 H   0  0  0  0  0  0  0  0  0  0  0  0 
    1.4780    5.5735    3.1958 H   0  0  0  0  0  0  0  0  0  0  0  0 
    3.0094    4.7102    3.0887 H   0  0  0  0  0  0  0  0  0  0  0  0 
    3.9036    3.4061   -2.8665 H   0  0  0  0  0  0  0  0  0  0  0  0 
    4.7847    3.1195   -1.3691 H   0  0  0  0  0  0  0  0  0  0  0  0 
    2.6353    6.0142    1.0180 H   0  0  0  0  0  0  0  0  0  0  0  0 
    1.0835    5.2350    0.7663 H   0  0  0  0  0  0  0  0  0  0  0  0 
    3.6929    1.0431   -2.1096 H   0  0  0  0  0  0  0  0  0  0  0  0 
    2.1228    1.8214   -2.1614 H   0  0  0  0  0  0  0  0  0  0  0  0 
    1.4061    1.3673    2.2806 H   0  0  0  0  0  0  0  0  0  0  0  0 
    2.9695    2.1295    2.5201 H   0  0  0  0  0  0  0  0  0  0  0  0 
    2.6403   -0.5174   -0.9690 H   0  0  0  0  0  0  0  0  0  0  0  0 
    1.4154    3.1701    3.9912 H   0  0  0  0  0  0  0  0  0  0  0  0 
    3.6389    5.2124   -1.1238 H   0  0  0  0  0  0  0  0  0  0  0  0 
    3.8522    1.3732    0.3161 H   0  0  0  0  0  0  0  0  0  0  0  0 
    3.8038    3.8445    0.8173 H   0  0  0  0  0  0  0  0  0  0  0  0 
    1.0818    2.6400    0.1704 H   0  0  0  0  0  0  0  0  0  0  0  0 
  1 18  1  0  0  0  0 
  1 17  1  0  0  0  0 
  2 10  1  0  0  0  0 
  2 21  1  0  0  0  0 
  3 23  1  0  0  0  0 
  3 11  1  0  0  0  0 
  3 22  1  0  0  0  0 
  4 27  1  0  0  0  0 
  4 26  1  0  0  0  0 
  4 12  1  0  0  0  0 
  5 11  1  0  0  0  0 
  5 29  1  0  0  0  0 
  5 28  1  0  0  0  0 
  6  8  1  0  0  0  0 
  6 31  1  0  0  0  0 
  6 12  1  0  0  0  0 
  7  5  1  0  0  0  0 
  8 13  1  0  0  0  0 
  9 36  1  0  0  0  0 
  9 37  1  0  0  0  0 
  9 11  1  0  0  0  0 
 10  1  1  0  0  0  0 
 11 39  1  1  0  0  0 
 12 40  1  6  0  0  0 
 12 14  1  0  0  0  0 
 13 10  1  0  0  0  0 
 13 41  1  1  0  0  0 
 13 15  1  0  0  0  0 
 14 15  1  0  0  0  0 
 14 42  1  1  0  0  0 
 14  7  1  0  0  0  0 
 15 43  1  6  0  0  0 
 15  9  1  0  0  0  0 
 16  1  1  0  0  0  0 
 19  2  1  0  0  0  0 
 20  2  1  0  0  0  0 
 24  3  1  0  0  0  0 
 25  4  1  0  0  0  0 
 30  6  1  0  0  0  0 
 32  7  1  0  0  0  0 
 33  7  1  0  0  0  0 
 34  8  1  0  0  0  0 
 35  8  1  0  0  0  0 
 38 10  1  0  0  0  0 
M  END 
>  <HBA> 
0 
 
>  <HBD> 
0 
 
>  <TPSA> 
0.0 
 
>  <cid> 
34540 
 
>  <dipole> 
0.06 
 
>  <excitation_energy_1> 
6.71 
 
>  <excitation_energy_2> 
6.753 
 
>  <excitation_energy_3> 
6.928 
 
>  <excitation_energy_4> 
6.964 
 
>  <homo_energy> 
-7.26 
 
>  <homo_lumo_gap> 
9.257 
 
>  <logP> 
4.741 
 
>  <lumo_energy> 
1.997 
 
>  <melting_point> 
12.62 
 
>  <molecular_refractivity> 
69.99 
 
>  <oscillator_strength_1> 
0.0022 
 
>  <oscillator_strength_2> 
0.0002 
 
>  <oscillator_strength_3> 
0.0027 
 
>  <oscillator_strength_4> 
0.0062 
 
>  <open_babel_can_smiles> 
C[C@@H]1CC[C@H]2[C@H](C1)[C@H](CC[C@H]2C)C(C)C 
 
>  <mulliken_charges> 
43 
1   -0.45385 
2   -0.456222 
3   -0.453146 
4   -0.460756 
5   -0.261096 
6   -0.266228 
7   -0.274332 
8   -0.280351 
9   -0.277389 
10   -0.067477 
11   -0.072116 
12   -0.071957 
13   -0.079121 
14   -0.083864 
15   -0.092417 
16   0.136069 
17   0.146708 
18   0.138206 
19   0.138649 
20   0.141822 
21   0.145821 
22   0.139285 
23   0.138725 
24   0.145955 
25   0.13866 
26   0.145564 
27   0.143987 
28   0.123883 
29   0.124094 
30   0.123434 
31   0.12376 
32   0.124764 
33   0.133801 
34   0.127263 
35   0.131497 
36   0.134117 
37   0.121438 
38   0.120778 
39   0.116253 
40   0.113205 
41   0.106557 
42   0.106064 
43   0.119965 
 
>  <lowdin_charges> 
43 
1   -0.445843 
2   -0.449689 
3   -0.450462 
4   -0.452019 
5   -0.278839 
6   -0.276249 
7   -0.279803 
8   -0.282053 
9   -0.280747 
10   -0.122096 
11   -0.123796 
12   -0.126705 
13   -0.129435 
14   -0.129931 
15   -0.134439 
16   0.144594 
17   0.147588 
18   0.144171 
19   0.147482 
20   0.147061 
21   0.147376 
22   0.148922 
23   0.147074 
24   0.144915 
25   0.14699 
26   0.150351 
27   0.145893 
28   0.14106 
29   0.136809 
30   0.138306 
31   0.136528 
32   0.14114 
33   0.139145 
34   0.142305 
35   0.137606 
36   0.142733 
37   0.136757 
38   0.139391 
39   0.135774 
40   0.136296 
41   0.130956 
42   0.129923 
43   0.134959 
 
$$$$ 
 
