PCCDB-ID:  61845 
public computational chemistry database (PCCDB) project, http://pccdb.org 
 
 17 16  0  0  1  0  0  0  0  0999 V2000 
    0.7632    0.1890   -0.2868 C   0  0  0  0  0  0  0  0  0  0  0  0 
    2.0146   -2.9017   -0.4530 C   0  0  0  0  0  0  0  0  0  0  0  0 
    2.5844    0.8188    1.3754 C   0  0  0  0  0  0  0  0  0  0  0  0 
    2.9273    2.2053    0.8743 C   0  0  0  0  0  0  0  0  0  0  0  0 
    2.1402   -0.1618    0.2835 C   0  0  1  0  0  0  0  0  0  0  0  0 
    2.9542    2.5449   -0.2883 O   0  0  0  0  0  0  0  0  0  0  0  0 
    2.2009   -1.8539    1.0319 S   0  0  0  0  0  0  0  0  0  0  0  0 
    0.7906    1.1853   -0.7401 H   0  0  0  0  0  0  0  0  0  0  0  0 
    0.0011    0.1758    0.5005 H   0  0  0  0  0  0  0  0  0  0  0  0 
    0.4585   -0.5198   -1.0632 H   0  0  0  0  0  0  0  0  0  0  0  0 
    2.1272   -3.9368   -0.1197 H   0  0  0  0  0  0  0  0  0  0  0  0 
    2.7947   -2.6836   -1.1889 H   0  0  0  0  0  0  0  0  0  0  0  0 
    1.0293   -2.7896   -0.9134 H   0  0  0  0  0  0  0  0  0  0  0  0 
    1.8171    0.9193    2.1582 H   0  0  0  0  0  0  0  0  0  0  0  0 
    3.4806    0.4481    1.8974 H   0  0  0  0  0  0  0  0  0  0  0  0 
    3.1866    2.9294    1.6799 H   0  0  0  0  0  0  0  0  0  0  0  0 
    2.8842   -0.1373   -0.5208 H   0  0  0  0  0  0  0  0  0  0  0  0 
  1  5  1  0  0  0  0 
  1  9  1  0  0  0  0 
  2 11  1  0  0  0  0 
  2  7  1  0  0  0  0 
  3 15  1  0  0  0  0 
  3 14  1  0  0  0  0 
  4  3  1  0  0  0  0 
  4 16  1  0  0  0  0 
  5 17  1  6  0  0  0 
  5  7  1  0  0  0  0 
  5  3  1  0  0  0  0 
  6  4  2  0  0  0  0 
  8  1  1  0  0  0  0 
 10  1  1  0  0  0  0 
 12  2  1  0  0  0  0 
 13  2  1  0  0  0  0 
M  END 
>  <HBA> 
2 
 
>  <HBD> 
0 
 
>  <TPSA> 
42.37 
 
>  <cid> 
61845 
 
>  <dipole> 
0.86 
 
>  <excitation_energy_1> 
4.338 
 
>  <excitation_energy_2> 
4.393 
 
>  <excitation_energy_3> 
5.174 
 
>  <excitation_energy_4> 
5.518 
 
>  <homo_energy> 
-6.03 
 
>  <homo_lumo_gap> 
5.29 
 
>  <logP> 
1.327 
 
>  <lumo_energy> 
-0.74 
 
>  <melting_point> 
14.8 
 
>  <molecular_refractivity> 
33.94 
 
>  <oscillator_strength_1> 
0.0006 
 
>  <oscillator_strength_2> 
0.007 
 
>  <oscillator_strength_3> 
0.0004 
 
>  <oscillator_strength_4> 
0.0168 
 
>  <open_babel_can_smiles> 
C[C@H](SC)CC=O 
 
>  <mulliken_charges> 
17 
1   -0.450026 
2   -0.587915 
3   -0.360239 
4   0.252619 
5   -0.222924 
6   -0.38062 
7   0.078644 
8   0.174537 
9   0.152971 
10   0.150162 
11   0.184963 
12   0.1777 
13   0.180769 
14   0.174122 
15   0.186616 
16   0.112519 
17   0.176102 
 
>  <lowdin_charges> 
17 
1   -0.452132 
2   -0.545662 
3   -0.318304 
4   0.057443 
5   -0.213637 
6   -0.219247 
7   0.081924 
8   0.164061 
9   0.154247 
10   0.154379 
11   0.176759 
12   0.163477 
13   0.161606 
14   0.17119 
15   0.180318 
16   0.122388 
17   0.16119 
 
$$$$ 
 
