PCCDB-ID:  8282 
public computational chemistry database (PCCDB) project, http://pccdb.org 
 
 21 20  0  0  0  0  0  0  0  0999 V2000 
    1.2789    0.3064    0.3019 C   0  0  0  0  0  0  0  0  0  0  0  0 
    2.7326   -0.0165   -0.0702 C   0  0  0  0  0  0  0  0  0  0  0  0 
    2.3294   -2.1641   -1.3940 C   0  0  0  0  0  0  0  0  0  0  0  0 
    2.3992    0.0259   -2.6130 C   0  0  0  0  0  0  0  0  0  0  0  0 
    2.9590   -0.7646   -1.4049 C   0  0  0  0  0  0  0  0  0  0  0  0 
    4.4003   -0.9561   -1.6880 N   0  0  0  0  0  0  0  0  0  0  0  0 
    2.9649   -2.9354   -0.3709 O   0  0  0  0  0  0  0  0  0  0  0  0 
    2.8123   -0.5528   -3.8338 O   0  0  0  0  0  0  0  0  0  0  0  0 
    1.2436    0.8465    1.2547 H   0  0  0  0  0  0  0  0  0  0  0  0 
    0.6780   -0.6020    0.4221 H   0  0  0  0  0  0  0  0  0  0  0  0 
    0.7892    0.9367   -0.4487 H   0  0  0  0  0  0  0  0  0  0  0  0 
    3.1857   -0.6152    0.7286 H   0  0  0  0  0  0  0  0  0  0  0  0 
    3.3016    0.9240   -0.1190 H   0  0  0  0  0  0  0  0  0  0  0  0 
    2.4760   -2.6164   -2.3826 H   0  0  0  0  0  0  0  0  0  0  0  0 
    1.2485   -2.0828   -1.2106 H   0  0  0  0  0  0  0  0  0  0  0  0 
    2.7383    1.0752   -2.5301 H   0  0  0  0  0  0  0  0  0  0  0  0 
    1.3037    0.0363   -2.6066 H   0  0  0  0  0  0  0  0  0  0  0  0 
    4.7374   -1.7379   -1.1277 H   0  0  0  0  0  0  0  0  0  0  0  0 
    4.9241   -0.1320   -1.3943 H   0  0  0  0  0  0  0  0  0  0  0  0 
    2.7169   -3.8627   -0.4979 H   0  0  0  0  0  0  0  0  0  0  0  0 
    3.7325   -0.8329   -3.6445 H   0  0  0  0  0  0  0  0  0  0  0  0 
  1 10  1  0  0  0  0 
  1  9  1  0  0  0  0 
  2  1  1  0  0  0  0 
  2 12  1  0  0  0  0 
  3 15  1  0  0  0  0 
  3  7  1  0  0  0  0 
  4 17  1  0  0  0  0 
  4 16  1  0  0  0  0 
  4  5  1  0  0  0  0 
  5  3  1  0  0  0  0 
  5  2  1  0  0  0  0 
  6  5  1  0  0  0  0 
  6 19  1  0  0  0  0 
  6 18  1  0  0  0  0 
  8 21  1  0  0  0  0 
  8  4  1  0  0  0  0 
 11  1  1  0  0  0  0 
 13  2  1  0  0  0  0 
 14  3  1  0  0  0  0 
 20  7  1  0  0  0  0 
M  END 
>  <HBA> 
3 
 
>  <HBD> 
3 
 
>  <TPSA> 
66.48 
 
>  <cid> 
8282 
 
>  <dipole> 
2.32 
 
>  <excitation_energy_1> 
5.985 
 
>  <excitation_energy_2> 
6.294 
 
>  <excitation_energy_3> 
6.411 
 
>  <excitation_energy_4> 
6.573 
 
>  <homo_energy> 
-6.599 
 
>  <homo_lumo_gap> 
8.264 
 
>  <logP> 
-0.221 
 
>  <lumo_energy> 
1.665 
 
>  <melting_point> 
76.61 
 
>  <molecular_refractivity> 
31.22 
 
>  <oscillator_strength_1> 
0.0125 
 
>  <oscillator_strength_2> 
0.0102 
 
>  <oscillator_strength_3> 
0.0026 
 
>  <oscillator_strength_4> 
0.0078 
 
>  <open_babel_can_smiles> 
CCC(CO)(CO)N 
 
>  <mulliken_charges> 
21 
1   -0.459968 
2   -0.26651 
3   -0.042546 
4   -0.009195 
5   0.141616 
6   -0.766701 
7   -0.633362 
8   -0.637729 
9   0.147155 
10   0.152012 
11   0.14952 
12   0.154678 
13   0.121167 
14   0.147571 
15   0.128037 
16   0.108004 
17   0.135109 
18   0.325543 
19   0.299741 
20   0.39949 
21   0.406366 
 
>  <lowdin_charges> 
21 
1   -0.451268 
2   -0.289247 
3   -0.143121 
4   -0.138059 
5   0.029291 
6   -0.552024 
7   -0.475062 
8   -0.476748 
9   0.153812 
10   0.150795 
11   0.150265 
12   0.15504 
13   0.136889 
14   0.144095 
15   0.131452 
16   0.120258 
17   0.140302 
18   0.269227 
19   0.256605 
20   0.348758 
21   0.33874 
 
$$$$ 
 
