PCCDB-ID:  56736 
public computational chemistry database (PCCDB) project, http://pccdb.org 
 
 27 28  0  0  0  0  0  0  0  0999 V2000 
    2.9231    1.6774   -0.1873 C   0  0  0  0  0  0  0  0  0  0  0  0 
    4.8222   -4.5829   -4.0765 C   0  0  0  0  0  0  0  0  0  0  0  0 
    3.5397   -5.2817   -4.5100 C   0  0  0  0  0  0  0  0  0  0  0  0 
    3.8089   -0.1720   -2.1085 C   0  0  0  0  0  0  0  0  0  0  0  0 
    3.4192   -2.9602   -1.5538 C   0  0  0  0  0  0  0  0  0  0  0  0 
    4.2532   -1.1676   -2.9943 C   0  0  0  0  0  0  0  0  0  0  0  0 
    4.0658   -2.5337   -2.7165 C   0  0  0  0  0  0  0  0  0  0  0  0 
    2.9619   -1.9696   -0.7022 C   0  0  0  0  0  0  0  0  0  0  0  0 
    3.1558   -0.5678   -0.9465 C   0  0  0  0  0  0  0  0  0  0  0  0 
    4.9224   -1.0490   -4.1914 N   0  0  0  0  0  0  0  0  0  0  0  0 
    5.1497   -2.2419   -4.6464 N   0  0  0  0  0  0  0  0  0  0  0  0 
    4.6459   -3.1673   -3.7849 N   0  0  0  0  0  0  0  0  0  0  0  0 
    2.2193   -2.4367    0.4791 N   0  0  0  0  0  0  0  0  0  0  0  0 
    2.7087   -5.4118   -3.3651 O   0  0  0  0  0  0  0  0  0  0  0  0 
    1.2597   -1.7748    0.8625 O   0  0  0  0  0  0  0  0  0  0  0  0 
    2.5903   -3.4987    0.9845 O   0  0  0  0  0  0  0  0  0  0  0  0 
    2.7217    0.2839    0.0094 O   0  0  0  0  0  0  0  0  0  0  0  0 
    2.4958    2.1603    0.6921 H   0  0  0  0  0  0  0  0  0  0  0  0 
    2.4055    2.0312   -1.0877 H   0  0  0  0  0  0  0  0  0  0  0  0 
    3.9906    1.9219   -0.2599 H   0  0  0  0  0  0  0  0  0  0  0  0 
    5.5674   -4.6330   -4.8736 H   0  0  0  0  0  0  0  0  0  0  0  0 
    5.2242   -5.0811   -3.1874 H   0  0  0  0  0  0  0  0  0  0  0  0 
    3.8075   -6.2652   -4.9278 H   0  0  0  0  0  0  0  0  0  0  0  0 
    3.0557   -4.6951   -5.3041 H   0  0  0  0  0  0  0  0  0  0  0  0 
    3.9859    0.8698   -2.3414 H   0  0  0  0  0  0  0  0  0  0  0  0 
    3.2418   -4.0025   -1.3265 H   0  0  0  0  0  0  0  0  0  0  0  0 
    1.8238   -5.6836   -3.6504 H   0  0  0  0  0  0  0  0  0  0  0  0 
  1 17  1  0  0  0  0 
  1 18  1  0  0  0  0 
  2 12  1  0  0  0  0 
  2 22  1  0  0  0  0 
  3  2  1  0  0  0  0 
  3 14  1  0  0  0  0 
  4  9  2  0  0  0  0 
  5 26  1  0  0  0  0 
  5  8  2  0  0  0  0 
  6  7  2  0  0  0  0 
  6  4  1  0  0  0  0 
  7  5  1  0  0  0  0 
  8 13  1  0  0  0  0 
  9  8  1  0  0  0  0 
  9 17  1  0  0  0  0 
 10  6  1  0  0  0  0 
 11 10  2  0  0  0  0 
 11 12  1  0  0  0  0 
 12  7  1  0  0  0  0 
 13 15  2  0  0  0  0 
 13 16  2  0  0  0  0 
 19  1  1  0  0  0  0 
 20  1  1  0  0  0  0 
 21  2  1  0  0  0  0 
 23  3  1  0  0  0  0 
 24  3  1  0  0  0  0 
 25  4  1  0  0  0  0 
 27 14  1  0  0  0  0 
M  END 
>  <HBA> 
5 
 
>  <HBD> 
1 
 
>  <TPSA> 
105.99 
 
>  <cid> 
56736 
 
>  <dipole> 
3.26 
 
>  <excitation_energy_1> 
3.318 
 
>  <excitation_energy_2> 
3.659 
 
>  <excitation_energy_3> 
4.217 
 
>  <excitation_energy_4> 
4.418 
 
>  <homo_energy> 
-6.313 
 
>  <homo_lumo_gap> 
4.095 
 
>  <logP> 
0.864 
 
>  <lumo_energy> 
-2.218 
 
>  <melting_point> 
145.69 
 
>  <molecular_refractivity> 
60.07 
 
>  <oscillator_strength_1> 
0.0372 
 
>  <oscillator_strength_2> 
0.0363 
 
>  <oscillator_strength_3> 
0.0191 
 
>  <oscillator_strength_4> 
0.0239 
 
>  <open_babel_can_smiles> 
OCCn1nnc2c1cc(N(=O)=O)c(c2)OC 
 
>  <mulliken_charges> 
27 
1   -0.22169 
2   -0.161846 
3   -0.037095 
4   -0.251707 
5   -0.167899 
6   0.258228 
7   0.370713 
8   0.214769 
9   0.378129 
10   -0.378474 
11   -0.043307 
12   -0.406221 
13   0.359096 
14   -0.612271 
15   -0.369668 
16   -0.388447 
17   -0.492386 
18   0.184234 
19   0.161238 
20   0.159149 
21   0.193175 
22   0.185225 
23   0.140712 
24   0.151096 
25   0.162283 
26   0.205696 
27   0.40727 
 
>  <lowdin_charges> 
27 
1   -0.273368 
2   -0.200944 
3   -0.139718 
4   -0.207046 
5   -0.137999 
6   0.004071 
7   -0.000955 
8   -0.008697 
9   0.103784 
10   -0.131233 
11   -0.063546 
12   0.024015 
13   0.308586 
14   -0.465353 
15   -0.227399 
16   -0.253152 
17   -0.175089 
18   0.171854 
19   0.151498 
20   0.148223 
21   0.182236 
22   0.170829 
23   0.140128 
24   0.145166 
25   0.180755 
26   0.198512 
27   0.35484 
 
$$$$ 
 
