PCCDB-ID:  15627 
public computational chemistry database (PCCDB) project, http://pccdb.org 
 
 28 28  0  0  0  0  0  0  0  0999 V2000 
    1.4767   -0.6108   -0.9077 C   0  0  0  0  0  0  0  0  0  0  0  0 
    6.8613   -1.9327    4.2171 C   0  0  0  0  0  0  0  0  0  0  0  0 
    4.8659   -1.6565    5.7383 C   0  0  0  0  0  0  0  0  0  0  0  0 
    5.2501   -3.8169    4.5394 C   0  0  0  0  0  0  0  0  0  0  0  0 
    2.2756   -0.0044   -0.0203 C   0  0  0  0  0  0  0  0  0  0  0  0 
    3.0371   -2.0032    1.3396 C   0  0  0  0  0  0  0  0  0  0  0  0 
    3.8102    0.1884    1.9207 C   0  0  0  0  0  0  0  0  0  0  0  0 
    3.7735   -2.5376    2.3938 C   0  0  0  0  0  0  0  0  0  0  0  0 
    4.5442   -0.3491    2.9731 C   0  0  0  0  0  0  0  0  0  0  0  0 
    3.0359   -0.6245    1.0760 C   0  0  0  0  0  0  0  0  0  0  0  0 
    4.5467   -1.7277    3.2408 C   0  0  0  0  0  0  0  0  0  0  0  0 
    5.3678   -2.2859    4.4166 C   0  0  0  0  0  0  0  0  0  0  0  0 
    0.9655   -0.0415   -1.6779 H   0  0  0  0  0  0  0  0  0  0  0  0 
    1.2994   -1.6830   -0.9069 H   0  0  0  0  0  0  0  0  0  0  0  0 
    7.4584   -2.3125    5.0553 H   0  0  0  0  0  0  0  0  0  0  0  0 
    7.0201   -0.8510    4.1584 H   0  0  0  0  0  0  0  0  0  0  0  0 
    7.2492   -2.3779    3.2938 H   0  0  0  0  0  0  0  0  0  0  0  0 
    5.4541   -2.0287    6.5862 H   0  0  0  0  0  0  0  0  0  0  0  0 
    3.8144   -1.9083    5.9172 H   0  0  0  0  0  0  0  0  0  0  0  0 
    4.9500   -0.5648    5.7276 H   0  0  0  0  0  0  0  0  0  0  0  0 
    5.8485   -4.1659    5.3885 H   0  0  0  0  0  0  0  0  0  0  0  0 
    5.6193   -4.3274    3.6427 H   0  0  0  0  0  0  0  0  0  0  0  0 
    4.2154   -4.1340    4.7120 H   0  0  0  0  0  0  0  0  0  0  0  0 
    2.3939    1.0770   -0.0947 H   0  0  0  0  0  0  0  0  0  0  0  0 
    2.4556   -2.6742    0.7136 H   0  0  0  0  0  0  0  0  0  0  0  0 
    3.8345    1.2622    1.7470 H   0  0  0  0  0  0  0  0  0  0  0  0 
    3.7375   -3.6099    2.5510 H   0  0  0  0  0  0  0  0  0  0  0  0 
    5.1260    0.3244    3.5966 H   0  0  0  0  0  0  0  0  0  0  0  0 
  1 14  1  0  0  0  0 
  1  5  2  0  0  0  0 
  2 12  1  0  0  0  0 
  2 15  1  0  0  0  0 
  3 19  1  0  0  0  0 
  3 18  1  0  0  0  0 
  4 23  1  0  0  0  0 
  4 21  1  0  0  0  0 
  5 10  1  0  0  0  0 
  6  8  1  0  0  0  0 
  7  9  2  0  0  0  0 
  8 27  1  0  0  0  0 
  8 11  2  0  0  0  0 
  9 11  1  0  0  0  0 
  9 28  1  0  0  0  0 
 10  6  2  0  0  0  0 
 10  7  1  0  0  0  0 
 11 12  1  0  0  0  0 
 12  4  1  0  0  0  0 
 12  3  1  0  0  0  0 
 13  1  1  0  0  0  0 
 16  2  1  0  0  0  0 
 17  2  1  0  0  0  0 
 20  3  1  0  0  0  0 
 22  4  1  0  0  0  0 
 24  5  1  0  0  0  0 
 25  6  1  0  0  0  0 
 26  7  1  0  0  0  0 
M  END 
>  <HBA> 
0 
 
>  <HBD> 
0 
 
>  <TPSA> 
0.0 
 
>  <cid> 
15627 
 
>  <dipole> 
0.61 
 
>  <excitation_energy_1> 
4.658 
 
>  <excitation_energy_2> 
4.814 
 
>  <excitation_energy_3> 
5.457 
 
>  <excitation_energy_4> 
5.723 
 
>  <homo_energy> 
-5.842 
 
>  <homo_lumo_gap> 
5.086 
 
>  <logP> 
3.627 
 
>  <lumo_energy> 
-0.756 
 
>  <melting_point> 
6.24 
 
>  <molecular_refractivity> 
55.8 
 
>  <oscillator_strength_1> 
0.3445 
 
>  <oscillator_strength_2> 
0.1408 
 
>  <oscillator_strength_3> 
0.0072 
 
>  <oscillator_strength_4> 
0.2596 
 
>  <open_babel_can_smiles> 
C=Cc1ccc(cc1)C(C)(C)C 
 
>  <mulliken_charges> 
28 
1   -0.351544 
2   -0.438773 
3   -0.438342 
4   -0.456721 
5   -0.116861 
6   -0.187463 
7   -0.200399 
8   -0.195922 
9   -0.187514 
10   0.175991 
11   0.180528 
12   0.016555 
13   0.142643 
14   0.140686 
15   0.13819 
16   0.142946 
17   0.147759 
18   0.138133 
19   0.147638 
20   0.143026 
21   0.141206 
22   0.145705 
23   0.145638 
24   0.125448 
25   0.124871 
26   0.12573 
27   0.126235 
28   0.124611 
 
>  <lowdin_charges> 
28 
1   -0.33453 
2   -0.438774 
3   -0.436501 
4   -0.444774 
5   -0.143589 
6   -0.154967 
7   -0.157256 
8   -0.16845 
9   -0.166562 
10   -0.007958 
11   0.002733 
12   0.016673 
13   0.163315 
14   0.154151 
15   0.14756 
16   0.146808 
17   0.15214 
18   0.147366 
19   0.150465 
20   0.146692 
21   0.151333 
22   0.150178 
23   0.14858 
24   0.151387 
25   0.157696 
26   0.153002 
27   0.157444 
28   0.155836 
 
$$$$ 
 
