PCCDB-ID:  17755 
public computational chemistry database (PCCDB) project, http://pccdb.org 
 
 17 16  0  0  0  0  0  0  0  0999 V2000 
    2.6086   -1.1201    3.9055 C   0  0  0  0  0  0  0  0  0  0  0  0 
    3.2376   -1.0035    2.5273 C   0  0  0  0  0  0  0  0  0  0  0  0 
    6.7829   -1.5569    1.6619 C   0  0  0  0  0  0  0  0  0  0  0  0 
    7.4509   -0.4953    2.5125 C   0  0  0  0  0  0  0  0  0  0  0  0 
    5.3048   -1.2643    1.3990 C   0  0  0  0  0  0  0  0  0  0  0  0 
    8.5462   -0.0305    2.2815 O   0  0  0  0  0  0  0  0  0  0  0  0 
    4.6156   -1.3314    2.6325 O   0  0  0  0  0  0  0  0  0  0  0  0 
    1.5430   -0.8707    3.8608 H   0  0  0  0  0  0  0  0  0  0  0  0 
    3.0959   -0.4374    4.6091 H   0  0  0  0  0  0  0  0  0  0  0  0 
    2.7113   -2.1399    4.2900 H   0  0  0  0  0  0  0  0  0  0  0  0 
    3.1226    0.0198    2.1317 H   0  0  0  0  0  0  0  0  0  0  0  0 
    2.7427   -1.6848    1.8144 H   0  0  0  0  0  0  0  0  0  0  0  0 
    6.8465   -2.5130    2.2017 H   0  0  0  0  0  0  0  0  0  0  0  0 
    7.3388   -1.6567    0.7242 H   0  0  0  0  0  0  0  0  0  0  0  0 
    6.8600   -0.1593    3.3907 H   0  0  0  0  0  0  0  0  0  0  0  0 
    4.8987   -2.0003    0.6852 H   0  0  0  0  0  0  0  0  0  0  0  0 
    5.1825   -0.2674    0.9410 H   0  0  0  0  0  0  0  0  0  0  0  0 
  1 10  1  0  0  0  0 
  1  9  1  0  0  0  0 
  2  7  1  0  0  0  0 
  2  1  1  0  0  0  0 
  3 13  1  0  0  0  0 
  3  4  1  0  0  0  0 
  4 15  1  0  0  0  0 
  5  3  1  0  0  0  0 
  5  7  1  0  0  0  0 
  6  4  2  0  0  0  0 
  8  1  1  0  0  0  0 
 11  2  1  0  0  0  0 
 12  2  1  0  0  0  0 
 14  3  1  0  0  0  0 
 16  5  1  0  0  0  0 
 17  5  1  0  0  0  0 
M  END 
>  <HBA> 
2 
 
>  <HBD> 
0 
 
>  <TPSA> 
26.3 
 
>  <cid> 
17755 
 
>  <dipole> 
3.39 
 
>  <excitation_energy_1> 
4.143 
 
>  <excitation_energy_2> 
5.66 
 
>  <excitation_energy_3> 
6.483 
 
>  <excitation_energy_4> 
6.703 
 
>  <homo_energy> 
-6.653 
 
>  <homo_lumo_gap> 
6.082 
 
>  <logP> 
0.612 
 
>  <lumo_energy> 
-0.571 
 
>  <melting_point> 
-3.12 
 
>  <molecular_refractivity> 
27.43 
 
>  <oscillator_strength_1> 
0.0001 
 
>  <oscillator_strength_2> 
0.0036 
 
>  <oscillator_strength_3> 
0.0033 
 
>  <oscillator_strength_4> 
0.0153 
 
>  <open_babel_can_smiles> 
CCOCCC=O 
 
>  <mulliken_charges> 
17 
1   -0.454602 
2   -0.007269 
3   -0.353856 
4   0.25568 
5   -0.023515 
6   -0.387682 
7   -0.472129 
8   0.146793 
9   0.160235 
10   0.160235 
11   0.123958 
12   0.122385 
13   0.177929 
14   0.166526 
15   0.12268 
16   0.132224 
17   0.130409 
 
>  <lowdin_charges> 
17 
1   -0.447156 
2   -0.123894 
3   -0.317295 
4   0.054081 
5   -0.127381 
6   -0.218281 
7   -0.280079 
8   0.154773 
9   0.159223 
10   0.15725 
11   0.126643 
12   0.128605 
13   0.174421 
14   0.167545 
15   0.12635 
16   0.135599 
17   0.129597 
 
$$$$ 
 
