PCCDB-ID:  15422 
public computational chemistry database (PCCDB) project, http://pccdb.org 
 
 24 23  0  0  0  0  0  0  0  0999 V2000 
    1.2660   -0.5237    1.4655 C   0  0  0  0  0  0  0  0  0  0  0  0 
    1.8924   -1.8846    1.7932 C   0  0  0  0  0  0  0  0  0  0  0  0 
    2.7349   -2.4888    0.6567 C   0  0  0  0  0  0  0  0  0  0  0  0 
    3.9999   -1.6884    0.3125 C   0  0  0  0  0  0  0  0  0  0  0  0 
    4.9177   -2.3627   -0.7223 C   0  0  0  0  0  0  0  0  0  0  0  0 
    4.3057   -2.4864   -2.1271 C   0  0  0  0  0  0  0  0  0  0  0  0 
    5.2866   -3.0929   -3.1327 C   0  0  0  0  0  0  0  0  0  0  0  0 
    4.5918   -3.3508   -4.8215 S   0  0  0  0  0  0  0  0  0  0  0  0 
    0.6326   -0.1740    2.2888 H   0  0  0  0  0  0  0  0  0  0  0  0 
    0.6390   -0.5847    0.5670 H   0  0  0  0  0  0  0  0  0  0  0  0 
    2.0258    0.2456    1.2875 H   0  0  0  0  0  0  0  0  0  0  0  0 
    1.0916   -2.5916    2.0483 H   0  0  0  0  0  0  0  0  0  0  0  0 
    2.5153   -1.7933    2.6947 H   0  0  0  0  0  0  0  0  0  0  0  0 
    2.1020   -2.5949   -0.2356 H   0  0  0  0  0  0  0  0  0  0  0  0 
    3.0327   -3.5083    0.9420 H   0  0  0  0  0  0  0  0  0  0  0  0 
    4.5753   -1.5281    1.2358 H   0  0  0  0  0  0  0  0  0  0  0  0 
    3.7258   -0.6888   -0.0521 H   0  0  0  0  0  0  0  0  0  0  0  0 
    5.1985   -3.3628   -0.3601 H   0  0  0  0  0  0  0  0  0  0  0  0 
    5.8533   -1.7897   -0.7909 H   0  0  0  0  0  0  0  0  0  0  0  0 
    3.9959   -1.4913   -2.4773 H   0  0  0  0  0  0  0  0  0  0  0  0 
    3.3995   -3.1020   -2.1016 H   0  0  0  0  0  0  0  0  0  0  0  0 
    5.5934   -4.0953   -2.8140 H   0  0  0  0  0  0  0  0  0  0  0  0 
    6.1968   -2.4890   -3.2107 H   0  0  0  0  0  0  0  0  0  0  0  0 
    4.3260   -2.0517   -5.0826 H   0  0  0  0  0  0  0  0  0  0  0  0 
  1  2  1  0  0  0  0 
  1  9  1  0  0  0  0 
  2 12  1  0  0  0  0 
  2 13  1  0  0  0  0 
  3 15  1  0  0  0  0 
  3  2  1  0  0  0  0 
  4  3  1  0  0  0  0 
  4 16  1  0  0  0  0 
  5 18  1  0  0  0  0 
  5  4  1  0  0  0  0 
  6 21  1  0  0  0  0 
  6  5  1  0  0  0  0 
  7 22  1  0  0  0  0 
  7  6  1  0  0  0  0 
  8  7  1  0  0  0  0 
 10  1  1  0  0  0  0 
 11  1  1  0  0  0  0 
 14  3  1  0  0  0  0 
 17  4  1  0  0  0  0 
 19  5  1  0  0  0  0 
 20  6  1  0  0  0  0 
 23  7  1  0  0  0  0 
 24  8  1  0  0  0  0 
M  END 
>  <HBA> 
1 
 
>  <HBD> 
1 
 
>  <TPSA> 
38.8 
 
>  <cid> 
15422 
 
>  <dipole> 
1.99 
 
>  <excitation_energy_1> 
5.227 
 
>  <excitation_energy_2> 
5.857 
 
>  <excitation_energy_3> 
6.246 
 
>  <excitation_energy_4> 
6.37 
 
>  <homo_energy> 
-6.338 
 
>  <homo_lumo_gap> 
7.143 
 
>  <logP> 
2.887 
 
>  <lumo_energy> 
0.805 
 
>  <melting_point> 
-6.97 
 
>  <molecular_refractivity> 
43.69 
 
>  <oscillator_strength_1> 
0.0113 
 
>  <oscillator_strength_2> 
0.0329 
 
>  <oscillator_strength_3> 
0.0041 
 
>  <oscillator_strength_4> 
0.0043 
 
>  <open_babel_can_smiles> 
CCCCCCCS 
 
>  <mulliken_charges> 
24 
1   -0.443543 
2   -0.249739 
3   -0.251645 
4   -0.254752 
5   -0.259792 
6   -0.246315 
7   -0.414239 
8   -0.086024 
9   0.142917 
10   0.141308 
11   0.145589 
12   0.131946 
13   0.129645 
14   0.133513 
15   0.127096 
16   0.129239 
17   0.132894 
18   0.130762 
19   0.129307 
20   0.132556 
21   0.158405 
22   0.176453 
23   0.173788 
24   0.090631 
 
>  <lowdin_charges> 
24 
1   -0.449277 
2   -0.273631 
3   -0.277799 
4   -0.2759 
5   -0.275531 
6   -0.282009 
7   -0.368627 
8   -0.088718 
9   0.151102 
10   0.146334 
11   0.147586 
12   0.143242 
13   0.138525 
14   0.139921 
15   0.138927 
16   0.141662 
17   0.139297 
18   0.1386 
19   0.140992 
20   0.140641 
21   0.15293 
22   0.165422 
23   0.157389 
24   0.108923 
 
$$$$ 
 
