PCCDB-ID:  29420 
public computational chemistry database (PCCDB) project, http://pccdb.org 
 
 19 18  0  0  1  0  0  0  0  0999 V2000 
    4.8828    2.3819   -3.4851 C   0  0  0  0  0  0  0  0  0  0  0  0 
    5.6721   -0.4454   -0.1117 C   0  0  0  0  0  0  0  0  0  0  0  0 
    4.5432    1.5660   -2.2481 C   0  0  0  0  0  0  0  0  0  0  0  0 
    6.3651    1.7846    0.8985 C   0  0  0  0  0  0  0  0  0  0  0  0 
    5.4132    1.0594   -0.0536 C   0  0  1  0  0  0  0  0  0  0  0  0 
    6.1268    3.1791    0.9007 O   0  0  0  0  0  0  0  0  0  0  0  0 
    5.6163    1.6915   -1.3238 O   0  0  0  0  0  0  0  0  0  0  0  0 
    4.0758    2.3110   -4.2226 H   0  0  0  0  0  0  0  0  0  0  0  0 
    5.8067    2.0162   -3.9445 H   0  0  0  0  0  0  0  0  0  0  0  0 
    5.0230    3.4364   -3.2253 H   0  0  0  0  0  0  0  0  0  0  0  0 
    5.5202   -0.8996    0.8744 H   0  0  0  0  0  0  0  0  0  0  0  0 
    6.7010   -0.6445   -0.4314 H   0  0  0  0  0  0  0  0  0  0  0  0 
    4.9950   -0.9438   -0.8129 H   0  0  0  0  0  0  0  0  0  0  0  0 
    4.3881    0.5107   -2.5201 H   0  0  0  0  0  0  0  0  0  0  0  0 
    3.6084    1.9261   -1.7877 H   0  0  0  0  0  0  0  0  0  0  0  0 
    7.4039    1.5527    0.6070 H   0  0  0  0  0  0  0  0  0  0  0  0 
    6.2152    1.4272    1.9227 H   0  0  0  0  0  0  0  0  0  0  0  0 
    4.3799    1.2549    0.2763 H   0  0  0  0  0  0  0  0  0  0  0  0 
    6.0819    3.4192   -0.0410 H   0  0  0  0  0  0  0  0  0  0  0  0 
  1 10  1  0  0  0  0 
  1  3  1  0  0  0  0 
  2  5  1  0  0  0  0 
  2 11  1  0  0  0  0 
  3 15  1  0  0  0  0 
  3  7  1  0  0  0  0 
  4  6  1  0  0  0  0 
  4 17  1  0  0  0  0 
  5 18  1  1  0  0  0 
  5  4  1  0  0  0  0 
  7  5  1  0  0  0  0 
  8  1  1  0  0  0  0 
  9  1  1  0  0  0  0 
 12  2  1  0  0  0  0 
 13  2  1  0  0  0  0 
 14  3  1  0  0  0  0 
 16  4  1  0  0  0  0 
 19  6  1  0  0  0  0 
M  END 
>  <HBA> 
2 
 
>  <HBD> 
1 
 
>  <TPSA> 
29.46 
 
>  <cid> 
29420 
 
>  <dipole> 
2.47 
 
>  <excitation_energy_1> 
6.678 
 
>  <excitation_energy_2> 
6.809 
 
>  <excitation_energy_3> 
6.924 
 
>  <excitation_energy_4> 
7.048 
 
>  <homo_energy> 
-6.917 
 
>  <homo_lumo_gap> 
9.149 
 
>  <logP> 
0.404 
 
>  <lumo_energy> 
2.231 
 
>  <melting_point> 
-16.23 
 
>  <molecular_refractivity> 
28.4 
 
>  <oscillator_strength_1> 
0.0037 
 
>  <oscillator_strength_2> 
0.0084 
 
>  <oscillator_strength_3> 
0.0016 
 
>  <oscillator_strength_4> 
0.0084 
 
>  <open_babel_can_smiles> 
CCO[C@H](CO)C 
 
>  <mulliken_charges> 
19 
1   -0.454461 
2   -0.464261 
3   -0.008692 
4   -0.021559 
5   0.129836 
6   -0.627906 
7   -0.500852 
8   0.146439 
9   0.160574 
10   0.154785 
11   0.147526 
12   0.156018 
13   0.151108 
14   0.125991 
15   0.12588 
16   0.121881 
17   0.139589 
18   0.121467 
19   0.396634 
 
>  <lowdin_charges> 
19 
1   -0.448075 
2   -0.459001 
3   -0.124195 
4   -0.13969 
5   -0.01153 
6   -0.467807 
7   -0.284209 
8   0.156441 
9   0.15835 
10   0.153443 
11   0.155912 
12   0.155373 
13   0.155962 
14   0.127245 
15   0.128787 
16   0.127611 
17   0.146983 
18   0.129434 
19   0.338969 
 
$$$$ 
 
