PCCDB-ID:  28279 
public computational chemistry database (PCCDB) project, http://pccdb.org 
 
 18 17  0  0  0  0  0  0  0  0999 V2000 
   -0.5490    0.9222    0.2291 C   0  0  0  0  0  0  0  0  0  0  0  0 
    1.7231   -0.0220   -0.5100 C   0  0  0  0  0  0  0  0  0  0  0  0 
    1.8904    0.2954   -2.0015 C   0  0  0  0  0  0  0  0  0  0  0  0 
    0.3274   -0.1861   -0.1315 N   0  0  0  0  0  0  0  0  0  0  0  0 
   -0.2867   -1.3758   -0.4545 N   0  0  0  0  0  0  0  0  0  0  0  0 
    3.6884    0.8015   -3.5053 N   0  0  0  0  0  0  0  0  0  0  0  0 
   -1.4967   -1.4442   -0.2414 O   0  0  0  0  0  0  0  0  0  0  0  0 
    0.4259   -2.2731   -0.9119 O   0  0  0  0  0  0  0  0  0  0  0  0 
    4.8779    0.9527   -3.6240 O   0  0  0  0  0  0  0  0  0  0  0  0 
    2.8024    0.8788   -4.3307 O   0  0  0  0  0  0  0  0  0  0  0  0 
    3.3082    0.4896   -2.1703 O   0  0  0  0  0  0  0  0  0  0  0  0 
    0.0884    1.7691    0.4892 H   0  0  0  0  0  0  0  0  0  0  0  0 
   -1.1613    0.6512    1.0912 H   0  0  0  0  0  0  0  0  0  0  0  0 
   -1.2150    1.2033   -0.5946 H   0  0  0  0  0  0  0  0  0  0  0  0 
    2.1272    0.7927    0.0959 H   0  0  0  0  0  0  0  0  0  0  0  0 
    2.2631   -0.9360   -0.2611 H   0  0  0  0  0  0  0  0  0  0  0  0 
    1.3530    1.2059   -2.2845 H   0  0  0  0  0  0  0  0  0  0  0  0 
    1.5442   -0.5370   -2.6181 H   0  0  0  0  0  0  0  0  0  0  0  0 
  1 12  1  0  0  0  0 
  1 13  1  0  0  0  0 
  2 16  1  0  0  0  0 
  2  4  1  0  0  0  0 
  2 15  1  0  0  0  0 
  3  2  1  0  0  0  0 
  4  1  1  0  0  0  0 
  5  7  2  0  0  0  0 
  5  4  1  0  0  0  0 
  6 11  1  0  0  0  0 
  8  5  2  0  0  0  0 
  9  6  2  0  0  0  0 
 10  6  2  0  0  0  0 
 11  3  1  0  0  0  0 
 14  1  1  0  0  0  0 
 17  3  1  0  0  0  0 
 18  3  1  0  0  0  0 
M  END 
>  <HBA> 
1 
 
>  <HBD> 
0 
 
>  <TPSA> 
104.11 
 
>  <cid> 
28279 
 
>  <dipole> 
4.18 
 
>  <excitation_energy_1> 
4.624 
 
>  <excitation_energy_2> 
4.676 
 
>  <excitation_energy_3> 
5.049 
 
>  <excitation_energy_4> 
5.403 
 
>  <homo_energy> 
-7.796 
 
>  <homo_lumo_gap> 
5.769 
 
>  <logP> 
0.365 
 
>  <lumo_energy> 
-2.027 
 
>  <melting_point> 
32.97 
 
>  <molecular_refractivity> 
36.73 
 
>  <oscillator_strength_1> 
0.0001 
 
>  <oscillator_strength_2> 
0.0001 
 
>  <oscillator_strength_3> 
0.0003 
 
>  <oscillator_strength_4> 
0.0006 
 
>  <open_babel_can_smiles> 
O=N(=O)OCCN(N(=O)=O)C 
 
>  <mulliken_charges> 
18 
1   -0.306561 
2   -0.17024 
3   -0.035371 
4   -0.26674 
5   0.646445 
6   0.756767 
7   -0.419774 
8   -0.433684 
9   -0.346985 
10   -0.361304 
11   -0.389364 
12   0.169482 
13   0.203679 
14   0.18521 
15   0.181263 
16   0.216195 
17   0.170831 
18   0.200151 
 
>  <lowdin_charges> 
18 
1   -0.35501 
2   -0.206828 
3   -0.150449 
4   -0.071286 
5   0.33477 
6   0.375112 
7   -0.264874 
8   -0.282082 
9   -0.182347 
10   -0.211394 
11   -0.189491 
12   0.168686 
13   0.180591 
14   0.166584 
15   0.171283 
16   0.186929 
17   0.157139 
18   0.172667 
 
$$$$ 
 
