PCCDB-ID:  7591 
public computational chemistry database (PCCDB) project, http://pccdb.org 
 
 23 23  0  0  0  0  0  0  0  0999 V2000 
    3.4544    1.3982   -3.5204 C   0  0  0  0  0  0  0  0  0  0  0  0 
    4.4835    1.2107   -2.4218 C   0  0  0  0  0  0  0  0  0  0  0  0 
    0.1765   -1.8767    1.5002 C   0  0  0  0  0  0  0  0  0  0  0  0 
    0.6998   -1.9260    0.2069 C   0  0  0  0  0  0  0  0  0  0  0  0 
    0.9477   -1.3280    2.5275 C   0  0  0  0  0  0  0  0  0  0  0  0 
    1.9717   -1.4247   -0.0681 C   0  0  0  0  0  0  0  0  0  0  0  0 
    2.2234   -0.8366    2.2624 C   0  0  0  0  0  0  0  0  0  0  0  0 
    2.7506   -0.8628    0.9599 C   0  0  0  0  0  0  0  0  0  0  0  0 
    4.5178    0.1797   -0.2417 C   0  0  0  0  0  0  0  0  0  0  0  0 
    4.0637   -0.3838    0.8043 N   0  0  0  0  0  0  0  0  0  0  0  0 
    5.8116    0.5808   -0.2845 O   0  0  0  0  0  0  0  0  0  0  0  0 
    3.8418    0.4540   -1.3661 O   0  0  0  0  0  0  0  0  0  0  0  0 
    3.8911    1.9785   -4.3403 H   0  0  0  0  0  0  0  0  0  0  0  0 
    2.5773    1.9336   -3.1442 H   0  0  0  0  0  0  0  0  0  0  0  0 
    3.1259    0.4324   -3.9171 H   0  0  0  0  0  0  0  0  0  0  0  0 
    4.8244    2.1694   -2.0188 H   0  0  0  0  0  0  0  0  0  0  0  0 
    5.3594    0.6585   -2.7762 H   0  0  0  0  0  0  0  0  0  0  0  0 
   -0.8168   -2.2663    1.7061 H   0  0  0  0  0  0  0  0  0  0  0  0 
    0.1137   -2.3595   -0.6000 H   0  0  0  0  0  0  0  0  0  0  0  0 
    0.5578   -1.2895    3.5416 H   0  0  0  0  0  0  0  0  0  0  0  0 
    2.3660   -1.4708   -1.0765 H   0  0  0  0  0  0  0  0  0  0  0  0 
    2.8377   -0.4211    3.0558 H   0  0  0  0  0  0  0  0  0  0  0  0 
    6.1744    0.3373    0.5858 H   0  0  0  0  0  0  0  0  0  0  0  0 
  1 14  1  0  0  0  0 
  1  2  1  0  0  0  0 
  2 16  1  0  0  0  0 
  2 12  1  0  0  0  0 
  3 18  1  0  0  0  0 
  3  5  2  0  0  0  0 
  4  3  1  0  0  0  0 
  5 20  1  0  0  0  0 
  6  4  2  0  0  0  0 
  6  8  1  0  0  0  0 
  7  5  1  0  0  0  0 
  7 22  1  0  0  0  0 
  8  7  2  0  0  0  0 
  9 10  2  0  0  0  0 
 10  8  1  0  0  0  0 
 11  9  1  0  0  0  0 
 11 23  1  0  0  0  0 
 12  9  1  0  0  0  0 
 13  1  1  0  0  0  0 
 15  1  1  0  0  0  0 
 17  2  1  0  0  0  0 
 19  4  1  0  0  0  0 
 21  6  1  0  0  0  0 
M  END 
>  <HBA> 
3 
 
>  <HBD> 
1 
 
>  <TPSA> 
38.33 
 
>  <cid> 
7591 
 
>  <dipole> 
2.74 
 
>  <excitation_energy_1> 
4.903 
 
>  <excitation_energy_2> 
5.06 
 
>  <excitation_energy_3> 
5.133 
 
>  <excitation_energy_4> 
5.546 
 
>  <homo_energy> 
-5.559 
 
>  <homo_lumo_gap> 
5.578 
 
>  <logP> 
2.328 
 
>  <lumo_energy> 
0.019 
 
>  <melting_point> 
59.32 
 
>  <molecular_refractivity> 
47.04 
 
>  <oscillator_strength_1> 
0.0378 
 
>  <oscillator_strength_2> 
0.2286 
 
>  <oscillator_strength_3> 
0.1106 
 
>  <oscillator_strength_4> 
0.0004 
 
>  <open_babel_can_smiles> 
CCO/C(=N\c1ccccc1)/O 
 
>  <mulliken_charges> 
23 
1   -0.461764 
2   -0.028691 
3   -0.130706 
4   -0.143514 
5   -0.135819 
6   -0.148406 
7   -0.155318 
8   0.268178 
9   0.734903 
10   -0.586768 
11   -0.602435 
12   -0.469758 
13   0.154309 
14   0.170082 
15   0.165434 
16   0.161116 
17   0.162184 
18   0.120594 
19   0.121891 
20   0.122956 
21   0.131802 
22   0.124112 
23   0.42562 
 
>  <lowdin_charges> 
23 
1   -0.449991 
2   -0.117771 
3   -0.170758 
4   -0.158273 
5   -0.156363 
6   -0.181613 
7   -0.17134 
8   0.052071 
9   0.205362 
10   -0.245716 
11   -0.364779 
12   -0.186136 
13   0.161691 
14   0.16393 
15   0.160698 
16   0.151898 
17   0.152724 
18   0.153141 
19   0.154902 
20   0.153913 
21   0.159627 
22   0.160406 
23   0.372377 
 
$$$$ 
 
