PCCDB-ID:  10990 
public computational chemistry database (PCCDB) project, http://pccdb.org 
 
 33 32  0  0  0  0  0  0  0  0999 V2000 
    1.5852   -0.4321   -0.5099 C   0  0  0  0  0  0  0  0  0  0  0  0 
    2.3692   -2.7180   -1.2801 C   0  0  0  0  0  0  0  0  0  0  0  0 
    7.1832   -5.4346    0.0834 C   0  0  0  0  0  0  0  0  0  0  0  0 
    9.1243   -4.4642   -1.2059 C   0  0  0  0  0  0  0  0  0  0  0  0 
    3.4070   -1.6590    0.8181 C   0  0  0  0  0  0  0  0  0  0  0  0 
    7.5319   -2.8955   -0.0292 C   0  0  0  0  0  0  0  0  0  0  0  0 
    4.6142   -0.9827    0.1565 C   0  0  0  0  0  0  0  0  0  0  0  0 
    6.7614   -2.5288    1.2440 C   0  0  0  0  0  0  0  0  0  0  0  0 
    2.1477   -1.7936   -0.0721 C   0  0  0  0  0  0  0  0  0  0  0  0 
    8.2016   -4.2863    0.0095 C   0  0  0  0  0  0  0  0  0  0  0  0 
    6.0808   -0.8187    1.2581 S   0  0  0  0  0  0  0  0  0  0  0  0 
    0.6236   -0.5548   -1.0218 H   0  0  0  0  0  0  0  0  0  0  0  0 
    2.2601    0.0823   -1.2049 H   0  0  0  0  0  0  0  0  0  0  0  0 
    1.4242    0.2285    0.3506 H   0  0  0  0  0  0  0  0  0  0  0  0 
    1.4284   -2.8904   -1.8161 H   0  0  0  0  0  0  0  0  0  0  0  0 
    2.7602   -3.6947   -0.9695 H   0  0  0  0  0  0  0  0  0  0  0  0 
    3.0772   -2.2874   -1.9986 H   0  0  0  0  0  0  0  0  0  0  0  0 
    7.6909   -6.4063    0.0987 H   0  0  0  0  0  0  0  0  0  0  0  0 
    6.5185   -5.4224   -0.7907 H   0  0  0  0  0  0  0  0  0  0  0  0 
    6.5565   -5.3788    0.9803 H   0  0  0  0  0  0  0  0  0  0  0  0 
    9.6339   -5.4347   -1.1781 H   0  0  0  0  0  0  0  0  0  0  0  0 
    9.8913   -3.6818   -1.2439 H   0  0  0  0  0  0  0  0  0  0  0  0 
    8.5528   -4.4163   -2.1421 H   0  0  0  0  0  0  0  0  0  0  0  0 
    3.1474   -1.0922    1.7212 H   0  0  0  0  0  0  0  0  0  0  0  0 
    3.6979   -2.6618    1.1589 H   0  0  0  0  0  0  0  0  0  0  0  0 
    8.3019   -2.1319   -0.1962 H   0  0  0  0  0  0  0  0  0  0  0  0 
    6.8592   -2.8491   -0.8977 H   0  0  0  0  0  0  0  0  0  0  0  0 
    4.3776    0.0479   -0.1266 H   0  0  0  0  0  0  0  0  0  0  0  0 
    4.9194   -1.5005   -0.7584 H   0  0  0  0  0  0  0  0  0  0  0  0 
    7.4287   -2.5639    2.1132 H   0  0  0  0  0  0  0  0  0  0  0  0 
    5.9466   -3.2316    1.4439 H   0  0  0  0  0  0  0  0  0  0  0  0 
    1.3864   -2.2701    0.5635 H   0  0  0  0  0  0  0  0  0  0  0  0 
    8.8276   -4.3293    0.9147 H   0  0  0  0  0  0  0  0  0  0  0  0 
  1  9  1  0  0  0  0 
  1 14  1  0  0  0  0 
  2 16  1  0  0  0  0 
  2  9  1  0  0  0  0 
  3 18  1  0  0  0  0 
  3 20  1  0  0  0  0 
  4 21  1  0  0  0  0 
  4 10  1  0  0  0  0 
  5 25  1  0  0  0  0 
  5 24  1  0  0  0  0 
  6 10  1  0  0  0  0 
  6  8  1  0  0  0  0 
  7  5  1  0  0  0  0 
  7 11  1  0  0  0  0 
  8 11  1  0  0  0  0 
  8 31  1  0  0  0  0 
  8 30  1  0  0  0  0 
  9 32  1  0  0  0  0 
  9  5  1  0  0  0  0 
 10  3  1  0  0  0  0 
 10 33  1  0  0  0  0 
 12  1  1  0  0  0  0 
 13  1  1  0  0  0  0 
 15  2  1  0  0  0  0 
 17  2  1  0  0  0  0 
 19  3  1  0  0  0  0 
 22  4  1  0  0  0  0 
 23  4  1  0  0  0  0 
 26  6  1  0  0  0  0 
 27  6  1  0  0  0  0 
 28  7  1  0  0  0  0 
 29  7  1  0  0  0  0 
M  END 
>  <HBA> 
1 
 
>  <HBD> 
0 
 
>  <TPSA> 
25.3 
 
>  <cid> 
10990 
 
>  <dipole> 
1.84 
 
>  <excitation_energy_1> 
5.112 
 
>  <excitation_energy_2> 
5.212 
 
>  <excitation_energy_3> 
5.616 
 
>  <excitation_energy_4> 
5.705 
 
>  <homo_energy> 
-5.755 
 
>  <homo_lumo_gap> 
6.977 
 
>  <logP> 
3.812 
 
>  <lumo_energy> 
1.222 
 
>  <melting_point> 
-20.25 
 
>  <molecular_refractivity> 
57.77 
 
>  <oscillator_strength_1> 
0.0005 
 
>  <oscillator_strength_2> 
0.0101 
 
>  <oscillator_strength_3> 
0.0099 
 
>  <oscillator_strength_4> 
0.0139 
 
>  <open_babel_can_smiles> 
CC(CCSCCC(C)C)C 
 
>  <mulliken_charges> 
33 
1   -0.446133 
2   -0.445478 
3   -0.445291 
4   -0.441586 
5   -0.248033 
6   -0.240625 
7   -0.429949 
8   -0.430859 
9   -0.069164 
10   -0.069957 
11   0.076496 
12   0.14243 
13   0.141808 
14   0.142938 
15   0.143099 
16   0.139099 
17   0.14098 
18   0.143093 
19   0.138404 
20   0.14229 
21   0.140946 
22   0.142917 
23   0.139449 
24   0.145472 
25   0.133162 
26   0.146855 
27   0.131354 
28   0.174902 
29   0.171003 
30   0.170067 
31   0.171511 
32   0.126534 
33   0.122266 
 
>  <lowdin_charges> 
33 
1   -0.449432 
2   -0.448825 
3   -0.447777 
4   -0.443614 
5   -0.28282 
6   -0.28281 
7   -0.379451 
8   -0.380617 
9   -0.122932 
10   -0.121445 
11   0.083953 
12   0.149621 
13   0.147071 
14   0.149689 
15   0.150131 
16   0.146717 
17   0.14613 
18   0.149618 
19   0.145592 
20   0.147451 
21   0.148151 
22   0.149534 
23   0.145813 
24   0.150053 
25   0.14092 
26   0.151485 
27   0.139902 
28   0.165447 
29   0.155176 
30   0.165234 
31   0.155313 
32   0.14137 
33   0.135352 
 
$$$$ 
 
