PCCDB-ID:  42717 
public computational chemistry database (PCCDB) project, http://pccdb.org 
 
 38 39  0  0  1  0  0  0  0  0999 V2000 
    8.1933    0.2700   -0.1962 C   0  0  0  0  0  0  0  0  0  0  0  0 
    7.0109    5.3683   -0.4754 C   0  0  0  0  0  0  0  0  0  0  0  0 
    7.0917    1.3231   -0.3565 C   0  0  0  0  0  0  0  0  0  0  0  0 
    5.8025    0.9486    0.3837 C   0  0  0  0  0  0  0  0  0  0  0  0 
    4.6223    1.9053    0.1670 C   0  0  0  0  0  0  0  0  0  0  0  0 
    3.8600    5.5561    2.1909 C   0  0  0  0  0  0  0  0  0  0  0  0 
    6.3416    5.7336    1.8954 C   0  0  0  0  0  0  0  0  0  0  0  0 
    4.8536    6.4459    0.0772 C   0  0  0  0  0  0  0  0  0  0  0  0 
    5.1352    3.4156    2.0083 C   0  0  0  0  0  0  0  0  0  0  0  0 
    3.6847    4.1085    0.1628 C   0  0  0  0  0  0  0  0  0  0  0  0 
    5.1996    4.8728    2.4975 C   0  0  2  0  0  0  0  0  0  0  0  0 
    3.7237    5.5627    0.6618 C   0  0  1  0  0  0  0  0  0  0  0  0 
    6.2114    6.1068    0.4896 N   0  0  0  0  0  0  0  0  0  0  0  0 
    4.8341    3.2955    0.5795 N   0  0  0  0  0  0  0  0  0  0  0  0 
    9.1046    0.5594   -0.7318 H   0  0  0  0  0  0  0  0  0  0  0  0 
    7.8733   -0.7046   -0.5858 H   0  0  0  0  0  0  0  0  0  0  0  0 
    8.4590    0.1305    0.8593 H   0  0  0  0  0  0  0  0  0  0  0  0 
    8.0463    5.3160   -0.1172 H   0  0  0  0  0  0  0  0  0  0  0  0 
    7.0282    5.9213   -1.4232 H   0  0  0  0  0  0  0  0  0  0  0  0 
    6.6553    4.3456   -0.6699 H   0  0  0  0  0  0  0  0  0  0  0  0 
    6.8668    1.4607   -1.4237 H   0  0  0  0  0  0  0  0  0  0  0  0 
    7.4539    2.2932    0.0028 H   0  0  0  0  0  0  0  0  0  0  0  0 
    6.0122    0.8350    1.4558 H   0  0  0  0  0  0  0  0  0  0  0  0 
    5.4684   -0.0427    0.0449 H   0  0  0  0  0  0  0  0  0  0  0  0 
    3.7324    1.4819    0.6801 H   0  0  0  0  0  0  0  0  0  0  0  0 
    4.3808    1.9212   -0.9046 H   0  0  0  0  0  0  0  0  0  0  0  0 
    3.8445    6.5807    2.5865 H   0  0  0  0  0  0  0  0  0  0  0  0 
    3.0282    5.0113    2.6575 H   0  0  0  0  0  0  0  0  0  0  0  0 
    7.3064    5.2315    2.0310 H   0  0  0  0  0  0  0  0  0  0  0  0 
    6.3806    6.6554    2.5019 H   0  0  0  0  0  0  0  0  0  0  0  0 
    4.6325    7.4805    0.3936 H   0  0  0  0  0  0  0  0  0  0  0  0 
    4.8138    6.4409   -1.0181 H   0  0  0  0  0  0  0  0  0  0  0  0 
    4.3734    2.8855    2.6208 H   0  0  0  0  0  0  0  0  0  0  0  0 
    6.0940    2.9217    2.2043 H   0  0  0  0  0  0  0  0  0  0  0  0 
    3.6401    4.0860   -0.9344 H   0  0  0  0  0  0  0  0  0  0  0  0 
    2.7355    3.6582    0.5254 H   0  0  0  0  0  0  0  0  0  0  0  0 
    5.3661    4.8355    3.5834 H   0  0  0  0  0  0  0  0  0  0  0  0 
    2.7697    6.0235    0.3686 H   0  0  0  0  0  0  0  0  0  0  0  0 
  1 17  1  0  0  0  0 
  2 18  1  0  0  0  0 
  2 13  1  0  0  0  0 
  3  1  1  0  0  0  0 
  3 22  1  0  0  0  0 
  3  4  1  0  0  0  0 
  4 23  1  0  0  0  0 
  5  4  1  0  0  0  0 
  5 14  1  0  0  0  0 
  5 25  1  0  0  0  0 
  6 11  1  0  0  0  0 
  6 27  1  0  0  0  0 
  6 28  1  0  0  0  0 
  7 29  1  0  0  0  0 
  7 11  1  0  0  0  0 
  7 30  1  0  0  0  0 
  8 31  1  0  0  0  0 
  8 13  1  0  0  0  0 
  8 12  1  0  0  0  0 
  9 34  1  0  0  0  0 
  9 11  1  0  0  0  0 
  9 33  1  0  0  0  0 
 10 36  1  0  0  0  0 
 10 14  1  0  0  0  0 
 10 12  1  0  0  0  0 
 11 37  1  1  0  0  0 
 12 38  1  6  0  0  0 
 12  6  1  0  0  0  0 
 13  7  1  0  0  0  0 
 14  9  1  0  0  0  0 
 15  1  1  0  0  0  0 
 16  1  1  0  0  0  0 
 19  2  1  0  0  0  0 
 20  2  1  0  0  0  0 
 21  3  1  0  0  0  0 
 24  4  1  0  0  0  0 
 26  5  1  0  0  0  0 
 32  8  1  0  0  0  0 
 35 10  1  0  0  0  0 
M  END 
>  <HBA> 
2 
 
>  <HBD> 
0 
 
>  <TPSA> 
6.48 
 
>  <cid> 
42717 
 
>  <dipole> 
1.1 
 
>  <excitation_energy_1> 
4.315 
 
>  <excitation_energy_2> 
4.773 
 
>  <excitation_energy_3> 
4.855 
 
>  <excitation_energy_4> 
4.889 
 
>  <homo_energy> 
-4.874 
 
>  <homo_lumo_gap> 
6.751 
 
>  <logP> 
1.546 
 
>  <lumo_energy> 
1.878 
 
>  <melting_point> 
19.88 
 
>  <molecular_refractivity> 
69.19 
 
>  <oscillator_strength_1> 
0.0136 
 
>  <oscillator_strength_2> 
0.0108 
 
>  <oscillator_strength_3> 
0.0006 
 
>  <oscillator_strength_4> 
0.008 
 
>  <open_babel_can_smiles> 
CCCCN1C[C@@H]2CN(C[C@H](C1)C2)C 
 
>  <mulliken_charges> 
38 
1   -0.442971 
2   -0.31195 
3   -0.244132 
4   -0.272621 
5   -0.105623 
6   -0.273691 
7   -0.124268 
8   -0.126295 
9   -0.117609 
10   -0.112348 
11   -0.10831 
12   -0.10682 
13   -0.368028 
14   -0.390752 
15   0.142219 
16   0.13949 
17   0.139227 
18   0.133125 
19   0.133321 
20   0.162525 
21   0.128543 
22   0.151141 
23   0.135152 
24   0.130146 
25   0.103484 
26   0.131316 
27   0.128762 
28   0.12706 
29   0.12886 
30   0.125386 
31   0.12506 
32   0.129747 
33   0.101418 
34   0.137994 
35   0.132686 
36   0.103536 
37   0.117619 
38   0.117601 
 
>  <lowdin_charges> 
38 
1   -0.443357 
2   -0.362036 
3   -0.273108 
4   -0.280705 
5   -0.197306 
6   -0.284539 
7   -0.198492 
8   -0.195869 
9   -0.20384 
10   -0.197934 
11   -0.145276 
12   -0.147449 
13   -0.19127 
14   -0.185771 
15   0.149635 
16   0.144619 
17   0.143863 
18   0.140316 
19   0.140178 
20   0.136007 
21   0.137576 
22   0.147676 
23   0.138708 
24   0.14407 
25   0.114946 
26   0.139279 
27   0.140082 
28   0.14083 
29   0.143994 
30   0.133473 
31   0.131768 
32   0.142341 
33   0.115654 
34   0.143153 
35   0.138836 
36   0.115057 
37   0.141307 
38   0.143583 
 
$$$$ 
 
