PCCDB-ID:  12192 
public computational chemistry database (PCCDB) project, http://pccdb.org 
 
 14 13  0  0  0  0  0  0  0  0999 V2000 
    4.1296   -1.0919   -0.7498 C   0  0  0  0  0  0  0  0  0  0  0  0 
    3.2512   -0.5561    0.3707 C   0  0  0  0  0  0  0  0  0  0  0  0 
    4.0889    2.9426    0.9654 C   0  0  0  0  0  0  0  0  0  0  0  0 
    4.2456    1.4940    1.0528 C   0  0  0  0  0  0  0  0  0  0  0  0 
    5.7693    4.3312    2.0695 N   0  0  0  0  0  0  0  0  0  0  0  0 
    4.9833    3.6925    1.5531 N   0  0  0  0  0  0  0  0  0  0  0  0 
    5.1415    0.9153    1.6387 O   0  0  0  0  0  0  0  0  0  0  0  0 
    3.2327    0.8913    0.3829 O   0  0  0  0  0  0  0  0  0  0  0  0 
    4.0636   -2.1856   -0.7827 H   0  0  0  0  0  0  0  0  0  0  0  0 
    5.1747   -0.8162   -0.5836 H   0  0  0  0  0  0  0  0  0  0  0  0 
    3.8079   -0.6985   -1.7197 H   0  0  0  0  0  0  0  0  0  0  0  0 
    3.5924   -0.9124    1.3457 H   0  0  0  0  0  0  0  0  0  0  0  0 
    2.2042   -0.8355    0.2286 H   0  0  0  0  0  0  0  0  0  0  0  0 
    3.2841    3.4438    0.4470 H   0  0  0  0  0  0  0  0  0  0  0  0 
  1 10  1  0  0  0  0 
  1  2  1  0  0  0  0 
  2  8  1  0  0  0  0 
  2 12  1  0  0  0  0 
  3  4  1  0  0  0  0 
  3  6  1  0  0  0  0 
  4  7  2  0  0  0  0 
  6  5  1  0  0  0  0 
  8  4  1  0  0  0  0 
  9  1  1  0  0  0  0 
 11  1  1  0  0  0  0 
 13  2  1  0  0  0  0 
 14  3  1  0  0  0  0 
M  RAD  3   3   2   5   3   6   2 
M  END 
>  <HBA> 
3 
 
>  <HBD> 
0 
 
>  <TPSA> 
60.44 
 
>  <cid> 
12192 
 
>  <dipole> 
2.55 
 
>  <excitation_energy_1> 
3.1 
 
>  <excitation_energy_2> 
4.77 
 
>  <excitation_energy_3> 
5.289 
 
>  <excitation_energy_4> 
5.477 
 
>  <homo_energy> 
-6.67 
 
>  <homo_lumo_gap> 
4.773 
 
>  <logP> 
1.105 
 
>  <lumo_energy> 
-1.897 
 
>  <melting_point> 
15.54 
 
>  <molecular_refractivity> 
25.61 
 
>  <oscillator_strength_1> 
0.0 
 
>  <oscillator_strength_2> 
0.0031 
 
>  <oscillator_strength_3> 
0.0002 
 
>  <oscillator_strength_4> 
0.0081 
 
>  <open_babel_can_smiles> 
CCOC(=O)[CH][N][N] 
 
>  <mulliken_charges> 
14 
1   -0.462075 
2   -0.041564 
3   -0.174335 
4   0.638307 
5   -0.183144 
6   0.190657 
7   -0.507587 
8   -0.478809 
9   0.150581 
10   0.178345 
11   0.15665 
12   0.17305 
13   0.152894 
14   0.20703 
 
>  <lowdin_charges> 
14 
1   -0.451903 
2   -0.122509 
3   -0.295891 
4   0.194432 
5   -0.022585 
6   0.198533 
7   -0.291938 
8   -0.201606 
9   0.157152 
10   0.165228 
11   0.155626 
12   0.15982 
13   0.151317 
14   0.204324 
 
$$$$ 
 
