PCCDB-ID:  7502 
public computational chemistry database (PCCDB) project, http://pccdb.org 
 
 15 15  0  0  0  0  0  0  0  0999 V2000 
    2.3584    1.2145   -0.5866 C   0  0  0  0  0  0  0  0  0  0  0  0 
    2.3352   -0.0096   -0.0459 C   0  0  0  0  0  0  0  0  0  0  0  0 
    2.8989   -1.7806    1.6038 C   0  0  0  0  0  0  0  0  0  0  0  0 
    3.8507    0.3801    1.9542 C   0  0  0  0  0  0  0  0  0  0  0  0 
    3.5595   -2.2020    2.7569 C   0  0  0  0  0  0  0  0  0  0  0  0 
    4.4670   -0.1396    3.0879 C   0  0  0  0  0  0  0  0  0  0  0  0 
    3.0337   -0.4528    1.1712 C   0  0  0  0  0  0  0  0  0  0  0  0 
    4.3373   -1.4088    3.5027 N   0  0  0  0  0  0  0  0  0  0  0  0 
    1.8016    1.4347   -1.4922 H   0  0  0  0  0  0  0  0  0  0  0  0 
    2.9233    2.0379   -0.1581 H   0  0  0  0  0  0  0  0  0  0  0  0 
    1.7433   -0.7818   -0.5366 H   0  0  0  0  0  0  0  0  0  0  0  0 
    2.2822   -2.4799    1.0448 H   0  0  0  0  0  0  0  0  0  0  0  0 
    4.0086    1.4211    1.6896 H   0  0  0  0  0  0  0  0  0  0  0  0 
    3.4580   -3.2311    3.0984 H   0  0  0  0  0  0  0  0  0  0  0  0 
    5.1022    0.4981    3.7009 H   0  0  0  0  0  0  0  0  0  0  0  0 
  1 10  1  0  0  0  0 
  1  2  2  0  0  0  0 
  2  7  1  0  0  0  0 
  3  5  1  0  0  0  0 
  4  6  2  0  0  0  0 
  5 14  1  0  0  0  0 
  5  8  2  0  0  0  0 
  6  8  1  0  0  0  0 
  6 15  1  0  0  0  0 
  7  3  2  0  0  0  0 
  7  4  1  0  0  0  0 
  9  1  1  0  0  0  0 
 11  2  1  0  0  0  0 
 12  3  1  0  0  0  0 
 13  4  1  0  0  0  0 
M  END 
>  <HBA> 
1 
 
>  <HBD> 
0 
 
>  <TPSA> 
12.89 
 
>  <cid> 
7502 
 
>  <dipole> 
2.46 
 
>  <excitation_energy_1> 
4.362 
 
>  <excitation_energy_2> 
4.849 
 
>  <excitation_energy_3> 
5.016 
 
>  <excitation_energy_4> 
5.192 
 
>  <homo_energy> 
-6.735 
 
>  <homo_lumo_gap> 
5.339 
 
>  <logP> 
1.725 
 
>  <lumo_energy> 
-1.396 
 
>  <melting_point> 
11.96 
 
>  <molecular_refractivity> 
34.33 
 
>  <oscillator_strength_1> 
0.0023 
 
>  <oscillator_strength_2> 
0.0279 
 
>  <oscillator_strength_3> 
0.3591 
 
>  <oscillator_strength_4> 
0.0001 
 
>  <open_babel_can_smiles> 
C=Cc1ccncc1 
 
>  <mulliken_charges> 
15 
1   -0.34067 
2   -0.111545 
3   -0.201971 
4   -0.187681 
5   0.040467 
6   0.036084 
7   0.185582 
8   -0.409136 
9   0.153148 
10   0.149696 
11   0.134732 
12   0.135103 
13   0.133337 
14   0.141336 
15   0.141519 
 
>  <lowdin_charges> 
15 
1   -0.31438 
2   -0.149337 
3   -0.182509 
4   -0.173968 
5   -0.086561 
6   -0.09 
7   0.020828 
8   -0.151367 
9   0.167555 
10   0.16127 
11   0.159466 
12   0.163499 
13   0.161365 
14   0.155642 
15   0.158498 
 
$$$$ 
 
