PCCDB-ID:  43683 
public computational chemistry database (PCCDB) project, http://pccdb.org 
 
 18 17  0  0  0  0  0  0  0  0999 V2000 
    1.0676    0.1687   -0.0692 C   0  0  0  0  0  0  0  0  0  0  0  0 
    2.7719   -0.6133    1.4694 C   0  0  0  0  0  0  0  0  0  0  0  0 
    4.2124   -1.0699   -1.2635 C   0  0  0  0  0  0  0  0  0  0  0  0 
    2.4331   -2.5867   -0.6183 C   0  0  0  0  0  0  0  0  0  0  0  0 
    2.4538   -0.2414    0.0920 N   0  0  0  0  0  0  0  0  0  0  0  0 
    2.8084   -1.2041   -0.9083 N   0  0  0  0  0  0  0  0  0  0  0  0 
    0.8708    1.0229    0.5890 H   0  0  0  0  0  0  0  0  0  0  0  0 
    0.3326   -0.6207    0.1802 H   0  0  0  0  0  0  0  0  0  0  0  0 
    0.9088    0.4740   -1.1060 H   0  0  0  0  0  0  0  0  0  0  0  0 
    2.6333    0.2659    2.1079 H   0  0  0  0  0  0  0  0  0  0  0  0 
    3.8211   -0.9157    1.5428 H   0  0  0  0  0  0  0  0  0  0  0  0 
    2.1441   -1.4277    1.8746 H   0  0  0  0  0  0  0  0  0  0  0  0 
    4.4174   -1.6913   -2.1430 H   0  0  0  0  0  0  0  0  0  0  0  0 
    4.9107   -1.3831   -0.4636 H   0  0  0  0  0  0  0  0  0  0  0  0 
    4.4149   -0.0252   -1.5103 H   0  0  0  0  0  0  0  0  0  0  0  0 
    2.5791   -3.1833   -1.5252 H   0  0  0  0  0  0  0  0  0  0  0  0 
    1.3727   -2.6390   -0.3525 H   0  0  0  0  0  0  0  0  0  0  0  0 
    3.0194   -3.0560    0.1928 H   0  0  0  0  0  0  0  0  0  0  0  0 
  1  5  1  0  0  0  0 
  1  8  1  0  0  0  0 
  1  7  1  0  0  0  0 
  2 11  1  0  0  0  0 
  2 12  1  0  0  0  0 
  2 10  1  0  0  0  0 
  3  6  1  0  0  0  0 
  3 14  1  0  0  0  0 
  4 17  1  0  0  0  0 
  4 18  1  0  0  0  0 
  5  2  1  0  0  0  0 
  6  4  1  0  0  0  0 
  6  5  1  0  0  0  0 
  9  1  1  0  0  0  0 
 13  3  1  0  0  0  0 
 15  3  1  0  0  0  0 
 16  4  1  0  0  0  0 
M  END 
>  <HBA> 
2 
 
>  <HBD> 
0 
 
>  <TPSA> 
6.48 
 
>  <cid> 
43683 
 
>  <dipole> 
0.99 
 
>  <excitation_energy_1> 
5.252 
 
>  <excitation_energy_2> 
5.469 
 
>  <excitation_energy_3> 
5.743 
 
>  <excitation_energy_4> 
5.865 
 
>  <homo_energy> 
-5.663 
 
>  <homo_lumo_gap> 
7.853 
 
>  <logP> 
0.025 
 
>  <lumo_energy> 
2.191 
 
>  <melting_point> 
-19.96 
 
>  <molecular_refractivity> 
27.13 
 
>  <oscillator_strength_1> 
0.0044 
 
>  <oscillator_strength_2> 
0.0098 
 
>  <oscillator_strength_3> 
0.0084 
 
>  <oscillator_strength_4> 
0.0126 
 
>  <open_babel_can_smiles> 
CN(N(C)C)C 
 
>  <mulliken_charges> 
18 
1   -0.276997 
2   -0.304024 
3   -0.276971 
4   -0.304193 
5   -0.266151 
6   -0.266173 
7   0.142712 
8   0.113833 
9   0.162067 
10   0.15256 
11   0.153682 
12   0.122349 
13   0.142718 
14   0.11387 
15   0.162082 
16   0.152599 
17   0.153687 
18   0.122352 
 
>  <lowdin_charges> 
18 
1   -0.358 
2   -0.36973 
3   -0.357889 
4   -0.369602 
5   -0.127859 
6   -0.127872 
7   0.148456 
8   0.119352 
9   0.157459 
10   0.154794 
11   0.150677 
12   0.124898 
13   0.148369 
14   0.119485 
15   0.157375 
16   0.154667 
17   0.150469 
18   0.12495 
 
$$$$ 
 
