PCCDB-ID:  7171 
public computational chemistry database (PCCDB) project, http://pccdb.org 
 
 28 28  0  0  1  0  0  0  0  0999 V2000 
    0.7059   -2.1100    0.8435 C   0  0  0  0  0  0  0  0  0  0  0  0 
    5.1918    0.2761    1.0987 C   0  0  0  0  0  0  0  0  0  0  0  0 
    2.2256   -2.2969    0.8996 C   0  0  0  0  0  0  0  0  0  0  0  0 
    2.9822   -0.9749    1.0769 C   0  0  0  0  0  0  0  0  0  0  0  0 
    4.7835   -1.5809    3.6128 C   0  0  0  0  0  0  0  0  0  0  0  0 
    5.7403   -3.1366    2.0639 C   0  0  0  0  0  0  0  0  0  0  0  0 
    5.2507   -2.3477    4.6796 C   0  0  0  0  0  0  0  0  0  0  0  0 
    6.2166   -3.9153    3.1164 C   0  0  0  0  0  0  0  0  0  0  0  0 
    4.5216   -1.1116    1.1141 C   0  0  2  0  0  0  0  0  0  0  0  0 
    5.0154   -1.9567    2.2823 C   0  0  0  0  0  0  0  0  0  0  0  0 
    5.9717   -3.5205    4.4339 C   0  0  0  0  0  0  0  0  0  0  0  0 
    6.4579   -4.3162    5.4375 O   0  0  0  0  0  0  0  0  0  0  0  0 
    0.1891   -3.0686    0.7202 H   0  0  0  0  0  0  0  0  0  0  0  0 
    0.4139   -1.4639    0.0061 H   0  0  0  0  0  0  0  0  0  0  0  0 
    0.3299   -1.6461    1.7641 H   0  0  0  0  0  0  0  0  0  0  0  0 
    4.8798    0.8494    0.2174 H   0  0  0  0  0  0  0  0  0  0  0  0 
    6.2834    0.1875    1.0814 H   0  0  0  0  0  0  0  0  0  0  0  0 
    4.9196    0.8580    1.9875 H   0  0  0  0  0  0  0  0  0  0  0  0 
    2.5682   -2.7881   -0.0228 H   0  0  0  0  0  0  0  0  0  0  0  0 
    2.4832   -2.9775    1.7208 H   0  0  0  0  0  0  0  0  0  0  0  0 
    2.6403   -0.4805    1.9985 H   0  0  0  0  0  0  0  0  0  0  0  0 
    2.7169   -0.2957    0.2534 H   0  0  0  0  0  0  0  0  0  0  0  0 
    4.2271   -0.6723    3.8307 H   0  0  0  0  0  0  0  0  0  0  0  0 
    5.9383   -3.4559    1.0429 H   0  0  0  0  0  0  0  0  0  0  0  0 
    5.0556   -2.0333    5.7040 H   0  0  0  0  0  0  0  0  0  0  0  0 
    6.7764   -4.8275    2.9345 H   0  0  0  0  0  0  0  0  0  0  0  0 
    4.8230   -1.6310    0.1929 H   0  0  0  0  0  0  0  0  0  0  0  0 
    6.2182   -3.9240    6.2913 H   0  0  0  0  0  0  0  0  0  0  0  0 
  1  3  1  0  0  0  0 
  1 15  1  0  0  0  0 
  2  9  1  0  0  0  0 
  2 18  1  0  0  0  0 
  3  4  1  0  0  0  0 
  3 20  1  0  0  0  0 
  4  9  1  0  0  0  0 
  4 21  1  0  0  0  0 
  5 23  1  0  0  0  0 
  5  7  2  0  0  0  0 
  6 10  2  0  0  0  0 
  6  8  1  0  0  0  0 
  7 25  1  0  0  0  0 
  8 11  2  0  0  0  0 
  9 27  1  6  0  0  0 
  9 10  1  0  0  0  0 
 10  5  1  0  0  0  0 
 11  7  1  0  0  0  0 
 11 12  1  0  0  0  0 
 12 28  1  0  0  0  0 
 13  1  1  0  0  0  0 
 14  1  1  0  0  0  0 
 16  2  1  0  0  0  0 
 17  2  1  0  0  0  0 
 19  3  1  0  0  0  0 
 22  4  1  0  0  0  0 
 24  6  1  0  0  0  0 
 26  8  1  0  0  0  0 
M  END 
>  <HBA> 
1 
 
>  <HBD> 
1 
 
>  <TPSA> 
20.23 
 
>  <cid> 
7171 
 
>  <dipole> 
1.32 
 
>  <excitation_energy_1> 
4.929 
 
>  <excitation_energy_2> 
5.062 
 
>  <excitation_energy_3> 
5.528 
 
>  <excitation_energy_4> 
5.684 
 
>  <homo_energy> 
-5.761 
 
>  <homo_lumo_gap> 
5.796 
 
>  <logP> 
3.296 
 
>  <lumo_energy> 
0.035 
 
>  <melting_point> 
45.47 
 
>  <molecular_refractivity> 
52.66 
 
>  <oscillator_strength_1> 
0.0311 
 
>  <oscillator_strength_2> 
0.0001 
 
>  <oscillator_strength_3> 
0.0039 
 
>  <oscillator_strength_4> 
0.077 
 
>  <open_babel_can_smiles> 
CCC[C@H](c1ccc(cc1)O)C 
 
>  <mulliken_charges> 
28 
1   -0.441927 
2   -0.442311 
3   -0.250897 
4   -0.243709 
5   -0.193424 
6   -0.203026 
7   -0.194404 
8   -0.155742 
9   -0.166138 
10   0.183828 
11   0.347789 
12   -0.645056 
13   0.141814 
14   0.139402 
15   0.140141 
16   0.139391 
17   0.148233 
18   0.140729 
19   0.126598 
20   0.145617 
21   0.125076 
22   0.125171 
23   0.126538 
24   0.124694 
25   0.115515 
26   0.137128 
27   0.123237 
28   0.405733 
 
>  <lowdin_charges> 
28 
1   -0.445065 
2   -0.440537 
3   -0.27634 
4   -0.274629 
5   -0.155295 
6   -0.156782 
7   -0.212471 
8   -0.185355 
9   -0.12111 
10   -0.019953 
11   0.098116 
12   -0.381647 
13   0.149197 
14   0.14557 
15   0.145904 
16   0.147653 
17   0.150347 
18   0.146773 
19   0.137865 
20   0.148065 
21   0.137142 
22   0.139509 
23   0.15513 
24   0.154444 
25   0.150502 
26   0.16616 
27   0.140102 
28   0.356703 
 
$$$$ 
 
