PCCDB-ID:  27753 
public computational chemistry database (PCCDB) project, http://pccdb.org 
 
 22 22  0  0  0  0  0  0  0  0999 V2000 
    0.9846    0.0539    0.2125 C   0  0  0  0  0  0  0  0  0  0  0  0 
    6.7743   -0.1862   -0.7122 C   0  0  0  0  0  0  0  0  0  0  0  0 
    3.2439    1.1546   -0.1391 C   0  0  0  0  0  0  0  0  0  0  0  0 
    4.6203    1.0831   -0.3498 C   0  0  0  0  0  0  0  0  0  0  0  0 
    5.1548   -2.6927   -0.5093 C   0  0  0  0  0  0  0  0  0  0  0  0 
    5.5787   -3.0166   -1.8799 C   0  0  0  0  0  0  0  0  0  0  0  0 
    3.1310   -1.2352   -0.1758 C   0  0  0  0  0  0  0  0  0  0  0  0 
    2.4722   -0.0071   -0.0445 C   0  0  0  0  0  0  0  0  0  0  0  0 
    5.2823   -0.1425   -0.4777 C   0  0  0  0  0  0  0  0  0  0  0  0 
    4.5095   -1.3170   -0.3853 C   0  0  0  0  0  0  0  0  0  0  0  0 
    5.9138   -3.2602   -2.9644 N   0  0  0  0  0  0  0  0  0  0  0  0 
    0.5525    0.9872   -0.1634 H   0  0  0  0  0  0  0  0  0  0  0  0 
    0.7621    0.0019    1.2869 H   0  0  0  0  0  0  0  0  0  0  0  0 
    0.4594   -0.7787   -0.2677 H   0  0  0  0  0  0  0  0  0  0  0  0 
    7.1925    0.8242   -0.7428 H   0  0  0  0  0  0  0  0  0  0  0  0 
    7.0244   -0.6801   -1.6588 H   0  0  0  0  0  0  0  0  0  0  0  0 
    7.2976   -0.7339    0.0832 H   0  0  0  0  0  0  0  0  0  0  0  0 
    2.7656    2.1271   -0.0458 H   0  0  0  0  0  0  0  0  0  0  0  0 
    5.1971    2.0021   -0.4228 H   0  0  0  0  0  0  0  0  0  0  0  0 
    6.0345   -2.7756    0.1422 H   0  0  0  0  0  0  0  0  0  0  0  0 
    4.4510   -3.4666   -0.1826 H   0  0  0  0  0  0  0  0  0  0  0  0 
    2.5516   -2.1549   -0.1154 H   0  0  0  0  0  0  0  0  0  0  0  0 
  1 13  1  0  0  0  0 
  2  9  1  0  0  0  0 
  2 17  1  0  0  0  0 
  3 18  1  0  0  0  0 
  3  8  1  0  0  0  0 
  4  3  2  0  0  0  0 
  5 10  1  0  0  0  0 
  5 21  1  0  0  0  0 
  5 20  1  0  0  0  0 
  6  5  1  0  0  0  0 
  7 22  1  0  0  0  0 
  7  8  2  0  0  0  0 
  8  1  1  0  0  0  0 
  9 10  2  0  0  0  0 
  9  4  1  0  0  0  0 
 10  7  1  0  0  0  0 
 11  6  3  0  0  0  0 
 12  1  1  0  0  0  0 
 14  1  1  0  0  0  0 
 15  2  1  0  0  0  0 
 16  2  1  0  0  0  0 
 19  4  1  0  0  0  0 
M  END 
>  <HBA> 
1 
 
>  <HBD> 
0 
 
>  <TPSA> 
23.79 
 
>  <cid> 
27753 
 
>  <dipole> 
4.0 
 
>  <excitation_energy_1> 
5.114 
 
>  <excitation_energy_2> 
5.721 
 
>  <excitation_energy_3> 
5.817 
 
>  <excitation_energy_4> 
6.193 
 
>  <homo_energy> 
-6.52 
 
>  <homo_lumo_gap> 
6.174 
 
>  <logP> 
2.369 
 
>  <lumo_energy> 
-0.346 
 
>  <melting_point> 
50.07 
 
>  <molecular_refractivity> 
45.9 
 
>  <oscillator_strength_1> 
0.0091 
 
>  <oscillator_strength_2> 
0.0286 
 
>  <oscillator_strength_3> 
0.007 
 
>  <oscillator_strength_4> 
0.0574 
 
>  <open_babel_can_smiles> 
Cc1ccc(cc1CC#N)C 
 
>  <mulliken_charges> 
22 
1   -0.531553 
2   -0.550919 
3   -0.173958 
4   -0.18389 
5   -0.44289 
6   0.371265 
7   -0.234602 
8   0.183831 
9   0.146306 
10   0.121402 
11   -0.473942 
12   0.159849 
13   0.166692 
14   0.160201 
15   0.160934 
16   0.18767 
17   0.157021 
18   0.125561 
19   0.127486 
20   0.201398 
21   0.200215 
22   0.121923 
 
>  <lowdin_charges> 
22 
1   -0.4417 
2   -0.448048 
3   -0.162263 
4   -0.161033 
5   -0.270068 
6   -0.015256 
7   -0.1715 
8   0.001869 
9   -0.003409 
10   -0.012188 
11   -0.130317 
12   0.16006 
13   0.160897 
14   0.16068 
15   0.160672 
16   0.172534 
17   0.15806 
18   0.156641 
19   0.157534 
20   0.18581 
21   0.186977 
22   0.154046 
 
$$$$ 
 
