PCCDB-ID:  47216 
public computational chemistry database (PCCDB) project, http://pccdb.org 
 
 36 36  0  0  0  0  0  0  0  0999 V2000 
    1.7445    0.0379   -1.2380 C   0  0  0  0  0  0  0  0  0  0  0  0 
    3.7800    5.9707    0.1198 C   0  0  0  0  0  0  0  0  0  0  0  0 
    5.1404    6.9738   -1.7011 C   0  0  0  0  0  0  0  0  0  0  0  0 
    8.0806    0.5271   -2.6123 C   0  0  0  0  0  0  0  0  0  0  0  0 
    5.8057   -0.0395   -3.2146 C   0  0  0  0  0  0  0  0  0  0  0  0 
    6.2168    4.3920   -2.2613 C   0  0  0  0  0  0  0  0  0  0  0  0 
    6.6520    3.1169   -2.6081 C   0  0  0  0  0  0  0  0  0  0  0  0 
    4.8904    3.4322   -0.4988 C   0  0  0  0  0  0  0  0  0  0  0  0 
    5.3199    4.5844   -1.1883 C   0  0  0  0  0  0  0  0  0  0  0  0 
    6.2376    1.9656   -1.9250 C   0  0  0  0  0  0  0  0  0  0  0  0 
    5.3487    2.1724   -0.8601 C   0  0  0  0  0  0  0  0  0  0  0  0 
    3.8056    0.4882   -0.2305 C   0  0  0  0  0  0  0  0  0  0  0  0 
    3.0004    0.7657   -1.1724 N   0  0  0  0  0  0  0  0  0  0  0  0 
    4.8941    5.8562   -0.8062 N   0  0  0  0  0  0  0  0  0  0  0  0 
    6.6742    0.6469   -2.2583 N   0  0  0  0  0  0  0  0  0  0  0  0 
    3.6737   -0.4322    0.7578 O   0  0  0  0  0  0  0  0  0  0  0  0 
    4.9901    1.0959   -0.0424 O   0  0  0  0  0  0  0  0  0  0  0  0 
    1.1394    0.4435   -2.0535 H   0  0  0  0  0  0  0  0  0  0  0  0 
    1.1427    0.1287   -0.3171 H   0  0  0  0  0  0  0  0  0  0  0  0 
    1.8833   -1.0366   -1.4473 H   0  0  0  0  0  0  0  0  0  0  0  0 
    3.5776    7.0279    0.3045 H   0  0  0  0  0  0  0  0  0  0  0  0 
    4.0253    5.5114    1.0845 H   0  0  0  0  0  0  0  0  0  0  0  0 
    2.8563    5.5006   -0.2561 H   0  0  0  0  0  0  0  0  0  0  0  0 
    4.7642    7.8892   -1.2392 H   0  0  0  0  0  0  0  0  0  0  0  0 
    4.6551    6.8571   -2.6846 H   0  0  0  0  0  0  0  0  0  0  0  0 
    6.2150    7.1100   -1.8681 H   0  0  0  0  0  0  0  0  0  0  0  0 
    8.3540   -0.5349   -2.6210 H   0  0  0  0  0  0  0  0  0  0  0  0 
    8.6953    1.0340   -1.8629 H   0  0  0  0  0  0  0  0  0  0  0  0 
    8.3341    0.9390   -3.6083 H   0  0  0  0  0  0  0  0  0  0  0  0 
    6.0561   -1.1076   -3.2308 H   0  0  0  0  0  0  0  0  0  0  0  0 
    5.9122    0.3522   -4.2446 H   0  0  0  0  0  0  0  0  0  0  0  0 
    4.7627    0.0758   -2.9122 H   0  0  0  0  0  0  0  0  0  0  0  0 
    6.5790    5.2362   -2.8356 H   0  0  0  0  0  0  0  0  0  0  0  0 
    7.3377    3.0132   -3.4443 H   0  0  0  0  0  0  0  0  0  0  0  0 
    4.2092    3.4942    0.3397 H   0  0  0  0  0  0  0  0  0  0  0  0 
    2.8466   -0.9173    0.6109 H   0  0  0  0  0  0  0  0  0  0  0  0 
  1 13  1  0  0  0  0 
  1 19  1  0  0  0  0 
  2 21  1  0  0  0  0 
  2 22  1  0  0  0  0 
  3 24  1  0  0  0  0 
  3 14  1  0  0  0  0 
  4 15  1  0  0  0  0 
  4 28  1  0  0  0  0 
  5 32  1  0  0  0  0 
  5 15  1  0  0  0  0 
  6  9  1  0  0  0  0 
  7  6  2  0  0  0  0 
  7 10  1  0  0  0  0 
  8 35  1  0  0  0  0 
  9 14  1  0  0  0  0 
  9  8  2  0  0  0  0 
 10 11  2  0  0  0  0 
 11  8  1  0  0  0  0 
 11 17  1  0  0  0  0 
 12 17  1  0  0  0  0 
 12 16  1  0  0  0  0 
 13 12  2  0  0  0  0 
 14  2  1  0  0  0  0 
 15 10  1  0  0  0  0 
 18  1  1  0  0  0  0 
 20  1  1  0  0  0  0 
 23  2  1  0  0  0  0 
 25  3  1  0  0  0  0 
 26  3  1  0  0  0  0 
 27  4  1  0  0  0  0 
 29  4  1  0  0  0  0 
 30  5  1  0  0  0  0 
 31  5  1  0  0  0  0 
 33  6  1  0  0  0  0 
 34  7  1  0  0  0  0 
 36 16  1  0  0  0  0 
M  END 
>  <HBA> 
5 
 
>  <HBD> 
1 
 
>  <TPSA> 
44.81 
 
>  <cid> 
47216 
 
>  <dipole> 
2.47 
 
>  <excitation_energy_1> 
4.23 
 
>  <excitation_energy_2> 
4.312 
 
>  <excitation_energy_3> 
4.449 
 
>  <excitation_energy_4> 
4.798 
 
>  <homo_energy> 
-4.806 
 
>  <homo_lumo_gap> 
5.116 
 
>  <logP> 
1.928 
 
>  <lumo_energy> 
0.31 
 
>  <melting_point> 
87.36 
 
>  <molecular_refractivity> 
69.55 
 
>  <oscillator_strength_1> 
0.042 
 
>  <oscillator_strength_2> 
0.0236 
 
>  <oscillator_strength_3> 
0.013 
 
>  <oscillator_strength_4> 
0.0324 
 
>  <open_babel_can_smiles> 
C/N=C(/Oc1cc(ccc1N(C)C)N(C)C)\O 
 
>  <mulliken_charges> 
36 
1   -0.360247 
2   -0.309259 
3   -0.309158 
4   -0.297379 
5   -0.311214 
6   -0.195409 
7   -0.194383 
8   -0.230762 
9   0.368656 
10   0.234514 
11   0.342352 
12   0.674052 
13   -0.43405 
14   -0.479411 
15   -0.441297 
16   -0.58851 
17   -0.512309 
18   0.173305 
19   0.13663 
20   0.141804 
21   0.152063 
22   0.164059 
23   0.151699 
24   0.152412 
25   0.148617 
26   0.162664 
27   0.147002 
28   0.158354 
29   0.117167 
30   0.138359 
31   0.116276 
32   0.18169 
33   0.120715 
34   0.127175 
35   0.130002 
36   0.423819 
 
>  <lowdin_charges> 
36 
1   -0.366329 
2   -0.348872 
3   -0.348261 
4   -0.351693 
5   -0.353529 
6   -0.21091 
7   -0.163978 
8   -0.211381 
9   0.058413 
10   0.003865 
11   0.108892 
12   0.194963 
13   -0.274375 
14   -0.122267 
15   -0.156986 
16   -0.356952 
17   -0.131456 
18   0.164228 
19   0.134041 
20   0.134908 
21   0.154484 
22   0.153245 
23   0.141544 
24   0.156161 
25   0.138868 
26   0.151466 
27   0.147722 
28   0.157226 
29   0.118103 
30   0.141362 
31   0.11947 
32   0.164512 
33   0.159389 
34   0.159387 
35   0.168197 
36   0.366543 
 
$$$$ 
 
