PCCDB-ID:  8497 
public computational chemistry database (PCCDB) project, http://pccdb.org 
 
 17 17  0  0  0  0  0  0  0  0999 V2000 
   -0.7396    1.1749    0.1559 C   0  0  0  0  0  0  0  0  0  0  0  0 
   -1.3444   -0.0797    0.1221 C   0  0  0  0  0  0  0  0  0  0  0  0 
    0.6474    1.2891    0.0608 C   0  0  0  0  0  0  0  0  0  0  0  0 
    0.8188   -1.1373   -0.1115 C   0  0  0  0  0  0  0  0  0  0  0  0 
   -0.5719   -1.2421   -0.0255 C   0  0  0  0  0  0  0  0  0  0  0  0 
    1.4017    0.1260   -0.0669 C   0  0  0  0  0  0  0  0  0  0  0  0 
   -1.2977   -2.5597   -0.0414 C   0  0  0  0  0  0  0  0  0  0  0  0 
    2.8703    0.2289   -0.1537 N   0  0  0  0  0  0  0  0  0  0  0  0 
   -2.4232   -2.6867    0.3765 O   0  0  0  0  0  0  0  0  0  0  0  0 
   -0.6322   -3.6277   -0.5481 O   0  0  0  0  0  0  0  0  0  0  0  0 
    3.3675    1.3515   -0.1005 O   0  0  0  0  0  0  0  0  0  0  0  0 
    3.5060   -0.8176   -0.2772 O   0  0  0  0  0  0  0  0  0  0  0  0 
   -1.3468    2.0682    0.2628 H   0  0  0  0  0  0  0  0  0  0  0  0 
   -2.4202   -0.1867    0.2097 H   0  0  0  0  0  0  0  0  0  0  0  0 
    1.1479    2.2489    0.0889 H   0  0  0  0  0  0  0  0  0  0  0  0 
    1.4750   -1.9982   -0.1756 H   0  0  0  0  0  0  0  0  0  0  0  0 
    0.1928   -3.3514   -0.9790 H   0  0  0  0  0  0  0  0  0  0  0  0 
  1 13  1  0  0  0  0 
  2  1  1  0  0  0  0 
  2 14  1  0  0  0  0 
  3 15  1  0  0  0  0 
  3  1  2  0  0  0  0 
  4  6  2  0  0  0  0 
  4  5  1  0  0  0  0 
  5  2  2  0  0  0  0 
  6  3  1  0  0  0  0 
  7  5  1  0  0  0  0 
  7  9  2  0  0  0  0 
  8 11  2  0  0  0  0 
  8  6  1  0  0  0  0 
 10  7  1  0  0  0  0 
 12  8  2  0  0  0  0 
 16  4  1  0  0  0  0 
 17 10  1  0  0  0  0 
M  END 
>  <HBA> 
2 
 
>  <HBD> 
1 
 
>  <TPSA> 
83.12 
 
>  <cid> 
8497 
 
>  <dipole> 
2.53 
 
>  <excitation_energy_1> 
3.743 
 
>  <excitation_energy_2> 
4.16 
 
>  <excitation_energy_3> 
4.321 
 
>  <excitation_energy_4> 
4.452 
 
>  <homo_energy> 
-7.875 
 
>  <homo_lumo_gap> 
4.936 
 
>  <logP> 
1.816 
 
>  <lumo_energy> 
-2.939 
 
>  <melting_point> 
134.44 
 
>  <molecular_refractivity> 
42.22 
 
>  <oscillator_strength_1> 
0.0001 
 
>  <oscillator_strength_2> 
0.0034 
 
>  <oscillator_strength_3> 
0.0078 
 
>  <oscillator_strength_4> 
0.0083 
 
>  <open_babel_can_smiles> 
OC(=O)c1cccc(c1)N(=O)=O 
 
>  <mulliken_charges> 
17 
1   -0.142984 
2   -0.129052 
3   -0.139124 
4   -0.221414 
5   0.039776 
6   0.269795 
7   0.567805 
8   0.38735 
9   -0.43845 
10   -0.56786 
11   -0.385212 
12   -0.390756 
13   0.164439 
14   0.186758 
15   0.19441 
16   0.185158 
17   0.419361 
 
>  <lowdin_charges> 
17 
1   -0.1415 
2   -0.102328 
3   -0.122031 
4   -0.149213 
5   -0.048274 
6   0.007286 
7   0.191985 
8   0.309188 
9   -0.228668 
10   -0.343635 
11   -0.234922 
12   -0.243092 
13   0.176153 
14   0.187322 
15   0.193508 
16   0.185857 
17   0.362365 
 
$$$$ 
 
