PCCDB-ID:  12291 
public computational chemistry database (PCCDB) project, http://pccdb.org 
 
 20 20  0  0  0  0  0  0  0  0999 V2000 
    0.8761   -0.0253   -0.1859 C   0  0  0  0  0  0  0  0  0  0  0  0 
    2.9927   -0.3920    2.9354 C   0  0  0  0  0  0  0  0  0  0  0  0 
    2.4720   -1.5668    2.0909 C   0  0  0  0  0  0  0  0  0  0  0  0 
    2.4776    0.9467    2.3817 C   0  0  0  0  0  0  0  0  0  0  0  0 
    2.7905   -1.3377    0.6001 C   0  0  0  0  0  0  0  0  0  0  0  0 
    2.7978    1.0632    0.8784 C   0  0  0  0  0  0  0  0  0  0  0  0 
    2.3098   -0.0582    0.0699 N   0  0  0  0  0  0  0  0  0  0  0  0 
    0.6171   -0.8349   -0.8782 H   0  0  0  0  0  0  0  0  0  0  0  0 
    0.6189    0.9235   -0.6710 H   0  0  0  0  0  0  0  0  0  0  0  0 
    0.2296   -0.1293    0.7053 H   0  0  0  0  0  0  0  0  0  0  0  0 
    4.0932   -0.3913    2.9083 H   0  0  0  0  0  0  0  0  0  0  0  0 
    2.7062   -0.5131    3.9877 H   0  0  0  0  0  0  0  0  0  0  0  0 
    1.3866   -1.6683    2.2288 H   0  0  0  0  0  0  0  0  0  0  0  0 
    2.9200   -2.5124    2.4241 H   0  0  0  0  0  0  0  0  0  0  0  0 
    2.9277    1.7893    2.9230 H   0  0  0  0  0  0  0  0  0  0  0  0 
    1.3920    1.0172    2.5375 H   0  0  0  0  0  0  0  0  0  0  0  0 
    2.3761   -2.1453   -0.0155 H   0  0  0  0  0  0  0  0  0  0  0  0 
    3.8827   -1.3614    0.4653 H   0  0  0  0  0  0  0  0  0  0  0  0 
    3.8903    1.1096    0.7526 H   0  0  0  0  0  0  0  0  0  0  0  0 
    2.3898    1.9928    0.4636 H   0  0  0  0  0  0  0  0  0  0  0  0 
  1  7  1  0  0  0  0 
  1 10  1  0  0  0  0 
  2 12  1  0  0  0  0 
  3 13  1  0  0  0  0 
  3 14  1  0  0  0  0 
  3  2  1  0  0  0  0 
  4 16  1  0  0  0  0 
  4 15  1  0  0  0  0 
  4  2  1  0  0  0  0 
  5  3  1  0  0  0  0 
  6  4  1  0  0  0  0 
  7  5  1  0  0  0  0 
  7  6  1  0  0  0  0 
  8  1  1  0  0  0  0 
  9  1  1  0  0  0  0 
 11  2  1  0  0  0  0 
 17  5  1  0  0  0  0 
 18  5  1  0  0  0  0 
 19  6  1  0  0  0  0 
 20  6  1  0  0  0  0 
M  END 
>  <HBA> 
1 
 
>  <HBD> 
0 
 
>  <TPSA> 
3.24 
 
>  <cid> 
12291 
 
>  <dipole> 
0.78 
 
>  <excitation_energy_1> 
4.831 
 
>  <excitation_energy_2> 
5.284 
 
>  <excitation_energy_3> 
5.378 
 
>  <excitation_energy_4> 
5.432 
 
>  <homo_energy> 
-5.29 
 
>  <homo_lumo_gap> 
7.467 
 
>  <logP> 
1.04 
 
>  <lumo_energy> 
2.177 
 
>  <melting_point> 
-1.35 
 
>  <molecular_refractivity> 
35.65 
 
>  <oscillator_strength_1> 
0.0071 
 
>  <oscillator_strength_2> 
0.004 
 
>  <oscillator_strength_3> 
0.0218 
 
>  <oscillator_strength_4> 
0.0078 
 
>  <open_babel_can_smiles> 
CN1CCCCC1 
 
>  <mulliken_charges> 
20 
1   -0.30047 
2   -0.257193 
3   -0.264828 
4   -0.264698 
5   -0.137892 
6   -0.138152 
7   -0.360018 
8   0.145839 
9   0.145805 
10   0.120732 
11   0.126616 
12   0.131326 
13   0.132707 
14   0.128787 
15   0.128736 
16   0.132731 
17   0.132615 
18   0.132284 
19   0.132377 
20   0.132695 
 
>  <lowdin_charges> 
20 
1   -0.35995 
2   -0.274484 
3   -0.293513 
4   -0.294603 
5   -0.203989 
6   -0.202958 
7   -0.187982 
8   0.149132 
9   0.148399 
10   0.119446 
11   0.134241 
12   0.141616 
13   0.137571 
14   0.14438 
15   0.145215 
16   0.137581 
17   0.144371 
18   0.136001 
19   0.136045 
20   0.143482 
 
$$$$ 
 
