PCCDB-ID:  7518 
public computational chemistry database (PCCDB) project, http://pccdb.org 
 
 15 15  0  0  0  0  0  0  0  0999 V2000 
   -1.4648   -0.0361    0.0138 C   0  0  0  0  0  0  0  0  0  0  0  0 
   -0.7892    1.1863    0.0498 C   0  0  0  0  0  0  0  0  0  0  0  0 
   -0.7267   -1.2184   -0.0542 C   0  0  0  0  0  0  0  0  0  0  0  0 
    0.6024    1.2265    0.0178 C   0  0  0  0  0  0  0  0  0  0  0  0 
    0.6679   -1.1927   -0.0813 C   0  0  0  0  0  0  0  0  0  0  0  0 
    1.3399    0.0342   -0.0436 C   0  0  0  0  0  0  0  0  0  0  0  0 
    2.7541    0.1130    0.0231 N   0  0  0  0  0  0  0  0  0  0  0  0 
    3.3975   -1.0160   -0.5747 O   0  0  0  0  0  0  0  0  0  0  0  0 
   -2.5504   -0.0649    0.0349 H   0  0  0  0  0  0  0  0  0  0  0  0 
   -1.3472    2.1179    0.0963 H   0  0  0  0  0  0  0  0  0  0  0  0 
   -1.2382   -2.1770   -0.0900 H   0  0  0  0  0  0  0  0  0  0  0  0 
    1.1225    2.1819    0.0487 H   0  0  0  0  0  0  0  0  0  0  0  0 
    1.2412   -2.1096   -0.1494 H   0  0  0  0  0  0  0  0  0  0  0  0 
    3.0975    0.9212   -0.4926 H   0  0  0  0  0  0  0  0  0  0  0  0 
    3.9000   -1.3895    0.1675 H   0  0  0  0  0  0  0  0  0  0  0  0 
  1  9  1  0  0  0  0 
  1  2  2  0  0  0  0 
  2 10  1  0  0  0  0 
  3  1  1  0  0  0  0 
  4 12  1  0  0  0  0 
  4  2  1  0  0  0  0 
  5  3  2  0  0  0  0 
  5  6  1  0  0  0  0 
  6  4  2  0  0  0  0 
  6  7  1  0  0  0  0 
  8  7  1  0  0  0  0 
  8 15  1  0  0  0  0 
 11  3  1  0  0  0  0 
 13  5  1  0  0  0  0 
 14  7  1  0  0  0  0 
M  END 
>  <HBA> 
2 
 
>  <HBD> 
2 
 
>  <TPSA> 
32.26 
 
>  <cid> 
7518 
 
>  <dipole> 
0.99 
 
>  <excitation_energy_1> 
4.813 
 
>  <excitation_energy_2> 
5.133 
 
>  <excitation_energy_3> 
5.369 
 
>  <excitation_energy_4> 
5.672 
 
>  <homo_energy> 
-5.649 
 
>  <homo_lumo_gap> 
5.777 
 
>  <logP> 
1.561 
 
>  <lumo_energy> 
0.128 
 
>  <melting_point> 
92.44 
 
>  <molecular_refractivity> 
31.67 
 
>  <oscillator_strength_1> 
0.0202 
 
>  <oscillator_strength_2> 
0.054 
 
>  <oscillator_strength_3> 
0.0571 
 
>  <oscillator_strength_4> 
0.008 
 
>  <open_babel_can_smiles> 
ONc1ccccc1 
 
>  <mulliken_charges> 
15 
1   -0.132185 
2   -0.135545 
3   -0.13796 
4   -0.18048 
5   -0.154742 
6   0.30684 
7   -0.431137 
8   -0.514444 
9   0.123682 
10   0.127631 
11   0.127508 
12   0.119845 
13   0.134414 
14   0.329169 
15   0.417402 
 
>  <lowdin_charges> 
15 
1   -0.176539 
2   -0.148051 
3   -0.146294 
4   -0.193537 
5   -0.188861 
6   0.043224 
7   -0.198191 
8   -0.405774 
9   0.153849 
10   0.157281 
11   0.156744 
12   0.153869 
13   0.164629 
14   0.27185 
15   0.355801 
 
$$$$ 
 
