PCCDB-ID:  35514 
public computational chemistry database (PCCDB) project, http://pccdb.org 
 
 18 18  0  0  0  0  0  0  0  0999 V2000 
    0.9811   -0.1272    0.0325 C   0  0  0  0  0  0  0  0  0  0  0  0 
    2.4915    0.0963   -0.0287 C   0  0  0  0  0  0  0  0  0  0  0  0 
    3.7758    0.8080   -3.8614 C   0  0  0  0  0  0  0  0  0  0  0  0 
    2.9744    1.7069   -1.8978 C   0  0  0  0  0  0  0  0  0  0  0  0 
    3.3401   -0.6523   -2.2336 C   0  0  0  0  0  0  0  0  0  0  0  0 
    3.4247    1.8728   -3.1814 N   0  0  0  0  0  0  0  0  0  0  0  0 
    3.7566   -0.4886   -3.4656 N   0  0  0  0  0  0  0  0  0  0  0  0 
    2.9665    0.3399   -1.4050 N   0  0  0  0  0  0  0  0  0  0  0  0 
    4.2111    0.9794   -5.1136 O   0  0  0  0  0  0  0  0  0  0  0  0 
    2.5921    2.5921   -1.1582 O   0  0  0  0  0  0  0  0  0  0  0  0 
    3.2723   -1.8913   -1.7350 O   0  0  0  0  0  0  0  0  0  0  0  0 
    0.6730   -0.2792    1.0726 H   0  0  0  0  0  0  0  0  0  0  0  0 
    0.6861   -1.0104   -0.5434 H   0  0  0  0  0  0  0  0  0  0  0  0 
    0.4515    0.7469   -0.3572 H   0  0  0  0  0  0  0  0  0  0  0  0 
    3.0385   -0.7624    0.3645 H   0  0  0  0  0  0  0  0  0  0  0  0 
    2.7690    0.9863    0.5367 H   0  0  0  0  0  0  0  0  0  0  0  0 
    4.1749    1.9402   -5.2765 H   0  0  0  0  0  0  0  0  0  0  0  0 
    3.5843   -2.4792   -2.4485 H   0  0  0  0  0  0  0  0  0  0  0  0 
  1 12  1  0  0  0  0 
  2  1  1  0  0  0  0 
  2 15  1  0  0  0  0 
  2 16  1  0  0  0  0 
  3  7  2  0  0  0  0 
  3  6  2  0  0  0  0 
  4  8  1  0  0  0  0 
  4 10  2  0  0  0  0 
  5 11  1  0  0  0  0 
  5  8  1  0  0  0  0 
  6  4  1  0  0  0  0 
  7  5  2  0  0  0  0 
  8  2  1  0  0  0  0 
  9  3  1  0  0  0  0 
 13  1  1  0  0  0  0 
 14  1  1  0  0  0  0 
 17  9  1  0  0  0  0 
 18 11  1  0  0  0  0 
M  END 
>  <HBA> 
4 
 
>  <HBD> 
2 
 
>  <TPSA> 
87.72 
 
>  <cid> 
35514 
 
>  <dipole> 
3.66 
 
>  <excitation_energy_1> 
5.328 
 
>  <excitation_energy_2> 
5.388 
 
>  <excitation_energy_3> 
5.521 
 
>  <excitation_energy_4> 
5.918 
 
>  <homo_energy> 
-7.108 
 
>  <homo_lumo_gap> 
6.251 
 
>  <logP> 
-1.755 
 
>  <lumo_energy> 
-0.857 
 
>  <melting_point> 
205.7 
 
>  <molecular_refractivity> 
38.01 
 
>  <oscillator_strength_1> 
0.0088 
 
>  <oscillator_strength_2> 
0.0442 
 
>  <oscillator_strength_3> 
0.0029 
 
>  <oscillator_strength_4> 
0.0009 
 
>  <open_babel_can_smiles> 
CCN1C(=O)N=[C](=[N]=C1O)O 
 
>  <mulliken_charges> 
18 
1   -0.452407 
2   -0.148493 
3   0.638051 
4   0.715301 
5   0.753632 
6   -0.53555 
7   -0.53185 
8   -0.501401 
9   -0.57323 
10   -0.501685 
11   -0.595563 
12   0.158402 
13   0.157743 
14   0.181013 
15   0.174336 
16   0.197711 
17   0.426384 
18   0.437604 
 
>  <lowdin_charges> 
18 
1   -0.448627 
2   -0.193063 
3   0.179899 
4   0.184521 
5   0.194571 
6   -0.253521 
7   -0.247641 
8   -0.070189 
9   -0.319152 
10   -0.279674 
11   -0.32852 
12   0.160516 
13   0.155602 
14   0.168316 
15   0.16492 
16   0.180268 
17   0.369855 
18   0.38192 
 
$$$$ 
 
