PCCDB-ID:  50543 
public computational chemistry database (PCCDB) project, http://pccdb.org 
 
 19 18  0  0  0  0  0  0  0  0999 V2000 
    1.4835   -1.5568   -0.2019 C   0  0  0  0  0  0  0  0  0  0  0  0 
    1.2187    0.8522    1.9230 C   0  0  0  0  0  0  0  0  0  0  0  0 
    5.2258    1.6476    2.9712 C   0  0  0  0  0  0  0  0  0  0  0  0 
    2.1922   -0.1906   -0.2414 C   0  0  0  0  0  0  0  0  0  0  0  0 
    3.6695    0.5672    1.5831 C   0  0  0  0  0  0  0  0  0  0  0  0 
    2.4211    0.4262    1.1199 C   0  0  0  0  0  0  0  0  0  0  0  0 
    3.9508    1.0403    2.8387 O   0  0  0  0  0  0  0  0  0  0  0  0 
    1.3539   -1.9581   -1.2138 H   0  0  0  0  0  0  0  0  0  0  0  0 
    0.4900   -1.4839    0.2547 H   0  0  0  0  0  0  0  0  0  0  0  0 
    2.0660   -2.2803    0.3798 H   0  0  0  0  0  0  0  0  0  0  0  0 
    0.5396    1.4638    1.3127 H   0  0  0  0  0  0  0  0  0  0  0  0 
    1.5158    1.4315    2.8004 H   0  0  0  0  0  0  0  0  0  0  0  0 
    0.6356   -0.0101    2.2743 H   0  0  0  0  0  0  0  0  0  0  0  0 
    5.3588    1.8733    4.0316 H   0  0  0  0  0  0  0  0  0  0  0  0 
    5.2931    2.5786    2.3912 H   0  0  0  0  0  0  0  0  0  0  0  0 
    6.0285    0.9693    2.6458 H   0  0  0  0  0  0  0  0  0  0  0  0 
    1.5899    0.4988   -0.8532 H   0  0  0  0  0  0  0  0  0  0  0  0 
    3.1530   -0.3030   -0.7606 H   0  0  0  0  0  0  0  0  0  0  0  0 
    4.5409    0.2714    0.9953 H   0  0  0  0  0  0  0  0  0  0  0  0 
  1  9  1  0  0  0  0 
  1 10  1  0  0  0  0 
  2 13  1  0  0  0  0 
  2 12  1  0  0  0  0 
  3 14  1  0  0  0  0 
  4  1  1  0  0  0  0 
  4  6  1  0  0  0  0 
  5  7  1  0  0  0  0 
  6  5  2  0  0  0  0 
  6  2  1  0  0  0  0 
  7  3  1  0  0  0  0 
  8  1  1  0  0  0  0 
 11  2  1  0  0  0  0 
 15  3  1  0  0  0  0 
 16  3  1  0  0  0  0 
 17  4  1  0  0  0  0 
 18  4  1  0  0  0  0 
 19  5  1  0  0  0  0 
M  END 
>  <HBA> 
1 
 
>  <HBD> 
0 
 
>  <TPSA> 
9.23 
 
>  <cid> 
50543 
 
>  <dipole> 
1.26 
 
>  <excitation_energy_1> 
5.152 
 
>  <excitation_energy_2> 
5.581 
 
>  <excitation_energy_3> 
5.733 
 
>  <excitation_energy_4> 
5.803 
 
>  <homo_energy> 
-5.527 
 
>  <homo_lumo_gap> 
6.716 
 
>  <logP> 
1.947 
 
>  <lumo_energy> 
1.189 
 
>  <melting_point> 
-22.3 
 
>  <molecular_refractivity> 
31.57 
 
>  <oscillator_strength_1> 
0.0306 
 
>  <oscillator_strength_2> 
0.0102 
 
>  <oscillator_strength_3> 
0.0339 
 
>  <oscillator_strength_4> 
0.1311 
 
>  <open_babel_can_smiles> 
CO/C=C(/CC)\C 
 
>  <mulliken_charges> 
19 
1   -0.43707 
2   -0.516301 
3   -0.203306 
4   -0.322457 
5   0.055271 
6   0.149214 
7   -0.452768 
8   0.140019 
9   0.145974 
10   0.146548 
11   0.142239 
12   0.170012 
13   0.153573 
14   0.163533 
15   0.145868 
16   0.140218 
17   0.134 
18   0.132978 
19   0.112455 
 
>  <lowdin_charges> 
19 
1   -0.44537 
2   -0.444779 
3   -0.274739 
4   -0.26531 
5   -0.085612 
6   -0.048796 
7   -0.216641 
8   0.147572 
9   0.147572 
10   0.150507 
11   0.151399 
12   0.165959 
13   0.155352 
14   0.156778 
15   0.140435 
16   0.139519 
17   0.143413 
18   0.143134 
19   0.139607 
 
$$$$ 
 
