PCCDB-ID:  29862 
public computational chemistry database (PCCDB) project, http://pccdb.org 
 
 23 22  0  0  0  0  0  0  0  0999 V2000 
    1.5381   -0.9781   -3.2842 C   0  0  0  0  0  0  0  0  0  0  0  0 
    7.4390    2.2323   -0.7057 C   0  0  0  0  0  0  0  0  0  0  0  0 
    3.0314   -0.7004   -3.0879 C   0  0  0  0  0  0  0  0  0  0  0  0 
    7.3179    0.9339    0.0748 C   0  0  0  0  0  0  0  0  0  0  0  0 
    3.5985   -1.4796   -1.8951 C   0  0  0  0  0  0  0  0  0  0  0  0 
    5.4609   -0.1945   -0.8541 C   0  0  0  0  0  0  0  0  0  0  0  0 
    5.9920   -1.9904   -2.3406 N   0  0  0  0  0  0  0  0  0  0  0  0 
    5.0346   -1.2444   -1.6923 N   0  0  0  0  0  0  0  0  0  0  0  0 
    4.6663    0.5388   -0.3022 O   0  0  0  0  0  0  0  0  0  0  0  0 
    5.5317   -2.8388   -3.0796 O   0  0  0  0  0  0  0  0  0  0  0  0 
    6.7912   -0.1345   -0.7570 O   0  0  0  0  0  0  0  0  0  0  0  0 
    1.1452   -0.4142   -4.1367 H   0  0  0  0  0  0  0  0  0  0  0  0 
    0.9593   -0.6898   -2.3984 H   0  0  0  0  0  0  0  0  0  0  0  0 
    1.3522   -2.0420   -3.4745 H   0  0  0  0  0  0  0  0  0  0  0  0 
    7.9164    2.9948   -0.0796 H   0  0  0  0  0  0  0  0  0  0  0  0 
    6.4523    2.6006   -1.0005 H   0  0  0  0  0  0  0  0  0  0  0  0 
    8.0503    2.0911   -1.6027 H   0  0  0  0  0  0  0  0  0  0  0  0 
    3.1958    0.3705   -2.9185 H   0  0  0  0  0  0  0  0  0  0  0  0 
    3.5876   -0.9771   -3.9908 H   0  0  0  0  0  0  0  0  0  0  0  0 
    6.6731    1.0480    0.9489 H   0  0  0  0  0  0  0  0  0  0  0  0 
    8.2942    0.5579    0.3876 H   0  0  0  0  0  0  0  0  0  0  0  0 
    3.4843   -2.5553   -2.0492 H   0  0  0  0  0  0  0  0  0  0  0  0 
    3.0989   -1.1912   -0.9691 H   0  0  0  0  0  0  0  0  0  0  0  0 
  1  3  1  0  0  0  0 
  1 13  1  0  0  0  0 
  2 15  1  0  0  0  0 
  2  4  1  0  0  0  0 
  3 18  1  0  0  0  0 
  3  5  1  0  0  0  0 
  4 21  1  0  0  0  0 
  4 20  1  0  0  0  0 
  5  8  1  0  0  0  0 
  5 23  1  0  0  0  0 
  6 11  1  0  0  0  0 
  6  9  2  0  0  0  0 
  7  8  1  0  0  0  0 
  8  6  1  0  0  0  0 
 10  7  1  0  0  0  0 
 11  4  1  0  0  0  0 
 12  1  1  0  0  0  0 
 14  1  1  0  0  0  0 
 16  2  1  0  0  0  0 
 17  2  1  0  0  0  0 
 19  3  1  0  0  0  0 
 22  5  1  0  0  0  0 
M  RAD  2   7   2  10   2 
M  END 
>  <HBA> 
5 
 
>  <HBD> 
0 
 
>  <TPSA> 
58.97 
 
>  <cid> 
29862 
 
>  <dipole> 
1.97 
 
>  <excitation_energy_1> 
2.968 
 
>  <excitation_energy_2> 
5.147 
 
>  <excitation_energy_3> 
5.445 
 
>  <excitation_energy_4> 
5.884 
 
>  <homo_energy> 
-6.645 
 
>  <homo_lumo_gap> 
4.797 
 
>  <logP> 
1.536 
 
>  <lumo_energy> 
-1.848 
 
>  <melting_point> 
17.9 
 
>  <molecular_refractivity> 
40.26 
 
>  <oscillator_strength_1> 
0.001 
 
>  <oscillator_strength_2> 
0.0102 
 
>  <oscillator_strength_3> 
0.1487 
 
>  <oscillator_strength_4> 
0.0521 
 
>  <open_babel_can_smiles> 
CCCN(C(=O)OCC)[N][O] 
 
>  <mulliken_charges> 
23 
1   -0.449564 
2   -0.465065 
3   -0.259433 
4   -0.045782 
5   -0.143989 
6   0.831539 
7   0.200276 
8   -0.359514 
9   -0.496446 
10   -0.327207 
11   -0.452146 
12   0.153256 
13   0.149993 
14   0.150706 
15   0.155614 
16   0.176741 
17   0.165857 
18   0.154889 
19   0.157674 
20   0.175685 
21   0.164329 
22   0.17886 
23   0.183725 
 
>  <lowdin_charges> 
23 
1   -0.443244 
2   -0.45636 
3   -0.276826 
4   -0.1215 
5   -0.210149 
6   0.219471 
7   0.088362 
8   -0.045972 
9   -0.282404 
10   -0.211931 
11   -0.17091 
12   0.157449 
13   0.151278 
14   0.14972 
15   0.163269 
16   0.165566 
17   0.160901 
18   0.150129 
19   0.153385 
20   0.161884 
21   0.15858 
22   0.16587 
23   0.173431 
 
$$$$ 
 
