PCCDB-ID:  58270 
public computational chemistry database (PCCDB) project, http://pccdb.org 
 
 41 41  0  0  1  0  0  0  0  0999 V2000 
    2.4708   -1.3765   -0.5569 C   0  0  0  0  0  0  0  0  0  0  0  0 
    3.6202    0.6193   -1.5493 C   0  0  0  0  0  0  0  0  0  0  0  0 
    1.2266    0.7637   -0.8148 C   0  0  0  0  0  0  0  0  0  0  0  0 
    5.4092    2.6714    7.2606 C   0  0  0  0  0  0  0  0  0  0  0  0 
    7.3874    3.9360    6.4857 C   0  0  0  0  0  0  0  0  0  0  0  0 
    3.1234    2.1110    1.1866 C   0  0  0  0  0  0  0  0  0  0  0  0 
    4.3461   -0.0641    1.4664 C   0  0  0  0  0  0  0  0  0  0  0  0 
    3.4331    2.4746    2.6473 C   0  0  0  0  0  0  0  0  0  0  0  0 
    4.6602    0.2998    2.9264 C   0  0  0  0  0  0  0  0  0  0  0  0 
    6.0096    2.6912    4.9005 C   0  0  0  0  0  0  0  0  0  0  0  0 
    3.0339    0.5838    0.9707 C   0  0  2  0  0  0  0  0  0  0  0  0 
    4.7300    1.8197    3.1490 C   0  0  2  0  0  0  0  0  0  0  0  0 
    2.6085    0.1601   -0.4787 C   0  0  0  0  0  0  0  0  0  0  0  0 
    4.9230    2.1133    4.5602 N   0  0  0  0  0  0  0  0  0  0  0  0 
    6.3667    2.9459    6.2037 N   0  0  0  0  0  0  0  0  0  0  0  0 
    2.0477   -1.6726   -1.5246 H   0  0  0  0  0  0  0  0  0  0  0  0 
    1.8036   -1.7566    0.2272 H   0  0  0  0  0  0  0  0  0  0  0  0 
    3.4343   -1.8861   -0.4548 H   0  0  0  0  0  0  0  0  0  0  0  0 
    3.2937    0.2908   -2.5439 H   0  0  0  0  0  0  0  0  0  0  0  0 
    4.6172    0.1982   -1.3784 H   0  0  0  0  0  0  0  0  0  0  0  0 
    3.7151    1.7104   -1.5817 H   0  0  0  0  0  0  0  0  0  0  0  0 
    0.8679    0.3842   -1.7794 H   0  0  0  0  0  0  0  0  0  0  0  0 
    1.2552    1.8558   -0.8866 H   0  0  0  0  0  0  0  0  0  0  0  0 
    0.4811    0.4955   -0.0552 H   0  0  0  0  0  0  0  0  0  0  0  0 
    5.9455    2.5068    8.2016 H   0  0  0  0  0  0  0  0  0  0  0  0 
    4.8410    1.7786    6.9969 H   0  0  0  0  0  0  0  0  0  0  0  0 
    4.6985    3.5010    7.4018 H   0  0  0  0  0  0  0  0  0  0  0  0 
    7.9624    3.6421    7.3720 H   0  0  0  0  0  0  0  0  0  0  0  0 
    6.9663    4.9381    6.6706 H   0  0  0  0  0  0  0  0  0  0  0  0 
    8.0774    4.0066    5.6395 H   0  0  0  0  0  0  0  0  0  0  0  0 
    3.9089    2.5278    0.5397 H   0  0  0  0  0  0  0  0  0  0  0  0 
    2.1884    2.5992    0.8916 H   0  0  0  0  0  0  0  0  0  0  0  0 
    4.2969   -1.1550    1.3790 H   0  0  0  0  0  0  0  0  0  0  0  0 
    5.1804    0.2613    0.8281 H   0  0  0  0  0  0  0  0  0  0  0  0 
    2.6111    2.1482    3.2992 H   0  0  0  0  0  0  0  0  0  0  0  0 
    3.5071    3.5640    2.7602 H   0  0  0  0  0  0  0  0  0  0  0  0 
    5.6089   -0.1578    3.2353 H   0  0  0  0  0  0  0  0  0  0  0  0 
    3.8856   -0.1076    3.5909 H   0  0  0  0  0  0  0  0  0  0  0  0 
    6.7770    3.0092    4.1772 H   0  0  0  0  0  0  0  0  0  0  0  0 
    2.2308    0.2169    1.6321 H   0  0  0  0  0  0  0  0  0  0  0  0 
    5.5696    2.2130    2.5396 H   0  0  0  0  0  0  0  0  0  0  0  0 
  1 13  1  0  0  0  0 
  1 18  1  0  0  0  0 
  1 17  1  0  0  0  0 
  2 20  1  0  0  0  0 
  2 13  1  0  0  0  0 
  3 13  1  0  0  0  0 
  3 24  1  0  0  0  0 
  4 27  1  0  0  0  0 
  4 25  1  0  0  0  0 
  5 29  1  0  0  0  0 
  5 28  1  0  0  0  0 
  6  8  1  0  0  0  0 
  7  9  1  0  0  0  0 
  8 36  1  0  0  0  0 
  8 12  1  0  0  0  0 
  8 35  1  0  0  0  0 
  9 12  1  0  0  0  0 
  9 37  1  0  0  0  0 
  9 38  1  0  0  0  0 
 10 15  1  0  0  0  0 
 11  6  1  0  0  0  0 
 11  7  1  0  0  0  0 
 11 40  1  1  0  0  0 
 12 41  1  6  0  0  0 
 12 14  1  0  0  0  0 
 13 11  1  0  0  0  0 
 14 10  2  0  0  0  0 
 15  5  1  0  0  0  0 
 15  4  1  0  0  0  0 
 16  1  1  0  0  0  0 
 19  2  1  0  0  0  0 
 21  2  1  0  0  0  0 
 22  3  1  0  0  0  0 
 23  3  1  0  0  0  0 
 26  4  1  0  0  0  0 
 30  5  1  0  0  0  0 
 31  6  1  0  0  0  0 
 32  6  1  0  0  0  0 
 33  7  1  0  0  0  0 
 34  7  1  0  0  0  0 
 39 10  1  0  0  0  0 
M  END 
>  <HBA> 
2 
 
>  <HBD> 
0 
 
>  <TPSA> 
15.6 
 
>  <cid> 
58270 
 
>  <dipole> 
2.17 
 
>  <excitation_energy_1> 
5.044 
 
>  <excitation_energy_2> 
5.418 
 
>  <excitation_energy_3> 
5.525 
 
>  <excitation_energy_4> 
5.606 
 
>  <homo_energy> 
-5.532 
 
>  <homo_lumo_gap> 
6.651 
 
>  <logP> 
3.181 
 
>  <lumo_energy> 
1.118 
 
>  <melting_point> 
30.55 
 
>  <molecular_refractivity> 
68.81 
 
>  <oscillator_strength_1> 
0.0285 
 
>  <oscillator_strength_2> 
0.0207 
 
>  <oscillator_strength_3> 
0.0323 
 
>  <oscillator_strength_4> 
0.1308 
 
>  <open_babel_can_smiles> 
CN(/C=N/[C@@H]1CC[C@H](CC1)C(C)(C)C)C 
 
>  <mulliken_charges> 
41 
1   -0.45065 
2   -0.454099 
3   -0.45048 
4   -0.304115 
5   -0.307937 
6   -0.28247 
7   -0.28212 
8   -0.253988 
9   -0.25432 
10   0.252276 
11   -0.062782 
12   0.032908 
13   0.105526 
14   -0.436439 
15   -0.375402 
16   0.134536 
17   0.136162 
18   0.142711 
19   0.135332 
20   0.141054 
21   0.14126 
22   0.134574 
23   0.142505 
24   0.136162 
25   0.143123 
26   0.191683 
27   0.145933 
28   0.156684 
29   0.1479 
30   0.159402 
31   0.125645 
32   0.132103 
33   0.132571 
34   0.125424 
35   0.134849 
36   0.123502 
37   0.124552 
38   0.134452 
39   0.106303 
40   0.108335 
41   0.087334 
 
>  <lowdin_charges> 
41 
1   -0.445599 
2   -0.44335 
3   -0.443137 
4   -0.353552 
5   -0.347693 
6   -0.285142 
7   -0.282256 
8   -0.278952 
9   -0.281774 
10   -0.045265 
11   -0.129428 
12   -0.06076 
13   0.014621 
14   -0.239923 
15   -0.109469 
16   0.145493 
17   0.146699 
18   0.14707 
19   0.146251 
20   0.14619 
21   0.144965 
22   0.145483 
23   0.144948 
24   0.146461 
25   0.148397 
26   0.177223 
27   0.142834 
28   0.151972 
29   0.138686 
30   0.158137 
31   0.137602 
32   0.145016 
33   0.142993 
34   0.137093 
35   0.144269 
36   0.139197 
37   0.141735 
38   0.144219 
39   0.12428 
40   0.133335 
41   0.111131 
 
$$$$ 
 
