PCCDB-ID:  11977 
public computational chemistry database (PCCDB) project, http://pccdb.org 
 
 20 19  0  0  0  0  0  0  0  0999 V2000 
    5.2654   -0.1835    1.3507 C   0  0  0  0  0  0  0  0  0  0  0  0 
    0.1988    0.6340    4.0166 C   0  0  0  0  0  0  0  0  0  0  0  0 
    4.5106    0.9617    0.6737 C   0  0  0  0  0  0  0  0  0  0  0  0 
    0.2256    1.6145    2.8558 C   0  0  0  0  0  0  0  0  0  0  0  0 
    2.3432    1.3354    1.8446 C   0  0  0  0  0  0  0  0  0  0  0  0 
    2.3497    0.0809   -0.1912 N   0  0  0  0  0  0  0  0  0  0  0  0 
    3.0513    0.7968    0.7514 N   0  0  0  0  0  0  0  0  0  0  0  0 
    2.9115    1.9331    2.7354 O   0  0  0  0  0  0  0  0  0  0  0  0 
    3.0492   -0.3874   -1.0682 O   0  0  0  0  0  0  0  0  0  0  0  0 
    1.0303    1.1096    1.7565 O   0  0  0  0  0  0  0  0  0  0  0  0 
    6.3446   -0.0207    1.2567 H   0  0  0  0  0  0  0  0  0  0  0  0 
    5.0215   -1.1417    0.8829 H   0  0  0  0  0  0  0  0  0  0  0  0 
    5.0181   -0.2330    2.4155 H   0  0  0  0  0  0  0  0  0  0  0  0 
   -0.4834    1.0007    4.7920 H   0  0  0  0  0  0  0  0  0  0  0  0 
    1.1939    0.5293    4.4583 H   0  0  0  0  0  0  0  0  0  0  0  0 
   -0.1511   -0.3495    3.6871 H   0  0  0  0  0  0  0  0  0  0  0  0 
    4.7527    1.0120   -0.3897 H   0  0  0  0  0  0  0  0  0  0  0  0 
    4.7411    1.9177    1.1441 H   0  0  0  0  0  0  0  0  0  0  0  0 
    0.6178    2.5875    3.1597 H   0  0  0  0  0  0  0  0  0  0  0  0 
   -0.7638    1.7422    2.4117 H   0  0  0  0  0  0  0  0  0  0  0  0 
  1 13  1  0  0  0  0 
  2 15  1  0  0  0  0 
  2 14  1  0  0  0  0 
  3  7  1  0  0  0  0 
  3 18  1  0  0  0  0 
  3  1  1  0  0  0  0 
  4 19  1  0  0  0  0 
  4  2  1  0  0  0  0 
  5  8  2  0  0  0  0 
  6  7  1  0  0  0  0 
  7  5  1  0  0  0  0 
  9  6  1  0  0  0  0 
 10  5  1  0  0  0  0 
 10  4  1  0  0  0  0 
 11  1  1  0  0  0  0 
 12  1  1  0  0  0  0 
 16  2  1  0  0  0  0 
 17  3  1  0  0  0  0 
 20  4  1  0  0  0  0 
M  RAD  2   6   2   9   2 
M  END 
>  <HBA> 
5 
 
>  <HBD> 
0 
 
>  <TPSA> 
58.97 
 
>  <cid> 
11977 
 
>  <dipole> 
1.98 
 
>  <excitation_energy_1> 
2.966 
 
>  <excitation_energy_2> 
5.145 
 
>  <excitation_energy_3> 
5.512 
 
>  <excitation_energy_4> 
5.89 
 
>  <homo_energy> 
-6.661 
 
>  <homo_lumo_gap> 
4.797 
 
>  <logP> 
1.146 
 
>  <lumo_energy> 
-1.864 
 
>  <melting_point> 
18.56 
 
>  <molecular_refractivity> 
35.46 
 
>  <oscillator_strength_1> 
0.0011 
 
>  <oscillator_strength_2> 
0.0078 
 
>  <oscillator_strength_3> 
0.1597 
 
>  <oscillator_strength_4> 
0.0646 
 
>  <open_babel_can_smiles> 
CCOC(=O)N([N][O])CC 
 
>  <mulliken_charges> 
20 
1   -0.450287 
2   -0.465348 
3   -0.150297 
4   -0.045761 
5   0.832057 
6   0.200301 
7   -0.351148 
8   -0.496077 
9   -0.326505 
10   -0.451768 
11   0.157348 
12   0.170024 
13   0.167246 
14   0.155776 
15   0.176962 
16   0.165842 
17   0.183362 
18   0.188066 
19   0.175669 
20   0.16454 
 
>  <lowdin_charges> 
20 
1   -0.444472 
2   -0.45542 
3   -0.20573 
4   -0.120461 
5   0.218271 
6   0.089801 
7   -0.047736 
8   -0.282096 
9   -0.212353 
10   -0.170847 
11   0.159046 
12   0.161557 
13   0.158909 
14   0.16319 
15   0.165444 
16   0.160292 
17   0.16813 
18   0.174912 
19   0.16112 
20   0.158443 
 
$$$$ 
 
