PCCDB-ID:  68109 
public computational chemistry database (PCCDB) project, http://pccdb.org 
 
 24 25  0  0  0  0  0  0  0  0999 V2000 
    1.0436   -0.1179    0.1485 C   0  0  0  0  0  0  0  0  0  0  0  0 
    4.6471   -3.6173   -0.7402 C   0  0  0  0  0  0  0  0  0  0  0  0 
    3.2741   -3.6647   -0.5084 C   0  0  0  0  0  0  0  0  0  0  0  0 
    4.3442    1.3129   -0.9914 C   0  0  0  0  0  0  0  0  0  0  0  0 
    5.2675   -2.3700   -0.8107 C   0  0  0  0  0  0  0  0  0  0  0  0 
    5.2958    0.1491   -0.7055 C   0  0  0  0  0  0  0  0  0  0  0  0 
    2.5395   -2.4909   -0.3547 C   0  0  0  0  0  0  0  0  0  0  0  0 
    3.1154    1.2060   -0.0907 C   0  0  0  0  0  0  0  0  0  0  0  0 
    4.5607   -1.1769   -0.6563 C   0  0  0  0  0  0  0  0  0  0  0  0 
    3.1585   -1.2258   -0.4373 C   0  0  0  0  0  0  0  0  0  0  0  0 
    2.4091   -0.0470   -0.3361 N   0  0  0  0  0  0  0  0  0  0  0  0 
    0.6168    0.8886    0.1454 H   0  0  0  0  0  0  0  0  0  0  0  0 
    0.9651   -0.5221    1.1722 H   0  0  0  0  0  0  0  0  0  0  0  0 
    0.4252   -0.7387   -0.5094 H   0  0  0  0  0  0  0  0  0  0  0  0 
    5.2245   -4.5291   -0.8621 H   0  0  0  0  0  0  0  0  0  0  0  0 
    2.7613   -4.6210   -0.4402 H   0  0  0  0  0  0  0  0  0  0  0  0 
    4.0161    1.2864   -2.0378 H   0  0  0  0  0  0  0  0  0  0  0  0 
    4.8439    2.2743   -0.8248 H   0  0  0  0  0  0  0  0  0  0  0  0 
    6.3403   -2.3122   -0.9874 H   0  0  0  0  0  0  0  0  0  0  0  0 
    5.8009    0.3269    0.2561 H   0  0  0  0  0  0  0  0  0  0  0  0 
    6.0906    0.1090   -1.4607 H   0  0  0  0  0  0  0  0  0  0  0  0 
    1.4742   -2.5642   -0.1712 H   0  0  0  0  0  0  0  0  0  0  0  0 
    2.4217    2.0280   -0.2992 H   0  0  0  0  0  0  0  0  0  0  0  0 
    3.4208    1.3009    0.9684 H   0  0  0  0  0  0  0  0  0  0  0  0 
  1 13  1  0  0  0  0 
  2  3  1  0  0  0  0 
  3 16  1  0  0  0  0 
  3  7  2  0  0  0  0 
  4 18  1  0  0  0  0 
  4  6  1  0  0  0  0 
  4  8  1  0  0  0  0 
  5  2  2  0  0  0  0 
  5  9  1  0  0  0  0 
  6  9  1  0  0  0  0 
  6 20  1  0  0  0  0 
  7 22  1  0  0  0  0 
  8 24  1  0  0  0  0 
  9 10  2  0  0  0  0 
 10  7  1  0  0  0  0 
 10 11  1  0  0  0  0 
 11  8  1  0  0  0  0 
 11  1  1  0  0  0  0 
 12  1  1  0  0  0  0 
 14  1  1  0  0  0  0 
 15  2  1  0  0  0  0 
 17  4  1  0  0  0  0 
 19  5  1  0  0  0  0 
 21  6  1  0  0  0  0 
 23  8  1  0  0  0  0 
M  END 
>  <HBA> 
1 
 
>  <HBD> 
0 
 
>  <TPSA> 
3.24 
 
>  <cid> 
68109 
 
>  <dipole> 
1.77 
 
>  <excitation_energy_1> 
4.335 
 
>  <excitation_energy_2> 
4.449 
 
>  <excitation_energy_3> 
4.782 
 
>  <excitation_energy_4> 
4.996 
 
>  <homo_energy> 
-4.914 
 
>  <homo_lumo_gap> 
5.255 
 
>  <logP> 
2.134 
 
>  <lumo_energy> 
0.34 
 
>  <melting_point> 
39.41 
 
>  <molecular_refractivity> 
51.24 
 
>  <oscillator_strength_1> 
0.0386 
 
>  <oscillator_strength_2> 
0.0415 
 
>  <oscillator_strength_3> 
0.0167 
 
>  <oscillator_strength_4> 
0.0246 
 
>  <open_babel_can_smiles> 
CN1CCCc2c1cccc2 
 
>  <mulliken_charges> 
24 
1   -0.307868 
2   -0.134503 
3   -0.138032 
4   -0.277374 
5   -0.202205 
6   -0.338599 
7   -0.201749 
8   -0.127701 
9   0.11953 
10   0.31982 
11   -0.487936 
12   0.151004 
13   0.144231 
14   0.162027 
15   0.116344 
16   0.119231 
17   0.151583 
18   0.134953 
19   0.113619 
20   0.148867 
21   0.146369 
22   0.119003 
23   0.13934 
24   0.130048 
 
>  <lowdin_charges> 
24 
1   -0.350641 
2   -0.188552 
3   -0.152961 
4   -0.278663 
5   -0.156498 
6   -0.274791 
7   -0.206694 
8   -0.190876 
9   -0.045339 
10   0.047773 
11   -0.131526 
12   0.154497 
13   0.136403 
14   0.155154 
15   0.153317 
16   0.153312 
17   0.148783 
18   0.148275 
19   0.148683 
20   0.149049 
21   0.153273 
22   0.155028 
23   0.14727 
24   0.125728 
 
$$$$ 
 
