PCCDB-ID:  11346 
public computational chemistry database (PCCDB) project, http://pccdb.org 
 
 19 19  0  0  0  0  0  0  0  0999 V2000 
    1.4429   -0.4519    0.3754 C   0  0  0  0  0  0  0  0  0  0  0  0 
    5.3986    1.7152    1.9931 C   0  0  0  0  0  0  0  0  0  0  0  0 
    4.8635    2.9119    2.4750 C   0  0  0  0  0  0  0  0  0  0  0  0 
    4.6575    0.9124    1.1267 C   0  0  0  0  0  0  0  0  0  0  0  0 
    3.5893    3.3068    2.0790 C   0  0  0  0  0  0  0  0  0  0  0  0 
    2.6354    0.2992   -0.1833 C   0  0  0  0  0  0  0  0  0  0  0  0 
    3.3627    1.2717    0.7330 C   0  0  0  0  0  0  0  0  0  0  0  0 
    2.8606    2.4875    1.2164 C   0  0  0  0  0  0  0  0  0  0  0  0 
    1.5471    2.9727    0.7653 N   0  0  0  0  0  0  0  0  0  0  0  0 
    3.1296    0.0247   -1.2581 O   0  0  0  0  0  0  0  0  0  0  0  0 
    1.0629    3.9496    1.3323 O   0  0  0  0  0  0  0  0  0  0  0  0 
    1.0097    2.3731   -0.1697 O   0  0  0  0  0  0  0  0  0  0  0  0 
    1.8230   -1.3191    0.9333 H   0  0  0  0  0  0  0  0  0  0  0  0 
    0.8274   -0.8180   -0.4493 H   0  0  0  0  0  0  0  0  0  0  0  0 
    0.8381    0.1485    1.0570 H   0  0  0  0  0  0  0  0  0  0  0  0 
    6.3986    1.4089    2.2862 H   0  0  0  0  0  0  0  0  0  0  0  0 
    5.4404    3.5433    3.1435 H   0  0  0  0  0  0  0  0  0  0  0  0 
    5.0776   -0.0113    0.7410 H   0  0  0  0  0  0  0  0  0  0  0  0 
    3.1523    4.2406    2.4103 H   0  0  0  0  0  0  0  0  0  0  0  0 
  1 13  1  0  0  0  0 
  1 15  1  0  0  0  0 
  2 16  1  0  0  0  0 
  2  3  2  0  0  0  0 
  3 17  1  0  0  0  0 
  4  2  1  0  0  0  0 
  5 19  1  0  0  0  0 
  5  3  1  0  0  0  0 
  6  1  1  0  0  0  0 
  6  7  1  0  0  0  0 
  7  4  2  0  0  0  0 
  7  8  1  0  0  0  0 
  8  5  2  0  0  0  0 
  9  8  1  0  0  0  0 
  9 11  2  0  0  0  0 
 10  6  2  0  0  0  0 
 12  9  2  0  0  0  0 
 14  1  1  0  0  0  0 
 18  4  1  0  0  0  0 
M  END 
>  <HBA> 
1 
 
>  <HBD> 
0 
 
>  <TPSA> 
62.89 
 
>  <cid> 
11346 
 
>  <dipole> 
4.9 
 
>  <excitation_energy_1> 
3.396 
 
>  <excitation_energy_2> 
3.733 
 
>  <excitation_energy_3> 
4.163 
 
>  <excitation_energy_4> 
4.307 
 
>  <homo_energy> 
-6.991 
 
>  <homo_lumo_gap> 
4.264 
 
>  <logP> 
2.321 
 
>  <lumo_energy> 
-2.727 
 
>  <melting_point> 
78.01 
 
>  <molecular_refractivity> 
45.46 
 
>  <oscillator_strength_1> 
0.0052 
 
>  <oscillator_strength_2> 
0.0038 
 
>  <oscillator_strength_3> 
0.013 
 
>  <oscillator_strength_4> 
0.0018 
 
>  <open_babel_can_smiles> 
O=N(=O)c1ccccc1C(=O)C 
 
>  <mulliken_charges> 
19 
1   -0.510567 
2   -0.108209 
3   -0.136136 
4   -0.173402 
5   -0.14923 
6   0.401957 
7   0.065946 
8   0.24132 
9   0.372769 
10   -0.421983 
11   -0.383936 
12   -0.394151 
13   0.172513 
14   0.191641 
15   0.167083 
16   0.154691 
17   0.155527 
18   0.16596 
19   0.188207 
 
>  <lowdin_charges> 
19 
1   -0.469852 
2   -0.126896 
3   -0.145252 
4   -0.138333 
5   -0.134348 
6   0.17213 
7   -0.012812 
8   0.000587 
9   0.310023 
10   -0.219302 
11   -0.237577 
12   -0.23243 
13   0.173847 
14   0.182268 
15   0.168546 
16   0.170068 
17   0.17248 
18   0.176579 
19   0.190275 
 
$$$$ 
 
