PCCDB-ID:  54544 
public computational chemistry database (PCCDB) project, http://pccdb.org 
 
 29 31  0  0  0  0  0  0  0  0999 V2000 
    1.0127   -0.0006    0.0978 C   0  0  0  0  0  0  0  0  0  0  0  0 
    6.7277    5.0241    0.0064 C   0  0  0  0  0  0  0  0  0  0  0  0 
    7.4619    3.8230   -0.0004 C   0  0  0  0  0  0  0  0  0  0  0  0 
    5.3484    4.9786    0.0253 C   0  0  0  0  0  0  0  0  0  0  0  0 
    6.8119    2.6022    0.0117 C   0  0  0  0  0  0  0  0  0  0  0  0 
    3.2315    3.6962    0.0561 C   0  0  0  0  0  0  0  0  0  0  0  0 
    2.5540    2.5146    0.0676 C   0  0  0  0  0  0  0  0  0  0  0  0 
    3.2213   -1.1708    0.0721 C   0  0  0  0  0  0  0  0  0  0  0  0 
    5.3485    0.0187    0.0412 C   0  0  0  0  0  0  0  0  0  0  0  0 
    2.5234    0.0219    0.0768 C   0  0  0  0  0  0  0  0  0  0  0  0 
    4.6623    3.7417    0.0379 C   0  0  0  0  0  0  0  0  0  0  0  0 
    4.6242   -1.1538    0.0542 C   0  0  0  0  0  0  0  0  0  0  0  0 
    3.2443    1.2575    0.0630 C   0  0  0  0  0  0  0  0  0  0  0  0 
    5.3999    2.5219    0.0313 C   0  0  0  0  0  0  0  0  0  0  0  0 
    4.6749    1.2567    0.0449 C   0  0  0  0  0  0  0  0  0  0  0  0 
    5.3484   -2.4323    0.0502 N   0  0  0  0  0  0  0  0  0  0  0  0 
    4.6805   -3.4674    0.0671 O   0  0  0  0  0  0  0  0  0  0  0  0 
    6.5801   -2.3995    0.0301 O   0  0  0  0  0  0  0  0  0  0  0  0 
    0.6443   -1.0299    0.1034 H   0  0  0  0  0  0  0  0  0  0  0  0 
    0.5856    0.5012   -0.7791 H   0  0  0  0  0  0  0  0  0  0  0  0 
    0.6109    0.5017    0.9863 H   0  0  0  0  0  0  0  0  0  0  0  0 
    7.2451    5.9792   -0.0037 H   0  0  0  0  0  0  0  0  0  0  0  0 
    8.5477    3.8519   -0.0150 H   0  0  0  0  0  0  0  0  0  0  0  0 
    4.7666    5.8972    0.0304 H   0  0  0  0  0  0  0  0  0  0  0  0 
    7.4089    1.6971    0.0060 H   0  0  0  0  0  0  0  0  0  0  0  0 
    2.6860    4.6369    0.0600 H   0  0  0  0  0  0  0  0  0  0  0  0 
    1.4699    2.5213    0.0802 H   0  0  0  0  0  0  0  0  0  0  0  0 
    2.7069   -2.1238    0.0821 H   0  0  0  0  0  0  0  0  0  0  0  0 
    6.4273   -0.0492    0.0291 H   0  0  0  0  0  0  0  0  0  0  0  0 
  1 19  1  0  0  0  0 
  1 21  1  0  0  0  0 
  2  4  1  0  0  0  0 
  3  2  2  0  0  0  0 
  3  5  1  0  0  0  0 
  4 24  1  0  0  0  0 
  4 11  2  0  0  0  0 
  5 14  2  0  0  0  0 
  6 26  1  0  0  0  0 
  6  7  2  0  0  0  0 
  7 27  1  0  0  0  0 
  8 10  1  0  0  0  0 
  8 28  1  0  0  0  0 
  9 15  2  0  0  0  0 
  9 12  1  0  0  0  0 
 10  1  1  0  0  0  0 
 11  6  1  0  0  0  0 
 12  8  2  0  0  0  0 
 13  7  1  0  0  0  0 
 13 10  2  0  0  0  0 
 14 11  1  0  0  0  0 
 14 15  1  0  0  0  0 
 15 13  1  0  0  0  0 
 16 12  1  0  0  0  0 
 16 17  2  0  0  0  0 
 18 16  2  0  0  0  0 
 20  1  1  0  0  0  0 
 22  2  1  0  0  0  0 
 23  3  1  0  0  0  0 
 25  5  1  0  0  0  0 
 29  9  1  0  0  0  0 
M  END 
>  <HBA> 
0 
 
>  <HBD> 
0 
 
>  <TPSA> 
45.82 
 
>  <cid> 
54544 
 
>  <dipole> 
5.58 
 
>  <excitation_energy_1> 
3.283 
 
>  <excitation_energy_2> 
3.386 
 
>  <excitation_energy_3> 
3.71 
 
>  <excitation_energy_4> 
4.194 
 
>  <homo_energy> 
-6.242 
 
>  <homo_lumo_gap> 
3.834 
 
>  <logP> 
4.733 
 
>  <lumo_energy> 
-2.408 
 
>  <melting_point> 
137.63 
 
>  <molecular_refractivity> 
75.24 
 
>  <oscillator_strength_1> 
0.1707 
 
>  <oscillator_strength_2> 
0.0413 
 
>  <oscillator_strength_3> 
0.0 
 
>  <oscillator_strength_4> 
0.0173 
 
>  <open_babel_can_smiles> 
Cc1cc(cc2c1ccc1c2cccc1)N(=O)=O 
 
>  <mulliken_charges> 
29 
1   -0.539024 
2   -0.125368 
3   -0.138144 
4   -0.204605 
5   -0.183112 
6   -0.183628 
7   -0.204946 
8   -0.235539 
9   -0.238498 
10   0.115414 
11   0.141987 
12   0.291871 
13   0.106233 
14   0.060618 
15   0.057689 
16   0.377302 
17   -0.397864 
18   -0.40242 
19   0.16873 
20   0.169367 
21   0.169501 
22   0.13756 
23   0.139258 
24   0.135974 
25   0.14671 
26   0.138663 
27   0.138113 
28   0.172211 
29   0.185949 
 
>  <lowdin_charges> 
29 
1   -0.443499 
2   -0.151951 
3   -0.146402 
4   -0.154096 
5   -0.154782 
6   -0.140689 
7   -0.162885 
8   -0.159497 
9   -0.13735 
10   0.006821 
11   -0.001122 
12   6.1e-05 
13   0.003202 
14   0.001417 
15   0.000784 
16   0.306148 
17   -0.250246 
18   -0.251175 
19   0.163784 
20   0.164479 
21   0.164488 
22   0.162619 
23   0.16108 
24   0.160782 
25   0.164587 
26   0.162748 
27   0.163614 
28   0.183491 
29   0.183591 
 
$$$$ 
 
