PCCDB-ID:  24309 
public computational chemistry database (PCCDB) project, http://pccdb.org 
 
 33 32  0  0  1  0  0  0  0  0999 V2000 
   -0.9479    1.7610   -4.5354 C   0  0  0  0  0  0  0  0  0  0  0  0 
    4.6467    0.1785   -6.2775 C   0  0  0  0  0  0  0  0  0  0  0  0 
    0.4934    2.1765   -4.2244 C   0  0  0  0  0  0  0  0  0  0  0  0 
    4.1052   -0.5819   -5.0586 C   0  0  0  0  0  0  0  0  0  0  0  0 
    1.4751    0.9967   -4.2159 C   0  0  0  0  0  0  0  0  0  0  0  0 
    2.9168    1.4155   -3.8974 C   0  0  0  0  0  0  0  0  0  0  0  0 
    5.2750    0.7342   -3.2492 C   0  0  0  0  0  0  0  0  0  0  0  0 
    5.1204    1.2396    0.4332 C   0  0  0  0  0  0  0  0  0  0  0  0 
    3.9154    0.2471   -3.7656 C   0  0  2  0  0  0  0  0  0  0  0  0 
    5.2757    0.4936   -0.8814 C   0  0  0  0  0  0  0  0  0  0  0  0 
    5.4510   -0.7030   -0.9665 O   0  0  0  0  0  0  0  0  0  0  0  0 
    5.1722    1.3321   -1.9299 O   0  0  0  0  0  0  0  0  0  0  0  0 
    6.5021    0.8889    1.5937 S   0  0  0  0  0  0  0  0  0  0  0  0 
   -1.6215    2.6254   -4.5409 H   0  0  0  0  0  0  0  0  0  0  0  0 
   -1.3252    1.0495   -3.7904 H   0  0  0  0  0  0  0  0  0  0  0  0 
   -1.0184    1.2780   -5.5180 H   0  0  0  0  0  0  0  0  0  0  0  0 
    4.7454   -0.4977   -7.1340 H   0  0  0  0  0  0  0  0  0  0  0  0 
    5.6370    0.6099   -6.0904 H   0  0  0  0  0  0  0  0  0  0  0  0 
    3.9810    0.9943   -6.5802 H   0  0  0  0  0  0  0  0  0  0  0  0 
    0.5272    2.6822   -3.2488 H   0  0  0  0  0  0  0  0  0  0  0  0 
    0.8276    2.9197   -4.9624 H   0  0  0  0  0  0  0  0  0  0  0  0 
    4.7781   -1.4196   -4.8302 H   0  0  0  0  0  0  0  0  0  0  0  0 
    3.1442   -1.0394   -5.3225 H   0  0  0  0  0  0  0  0  0  0  0  0 
    1.4329    0.4935   -5.1920 H   0  0  0  0  0  0  0  0  0  0  0  0 
    1.1400    0.2534   -3.4766 H   0  0  0  0  0  0  0  0  0  0  0  0 
    2.9200    1.9760   -2.9536 H   0  0  0  0  0  0  0  0  0  0  0  0 
    3.2707    2.1199   -4.6643 H   0  0  0  0  0  0  0  0  0  0  0  0 
    5.6820    1.5361   -3.8701 H   0  0  0  0  0  0  0  0  0  0  0  0 
    5.9915   -0.0893   -3.1978 H   0  0  0  0  0  0  0  0  0  0  0  0 
    4.1699    0.9449    0.8895 H   0  0  0  0  0  0  0  0  0  0  0  0 
    5.1099    2.3176    0.2678 H   0  0  0  0  0  0  0  0  0  0  0  0 
    3.5273   -0.4468   -3.0067 H   0  0  0  0  0  0  0  0  0  0  0  0 
    6.4186   -0.4536    1.4807 H   0  0  0  0  0  0  0  0  0  0  0  0 
  1  3  1  0  0  0  0 
  1 15  1  0  0  0  0 
  2 18  1  0  0  0  0 
  2  4  1  0  0  0  0 
  3  5  1  0  0  0  0 
  3 20  1  0  0  0  0 
  4 22  1  0  0  0  0 
  4  9  1  0  0  0  0 
  5  6  1  0  0  0  0 
  5 25  1  0  0  0  0 
  6  9  1  0  0  0  0 
  6 26  1  0  0  0  0 
  7 29  1  0  0  0  0 
  7 12  1  0  0  0  0 
  8 30  1  0  0  0  0 
  8 13  1  0  0  0  0 
  9  7  1  0  0  0  0 
  9 32  1  1  0  0  0 
 10  8  1  0  0  0  0 
 11 10  2  0  0  0  0 
 12 10  1  0  0  0  0 
 14  1  1  0  0  0  0 
 16  1  1  0  0  0  0 
 17  2  1  0  0  0  0 
 19  2  1  0  0  0  0 
 21  3  1  0  0  0  0 
 23  4  1  0  0  0  0 
 24  5  1  0  0  0  0 
 27  6  1  0  0  0  0 
 28  7  1  0  0  0  0 
 31  8  1  0  0  0  0 
 33 13  1  0  0  0  0 
M  END 
>  <HBA> 
3 
 
>  <HBD> 
1 
 
>  <TPSA> 
65.1 
 
>  <cid> 
24309 
 
>  <dipole> 
2.6 
 
>  <excitation_energy_1> 
4.923 
 
>  <excitation_energy_2> 
5.568 
 
>  <excitation_energy_3> 
5.753 
 
>  <excitation_energy_4> 
6.259 
 
>  <homo_energy> 
-6.591 
 
>  <homo_lumo_gap> 
6.299 
 
>  <logP> 
2.676 
 
>  <lumo_energy> 
-0.291 
 
>  <melting_point> 
3.48 
 
>  <molecular_refractivity> 
59.4 
 
>  <oscillator_strength_1> 
0.0042 
 
>  <oscillator_strength_2> 
0.0168 
 
>  <oscillator_strength_3> 
0.0033 
 
>  <oscillator_strength_4> 
0.0207 
 
>  <open_babel_can_smiles> 
CCCC[C@H](COC(=O)CS)CC 
 
>  <mulliken_charges> 
33 
1   -0.441963 
2   -0.45577 
3   -0.247544 
4   -0.271941 
5   -0.254542 
6   -0.26349 
7   -0.056948 
8   -0.502925 
9   -0.101703 
10   0.631845 
11   -0.470012 
12   -0.45612 
13   -0.062744 
14   0.143138 
15   0.142177 
16   0.141553 
17   0.149162 
18   0.145628 
19   0.150258 
20   0.130817 
21   0.130817 
22   0.141612 
23   0.143839 
24   0.132601 
25   0.12834 
26   0.139789 
27   0.128536 
28   0.153371 
29   0.171279 
30   0.207906 
31   0.205668 
32   0.143005 
33   0.12436 
 
>  <lowdin_charges> 
33 
1   -0.445655 
2   -0.45144 
3   -0.272066 
4   -0.277274 
5   -0.276956 
6   -0.282784 
7   -0.135841 
8   -0.39395 
9   -0.140482 
10   0.190117 
11   -0.267268 
12   -0.183111 
13   -0.059428 
14   0.150522 
15   0.147734 
16   0.14592 
17   0.154813 
18   0.146341 
19   0.150187 
20   0.138588 
21   0.140057 
22   0.147383 
23   0.147733 
24   0.138543 
25   0.139256 
26   0.145728 
27   0.139474 
28   0.155014 
29   0.161967 
30   0.182171 
31   0.184342 
32   0.15109 
33   0.129276 
 
$$$$ 
 
