PCCDB-ID:  8109 
public computational chemistry database (PCCDB) project, http://pccdb.org 
 
 19 18  0  0  0  0  0  0  0  0999 V2000 
    1.0283    1.1694   -1.5111 C   0  0  0  0  0  0  0  0  0  0  0  0 
    2.4648    0.8709   -1.1140 C   0  0  0  0  0  0  0  0  0  0  0  0 
    5.5311    1.9232   -2.8805 C   0  0  0  0  0  0  0  0  0  0  0  0 
    5.3031    1.3229   -4.2702 C   0  0  0  0  0  0  0  0  0  0  0  0 
    4.7021    1.2543   -1.7904 C   0  0  0  0  0  0  0  0  0  0  0  0 
    6.1148    1.9351   -5.2682 O   0  0  0  0  0  0  0  0  0  0  0  0 
    3.3284    1.4704   -2.0646 O   0  0  0  0  0  0  0  0  0  0  0  0 
    0.3311    0.7196   -0.7959 H   0  0  0  0  0  0  0  0  0  0  0  0 
    0.8144    0.7664   -2.5063 H   0  0  0  0  0  0  0  0  0  0  0  0 
    0.8538    2.2500   -1.5348 H   0  0  0  0  0  0  0  0  0  0  0  0 
    2.6390   -0.2185   -1.0765 H   0  0  0  0  0  0  0  0  0  0  0  0 
    2.6792    1.2658   -0.1057 H   0  0  0  0  0  0  0  0  0  0  0  0 
    5.2856    2.9945   -2.8981 H   0  0  0  0  0  0  0  0  0  0  0  0 
    6.5951    1.8396   -2.6264 H   0  0  0  0  0  0  0  0  0  0  0  0 
    4.2366    1.3751   -4.5300 H   0  0  0  0  0  0  0  0  0  0  0  0 
    5.5879    0.2645   -4.2709 H   0  0  0  0  0  0  0  0  0  0  0  0 
    4.9639    1.6694   -0.8021 H   0  0  0  0  0  0  0  0  0  0  0  0 
    4.9175    0.1713   -1.7528 H   0  0  0  0  0  0  0  0  0  0  0  0 
    5.8154    2.8529   -5.3602 H   0  0  0  0  0  0  0  0  0  0  0  0 
  1  2  1  0  0  0  0 
  1  8  1  0  0  0  0 
  2 11  1  0  0  0  0 
  2 12  1  0  0  0  0 
  3 14  1  0  0  0  0 
  3  5  1  0  0  0  0 
  4  3  1  0  0  0  0 
  5 18  1  0  0  0  0 
  5 17  1  0  0  0  0 
  6  4  1  0  0  0  0 
  7  5  1  0  0  0  0 
  7  2  1  0  0  0  0 
  9  1  1  0  0  0  0 
 10  1  1  0  0  0  0 
 13  3  1  0  0  0  0 
 15  4  1  0  0  0  0 
 16  4  1  0  0  0  0 
 19  6  1  0  0  0  0 
M  END 
>  <HBA> 
2 
 
>  <HBD> 
1 
 
>  <TPSA> 
29.46 
 
>  <cid> 
8109 
 
>  <dipole> 
2.05 
 
>  <excitation_energy_1> 
6.408 
 
>  <excitation_energy_2> 
6.531 
 
>  <excitation_energy_3> 
6.856 
 
>  <excitation_energy_4> 
6.916 
 
>  <homo_energy> 
-6.811 
 
>  <homo_lumo_gap> 
8.953 
 
>  <logP> 
0.405 
 
>  <lumo_energy> 
2.142 
 
>  <melting_point> 
-16.23 
 
>  <molecular_refractivity> 
28.4 
 
>  <oscillator_strength_1> 
0.0097 
 
>  <oscillator_strength_2> 
0.0273 
 
>  <oscillator_strength_3> 
0.0096 
 
>  <oscillator_strength_4> 
0.0026 
 
>  <open_babel_can_smiles> 
OCCCOCC 
 
>  <mulliken_charges> 
19 
1   -0.453555 
2   -0.001885 
3   -0.293438 
4   -0.029874 
5   -0.014984 
6   -0.617535 
7   -0.4729 
8   0.143561 
9   0.15804 
10   0.157687 
11   0.119073 
12   0.118132 
13   0.135015 
14   0.145991 
15   0.142095 
16   0.13994 
17   0.121048 
18   0.1176 
19   0.385989 
 
>  <lowdin_charges> 
19 
1   -0.447809 
2   -0.12156 
3   -0.29725 
4   -0.133892 
5   -0.124678 
6   -0.467846 
7   -0.27957 
8   0.155562 
9   0.156292 
10   0.154915 
11   0.122624 
12   0.123598 
13   0.142028 
14   0.151809 
15   0.134248 
16   0.14165 
17   0.128235 
18   0.122687 
19   0.338957 
 
$$$$ 
 
