PCCDB-ID:  20625 
public computational chemistry database (PCCDB) project, http://pccdb.org 
 
 16 16  0  0  0  0  0  0  0  0999 V2000 
    1.0362    0.0074    0.1064 C   0  0  0  0  0  0  0  0  0  0  0  0 
    3.3576   -1.0444    0.1963 C   0  0  0  0  0  0  0  0  0  0  0  0 
    3.2681    1.1646    0.0674 C   0  0  0  0  0  0  0  0  0  0  0  0 
    4.5761    0.6842    0.1398 C   0  0  0  0  0  0  0  0  0  0  0  0 
    2.7638    2.4382    0.0539 N   0  0  0  0  0  0  0  0  0  0  0  0 
    4.6083   -0.6852    0.2195 N   0  0  0  0  0  0  0  0  0  0  0  0 
    2.4883    0.0379    0.1077 N   0  0  0  0  0  0  0  0  0  0  0  0 
    5.7373    1.4955    0.1073 N   0  0  0  0  0  0  0  0  0  0  0  0 
    5.5479    2.7341    0.0468 O   0  0  0  0  0  0  0  0  0  0  0  0 
    6.8456    0.9705    0.1327 O   0  0  0  0  0  0  0  0  0  0  0  0 
    0.7079   -1.0119    0.3184 H   0  0  0  0  0  0  0  0  0  0  0  0 
    0.6313    0.3067   -0.8675 H   0  0  0  0  0  0  0  0  0  0  0  0 
    0.6457    0.6755    0.8804 H   0  0  0  0  0  0  0  0  0  0  0  0 
    2.9835   -2.0588    0.2359 H   0  0  0  0  0  0  0  0  0  0  0  0 
    3.5130    3.1162   -0.0651 H   0  0  0  0  0  0  0  0  0  0  0  0 
    1.9530    2.6021   -0.5315 H   0  0  0  0  0  0  0  0  0  0  0  0 
  1  7  1  0  0  0  0 
  1 11  1  0  0  0  0 
  1 13  1  0  0  0  0 
  2  6  2  0  0  0  0 
  2 14  1  0  0  0  0 
  3  7  1  0  0  0  0 
  3  4  2  0  0  0  0 
  4  6  1  0  0  0  0 
  5  3  1  0  0  0  0 
  7  2  1  0  0  0  0 
  8 10  2  0  0  0  0 
  8  4  1  0  0  0  0 
  9  8  2  0  0  0  0 
 12  1  1  0  0  0  0 
 15  5  1  0  0  0  0 
 16  5  1  0  0  0  0 
M  END 
>  <HBA> 
3 
 
>  <HBD> 
1 
 
>  <TPSA> 
89.66 
 
>  <cid> 
20625 
 
>  <dipole> 
8.61 
 
>  <excitation_energy_1> 
3.925 
 
>  <excitation_energy_2> 
4.062 
 
>  <excitation_energy_3> 
4.544 
 
>  <excitation_energy_4> 
4.908 
 
>  <homo_energy> 
-6.117 
 
>  <homo_lumo_gap> 
4.506 
 
>  <logP> 
1.015 
 
>  <lumo_energy> 
-1.611 
 
>  <melting_point> 
110.94 
 
>  <molecular_refractivity> 
36.72 
 
>  <oscillator_strength_1> 
0.0333 
 
>  <oscillator_strength_2> 
0.1431 
 
>  <oscillator_strength_3> 
0.0063 
 
>  <oscillator_strength_4> 
0.006 
 
>  <open_babel_can_smiles> 
O=N(=O)c1ncn(c1N)C 
 
>  <mulliken_charges> 
16 
1   -0.340909 
2   0.205406 
3   0.516764 
4   0.379623 
5   -0.79761 
6   -0.446431 
7   -0.442679 
8   0.345051 
9   -0.464407 
10   -0.395635 
11   0.189057 
12   0.178843 
13   0.196078 
14   0.166721 
15   0.378808 
16   0.33132 
 
>  <lowdin_charges> 
16 
1   -0.348911 
2   -0.088258 
3   0.082525 
4   -0.052139 
5   -0.465348 
6   -0.140979 
7   -0.025699 
8   0.308882 
9   -0.315719 
10   -0.235012 
11   0.177071 
12   0.162307 
13   0.17497 
14   0.172652 
15   0.307645 
16   0.286013 
 
$$$$ 
 
