PCCDB-ID:  40920 
public computational chemistry database (PCCDB) project, http://pccdb.org 
 
 22 22  0  0  1  0  0  0  0  0999 V2000 
    2.0679    1.2271   -0.7523 C   0  0  0  0  0  0  0  0  0  0  0  0 
    7.2209    1.5504   -1.3376 C   0  0  0  0  0  0  0  0  0  0  0  0 
    2.5682    0.8726   -2.1583 C   0  0  0  0  0  0  0  0  0  0  0  0 
    7.0207    0.0304   -1.2900 C   0  0  0  0  0  0  0  0  0  0  0  0 
    3.2130   -0.5207   -2.2726 C   0  0  0  0  0  0  0  0  0  0  0  0 
    5.8219   -0.4192   -2.0940 C   0  0  2  0  0  0  0  0  0  0  0  0 
    4.5010   -0.6688   -1.4923 C   0  0  2  0  0  0  0  0  0  0  0  0 
    5.3581   -1.7612   -1.8720 O   0  0  0  0  0  0  0  0  0  0  0  0 
    1.5614    2.1989   -0.7497 H   0  0  0  0  0  0  0  0  0  0  0  0 
    2.8873    1.2838   -0.0267 H   0  0  0  0  0  0  0  0  0  0  0  0 
    1.3533    0.4789   -0.3873 H   0  0  0  0  0  0  0  0  0  0  0  0 
    8.1065    1.8482   -0.7662 H   0  0  0  0  0  0  0  0  0  0  0  0 
    6.3566    2.0786   -0.9179 H   0  0  0  0  0  0  0  0  0  0  0  0 
    7.3576    1.9026   -2.3673 H   0  0  0  0  0  0  0  0  0  0  0  0 
    3.2871    1.6323   -2.4952 H   0  0  0  0  0  0  0  0  0  0  0  0 
    1.7246    0.9194   -2.8591 H   0  0  0  0  0  0  0  0  0  0  0  0 
    6.8976   -0.3087   -0.2541 H   0  0  0  0  0  0  0  0  0  0  0  0 
    7.9148   -0.4756   -1.6789 H   0  0  0  0  0  0  0  0  0  0  0  0 
    3.4273   -0.7468   -3.3244 H   0  0  0  0  0  0  0  0  0  0  0  0 
    2.5003   -1.2844   -1.9291 H   0  0  0  0  0  0  0  0  0  0  0  0 
    5.8391   -0.1338   -3.1506 H   0  0  0  0  0  0  0  0  0  0  0  0 
    4.4214   -0.5449   -0.4095 H   0  0  0  0  0  0  0  0  0  0  0  0 
  1  9  1  0  0  0  0 
  1 11  1  0  0  0  0 
  1 10  1  0  0  0  0 
  2  4  1  0  0  0  0 
  2 13  1  0  0  0  0 
  2 12  1  0  0  0  0 
  3  1  1  0  0  0  0 
  4 17  1  0  0  0  0 
  5  3  1  0  0  0  0 
  5 20  1  0  0  0  0 
  5  7  1  0  0  0  0 
  6 21  1  6  0  0  0 
  6  8  1  0  0  0  0 
  6  7  1  0  0  0  0 
  6  4  1  0  0  0  0 
  7 22  1  1  0  0  0 
  8  7  1  0  0  0  0 
 14  2  1  0  0  0  0 
 15  3  1  0  0  0  0 
 16  3  1  0  0  0  0 
 18  4  1  0  0  0  0 
 19  5  1  0  0  0  0 
M  END 
>  <HBA> 
1 
 
>  <HBD> 
0 
 
>  <TPSA> 
12.53 
 
>  <cid> 
40920 
 
>  <dipole> 
2.04 
 
>  <excitation_energy_1> 
6.575 
 
>  <excitation_energy_2> 
6.846 
 
>  <excitation_energy_3> 
6.975 
 
>  <excitation_energy_4> 
7.113 
 
>  <homo_energy> 
-6.944 
 
>  <homo_lumo_gap> 
8.996 
 
>  <logP> 
1.964 
 
>  <lumo_energy> 
2.052 
 
>  <melting_point> 
-13.6 
 
>  <molecular_refractivity> 
34.73 
 
>  <oscillator_strength_1> 
0.0051 
 
>  <oscillator_strength_2> 
0.01 
 
>  <oscillator_strength_3> 
0.0008 
 
>  <oscillator_strength_4> 
0.0109 
 
>  <open_babel_can_smiles> 
CCC[C@H]1O[C@@H]1CC 
 
>  <mulliken_charges> 
22 
1   -0.447021 
2   -0.451135 
3   -0.254584 
4   -0.277666 
5   -0.283105 
6   0.099834 
7   0.095438 
8   -0.47571 
9   0.146312 
10   0.145827 
11   0.14531 
12   0.150569 
13   0.147352 
14   0.146161 
15   0.134937 
16   0.137926 
17   0.14456 
18   0.14768 
19   0.143177 
20   0.142209 
21   0.128333 
22   0.133598 
 
>  <lowdin_charges> 
22 
1   -0.449417 
2   -0.445205 
3   -0.274175 
4   -0.275945 
5   -0.280167 
6   -0.026211 
7   -0.028391 
8   -0.293143 
9   0.151615 
10   0.146969 
11   0.14917 
12   0.154966 
13   0.149536 
14   0.147784 
15   0.141906 
16   0.146144 
17   0.149913 
18   0.151705 
19   0.151582 
20   0.149699 
21   0.140013 
22   0.141651 
 
$$$$ 
 
