PCCDB-ID:  28551 
public computational chemistry database (PCCDB) project, http://pccdb.org 
 
 24 23  0  0  1  0  0  0  0  0999 V2000 
    0.7772    0.1347    0.2757 C   0  0  0  0  0  0  0  0  0  0  0  0 
    2.3076    0.0759    0.2376 C   0  0  0  0  0  0  0  0  0  0  0  0 
    2.8792   -1.1415    0.9746 C   0  0  0  0  0  0  0  0  0  0  0  0 
    7.3652   -1.8019    0.9790 C   0  0  0  0  0  0  0  0  0  0  0  0 
    4.4109   -1.2068    0.9367 C   0  0  0  0  0  0  0  0  0  0  0  0 
    6.4822   -2.5520    1.6560 C   0  0  0  0  0  0  0  0  0  0  0  0 
    8.8109   -2.0644    1.0763 C   0  0  0  0  0  0  0  0  0  0  0  0 
    4.9798   -2.4082    1.7001 C   0  0  1  0  0  0  0  0  0  0  0  0 
    9.6641   -1.4260    0.4897 O   0  0  0  0  0  0  0  0  0  0  0  0 
    4.5596   -2.4295    3.0719 O   0  0  0  0  0  0  0  0  0  0  0  0 
    0.3980    1.0163   -0.2531 H   0  0  0  0  0  0  0  0  0  0  0  0 
    0.4085    0.1801    1.3077 H   0  0  0  0  0  0  0  0  0  0  0  0 
    0.3345   -0.7520   -0.1944 H   0  0  0  0  0  0  0  0  0  0  0  0 
    2.7200    0.9944    0.6796 H   0  0  0  0  0  0  0  0  0  0  0  0 
    2.6483    0.0636   -0.8076 H   0  0  0  0  0  0  0  0  0  0  0  0 
    2.4681   -2.0609    0.5318 H   0  0  0  0  0  0  0  0  0  0  0  0 
    2.5479   -1.1351    2.0202 H   0  0  0  0  0  0  0  0  0  0  0  0 
    7.0694   -0.9784    0.3340 H   0  0  0  0  0  0  0  0  0  0  0  0 
    4.8346   -0.2818    1.3569 H   0  0  0  0  0  0  0  0  0  0  0  0 
    4.7539   -1.2556   -0.1058 H   0  0  0  0  0  0  0  0  0  0  0  0 
    6.8589   -3.3576    2.2893 H   0  0  0  0  0  0  0  0  0  0  0  0 
    9.0861   -2.9123    1.7442 H   0  0  0  0  0  0  0  0  0  0  0  0 
    4.5454   -3.3275    1.2820 H   0  0  0  0  0  0  0  0  0  0  0  0 
    4.9410   -1.6442    3.4986 H   0  0  0  0  0  0  0  0  0  0  0  0 
  1 12  1  0  0  0  0 
  2  1  1  0  0  0  0 
  2 14  1  0  0  0  0 
  2  3  1  0  0  0  0 
  3 17  1  0  0  0  0 
  4  7  1  0  0  0  0 
  4  6  2  0  0  0  0 
  5  3  1  0  0  0  0 
  5 19  1  0  0  0  0 
  5  8  1  0  0  0  0 
  6  8  1  0  0  0  0 
  6 21  1  0  0  0  0 
  7 22  1  0  0  0  0 
  8 23  1  6  0  0  0 
  8 10  1  0  0  0  0 
  9  7  2  0  0  0  0 
 10 24  1  0  0  0  0 
 11  1  1  0  0  0  0 
 13  1  1  0  0  0  0 
 15  2  1  0  0  0  0 
 16  3  1  0  0  0  0 
 18  4  1  0  0  0  0 
 20  5  1  0  0  0  0 
M  END 
>  <HBA> 
2 
 
>  <HBD> 
1 
 
>  <TPSA> 
37.3 
 
>  <cid> 
28551 
 
>  <dipole> 
2.5 
 
>  <excitation_energy_1> 
3.63 
 
>  <excitation_energy_2> 
5.114 
 
>  <excitation_energy_3> 
6.014 
 
>  <excitation_energy_4> 
6.306 
 
>  <homo_energy> 
-6.909 
 
>  <homo_lumo_gap> 
5.167 
 
>  <logP> 
1.293 
 
>  <lumo_energy> 
-1.742 
 
>  <melting_point> 
32.24 
 
>  <molecular_refractivity> 
41.46 
 
>  <oscillator_strength_1> 
0.0003 
 
>  <oscillator_strength_2> 
0.0828 
 
>  <oscillator_strength_3> 
0.4065 
 
>  <oscillator_strength_4> 
0.0185 
 
>  <open_babel_can_smiles> 
CCCC[C@@H](/C=C/C=O)O 
 
>  <mulliken_charges> 
24 
1   -0.44168 
2   -0.249959 
3   -0.247105 
4   -0.148825 
5   -0.285601 
6   -0.132199 
7   0.233778 
8   0.095666 
9   -0.411982 
10   -0.614065 
11   0.144192 
12   0.143933 
13   0.14339 
14   0.130637 
15   0.13144 
16   0.130253 
17   0.14764 
18   0.155565 
19   0.129168 
20   0.142814 
21   0.154277 
22   0.102305 
23   0.157223 
24   0.389135 
 
>  <lowdin_charges> 
24 
1   -0.444354 
2   -0.271154 
3   -0.274213 
4   -0.202571 
5   -0.291186 
6   -0.133838 
7   0.044374 
8   0.000388 
9   -0.225984 
10   -0.45526 
11   0.151343 
12   0.146816 
13   0.148069 
14   0.13923 
15   0.137766 
16   0.140647 
17   0.147234 
18   0.170979 
19   0.140449 
20   0.149164 
21   0.16543 
22   0.115354 
23   0.15803 
24   0.343288 
 
$$$$ 
 
