PCCDB-ID:  12242 
public computational chemistry database (PCCDB) project, http://pccdb.org 
 
 27 26  0  0  0  0  0  0  0  0999 V2000 
    2.2499   -1.3055   -0.2418 C   0  0  0  0  0  0  0  0  0  0  0  0 
    7.3298    0.7737    4.0335 C   0  0  0  0  0  0  0  0  0  0  0  0 
    8.9522   -1.0463    3.3854 C   0  0  0  0  0  0  0  0  0  0  0  0 
    3.2662   -0.3899    0.4483 C   0  0  0  0  0  0  0  0  0  0  0  0 
    4.4558   -1.1508    1.0494 C   0  0  0  0  0  0  0  0  0  0  0  0 
    5.4797   -0.2364    1.7350 C   0  0  0  0  0  0  0  0  0  0  0  0 
    6.6654   -1.0107    2.3283 C   0  0  0  0  0  0  0  0  0  0  0  0 
    7.8069   -0.1460    2.8979 C   0  0  0  0  0  0  0  0  0  0  0  0 
    8.2678    0.6517    1.7916 O   0  0  0  0  0  0  0  0  0  0  0  0 
    1.4130   -0.7344   -0.6604 H   0  0  0  0  0  0  0  0  0  0  0  0 
    1.8352   -2.0369    0.4628 H   0  0  0  0  0  0  0  0  0  0  0  0 
    2.7142   -1.8652   -1.0632 H   0  0  0  0  0  0  0  0  0  0  0  0 
    6.9087    0.1978    4.8661 H   0  0  0  0  0  0  0  0  0  0  0  0 
    6.5702    1.4735    3.6749 H   0  0  0  0  0  0  0  0  0  0  0  0 
    8.1687    1.3607    4.4309 H   0  0  0  0  0  0  0  0  0  0  0  0 
    8.6294   -1.6955    4.2076 H   0  0  0  0  0  0  0  0  0  0  0  0 
    9.7925   -0.4411    3.7507 H   0  0  0  0  0  0  0  0  0  0  0  0 
    9.3173   -1.6751    2.5666 H   0  0  0  0  0  0  0  0  0  0  0  0 
    2.7635    0.1822    1.2412 H   0  0  0  0  0  0  0  0  0  0  0  0 
    3.6402    0.3524   -0.2706 H   0  0  0  0  0  0  0  0  0  0  0  0 
    4.9548   -1.7261    0.2552 H   0  0  0  0  0  0  0  0  0  0  0  0 
    4.0828   -1.8929    1.7713 H   0  0  0  0  0  0  0  0  0  0  0  0 
    4.9705    0.3350    2.5234 H   0  0  0  0  0  0  0  0  0  0  0  0 
    5.8619    0.4963    1.0147 H   0  0  0  0  0  0  0  0  0  0  0  0 
    7.0977   -1.6499    1.5465 H   0  0  0  0  0  0  0  0  0  0  0  0 
    6.3124   -1.6839    3.1217 H   0  0  0  0  0  0  0  0  0  0  0  0 
    8.9855    1.2169    2.1193 H   0  0  0  0  0  0  0  0  0  0  0  0 
  1  4  1  0  0  0  0 
  1 11  1  0  0  0  0 
  2 15  1  0  0  0  0 
  2 13  1  0  0  0  0 
  3 17  1  0  0  0  0 
  3 16  1  0  0  0  0 
  4  5  1  0  0  0  0 
  4 19  1  0  0  0  0 
  5  6  1  0  0  0  0 
  5 22  1  0  0  0  0 
  6  7  1  0  0  0  0 
  6 23  1  0  0  0  0 
  7  8  1  0  0  0  0 
  7 26  1  0  0  0  0 
  8  3  1  0  0  0  0 
  8  2  1  0  0  0  0 
  9 27  1  0  0  0  0 
  9  8  1  0  0  0  0 
 10  1  1  0  0  0  0 
 12  1  1  0  0  0  0 
 14  2  1  0  0  0  0 
 18  3  1  0  0  0  0 
 20  4  1  0  0  0  0 
 21  5  1  0  0  0  0 
 24  6  1  0  0  0  0 
 25  7  1  0  0  0  0 
M  END 
>  <HBA> 
1 
 
>  <HBD> 
1 
 
>  <TPSA> 
20.23 
 
>  <cid> 
12242 
 
>  <dipole> 
1.47 
 
>  <excitation_energy_1> 
6.369 
 
>  <excitation_energy_2> 
7.314 
 
>  <excitation_energy_3> 
7.388 
 
>  <excitation_energy_4> 
7.457 
 
>  <homo_energy> 
-7.042 
 
>  <homo_lumo_gap> 
8.833 
 
>  <logP> 
2.338 
 
>  <lumo_energy> 
1.791 
 
>  <melting_point> 
1.75 
 
>  <molecular_refractivity> 
41.77 
 
>  <oscillator_strength_1> 
0.0207 
 
>  <oscillator_strength_2> 
0.0068 
 
>  <oscillator_strength_3> 
0.0018 
 
>  <oscillator_strength_4> 
0.046 
 
>  <open_babel_can_smiles> 
CCCCCC(O)(C)C 
 
>  <mulliken_charges> 
27 
1   -0.440991 
2   -0.461717 
3   -0.452905 
4   -0.246421 
5   -0.248449 
6   -0.263674 
7   -0.254254 
8   0.306405 
9   -0.637603 
10   0.14009 
11   0.139603 
12   0.140967 
13   0.140871 
14   0.160394 
15   0.127207 
16   0.139902 
17   0.126664 
18   0.153461 
19   0.127843 
20   0.131809 
21   0.127396 
22   0.122148 
23   0.124115 
24   0.156349 
25   0.135661 
26   0.122868 
27   0.382261 
 
>  <lowdin_charges> 
27 
1   -0.447347 
2   -0.462298 
3   -0.457931 
4   -0.274589 
5   -0.276152 
6   -0.280778 
7   -0.279647 
8   0.122669 
9   -0.466477 
10   0.149162 
11   0.146479 
12   0.146922 
13   0.152585 
14   0.158685 
15   0.143721 
16   0.151689 
17   0.143099 
18   0.15653 
19   0.138807 
20   0.140818 
21   0.138596 
22   0.135687 
23   0.13764 
24   0.153676 
25   0.147848 
26   0.141512 
27   0.339093 
 
$$$$ 
 
