PCCDB-ID:  30494 
public computational chemistry database (PCCDB) project, http://pccdb.org 
 
 41 41  0  0  1  0  0  0  0  0999 V2000 
    4.0285   -2.4495    0.6177 C   0  0  0  0  0  0  0  0  0  0  0  0 
    4.0106    0.9255   -0.7715 C   0  0  0  0  0  0  0  0  0  0  0  0 
    0.0445    2.6350    3.2636 C   0  0  0  0  0  0  0  0  0  0  0  0 
    2.7988   -1.5393    0.7556 C   0  0  0  0  0  0  0  0  0  0  0  0 
    4.1899    0.6246    0.7215 C   0  0  0  0  0  0  0  0  0  0  0  0 
   -0.4649    1.4249    2.4746 C   0  0  0  0  0  0  0  0  0  0  0  0 
   -1.7178   -2.9736    0.4340 C   0  0  0  0  0  0  0  0  0  0  0  0 
   -1.3096   -3.0722    1.7643 C   0  0  0  0  0  0  0  0  0  0  0  0 
   -1.3856   -1.8325   -0.2989 C   0  0  0  0  0  0  0  0  0  0  0  0 
   -0.5720   -2.0438    2.3552 C   0  0  0  0  0  0  0  0  0  0  0  0 
   -0.6482   -0.8071    0.2940 C   0  0  0  0  0  0  0  0  0  0  0  0 
    1.7886    0.7271    1.5059 C   0  0  0  0  0  0  0  0  0  0  0  0 
   -0.2198   -0.9004    1.6274 C   0  0  0  0  0  0  0  0  0  0  0  0 
    3.0525   -0.1658    1.4156 C   0  0  0  0  0  0  0  0  0  0  0  0 
    0.5458    0.2499    2.3139 C   0  0  2  0  0  0  0  0  0  0  0  0 
    3.4659   -0.3602    2.7974 O   0  0  0  0  0  0  0  0  0  0  0  0 
    0.9175   -0.1209    3.6396 O   0  0  0  0  0  0  0  0  0  0  0  0 
    3.7297   -3.4187    0.2047 H   0  0  0  0  0  0  0  0  0  0  0  0 
    4.5058   -2.6594    1.5852 H   0  0  0  0  0  0  0  0  0  0  0  0 
    4.7934   -2.0311   -0.0451 H   0  0  0  0  0  0  0  0  0  0  0  0 
    4.8703    1.4903   -1.1488 H   0  0  0  0  0  0  0  0  0  0  0  0 
    3.1165    1.5283   -0.9644 H   0  0  0  0  0  0  0  0  0  0  0  0 
    3.9314    0.0106   -1.3692 H   0  0  0  0  0  0  0  0  0  0  0  0 
   -0.7813    3.3265    3.4671 H   0  0  0  0  0  0  0  0  0  0  0  0 
    0.8124    3.2001    2.7228 H   0  0  0  0  0  0  0  0  0  0  0  0 
    0.4667    2.3125    4.2193 H   0  0  0  0  0  0  0  0  0  0  0  0 
    2.0373   -2.0622    1.3397 H   0  0  0  0  0  0  0  0  0  0  0  0 
    2.3576   -1.3805   -0.2351 H   0  0  0  0  0  0  0  0  0  0  0  0 
    4.3207    1.5617    1.2759 H   0  0  0  0  0  0  0  0  0  0  0  0 
    5.1243    0.0636    0.8609 H   0  0  0  0  0  0  0  0  0  0  0  0 
   -0.8183    1.7337    1.4825 H   0  0  0  0  0  0  0  0  0  0  0  0 
   -1.3353    1.0054    2.9936 H   0  0  0  0  0  0  0  0  0  0  0  0 
   -2.2922   -3.7731   -0.0266 H   0  0  0  0  0  0  0  0  0  0  0  0 
   -1.5692   -3.9511    2.3496 H   0  0  0  0  0  0  0  0  0  0  0  0 
   -1.7022   -1.7380   -1.3347 H   0  0  0  0  0  0  0  0  0  0  0  0 
   -0.2597   -2.1102    3.3913 H   0  0  0  0  0  0  0  0  0  0  0  0 
   -0.4090    0.0741   -0.2964 H   0  0  0  0  0  0  0  0  0  0  0  0 
    1.4693    0.9700    0.4875 H   0  0  0  0  0  0  0  0  0  0  0  0 
    2.1229    1.6663    1.9590 H   0  0  0  0  0  0  0  0  0  0  0  0 
    4.2003   -0.9938    2.8069 H   0  0  0  0  0  0  0  0  0  0  0  0 
    1.8534   -0.3998    3.6136 H   0  0  0  0  0  0  0  0  0  0  0  0 
  1  4  1  0  0  0  0 
  1 19  1  0  0  0  0 
  2  5  1  0  0  0  0 
  3 24  1  0  0  0  0 
  3 26  1  0  0  0  0 
  4 27  1  0  0  0  0 
  4 14  1  0  0  0  0 
  5 30  1  0  0  0  0 
  5 29  1  0  0  0  0 
  5 14  1  0  0  0  0 
  6 32  1  0  0  0  0 
  6  3  1  0  0  0  0 
  7  8  2  0  0  0  0 
  8 34  1  0  0  0  0 
  8 10  1  0  0  0  0 
  9 11  2  0  0  0  0 
  9  7  1  0  0  0  0 
 10 36  1  0  0  0  0 
 11 13  1  0  0  0  0 
 12 39  1  0  0  0  0 
 12 15  1  0  0  0  0 
 13 15  1  0  0  0  0 
 13 10  2  0  0  0  0 
 14 12  1  0  0  0  0 
 14 16  1  0  0  0  0 
 15  6  1  0  0  0  0 
 15 17  1  1  0  0  0 
 16 40  1  0  0  0  0 
 18  1  1  0  0  0  0 
 20  1  1  0  0  0  0 
 21  2  1  0  0  0  0 
 22  2  1  0  0  0  0 
 23  2  1  0  0  0  0 
 25  3  1  0  0  0  0 
 28  4  1  0  0  0  0 
 31  6  1  0  0  0  0 
 33  7  1  0  0  0  0 
 35  9  1  0  0  0  0 
 37 11  1  0  0  0  0 
 38 12  1  0  0  0  0 
 41 17  1  0  0  0  0 
M  END 
>  <HBA> 
2 
 
>  <HBD> 
2 
 
>  <TPSA> 
40.46 
 
>  <cid> 
30494 
 
>  <dipole> 
3.39 
 
>  <excitation_energy_1> 
5.267 
 
>  <excitation_energy_2> 
5.703 
 
>  <excitation_energy_3> 
5.814 
 
>  <excitation_energy_4> 
5.967 
 
>  <homo_energy> 
-6.267 
 
>  <homo_lumo_gap> 
6.422 
 
>  <logP> 
3.225 
 
>  <lumo_energy> 
0.155 
 
>  <melting_point> 
57.04 
 
>  <molecular_refractivity> 
72.11 
 
>  <oscillator_strength_1> 
0.0016 
 
>  <oscillator_strength_2> 
0.001 
 
>  <oscillator_strength_3> 
0.0442 
 
>  <oscillator_strength_4> 
0.0066 
 
>  <open_babel_can_smiles> 
CC[C@@](c1ccccc1)(CC(CC)(CC)O)O 
 
>  <mulliken_charges> 
41 
1   -0.472421 
2   -0.459921 
3   -0.454449 
4   -0.277359 
5   -0.268872 
6   -0.249092 
7   -0.129962 
8   -0.129359 
9   -0.136553 
10   -0.180686 
11   -0.186452 
12   -0.324893 
13   0.119919 
14   0.299059 
15   0.262534 
16   -0.668546 
17   -0.691117 
18   0.160068 
19   0.12651 
20   0.153971 
21   0.149922 
22   0.151817 
23   0.150617 
24   0.137416 
25   0.134312 
26   0.170735 
27   0.166047 
28   0.144809 
29   0.146624 
30   0.124968 
31   0.123642 
32   0.14725 
33   0.123891 
34   0.125136 
35   0.12358 
36   0.14728 
37   0.11961 
38   0.138269 
39   0.153921 
40   0.399988 
41   0.427784 
 
>  <lowdin_charges> 
41 
1   -0.452849 
2   -0.45151 
3   -0.45314 
4   -0.298559 
5   -0.287193 
6   -0.277092 
7   -0.165774 
8   -0.157728 
9   -0.157372 
10   -0.168031 
11   -0.176297 
12   -0.297284 
13   -0.014043 
14   0.120153 
15   0.122229 
16   -0.463074 
17   -0.471846 
18   0.160556 
19   0.137091 
20   0.151168 
21   0.156274 
22   0.150563 
23   0.150097 
24   0.150071 
25   0.142296 
26   0.161481 
27   0.165421 
28   0.153077 
29   0.150975 
30   0.140202 
31   0.139911 
32   0.154626 
33   0.155997 
34   0.155628 
35   0.153088 
36   0.167561 
37   0.150714 
38   0.152286 
39   0.158596 
40   0.344823 
41   0.346906 
 
$$$$ 
 
