PCCDB-ID:  7071 
public computational chemistry database (PCCDB) project, http://pccdb.org 
 
 30 31  0  0  0  0  0  0  0  0999 V2000 
   -1.3305   -0.0574    0.1729 C   0  0  0  0  0  0  0  0  0  0  0  0 
   -0.6520   -3.7261    0.1513 C   0  0  0  0  0  0  0  0  0  0  0  0 
   -0.6912    1.1704    0.3216 C   0  0  0  0  0  0  0  0  0  0  0  0 
   -1.2964   -4.9549    0.0374 C   0  0  0  0  0  0  0  0  0  0  0  0 
    0.7811   -1.0886   -0.3063 C   0  0  0  0  0  0  0  0  0  0  0  0 
   -2.5544   -2.6480   -0.8337 C   0  0  0  0  0  0  0  0  0  0  0  0 
   -0.6069   -1.2224   -0.1260 C   0  0  0  0  0  0  0  0  0  0  0  0 
   -1.2738   -2.5381   -0.2637 C   0  0  0  0  0  0  0  0  0  0  0  0 
    0.6965    1.2901    0.1728 C   0  0  0  0  0  0  0  0  0  0  0  0 
   -2.5861   -5.0526   -0.5002 C   0  0  0  0  0  0  0  0  0  0  0  0 
    1.4352    0.1348   -0.1740 C   0  0  0  0  0  0  0  0  0  0  0  0 
   -3.2085   -3.8714   -0.9671 C   0  0  0  0  0  0  0  0  0  0  0  0 
    1.3518    2.4983    0.4126 N   0  0  0  0  0  0  0  0  0  0  0  0 
   -3.2715   -6.2676   -0.5280 N   0  0  0  0  0  0  0  0  0  0  0  0 
    2.8454    0.2706   -0.3504 N   0  0  0  0  0  0  0  0  0  0  0  0 
   -4.5114   -3.9826   -1.5392 N   0  0  0  0  0  0  0  0  0  0  0  0 
   -2.4023   -0.1188    0.3393 H   0  0  0  0  0  0  0  0  0  0  0  0 
    0.3300   -3.6848    0.6142 H   0  0  0  0  0  0  0  0  0  0  0  0 
   -1.2665    2.0505    0.6007 H   0  0  0  0  0  0  0  0  0  0  0  0 
   -0.8142   -5.8562    0.4097 H   0  0  0  0  0  0  0  0  0  0  0  0 
    1.3643   -1.9588   -0.6012 H   0  0  0  0  0  0  0  0  0  0  0  0 
   -3.0393   -1.7559   -1.2253 H   0  0  0  0  0  0  0  0  0  0  0  0 
    0.8820    3.3427    0.1183 H   0  0  0  0  0  0  0  0  0  0  0  0 
    2.3474    2.4956    0.2437 H   0  0  0  0  0  0  0  0  0  0  0  0 
   -2.7307   -7.0965   -0.7298 H   0  0  0  0  0  0  0  0  0  0  0  0 
   -4.1810   -6.2470   -0.9662 H   0  0  0  0  0  0  0  0  0  0  0  0 
    3.2886   -0.6353   -0.4741 H   0  0  0  0  0  0  0  0  0  0  0  0 
    3.0673    0.8332   -1.1718 H   0  0  0  0  0  0  0  0  0  0  0  0 
   -4.9081   -3.0668   -1.7299 H   0  0  0  0  0  0  0  0  0  0  0  0 
   -4.4920   -4.4968   -2.4198 H   0  0  0  0  0  0  0  0  0  0  0  0 
  1  3  1  0  0  0  0 
  1 17  1  0  0  0  0 
  2 18  1  0  0  0  0 
  3 19  1  0  0  0  0 
  4  2  1  0  0  0  0 
  4 20  1  0  0  0  0 
  5 11  2  0  0  0  0 
  5  7  1  0  0  0  0 
  6  8  1  0  0  0  0 
  7  1  2  0  0  0  0 
  8  7  1  0  0  0  0 
  8  2  2  0  0  0  0 
  9  3  2  0  0  0  0 
  9 13  1  0  0  0  0 
 10  4  2  0  0  0  0 
 11  9  1  0  0  0  0 
 12  6  2  0  0  0  0 
 12 10  1  0  0  0  0 
 14 10  1  0  0  0  0 
 15 11  1  0  0  0  0 
 16 12  1  0  0  0  0 
 21  5  1  0  0  0  0 
 22  6  1  0  0  0  0 
 23 13  1  0  0  0  0 
 24 13  1  0  0  0  0 
 25 14  1  0  0  0  0 
 26 14  1  0  0  0  0 
 27 15  1  0  0  0  0 
 28 15  1  0  0  0  0 
 29 16  1  0  0  0  0 
 30 16  1  0  0  0  0 
M  END 
>  <HBA> 
4 
 
>  <HBD> 
4 
 
>  <TPSA> 
104.08 
 
>  <cid> 
7071 
 
>  <dipole> 
4.38 
 
>  <excitation_energy_1> 
3.919 
 
>  <excitation_energy_2> 
4.026 
 
>  <excitation_energy_3> 
4.09 
 
>  <excitation_energy_4> 
4.116 
 
>  <homo_energy> 
-4.455 
 
>  <homo_lumo_gap> 
4.566 
 
>  <logP> 
4.007 
 
>  <lumo_energy> 
0.112 
 
>  <melting_point> 
241.22 
 
>  <molecular_refractivity> 
69.5 
 
>  <oscillator_strength_1> 
0.0633 
 
>  <oscillator_strength_2> 
0.0129 
 
>  <oscillator_strength_3> 
0.4099 
 
>  <oscillator_strength_4> 
0.0004 
 
>  <open_babel_can_smiles> 
Nc1ccc(cc1N)c1ccc(c(c1)N)N 
 
>  <mulliken_charges> 
30 
1   -0.189893 
2   -0.190286 
3   -0.188919 
4   -0.188799 
5   -0.244131 
6   -0.244572 
7   0.088312 
8   0.088994 
9   0.29616 
10   0.296354 
11   0.240527 
12   0.241567 
13   -0.808702 
14   -0.809104 
15   -0.808122 
16   -0.808456 
17   0.119712 
18   0.119669 
19   0.113987 
20   0.113848 
21   0.111819 
22   0.111751 
23   0.317854 
24   0.328547 
25   0.317965 
26   0.32844 
27   0.315505 
28   0.307205 
29   0.315602 
30   0.307164 
 
>  <lowdin_charges> 
30 
1   -0.168294 
2   -0.169435 
3   -0.194495 
4   -0.194398 
5   -0.194874 
6   -0.194992 
7   -0.018439 
8   -0.018552 
9   0.037671 
10   0.037042 
11   0.008444 
12   0.008818 
13   -0.49522 
14   -0.496524 
15   -0.518924 
16   -0.517531 
17   0.153184 
18   0.154277 
19   0.152592 
20   0.152367 
21   0.151446 
22   0.151286 
23   0.276902 
24   0.277168 
25   0.277053 
26   0.278488 
27   0.268607 
28   0.264204 
29   0.268509 
30   0.263619 
 
$$$$ 
 
