PCCDB-ID:  69813 
public computational chemistry database (PCCDB) project, http://pccdb.org 
 
 19 18  0  0  0  0  0  0  0  0999 V2000 
    1.3577    1.1785   -1.3733 C   0  0  0  0  0  0  0  0  0  0  0  0 
    5.6617    3.6629    0.9886 C   0  0  0  0  0  0  0  0  0  0  0  0 
    6.9395    1.5236    0.5095 C   0  0  0  0  0  0  0  0  0  0  0  0 
    2.4097    1.9395   -1.0703 C   0  0  0  0  0  0  0  0  0  0  0  0 
    3.0440    2.0418    0.2976 C   0  0  0  0  0  0  0  0  0  0  0  0 
    4.4694    1.5396    0.2947 C   0  0  0  0  0  0  0  0  0  0  0  0 
    5.5960    2.2119    0.5777 C   0  0  0  0  0  0  0  0  0  0  0  0 
    0.9503    1.1379   -2.3801 H   0  0  0  0  0  0  0  0  0  0  0  0 
    0.8603    0.5663   -0.6232 H   0  0  0  0  0  0  0  0  0  0  0  0 
    6.2971    4.2325    0.2962 H   0  0  0  0  0  0  0  0  0  0  0  0 
    6.1203    3.7629    1.9823 H   0  0  0  0  0  0  0  0  0  0  0  0 
    4.6848    4.1507    1.0223 H   0  0  0  0  0  0  0  0  0  0  0  0 
    7.6054    2.0255   -0.2067 H   0  0  0  0  0  0  0  0  0  0  0  0 
    6.8471    0.4752    0.2091 H   0  0  0  0  0  0  0  0  0  0  0  0 
    7.4504    1.5554    1.4823 H   0  0  0  0  0  0  0  0  0  0  0  0 
    2.8846    2.5326   -1.8531 H   0  0  0  0  0  0  0  0  0  0  0  0 
    2.4486    1.4509    1.0087 H   0  0  0  0  0  0  0  0  0  0  0  0 
    2.9993    3.0822    0.6421 H   0  0  0  0  0  0  0  0  0  0  0  0 
    4.5669    0.4924    0.0049 H   0  0  0  0  0  0  0  0  0  0  0  0 
  1  4  2  0  0  0  0 
  1  9  1  0  0  0  0 
  2 12  1  0  0  0  0 
  2 11  1  0  0  0  0 
  3  7  1  0  0  0  0 
  3 15  1  0  0  0  0 
  4  5  1  0  0  0  0 
  5 18  1  0  0  0  0 
  5 17  1  0  0  0  0 
  6  5  1  0  0  0  0 
  6  7  2  0  0  0  0 
  7  2  1  0  0  0  0 
  8  1  1  0  0  0  0 
 10  2  1  0  0  0  0 
 13  3  1  0  0  0  0 
 14  3  1  0  0  0  0 
 16  4  1  0  0  0  0 
 19  6  1  0  0  0  0 
M  END 
>  <HBA> 
0 
 
>  <HBD> 
0 
 
>  <TPSA> 
0.0 
 
>  <cid> 
69813 
 
>  <dipole> 
0.61 
 
>  <excitation_energy_1> 
5.691 
 
>  <excitation_energy_2> 
5.853 
 
>  <excitation_energy_3> 
6.277 
 
>  <excitation_energy_4> 
6.403 
 
>  <homo_energy> 
-6.234 
 
>  <homo_lumo_gap> 
6.61 
 
>  <logP> 
2.529 
 
>  <lumo_energy> 
0.376 
 
>  <melting_point> 
-34.62 
 
>  <molecular_refractivity> 
34.81 
 
>  <oscillator_strength_1> 
0.1468 
 
>  <oscillator_strength_2> 
0.0361 
 
>  <oscillator_strength_3> 
0.0961 
 
>  <oscillator_strength_4> 
0.0922 
 
>  <open_babel_can_smiles> 
C=CCC=C(C)C 
 
>  <mulliken_charges> 
19 
1   -0.341422 
2   -0.513297 
3   -0.50519 
4   -0.036723 
5   -0.35176 
6   -0.158455 
7   0.187499 
8   0.137613 
9   0.133245 
10   0.152357 
11   0.15316 
12   0.153698 
13   0.149139 
14   0.152401 
15   0.149205 
16   0.128012 
17   0.145541 
18   0.146925 
19   0.118051 
 
>  <lowdin_charges> 
19 
1   -0.34688 
2   -0.445616 
3   -0.43857 
4   -0.142864 
5   -0.270848 
6   -0.188818 
7   -0.008674 
8   0.157023 
9   0.15408 
10   0.156761 
11   0.155338 
12   0.154543 
13   0.153717 
14   0.153752 
15   0.152302 
16   0.152028 
17   0.153891 
18   0.151746 
19   0.147089 
 
$$$$ 
 
