PCCDB-ID:  69999 
public computational chemistry database (PCCDB) project, http://pccdb.org 
 
 19 20  0  0  0  0  0  0  0  0999 V2000 
   -1.5088   -0.0691    0.0526 C   0  0  0  0  0  0  0  0  0  0  0  0 
   -0.8689    1.1710    0.0897 C   0  0  0  0  0  0  0  0  0  0  0  0 
   -0.7424   -1.2340   -0.0274 C   0  0  0  0  0  0  0  0  0  0  0  0 
    5.0150   -0.3801   -0.5517 C   0  0  0  0  0  0  0  0  0  0  0  0 
    0.5214    1.2474    0.0392 C   0  0  0  0  0  0  0  0  0  0  0  0 
    0.6479   -1.1608   -0.0655 C   0  0  0  0  0  0  0  0  0  0  0  0 
    3.6446   -0.7485   -0.6814 C   0  0  0  0  0  0  0  0  0  0  0  0 
    5.1862    0.7934    0.1294 C   0  0  0  0  0  0  0  0  0  0  0  0 
    1.3060    0.0829   -0.0394 C   0  0  0  0  0  0  0  0  0  0  0  0 
    2.7724    0.1438   -0.1002 C   0  0  0  0  0  0  0  0  0  0  0  0 
    3.6684    1.4643    0.6317 S   0  0  0  0  0  0  0  0  0  0  0  0 
   -2.5931   -0.1278    0.0887 H   0  0  0  0  0  0  0  0  0  0  0  0 
   -1.4537    2.0850    0.1496 H   0  0  0  0  0  0  0  0  0  0  0  0 
   -1.2285   -2.2059   -0.0478 H   0  0  0  0  0  0  0  0  0  0  0  0 
    5.8365   -0.9615   -0.9565 H   0  0  0  0  0  0  0  0  0  0  0  0 
    1.0053    2.2205    0.0413 H   0  0  0  0  0  0  0  0  0  0  0  0 
    1.2351   -2.0739   -0.0937 H   0  0  0  0  0  0  0  0  0  0  0  0 
    3.3101   -1.6310   -1.2161 H   0  0  0  0  0  0  0  0  0  0  0  0 
    6.1098    1.3023    0.3704 H   0  0  0  0  0  0  0  0  0  0  0  0 
  1 12  1  0  0  0  0 
  1  2  1  0  0  0  0 
  2 13  1  0  0  0  0 
  3  1  2  0  0  0  0 
  4  8  2  0  0  0  0 
  5 16  1  0  0  0  0 
  5  2  2  0  0  0  0 
  6  9  2  0  0  0  0 
  6  3  1  0  0  0  0 
  7  4  1  0  0  0  0 
  7 10  2  0  0  0  0 
  8 19  1  0  0  0  0 
  8 11  1  0  0  0  0 
  9  5  1  0  0  0  0 
 10  9  1  0  0  0  0 
 10 11  1  0  0  0  0 
 14  3  1  0  0  0  0 
 15  4  1  0  0  0  0 
 17  6  1  0  0  0  0 
 18  7  1  0  0  0  0 
M  END 
>  <HBA> 
1 
 
>  <HBD> 
0 
 
>  <TPSA> 
28.24 
 
>  <cid> 
69999 
 
>  <dipole> 
0.61 
 
>  <excitation_energy_1> 
4.338 
 
>  <excitation_energy_2> 
4.652 
 
>  <excitation_energy_3> 
5.101 
 
>  <excitation_energy_4> 
5.244 
 
>  <homo_energy> 
-5.739 
 
>  <homo_lumo_gap> 
4.778 
 
>  <logP> 
3.415 
 
>  <lumo_energy> 
-0.961 
 
>  <melting_point> 
39.82 
 
>  <molecular_refractivity> 
49.76 
 
>  <oscillator_strength_1> 
0.4258 
 
>  <oscillator_strength_2> 
0.0022 
 
>  <oscillator_strength_3> 
0.029 
 
>  <oscillator_strength_4> 
0.0297 
 
>  <open_babel_can_smiles> 
c1ccc(cc1)c1cccs1 
 
>  <mulliken_charges> 
19 
1   -0.126939 
2   -0.131884 
3   -0.133092 
4   -0.101544 
5   -0.194777 
6   -0.170488 
7   -0.119598 
8   -0.342166 
9   0.165965 
10   -0.223853 
11   0.253027 
12   0.130966 
13   0.132896 
14   0.131834 
15   0.141168 
16   0.144593 
17   0.132296 
18   0.140141 
19   0.171457 
 
>  <lowdin_charges> 
19 
1   -0.155251 
2   -0.152995 
3   -0.152952 
4   -0.180587 
5   -0.162684 
6   -0.158225 
7   -0.189362 
8   -0.321172 
9   0.00138 
10   -0.150524 
11   0.306706 
12   0.156712 
13   0.159885 
14   0.158813 
15   0.166624 
16   0.164533 
17   0.16042 
18   0.165743 
19   0.182936 
 
$$$$ 
 
