PCCDB-ID:  54212 
public computational chemistry database (PCCDB) project, http://pccdb.org 
 
 32 33  0  0  1  0  0  0  0  0999 V2000 
    3.1544   -1.7772   -2.1398 C   0  0  0  0  0  0  0  0  0  0  0  0 
   -2.9790    1.6003   -0.9371 C   0  0  0  0  0  0  0  0  0  0  0  0 
   -3.7776    1.2674    0.1582 C   0  0  0  0  0  0  0  0  0  0  0  0 
   -1.8532    0.8270   -1.2230 C   0  0  0  0  0  0  0  0  0  0  0  0 
   -3.4452    0.1718    0.9549 C   0  0  0  0  0  0  0  0  0  0  0  0 
   -1.5212   -0.2676   -0.4222 C   0  0  0  0  0  0  0  0  0  0  0  0 
   -1.2981   -2.9798    0.8955 C   0  0  0  0  0  0  0  0  0  0  0  0 
   -1.0981   -1.3620    2.7888 C   0  0  0  0  0  0  0  0  0  0  0  0 
   -2.3133   -0.6110    0.6831 C   0  0  0  0  0  0  0  0  0  0  0  0 
   -1.9869   -1.7836    1.5972 C   0  0  1  0  0  0  0  0  0  0  0  0 
    0.7965   -2.0238    1.3924 C   0  0  0  0  0  0  0  0  0  0  0  0 
    2.8273   -1.8691    0.2240 C   0  0  0  0  0  0  0  0  0  0  0  0 
    0.1439   -2.8745    0.6864 N   0  0  0  0  0  0  0  0  0  0  0  0 
    0.2563   -1.1435    2.3129 N   0  0  0  0  0  0  0  0  0  0  0  0 
    2.1973   -1.9057    1.3317 N   0  0  0  0  0  0  0  0  0  0  0  0 
    4.1793   -1.8799    0.2186 O   0  0  0  0  0  0  0  0  0  0  0  0 
    2.2914   -1.7769   -0.9910 O   0  0  0  0  0  0  0  0  0  0  0  0 
    2.4812   -1.7249   -2.9958 H   0  0  0  0  0  0  0  0  0  0  0  0 
    3.7454   -2.6956   -2.1817 H   0  0  0  0  0  0  0  0  0  0  0  0 
    3.8218   -0.9112   -2.1300 H   0  0  0  0  0  0  0  0  0  0  0  0 
   -3.2349    2.4508   -1.5638 H   0  0  0  0  0  0  0  0  0  0  0  0 
   -4.6630    1.8549    0.3886 H   0  0  0  0  0  0  0  0  0  0  0  0 
   -1.2266    1.0747   -2.0765 H   0  0  0  0  0  0  0  0  0  0  0  0 
   -4.0791   -0.0854    1.8020 H   0  0  0  0  0  0  0  0  0  0  0  0 
   -0.6448   -0.8624   -0.6612 H   0  0  0  0  0  0  0  0  0  0  0  0 
   -1.7703   -3.1469   -0.0808 H   0  0  0  0  0  0  0  0  0  0  0  0 
   -1.4930   -3.8899    1.4831 H   0  0  0  0  0  0  0  0  0  0  0  0 
   -1.1355   -2.1513    3.5583 H   0  0  0  0  0  0  0  0  0  0  0  0 
   -1.4698   -0.4365    3.2409 H   0  0  0  0  0  0  0  0  0  0  0  0 
   -2.9343   -2.1408    2.0218 H   0  0  0  0  0  0  0  0  0  0  0  0 
    0.9240   -0.7199    2.9415 H   0  0  0  0  0  0  0  0  0  0  0  0 
    4.4367   -1.9656    1.1536 H   0  0  0  0  0  0  0  0  0  0  0  0 
  1 20  1  0  0  0  0 
  1 17  1  0  0  0  0 
  2  3  1  0  0  0  0 
  3 22  1  0  0  0  0 
  3  5  2  0  0  0  0 
  4  2  2  0  0  0  0 
  4  6  1  0  0  0  0 
  5 24  1  0  0  0  0 
  6  9  2  0  0  0  0 
  7 27  1  0  0  0  0 
  7 10  1  0  0  0  0 
  8 29  1  0  0  0  0 
  8 28  1  0  0  0  0 
  9  5  1  0  0  0  0 
  9 10  1  0  0  0  0 
 10 30  1  1  0  0  0 
 10  8  1  0  0  0  0 
 11 14  1  0  0  0  0 
 12 15  2  0  0  0  0 
 13  7  1  0  0  0  0 
 13 11  2  0  0  0  0 
 14  8  1  0  0  0  0 
 14 31  1  0  0  0  0 
 15 11  1  0  0  0  0 
 16 12  1  0  0  0  0 
 16 32  1  0  0  0  0 
 17 12  1  0  0  0  0 
 18  1  1  0  0  0  0 
 19  1  1  0  0  0  0 
 21  2  1  0  0  0  0 
 23  4  1  0  0  0  0 
 25  6  1  0  0  0  0 
 26  7  1  0  0  0  0 
M  END 
>  <HBA> 
5 
 
>  <HBD> 
2 
 
>  <TPSA> 
62.72 
 
>  <cid> 
54212 
 
>  <dipole> 
2.36 
 
>  <excitation_energy_1> 
4.839 
 
>  <excitation_energy_2> 
4.942 
 
>  <excitation_energy_3> 
4.996 
 
>  <excitation_energy_4> 
5.152 
 
>  <homo_energy> 
-5.437 
 
>  <homo_lumo_gap> 
5.714 
 
>  <logP> 
1.241 
 
>  <lumo_energy> 
0.278 
 
>  <melting_point> 
121.41 
 
>  <molecular_refractivity> 
71.53 
 
>  <oscillator_strength_1> 
0.0204 
 
>  <oscillator_strength_2> 
0.0116 
 
>  <oscillator_strength_3> 
0.0014 
 
>  <oscillator_strength_4> 
0.0158 
 
>  <open_babel_can_smiles> 
CO/C(=N\C1=NC[C@@H](CN1)c1ccccc1)/O 
 
>  <mulliken_charges> 
32 
1   -0.213034 
2   -0.129959 
3   -0.128766 
4   -0.137233 
5   -0.187194 
6   -0.187457 
7   -0.151104 
8   -0.113276 
9   0.175535 
10   -0.21541 
11   0.605986 
12   0.759906 
13   -0.469195 
14   -0.59634 
15   -0.586768 
16   -0.59933 
17   -0.43416 
18   0.177177 
19   0.173955 
20   0.169519 
21   0.121826 
22   0.122473 
23   0.121666 
24   0.115082 
25   0.161704 
26   0.145364 
27   0.136172 
28   0.137405 
29   0.1476 
30   0.128943 
31   0.321919 
32   0.426997 
 
>  <lowdin_charges> 
32 
1   -0.271105 
2   -0.164319 
3   -0.160304 
4   -0.158149 
5   -0.172573 
6   -0.165508 
7   -0.205686 
8   -0.19275 
9   -0.002123 
10   -0.144374 
11   0.124516 
12   0.224652 
13   -0.275119 
14   -0.304826 
15   -0.266556 
16   -0.358072 
17   -0.161357 
18   0.168025 
19   0.160748 
20   0.158044 
21   0.15452 
22   0.154457 
23   0.154145 
24   0.150072 
25   0.173176 
26   0.1482 
27   0.142316 
28   0.133478 
29   0.151211 
30   0.150003 
31   0.283032 
32   0.372222 
 
$$$$ 
 
