PCCDB-ID:  70388 
public computational chemistry database (PCCDB) project, http://pccdb.org 
 
 34 34  0  0  0  0  0  0  0  0999 V2000 
    3.6481   -0.8306    3.3991 C   0  0  0  0  0  0  0  0  0  0  0  0 
    4.2014    3.1395   -2.1355 C   0  0  0  0  0  0  0  0  0  0  0  0 
    4.9796   -0.7137    2.9928 C   0  0  0  0  0  0  0  0  0  0  0  0 
    2.7808    0.2527    3.2525 C   0  0  0  0  0  0  0  0  0  0  0  0 
    4.1957    3.5796   -3.6074 C   0  0  0  0  0  0  0  0  0  0  0  0 
    3.2661    3.9407   -1.2209 C   0  0  0  0  0  0  0  0  0  0  0  0 
    5.4413    0.4795    2.4419 C   0  0  0  0  0  0  0  0  0  0  0  0 
    3.2369    1.4443    2.6888 C   0  0  0  0  0  0  0  0  0  0  0  0 
    4.7691    4.9804   -3.8403 C   0  0  0  0  0  0  0  0  0  0  0  0 
    3.2522    3.4286    0.2267 C   0  0  0  0  0  0  0  0  0  0  0  0 
    4.5700    1.5673    2.2707 C   0  0  0  0  0  0  0  0  0  0  0  0 
    4.8207    5.3634   -5.3147 C   0  0  0  0  0  0  0  0  0  0  0  0 
    5.0819    2.8312    1.6715 C   0  0  0  0  0  0  0  0  0  0  0  0 
    4.5486    3.6429    0.8482 N   0  0  0  0  0  0  0  0  0  0  0  0 
    4.4670    4.6593   -6.2259 O   0  0  0  0  0  0  0  0  0  0  0  0 
    5.3133    6.6099   -5.5730 O   0  0  0  0  0  0  0  0  0  0  0  0 
    6.3468    3.1050    2.1077 O   0  0  0  0  0  0  0  0  0  0  0  0 
    3.2905   -1.7600    3.8339 H   0  0  0  0  0  0  0  0  0  0  0  0 
    5.2228    3.1920   -1.7346 H   0  0  0  0  0  0  0  0  0  0  0  0 
    3.9115    2.0801   -2.0928 H   0  0  0  0  0  0  0  0  0  0  0  0 
    5.6614   -1.5513    3.1124 H   0  0  0  0  0  0  0  0  0  0  0  0 
    1.7480    0.1736    3.5805 H   0  0  0  0  0  0  0  0  0  0  0  0 
    3.1752    3.5435   -4.0087 H   0  0  0  0  0  0  0  0  0  0  0  0 
    4.7763    2.8685   -4.2057 H   0  0  0  0  0  0  0  0  0  0  0  0 
    2.2407    3.8971   -1.6151 H   0  0  0  0  0  0  0  0  0  0  0  0 
    3.5578    4.9986   -1.2031 H   0  0  0  0  0  0  0  0  0  0  0  0 
    6.4781    0.5787    2.1388 H   0  0  0  0  0  0  0  0  0  0  0  0 
    2.5625    2.2896    2.6007 H   0  0  0  0  0  0  0  0  0  0  0  0 
    5.7893    5.0491   -3.4322 H   0  0  0  0  0  0  0  0  0  0  0  0 
    4.1818    5.7439   -3.3110 H   0  0  0  0  0  0  0  0  0  0  0  0 
    2.9409    2.3726    0.2390 H   0  0  0  0  0  0  0  0  0  0  0  0 
    2.4907    3.9918    0.7867 H   0  0  0  0  0  0  0  0  0  0  0  0 
    5.5569    7.0479   -4.7406 H   0  0  0  0  0  0  0  0  0  0  0  0 
    6.6056    3.9140    1.6273 H   0  0  0  0  0  0  0  0  0  0  0  0 
  1 18  1  0  0  0  0 
  2 20  1  0  0  0  0 
  2 19  1  0  0  0  0 
  2  6  1  0  0  0  0 
  3 21  1  0  0  0  0 
  3  1  2  0  0  0  0 
  4  1  1  0  0  0  0 
  4 22  1  0  0  0  0 
  5  2  1  0  0  0  0 
  6 26  1  0  0  0  0 
  6 10  1  0  0  0  0 
  7  3  1  0  0  0  0 
  8  4  2  0  0  0  0 
  9  5  1  0  0  0  0 
  9 29  1  0  0  0  0 
  9 30  1  0  0  0  0 
 10 31  1  0  0  0  0 
 10 32  1  0  0  0  0 
 10 14  1  0  0  0  0 
 11  7  2  0  0  0  0 
 11  8  1  0  0  0  0 
 12  9  1  0  0  0  0 
 13 17  1  0  0  0  0 
 13 11  1  0  0  0  0 
 14 13  2  0  0  0  0 
 15 12  2  0  0  0  0 
 16 12  1  0  0  0  0 
 16 33  1  0  0  0  0 
 23  5  1  0  0  0  0 
 24  5  1  0  0  0  0 
 25  6  1  0  0  0  0 
 27  7  1  0  0  0  0 
 28  8  1  0  0  0  0 
 34 17  1  0  0  0  0 
M  END 
>  <HBA> 
4 
 
>  <HBD> 
2 
 
>  <TPSA> 
66.4 
 
>  <cid> 
70388 
 
>  <dipole> 
4.38 
 
>  <excitation_energy_1> 
4.875 
 
>  <excitation_energy_2> 
5.092 
 
>  <excitation_energy_3> 
5.215 
 
>  <excitation_energy_4> 
5.743 
 
>  <homo_energy> 
-6.71 
 
>  <homo_lumo_gap> 
5.763 
 
>  <logP> 
2.452 
 
>  <lumo_energy> 
-0.947 
 
>  <melting_point> 
139.23 
 
>  <molecular_refractivity> 
65.25 
 
>  <oscillator_strength_1> 
0.003 
 
>  <oscillator_strength_2> 
0.0184 
 
>  <oscillator_strength_3> 
0.2306 
 
>  <oscillator_strength_4> 
0.0002 
 
>  <open_babel_can_smiles> 
O/C(=N/CCCCCC(=O)O)/c1ccccc1 
 
>  <mulliken_charges> 
34 
1   -0.120343 
2   -0.262405 
3   -0.134136 
4   -0.138199 
5   -0.248886 
6   -0.255911 
7   -0.151591 
8   -0.163202 
9   -0.40512 
10   -0.153558 
11   0.103288 
12   0.606191 
13   0.421712 
14   -0.468185 
15   -0.437416 
16   -0.57015 
17   -0.592524 
18   0.137317 
19   0.139546 
20   0.132929 
21   0.137986 
22   0.137257 
23   0.151087 
24   0.155899 
25   0.127925 
26   0.13535 
27   0.154093 
28   0.146694 
29   0.1634 
30   0.166326 
31   0.136419 
32   0.139934 
33   0.406988 
34   0.401284 
 
>  <lowdin_charges> 
34 
1   -0.145495 
2   -0.276227 
3   -0.154922 
4   -0.153999 
5   -0.269447 
6   -0.278639 
7   -0.138315 
8   -0.151084 
9   -0.325394 
10   -0.201089 
11   -0.029353 
12   0.199076 
13   0.135275 
14   -0.241644 
15   -0.237984 
16   -0.364839 
17   -0.373332 
18   0.161654 
19   0.142776 
20   0.142601 
21   0.162612 
22   0.160267 
23   0.150956 
24   0.158306 
25   0.140094 
26   0.139971 
27   0.169862 
28   0.166783 
29   0.159794 
30   0.162024 
31   0.13428 
32   0.144868 
33   0.356512 
34   0.354051 
 
$$$$ 
 
