PCCDB-ID:  38065 
public computational chemistry database (PCCDB) project, http://pccdb.org 
 
 35 35  0  0  1  0  0  0  0  0999 V2000 
    2.7458   -1.4849    0.4548 C   0  0  0  0  0  0  0  0  0  0  0  0 
    5.0527   -2.5098    0.4465 C   0  0  0  0  0  0  0  0  0  0  0  0 
    4.5414    7.9383   -0.2504 C   0  0  0  0  0  0  0  0  0  0  0  0 
    3.9553    7.3541   -1.3741 C   0  0  0  0  0  0  0  0  0  0  0  0 
    5.2527    7.1408    0.6421 C   0  0  0  0  0  0  0  0  0  0  0  0 
    4.0673    5.9834   -1.6167 C   0  0  0  0  0  0  0  0  0  0  0  0 
    6.1208    4.9380    1.3204 C   0  0  0  0  0  0  0  0  0  0  0  0 
    4.2083    0.9633   -0.7440 C   0  0  0  0  0  0  0  0  0  0  0  0 
    4.4706    3.1623   -2.0222 C   0  0  0  0  0  0  0  0  0  0  0  0 
    4.2531   -1.2040    0.4390 C   0  0  0  0  0  0  0  0  0  0  0  0 
    5.3784    5.7627    0.4170 C   0  0  0  0  0  0  0  0  0  0  0  0 
    4.9092    1.7053   -1.8884 C   0  0  1  0  0  0  0  0  0  0  0  0 
    4.7773    5.1771   -0.7224 C   0  0  0  0  0  0  0  0  0  0  0  0 
    6.7320    4.2722    2.0535 N   0  0  0  0  0  0  0  0  0  0  0  0 
    4.6236   -0.4338   -0.7558 N   0  0  0  0  0  0  0  0  0  0  0  0 
    6.3269    1.6281   -1.7646 O   0  0  0  0  0  0  0  0  0  0  0  0 
    4.9416    3.8383   -0.8492 O   0  0  0  0  0  0  0  0  0  0  0  0 
    2.4726   -2.0670    1.3422 H   0  0  0  0  0  0  0  0  0  0  0  0 
    2.4573   -2.0510   -0.4384 H   0  0  0  0  0  0  0  0  0  0  0  0 
    2.1580   -0.5606    0.4752 H   0  0  0  0  0  0  0  0  0  0  0  0 
    4.7990   -3.1184    1.3210 H   0  0  0  0  0  0  0  0  0  0  0  0 
    6.1319   -2.3138    0.4773 H   0  0  0  0  0  0  0  0  0  0  0  0 
    4.8392   -3.0927   -0.4569 H   0  0  0  0  0  0  0  0  0  0  0  0 
    4.4458    9.0042   -0.0711 H   0  0  0  0  0  0  0  0  0  0  0  0 
    3.3990    7.9681   -2.0768 H   0  0  0  0  0  0  0  0  0  0  0  0 
    5.7212    7.5718    1.5210 H   0  0  0  0  0  0  0  0  0  0  0  0 
    3.6020    5.5511   -2.4945 H   0  0  0  0  0  0  0  0  0  0  0  0 
    3.1224    1.0297   -0.8935 H   0  0  0  0  0  0  0  0  0  0  0  0 
    4.4310    1.4775    0.2115 H   0  0  0  0  0  0  0  0  0  0  0  0 
    3.3781    3.2452   -2.0948 H   0  0  0  0  0  0  0  0  0  0  0  0 
    4.9291    3.6121   -2.9113 H   0  0  0  0  0  0  0  0  0  0  0  0 
    4.5019   -0.6424    1.3622 H   0  0  0  0  0  0  0  0  0  0  0  0 
    4.6701    1.1938   -2.8276 H   0  0  0  0  0  0  0  0  0  0  0  0 
    5.6393   -0.4362   -0.8474 H   0  0  0  0  0  0  0  0  0  0  0  0 
    6.5677    2.1849   -1.0035 H   0  0  0  0  0  0  0  0  0  0  0  0 
  1 20  1  0  0  0  0 
  1 18  1  0  0  0  0 
  2 22  1  0  0  0  0 
  2 21  1  0  0  0  0 
  3 24  1  0  0  0  0 
  3  5  2  0  0  0  0 
  4  3  1  0  0  0  0 
  5 26  1  0  0  0  0 
  6  4  2  0  0  0  0 
  6 13  1  0  0  0  0 
  7 14  3  0  0  0  0 
  8 29  1  0  0  0  0 
  9 12  1  0  0  0  0 
  9 17  1  0  0  0  0 
 10  2  1  0  0  0  0 
 10  1  1  0  0  0  0 
 10 32  1  0  0  0  0 
 11  5  1  0  0  0  0 
 11  7  1  0  0  0  0 
 12 33  1  6  0  0  0 
 12 16  1  0  0  0  0 
 12  8  1  0  0  0  0 
 13 11  2  0  0  0  0 
 15  8  1  0  0  0  0 
 15 10  1  0  0  0  0 
 16 35  1  0  0  0  0 
 17 13  1  0  0  0  0 
 19  1  1  0  0  0  0 
 23  2  1  0  0  0  0 
 25  4  1  0  0  0  0 
 27  6  1  0  0  0  0 
 28  8  1  0  0  0  0 
 30  9  1  0  0  0  0 
 31  9  1  0  0  0  0 
 34 15  1  0  0  0  0 
M  END 
>  <HBA> 
4 
 
>  <HBD> 
2 
 
>  <TPSA> 
65.28 
 
>  <cid> 
38065 
 
>  <dipole> 
5.09 
 
>  <excitation_energy_1> 
3.973 
 
>  <excitation_energy_2> 
4.598 
 
>  <excitation_energy_3> 
4.947 
 
>  <excitation_energy_4> 
5.341 
 
>  <homo_energy> 
-5.867 
 
>  <homo_lumo_gap> 
4.441 
 
>  <logP> 
1.687 
 
>  <lumo_energy> 
-1.426 
 
>  <melting_point> 
89.64 
 
>  <molecular_refractivity> 
65.65 
 
>  <oscillator_strength_1> 
0.0014 
 
>  <oscillator_strength_2> 
0.0855 
 
>  <oscillator_strength_3> 
0.0049 
 
>  <oscillator_strength_4> 
0.0001 
 
>  <open_babel_can_smiles> 
N#Cc1ccccc1OC[C@H](CNC(C)C)O 
 
>  <mulliken_charges> 
35 
1   -0.437706 
2   -0.456614 
3   -0.138189 
4   -0.122583 
5   -0.139888 
6   -0.195881 
7   0.259145 
8   -0.125404 
9   -0.060377 
10   0.068287 
11   0.067776 
12   0.093896 
13   0.389481 
14   -0.486454 
15   -0.571216 
16   -0.630299 
17   -0.535435 
18   0.138272 
19   0.148706 
20   0.139501 
21   0.143204 
22   0.14023 
23   0.153465 
24   0.1448 
25   0.147043 
26   0.161744 
27   0.151689 
28   0.132653 
29   0.130055 
30   0.14821 
31   0.161294 
32   0.106414 
33   0.157863 
34   0.3076 
35   0.408719 
 
>  <lowdin_charges> 
35 
1   -0.45128 
2   -0.446903 
3   -0.169812 
4   -0.127401 
5   -0.120692 
6   -0.206686 
7   -0.007351 
8   -0.218623 
9   -0.14043 
10   -0.0543 
11   -0.053364 
12   -0.012355 
13   0.12207 
14   -0.12397 
15   -0.365775 
16   -0.459024 
17   -0.190938 
18   0.149736 
19   0.152296 
20   0.146762 
21   0.152483 
22   0.14576 
23   0.153904 
24   0.165353 
25   0.168156 
26   0.176573 
27   0.171403 
28   0.139468 
29   0.127244 
30   0.145136 
31   0.153839 
32   0.115279 
33   0.158187 
34   0.255433 
35   0.349818 
 
$$$$ 
 
