PCCDB-ID:  26856 
public computational chemistry database (PCCDB) project, http://pccdb.org 
 
 17 18  0  0  0  0  0  0  0  0999 V2000 
   -2.0964    0.6686   -0.0341 C   0  0  0  0  0  0  0  0  0  0  0  0 
   -0.9080    1.4028   -0.0019 C   0  0  0  0  0  0  0  0  0  0  0  0 
   -0.8903   -1.4582   -0.0606 C   0  0  0  0  0  0  0  0  0  0  0  0 
   -2.1014   -0.7445   -0.0641 C   0  0  0  0  0  0  0  0  0  0  0  0 
    0.2962   -0.7307   -0.0290 C   0  0  0  0  0  0  0  0  0  0  0  0 
    0.2620    0.6692   -0.0009 C   0  0  0  0  0  0  0  0  0  0  0  0 
    2.2880   -0.0349    0.0190 C   0  0  0  0  0  0  0  0  0  0  0  0 
   -3.3217   -1.4310   -0.1590 N   0  0  0  0  0  0  0  0  0  0  0  0 
    1.6337   -1.1518   -0.0142 N   0  0  0  0  0  0  0  0  0  0  0  0 
    3.6082    0.1348    0.0439 O   0  0  0  0  0  0  0  0  0  0  0  0 
    1.5801    1.1178    0.0308 O   0  0  0  0  0  0  0  0  0  0  0  0 
   -3.0462    1.1971   -0.0433 H   0  0  0  0  0  0  0  0  0  0  0  0 
   -0.9105    2.4872    0.0227 H   0  0  0  0  0  0  0  0  0  0  0  0 
   -0.8766   -2.5438   -0.0863 H   0  0  0  0  0  0  0  0  0  0  0  0 
   -4.1135   -0.9293    0.2248 H   0  0  0  0  0  0  0  0  0  0  0  0 
   -3.2940   -2.3803    0.1935 H   0  0  0  0  0  0  0  0  0  0  0  0 
    3.9978   -0.7565    0.0300 H   0  0  0  0  0  0  0  0  0  0  0  0 
  1  2  2  0  0  0  0 
  2  6  1  0  0  0  0 
  2 13  1  0  0  0  0 
  3  5  1  0  0  0  0 
  4  3  2  0  0  0  0 
  4  1  1  0  0  0  0 
  5  9  1  0  0  0  0 
  5  6  2  0  0  0  0 
  6 11  1  0  0  0  0 
  7 11  1  0  0  0  0 
  7 10  1  0  0  0  0 
  8  4  1  0  0  0  0 
  8 16  1  0  0  0  0 
  8 15  1  0  0  0  0 
  9  7  2  0  0  0  0 
 12  1  1  0  0  0  0 
 14  3  1  0  0  0  0 
 17 10  1  0  0  0  0 
M  END 
>  <HBA> 
3 
 
>  <HBD> 
2 
 
>  <TPSA> 
72.02 
 
>  <cid> 
26856 
 
>  <dipole> 
1.88 
 
>  <excitation_energy_1> 
4.439 
 
>  <excitation_energy_2> 
4.76 
 
>  <excitation_energy_3> 
4.866 
 
>  <excitation_energy_4> 
5.305 
 
>  <homo_energy> 
-5.38 
 
>  <homo_lumo_gap> 
5.173 
 
>  <logP> 
1.284 
 
>  <lumo_energy> 
-0.207 
 
>  <melting_point> 
179.76 
 
>  <molecular_refractivity> 
41.24 
 
>  <oscillator_strength_1> 
0.0701 
 
>  <oscillator_strength_2> 
0.0024 
 
>  <oscillator_strength_3> 
0.0002 
 
>  <oscillator_strength_4> 
0.0082 
 
>  <open_babel_can_smiles> 
Nc1ccc2c(c1)nc(o2)O 
 
>  <mulliken_charges> 
17 
1   -0.195162 
2   -0.188383 
3   -0.238384 
4   0.305396 
5   0.254099 
6   0.310498 
7   0.700762 
8   -0.788295 
9   -0.548464 
10   -0.592596 
11   -0.491514 
12   0.121071 
13   0.147621 
14   0.130814 
15   0.317661 
16   0.319448 
17   0.435428 
 
>  <lowdin_charges> 
17 
1   -0.204032 
2   -0.160084 
3   -0.208415 
4   0.05945 
5   0.027495 
6   0.047723 
7   0.187534 
8   -0.492106 
9   -0.237428 
10   -0.322491 
11   -0.115338 
12   0.156165 
13   0.169165 
14   0.161468 
15   0.274799 
16   0.273689 
17   0.382408 
 
$$$$ 
 
