PCCDB-ID:  61067 
public computational chemistry database (PCCDB) project, http://pccdb.org 
 
 20 20  0  0  0  0  0  0  0  0999 V2000 
    2.8596   -0.5795   -1.3992 C   0  0  0  0  0  0  0  0  0  0  0  0 
    2.7054    0.3743    2.4047 C   0  0  0  0  0  0  0  0  0  0  0  0 
    2.4956    0.1840   -0.1249 C   0  0  0  0  0  0  0  0  0  0  0  0 
    4.1206   -2.4785    1.2507 C   0  0  0  0  0  0  0  0  0  0  0  0 
    5.1670   -1.4071    1.5561 C   0  0  0  0  0  0  0  0  0  0  0  0 
    3.1696   -0.3546    1.1426 C   0  0  0  0  0  0  0  0  0  0  0  0 
    2.8934   -1.7578    1.3090 O   0  0  0  0  0  0  0  0  0  0  0  0 
    4.5861   -0.2418    0.9847 O   0  0  0  0  0  0  0  0  0  0  0  0 
    2.3495   -0.1478   -2.2671 H   0  0  0  0  0  0  0  0  0  0  0  0 
    2.5608   -1.6298   -1.3202 H   0  0  0  0  0  0  0  0  0  0  0  0 
    3.9375   -0.5388   -1.5835 H   0  0  0  0  0  0  0  0  0  0  0  0 
    1.6403    0.1909    2.5776 H   0  0  0  0  0  0  0  0  0  0  0  0 
    2.8677    1.4526    2.3070 H   0  0  0  0  0  0  0  0  0  0  0  0 
    3.2603    0.0137    3.2764 H   0  0  0  0  0  0  0  0  0  0  0  0 
    1.4108    0.1535    0.0362 H   0  0  0  0  0  0  0  0  0  0  0  0 
    2.7725    1.2411   -0.2241 H   0  0  0  0  0  0  0  0  0  0  0  0 
    4.0921   -3.2877    1.9877 H   0  0  0  0  0  0  0  0  0  0  0  0 
    4.2709   -2.9098    0.2508 H   0  0  0  0  0  0  0  0  0  0  0  0 
    6.1355   -1.5779    1.0784 H   0  0  0  0  0  0  0  0  0  0  0  0 
    5.3176   -1.2890    2.6399 H   0  0  0  0  0  0  0  0  0  0  0  0 
  1 10  1  0  0  0  0 
  1  3  1  0  0  0  0 
  2 12  1  0  0  0  0 
  2 14  1  0  0  0  0 
  3 15  1  0  0  0  0 
  3  6  1  0  0  0  0 
  4  7  1  0  0  0  0 
  4  5  1  0  0  0  0 
  4 17  1  0  0  0  0 
  5 20  1  0  0  0  0 
  6  7  1  0  0  0  0 
  6  2  1  0  0  0  0 
  8  6  1  0  0  0  0 
  8  5  1  0  0  0  0 
  9  1  1  0  0  0  0 
 11  1  1  0  0  0  0 
 13  2  1  0  0  0  0 
 16  3  1  0  0  0  0 
 18  4  1  0  0  0  0 
 19  5  1  0  0  0  0 
M  END 
>  <HBA> 
2 
 
>  <HBD> 
0 
 
>  <TPSA> 
18.46 
 
>  <cid> 
61067 
 
>  <dipole> 
0.96 
 
>  <excitation_energy_1> 
6.458 
 
>  <excitation_energy_2> 
6.702 
 
>  <excitation_energy_3> 
6.77 
 
>  <excitation_energy_4> 
6.872 
 
>  <homo_energy> 
-6.729 
 
>  <homo_lumo_gap> 
9.061 
 
>  <logP> 
1.159 
 
>  <lumo_energy> 
2.332 
 
>  <melting_point> 
-10.86 
 
>  <molecular_refractivity> 
31.05 
 
>  <oscillator_strength_1> 
0.002 
 
>  <oscillator_strength_2> 
0.0237 
 
>  <oscillator_strength_3> 
0.0173 
 
>  <oscillator_strength_4> 
0.0037 
 
>  <open_babel_can_smiles> 
CCC1(C)OCCO1 
 
>  <mulliken_charges> 
20 
1   -0.458429 
2   -0.44983 
3   -0.259286 
4   -0.03449 
5   -0.056772 
6   0.535111 
7   -0.518354 
8   -0.50456 
9   0.140513 
10   0.155729 
11   0.154682 
12   0.152752 
13   0.148256 
14   0.145592 
15   0.138932 
16   0.140482 
17   0.144535 
18   0.137319 
19   0.152331 
20   0.13549 
 
>  <lowdin_charges> 
20 
1   -0.44615 
2   -0.453769 
3   -0.280104 
4   -0.143453 
5   -0.1431 
6   0.221738 
7   -0.279116 
8   -0.26732 
9   0.151042 
10   0.152201 
11   0.151412 
12   0.157749 
13   0.154363 
14   0.15576 
15   0.148535 
16   0.149819 
17   0.149443 
18   0.13525 
19   0.154587 
20   0.131113 
 
$$$$ 
 
