PCCDB-ID:  7781 
public computational chemistry database (PCCDB) project, http://pccdb.org 
 
 39 38  0  0  1  0  0  0  0  0999 V2000 
    4.2478   -1.4925   -2.0909 C   0  0  0  0  0  0  0  0  0  0  0  0 
    7.8935    2.5716    6.5902 C   0  0  0  0  0  0  0  0  0  0  0  0 
   10.3372    2.8387    6.9530 C   0  0  0  0  0  0  0  0  0  0  0  0 
    6.4363    4.9416    1.5785 C   0  0  0  0  0  0  0  0  0  0  0  0 
    4.9706   -1.2780   -0.7626 C   0  0  0  0  0  0  0  0  0  0  0  0 
    8.1303    3.2497    3.7057 C   0  0  0  0  0  0  0  0  0  0  0  0 
    9.3483    3.2119    4.6354 C   0  0  0  0  0  0  0  0  0  0  0  0 
    8.5179    3.6185    2.2653 C   0  0  0  0  0  0  0  0  0  0  0  0 
    6.5149    2.4662    1.0900 C   0  0  0  0  0  0  0  0  0  0  0  0 
    7.3166    1.2610    0.6057 C   0  0  0  0  0  0  0  0  0  0  0  0 
    9.0995    2.8547    6.0874 C   0  0  0  0  0  0  0  0  0  0  0  0 
    7.3539    3.7509    1.2541 C   0  0  1  0  0  0  0  0  0  0  0  0 
    5.8282   -0.0259   -0.7519 C   0  0  0  0  0  0  0  0  0  0  0  0 
    5.9382    0.7563   -1.6719 O   0  0  0  0  0  0  0  0  0  0  0  0 
    6.4658    0.1020    0.4357 O   0  0  0  0  0  0  0  0  0  0  0  0 
    3.6343   -2.3985   -2.0499 H   0  0  0  0  0  0  0  0  0  0  0  0 
    4.9604   -1.5951   -2.9147 H   0  0  0  0  0  0  0  0  0  0  0  0 
    3.5980   -0.6440   -2.3251 H   0  0  0  0  0  0  0  0  0  0  0  0 
    7.7663    2.3193    7.6400 H   0  0  0  0  0  0  0  0  0  0  0  0 
    6.9915    2.5783    5.9864 H   0  0  0  0  0  0  0  0  0  0  0  0 
   10.1065    2.5650    7.9872 H   0  0  0  0  0  0  0  0  0  0  0  0 
   10.8270    3.8224    6.9628 H   0  0  0  0  0  0  0  0  0  0  0  0 
   11.0797    2.1254    6.5692 H   0  0  0  0  0  0  0  0  0  0  0  0 
    7.0126    5.8689    1.6811 H   0  0  0  0  0  0  0  0  0  0  0  0 
    5.8845    4.7864    2.5132 H   0  0  0  0  0  0  0  0  0  0  0  0 
    5.6980    5.0920    0.7826 H   0  0  0  0  0  0  0  0  0  0  0  0 
    5.6180   -2.1290   -0.5151 H   0  0  0  0  0  0  0  0  0  0  0  0 
    4.2603   -1.1999    0.0706 H   0  0  0  0  0  0  0  0  0  0  0  0 
    7.4010    3.9706    4.0959 H   0  0  0  0  0  0  0  0  0  0  0  0 
    7.6353    2.2698    3.7229 H   0  0  0  0  0  0  0  0  0  0  0  0 
    9.8556    4.1900    4.6040 H   0  0  0  0  0  0  0  0  0  0  0  0 
   10.0885    2.5025    4.2304 H   0  0  0  0  0  0  0  0  0  0  0  0 
    9.2396    2.8777    1.8923 H   0  0  0  0  0  0  0  0  0  0  0  0 
    9.0611    4.5744    2.2789 H   0  0  0  0  0  0  0  0  0  0  0  0 
    6.0177    2.2106    2.0347 H   0  0  0  0  0  0  0  0  0  0  0  0 
    5.7231    2.6589    0.3565 H   0  0  0  0  0  0  0  0  0  0  0  0 
    8.0601    0.9400    1.3390 H   0  0  0  0  0  0  0  0  0  0  0  0 
    7.8142    1.4788   -0.3436 H   0  0  0  0  0  0  0  0  0  0  0  0 
    7.8180    3.9603    0.2781 H   0  0  0  0  0  0  0  0  0  0  0  0 
  1 16  1  0  0  0  0 
  1  5  1  0  0  0  0 
  2 19  1  0  0  0  0 
  3 22  1  0  0  0  0 
  3 21  1  0  0  0  0 
  4 24  1  0  0  0  0 
  4 25  1  0  0  0  0 
  5 13  1  0  0  0  0 
  5 27  1  0  0  0  0 
  5 28  1  0  0  0  0 
  6 30  1  0  0  0  0 
  6 29  1  0  0  0  0 
  6  7  1  0  0  0  0 
  7 11  1  0  0  0  0 
  8 34  1  0  0  0  0 
  8  6  1  0  0  0  0 
  9 12  1  0  0  0  0 
  9 35  1  0  0  0  0 
 10  9  1  0  0  0  0 
 10 37  1  0  0  0  0 
 11  2  2  0  0  0  0 
 11  3  1  0  0  0  0 
 12 39  1  6  0  0  0 
 12  4  1  0  0  0  0 
 12  8  1  0  0  0  0 
 13 15  1  0  0  0  0 
 14 13  2  0  0  0  0 
 15 10  1  0  0  0  0 
 17  1  1  0  0  0  0 
 18  1  1  0  0  0  0 
 20  2  1  0  0  0  0 
 23  3  1  0  0  0  0 
 26  4  1  0  0  0  0 
 31  7  1  0  0  0  0 
 32  7  1  0  0  0  0 
 33  8  1  0  0  0  0 
 36  9  1  0  0  0  0 
 38 10  1  0  0  0  0 
M  END 
>  <HBA> 
2 
 
>  <HBD> 
0 
 
>  <TPSA> 
26.3 
 
>  <cid> 
7781 
 
>  <dipole> 
1.5 
 
>  <excitation_energy_1> 
5.843 
 
>  <excitation_energy_2> 
6.117 
 
>  <excitation_energy_3> 
6.422 
 
>  <excitation_energy_4> 
6.433 
 
>  <homo_energy> 
-6.577 
 
>  <homo_lumo_gap> 
7.07 
 
>  <logP> 
3.712 
 
>  <lumo_energy> 
0.493 
 
>  <melting_point> 
-35.95 
 
>  <molecular_refractivity> 
65.42 
 
>  <oscillator_strength_1> 
0.0007 
 
>  <oscillator_strength_2> 
0.0067 
 
>  <oscillator_strength_3> 
0.0368 
 
>  <oscillator_strength_4> 
0.0866 
 
>  <open_babel_can_smiles> 
CCC(=O)OCC[C@H](CCCC(=C)C)C 
 
>  <mulliken_charges> 
39 
1   -0.435138 
2   -0.401049 
3   -0.508719 
4   -0.450703 
5   -0.352088 
6   -0.272388 
7   -0.317358 
8   -0.267913 
9   -0.280079 
10   -0.049772 
11   0.222156 
12   -0.081873 
13   0.621867 
14   -0.479579 
15   -0.470254 
16   0.142001 
17   0.161317 
18   0.161949 
19   0.128354 
20   0.134411 
21   0.152494 
22   0.151659 
23   0.151085 
24   0.141157 
25   0.144666 
26   0.146463 
27   0.171662 
28   0.17171 
29   0.143788 
30   0.141286 
31   0.140161 
32   0.138506 
33   0.128521 
34   0.129439 
35   0.141374 
36   0.156459 
37   0.151869 
38   0.164865 
39   0.127691 
 
>  <lowdin_charges> 
39 
1   -0.440843 
2   -0.370534 
3   -0.440098 
4   -0.446132 
5   -0.302139 
6   -0.280826 
7   -0.273456 
8   -0.280497 
9   -0.291954 
10   -0.13478 
11   0.007154 
12   -0.123043 
13   0.19892 
14   -0.269704 
15   -0.198699 
16   0.151584 
17   0.159403 
18   0.159895 
19   0.152463 
20   0.155871 
21   0.155266 
22   0.154085 
23   0.155134 
24   0.148701 
25   0.147212 
26   0.152221 
27   0.168988 
28   0.168924 
29   0.146566 
30   0.142995 
31   0.147143 
32   0.147779 
33   0.139202 
34   0.141478 
35   0.145415 
36   0.157413 
37   0.152209 
38   0.156281 
39   0.140405 
 
$$$$ 
 
