PCCDB-ID:  70220 
public computational chemistry database (PCCDB) project, http://pccdb.org 
 
 19 18  0  0  0  0  0  0  0  0999 V2000 
    2.0119   -0.4572   -0.8438 C   0  0  0  0  0  0  0  0  0  0  0  0 
    5.5441   -0.4599    1.4371 C   0  0  0  0  0  0  0  0  0  0  0  0 
    5.9172    1.1617   -0.4860 C   0  0  0  0  0  0  0  0  0  0  0  0 
    5.0667    1.9958    1.7328 C   0  0  0  0  0  0  0  0  0  0  0  0 
    3.2865   -0.2673   -0.4978 C   0  0  0  0  0  0  0  0  0  0  0  0 
    5.0647    0.8250    0.7461 C   0  0  0  0  0  0  0  0  0  0  0  0 
    3.6643    0.7067    0.3739 O   0  0  0  0  0  0  0  0  0  0  0  0 
    1.7538   -1.2397   -1.5476 H   0  0  0  0  0  0  0  0  0  0  0  0 
    1.2148    0.1572   -0.4382 H   0  0  0  0  0  0  0  0  0  0  0  0 
    6.5627   -0.3282    1.8183 H   0  0  0  0  0  0  0  0  0  0  0  0 
    5.5547   -1.3147    0.7529 H   0  0  0  0  0  0  0  0  0  0  0  0 
    4.8889   -0.7038    2.2797 H   0  0  0  0  0  0  0  0  0  0  0  0 
    6.9539    1.3547   -0.1890 H   0  0  0  0  0  0  0  0  0  0  0  0 
    5.5271    2.0561   -0.9825 H   0  0  0  0  0  0  0  0  0  0  0  0 
    5.9287    0.3433   -1.2135 H   0  0  0  0  0  0  0  0  0  0  0  0 
    6.0824    2.1995    2.0879 H   0  0  0  0  0  0  0  0  0  0  0  0 
    4.4337    1.7679    2.5963 H   0  0  0  0  0  0  0  0  0  0  0  0 
    4.6775    2.8986    1.2514 H   0  0  0  0  0  0  0  0  0  0  0  0 
    4.0827   -0.8860   -0.9074 H   0  0  0  0  0  0  0  0  0  0  0  0 
  1  5  2  0  0  0  0 
  1  9  1  0  0  0  0 
  2 10  1  0  0  0  0 
  2 12  1  0  0  0  0 
  3 13  1  0  0  0  0 
  3  6  1  0  0  0  0 
  4 16  1  0  0  0  0 
  4 17  1  0  0  0  0 
  5  7  1  0  0  0  0 
  6  2  1  0  0  0  0 
  6  4  1  0  0  0  0 
  7  6  1  0  0  0  0 
  8  1  1  0  0  0  0 
 11  2  1  0  0  0  0 
 14  3  1  0  0  0  0 
 15  3  1  0  0  0  0 
 18  4  1  0  0  0  0 
 19  5  1  0  0  0  0 
M  END 
>  <HBA> 
1 
 
>  <HBD> 
0 
 
>  <TPSA> 
9.23 
 
>  <cid> 
70220 
 
>  <dipole> 
1.93 
 
>  <excitation_energy_1> 
5.401 
 
>  <excitation_energy_2> 
5.951 
 
>  <excitation_energy_3> 
6.142 
 
>  <excitation_energy_4> 
6.164 
 
>  <homo_energy> 
-5.747 
 
>  <homo_lumo_gap> 
7.01 
 
>  <logP> 
1.945 
 
>  <lumo_energy> 
1.263 
 
>  <melting_point> 
-45.09 
 
>  <molecular_refractivity> 
31.61 
 
>  <oscillator_strength_1> 
0.0037 
 
>  <oscillator_strength_2> 
0.0101 
 
>  <oscillator_strength_3> 
0.0377 
 
>  <oscillator_strength_4> 
0.0711 
 
>  <open_babel_can_smiles> 
C=COC(C)(C)C 
 
>  <mulliken_charges> 
19 
1   -0.402778 
2   -0.455265 
3   -0.454998 
4   -0.449248 
5   0.184891 
6   0.306829 
7   -0.482979 
8   0.134224 
9   0.139674 
10   0.146153 
11   0.145985 
12   0.160204 
13   0.146082 
14   0.159832 
15   0.146037 
16   0.140085 
17   0.15595 
18   0.156297 
19   0.123027 
 
>  <lowdin_charges> 
19 
1   -0.408429 
2   -0.454627 
3   -0.454336 
4   -0.443491 
5   -0.039588 
6   0.136748 
7   -0.209697 
8   0.163694 
9   0.163928 
10   0.154897 
11   0.152148 
12   0.160577 
13   0.154647 
14   0.160281 
15   0.152063 
16   0.150759 
17   0.158618 
18   0.158746 
19   0.143063 
 
$$$$ 
 
