PCCDB-ID:  42916 
public computational chemistry database (PCCDB) project, http://pccdb.org 
 
 19 18  0  0  0  0  0  0  0  0999 V2000 
    1.4722    0.8853   -0.3674 C   0  0  0  0  0  0  0  0  0  0  0  0 
    3.8367    0.2007    0.2754 C   0  0  0  0  0  0  0  0  0  0  0  0 
    3.5733    0.7404    3.7198 C   0  0  0  0  0  0  0  0  0  0  0  0 
    2.4119    0.4229    0.7139 C   0  0  0  0  0  0  0  0  0  0  0  0 
    2.0389    0.1952    1.9898 C   0  0  0  0  0  0  0  0  0  0  0  0 
    0.6497    0.3044    2.5549 C   0  0  0  0  0  0  0  0  0  0  0  0 
   -0.2922    0.8646    2.0391 O   0  0  0  0  0  0  0  0  0  0  0  0 
    0.5200   -0.3091    3.7561 O   0  0  0  0  0  0  0  0  0  0  0  0 
    2.9641   -0.2892    2.9261 O   0  0  0  0  0  0  0  0  0  0  0  0 
    1.4982    0.1772   -1.2067 H   0  0  0  0  0  0  0  0  0  0  0  0 
    1.8164    1.8496   -0.7662 H   0  0  0  0  0  0  0  0  0  0  0  0 
    0.4499    0.9992   -0.0140 H   0  0  0  0  0  0  0  0  0  0  0  0 
    3.8590   -0.4668   -0.5957 H   0  0  0  0  0  0  0  0  0  0  0  0 
    4.4537   -0.2339    1.0628 H   0  0  0  0  0  0  0  0  0  0  0  0 
    4.2888    1.1476   -0.0503 H   0  0  0  0  0  0  0  0  0  0  0  0 
    4.2396    0.2347    4.4224 H   0  0  0  0  0  0  0  0  0  0  0  0 
    2.8185    1.3125    4.2746 H   0  0  0  0  0  0  0  0  0  0  0  0 
    4.1528    1.4245    3.0896 H   0  0  0  0  0  0  0  0  0  0  0  0 
    1.3788   -0.7373    3.9464 H   0  0  0  0  0  0  0  0  0  0  0  0 
  1 12  1  0  0  0  0 
  1  4  1  0  0  0  0 
  2  4  1  0  0  0  0 
  2 14  1  0  0  0  0 
  3 17  1  0  0  0  0 
  3 16  1  0  0  0  0 
  4  5  2  0  0  0  0 
  5  6  1  0  0  0  0 
  5  9  1  0  0  0  0 
  6  8  1  0  0  0  0 
  7  6  2  0  0  0  0 
  8 19  1  0  0  0  0 
  9  3  1  0  0  0  0 
 10  1  1  0  0  0  0 
 11  1  1  0  0  0  0 
 13  2  1  0  0  0  0 
 15  2  1  0  0  0  0 
 18  3  1  0  0  0  0 
M  END 
>  <HBA> 
3 
 
>  <HBD> 
1 
 
>  <TPSA> 
46.53 
 
>  <cid> 
42916 
 
>  <dipole> 
4.56 
 
>  <excitation_energy_1> 
4.611 
 
>  <excitation_energy_2> 
5.647 
 
>  <excitation_energy_3> 
6.209 
 
>  <excitation_energy_4> 
6.278 
 
>  <homo_energy> 
-6.89 
 
>  <homo_lumo_gap> 
5.861 
 
>  <logP> 
1.011 
 
>  <lumo_energy> 
-1.029 
 
>  <melting_point> 
58.28 
 
>  <molecular_refractivity> 
33.34 
 
>  <oscillator_strength_1> 
0.002 
 
>  <oscillator_strength_2> 
0.3456 
 
>  <oscillator_strength_3> 
0.0019 
 
>  <oscillator_strength_4> 
0.0036 
 
>  <open_babel_can_smiles> 
COC(=C(C)C)C(=O)O 
 
>  <mulliken_charges> 
19 
1   -0.530241 
2   -0.515656 
3   -0.221818 
4   0.156907 
5   0.169802 
6   0.574092 
7   -0.464947 
8   -0.584056 
9   -0.538554 
10   0.155962 
11   0.159018 
12   0.218394 
13   0.166014 
14   0.17793 
15   0.163639 
16   0.170049 
17   0.159963 
18   0.158349 
19   0.425153 
 
>  <lowdin_charges> 
19 
1   -0.449324 
2   -0.445803 
3   -0.285615 
4   0.031107 
5   -0.003623 
6   0.182984 
7   -0.253015 
8   -0.358886 
9   -0.252406 
10   0.160445 
11   0.162631 
12   0.188922 
13   0.165479 
14   0.16954 
15   0.163681 
16   0.162602 
17   0.149859 
18   0.151221 
19   0.360201 
 
$$$$ 
 
