PCCDB-ID:  10269 
public computational chemistry database (PCCDB) project, http://pccdb.org 
 
 41 41  0  0  0  0  0  0  0  0999 V2000 
    0.5810   -0.1417    0.6550 C   0  0  0  0  0  0  0  0  0  0  0  0 
    2.7915    0.1122    1.9303 C   0  0  0  0  0  0  0  0  0  0  0  0 
    2.5949   -1.4172   -0.0020 C   0  0  0  0  0  0  0  0  0  0  0  0 
    0.6871    5.1710   -0.6150 C   0  0  0  0  0  0  0  0  0  0  0  0 
    2.8723    5.4333    0.6535 C   0  0  0  0  0  0  0  0  0  0  0  0 
    2.7420    5.9568   -1.7728 C   0  0  0  0  0  0  0  0  0  0  0  0 
    4.7394    2.4594   -4.4829 C   0  0  0  0  0  0  0  0  0  0  0  0 
    3.2509    0.8508   -1.5761 C   0  0  0  0  0  0  0  0  0  0  0  0 
    3.2956    3.1904   -2.1552 C   0  0  0  0  0  0  0  0  0  0  0  0 
    3.6305    1.8705   -2.4476 C   0  0  0  0  0  0  0  0  0  0  0  0 
    2.5355    1.1144   -0.4060 C   0  0  0  0  0  0  0  0  0  0  0  0 
    2.5813    3.5208   -0.9932 C   0  0  0  0  0  0  0  0  0  0  0  0 
    2.2100    2.4673   -0.1312 C   0  0  0  0  0  0  0  0  0  0  0  0 
    2.1268   -0.0476    0.5354 C   0  0  0  0  0  0  0  0  0  0  0  0 
    2.2245    4.9941   -0.6832 C   0  0  0  0  0  0  0  0  0  0  0  0 
    1.5041    2.8271    1.0032 O   0  0  0  0  0  0  0  0  0  0  0  0 
    4.3260    1.4680   -3.5615 O   0  0  0  0  0  0  0  0  0  0  0  0 
    0.3031   -0.9470    1.3455 H   0  0  0  0  0  0  0  0  0  0  0  0 
    0.1437   -0.3680   -0.3234 H   0  0  0  0  0  0  0  0  0  0  0  0 
    0.0974    0.7751    1.0070 H   0  0  0  0  0  0  0  0  0  0  0  0 
    2.5101   -0.7248    2.5803 H   0  0  0  0  0  0  0  0  0  0  0  0 
    2.5282    1.0346    2.4597 H   0  0  0  0  0  0  0  0  0  0  0  0 
    3.8818    0.1126    1.8279 H   0  0  0  0  0  0  0  0  0  0  0  0 
    2.2752   -2.2051    0.6892 H   0  0  0  0  0  0  0  0  0  0  0  0 
    3.6852   -1.4735   -0.0859 H   0  0  0  0  0  0  0  0  0  0  0  0 
    2.1611   -1.6410   -0.9820 H   0  0  0  0  0  0  0  0  0  0  0  0 
    0.4409    6.2177   -0.3960 H   0  0  0  0  0  0  0  0  0  0  0  0 
    0.2411    4.5450    0.1591 H   0  0  0  0  0  0  0  0  0  0  0  0 
    0.2267    4.9119   -1.5760 H   0  0  0  0  0  0  0  0  0  0  0  0 
    2.6234    6.4816    0.8621 H   0  0  0  0  0  0  0  0  0  0  0  0 
    3.9645    5.3533    0.5962 H   0  0  0  0  0  0  0  0  0  0  0  0 
    2.5261    4.8253    1.4903 H   0  0  0  0  0  0  0  0  0  0  0  0 
    2.4654    6.9826   -1.5048 H   0  0  0  0  0  0  0  0  0  0  0  0 
    2.3028    5.7457   -2.7546 H   0  0  0  0  0  0  0  0  0  0  0  0 
    3.8336    5.9265   -1.8675 H   0  0  0  0  0  0  0  0  0  0  0  0 
    5.2713    1.9302   -5.2765 H   0  0  0  0  0  0  0  0  0  0  0  0 
    5.4170    3.1900   -4.0196 H   0  0  0  0  0  0  0  0  0  0  0  0 
    3.8835    2.9944   -4.9177 H   0  0  0  0  0  0  0  0  0  0  0  0 
    3.5336   -0.1572   -1.8494 H   0  0  0  0  0  0  0  0  0  0  0  0 
    3.5913    3.9766   -2.8344 H   0  0  0  0  0  0  0  0  0  0  0  0 
    1.3407    2.0418    1.5382 H   0  0  0  0  0  0  0  0  0  0  0  0 
  1 20  1  0  0  0  0 
  1 18  1  0  0  0  0 
  2 22  1  0  0  0  0 
  2 21  1  0  0  0  0 
  3 14  1  0  0  0  0 
  3 24  1  0  0  0  0 
  4 27  1  0  0  0  0 
  4 28  1  0  0  0  0 
  5 30  1  0  0  0  0 
  5 32  1  0  0  0  0 
  6 33  1  0  0  0  0 
  6 15  1  0  0  0  0 
  7 37  1  0  0  0  0 
  7 17  1  0  0  0  0 
  8 11  2  0  0  0  0 
  9 12  1  0  0  0  0 
 10  9  2  0  0  0  0 
 10  8  1  0  0  0  0 
 11 13  1  0  0  0  0 
 11 14  1  0  0  0  0 
 12 15  1  0  0  0  0 
 12 13  2  0  0  0  0 
 13 16  1  0  0  0  0 
 14  1  1  0  0  0  0 
 14  2  1  0  0  0  0 
 15  4  1  0  0  0  0 
 15  5  1  0  0  0  0 
 16 41  1  0  0  0  0 
 17 10  1  0  0  0  0 
 19  1  1  0  0  0  0 
 23  2  1  0  0  0  0 
 25  3  1  0  0  0  0 
 26  3  1  0  0  0  0 
 29  4  1  0  0  0  0 
 31  5  1  0  0  0  0 
 34  6  1  0  0  0  0 
 35  6  1  0  0  0  0 
 36  7  1  0  0  0  0 
 38  7  1  0  0  0  0 
 39  8  1  0  0  0  0 
 40  9  1  0  0  0  0 
M  END 
>  <HBA> 
2 
 
>  <HBD> 
1 
 
>  <TPSA> 
29.46 
 
>  <cid> 
10269 
 
>  <dipole> 
0.82 
 
>  <excitation_energy_1> 
4.611 
 
>  <excitation_energy_2> 
4.739 
 
>  <excitation_energy_3> 
4.99 
 
>  <excitation_energy_4> 
5.269 
 
>  <homo_energy> 
-5.154 
 
>  <homo_lumo_gap> 
5.358 
 
>  <logP> 
3.996 
 
>  <lumo_energy> 
0.204 
 
>  <melting_point> 
68.98 
 
>  <molecular_refractivity> 
73.5 
 
>  <oscillator_strength_1> 
0.0955 
 
>  <oscillator_strength_2> 
0.0005 
 
>  <oscillator_strength_3> 
0.0025 
 
>  <oscillator_strength_4> 
0.0009 
 
>  <open_babel_can_smiles> 
COc1cc(c(c(c1)C(C)(C)C)O)C(C)(C)C 
 
>  <mulliken_charges> 
41 
1   -0.457298 
2   -0.457214 
3   -0.454928 
4   -0.449181 
5   -0.448405 
6   -0.455809 
7   -0.209426 
8   -0.279947 
9   -0.295447 
10   0.407741 
11   0.170906 
12   0.142615 
13   0.183913 
14   -0.015752 
15   0.036218 
16   -0.662807 
17   -0.520202 
18   0.144315 
19   0.159672 
20   0.141985 
21   0.146056 
22   0.139177 
23   0.161259 
24   0.141263 
25   0.152428 
26   0.15307 
27   0.129164 
28   0.171486 
29   0.135256 
30   0.129185 
31   0.135161 
32   0.170264 
33   0.140412 
34   0.140589 
35   0.140542 
36   0.164395 
37   0.147365 
38   0.147392 
39   0.132704 
40   0.128421 
41   0.413459 
 
>  <lowdin_charges> 
41 
1   -0.450214 
2   -0.446683 
3   -0.439196 
4   -0.446555 
5   -0.443767 
6   -0.44098 
7   -0.281989 
8   -0.193822 
9   -0.220668 
10   0.084836 
11   -0.040834 
12   -0.019947 
13   0.074696 
14   0.011982 
15   0.024408 
16   -0.39342 
17   -0.208715 
18   0.150541 
19   0.15893 
20   0.146637 
21   0.151521 
22   0.144261 
23   0.157826 
24   0.151208 
25   0.150851 
26   0.152912 
27   0.141355 
28   0.163109 
29   0.14538 
30   0.141282 
31   0.14336 
32   0.162235 
33   0.149337 
34   0.145579 
35   0.144018 
36   0.161103 
37   0.143209 
38   0.143105 
39   0.167528 
40   0.166758 
41   0.348824 
 
$$$$ 
 
