PCCDB-ID:  69521 
public computational chemistry database (PCCDB) project, http://pccdb.org 
 
 15 15  0  0  0  0  0  0  0  0999 V2000 
    1.0307   -0.1727    0.0616 C   0  0  0  0  0  0  0  0  0  0  0  0 
    3.1657    1.2056   -0.1195 C   0  0  0  0  0  0  0  0  0  0  0  0 
    4.5306   -1.1578   -0.2596 C   0  0  0  0  0  0  0  0  0  0  0  0 
    2.5082    0.0236   -0.0690 C   0  0  0  0  0  0  0  0  0  0  0  0 
    4.6171    1.2990   -0.2502 C   0  0  0  0  0  0  0  0  0  0  0  0 
    5.2719   -0.0286   -0.3173 C   0  0  0  0  0  0  0  0  0  0  0  0 
    5.2444    2.3526   -0.3001 O   0  0  0  0  0  0  0  0  0  0  0  0 
    6.6241   -0.0070   -0.4384 O   0  0  0  0  0  0  0  0  0  0  0  0 
    3.1698   -1.1619   -0.1375 O   0  0  0  0  0  0  0  0  0  0  0  0 
    0.5221    0.7909    0.1323 H   0  0  0  0  0  0  0  0  0  0  0  0 
    0.7972   -0.7628    0.9555 H   0  0  0  0  0  0  0  0  0  0  0  0 
    0.6354   -0.7184   -0.8033 H   0  0  0  0  0  0  0  0  0  0  0  0 
    2.6103    2.1350   -0.0621 H   0  0  0  0  0  0  0  0  0  0  0  0 
    4.9256   -2.1672   -0.3023 H   0  0  0  0  0  0  0  0  0  0  0  0 
    6.9634   -0.9161   -0.4704 H   0  0  0  0  0  0  0  0  0  0  0  0 
  1 10  1  0  0  0  0 
  1 11  1  0  0  0  0 
  2  4  2  0  0  0  0 
  2 13  1  0  0  0  0 
  3  9  1  0  0  0  0 
  4  1  1  0  0  0  0 
  5  2  1  0  0  0  0 
  6  3  2  0  0  0  0 
  6  5  1  0  0  0  0 
  7  5  2  0  0  0  0 
  8  6  1  0  0  0  0 
  9  4  1  0  0  0  0 
 12  1  1  0  0  0  0 
 14  3  1  0  0  0  0 
 15  8  1  0  0  0  0 
M  END 
>  <HBA> 
3 
 
>  <HBD> 
1 
 
>  <TPSA> 
50.44 
 
>  <cid> 
69521 
 
>  <dipole> 
5.13 
 
>  <excitation_energy_1> 
3.964 
 
>  <excitation_energy_2> 
5.003 
 
>  <excitation_energy_3> 
5.258 
 
>  <excitation_energy_4> 
5.268 
 
>  <homo_energy> 
-6.229 
 
>  <homo_lumo_gap> 
5.295 
 
>  <logP> 
0.654 
 
>  <lumo_energy> 
-0.933 
 
>  <melting_point> 
82.8 
 
>  <molecular_refractivity> 
31.97 
 
>  <oscillator_strength_1> 
0.0 
 
>  <oscillator_strength_2> 
0.1219 
 
>  <oscillator_strength_3> 
0.0009 
 
>  <oscillator_strength_4> 
0.0005 
 
>  <open_babel_can_smiles> 
Cc1occ(c(=O)c1)O 
 
>  <mulliken_charges> 
15 
1   -0.517752 
2   -0.269675 
3   0.020311 
4   0.376303 
5   0.446508 
6   0.260279 
7   -0.507572 
8   -0.608632 
9   -0.455713 
10   0.177663 
11   0.180928 
12   0.181262 
13   0.153357 
14   0.155149 
15   0.407583 
 
>  <lowdin_charges> 
15 
1   -0.441641 
2   -0.240909 
3   -0.108691 
4   0.1162 
5   0.124023 
6   0.047075 
7   -0.272247 
8   -0.34549 
9   -0.105418 
10   0.172757 
11   0.173933 
12   0.174372 
13   0.180229 
14   0.167007 
15   0.358799 
 
$$$$ 
 
