PCCDB-ID:  6631 
public computational chemistry database (PCCDB) project, http://pccdb.org 
 
 36 36  0  0  1  0  0  0  0  0999 V2000 
    0.5558    0.6723   -0.8175 C   0  0  0  0  0  0  0  0  0  0  0  0 
    7.5169   -1.0538    2.3346 C   0  0  0  0  0  0  0  0  0  0  0  0 
    6.7607   -1.8549   -1.9158 C   0  0  0  0  0  0  0  0  0  0  0  0 
    7.2862    0.5996   -1.7074 C   0  0  0  0  0  0  0  0  0  0  0  0 
    2.9667    1.4593   -1.0094 C   0  0  0  0  0  0  0  0  0  0  0  0 
    2.4449   -0.9854   -1.2092 C   0  0  0  0  0  0  0  0  0  0  0  0 
    4.4476    1.1306   -0.7630 C   0  0  0  0  0  0  0  0  0  0  0  0 
    3.9224   -1.3281   -0.9626 C   0  0  0  0  0  0  0  0  0  0  0  0 
    2.0260    0.3360   -0.5458 C   0  0  2  0  0  0  0  0  0  0  0  0 
    7.6880   -0.9945    0.8305 C   0  0  0  0  0  0  0  0  0  0  0  0 
    4.8715   -0.2003   -1.4218 C   0  0  2  0  0  0  0  0  0  0  0  0 
    6.3794   -0.5399   -1.2189 C   0  0  0  0  0  0  0  0  0  0  0  0 
    8.7395   -1.1791    0.2545 O   0  0  0  0  0  0  0  0  0  0  0  0 
    6.5117   -0.6916    0.2426 O   0  0  0  0  0  0  0  0  0  0  0  0 
    0.2606    1.6036   -0.3190 H   0  0  0  0  0  0  0  0  0  0  0  0 
   -0.1087   -0.1240   -0.4607 H   0  0  0  0  0  0  0  0  0  0  0  0 
    0.3740    0.7993   -1.8927 H   0  0  0  0  0  0  0  0  0  0  0  0 
    6.6540   -1.6705    2.6025 H   0  0  0  0  0  0  0  0  0  0  0  0 
    7.3329   -0.0461    2.7243 H   0  0  0  0  0  0  0  0  0  0  0  0 
    8.4246   -1.4552    2.7867 H   0  0  0  0  0  0  0  0  0  0  0  0 
    6.4637   -1.8107   -2.9701 H   0  0  0  0  0  0  0  0  0  0  0  0 
    6.2591   -2.7109   -1.4568 H   0  0  0  0  0  0  0  0  0  0  0  0 
    7.8374   -2.0202   -1.8609 H   0  0  0  0  0  0  0  0  0  0  0  0 
    7.0381    0.8467   -2.7461 H   0  0  0  0  0  0  0  0  0  0  0  0 
    8.3349    0.3032   -1.6586 H   0  0  0  0  0  0  0  0  0  0  0  0 
    7.1569    1.5011   -1.1029 H   0  0  0  0  0  0  0  0  0  0  0  0 
    2.8059    1.6343   -2.0848 H   0  0  0  0  0  0  0  0  0  0  0  0 
    2.7093    2.3993   -0.5028 H   0  0  0  0  0  0  0  0  0  0  0  0 
    1.8110   -1.8061   -0.8473 H   0  0  0  0  0  0  0  0  0  0  0  0 
    2.2641   -0.9101   -2.2931 H   0  0  0  0  0  0  0  0  0  0  0  0 
    4.6346    1.0658    0.3169 H   0  0  0  0  0  0  0  0  0  0  0  0 
    5.0597    1.9579   -1.1385 H   0  0  0  0  0  0  0  0  0  0  0  0 
    4.1590   -2.2639   -1.4804 H   0  0  0  0  0  0  0  0  0  0  0  0 
    4.0830   -1.5120    0.1078 H   0  0  0  0  0  0  0  0  0  0  0  0 
    2.1557    0.2191    0.5425 H   0  0  0  0  0  0  0  0  0  0  0  0 
    4.7495   -0.0856   -2.5110 H   0  0  0  0  0  0  0  0  0  0  0  0 
  1  9  1  0  0  0  0 
  1 16  1  0  0  0  0 
  1 15  1  0  0  0  0 
  2 18  1  0  0  0  0 
  2 19  1  0  0  0  0 
  2 20  1  0  0  0  0 
  3 23  1  0  0  0  0 
  3 22  1  0  0  0  0 
  3 12  1  0  0  0  0 
  4 25  1  0  0  0  0 
  4 12  1  0  0  0  0 
  4 26  1  0  0  0  0 
  5  7  1  0  0  0  0 
  5  9  1  0  0  0  0 
  5 28  1  0  0  0  0 
  6  8  1  0  0  0  0 
  6 29  1  0  0  0  0 
  6  9  1  0  0  0  0 
  7 31  1  0  0  0  0 
  8 34  1  0  0  0  0 
  9 35  1  1  0  0  0 
 10  2  1  0  0  0  0 
 11 36  1  6  0  0  0 
 11 12  1  0  0  0  0 
 11  8  1  0  0  0  0 
 11  7  1  0  0  0  0 
 12 14  1  0  0  0  0 
 13 10  2  0  0  0  0 
 14 10  1  0  0  0  0 
 17  1  1  0  0  0  0 
 21  3  1  0  0  0  0 
 24  4  1  0  0  0  0 
 27  5  1  0  0  0  0 
 30  6  1  0  0  0  0 
 32  7  1  0  0  0  0 
 33  8  1  0  0  0  0 
M  END 
>  <HBA> 
2 
 
>  <HBD> 
0 
 
>  <TPSA> 
26.3 
 
>  <cid> 
6631 
 
>  <dipole> 
1.89 
 
>  <excitation_energy_1> 
5.658 
 
>  <excitation_energy_2> 
6.642 
 
>  <excitation_energy_3> 
7.031 
 
>  <excitation_energy_4> 
7.151 
 
>  <homo_energy> 
-7.045 
 
>  <homo_lumo_gap> 
7.505 
 
>  <logP> 
3.154 
 
>  <lumo_energy> 
0.46 
 
>  <melting_point> 
15.49 
 
>  <molecular_refractivity> 
59.01 
 
>  <oscillator_strength_1> 
0.0012 
 
>  <oscillator_strength_2> 
0.0286 
 
>  <oscillator_strength_3> 
0.0011 
 
>  <oscillator_strength_4> 
0.0054 
 
>  <open_babel_can_smiles> 
C[C@@H]1CC[C@H](CC1)C(OC(=O)C)(C)C 
 
>  <mulliken_charges> 
36 
1   -0.44514 
2   -0.521145 
3   -0.480472 
4   -0.480734 
5   -0.258769 
6   -0.259156 
7   -0.277376 
8   -0.276961 
9   -0.06637 
10   0.615371 
11   -0.09409 
12   0.325312 
13   -0.476054 
14   -0.494146 
15   0.139156 
16   0.139203 
17   0.13785 
18   0.176094 
19   0.179657 
20   0.179907 
21   0.141983 
22   0.154278 
23   0.183827 
24   0.142384 
25   0.183428 
26   0.153912 
27   0.121906 
28   0.127299 
29   0.127389 
30   0.121933 
31   0.141069 
32   0.13217 
33   0.132289 
34   0.141118 
35   0.116584 
36   0.116294 
 
>  <lowdin_charges> 
36 
1   -0.44321 
2   -0.46577 
3   -0.456285 
4   -0.456244 
5   -0.275139 
6   -0.276096 
7   -0.2821 
8   -0.281107 
9   -0.123748 
10   0.203083 
11   -0.130988 
12   0.143277 
13   -0.27212 
14   -0.201213 
15   0.147839 
16   0.148623 
17   0.143535 
18   0.17406 
19   0.176167 
20   0.174399 
21   0.152686 
22   0.156825 
23   0.169674 
24   0.153188 
25   0.169838 
26   0.156059 
27   0.133318 
28   0.142093 
29   0.143045 
30   0.133134 
31   0.142885 
32   0.145661 
33   0.144878 
34   0.143038 
35   0.130953 
36   0.135762 
 
$$$$ 
 
