PCCDB-ID:  17585 
public computational chemistry database (PCCDB) project, http://pccdb.org 
 
 32 31  0  0  0  0  0  0  0  0999 V2000 
    2.4020   -3.6487   -0.9759 C   0  0  0  0  0  0  0  0  0  0  0  0 
   13.0871   -5.9395    5.6365 C   0  0  0  0  0  0  0  0  0  0  0  0 
    7.2900   -2.6586    2.8083 C   0  0  0  0  0  0  0  0  0  0  0  0 
    7.5426   -3.4639    4.0904 C   0  0  0  0  0  0  0  0  0  0  0  0 
    5.8144   -2.6616    2.3831 C   0  0  0  0  0  0  0  0  0  0  0  0 
    9.0161   -3.4613    4.5224 C   0  0  0  0  0  0  0  0  0  0  0  0 
    5.5839   -1.8592    1.1003 C   0  0  0  0  0  0  0  0  0  0  0  0 
    9.2373   -4.2770    5.7988 C   0  0  0  0  0  0  0  0  0  0  0  0 
    3.7584   -3.3617   -0.3607 C   0  0  0  0  0  0  0  0  0  0  0  0 
   11.6288   -5.6265    5.3635 C   0  0  0  0  0  0  0  0  0  0  0  0 
    4.7144   -4.0948   -0.4869 O   0  0  0  0  0  0  0  0  0  0  0  0 
   10.9501   -6.2275    4.5602 O   0  0  0  0  0  0  0  0  0  0  0  0 
    3.8280   -1.8133    0.5624 S   0  0  0  0  0  0  0  0  0  0  0  0 
   10.9786   -4.2860    6.3864 S   0  0  0  0  0  0  0  0  0  0  0  0 
    2.5006   -3.6236   -2.0670 H   0  0  0  0  0  0  0  0  0  0  0  0 
    1.6364   -2.9325   -0.6679 H   0  0  0  0  0  0  0  0  0  0  0  0 
    2.0953   -4.6608   -0.6933 H   0  0  0  0  0  0  0  0  0  0  0  0 
   13.1687   -6.5043    6.5728 H   0  0  0  0  0  0  0  0  0  0  0  0 
   13.6807   -5.0266    5.7434 H   0  0  0  0  0  0  0  0  0  0  0  0 
   13.4774   -6.5497    4.8190 H   0  0  0  0  0  0  0  0  0  0  0  0 
    7.9048   -3.0692    1.9951 H   0  0  0  0  0  0  0  0  0  0  0  0 
    7.6277   -1.6221    2.9564 H   0  0  0  0  0  0  0  0  0  0  0  0 
    7.2106   -4.5004    3.9370 H   0  0  0  0  0  0  0  0  0  0  0  0 
    6.9219   -3.0578    4.9028 H   0  0  0  0  0  0  0  0  0  0  0  0 
    5.1942   -2.2509    3.1905 H   0  0  0  0  0  0  0  0  0  0  0  0 
    5.4813   -3.6928    2.2169 H   0  0  0  0  0  0  0  0  0  0  0  0 
    9.3563   -2.4298    4.6813 H   0  0  0  0  0  0  0  0  0  0  0  0 
    9.6364   -3.8820    3.7224 H   0  0  0  0  0  0  0  0  0  0  0  0 
    6.1516   -2.2865    0.2686 H   0  0  0  0  0  0  0  0  0  0  0  0 
    5.8799   -0.8121    1.2220 H   0  0  0  0  0  0  0  0  0  0  0  0 
    8.9568   -5.3229    5.6454 H   0  0  0  0  0  0  0  0  0  0  0  0 
    8.6525   -3.8788    6.6345 H   0  0  0  0  0  0  0  0  0  0  0  0 
  1 17  1  0  0  0  0 
  1 16  1  0  0  0  0 
  1  9  1  0  0  0  0 
  2 19  1  0  0  0  0 
  2 18  1  0  0  0  0 
  3 22  1  0  0  0  0 
  3  4  1  0  0  0  0 
  4  6  1  0  0  0  0 
  4 24  1  0  0  0  0 
  5  3  1  0  0  0  0 
  5 25  1  0  0  0  0 
  6 27  1  0  0  0  0 
  6  8  1  0  0  0  0 
  7 30  1  0  0  0  0 
  7  5  1  0  0  0  0 
  8 14  1  0  0  0  0 
  8 32  1  0  0  0  0 
  9 13  1  0  0  0  0 
 10  2  1  0  0  0  0 
 10 14  1  0  0  0  0 
 11  9  2  0  0  0  0 
 12 10  2  0  0  0  0 
 13  7  1  0  0  0  0 
 15  1  1  0  0  0  0 
 20  2  1  0  0  0  0 
 21  3  1  0  0  0  0 
 23  4  1  0  0  0  0 
 26  5  1  0  0  0  0 
 28  6  1  0  0  0  0 
 29  7  1  0  0  0  0 
 31  8  1  0  0  0  0 
M  END 
>  <HBA> 
4 
 
>  <HBD> 
0 
 
>  <TPSA> 
84.74 
 
>  <cid> 
17585 
 
>  <dipole> 
1.29 
 
>  <excitation_energy_1> 
4.771 
 
>  <excitation_energy_2> 
4.78 
 
>  <excitation_energy_3> 
5.457 
 
>  <excitation_energy_4> 
5.509 
 
>  <homo_energy> 
-6.732 
 
>  <homo_lumo_gap> 
6.294 
 
>  <logP> 
3.106 
 
>  <lumo_energy> 
-0.438 
 
>  <melting_point> 
31.5 
 
>  <molecular_refractivity> 
65.77 
 
>  <oscillator_strength_1> 
0.0001 
 
>  <oscillator_strength_2> 
0.0002 
 
>  <oscillator_strength_3> 
0.0427 
 
>  <oscillator_strength_4> 
0.066 
 
>  <open_babel_can_smiles> 
CC(=O)SCCCCCCSC(=O)C 
 
>  <mulliken_charges> 
32 
1   -0.512384 
2   -0.521671 
3   -0.259229 
4   -0.259311 
5   -0.250469 
6   -0.250341 
7   -0.429556 
8   -0.427785 
9   0.271498 
10   0.278581 
11   -0.420556 
12   -0.4168 
13   0.09926 
14   0.093354 
15   0.192754 
16   0.173074 
17   0.19114 
18   0.191471 
19   0.181745 
20   0.187816 
21   0.142568 
22   0.129107 
23   0.142275 
24   0.128976 
25   0.141655 
26   0.160886 
27   0.141516 
28   0.161411 
29   0.199254 
30   0.170962 
31   0.198037 
32   0.170761 
 
>  <lowdin_charges> 
32 
1   -0.463037 
2   -0.467799 
3   -0.273702 
4   -0.273635 
5   -0.278054 
6   -0.278306 
7   -0.372005 
8   -0.370251 
9   0.049058 
10   0.050594 
11   -0.244753 
12   -0.239928 
13   0.122804 
14   0.11657 
15   0.181614 
16   0.171739 
17   0.181202 
18   0.182857 
19   0.176686 
20   0.17884 
21   0.146363 
22   0.137232 
23   0.14415 
24   0.139258 
25   0.146544 
26   0.154314 
27   0.144474 
28   0.156638 
29   0.176588 
30   0.164055 
31   0.173724 
32   0.166169 
 
$$$$ 
 
