PCCDB-ID:  38091 
public computational chemistry database (PCCDB) project, http://pccdb.org 
 
 36 36  0  0  1  0  0  0  0  0999 V2000 
    4.7284   -2.2081   -3.9865 C   0  0  0  0  0  0  0  0  0  0  0  0 
    5.4886   -1.4091   -1.7349 C   0  0  0  0  0  0  0  0  0  0  0  0 
    0.8731    1.5941   -2.7316 C   0  0  0  0  0  0  0  0  0  0  0  0 
    3.0919    0.4138   -4.5809 C   0  0  0  0  0  0  0  0  0  0  0  0 
    0.5032   -4.3898   -5.5671 C   0  0  0  0  0  0  0  0  0  0  0  0 
    0.0595   -4.0851   -4.2771 C   0  0  0  0  0  0  0  0  0  0  0  0 
    0.8158   -3.3578   -6.4521 C   0  0  0  0  0  0  0  0  0  0  0  0 
   -0.0644   -2.7573   -3.8723 C   0  0  0  0  0  0  0  0  0  0  0  0 
    0.6888   -2.0275   -6.0439 C   0  0  0  0  0  0  0  0  0  0  0  0 
    4.4880   -1.5363   -2.8548 C   0  0  0  0  0  0  0  0  0  0  0  0 
    1.0462    0.1260   -3.1426 C   0  0  1  0  0  0  0  0  0  0  0  0 
    0.2591   -1.7117   -4.7498 C   0  0  0  0  0  0  0  0  0  0  0  0 
    0.1105   -0.2647   -4.3114 C   0  0  1  0  0  0  0  0  0  0  0  0 
    3.1050   -1.0217   -2.5282 C   0  0  0  0  0  0  0  0  0  0  0  0 
    2.4469   -0.2218   -3.4370 N   0  0  0  0  0  0  0  0  0  0  0  0 
   -1.2106    0.0009   -3.8272 O   0  0  0  0  0  0  0  0  0  0  0  0 
    2.5971   -1.3603   -1.4590 O   0  0  0  0  0  0  0  0  0  0  0  0 
    5.6869   -2.6911   -4.1628 H   0  0  0  0  0  0  0  0  0  0  0  0 
    3.9726   -2.3288   -4.7577 H   0  0  0  0  0  0  0  0  0  0  0  0 
    6.4251   -1.9194   -1.9793 H   0  0  0  0  0  0  0  0  0  0  0  0 
    5.0726   -1.8375   -0.8175 H   0  0  0  0  0  0  0  0  0  0  0  0 
    5.7152   -0.3562   -1.5204 H   0  0  0  0  0  0  0  0  0  0  0  0 
   -0.1613    1.7681   -2.4264 H   0  0  0  0  0  0  0  0  0  0  0  0 
    1.0975    2.2885   -3.5504 H   0  0  0  0  0  0  0  0  0  0  0  0 
    1.5325    1.8258   -1.8892 H   0  0  0  0  0  0  0  0  0  0  0  0 
    2.8304   -0.0749   -5.5278 H   0  0  0  0  0  0  0  0  0  0  0  0 
    4.1746    0.3766   -4.4704 H   0  0  0  0  0  0  0  0  0  0  0  0 
    2.7890    1.4640   -4.6403 H   0  0  0  0  0  0  0  0  0  0  0  0 
    0.5993   -5.4258   -5.8808 H   0  0  0  0  0  0  0  0  0  0  0  0 
   -0.1864   -4.8846   -3.5834 H   0  0  0  0  0  0  0  0  0  0  0  0 
    1.1489   -3.5855   -7.4614 H   0  0  0  0  0  0  0  0  0  0  0  0 
   -0.4151   -2.5251   -2.8711 H   0  0  0  0  0  0  0  0  0  0  0  0 
    0.9164   -1.2249   -6.7430 H   0  0  0  0  0  0  0  0  0  0  0  0 
    0.7753   -0.4958   -2.2884 H   0  0  0  0  0  0  0  0  0  0  0  0 
    0.3234    0.3857   -5.1768 H   0  0  0  0  0  0  0  0  0  0  0  0 
   -1.8334   -0.3420   -4.4869 H   0  0  0  0  0  0  0  0  0  0  0  0 
  1 10  2  0  0  0  0 
  2 22  1  0  0  0  0 
  2 21  1  0  0  0  0 
  3 23  1  0  0  0  0 
  3 25  1  0  0  0  0 
  4 27  1  0  0  0  0 
  4 15  1  0  0  0  0 
  5  6  2  0  0  0  0 
  6  8  1  0  0  0  0 
  6 30  1  0  0  0  0 
  7  9  2  0  0  0  0 
  7  5  1  0  0  0  0 
  8 32  1  0  0  0  0 
  9 12  1  0  0  0  0 
 10 14  1  0  0  0  0 
 10  2  1  0  0  0  0 
 11  3  1  0  0  0  0 
 11 34  1  1  0  0  0 
 12 13  1  0  0  0  0 
 12  8  2  0  0  0  0 
 13 35  1  6  0  0  0 
 13 16  1  0  0  0  0 
 13 11  1  0  0  0  0 
 14 17  2  0  0  0  0 
 15 11  1  0  0  0  0 
 15 14  1  0  0  0  0 
 18  1  1  0  0  0  0 
 19  1  1  0  0  0  0 
 20  2  1  0  0  0  0 
 24  3  1  0  0  0  0 
 26  4  1  0  0  0  0 
 28  4  1  0  0  0  0 
 29  5  1  0  0  0  0 
 31  7  1  0  0  0  0 
 33  9  1  0  0  0  0 
 36 16  1  0  0  0  0 
M  END 
>  <HBA> 
3 
 
>  <HBD> 
1 
 
>  <TPSA> 
40.54 
 
>  <cid> 
38091 
 
>  <dipole> 
3.8 
 
>  <excitation_energy_1> 
4.899 
 
>  <excitation_energy_2> 
5.212 
 
>  <excitation_energy_3> 
5.28 
 
>  <excitation_energy_4> 
5.304 
 
>  <homo_energy> 
-6.297 
 
>  <homo_lumo_gap> 
6.036 
 
>  <logP> 
2.143 
 
>  <lumo_energy> 
-0.261 
 
>  <melting_point> 
27.97 
 
>  <molecular_refractivity> 
68.84 
 
>  <oscillator_strength_1> 
0.0077 
 
>  <oscillator_strength_2> 
0.0296 
 
>  <oscillator_strength_3> 
0.0024 
 
>  <oscillator_strength_4> 
0.0074 
 
>  <open_babel_can_smiles> 
C[C@H](N(C(=O)C(=C)C)C)[C@@H](c1ccccc1)O 
 
>  <mulliken_charges> 
36 
1   -0.375293 
2   -0.50741 
3   -0.455837 
4   -0.32699 
5   -0.127662 
6   -0.129855 
7   -0.131928 
8   -0.166784 
9   -0.20006 
10   0.119357 
11   0.009298 
12   0.136502 
13   0.064179 
14   0.544377 
15   -0.426587 
16   -0.629712 
17   -0.52203 
18   0.141702 
19   0.157902 
20   0.147458 
21   0.191824 
22   0.153887 
23   0.178919 
24   0.133258 
25   0.15734 
26   0.154387 
27   0.176094 
28   0.158747 
29   0.131958 
30   0.136468 
31   0.130202 
32   0.153578 
33   0.124638 
34   0.195511 
35   0.109217 
36   0.393345 
 
>  <lowdin_charges> 
36 
1   -0.337878 
2   -0.435749 
3   -0.452545 
4   -0.356467 
5   -0.15401 
6   -0.152059 
7   -0.157878 
8   -0.148672 
9   -0.175344 
10   -0.016178 
11   -0.065924 
12   -0.028908 
13   -0.005874 
14   0.159904 
15   -0.101809 
16   -0.460643 
17   -0.314172 
18   0.158771 
19   0.166415 
20   0.154533 
21   0.177828 
22   0.155701 
23   0.169743 
24   0.143294 
25   0.15933 
26   0.145225 
27   0.168269 
28   0.15161 
29   0.157737 
30   0.161989 
31   0.156921 
32   0.168275 
33   0.153798 
34   0.18061 
35   0.126379 
36   0.347777 
 
$$$$ 
 
