PCCDB-ID:  28182 
public computational chemistry database (PCCDB) project, http://pccdb.org 
 
 30 31  0  0  0  0  0  0  0  0999 V2000 
   -1.5427    1.2392    1.9445 C   0  0  0  0  0  0  0  0  0  0  0  0 
   -0.2500    2.0573    1.8047 C   0  0  0  0  0  0  0  0  0  0  0  0 
   -1.9460    0.4276    0.7070 C   0  0  0  0  0  0  0  0  0  0  0  0 
    1.0137    1.2065    1.5789 C   0  0  0  0  0  0  0  0  0  0  0  0 
    0.9967   -1.4822   -5.9686 C   0  0  0  0  0  0  0  0  0  0  0  0 
    0.5616   -1.2393   -4.6355 C   0  0  0  0  0  0  0  0  0  0  0  0 
   -0.8840   -0.5609    0.2002 C   0  0  0  0  0  0  0  0  0  0  0  0 
    1.2863    0.8037    0.1273 C   0  0  0  0  0  0  0  0  0  0  0  0 
    2.2027   -0.9021   -6.2575 C   0  0  0  0  0  0  0  0  0  0  0  0 
    1.3656   -0.0129   -2.5272 C   0  0  0  0  0  0  0  0  0  0  0  0 
    1.4418   -0.4703   -3.9054 C   0  0  0  0  0  0  0  0  0  0  0  0 
    0.3464   -0.3482   -1.8000 N   0  0  0  0  0  0  0  0  0  0  0  0 
    0.2132    0.0702   -0.5293 N   0  0  0  0  0  0  0  0  0  0  0  0 
    2.8310   -0.0401   -4.8872 S   0  0  0  0  0  0  0  0  0  0  0  0 
   -2.3664    1.9159    2.2075 H   0  0  0  0  0  0  0  0  0  0  0  0 
   -1.4282    0.5529    2.7971 H   0  0  0  0  0  0  0  0  0  0  0  0 
   -0.1161    2.6437    2.7228 H   0  0  0  0  0  0  0  0  0  0  0  0 
   -0.3514    2.7868    0.9884 H   0  0  0  0  0  0  0  0  0  0  0  0 
   -2.2077    1.0985   -0.1219 H   0  0  0  0  0  0  0  0  0  0  0  0 
   -2.8520   -0.1454    0.9475 H   0  0  0  0  0  0  0  0  0  0  0  0 
    0.9806    0.3176    2.2225 H   0  0  0  0  0  0  0  0  0  0  0  0 
    1.8963    1.7734    1.9007 H   0  0  0  0  0  0  0  0  0  0  0  0 
    0.4325   -2.0676   -6.6875 H   0  0  0  0  0  0  0  0  0  0  0  0 
   -0.3647   -1.6105   -4.2136 H   0  0  0  0  0  0  0  0  0  0  0  0 
   -1.3332   -1.2490   -0.5180 H   0  0  0  0  0  0  0  0  0  0  0  0 
   -0.5001   -1.1690    1.0347 H   0  0  0  0  0  0  0  0  0  0  0  0 
    2.2173    0.2109    0.0819 H   0  0  0  0  0  0  0  0  0  0  0  0 
    1.4781    1.7181   -0.4563 H   0  0  0  0  0  0  0  0  0  0  0  0 
    2.7580   -0.9250   -7.1851 H   0  0  0  0  0  0  0  0  0  0  0  0 
    2.1870    0.6075   -2.1664 H   0  0  0  0  0  0  0  0  0  0  0  0 
  1 15  1  0  0  0  0 
  1 16  1  0  0  0  0 
  2  1  1  0  0  0  0 
  2 17  1  0  0  0  0 
  3 20  1  0  0  0  0 
  3  1  1  0  0  0  0 
  4  2  1  0  0  0  0 
  4 22  1  0  0  0  0 
  4 21  1  0  0  0  0 
  5  6  1  0  0  0  0 
  6 24  1  0  0  0  0 
  6 11  2  0  0  0  0 
  7  3  1  0  0  0  0 
  7 26  1  0  0  0  0 
  8  4  1  0  0  0  0 
  9  5  2  0  0  0  0 
  9 14  1  0  0  0  0 
 10 30  1  0  0  0  0 
 10 12  2  0  0  0  0 
 11 10  1  0  0  0  0 
 12 13  1  0  0  0  0 
 13  8  1  0  0  0  0 
 13  7  1  0  0  0  0 
 14 11  1  0  0  0  0 
 18  2  1  0  0  0  0 
 19  3  1  0  0  0  0 
 23  5  1  0  0  0  0 
 25  7  1  0  0  0  0 
 27  8  1  0  0  0  0 
 28  8  1  0  0  0  0 
 29  9  1  0  0  0  0 
M  END 
>  <HBA> 
3 
 
>  <HBD> 
0 
 
>  <TPSA> 
43.84 
 
>  <cid> 
28182 
 
>  <dipole> 
2.72 
 
>  <excitation_energy_1> 
3.91 
 
>  <excitation_energy_2> 
4.35 
 
>  <excitation_energy_3> 
4.528 
 
>  <excitation_energy_4> 
4.814 
 
>  <homo_energy> 
-4.833 
 
>  <homo_lumo_gap> 
4.204 
 
>  <logP> 
2.896 
 
>  <lumo_energy> 
-0.629 
 
>  <melting_point> 
45.47 
 
>  <molecular_refractivity> 
66.51 
 
>  <oscillator_strength_1> 
0.6538 
 
>  <oscillator_strength_2> 
0.0121 
 
>  <oscillator_strength_3> 
0.0066 
 
>  <oscillator_strength_4> 
0.0096 
 
>  <open_babel_can_smiles> 
C1CCCN(CC1)/N=C/c1cccs1 
 
>  <mulliken_charges> 
30 
1   -0.261782 
2   -0.254219 
3   -0.256093 
4   -0.290584 
5   -0.098711 
6   -0.121983 
7   -0.127099 
8   -0.126528 
9   -0.349811 
10   0.010591 
11   -0.130616 
12   -0.260776 
13   -0.233397 
14   0.222757 
15   0.136066 
16   0.129088 
17   0.136662 
18   0.138415 
19   0.146116 
20   0.13401 
21   0.14453 
22   0.146154 
23   0.135713 
24   0.144917 
25   0.17073 
26   0.134856 
27   0.142242 
28   0.150106 
29   0.165926 
30   0.122721 
 
>  <lowdin_charges> 
30 
1   -0.279678 
2   -0.27983 
3   -0.287739 
4   -0.283746 
5   -0.178814 
6   -0.189146 
7   -0.200888 
8   -0.207716 
9   -0.331014 
10   -0.174246 
11   -0.149536 
12   -0.093792 
13   -0.060815 
14   0.291472 
15   0.147326 
16   0.137976 
17   0.147476 
18   0.144511 
19   0.149288 
20   0.147978 
21   0.145697 
22   0.156315 
23   0.16401 
24   0.170554 
25   0.170153 
26   0.137218 
27   0.140065 
28   0.144274 
29   0.179762 
30   0.142883 
 
$$$$ 
 
