PCCDB-ID:  56383 
public computational chemistry database (PCCDB) project, http://pccdb.org 
 
 38 39  0  0  1  0  0  0  0  0999 V2000 
    1.8606   -1.0649    0.6282 C   0  0  0  0  0  0  0  0  0  0  0  0 
    5.8963    1.3130   -6.0673 C   0  0  0  0  0  0  0  0  0  0  0  0 
    2.0915    0.3592    0.1122 C   0  0  0  0  0  0  0  0  0  0  0  0 
    0.9982    5.0849    2.5583 C   0  0  0  0  0  0  0  0  0  0  0  0 
    0.6244    4.1781    3.5535 C   0  0  0  0  0  0  0  0  0  0  0  0 
    1.8575    4.6852    1.5246 C   0  0  0  0  0  0  0  0  0  0  0  0 
    1.0844    2.8559    3.5405 C   0  0  0  0  0  0  0  0  0  0  0  0 
    4.1029    2.5678   -3.1192 C   0  0  0  0  0  0  0  0  0  0  0  0 
    5.0999    1.7093   -3.8892 C   0  0  0  0  0  0  0  0  0  0  0  0 
    3.1564    2.9742   -0.9036 C   0  0  0  0  0  0  0  0  0  0  0  0 
    2.3201    3.3754    1.4995 C   0  0  0  0  0  0  0  0  0  0  0  0 
    3.2876    2.6474    0.5868 C   0  0  1  0  0  0  0  0  0  0  0  0 
    3.0402    1.1606    1.0040 C   0  0  1  0  0  0  0  0  0  0  0  0 
    1.9287    2.4822    2.5010 C   0  0  0  0  0  0  0  0  0  0  0  0 
    4.1554    2.2542   -1.6930 N   0  0  0  0  0  0  0  0  0  0  0  0 
    5.0252    2.0680   -5.2540 O   0  0  0  0  0  0  0  0  0  0  0  0 
    2.4671    1.2370    2.3509 O   0  0  0  0  0  0  0  0  0  0  0  0 
    1.1647   -1.6073   -0.0213 H   0  0  0  0  0  0  0  0  0  0  0  0 
    1.4454   -1.0524    1.6403 H   0  0  0  0  0  0  0  0  0  0  0  0 
    2.7997   -1.6319    0.6570 H   0  0  0  0  0  0  0  0  0  0  0  0 
    5.7627    1.6618   -7.0947 H   0  0  0  0  0  0  0  0  0  0  0  0 
    5.6669    0.2359   -6.0222 H   0  0  0  0  0  0  0  0  0  0  0  0 
    6.9505    1.4530   -5.7768 H   0  0  0  0  0  0  0  0  0  0  0  0 
    1.1322    0.8896    0.0429 H   0  0  0  0  0  0  0  0  0  0  0  0 
    2.5250    0.3301   -0.8937 H   0  0  0  0  0  0  0  0  0  0  0  0 
    0.6247    6.1044    2.5860 H   0  0  0  0  0  0  0  0  0  0  0  0 
   -0.0401    4.4995    4.3512 H   0  0  0  0  0  0  0  0  0  0  0  0 
    2.1560    5.3966    0.7584 H   0  0  0  0  0  0  0  0  0  0  0  0 
    0.7959    2.1415    4.3048 H   0  0  0  0  0  0  0  0  0  0  0  0 
    3.0936    2.3461   -3.4856 H   0  0  0  0  0  0  0  0  0  0  0  0 
    4.2963    3.6325   -3.3450 H   0  0  0  0  0  0  0  0  0  0  0  0 
    4.8633    0.6427   -3.7440 H   0  0  0  0  0  0  0  0  0  0  0  0 
    6.1240    1.8713   -3.5036 H   0  0  0  0  0  0  0  0  0  0  0  0 
    3.2278    4.0714   -1.0306 H   0  0  0  0  0  0  0  0  0  0  0  0 
    2.1625    2.6894   -1.2672 H   0  0  0  0  0  0  0  0  0  0  0  0 
    4.3141    2.9150    0.8899 H   0  0  0  0  0  0  0  0  0  0  0  0 
    3.9829    0.6173    1.1139 H   0  0  0  0  0  0  0  0  0  0  0  0 
    5.0823    2.4899   -1.3367 H   0  0  0  0  0  0  0  0  0  0  0  0 
  1 20  1  0  0  0  0 
  1 19  1  0  0  0  0 
  2 22  1  0  0  0  0 
  2 23  1  0  0  0  0 
  2 16  1  0  0  0  0 
  3  1  1  0  0  0  0 
  3 13  1  0  0  0  0 
  4 26  1  0  0  0  0 
  4  5  2  0  0  0  0 
  5 27  1  0  0  0  0 
  6  4  1  0  0  0  0 
  7  5  1  0  0  0  0 
  7 29  1  0  0  0  0 
  8 15  1  0  0  0  0 
  9 32  1  0  0  0  0 
  9 33  1  0  0  0  0 
  9  8  1  0  0  0  0 
 10 12  1  0  0  0  0 
 11  6  2  0  0  0  0 
 11 14  1  0  0  0  0 
 12 36  1  1  0  0  0 
 12 13  1  0  0  0  0 
 12 11  1  0  0  0  0 
 13 37  1  1  0  0  0 
 13 17  1  0  0  0  0 
 14  7  2  0  0  0  0 
 15 38  1  0  0  0  0 
 15 10  1  0  0  0  0 
 16  9  1  0  0  0  0 
 17 14  1  0  0  0  0 
 18  1  1  0  0  0  0 
 21  2  1  0  0  0  0 
 24  3  1  0  0  0  0 
 25  3  1  0  0  0  0 
 28  6  1  0  0  0  0 
 30  8  1  0  0  0  0 
 31  8  1  0  0  0  0 
 34 10  1  0  0  0  0 
 35 10  1  0  0  0  0 
M  END 
>  <HBA> 
3 
 
>  <HBD> 
1 
 
>  <TPSA> 
30.49 
 
>  <cid> 
56383 
 
>  <dipole> 
2.1 
 
>  <excitation_energy_1> 
4.69 
 
>  <excitation_energy_2> 
5.249 
 
>  <excitation_energy_3> 
5.332 
 
>  <excitation_energy_4> 
5.428 
 
>  <homo_energy> 
-5.587 
 
>  <homo_lumo_gap> 
5.627 
 
>  <logP> 
2.568 
 
>  <lumo_energy> 
0.041 
 
>  <melting_point> 
50.08 
 
>  <molecular_refractivity> 
68.51 
 
>  <oscillator_strength_1> 
0.066 
 
>  <oscillator_strength_2> 
0.007 
 
>  <oscillator_strength_3> 
0.0026 
 
>  <oscillator_strength_4> 
0.0054 
 
>  <open_babel_can_smiles> 
COCCNC[C@@H]1[C@H](CC)Oc2c1cccc2 
 
>  <mulliken_charges> 
38 
1   -0.448772 
2   -0.190474 
3   -0.269164 
4   -0.140382 
5   -0.137597 
6   -0.210299 
7   -0.189834 
8   -0.132689 
9   -0.011279 
10   -0.116964 
11   0.09863 
12   -0.202351 
13   0.128731 
14   0.354129 
15   -0.572141 
16   -0.464129 
17   -0.543535 
18   0.140972 
19   0.164084 
20   0.138683 
21   0.15916 
22   0.131284 
23   0.129094 
24   0.138709 
25   0.161887 
26   0.122904 
27   0.127605 
28   0.125569 
29   0.135497 
30   0.154881 
31   0.129321 
32   0.131748 
33   0.109188 
34   0.122513 
35   0.153503 
36   0.143191 
37   0.13628 
38   0.292046 
 
>  <lowdin_charges> 
38 
1   -0.445848 
2   -0.273811 
3   -0.289301 
4   -0.179805 
5   -0.148395 
6   -0.161612 
7   -0.194162 
8   -0.204169 
9   -0.128925 
10   -0.197157 
11   -0.050392 
12   -0.135341 
13   0.01602 
14   0.096191 
15   -0.363684 
16   -0.270631 
17   -0.214894 
18   0.15108 
19   0.156393 
20   0.14554 
21   0.154354 
22   0.130188 
23   0.129289 
24   0.145781 
25   0.158845 
26   0.154695 
27   0.158225 
28   0.155943 
29   0.166428 
30   0.150075 
31   0.12524 
32   0.130438 
33   0.119102 
34   0.122218 
35   0.148669 
36   0.146985 
37   0.146901 
38   0.249526 
 
$$$$ 
 
