PCCDB-ID:  42752 
public computational chemistry database (PCCDB) project, http://pccdb.org 
 
 38 37  0  0  0  0  0  0  0  0999 V2000 
    2.1436    3.9307   -0.7798 C   0  0  0  0  0  0  0  0  0  0  0  0 
    2.2218   -1.9886   -2.5630 C   0  0  0  0  0  0  0  0  0  0  0  0 
    8.3023    0.0623    0.9790 C   0  0  0  0  0  0  0  0  0  0  0  0 
    7.0442   -2.0095    1.6655 C   0  0  0  0  0  0  0  0  0  0  0  0 
    6.0263    1.6038   -1.1059 C   0  0  0  0  0  0  0  0  0  0  0  0 
    1.8651    2.4362   -0.8294 C   0  0  0  0  0  0  0  0  0  0  0  0 
    3.2912   -2.4162   -1.5691 C   0  0  0  0  0  0  0  0  0  0  0  0 
    5.7350    0.0305    0.9279 C   0  0  0  0  0  0  0  0  0  0  0  0 
    7.0418   -0.7852    0.7356 C   0  0  0  0  0  0  0  0  0  0  0  0 
    3.8209    1.3823    0.0347 C   0  0  0  0  0  0  0  0  0  0  0  0 
    4.7196   -0.5238   -1.3117 C   0  0  0  0  0  0  0  0  0  0  0  0 
    5.0989    0.6221   -0.3612 C   0  0  0  0  0  0  0  0  0  0  0  0 
    3.5249    1.7119    1.1616 O   0  0  0  0  0  0  0  0  0  0  0  0 
    5.2450   -0.7460   -2.3808 O   0  0  0  0  0  0  0  0  0  0  0  0 
    3.0807    1.6807   -1.0567 O   0  0  0  0  0  0  0  0  0  0  0  0 
    3.7476   -1.2944   -0.7744 O   0  0  0  0  0  0  0  0  0  0  0  0 
    1.2008    4.4814   -0.6834 H   0  0  0  0  0  0  0  0  0  0  0  0 
    2.6442    4.2639   -1.6947 H   0  0  0  0  0  0  0  0  0  0  0  0 
    2.7732    4.1770    0.0798 H   0  0  0  0  0  0  0  0  0  0  0  0 
    1.8430   -2.8653   -3.1009 H   0  0  0  0  0  0  0  0  0  0  0  0 
    2.6339   -1.2876   -3.2940 H   0  0  0  0  0  0  0  0  0  0  0  0 
    1.3820   -1.5105   -2.0482 H   0  0  0  0  0  0  0  0  0  0  0  0 
    9.2103   -0.5293    0.8107 H   0  0  0  0  0  0  0  0  0  0  0  0 
    8.3290    0.4238    2.0154 H   0  0  0  0  0  0  0  0  0  0  0  0 
    8.3475    0.9361    0.3220 H   0  0  0  0  0  0  0  0  0  0  0  0 
    7.9648   -2.5945    1.5508 H   0  0  0  0  0  0  0  0  0  0  0  0 
    6.1957   -2.6714    1.4556 H   0  0  0  0  0  0  0  0  0  0  0  0 
    6.9747   -1.7022    2.7171 H   0  0  0  0  0  0  0  0  0  0  0  0 
    6.3428    2.4063   -0.4316 H   0  0  0  0  0  0  0  0  0  0  0  0 
    5.5118    2.0437   -1.9633 H   0  0  0  0  0  0  0  0  0  0  0  0 
    6.9100    1.0839   -1.4810 H   0  0  0  0  0  0  0  0  0  0  0  0 
    1.2251    2.1752   -1.6757 H   0  0  0  0  0  0  0  0  0  0  0  0 
    1.4044    2.0859    0.0973 H   0  0  0  0  0  0  0  0  0  0  0  0 
    4.1519   -2.8592   -2.0760 H   0  0  0  0  0  0  0  0  0  0  0  0 
    2.8978   -3.1234   -0.8350 H   0  0  0  0  0  0  0  0  0  0  0  0 
    5.9057    0.8600    1.6229 H   0  0  0  0  0  0  0  0  0  0  0  0 
    4.9740   -0.6002    1.3974 H   0  0  0  0  0  0  0  0  0  0  0  0 
    7.0818   -1.1581   -0.2979 H   0  0  0  0  0  0  0  0  0  0  0  0 
  1 17  1  0  0  0  0 
  1 19  1  0  0  0  0 
  2 22  1  0  0  0  0 
  2  7  1  0  0  0  0 
  3 24  1  0  0  0  0 
  4 28  1  0  0  0  0 
  5 29  1  0  0  0  0 
  5 12  1  0  0  0  0 
  6  1  1  0  0  0  0 
  6 33  1  0  0  0  0 
  7 35  1  0  0  0  0 
  7 16  1  0  0  0  0 
  8 37  1  0  0  0  0 
  8 36  1  0  0  0  0 
  9  8  1  0  0  0  0 
  9  3  1  0  0  0  0 
  9  4  1  0  0  0  0 
 10 13  2  0  0  0  0 
 11 16  1  0  0  0  0 
 11 12  1  0  0  0  0 
 12 10  1  0  0  0  0 
 12  8  1  0  0  0  0 
 14 11  2  0  0  0  0 
 15  6  1  0  0  0  0 
 15 10  1  0  0  0  0 
 18  1  1  0  0  0  0 
 20  2  1  0  0  0  0 
 21  2  1  0  0  0  0 
 23  3  1  0  0  0  0 
 25  3  1  0  0  0  0 
 26  4  1  0  0  0  0 
 27  4  1  0  0  0  0 
 30  5  1  0  0  0  0 
 31  5  1  0  0  0  0 
 32  6  1  0  0  0  0 
 34  7  1  0  0  0  0 
 38  9  1  0  0  0  0 
M  END 
>  <HBA> 
4 
 
>  <HBD> 
0 
 
>  <TPSA> 
52.6 
 
>  <cid> 
42752 
 
>  <dipole> 
1.61 
 
>  <excitation_energy_1> 
5.628 
 
>  <excitation_energy_2> 
5.772 
 
>  <excitation_energy_3> 
6.624 
 
>  <excitation_energy_4> 
6.837 
 
>  <homo_energy> 
-7.162 
 
>  <homo_lumo_gap> 
7.236 
 
>  <logP> 
2.165 
 
>  <lumo_energy> 
0.073 
 
>  <melting_point> 
13.02 
 
>  <molecular_refractivity> 
62.11 
 
>  <oscillator_strength_1> 
0.0066 
 
>  <oscillator_strength_2> 
0.0041 
 
>  <oscillator_strength_3> 
0.0013 
 
>  <oscillator_strength_4> 
0.0387 
 
>  <open_babel_can_smiles> 
CCOC(=O)C(C(=O)OCC)(CC(C)C)C 
 
>  <mulliken_charges> 
38 
1   -0.463628 
2   -0.460791 
3   -0.449979 
4   -0.448755 
5   -0.457572 
6   -0.045653 
7   -0.047042 
8   -0.270399 
9   -0.078919 
10   0.658754 
11   0.664306 
12   -0.116461 
13   -0.485075 
14   -0.492288 
15   -0.471608 
16   -0.469115 
17   0.151759 
18   0.159031 
19   0.177003 
20   0.150297 
21   0.179072 
22   0.157294 
23   0.140863 
24   0.14068 
25   0.146143 
26   0.139747 
27   0.142084 
28   0.142934 
29   0.150078 
30   0.169396 
31   0.177386 
32   0.154253 
33   0.172401 
34   0.17124 
35   0.154536 
36   0.156819 
37   0.160837 
38   0.14037 
 
>  <lowdin_charges> 
38 
1   -0.45619 
2   -0.456601 
3   -0.446532 
4   -0.442745 
5   -0.438811 
6   -0.127439 
7   -0.129671 
8   -0.273082 
9   -0.126142 
10   0.199536 
11   0.198071 
12   -0.035138 
13   -0.25697 
14   -0.259455 
15   -0.190644 
16   -0.190354 
17   0.159688 
18   0.15731 
19   0.166362 
20   0.15951 
21   0.168027 
22   0.157121 
23   0.148315 
24   0.144783 
25   0.150083 
26   0.147511 
27   0.148338 
28   0.145611 
29   0.155197 
30   0.165382 
31   0.168515 
32   0.154056 
33   0.160247 
34   0.160233 
35   0.154772 
36   0.158814 
37   0.160575 
38   0.141715 
 
$$$$ 
 
