PCCDB-ID:  19085 
public computational chemistry database (PCCDB) project, http://pccdb.org 
 
 27 27  0  0  1  0  0  0  0  0999 V2000 
    3.4502   -4.1155   -0.5640 C   0  0  0  0  0  0  0  0  0  0  0  0 
    3.3674   -0.3484    0.5520 C   0  0  0  0  0  0  0  0  0  0  0  0 
    3.2026   -2.8723    0.2954 C   0  0  0  0  0  0  0  0  0  0  0  0 
    5.9613   -1.5030   -1.6466 C   0  0  0  0  0  0  0  0  0  0  0  0 
    7.3458   -1.5469   -1.7651 C   0  0  0  0  0  0  0  0  0  0  0  0 
    6.1419   -1.8135    0.7116 C   0  0  0  0  0  0  0  0  0  0  0  0 
    3.8081   -1.5704   -0.2773 C   0  0  2  0  0  0  0  0  0  0  0  0 
    5.3246   -1.6345   -0.4042 C   0  0  0  0  0  0  0  0  0  0  0  0 
    7.5342   -1.8510    0.6084 C   0  0  0  0  0  0  0  0  0  0  0  0 
    8.1700   -1.7180   -0.6441 C   0  0  0  0  0  0  0  0  0  0  0  0 
    8.2910   -2.0286    1.8540 N   0  0  0  0  0  0  0  0  0  0  0  0 
    9.5170   -1.7797   -0.7605 O   0  0  0  0  0  0  0  0  0  0  0  0 
    7.6643   -2.4161    2.8449 O   0  0  0  0  0  0  0  0  0  0  0  0 
    9.4921   -1.7727    1.8506 O   0  0  0  0  0  0  0  0  0  0  0  0 
    2.9684   -4.9962   -0.1253 H   0  0  0  0  0  0  0  0  0  0  0  0 
    4.5196   -4.3328   -0.6582 H   0  0  0  0  0  0  0  0  0  0  0  0 
    3.0455   -3.9852   -1.5756 H   0  0  0  0  0  0  0  0  0  0  0  0 
    2.2740   -0.2755    0.5801 H   0  0  0  0  0  0  0  0  0  0  0  0 
    3.7611    0.5821    0.1290 H   0  0  0  0  0  0  0  0  0  0  0  0 
    3.7227   -0.4210    1.5867 H   0  0  0  0  0  0  0  0  0  0  0  0 
    3.5959   -3.0385    1.3079 H   0  0  0  0  0  0  0  0  0  0  0  0 
    2.1212   -2.7199    0.4129 H   0  0  0  0  0  0  0  0  0  0  0  0 
    5.3621   -1.3647   -2.5432 H   0  0  0  0  0  0  0  0  0  0  0  0 
    7.8099   -1.4491   -2.7450 H   0  0  0  0  0  0  0  0  0  0  0  0 
    5.7213   -1.9339    1.7029 H   0  0  0  0  0  0  0  0  0  0  0  0 
    3.4061   -1.4426   -1.2929 H   0  0  0  0  0  0  0  0  0  0  0  0 
    9.7437   -1.7113   -1.7025 H   0  0  0  0  0  0  0  0  0  0  0  0 
  1 15  1  0  0  0  0 
  1  3  1  0  0  0  0 
  2 18  1  0  0  0  0 
  2 20  1  0  0  0  0 
  3 22  1  0  0  0  0 
  3 21  1  0  0  0  0 
  4  8  1  0  0  0  0 
  5  4  2  0  0  0  0 
  5 10  1  0  0  0  0 
  6 25  1  0  0  0  0 
  7 26  1  6  0  0  0 
  7  3  1  0  0  0  0 
  7  2  1  0  0  0  0 
  8  7  1  0  0  0  0 
  8  6  2  0  0  0  0 
  9  6  1  0  0  0  0 
  9 11  1  0  0  0  0 
 10  9  2  0  0  0  0 
 11 13  2  0  0  0  0 
 12 10  1  0  0  0  0 
 14 11  2  0  0  0  0 
 16  1  1  0  0  0  0 
 17  1  1  0  0  0  0 
 19  2  1  0  0  0  0 
 23  4  1  0  0  0  0 
 24  5  1  0  0  0  0 
 27 12  1  0  0  0  0 
M  END 
>  <HBA> 
1 
 
>  <HBD> 
1 
 
>  <TPSA> 
66.05 
 
>  <cid> 
19085 
 
>  <dipole> 
5.94 
 
>  <excitation_energy_1> 
3.68 
 
>  <excitation_energy_2> 
3.711 
 
>  <excitation_energy_3> 
4.273 
 
>  <excitation_energy_4> 
4.831 
 
>  <homo_energy> 
-6.553 
 
>  <homo_lumo_gap> 
4.46 
 
>  <logP> 
3.337 
 
>  <lumo_energy> 
-2.093 
 
>  <melting_point> 
85.93 
 
>  <molecular_refractivity> 
56.67 
 
>  <oscillator_strength_1> 
0.0099 
 
>  <oscillator_strength_2> 
0.0477 
 
>  <oscillator_strength_3> 
0.0024 
 
>  <oscillator_strength_4> 
0.1454 
 
>  <open_babel_can_smiles> 
CC[C@H](c1ccc(c(c1)N(=O)=O)O)C 
 
>  <mulliken_charges> 
27 
1   -0.447395 
2   -0.446151 
3   -0.249979 
4   -0.178925 
5   -0.200181 
6   -0.229988 
7   -0.160692 
8   0.176091 
9   0.265451 
10   0.33188 
11   0.362508 
12   -0.60104 
13   -0.403639 
14   -0.376906 
15   0.148338 
16   0.153149 
17   0.138553 
18   0.146621 
19   0.149636 
20   0.151165 
21   0.140889 
22   0.135566 
23   0.14035 
24   0.132262 
25   0.181954 
26   0.125934 
27   0.414552 
 
>  <lowdin_charges> 
27 
1   -0.445841 
2   -0.438639 
3   -0.268962 
4   -0.136591 
5   -0.208332 
6   -0.136758 
7   -0.119919 
8   -0.012837 
9   -0.025828 
10   0.115897 
11   0.305944 
12   -0.33527 
13   -0.263044 
14   -0.228416 
15   0.154138 
16   0.150979 
17   0.144381 
18   0.149373 
19   0.153348 
20   0.150397 
21   0.143219 
22   0.142315 
23   0.164276 
24   0.16034 
25   0.185432 
26   0.140133 
27   0.360266 
 
$$$$ 
 
