PCCDB-ID:  68505 
public computational chemistry database (PCCDB) project, http://pccdb.org 
 
 14 13  0  0  0  0  0  0  0  0999 V2000 
    0.9980   -0.1539   -0.2334 C   0  0  0  0  0  0  0  0  0  0  0  0 
    1.3460    1.3778   -2.2478 C   0  0  0  0  0  0  0  0  0  0  0  0 
    0.5714    1.1459   -0.9431 C   0  0  0  0  0  0  0  0  0  0  0  0 
   -0.8324    1.1849   -1.1486 O   0  0  0  0  0  0  0  0  0  0  0  0 
    0.4443   -1.6974   -1.0961 S   0  0  0  0  0  0  0  0  0  0  0  0 
    0.9826    3.0072   -3.0204 S   0  0  0  0  0  0  0  0  0  0  0  0 
    0.5922   -0.1731    0.7804 H   0  0  0  0  0  0  0  0  0  0  0  0 
    2.0877   -0.2153   -0.1590 H   0  0  0  0  0  0  0  0  0  0  0  0 
    1.1378    0.5738   -2.9623 H   0  0  0  0  0  0  0  0  0  0  0  0 
    2.4234    1.3802   -2.0527 H   0  0  0  0  0  0  0  0  0  0  0  0 
    0.7853    1.9762   -0.2602 H   0  0  0  0  0  0  0  0  0  0  0  0 
   -1.0498    0.4062   -1.6932 H   0  0  0  0  0  0  0  0  0  0  0  0 
   -0.6875   -1.8826   -0.3856 H   0  0  0  0  0  0  0  0  0  0  0  0 
   -0.3561    2.9129   -2.8731 H   0  0  0  0  0  0  0  0  0  0  0  0 
  1  8  1  0  0  0  0 
  1  7  1  0  0  0  0 
  2 10  1  0  0  0  0 
  2  3  1  0  0  0  0 
  3 11  1  0  0  0  0 
  3  1  1  0  0  0  0 
  4  3  1  0  0  0  0 
  5 13  1  0  0  0  0 
  5  1  1  0  0  0  0 
  6 14  1  0  0  0  0 
  6  2  1  0  0  0  0 
  9  2  1  0  0  0  0 
 12  4  1  0  0  0  0 
M  END 
>  <HBA> 
3 
 
>  <HBD> 
3 
 
>  <TPSA> 
97.83 
 
>  <cid> 
68505 
 
>  <dipole> 
2.31 
 
>  <excitation_energy_1> 
5.1 
 
>  <excitation_energy_2> 
5.492 
 
>  <excitation_energy_3> 
5.66 
 
>  <excitation_energy_4> 
5.857 
 
>  <homo_energy> 
-6.329 
 
>  <homo_lumo_gap> 
6.536 
 
>  <logP> 
0.207 
 
>  <lumo_energy> 
0.207 
 
>  <melting_point> 
34.57 
 
>  <molecular_refractivity> 
33.55 
 
>  <oscillator_strength_1> 
0.006 
 
>  <oscillator_strength_2> 
0.0092 
 
>  <oscillator_strength_3> 
0.0248 
 
>  <oscillator_strength_4> 
0.0071 
 
>  <open_babel_can_smiles> 
SCC(CS)O 
 
>  <mulliken_charges> 
14 
1   -0.439087 
2   -0.427176 
3   0.143195 
4   -0.617503 
5   -0.103297 
6   -0.092652 
7   0.195725 
8   0.184701 
9   0.186708 
10   0.173596 
11   0.165564 
12   0.399408 
13   0.113096 
14   0.117723 
 
>  <lowdin_charges> 
14 
1   -0.38498 
2   -0.392243 
3   -0.014294 
4   -0.457809 
5   -0.089956 
6   -0.089844 
7   0.174988 
8   0.1696 
9   0.165674 
10   0.167447 
11   0.160152 
12   0.342702 
13   0.123324 
14   0.125238 
 
$$$$ 
 
