PCCDB-ID:  11594 
public computational chemistry database (PCCDB) project, http://pccdb.org 
 
 26 25  0  0  0  0  0  0  0  0999 V2000 
    6.4381   -1.8142   -1.4354 C   0  0  0  0  0  0  0  0  0  0  0  0 
    0.5789    3.0558   -1.8468 C   0  0  0  0  0  0  0  0  0  0  0  0 
    1.9466    3.2627    0.2654 C   0  0  0  0  0  0  0  0  0  0  0  0 
    5.9482   -0.4114   -1.0621 C   0  0  0  0  0  0  0  0  0  0  0  0 
    4.4823   -0.1627   -1.4413 C   0  0  0  0  0  0  0  0  0  0  0  0 
    3.9782    1.2394   -1.0753 C   0  0  0  0  0  0  0  0  0  0  0  0 
    2.5139    1.4721   -1.4741 C   0  0  0  0  0  0  0  0  0  0  0  0 
    1.9748    2.8952   -1.2264 C   0  0  0  0  0  0  0  0  0  0  0  0 
    7.4878   -1.9605   -1.1562 H   0  0  0  0  0  0  0  0  0  0  0  0 
    6.3531   -1.9886   -2.5152 H   0  0  0  0  0  0  0  0  0  0  0  0 
    5.8479   -2.5880   -0.9291 H   0  0  0  0  0  0  0  0  0  0  0  0 
    0.1981    4.0758   -1.7157 H   0  0  0  0  0  0  0  0  0  0  0  0 
   -0.1401    2.3713   -1.3776 H   0  0  0  0  0  0  0  0  0  0  0  0 
    0.5916    2.8380   -2.9216 H   0  0  0  0  0  0  0  0  0  0  0  0 
    1.5468    4.2731    0.4122 H   0  0  0  0  0  0  0  0  0  0  0  0 
    2.9446    3.2341    0.7154 H   0  0  0  0  0  0  0  0  0  0  0  0 
    1.3064    2.5682    0.8259 H   0  0  0  0  0  0  0  0  0  0  0  0 
    6.5818    0.3406   -1.5538 H   0  0  0  0  0  0  0  0  0  0  0  0 
    6.0752   -0.2547    0.0188 H   0  0  0  0  0  0  0  0  0  0  0  0 
    3.8490   -0.9163   -0.9496 H   0  0  0  0  0  0  0  0  0  0  0  0 
    4.3562   -0.3221   -2.5228 H   0  0  0  0  0  0  0  0  0  0  0  0 
    4.6127    1.9920   -1.5676 H   0  0  0  0  0  0  0  0  0  0  0  0 
    4.1057    1.3935    0.0049 H   0  0  0  0  0  0  0  0  0  0  0  0 
    1.8731    0.7521   -0.9416 H   0  0  0  0  0  0  0  0  0  0  0  0 
    2.4029    1.2400   -2.5438 H   0  0  0  0  0  0  0  0  0  0  0  0 
    2.6508    3.6007   -1.7349 H   0  0  0  0  0  0  0  0  0  0  0  0 
  1  9  1  0  0  0  0 
  1  4  1  0  0  0  0 
  1 11  1  0  0  0  0 
  2 12  1  0  0  0  0 
  2 13  1  0  0  0  0 
  2  8  1  0  0  0  0 
  3 15  1  0  0  0  0 
  3 16  1  0  0  0  0 
  3 17  1  0  0  0  0 
  4 19  1  0  0  0  0 
  5  6  1  0  0  0  0 
  5  4  1  0  0  0  0 
  5 20  1  0  0  0  0 
  6 23  1  0  0  0  0 
  7  8  1  0  0  0  0 
  7  6  1  0  0  0  0 
  7 24  1  0  0  0  0 
  8  3  1  0  0  0  0 
 10  1  1  0  0  0  0 
 14  2  1  0  0  0  0 
 18  4  1  0  0  0  0 
 21  5  1  0  0  0  0 
 22  6  1  0  0  0  0 
 25  7  1  0  0  0  0 
 26  8  1  0  0  0  0 
M  END 
>  <HBA> 
0 
 
>  <HBD> 
0 
 
>  <TPSA> 
0.0 
 
>  <cid> 
11594 
 
>  <dipole> 
0.09 
 
>  <excitation_energy_1> 
7.707 
 
>  <excitation_energy_2> 
8.033 
 
>  <excitation_energy_3> 
8.045 
 
>  <excitation_energy_4> 
8.065 
 
>  <homo_energy> 
-8.055 
 
>  <homo_lumo_gap> 
10.436 
 
>  <logP> 
3.223 
 
>  <lumo_energy> 
2.381 
 
>  <melting_point> 
-27.89 
 
>  <molecular_refractivity> 
40.57 
 
>  <oscillator_strength_1> 
0.0266 
 
>  <oscillator_strength_2> 
0.0009 
 
>  <oscillator_strength_3> 
0.0121 
 
>  <oscillator_strength_4> 
0.0201 
 
>  <open_babel_can_smiles> 
CCCCCC(C)C 
 
>  <mulliken_charges> 
26 
1   -0.440891 
2   -0.441592 
3   -0.444387 
4   -0.24675 
5   -0.245887 
6   -0.258504 
7   -0.245722 
8   -0.065325 
9   0.140833 
10   0.140791 
11   0.140854 
12   0.138124 
13   0.137637 
14   0.138454 
15   0.138764 
16   0.144545 
17   0.136754 
18   0.129427 
19   0.129342 
20   0.126281 
21   0.125722 
22   0.125399 
23   0.131283 
24   0.122427 
25   0.123806 
26   0.118616 
 
>  <lowdin_charges> 
26 
1   -0.442474 
2   -0.442963 
3   -0.447281 
4   -0.271657 
5   -0.27331 
6   -0.275972 
7   -0.274952 
8   -0.121267 
9   0.147473 
10   0.144194 
11   0.147094 
12   0.14602 
13   0.146039 
14   0.144853 
15   0.146978 
16   0.147964 
17   0.145853 
18   0.139611 
19   0.136417 
20   0.138351 
21   0.134726 
22   0.138062 
23   0.137203 
24   0.137399 
25   0.136588 
26   0.135054 
 
$$$$ 
 
