PCCDB-ID:  35161 
public computational chemistry database (PCCDB) project, http://pccdb.org 
 
 27 27  0  0  0  0  0  0  0  0999 V2000 
    3.0775   -1.9271   -3.4963 C   0  0  0  0  0  0  0  0  0  0  0  0 
    1.2186   -0.6770   -2.3210 C   0  0  0  0  0  0  0  0  0  0  0  0 
    7.6880   -3.3938   -0.8254 C   0  0  0  0  0  0  0  0  0  0  0  0 
    7.5078    1.4143   -1.6118 C   0  0  0  0  0  0  0  0  0  0  0  0 
    3.3867   -1.1120   -1.0941 C   0  0  0  0  0  0  0  0  0  0  0  0 
    2.7375   -0.8342   -2.4730 C   0  0  0  0  0  0  0  0  0  0  0  0 
    6.8964   -2.1295   -1.0069 C   0  0  0  0  0  0  0  0  0  0  0  0 
    6.8102    0.1030   -1.3814 C   0  0  0  0  0  0  0  0  0  0  0  0 
    4.8922   -1.0788   -1.1300 C   0  0  0  0  0  0  0  0  0  0  0  0 
    7.5715   -0.9905   -1.2148 N   0  0  0  0  0  0  0  0  0  0  0  0 
    5.5585   -2.2289   -0.9574 N   0  0  0  0  0  0  0  0  0  0  0  0 
    5.4716    0.1128   -1.3474 N   0  0  0  0  0  0  0  0  0  0  0  0 
    2.6328   -1.6969   -4.4716 H   0  0  0  0  0  0  0  0  0  0  0  0 
    2.6901   -2.9017   -3.1730 H   0  0  0  0  0  0  0  0  0  0  0  0 
    4.1586   -2.0330   -3.6381 H   0  0  0  0  0  0  0  0  0  0  0  0 
    0.7502   -0.4486   -3.2857 H   0  0  0  0  0  0  0  0  0  0  0  0 
    0.9661    0.1317   -1.6250 H   0  0  0  0  0  0  0  0  0  0  0  0 
    0.7627   -1.6005   -1.9413 H   0  0  0  0  0  0  0  0  0  0  0  0 
    8.7547   -3.1716   -0.7651 H   0  0  0  0  0  0  0  0  0  0  0  0 
    7.5083   -4.0708   -1.6692 H   0  0  0  0  0  0  0  0  0  0  0  0 
    7.3613   -3.9182    0.0784 H   0  0  0  0  0  0  0  0  0  0  0  0 
    8.5795    1.2581   -1.7452 H   0  0  0  0  0  0  0  0  0  0  0  0 
    7.3453    2.0792   -0.7551 H   0  0  0  0  0  0  0  0  0  0  0  0 
    7.0885    1.9170   -2.4894 H   0  0  0  0  0  0  0  0  0  0  0  0 
    3.0672   -2.0887   -0.7157 H   0  0  0  0  0  0  0  0  0  0  0  0 
    3.0490   -0.3418   -0.3895 H   0  0  0  0  0  0  0  0  0  0  0  0 
    3.1493    0.1182   -2.8330 H   0  0  0  0  0  0  0  0  0  0  0  0 
  1 14  1  0  0  0  0 
  1  6  1  0  0  0  0 
  2 18  1  0  0  0  0 
  2 17  1  0  0  0  0 
  3 19  1  0  0  0  0 
  3 21  1  0  0  0  0 
  4  8  1  0  0  0  0 
  4 23  1  0  0  0  0 
  5 25  1  0  0  0  0 
  5 26  1  0  0  0  0 
  6  2  1  0  0  0  0 
  6  5  1  0  0  0  0 
  7 11  1  0  0  0  0 
  7  3  1  0  0  0  0 
  8 12  1  0  0  0  0 
  8 10  2  0  0  0  0 
  9  5  1  0  0  0  0 
  9 11  2  0  0  0  0 
 10  7  2  0  0  0  0 
 12  9  1  0  0  0  0 
 13  1  1  0  0  0  0 
 15  1  1  0  0  0  0 
 16  2  1  0  0  0  0 
 20  3  1  0  0  0  0 
 22  4  1  0  0  0  0 
 24  4  1  0  0  0  0 
 27  6  1  0  0  0  0 
M  RAD  1  12   2 
M  END 
>  <HBA> 
3 
 
>  <HBD> 
0 
 
>  <TPSA> 
38.67 
 
>  <cid> 
35161 
 
>  <dipole> 
0.24 
 
>  <excitation_energy_1> 
4.54 
 
>  <excitation_energy_2> 
4.635 
 
>  <excitation_energy_3> 
4.715 
 
>  <excitation_energy_4> 
4.743 
 
>  <homo_energy> 
-6.969 
 
>  <homo_lumo_gap> 
5.929 
 
>  <logP> 
1.687 
 
>  <lumo_energy> 
-1.039 
 
>  <melting_point> 
61.35 
 
>  <molecular_refractivity> 
49.15 
 
>  <oscillator_strength_1> 
0.0 
 
>  <oscillator_strength_2> 
0.0051 
 
>  <oscillator_strength_3> 
0.0004 
 
>  <oscillator_strength_4> 
0.0077 
 
>  <open_babel_can_smiles> 
CC(CC1=NC(=[N]=C([N]1)C)C)C 
 
>  <mulliken_charges> 
27 
1   -0.443627 
2   -0.442954 
3   -0.504985 
4   -0.505226 
5   -0.307276 
6   -0.077733 
7   0.427194 
8   0.426971 
9   0.417901 
10   -0.45503 
11   -0.45589 
12   -0.45389 
13   0.14156 
14   0.143375 
15   0.147366 
16   0.14336 
17   0.142587 
18   0.141075 
19   0.175317 
20   0.177664 
21   0.176953 
22   0.175539 
23   0.177861 
24   0.176006 
25   0.153942 
26   0.155071 
27   0.146869 
 
>  <lowdin_charges> 
27 
1   -0.443715 
2   -0.444763 
3   -0.446483 
4   -0.446872 
5   -0.282902 
6   -0.114854 
7   0.118972 
8   0.118674 
9   0.115362 
10   -0.191738 
11   -0.1903 
12   -0.19039 
13   0.148943 
14   0.147897 
15   0.14913 
16   0.150118 
17   0.14952 
18   0.146929 
19   0.168592 
20   0.175684 
21   0.174542 
22   0.16865 
23   0.175686 
24   0.174236 
25   0.158015 
26   0.163926 
27   0.147139 
 
$$$$ 
 
