PCCDB-ID:  8439 
public computational chemistry database (PCCDB) project, http://pccdb.org 
 
 22 23  0  0  0  0  0  0  0  0999 V2000 
    0.9460   -0.1354   -0.1669 C   0  0  0  0  0  0  0  0  0  0  0  0 
    2.4368    0.0194   -0.1007 C   0  0  0  0  0  0  0  0  0  0  0  0 
    3.2994   -0.9956    0.0606 C   0  0  0  0  0  0  0  0  0  0  0  0 
    5.4822   -2.1276    0.3025 C   0  0  0  0  0  0  0  0  0  0  0  0 
    6.8846   -2.1666    0.3853 C   0  0  0  0  0  0  0  0  0  0  0  0 
    5.4796    0.2923    0.0505 C   0  0  0  0  0  0  0  0  0  0  0  0 
    9.0465    0.7042    0.2013 C   0  0  0  0  0  0  0  0  0  0  0  0 
    4.7656   -0.9312    0.1379 C   0  0  0  0  0  0  0  0  0  0  0  0 
    7.5457   -0.9594    0.2960 C   0  0  0  0  0  0  0  0  0  0  0  0 
    6.8515    0.2391    0.1339 C   0  0  0  0  0  0  0  0  0  0  0  0 
    8.8965   -0.7133    0.3454 O   0  0  0  0  0  0  0  0  0  0  0  0 
    7.7441    1.2843    0.0743 O   0  0  0  0  0  0  0  0  0  0  0  0 
    0.4496    0.4265    0.6368 H   0  0  0  0  0  0  0  0  0  0  0  0 
    0.6454   -1.1851   -0.0811 H   0  0  0  0  0  0  0  0  0  0  0  0 
    0.5447    0.2564   -1.1120 H   0  0  0  0  0  0  0  0  0  0  0  0 
    2.8098    1.0394   -0.1932 H   0  0  0  0  0  0  0  0  0  0  0  0 
    2.8868   -2.0019    0.1475 H   0  0  0  0  0  0  0  0  0  0  0  0 
    4.9304   -3.0614    0.3676 H   0  0  0  0  0  0  0  0  0  0  0  0 
    7.4231   -3.0993    0.5132 H   0  0  0  0  0  0  0  0  0  0  0  0 
    4.9734    1.2425   -0.0754 H   0  0  0  0  0  0  0  0  0  0  0  0 
    9.6324    0.9190   -0.7008 H   0  0  0  0  0  0  0  0  0  0  0  0 
    9.5430    1.1104    1.0909 H   0  0  0  0  0  0  0  0  0  0  0  0 
  1  2  1  0  0  0  0 
  1 14  1  0  0  0  0 
  1 13  1  0  0  0  0 
  2  3  2  0  0  0  0 
  3  8  1  0  0  0  0 
  3 17  1  0  0  0  0 
  4 18  1  0  0  0  0 
  4  5  1  0  0  0  0 
  5 19  1  0  0  0  0 
  6 10  2  0  0  0  0 
  6  8  1  0  0  0  0 
  7 11  1  0  0  0  0 
  7 22  1  0  0  0  0 
  8  4  2  0  0  0  0 
  9 11  1  0  0  0  0 
  9  5  2  0  0  0  0 
 10  9  1  0  0  0  0 
 12 10  1  0  0  0  0 
 12  7  1  0  0  0  0 
 15  1  1  0  0  0  0 
 16  2  1  0  0  0  0 
 20  6  1  0  0  0  0 
 21  7  1  0  0  0  0 
M  END 
>  <HBA> 
2 
 
>  <HBD> 
0 
 
>  <TPSA> 
18.46 
 
>  <cid> 
8439 
 
>  <dipole> 
0.33 
 
>  <excitation_energy_1> 
4.207 
 
>  <excitation_energy_2> 
4.792 
 
>  <excitation_energy_3> 
5.027 
 
>  <excitation_energy_4> 
5.246 
 
>  <homo_energy> 
-5.26 
 
>  <homo_lumo_gap> 
4.708 
 
>  <logP> 
2.448 
 
>  <lumo_energy> 
-0.552 
 
>  <melting_point> 
61.63 
 
>  <molecular_refractivity> 
47.4 
 
>  <oscillator_strength_1> 
0.2663 
 
>  <oscillator_strength_2> 
0.2081 
 
>  <oscillator_strength_3> 
0.0052 
 
>  <oscillator_strength_4> 
0.0602 
 
>  <open_babel_can_smiles> 
C/C=C/c1ccc2c(c1)OCO2 
 
>  <mulliken_charges> 
22 
1   -0.489666 
2   -0.096655 
3   -0.173087 
4   -0.219844 
5   -0.181978 
6   -0.247463 
7   0.195565 
8   0.171899 
9   0.331989 
10   0.338107 
11   -0.532041 
12   -0.535111 
13   0.156112 
14   0.153704 
15   0.155753 
16   0.123342 
17   0.116726 
18   0.128847 
19   0.143746 
20   0.141546 
21   0.159094 
22   0.159417 
 
>  <lowdin_charges> 
22 
1   -0.436676 
2   -0.15861 
3   -0.168727 
4   -0.169326 
5   -0.184783 
6   -0.185968 
7   0.019155 
8   -0.003976 
9   0.071802 
10   0.072422 
11   -0.207455 
12   -0.20725 
13   0.158045 
14   0.153516 
15   0.156964 
16   0.146909 
17   0.149455 
18   0.158848 
19   0.170176 
20   0.168701 
21   0.148036 
22   0.148741 
 
$$$$ 
 
