PCCDB-ID:  17900 
public computational chemistry database (PCCDB) project, http://pccdb.org 
 
 45 45  0  0  0  0  0  0  0  0999 V2000 
    3.7981   -1.1797   -1.5088 C   0  0  0  0  0  0  0  0  0  0  0  0 
    4.5564   -0.2875   -0.5204 C   0  0  0  0  0  0  0  0  0  0  0  0 
    6.0802   -0.4515   -0.6145 C   0  0  0  0  0  0  0  0  0  0  0  0 
    6.8828    0.3687    0.4096 C   0  0  0  0  0  0  0  0  0  0  0  0 
    6.7914    1.8907    0.2198 C   0  0  0  0  0  0  0  0  0  0  0  0 
    7.7289    2.7009    1.1337 C   0  0  0  0  0  0  0  0  0  0  0  0 
    7.4542    2.6032    2.6456 C   0  0  0  0  0  0  0  0  0  0  0  0 
    6.4366    0.5585    7.3342 C   0  0  0  0  0  0  0  0  0  0  0  0 
    6.1054    3.1985    3.0841 C   0  0  0  0  0  0  0  0  0  0  0  0 
    5.8740    1.9664    7.5836 C   0  0  0  0  0  0  0  0  0  0  0  0 
    6.7745    0.3450    5.8499 C   0  0  0  0  0  0  0  0  0  0  0  0 
    5.8656    3.2121    4.6133 C   0  0  0  0  0  0  0  0  0  0  0  0 
    4.6728    2.2614    6.6687 C   0  0  0  0  0  0  0  0  0  0  0  0 
    5.5630    0.6467    4.9525 C   0  0  0  0  0  0  0  0  0  0  0  0 
    4.9888    2.0650    5.1677 C   0  0  0  0  0  0  0  0  0  0  0  0 
    2.7138   -1.0454   -1.4206 H   0  0  0  0  0  0  0  0  0  0  0  0 
    4.0179   -2.2404   -1.3351 H   0  0  0  0  0  0  0  0  0  0  0  0 
    4.0782   -0.9507   -2.5445 H   0  0  0  0  0  0  0  0  0  0  0  0 
    4.2328   -0.5184    0.5050 H   0  0  0  0  0  0  0  0  0  0  0  0 
    4.2815    0.7606   -0.6976 H   0  0  0  0  0  0  0  0  0  0  0  0 
    6.4101   -0.1870   -1.6306 H   0  0  0  0  0  0  0  0  0  0  0  0 
    6.3264   -1.5153   -0.4843 H   0  0  0  0  0  0  0  0  0  0  0  0 
    7.9398    0.0710    0.3489 H   0  0  0  0  0  0  0  0  0  0  0  0 
    6.5499    0.0960    1.4212 H   0  0  0  0  0  0  0  0  0  0  0  0 
    5.7560    2.2252    0.3631 H   0  0  0  0  0  0  0  0  0  0  0  0 
    7.0410    2.1278   -0.8247 H   0  0  0  0  0  0  0  0  0  0  0  0 
    7.6796    3.7590    0.8383 H   0  0  0  0  0  0  0  0  0  0  0  0 
    8.7637    2.3807    0.9446 H   0  0  0  0  0  0  0  0  0  0  0  0 
    8.2546    3.1420    3.1727 H   0  0  0  0  0  0  0  0  0  0  0  0 
    7.5348    1.5591    2.9727 H   0  0  0  0  0  0  0  0  0  0  0  0 
    5.6889   -0.1879    7.6426 H   0  0  0  0  0  0  0  0  0  0  0  0 
    7.3242    0.3857    7.9566 H   0  0  0  0  0  0  0  0  0  0  0  0 
    5.2783    2.6674    2.5927 H   0  0  0  0  0  0  0  0  0  0  0  0 
    6.0596    4.2300    2.7073 H   0  0  0  0  0  0  0  0  0  0  0  0 
    6.6658    2.7092    7.4134 H   0  0  0  0  0  0  0  0  0  0  0  0 
    5.5744    2.0743    8.6342 H   0  0  0  0  0  0  0  0  0  0  0  0 
    7.1144   -0.6854    5.6830 H   0  0  0  0  0  0  0  0  0  0  0  0 
    7.6163    0.9953    5.5732 H   0  0  0  0  0  0  0  0  0  0  0  0 
    5.3623    4.1508    4.8825 H   0  0  0  0  0  0  0  0  0  0  0  0 
    6.8347    3.2425    5.1290 H   0  0  0  0  0  0  0  0  0  0  0  0 
    4.3038    3.2808    6.8452 H   0  0  0  0  0  0  0  0  0  0  0  0 
    3.8514    1.5827    6.9422 H   0  0  0  0  0  0  0  0  0  0  0  0 
    4.7702   -0.0808    5.1822 H   0  0  0  0  0  0  0  0  0  0  0  0 
    5.8192    0.4905    3.8975 H   0  0  0  0  0  0  0  0  0  0  0  0 
    4.0349    2.1182    4.6211 H   0  0  0  0  0  0  0  0  0  0  0  0 
  1 16  1  0  0  0  0 
  1 17  1  0  0  0  0 
  1  2  1  0  0  0  0 
  2 19  1  0  0  0  0 
  3  2  1  0  0  0  0 
  3 22  1  0  0  0  0 
  3  4  1  0  0  0  0 
  4 24  1  0  0  0  0 
  5 25  1  0  0  0  0 
  5  4  1  0  0  0  0 
  5  6  1  0  0  0  0 
  6  7  1  0  0  0  0 
  7 30  1  0  0  0  0 
  7  9  1  0  0  0  0 
  7 29  1  0  0  0  0 
  8 10  1  0  0  0  0 
  8 31  1  0  0  0  0 
  8 32  1  0  0  0  0 
  9 12  1  0  0  0  0 
 10 36  1  0  0  0  0 
 11  8  1  0  0  0  0 
 12 39  1  0  0  0  0 
 12 40  1  0  0  0  0 
 12 15  1  0  0  0  0 
 13 41  1  0  0  0  0 
 13 42  1  0  0  0  0 
 13 10  1  0  0  0  0 
 14 15  1  0  0  0  0 
 14 43  1  0  0  0  0 
 14 11  1  0  0  0  0 
 15 13  1  0  0  0  0 
 18  1  1  0  0  0  0 
 20  2  1  0  0  0  0 
 21  3  1  0  0  0  0 
 23  4  1  0  0  0  0 
 26  5  1  0  0  0  0 
 27  6  1  0  0  0  0 
 28  6  1  0  0  0  0 
 33  9  1  0  0  0  0 
 34  9  1  0  0  0  0 
 35 10  1  0  0  0  0 
 37 11  1  0  0  0  0 
 38 11  1  0  0  0  0 
 44 14  1  0  0  0  0 
 45 15  1  0  0  0  0 
M  END 
>  <HBA> 
0 
 
>  <HBD> 
0 
 
>  <TPSA> 
0.0 
 
>  <cid> 
17900 
 
>  <dipole> 
0.07 
 
>  <excitation_energy_1> 
7.148 
 
>  <excitation_energy_2> 
7.24 
 
>  <excitation_energy_3> 
7.403 
 
>  <excitation_energy_4> 
7.418 
 
>  <homo_energy> 
-7.709 
 
>  <homo_lumo_gap> 
9.641 
 
>  <logP> 
5.707 
 
>  <lumo_energy> 
1.932 
 
>  <melting_point> 
-9.96 
 
>  <molecular_refractivity> 
72.11 
 
>  <oscillator_strength_1> 
0.0037 
 
>  <oscillator_strength_2> 
0.0006 
 
>  <oscillator_strength_3> 
0.0054 
 
>  <oscillator_strength_4> 
0.0047 
 
>  <open_babel_can_smiles> 
CCCCCCCCCC1CCCCC1 
 
>  <mulliken_charges> 
45 
1   -0.441478 
2   -0.248696 
3   -0.248089 
4   -0.262287 
5   -0.257164 
6   -0.258814 
7   -0.265775 
8   -0.25453 
9   -0.261638 
10   -0.259613 
11   -0.261159 
12   -0.264671 
13   -0.264317 
14   -0.273398 
15   -0.077305 
16   0.140721 
17   0.140751 
18   0.141146 
19   0.128771 
20   0.135344 
21   0.125376 
22   0.125506 
23   0.125587 
24   0.136249 
25   0.137118 
26   0.125634 
27   0.125047 
28   0.125348 
29   0.126991 
30   0.142129 
31   0.125182 
32   0.127422 
33   0.134444 
34   0.126864 
35   0.13153 
36   0.128251 
37   0.127852 
38   0.132789 
39   0.126075 
40   0.131991 
41   0.124802 
42   0.124056 
43   0.123953 
44   0.138171 
45   0.113834 
 
>  <lowdin_charges> 
45 
1   -0.439557 
2   -0.272699 
3   -0.27244 
4   -0.276242 
5   -0.277963 
6   -0.273648 
7   -0.28116 
8   -0.278984 
9   -0.280415 
10   -0.2794 
11   -0.280784 
12   -0.282096 
13   -0.279837 
14   -0.282851 
15   -0.128576 
16   0.14674 
17   0.14419 
18   0.145 
19   0.136957 
20   0.138841 
21   0.135722 
22   0.137685 
23   0.138073 
24   0.137133 
25   0.1388 
26   0.138422 
27   0.137498 
28   0.138031 
29   0.140624 
30   0.140073 
31   0.136855 
32   0.142146 
33   0.1407 
34   0.139365 
35   0.138675 
36   0.141209 
37   0.141649 
38   0.138772 
39   0.141963 
40   0.13883 
41   0.139249 
42   0.138652 
43   0.138998 
44   0.14075 
45   0.135045 
 
$$$$ 
 
