PCCDB-ID:  61084 
public computational chemistry database (PCCDB) project, http://pccdb.org 
 
 28 28  0  0  0  0  0  0  0  0999 V2000 
    4.2442    2.4393   -1.6213 C   0  0  0  0  0  0  0  0  0  0  0  0 
    3.7453    1.1116   -1.0378 C   0  0  0  0  0  0  0  0  0  0  0  0 
    4.5301   -0.1246   -1.5081 C   0  0  0  0  0  0  0  0  0  0  0  0 
    5.9923   -0.1655   -1.0442 C   0  0  0  0  0  0  0  0  0  0  0  0 
    9.8548   -2.3304    0.5508 C   0  0  0  0  0  0  0  0  0  0  0  0 
   10.8359   -1.6136   -0.1316 C   0  0  0  0  0  0  0  0  0  0  0  0 
    6.7172   -1.4567   -1.4765 C   0  0  0  0  0  0  0  0  0  0  0  0 
    8.5324   -2.2791    0.1027 C   0  0  0  0  0  0  0  0  0  0  0  0 
   10.4906   -0.8545   -1.2506 C   0  0  0  0  0  0  0  0  0  0  0  0 
    8.1548   -1.5254   -1.0123 C   0  0  0  0  0  0  0  0  0  0  0  0 
    9.1633   -0.8091   -1.6834 C   0  0  0  0  0  0  0  0  0  0  0  0 
    8.7832   -0.0726   -2.7791 O   0  0  0  0  0  0  0  0  0  0  0  0 
    3.6157    3.2750   -1.2927 H   0  0  0  0  0  0  0  0  0  0  0  0 
    4.2254    2.4190   -2.7183 H   0  0  0  0  0  0  0  0  0  0  0  0 
    5.2721    2.6594   -1.3125 H   0  0  0  0  0  0  0  0  0  0  0  0 
    2.6883    0.9794   -1.3059 H   0  0  0  0  0  0  0  0  0  0  0  0 
    3.7757    1.1617    0.0602 H   0  0  0  0  0  0  0  0  0  0  0  0 
    4.4973   -0.1764   -2.6069 H   0  0  0  0  0  0  0  0  0  0  0  0 
    4.0167   -1.0275   -1.1465 H   0  0  0  0  0  0  0  0  0  0  0  0 
    6.0325   -0.0800    0.0513 H   0  0  0  0  0  0  0  0  0  0  0  0 
    6.5415    0.6938   -1.4455 H   0  0  0  0  0  0  0  0  0  0  0  0 
   10.1135   -2.9268    1.4209 H   0  0  0  0  0  0  0  0  0  0  0  0 
   11.8711   -1.6432    0.1977 H   0  0  0  0  0  0  0  0  0  0  0  0 
    6.6798   -1.5314   -2.5705 H   0  0  0  0  0  0  0  0  0  0  0  0 
    6.1733   -2.3245   -1.0808 H   0  0  0  0  0  0  0  0  0  0  0  0 
    7.7648   -2.8418    0.6299 H   0  0  0  0  0  0  0  0  0  0  0  0 
   11.2527   -0.2943   -1.7907 H   0  0  0  0  0  0  0  0  0  0  0  0 
    9.5671    0.3622   -3.1489 H   0  0  0  0  0  0  0  0  0  0  0  0 
  1 15  1  0  0  0  0 
  1 13  1  0  0  0  0 
  1  2  1  0  0  0  0 
  2 17  1  0  0  0  0 
  3 19  1  0  0  0  0 
  3  4  1  0  0  0  0 
  3  2  1  0  0  0  0 
  4 20  1  0  0  0  0 
  5 22  1  0  0  0  0 
  6 23  1  0  0  0  0 
  6  5  2  0  0  0  0 
  7 25  1  0  0  0  0 
  7  4  1  0  0  0  0 
  7 10  1  0  0  0  0 
  8  5  1  0  0  0  0 
  8 26  1  0  0  0  0 
  9  6  1  0  0  0  0 
 10  8  2  0  0  0  0 
 11  9  2  0  0  0  0 
 11 10  1  0  0  0  0 
 12 11  1  0  0  0  0 
 14  1  1  0  0  0  0 
 16  2  1  0  0  0  0 
 18  3  1  0  0  0  0 
 21  4  1  0  0  0  0 
 24  7  1  0  0  0  0 
 27  9  1  0  0  0  0 
 28 12  1  0  0  0  0 
M  END 
>  <HBA> 
1 
 
>  <HBD> 
1 
 
>  <TPSA> 
20.23 
 
>  <cid> 
61084 
 
>  <dipole> 
1.21 
 
>  <excitation_energy_1> 
5.019 
 
>  <excitation_energy_2> 
5.103 
 
>  <excitation_energy_3> 
5.706 
 
>  <excitation_energy_4> 
5.717 
 
>  <homo_energy> 
-5.829 
 
>  <homo_lumo_gap> 
5.962 
 
>  <logP> 
3.125 
 
>  <lumo_energy> 
0.133 
 
>  <melting_point> 
45.47 
 
>  <molecular_refractivity> 
52.66 
 
>  <oscillator_strength_1> 
0.0484 
 
>  <oscillator_strength_2> 
0.0015 
 
>  <oscillator_strength_3> 
0.0074 
 
>  <oscillator_strength_4> 
0.019 
 
>  <open_babel_can_smiles> 
CCCCCc1ccccc1O 
 
>  <mulliken_charges> 
28 
1   -0.442746 
2   -0.248204 
3   -0.247538 
4   -0.254328 
5   -0.130103 
6   -0.138091 
7   -0.336694 
8   -0.197392 
9   -0.187959 
10   0.140547 
11   0.293811 
12   -0.648284 
13   0.13972 
14   0.140214 
15   0.147598 
16   0.128754 
17   0.128832 
18   0.127656 
19   0.124228 
20   0.127764 
21   0.15343 
22   0.123575 
23   0.127298 
24   0.152854 
25   0.132242 
26   0.122352 
27   0.113735 
28   0.40673 
 
>  <lowdin_charges> 
28 
1   -0.445007 
2   -0.268605 
3   -0.274093 
4   -0.273897 
5   -0.178806 
6   -0.150141 
7   -0.268192 
8   -0.15842 
9   -0.216009 
10   -0.029485 
11   0.095835 
12   -0.385323 
13   0.149233 
14   0.143576 
15   0.147113 
16   0.139116 
17   0.135891 
18   0.135573 
19   0.138426 
20   0.136123 
21   0.150062 
22   0.156532 
23   0.156047 
24   0.153211 
25   0.145161 
26   0.156237 
27   0.152231 
28   0.357612 
 
$$$$ 
 
