PCCDB-ID:  29484 
public computational chemistry database (PCCDB) project, http://pccdb.org 
 
 16 16  0  0  0  0  0  0  0  0999 V2000 
    0.9070   -0.1694   -0.2672 C   0  0  0  0  0  0  0  0  0  0  0  0 
    3.2397   -1.0610   -0.0262 C   0  0  0  0  0  0  0  0  0  0  0  0 
    4.4245    0.6755    0.1477 C   0  0  0  0  0  0  0  0  0  0  0  0 
    3.1225    1.1151    0.0126 C   0  0  0  0  0  0  0  0  0  0  0  0 
    4.4982   -0.6665    0.1241 N   0  0  0  0  0  0  0  0  0  0  0  0 
    2.3567   -0.0350   -0.1003 N   0  0  0  0  0  0  0  0  0  0  0  0 
    5.6359    1.4852    0.3006 N   0  0  0  0  0  0  0  0  0  0  0  0 
    2.6145    2.4436   -0.0111 N   0  0  0  0  0  0  0  0  0  0  0  0 
    6.2023    1.8169   -0.7322 O   0  0  0  0  0  0  0  0  0  0  0  0 
    5.9856    1.7292    1.4475 O   0  0  0  0  0  0  0  0  0  0  0  0 
    3.4437    3.3444    0.1104 O   0  0  0  0  0  0  0  0  0  0  0  0 
    1.3957    2.5972   -0.1500 O   0  0  0  0  0  0  0  0  0  0  0  0 
    0.6835   -1.2369   -0.3127 H   0  0  0  0  0  0  0  0  0  0  0  0 
    0.5860    0.3193   -1.1873 H   0  0  0  0  0  0  0  0  0  0  0  0 
    0.3858    0.2857    0.5752 H   0  0  0  0  0  0  0  0  0  0  0  0 
    2.9195   -2.0924   -0.0863 H   0  0  0  0  0  0  0  0  0  0  0  0 
  1  6  1  0  0  0  0 
  1 15  1  0  0  0  0 
  2  5  2  0  0  0  0 
  3  7  1  0  0  0  0 
  4  3  2  0  0  0  0 
  5  3  1  0  0  0  0 
  6  2  1  0  0  0  0 
  6  4  1  0  0  0  0 
  7 10  2  0  0  0  0 
  8  4  1  0  0  0  0 
  8 11  2  0  0  0  0 
  9  7  2  0  0  0  0 
 12  8  2  0  0  0  0 
 13  1  1  0  0  0  0 
 14  1  1  0  0  0  0 
 16  2  1  0  0  0  0 
M  END 
>  <HBA> 
2 
 
>  <HBD> 
0 
 
>  <TPSA> 
109.46 
 
>  <cid> 
29484 
 
>  <dipole> 
7.36 
 
>  <excitation_energy_1> 
3.781 
 
>  <excitation_energy_2> 
3.871 
 
>  <excitation_energy_3> 
4.182 
 
>  <excitation_energy_4> 
4.316 
 
>  <homo_energy> 
-7.704 
 
>  <homo_lumo_gap> 
4.721 
 
>  <logP> 
1.283 
 
>  <lumo_energy> 
-2.982 
 
>  <melting_point> 
100.58 
 
>  <molecular_refractivity> 
41.13 
 
>  <oscillator_strength_1> 
0.0001 
 
>  <oscillator_strength_2> 
0.0 
 
>  <oscillator_strength_3> 
0.1215 
 
>  <oscillator_strength_4> 
0.0006 
 
>  <open_babel_can_smiles> 
O=N(=O)c1n(C)cnc1N(=O)=O 
 
>  <mulliken_charges> 
16 
1   -0.316499 
2   0.228026 
3   0.406996 
4   0.560475 
5   -0.432078 
6   -0.452866 
7   0.380414 
8   0.343161 
9   -0.3548 
10   -0.354357 
11   -0.384976 
12   -0.415824 
13   0.177761 
14   0.211078 
15   0.211142 
16   0.192346 
 
>  <lowdin_charges> 
16 
1   -0.339281 
2   -0.052182 
3   0.050044 
4   -0.003995 
5   -0.145395 
6   0.021507 
7   0.31123 
8   0.310487 
9   -0.200291 
10   -0.198888 
11   -0.226843 
12   -0.251455 
13   0.169527 
14   0.184931 
15   0.185698 
16   0.184906 
 
$$$$ 
 
