PCCDB-ID:  61150 
public computational chemistry database (PCCDB) project, http://pccdb.org 
 
 12 11  0  0  0  0  0  0  0  0999 V2000 
    1.1332   -0.0627   -0.6221 C   0  0  0  0  0  0  0  0  0  0  0  0 
    2.6250   -0.2478   -0.4656 C   0  0  0  0  0  0  0  0  0  0  0  0 
    3.0575   -1.5807   -1.0533 N   0  0  0  0  0  0  0  0  0  0  0  0 
    3.4414    0.8229   -1.1876 N   0  0  0  0  0  0  0  0  0  0  0  0 
    3.3613   -2.4533   -0.2522 O   0  0  0  0  0  0  0  0  0  0  0  0 
    3.0094   -1.6800   -2.2717 O   0  0  0  0  0  0  0  0  0  0  0  0 
    4.6502    0.6389   -1.2031 O   0  0  0  0  0  0  0  0  0  0  0  0 
    2.8380    1.7796   -1.6502 O   0  0  0  0  0  0  0  0  0  0  0  0 
    0.6157   -0.8629   -0.0843 H   0  0  0  0  0  0  0  0  0  0  0  0 
    0.8558   -0.0904   -1.6776 H   0  0  0  0  0  0  0  0  0  0  0  0 
    0.8358    0.8991   -0.2002 H   0  0  0  0  0  0  0  0  0  0  0  0 
    2.9772   -0.2430    0.5648 H   0  0  0  0  0  0  0  0  0  0  0  0 
  1  2  1  0  0  0  0 
  1 11  1  0  0  0  0 
  1  9  1  0  0  0  0 
  2 12  1  0  0  0  0 
  3  2  1  0  0  0  0 
  3  5  2  0  0  0  0 
  4  2  1  0  0  0  0 
  6  3  2  0  0  0  0 
  7  4  2  0  0  0  0 
  8  4  2  0  0  0  0 
 10  1  1  0  0  0  0 
M  END 
>  <HBA> 
0 
 
>  <HBD> 
0 
 
>  <TPSA> 
91.64 
 
>  <cid> 
61150 
 
>  <dipole> 
3.9 
 
>  <excitation_energy_1> 
4.089 
 
>  <excitation_energy_2> 
4.116 
 
>  <excitation_energy_3> 
4.358 
 
>  <excitation_energy_4> 
4.407 
 
>  <homo_energy> 
-8.645 
 
>  <homo_lumo_gap> 
5.916 
 
>  <logP> 
0.932 
 
>  <lumo_energy> 
-2.729 
 
>  <melting_point> 
37.61 
 
>  <molecular_refractivity> 
27.94 
 
>  <oscillator_strength_1> 
0.0004 
 
>  <oscillator_strength_2> 
0.0003 
 
>  <oscillator_strength_3> 
0.0003 
 
>  <oscillator_strength_4> 
0.0003 
 
>  <open_babel_can_smiles> 
CC(N(=O)=O)N(=O)=O 
 
>  <mulliken_charges> 
12 
1   -0.460671 
2   0.087037 
3   0.478702 
4   0.472528 
5   -0.354753 
6   -0.350609 
7   -0.343707 
8   -0.35365 
9   0.188272 
10   0.208215 
11   0.20035 
12   0.228285 
 
>  <lowdin_charges> 
12 
1   -0.445886 
2   -0.03683 
3   0.292378 
4   0.286903 
5   -0.212533 
6   -0.214825 
7   -0.210936 
8   -0.206692 
9   0.18064 
10   0.185394 
11   0.186184 
12   0.196203 
 
$$$$ 
 
