PCCDB-ID:  11579 
public computational chemistry database (PCCDB) project, http://pccdb.org 
 
 16 15  0  0  0  0  0  0  0  0999 V2000 
    2.3561    0.7128    1.5073 C   0  0  0  0  0  0  0  0  0  0  0  0 
    2.0103   -0.4316   -0.7857 C   0  0  0  0  0  0  0  0  0  0  0  0 
    1.3331   -1.6057   -1.5194 C   0  0  0  0  0  0  0  0  0  0  0  0 
    1.4865   -0.1415    0.6129 C   0  0  0  0  0  0  0  0  0  0  0  0 
   -0.0273   -1.2827   -2.1484 C   0  0  0  0  0  0  0  0  0  0  0  0 
    0.4154   -0.5806    1.0111 O   0  0  0  0  0  0  0  0  0  0  0  0 
   -0.2117   -1.3035   -3.3428 O   0  0  0  0  0  0  0  0  0  0  0  0 
   -1.0176   -0.9777   -1.2901 O   0  0  0  0  0  0  0  0  0  0  0  0 
    3.2517    0.1483    1.7977 H   0  0  0  0  0  0  0  0  0  0  0  0 
    1.8050    0.9977    2.4052 H   0  0  0  0  0  0  0  0  0  0  0  0 
    2.7020    1.6075    0.9766 H   0  0  0  0  0  0  0  0  0  0  0  0 
    1.9230    0.4969   -1.3704 H   0  0  0  0  0  0  0  0  0  0  0  0 
    3.0896   -0.6174   -0.7087 H   0  0  0  0  0  0  0  0  0  0  0  0 
    1.2176   -2.4474   -0.8247 H   0  0  0  0  0  0  0  0  0  0  0  0 
    1.9758   -1.9328   -2.3387 H   0  0  0  0  0  0  0  0  0  0  0  0 
   -0.6702   -0.9785   -0.3683 H   0  0  0  0  0  0  0  0  0  0  0  0 
  1  9  1  0  0  0  0 
  1 10  1  0  0  0  0 
  2 13  1  0  0  0  0 
  2  4  1  0  0  0  0 
  3 14  1  0  0  0  0 
  3  2  1  0  0  0  0 
  4  6  2  0  0  0  0 
  4  1  1  0  0  0  0 
  5  3  1  0  0  0  0 
  5  8  1  0  0  0  0 
  7  5  2  0  0  0  0 
  8 16  1  0  0  0  0 
 11  1  1  0  0  0  0 
 12  2  1  0  0  0  0 
 15  3  1  0  0  0  0 
M  END 
>  <HBA> 
3 
 
>  <HBD> 
1 
 
>  <TPSA> 
54.37 
 
>  <cid> 
11579 
 
>  <dipole> 
6.42 
 
>  <excitation_energy_1> 
4.531 
 
>  <excitation_energy_2> 
5.012 
 
>  <excitation_energy_3> 
5.543 
 
>  <excitation_energy_4> 
6.058 
 
>  <homo_energy> 
-6.931 
 
>  <homo_lumo_gap> 
5.546 
 
>  <logP> 
0.44 
 
>  <lumo_energy> 
-1.385 
 
>  <melting_point> 
72.65 
 
>  <molecular_refractivity> 
28.12 
 
>  <oscillator_strength_1> 
0.0002 
 
>  <oscillator_strength_2> 
0.0011 
 
>  <oscillator_strength_3> 
0.0018 
 
>  <oscillator_strength_4> 
0.0009 
 
>  <open_babel_can_smiles> 
CC(=O)CCC(=O)O 
 
>  <mulliken_charges> 
16 
1   -0.531231 
2   -0.372534 
3   -0.376312 
4   0.470161 
5   0.576573 
6   -0.456524 
7   -0.448668 
8   -0.586204 
9   0.185803 
10   0.193761 
11   0.179975 
12   0.1969 
13   0.174398 
14   0.173379 
15   0.180811 
16   0.439711 
 
>  <lowdin_charges> 
16 
1   -0.470037 
2   -0.307881 
3   -0.315843 
4   0.184753 
5   0.181491 
6   -0.244113 
7   -0.254193 
8   -0.365212 
9   0.181092 
10   0.18099 
11   0.176383 
12   0.181515 
13   0.169104 
14   0.167849 
15   0.17767 
16   0.356432 
 
$$$$ 
 
