PCCDB-ID:  41780 
public computational chemistry database (PCCDB) project, http://pccdb.org 
 
 21 21  0  0  0  0  0  0  0  0999 V2000 
    0.7420   -0.1944   -0.0261 C   0  0  0  0  0  0  0  0  0  0  0  0 
    4.3818    1.0799    0.3023 C   0  0  0  0  0  0  0  0  0  0  0  0 
    5.0741   -0.1092    0.2753 C   0  0  0  0  0  0  0  0  0  0  0  0 
    2.2417   -0.1344    0.1323 C   0  0  0  0  0  0  0  0  0  0  0  0 
    2.9802    1.0369    0.2529 C   0  0  0  0  0  0  0  0  0  0  0  0 
    4.3855   -1.3266    0.1850 C   0  0  0  0  0  0  0  0  0  0  0  0 
    2.9658   -1.3742    0.1046 C   0  0  0  0  0  0  0  0  0  0  0  0 
    2.2715   -2.5344   -0.0250 N   0  0  0  0  0  0  0  0  0  0  0  0 
    2.3095    2.3527    0.3390 N   0  0  0  0  0  0  0  0  0  0  0  0 
    5.2025   -2.5324    0.1884 N   0  0  0  0  0  0  0  0  0  0  0  0 
    1.2691    2.4334    0.9913 O   0  0  0  0  0  0  0  0  0  0  0  0 
    2.8609    3.2954   -0.2242 O   0  0  0  0  0  0  0  0  0  0  0  0 
    6.4239   -2.4067    0.2564 O   0  0  0  0  0  0  0  0  0  0  0  0 
    4.6446   -3.6430    0.1261 O   0  0  0  0  0  0  0  0  0  0  0  0 
    0.3003    0.7875   -0.1762 H   0  0  0  0  0  0  0  0  0  0  0  0 
    0.2634   -0.6222    0.8659 H   0  0  0  0  0  0  0  0  0  0  0  0 
    0.4804   -0.8263   -0.8840 H   0  0  0  0  0  0  0  0  0  0  0  0 
    4.8878    2.0339    0.3678 H   0  0  0  0  0  0  0  0  0  0  0  0 
    6.1543   -0.1345    0.3299 H   0  0  0  0  0  0  0  0  0  0  0  0 
    1.2763   -2.5391    0.1272 H   0  0  0  0  0  0  0  0  0  0  0  0 
    2.7921   -3.3988    0.0501 H   0  0  0  0  0  0  0  0  0  0  0  0 
  1  4  1  0  0  0  0 
  1 16  1  0  0  0  0 
  2 18  1  0  0  0  0 
  3  2  1  0  0  0  0 
  3 19  1  0  0  0  0 
  4  5  1  0  0  0  0 
  5  2  2  0  0  0  0 
  5  9  1  0  0  0  0 
  6 10  1  0  0  0  0 
  6  3  2  0  0  0  0 
  7  4  2  0  0  0  0 
  7  6  1  0  0  0  0 
  8 21  1  0  0  0  0 
  8  7  1  0  0  0  0 
  8 20  1  0  0  0  0 
  9 11  2  0  0  0  0 
 10 13  2  0  0  0  0 
 12  9  2  0  0  0  0 
 14 10  2  0  0  0  0 
 15  1  1  0  0  0  0 
 17  1  1  0  0  0  0 
M  END 
>  <HBA> 
1 
 
>  <HBD> 
1 
 
>  <TPSA> 
117.66 
 
>  <cid> 
41780 
 
>  <dipole> 
2.96 
 
>  <excitation_energy_1> 
2.948 
 
>  <excitation_energy_2> 
3.642 
 
>  <excitation_energy_3> 
3.695 
 
>  <excitation_energy_4> 
3.734 
 
>  <homo_energy> 
-6.602 
 
>  <homo_lumo_gap> 
3.548 
 
>  <logP> 
3.021 
 
>  <lumo_energy> 
-3.053 
 
>  <melting_point> 
136.91 
 
>  <molecular_refractivity> 
53.46 
 
>  <oscillator_strength_1> 
0.0717 
 
>  <oscillator_strength_2> 
0.0158 
 
>  <oscillator_strength_3> 
0.0145 
 
>  <oscillator_strength_4> 
0.0341 
 
>  <open_babel_can_smiles> 
O=N(=O)c1ccc(c(c1N)C)N(=O)=O 
 
>  <mulliken_charges> 
21 
1   -0.558295 
2   -0.151087 
3   -0.182797 
4   0.149352 
5   0.197764 
6   0.285824 
7   0.271525 
8   -0.82055 
9   0.348236 
10   0.370596 
11   -0.37653 
12   -0.364582 
13   -0.390298 
14   -0.440256 
15   0.202051 
16   0.176739 
17   0.169762 
18   0.181676 
19   0.196038 
20   0.34696 
21   0.387872 
 
>  <lowdin_charges> 
21 
1   -0.452151 
2   -0.171811 
3   -0.124845 
4   -0.018688 
5   0.026986 
6   -0.034952 
7   0.083971 
8   -0.443887 
9   0.305929 
10   0.309965 
11   -0.235088 
12   -0.229766 
13   -0.238539 
14   -0.276997 
15   0.184517 
16   0.169019 
17   0.163667 
18   0.18838 
19   0.193295 
20   0.291472 
21   0.309523 
 
$$$$ 
 
