PCCDB-ID:  20879 
public computational chemistry database (PCCDB) project, http://pccdb.org 
 
 30 30  0  0  0  0  0  0  0  0999 V2000 
   -0.8946   -0.0244    0.2146 C   0  0  0  0  0  0  0  0  0  0  0  0 
    2.7568   -2.3682    2.8129 C   0  0  0  0  0  0  0  0  0  0  0  0 
    0.9927   -1.2442   -0.9630 C   0  0  0  0  0  0  0  0  0  0  0  0 
    2.1674   -1.9916   -0.9478 C   0  0  0  0  0  0  0  0  0  0  0  0 
    0.9617   -1.2500    1.4301 C   0  0  0  0  0  0  0  0  0  0  0  0 
    0.3664   -0.8565    0.2264 C   0  0  0  0  0  0  0  0  0  0  0  0 
    2.1515   -1.9820    1.4834 C   0  0  0  0  0  0  0  0  0  0  0  0 
    2.7627   -2.3552    0.2683 C   0  0  0  0  0  0  0  0  0  0  0  0 
    7.2451   -4.1575   -0.9218 C   0  0  0  0  0  0  0  0  0  0  0  0 
    5.0591   -2.9466   -0.5268 C   0  0  0  0  0  0  0  0  0  0  0  0 
    7.7295   -5.3442   -0.8220 N   0  0  0  0  0  0  0  0  0  0  0  0 
    7.8278   -3.0150   -1.4188 N   0  0  0  0  0  0  0  0  0  0  0  0 
    5.2846   -1.9643   -1.3243 N   0  0  0  0  0  0  0  0  0  0  0  0 
    3.9348   -3.1436    0.2880 N   0  0  0  0  0  0  0  0  0  0  0  0 
    5.9586   -3.9902   -0.3683 N   0  0  0  0  0  0  0  0  0  0  0  0 
   -0.6664    1.0500    0.1990 H   0  0  0  0  0  0  0  0  0  0  0  0 
   -1.5080   -0.2123    1.1023 H   0  0  0  0  0  0  0  0  0  0  0  0 
   -1.5064   -0.2376   -0.6687 H   0  0  0  0  0  0  0  0  0  0  0  0 
    2.2041   -1.9106    3.6382 H   0  0  0  0  0  0  0  0  0  0  0  0 
    3.8026   -2.0447    2.8945 H   0  0  0  0  0  0  0  0  0  0  0  0 
    2.7379   -3.4552    2.9808 H   0  0  0  0  0  0  0  0  0  0  0  0 
    0.5503   -0.9731   -1.9189 H   0  0  0  0  0  0  0  0  0  0  0  0 
    2.6168   -2.3178   -1.8800 H   0  0  0  0  0  0  0  0  0  0  0  0 
    0.4877   -0.9698    2.3691 H   0  0  0  0  0  0  0  0  0  0  0  0 
    8.6724   -5.3824   -1.2115 H   0  0  0  0  0  0  0  0  0  0  0  0 
    8.6079   -3.1722   -2.0416 H   0  0  0  0  0  0  0  0  0  0  0  0 
    7.1679   -2.2847   -1.6948 H   0  0  0  0  0  0  0  0  0  0  0  0 
    4.5793   -1.2371   -1.2217 H   0  0  0  0  0  0  0  0  0  0  0  0 
    4.1299   -3.6168    1.1600 H   0  0  0  0  0  0  0  0  0  0  0  0 
    5.5944   -4.8740   -0.0370 H   0  0  0  0  0  0  0  0  0  0  0  0 
  1  6  1  0  0  0  0 
  1 17  1  0  0  0  0 
  2 20  1  0  0  0  0 
  2 21  1  0  0  0  0 
  2 19  1  0  0  0  0 
  3  4  2  0  0  0  0 
  3  6  1  0  0  0  0 
  4  8  1  0  0  0  0 
  5  7  1  0  0  0  0 
  5 24  1  0  0  0  0 
  6  5  2  0  0  0  0 
  7  2  1  0  0  0  0 
  8 14  1  0  0  0  0 
  8  7  2  0  0  0  0 
  9 11  1  0  0  0  0 
  9 15  1  0  0  0  0 
 10 15  1  0  0  0  0 
 10 14  1  0  0  0  0 
 12  9  2  0  0  0  0 
 13 28  1  0  0  0  0 
 13 10  2  0  0  0  0 
 14 29  1  0  0  0  0 
 15 30  1  0  0  0  0 
 16  1  1  0  0  0  0 
 18  1  1  0  0  0  0 
 22  3  1  0  0  0  0 
 23  4  1  0  0  0  0 
 25 11  1  0  0  0  0 
 26 12  1  0  0  0  0 
 27 12  1  0  0  0  0 
M  RAD  1  11   2 
M  END 
>  <HBA> 
5 
 
>  <HBD> 
3 
 
>  <TPSA> 
102.78 
 
>  <cid> 
20879 
 
>  <dipole> 
3.05 
 
>  <excitation_energy_1> 
4.717 
 
>  <excitation_energy_2> 
4.931 
 
>  <excitation_energy_3> 
5.075 
 
>  <excitation_energy_4> 
5.143 
 
>  <homo_energy> 
-5.829 
 
>  <homo_lumo_gap> 
5.6 
 
>  <logP> 
2.624 
 
>  <lumo_energy> 
-0.229 
 
>  <melting_point> 
218.18 
 
>  <molecular_refractivity> 
62.2 
 
>  <oscillator_strength_1> 
0.0308 
 
>  <oscillator_strength_2> 
0.2815 
 
>  <oscillator_strength_3> 
0.0558 
 
>  <oscillator_strength_4> 
0.0436 
 
>  <open_babel_can_smiles> 
[NH]C(=[NH2])NC(=N)Nc1ccc(cc1C)C 
 
>  <mulliken_charges> 
30 
1   -0.531909 
2   -0.560038 
3   -0.198378 
4   -0.168878 
5   -0.260526 
6   0.195456 
7   0.1662 
8   0.262143 
9   0.61323 
10   0.705402 
11   -0.665889 
12   -0.763574 
13   -0.694065 
14   -0.744279 
15   -0.669859 
16   0.165871 
17   0.156801 
18   0.158042 
19   0.168206 
20   0.168759 
21   0.159236 
22   0.126828 
23   0.15518 
24   0.11832 
25   0.268932 
26   0.317622 
27   0.376396 
28   0.299077 
29   0.333054 
30   0.342641 
 
>  <lowdin_charges> 
30 
1   -0.44092 
2   -0.446473 
3   -0.163478 
4   -0.182961 
5   -0.170258 
6   -0.00644 
7   -0.024587 
8   0.037392 
9   0.142403 
10   0.147069 
11   -0.489237 
12   -0.501201 
13   -0.479751 
14   -0.278754 
15   -0.26082 
16   0.159909 
17   0.158244 
18   0.159144 
19   0.166271 
20   0.160204 
21   0.153779 
22   0.157444 
23   0.170111 
24   0.153643 
25   0.247679 
26   0.27863 
27   0.302211 
28   0.265807 
29   0.287758 
30   0.297186 
 
$$$$ 
 
