PCCDB-ID:  69123 
public computational chemistry database (PCCDB) project, http://pccdb.org 
 
 23 23  0  0  0  0  0  0  0  0999 V2000 
    2.1074   -1.0648    1.7638 C   0  0  0  0  0  0  0  0  0  0  0  0 
    3.2281   -0.1749    2.2777 C   0  0  0  0  0  0  0  0  0  0  0  0 
    6.9013   -0.1123   -2.4671 C   0  0  0  0  0  0  0  0  0  0  0  0 
    7.2786    1.2311   -2.4812 C   0  0  0  0  0  0  0  0  0  0  0  0 
    6.2190   -0.6362   -1.3691 C   0  0  0  0  0  0  0  0  0  0  0  0 
    6.9878    2.0456   -1.3883 C   0  0  0  0  0  0  0  0  0  0  0  0 
    5.9020    0.1660   -0.2684 C   0  0  0  0  0  0  0  0  0  0  0  0 
    6.3188    1.5041   -0.2939 C   0  0  0  0  0  0  0  0  0  0  0  0 
    5.0910   -0.4688    0.8268 C   0  0  0  0  0  0  0  0  0  0  0  0 
    6.1494    2.3766    0.8817 N   0  0  0  0  0  0  0  0  0  0  0  0 
    5.3137   -1.5825    1.2510 O   0  0  0  0  0  0  0  0  0  0  0  0 
    6.0006    3.5799    0.6748 O   0  0  0  0  0  0  0  0  0  0  0  0 
    6.2123    1.8520    1.9912 O   0  0  0  0  0  0  0  0  0  0  0  0 
    4.0567    0.3070    1.1870 O   0  0  0  0  0  0  0  0  0  0  0  0 
    1.4509   -1.3489    2.5942 H   0  0  0  0  0  0  0  0  0  0  0  0 
    2.5129   -1.9780    1.3192 H   0  0  0  0  0  0  0  0  0  0  0  0 
    1.5057   -0.5407    1.0141 H   0  0  0  0  0  0  0  0  0  0  0  0 
    3.8648   -0.7031    2.9907 H   0  0  0  0  0  0  0  0  0  0  0  0 
    2.8430    0.7366    2.7399 H   0  0  0  0  0  0  0  0  0  0  0  0 
    7.1338   -0.7534   -3.3122 H   0  0  0  0  0  0  0  0  0  0  0  0 
    7.8096    1.6447   -3.3331 H   0  0  0  0  0  0  0  0  0  0  0  0 
    5.9125   -1.6769   -1.3504 H   0  0  0  0  0  0  0  0  0  0  0  0 
    7.2858    3.0869   -1.3592 H   0  0  0  0  0  0  0  0  0  0  0  0 
  1  2  1  0  0  0  0 
  1 15  1  0  0  0  0 
  2 19  1  0  0  0  0 
  2 18  1  0  0  0  0 
  3  5  1  0  0  0  0 
  4  3  2  0  0  0  0 
  4  6  1  0  0  0  0 
  5 22  1  0  0  0  0 
  5  7  2  0  0  0  0 
  6 23  1  0  0  0  0 
  6  8  2  0  0  0  0 
  7  9  1  0  0  0  0 
  8  7  1  0  0  0  0 
  8 10  1  0  0  0  0 
  9 14  1  0  0  0  0 
  9 11  2  0  0  0  0 
 10 13  2  0  0  0  0 
 12 10  2  0  0  0  0 
 14  2  1  0  0  0  0 
 16  1  1  0  0  0  0 
 17  1  1  0  0  0  0 
 20  3  1  0  0  0  0 
 21  4  1  0  0  0  0 
M  END 
>  <HBA> 
2 
 
>  <HBD> 
0 
 
>  <TPSA> 
72.12 
 
>  <cid> 
69123 
 
>  <dipole> 
3.64 
 
>  <excitation_energy_1> 
3.724 
 
>  <excitation_energy_2> 
4.131 
 
>  <excitation_energy_3> 
4.292 
 
>  <excitation_energy_4> 
4.638 
 
>  <homo_energy> 
-7.437 
 
>  <homo_lumo_gap> 
4.972 
 
>  <logP> 
2.295 
 
>  <lumo_energy> 
-2.465 
 
>  <melting_point> 
68.4 
 
>  <molecular_refractivity> 
51.35 
 
>  <oscillator_strength_1> 
0.017 
 
>  <oscillator_strength_2> 
0.0234 
 
>  <oscillator_strength_3> 
0.0026 
 
>  <oscillator_strength_4> 
0.0066 
 
>  <open_babel_can_smiles> 
CCOC(=O)c1ccccc1N(=O)=O 
 
>  <mulliken_charges> 
23 
1   -0.46301 
2   -0.045759 
3   -0.114306 
4   -0.13344 
5   -0.172813 
6   -0.141801 
7   0.092335 
8   0.242541 
9   0.573471 
10   0.358777 
11   -0.475597 
12   -0.378877 
13   -0.383873 
14   -0.452679 
15   0.154024 
16   0.17474 
17   0.159557 
18   0.177822 
19   0.164152 
20   0.153832 
21   0.155112 
22   0.172018 
23   0.183772 
 
>  <lowdin_charges> 
23 
1   -0.456882 
2   -0.12596 
3   -0.135422 
4   -0.139744 
5   -0.128287 
6   -0.134886 
7   -0.013014 
8   0.019712 
9   0.196539 
10   0.305242 
11   -0.254622 
12   -0.238145 
13   -0.231493 
14   -0.180754 
15   0.161588 
16   0.164994 
17   0.158591 
18   0.16486 
19   0.159272 
20   0.171234 
21   0.171725 
22   0.17937 
23   0.186084 
 
$$$$ 
 
