PCCDB-ID:  31408 
public computational chemistry database (PCCDB) project, http://pccdb.org 
 
 30 31  0  0  1  0  0  0  0  0999 V2000 
    0.8668   -0.0521   -0.0264 C   0  0  0  0  0  0  0  0  0  0  0  0 
    2.7880    0.1047   -1.5841 C   0  0  0  0  0  0  0  0  0  0  0  0 
    5.2452    0.0957    0.4614 C   0  0  0  0  0  0  0  0  0  0  0  0 
    4.4743    1.3962    0.5755 C   0  0  0  0  0  0  0  0  0  0  0  0 
    5.2762   -2.4234    0.4770 C   0  0  0  0  0  0  0  0  0  0  0  0 
    5.0510   -3.0888   -0.8938 C   0  0  0  0  0  0  0  0  0  0  0  0 
    2.9087    0.0345    1.9975 C   0  0  0  0  0  0  0  0  0  0  0  0 
    4.6022   -1.0783    0.5822 C   0  0  0  0  0  0  0  0  0  0  0  0 
    2.9889    1.1154    0.8833 C   0  0  2  0  0  0  0  0  0  0  0  0 
    3.1036   -1.0047    0.8487 C   0  0  2  0  0  0  0  0  0  0  0  0 
    2.3999    0.0422   -0.1051 C   0  0  0  0  0  0  0  0  0  0  0  0 
    5.6521   -2.3583   -1.9496 O   0  0  0  0  0  0  0  0  0  0  0  0 
    0.4056    0.8241   -0.4994 H   0  0  0  0  0  0  0  0  0  0  0  0 
    0.4854   -0.1125    0.9964 H   0  0  0  0  0  0  0  0  0  0  0  0 
    0.5118   -0.9405   -0.5639 H   0  0  0  0  0  0  0  0  0  0  0  0 
    2.3008    0.9601   -2.0694 H   0  0  0  0  0  0  0  0  0  0  0  0 
    2.4569   -0.7999   -2.1104 H   0  0  0  0  0  0  0  0  0  0  0  0 
    3.8639    0.2078   -1.7411 H   0  0  0  0  0  0  0  0  0  0  0  0 
    6.3235    0.1378    0.3125 H   0  0  0  0  0  0  0  0  0  0  0  0 
    4.5753    1.9879   -0.3469 H   0  0  0  0  0  0  0  0  0  0  0  0 
    4.9064    2.0178    1.3743 H   0  0  0  0  0  0  0  0  0  0  0  0 
    6.3571   -2.3175    0.6284 H   0  0  0  0  0  0  0  0  0  0  0  0 
    4.8963   -3.0956    1.2600 H   0  0  0  0  0  0  0  0  0  0  0  0 
    3.9710   -3.2315   -1.0694 H   0  0  0  0  0  0  0  0  0  0  0  0 
    5.5172   -4.0796   -0.9053 H   0  0  0  0  0  0  0  0  0  0  0  0 
    1.9268   -0.0184    2.4716 H   0  0  0  0  0  0  0  0  0  0  0  0 
    3.6812    0.0524    2.7724 H   0  0  0  0  0  0  0  0  0  0  0  0 
    2.4222    2.0450    1.0154 H   0  0  0  0  0  0  0  0  0  0  0  0 
    2.6408   -1.9932    0.9459 H   0  0  0  0  0  0  0  0  0  0  0  0 
    5.3881   -1.4308   -1.8302 H   0  0  0  0  0  0  0  0  0  0  0  0 
  1 14  1  0  0  0  0 
  2 11  1  0  0  0  0 
  3  4  1  0  0  0  0 
  3  8  2  0  0  0  0 
  4  9  1  0  0  0  0 
  4 21  1  0  0  0  0 
  5  8  1  0  0  0  0 
  5 22  1  0  0  0  0 
  5 23  1  0  0  0  0 
  6  5  1  0  0  0  0 
  7 26  1  0  0  0  0 
  7 27  1  0  0  0  0 
  8 10  1  0  0  0  0 
  9 28  1  1  0  0  0 
  9  7  1  0  0  0  0 
 10 29  1  1  0  0  0 
 10  7  1  0  0  0  0 
 11  1  1  0  0  0  0 
 11 10  1  0  0  0  0 
 11  9  1  0  0  0  0 
 12 30  1  0  0  0  0 
 12  6  1  0  0  0  0 
 13  1  1  0  0  0  0 
 15  1  1  0  0  0  0 
 16  2  1  0  0  0  0 
 17  2  1  0  0  0  0 
 18  2  1  0  0  0  0 
 19  3  1  0  0  0  0 
 20  4  1  0  0  0  0 
 24  6  1  0  0  0  0 
 25  6  1  0  0  0  0 
M  END 
>  <HBA> 
1 
 
>  <HBD> 
1 
 
>  <TPSA> 
20.23 
 
>  <cid> 
31408 
 
>  <dipole> 
2.16 
 
>  <excitation_energy_1> 
5.677 
 
>  <excitation_energy_2> 
5.834 
 
>  <excitation_energy_3> 
6.091 
 
>  <excitation_energy_4> 
6.125 
 
>  <homo_energy> 
-6.251 
 
>  <homo_lumo_gap> 
6.612 
 
>  <logP> 
2.361 
 
>  <lumo_energy> 
0.362 
 
>  <melting_point> 
65.79 
 
>  <molecular_refractivity> 
51.19 
 
>  <oscillator_strength_1> 
0.0161 
 
>  <oscillator_strength_2> 
0.0981 
 
>  <oscillator_strength_3> 
0.0044 
 
>  <oscillator_strength_4> 
0.0013 
 
>  <open_babel_can_smiles> 
OCCC1=CC[C@@H]2C[C@H]1C2(C)C 
 
>  <mulliken_charges> 
30 
1   -0.464833 
2   -0.472146 
3   -0.221298 
4   -0.288223 
5   -0.360228 
6   -0.022365 
7   -0.277408 
8   0.199088 
9   -0.125132 
10   -0.199242 
11   0.135197 
12   -0.627504 
13   0.142332 
14   0.144545 
15   0.142527 
16   0.142018 
17   0.147192 
18   0.13984 
19   0.125459 
20   0.144554 
21   0.145277 
22   0.151871 
23   0.137125 
24   0.11954 
25   0.144681 
26   0.139277 
27   0.136996 
28   0.114367 
29   0.111923 
30   0.394569 
 
>  <lowdin_charges> 
30 
1   -0.442687 
2   -0.452385 
3   -0.200365 
4   -0.276992 
5   -0.292148 
6   -0.129108 
7   -0.281282 
8   -0.018108 
9   -0.132071 
10   -0.139104 
11   0.01253 
12   -0.469834 
13   0.149684 
14   0.149183 
15   0.149645 
16   0.151688 
17   0.15284 
18   0.146014 
19   0.15075 
20   0.148754 
21   0.152797 
22   0.152923 
23   0.152057 
24   0.120855 
25   0.14617 
26   0.146561 
27   0.14424 
28   0.135933 
29   0.136627 
30   0.334832 
 
$$$$ 
 
