PCCDB-ID:  68072 
public computational chemistry database (PCCDB) project, http://pccdb.org 
 
 20 20  0  0  0  0  0  0  0  0999 V2000 
    0.8516    0.2588    0.4703 C   0  0  0  0  0  0  0  0  0  0  0  0 
    3.1257    1.2143    0.2130 C   0  0  0  0  0  0  0  0  0  0  0  0 
    5.1032   -0.0805   -0.2693 C   0  0  0  0  0  0  0  0  0  0  0  0 
    2.3277    0.0679    0.2058 C   0  0  0  0  0  0  0  0  0  0  0  0 
    4.5008    1.1499   -0.0192 C   0  0  0  0  0  0  0  0  0  0  0  0 
    4.3142   -1.2245   -0.2856 C   0  0  0  0  0  0  0  0  0  0  0  0 
    2.9181   -1.2004   -0.0544 C   0  0  0  0  0  0  0  0  0  0  0  0 
    2.0592   -2.4375   -0.0689 C   0  0  0  0  0  0  0  0  0  0  0  0 
    5.3029    2.2485   -0.0142 O   0  0  0  0  0  0  0  0  0  0  0  0 
    4.9171   -2.4407   -0.5288 O   0  0  0  0  0  0  0  0  0  0  0  0 
    0.9082   -2.4435    0.3163 O   0  0  0  0  0  0  0  0  0  0  0  0 
    2.5881   -3.5823   -0.5532 O   0  0  0  0  0  0  0  0  0  0  0  0 
    0.6259    1.3262    0.5606 H   0  0  0  0  0  0  0  0  0  0  0  0 
    0.5424   -0.2503    1.3865 H   0  0  0  0  0  0  0  0  0  0  0  0 
    0.2387   -0.1687   -0.3270 H   0  0  0  0  0  0  0  0  0  0  0  0 
    2.6625    2.1799    0.4045 H   0  0  0  0  0  0  0  0  0  0  0  0 
    6.1750   -0.1300   -0.4415 H   0  0  0  0  0  0  0  0  0  0  0  0 
    4.7646    3.0330    0.1768 H   0  0  0  0  0  0  0  0  0  0  0  0 
    5.8472   -2.3069   -0.7676 H   0  0  0  0  0  0  0  0  0  0  0  0 
    3.5299   -3.4627   -0.7787 H   0  0  0  0  0  0  0  0  0  0  0  0 
  1 13  1  0  0  0  0 
  1 14  1  0  0  0  0 
  2 16  1  0  0  0  0 
  3  5  1  0  0  0  0 
  4  2  1  0  0  0  0 
  4  1  1  0  0  0  0 
  5  9  1  0  0  0  0 
  5  2  2  0  0  0  0 
  6  3  2  0  0  0  0 
  6  7  1  0  0  0  0 
  7  4  2  0  0  0  0 
  8  7  1  0  0  0  0 
  8 11  2  0  0  0  0 
  9 18  1  0  0  0  0 
 10  6  1  0  0  0  0 
 12  8  1  0  0  0  0 
 15  1  1  0  0  0  0 
 17  3  1  0  0  0  0 
 19 10  1  0  0  0  0 
 20 12  1  0  0  0  0 
M  END 
>  <HBA> 
4 
 
>  <HBD> 
3 
 
>  <TPSA> 
77.76 
 
>  <cid> 
68072 
 
>  <dipole> 
5.91 
 
>  <excitation_energy_1> 
4.741 
 
>  <excitation_energy_2> 
4.799 
 
>  <excitation_energy_3> 
5.242 
 
>  <excitation_energy_4> 
5.392 
 
>  <homo_energy> 
-6.46 
 
>  <homo_lumo_gap> 
5.543 
 
>  <logP> 
1.104 
 
>  <lumo_energy> 
-0.917 
 
>  <melting_point> 
181.43 
 
>  <molecular_refractivity> 
42.41 
 
>  <oscillator_strength_1> 
0.0047 
 
>  <oscillator_strength_2> 
0.0236 
 
>  <oscillator_strength_3> 
0.1838 
 
>  <oscillator_strength_4> 
0.0019 
 
>  <open_babel_can_smiles> 
Oc1cc(C)c(c(c1)O)C(=O)O 
 
>  <mulliken_charges> 
20 
1   -0.498879 
2   -0.262634 
3   -0.240444 
4   0.110402 
5   0.379581 
6   0.323472 
7   -0.026752 
8   0.567205 
9   -0.639115 
10   -0.68929 
11   -0.472274 
12   -0.600595 
13   0.134576 
14   0.190409 
15   0.183349 
16   0.121002 
17   0.137115 
18   0.416082 
19   0.428666 
20   0.438122 
 
>  <lowdin_charges> 
20 
1   -0.437156 
2   -0.239122 
3   -0.243701 
4   0.055596 
5   0.123868 
6   0.119208 
7   -0.114319 
8   0.192255 
9   -0.36357 
10   -0.381853 
11   -0.259782 
12   -0.364885 
13   0.143686 
14   0.179746 
15   0.177014 
16   0.156116 
17   0.165951 
18   0.364455 
19   0.369207 
20   0.357286 
 
$$$$ 
 
