PCCDB-ID:  38477 
public computational chemistry database (PCCDB) project, http://pccdb.org 
 
 19 18  0  0  1  0  0  0  0  0999 V2000 
    0.6593   -0.0998    0.0547 C   0  0  0  0  0  0  0  0  0  0  0  0 
    0.6231   -0.0103    1.5908 C   0  0  1  0  0  0  0  0  0  0  0  0 
    1.3594    1.2351    2.1308 C   0  0  0  0  0  0  0  0  0  0  0  0 
   -1.4233   -1.2583    2.2998 C   0  0  0  0  0  0  0  0  0  0  0  0 
   -2.5730   -1.3979    1.7567 N   0  0  0  0  0  0  0  0  0  0  0  0 
   -0.6924   -2.1842    3.0368 N   0  0  0  0  0  0  0  0  0  0  0  0 
   -0.7536   -0.0204    2.1365 N   0  0  0  0  0  0  0  0  0  0  0  0 
    2.3342    1.7177    1.6026 O   0  0  0  0  0  0  0  0  0  0  0  0 
    0.8423    1.7282    3.2683 O   0  0  0  0  0  0  0  0  0  0  0  0 
    2.2626   -0.6555   -0.6500 S   0  0  0  0  0  0  0  0  0  0  0  0 
    0.3706    0.8562   -0.3935 H   0  0  0  0  0  0  0  0  0  0  0  0 
   -0.0664   -0.8529   -0.2658 H   0  0  0  0  0  0  0  0  0  0  0  0 
    1.1396   -0.8858    1.9979 H   0  0  0  0  0  0  0  0  0  0  0  0 
   -3.0199   -2.2726    2.0394 H   0  0  0  0  0  0  0  0  0  0  0  0 
   -1.1917   -3.0307    3.2771 H   0  0  0  0  0  0  0  0  0  0  0  0 
   -0.1588   -1.8114    3.8139 H   0  0  0  0  0  0  0  0  0  0  0  0 
   -1.3765    0.5775    1.5948 H   0  0  0  0  0  0  0  0  0  0  0  0 
    0.0156    1.2172    3.4292 H   0  0  0  0  0  0  0  0  0  0  0  0 
    2.9773    0.3873   -0.1802 H   0  0  0  0  0  0  0  0  0  0  0  0 
  1  2  1  0  0  0  0 
  2 13  1  1  0  0  0 
  2  3  1  0  0  0  0 
  2  7  1  0  0  0  0 
  3  9  1  0  0  0  0 
  4  6  2  0  0  0  0 
  5 14  1  0  0  0  0 
  5  4  1  0  0  0  0 
  6 15  1  0  0  0  0 
  6 16  1  0  0  0  0 
  7  4  1  0  0  0  0 
  8  3  2  0  0  0  0 
  9 18  1  0  0  0  0 
 10 19  1  0  0  0  0 
 10  1  1  0  0  0  0 
 11  1  1  0  0  0  0 
 12  1  1  0  0  0  0 
 17  7  1  0  0  0  0 
M  RAD  1   5   2 
M  END 
>  <HBA> 
6 
 
>  <HBD> 
4 
 
>  <TPSA> 
140.5 
 
>  <cid> 
38477 
 
>  <dipole> 
5.24 
 
>  <excitation_energy_1> 
4.919 
 
>  <excitation_energy_2> 
5.346 
 
>  <excitation_energy_3> 
5.467 
 
>  <excitation_energy_4> 
5.698 
 
>  <homo_energy> 
-6.416 
 
>  <homo_lumo_gap> 
6.256 
 
>  <logP> 
0.043 
 
>  <lumo_energy> 
-0.161 
 
>  <melting_point> 
198.54 
 
>  <molecular_refractivity> 
40.14 
 
>  <oscillator_strength_1> 
0.0004 
 
>  <oscillator_strength_2> 
0.0087 
 
>  <oscillator_strength_3> 
0.0005 
 
>  <oscillator_strength_4> 
0.005 
 
>  <open_babel_can_smiles> 
SC[C@@H](C(=O)O)NC(=[NH2])[NH] 
 
>  <mulliken_charges> 
19 
1   -0.423592 
2   -0.083278 
3   0.609543 
4   0.564652 
5   -0.617641 
6   -0.732026 
7   -0.652752 
8   -0.458096 
9   -0.569545 
10   -0.096955 
11   0.187403 
12   0.201309 
13   0.21263 
14   0.276713 
15   0.334745 
16   0.334682 
17   0.344967 
18   0.424657 
19   0.142586 
 
>  <lowdin_charges> 
19 
1   -0.381415 
2   -0.113083 
3   0.180652 
4   0.120062 
5   -0.450059 
6   -0.49239 
7   -0.324916 
8   -0.24823 
9   -0.348638 
10   -0.089383 
11   0.166856 
12   0.181238 
13   0.186161 
14   0.253452 
15   0.286541 
16   0.286571 
17   0.288579 
18   0.355296 
19   0.142706 
 
$$$$ 
 
