PCCDB-ID:  48987 
public computational chemistry database (PCCDB) project, http://pccdb.org 
 
 38 38  0  0  1  0  0  0  0  0999 V2000 
    0.6767    0.1111   -1.6069 C   0  0  0  0  0  0  0  0  0  0  0  0 
    5.0451   -2.7441   -1.5992 C   0  0  0  0  0  0  0  0  0  0  0  0 
    5.0221   -0.2898   -2.1839 C   0  0  0  0  0  0  0  0  0  0  0  0 
    1.1681   -0.1532   -0.1818 C   0  0  0  0  0  0  0  0  0  0  0  0 
    2.1303    5.4448    4.2615 C   0  0  0  0  0  0  0  0  0  0  0  0 
    1.3795    4.2668    4.2779 C   0  0  0  0  0  0  0  0  0  0  0  0 
    3.3210    5.5061    3.5325 C   0  0  0  0  0  0  0  0  0  0  0  0 
    1.8156    3.1489    3.5688 C   0  0  0  0  0  0  0  0  0  0  0  0 
    3.7592    4.3923    2.8210 C   0  0  0  0  0  0  0  0  0  0  0  0 
    3.1401   -0.2149    1.4215 C   0  0  0  0  0  0  0  0  0  0  0  0 
    4.6815   -1.3365   -1.1168 C   0  0  0  0  0  0  0  0  0  0  0  0 
    3.0092    3.2082    2.8357 C   0  0  0  0  0  0  0  0  0  0  0  0 
    2.7007   -0.1829   -0.0558 C   0  0  1  0  0  0  0  0  0  0  0  0 
    3.5282    2.0479    2.0568 C   0  0  0  0  0  0  0  0  0  0  0  0 
    3.2399   -1.3161   -0.8127 N   0  0  0  0  0  0  0  0  0  0  0  0 
    4.5601    2.0638    1.4120 O   0  0  0  0  0  0  0  0  0  0  0  0 
    2.7221    0.9630    2.1493 O   0  0  0  0  0  0  0  0  0  0  0  0 
   -0.4172    0.0733   -1.6605 H   0  0  0  0  0  0  0  0  0  0  0  0 
    1.0851   -0.6316   -2.2982 H   0  0  0  0  0  0  0  0  0  0  0  0 
    0.9926    1.1027   -1.9541 H   0  0  0  0  0  0  0  0  0  0  0  0 
    6.1076   -2.8042   -1.8572 H   0  0  0  0  0  0  0  0  0  0  0  0 
    4.4567   -3.0073   -2.4858 H   0  0  0  0  0  0  0  0  0  0  0  0 
    4.8476   -3.4959   -0.8238 H   0  0  0  0  0  0  0  0  0  0  0  0 
    6.0885   -0.3362   -2.4328 H   0  0  0  0  0  0  0  0  0  0  0  0 
    4.8132    0.7280   -1.8391 H   0  0  0  0  0  0  0  0  0  0  0  0 
    4.4395   -0.4729   -3.0940 H   0  0  0  0  0  0  0  0  0  0  0  0 
    0.7713   -1.1164    0.1756 H   0  0  0  0  0  0  0  0  0  0  0  0 
    0.7765    0.6111    0.5005 H   0  0  0  0  0  0  0  0  0  0  0  0 
    1.7879    6.3144    4.8164 H   0  0  0  0  0  0  0  0  0  0  0  0 
    0.4539    4.2190    4.8450 H   0  0  0  0  0  0  0  0  0  0  0  0 
    3.9052    6.4220    3.5187 H   0  0  0  0  0  0  0  0  0  0  0  0 
    1.2385    2.2312    3.5779 H   0  0  0  0  0  0  0  0  0  0  0  0 
    4.6799    4.4168    2.2475 H   0  0  0  0  0  0  0  0  0  0  0  0 
    4.2245   -0.3093    1.5048 H   0  0  0  0  0  0  0  0  0  0  0  0 
    2.6574   -1.0458    1.9468 H   0  0  0  0  0  0  0  0  0  0  0  0 
    5.2979   -1.1172   -0.2259 H   0  0  0  0  0  0  0  0  0  0  0  0 
    3.1066    0.7333   -0.4976 H   0  0  0  0  0  0  0  0  0  0  0  0 
    2.9753   -2.1860   -0.3510 H   0  0  0  0  0  0  0  0  0  0  0  0 
  1  4  1  0  0  0  0 
  2 11  1  0  0  0  0 
  2 23  1  0  0  0  0 
  3 25  1  0  0  0  0 
  3 11  1  0  0  0  0 
  4 13  1  0  0  0  0 
  4 27  1  0  0  0  0 
  4 28  1  0  0  0  0 
  5  6  1  0  0  0  0 
  5 29  1  0  0  0  0 
  6 30  1  0  0  0  0 
  7  5  2  0  0  0  0 
  8 32  1  0  0  0  0 
  8  6  2  0  0  0  0 
  9 12  2  0  0  0  0 
  9  7  1  0  0  0  0 
 10 34  1  0  0  0  0 
 10 35  1  0  0  0  0 
 10 17  1  0  0  0  0 
 11 15  1  0  0  0  0 
 11 36  1  0  0  0  0 
 12  8  1  0  0  0  0 
 13 37  1  6  0  0  0 
 13 10  1  0  0  0  0 
 14 17  1  0  0  0  0 
 14 12  1  0  0  0  0 
 15 38  1  0  0  0  0 
 15 13  1  0  0  0  0 
 16 14  2  0  0  0  0 
 18  1  1  0  0  0  0 
 19  1  1  0  0  0  0 
 20  1  1  0  0  0  0 
 21  2  1  0  0  0  0 
 22  2  1  0  0  0  0 
 24  3  1  0  0  0  0 
 26  3  1  0  0  0  0 
 31  7  1  0  0  0  0 
 33  9  1  0  0  0  0 
M  END 
>  <HBA> 
3 
 
>  <HBD> 
1 
 
>  <TPSA> 
38.33 
 
>  <cid> 
48987 
 
>  <dipole> 
1.79 
 
>  <excitation_energy_1> 
4.035 
 
>  <excitation_energy_2> 
4.858 
 
>  <excitation_energy_3> 
4.906 
 
>  <excitation_energy_4> 
5.122 
 
>  <homo_energy> 
-5.872 
 
>  <homo_lumo_gap> 
4.667 
 
>  <logP> 
3.011 
 
>  <lumo_energy> 
-1.205 
 
>  <melting_point> 
52.46 
 
>  <molecular_refractivity> 
69.37 
 
>  <oscillator_strength_1> 
0.0332 
 
>  <oscillator_strength_2> 
0.0008 
 
>  <oscillator_strength_3> 
0.0164 
 
>  <oscillator_strength_4> 
0.0036 
 
>  <open_babel_can_smiles> 
CC[C@H](NC(C)C)COC(=O)c1ccccc1 
 
>  <mulliken_charges> 
38 
1   -0.44212 
2   -0.460198 
3   -0.439696 
4   -0.252468 
5   -0.116986 
6   -0.136691 
7   -0.138528 
8   -0.158727 
9   -0.151758 
10   -0.060782 
11   0.066005 
12   0.046692 
13   0.01562 
14   0.596749 
15   -0.564449 
16   -0.495735 
17   -0.483144 
18   0.136454 
19   0.163388 
20   0.138679 
21   0.147532 
22   0.154546 
23   0.133512 
24   0.137883 
25   0.158321 
26   0.147988 
27   0.117721 
28   0.143121 
29   0.137003 
30   0.136368 
31   0.137973 
32   0.156641 
33   0.163097 
34   0.171117 
35   0.138055 
36   0.116956 
37   0.155172 
38   0.284692 
 
>  <lowdin_charges> 
38 
1   -0.444427 
2   -0.448152 
3   -0.447476 
4   -0.279243 
5   -0.140833 
6   -0.156375 
7   -0.156724 
8   -0.139958 
9   -0.129655 
10   -0.150217 
11   -0.054681 
12   -0.045738 
13   -0.078534 
14   0.195769 
15   -0.356244 
16   -0.275189 
17   -0.190688 
18   0.145121 
19   0.15829 
20   0.145283 
21   0.152698 
22   0.154058 
23   0.144409 
24   0.148236 
25   0.154496 
26   0.151662 
27   0.134046 
28   0.148385 
29   0.161807 
30   0.160692 
31   0.161908 
32   0.172221 
33   0.176616 
34   0.157555 
35   0.147915 
36   0.120638 
37   0.153323 
38   0.249007 
 
$$$$ 
 
