PCCDB-ID:  28481 
public computational chemistry database (PCCDB) project, http://pccdb.org 
 
 39 41  0  0  1  0  0  0  0  0999 V2000 
    0.9029   -0.0481   -0.2070 C   0  0  0  0  0  0  0  0  0  0  0  0 
    1.1207    4.1469    1.2229 C   0  0  0  0  0  0  0  0  0  0  0  0 
    2.3533    4.0910   -0.9626 C   0  0  0  0  0  0  0  0  0  0  0  0 
    3.5945    1.1703   -1.3949 C   0  0  0  0  0  0  0  0  0  0  0  0 
    3.8844   -1.4962    1.8273 C   0  0  0  0  0  0  0  0  0  0  0  0 
    2.4499   -1.0453    1.5372 C   0  0  0  0  0  0  0  0  0  0  0  0 
    4.8568   -0.3664    1.6075 C   0  0  0  0  0  0  0  0  0  0  0  0 
    5.6140    1.8529    0.7690 C   0  0  0  0  0  0  0  0  0  0  0  0 
    4.9547    3.2673    0.7115 C   0  0  0  0  0  0  0  0  0  0  0  0 
    2.3629   -0.3323    0.1796 C   0  0  2  0  0  0  0  0  0  0  0  0 
    4.6104    0.7117    0.8520 C   0  0  0  0  0  0  0  0  0  0  0  0 
    3.5420    3.2777    1.2851 C   0  0  2  0  0  0  0  0  0  0  0  0 
    2.6464    2.1206    0.8722 C   0  0  1  0  0  0  0  0  0  0  0  0 
    2.2925    3.5440    0.4544 C   0  0  0  0  0  0  0  0  0  0  0  0 
    3.2875    0.9336    0.1048 C   0  0  1  0  0  0  0  0  0  0  0  0 
    0.3426   -0.9878   -0.2801 H   0  0  0  0  0  0  0  0  0  0  0  0 
    0.8213    0.4596   -1.1739 H   0  0  0  0  0  0  0  0  0  0  0  0 
    0.3993    0.5772    0.5388 H   0  0  0  0  0  0  0  0  0  0  0  0 
    1.2047    5.2409    1.2673 H   0  0  0  0  0  0  0  0  0  0  0  0 
    1.0752    3.7752    2.2527 H   0  0  0  0  0  0  0  0  0  0  0  0 
    0.1648    3.9070    0.7386 H   0  0  0  0  0  0  0  0  0  0  0  0 
    2.3441    5.1886   -0.9334 H   0  0  0  0  0  0  0  0  0  0  0  0 
    1.4746    3.7732   -1.5383 H   0  0  0  0  0  0  0  0  0  0  0  0 
    3.2372    3.7874   -1.5225 H   0  0  0  0  0  0  0  0  0  0  0  0 
    4.0376    0.2609   -1.8170 H   0  0  0  0  0  0  0  0  0  0  0  0 
    4.3046    1.9805   -1.5692 H   0  0  0  0  0  0  0  0  0  0  0  0 
    2.6876    1.3974   -1.9629 H   0  0  0  0  0  0  0  0  0  0  0  0 
    4.1426   -2.3580    1.1903 H   0  0  0  0  0  0  0  0  0  0  0  0 
    3.9686   -1.8589    2.8607 H   0  0  0  0  0  0  0  0  0  0  0  0 
    2.1101   -0.3741    2.3383 H   0  0  0  0  0  0  0  0  0  0  0  0 
    1.7690   -1.9066    1.5432 H   0  0  0  0  0  0  0  0  0  0  0  0 
    5.8102   -0.4296    2.1339 H   0  0  0  0  0  0  0  0  0  0  0  0 
    6.2816    1.7874    1.6354 H   0  0  0  0  0  0  0  0  0  0  0  0 
    6.2577    1.7302   -0.1143 H   0  0  0  0  0  0  0  0  0  0  0  0 
    4.9481    3.6250   -0.3229 H   0  0  0  0  0  0  0  0  0  0  0  0 
    5.5809    3.9803    1.2591 H   0  0  0  0  0  0  0  0  0  0  0  0 
    2.7609   -1.0406   -0.5627 H   0  0  0  0  0  0  0  0  0  0  0  0 
    3.4846    3.5837    2.3295 H   0  0  0  0  0  0  0  0  0  0  0  0 
    2.0106    1.7523    1.6753 H   0  0  0  0  0  0  0  0  0  0  0  0 
  1 10  1  0  0  0  0 
  1 18  1  0  0  0  0 
  2 19  1  0  0  0  0 
  2 20  1  0  0  0  0 
  3 22  1  0  0  0  0 
  3 14  1  0  0  0  0 
  5 29  1  0  0  0  0 
  6 31  1  0  0  0  0 
  6  5  1  0  0  0  0 
  6 30  1  0  0  0  0 
  7  5  1  0  0  0  0 
  7 32  1  0  0  0  0 
  8 11  1  0  0  0  0 
  8 33  1  0  0  0  0 
  9  8  1  0  0  0  0 
  9 36  1  0  0  0  0 
  9 12  1  0  0  0  0 
 10 37  1  6  0  0  0 
 10  6  1  0  0  0  0 
 11  7  2  0  0  0  0 
 12 38  1  1  0  0  0 
 13 12  1  0  0  0  0 
 13 39  1  1  0  0  0 
 14 13  1  0  0  0  0 
 14  2  1  0  0  0  0 
 14 12  1  0  0  0  0 
 15  4  1  6  0  0  0 
 15 10  1  0  0  0  0 
 15 11  1  0  0  0  0 
 15 13  1  0  0  0  0 
 16  1  1  0  0  0  0 
 17  1  1  0  0  0  0 
 21  2  1  0  0  0  0 
 23  3  1  0  0  0  0 
 24  3  1  0  0  0  0 
 25  4  1  0  0  0  0 
 26  4  1  0  0  0  0 
 27  4  1  0  0  0  0 
 28  5  1  0  0  0  0 
 34  8  1  0  0  0  0 
 35  9  1  0  0  0  0 
M  END 
>  <HBA> 
0 
 
>  <HBD> 
0 
 
>  <TPSA> 
0.0 
 
>  <cid> 
28481 
 
>  <dipole> 
0.17 
 
>  <excitation_energy_1> 
5.469 
 
>  <excitation_energy_2> 
5.806 
 
>  <excitation_energy_3> 
5.861 
 
>  <excitation_energy_4> 
5.909 
 
>  <homo_energy> 
-5.976 
 
>  <homo_lumo_gap> 
6.92 
 
>  <logP> 
4.415 
 
>  <lumo_energy> 
0.944 
 
>  <melting_point> 
85.78 
 
>  <molecular_refractivity> 
66.88 
 
>  <oscillator_strength_1> 
0.0086 
 
>  <oscillator_strength_2> 
0.014 
 
>  <oscillator_strength_3> 
0.0147 
 
>  <oscillator_strength_4> 
0.0158 
 
>  <open_babel_can_smiles> 
C[C@@H]1CCC=C2[C@]1(C)[C@H]1[C@H](C1(C)C)CC2 
 
>  <mulliken_charges> 
39 
1   -0.452549 
2   -0.466525 
3   -0.471896 
4   -0.476945 
5   -0.294193 
6   -0.270583 
7   -0.203323 
8   -0.33937 
9   -0.291896 
10   -0.098121 
11   0.194087 
12   -0.135049 
13   -0.155913 
14   0.119803 
15   0.046686 
16   0.138185 
17   0.142511 
18   0.144763 
19   0.140937 
20   0.139525 
21   0.142143 
22   0.139969 
23   0.142923 
24   0.146563 
25   0.143539 
26   0.144127 
27   0.15046 
28   0.139308 
29   0.134275 
30   0.13491 
31   0.125165 
32   0.108777 
33   0.140853 
34   0.142128 
35   0.138993 
36   0.13939 
37   0.118589 
38   0.126952 
39   0.130804 
 
>  <lowdin_charges> 
39 
1   -0.447034 
2   -0.429449 
3   -0.43903 
4   -0.446725 
5   -0.274655 
6   -0.277793 
7   -0.199162 
8   -0.279634 
9   -0.279995 
10   -0.12326 
11   -0.014163 
12   -0.166512 
13   -0.169938 
14   -0.001576 
15   0.013799 
16   0.148239 
17   0.147963 
18   0.149641 
19   0.145126 
20   0.146972 
21   0.147421 
22   0.146942 
23   0.150347 
24   0.153364 
25   0.150451 
26   0.149357 
27   0.152082 
28   0.145371 
29   0.145662 
30   0.14093 
31   0.142196 
32   0.144297 
33   0.149766 
34   0.148395 
35   0.142633 
36   0.152453 
37   0.138655 
38   0.145356 
39   0.151507 
 
$$$$ 
 
