PCCDB-ID:  58302 
public computational chemistry database (PCCDB) project, http://pccdb.org 
 
 39 40  0  0  0  0  0  0  0  0999 V2000 
    4.8568    2.4643   -1.8059 C   0  0  0  0  0  0  0  0  0  0  0  0 
    3.1616    0.9604   -0.8100 C   0  0  0  0  0  0  0  0  0  0  0  0 
    9.7046    0.6643    2.1707 C   0  0  0  0  0  0  0  0  0  0  0  0 
    3.0921    1.5760    4.7145 C   0  0  0  0  0  0  0  0  0  0  0  0 
    8.7686   -0.2673    1.7126 C   0  0  0  0  0  0  0  0  0  0  0  0 
    9.2581    1.8047    2.8336 C   0  0  0  0  0  0  0  0  0  0  0  0 
    3.4434    0.2122    4.1050 C   0  0  0  0  0  0  0  0  0  0  0  0 
    3.5566    2.7202    3.8027 C   0  0  0  0  0  0  0  0  0  0  0  0 
    7.4084   -0.0545    1.9207 C   0  0  0  0  0  0  0  0  0  0  0  0 
    7.8904    2.0125    3.0428 C   0  0  0  0  0  0  0  0  0  0  0  0 
    4.9365    0.1098    3.7609 C   0  0  0  0  0  0  0  0  0  0  0  0 
    5.0541    2.6023    3.4820 C   0  0  0  0  0  0  0  0  0  0  0  0 
    5.0984    1.6706    0.4965 C   0  0  0  0  0  0  0  0  0  0  0  0 
    6.9384    1.0874    2.5953 C   0  0  0  0  0  0  0  0  0  0  0  0 
    5.4201    1.2482    2.8153 C   0  0  0  0  0  0  0  0  0  0  0  0 
    4.6492    1.1171    1.5594 N   0  0  0  0  0  0  0  0  0  0  0  0 
    4.4656    1.5911   -0.7180 N   0  0  0  0  0  0  0  0  0  0  0  0 
    4.8439    1.9175   -2.7570 H   0  0  0  0  0  0  0  0  0  0  0  0 
    5.8727    2.8327   -1.6373 H   0  0  0  0  0  0  0  0  0  0  0  0 
    4.1871    3.3338   -1.9055 H   0  0  0  0  0  0  0  0  0  0  0  0 
    3.0328    0.5339   -1.8111 H   0  0  0  0  0  0  0  0  0  0  0  0 
    2.3439    1.6747   -0.6261 H   0  0  0  0  0  0  0  0  0  0  0  0 
    3.1007    0.1710   -0.0599 H   0  0  0  0  0  0  0  0  0  0  0  0 
   10.7669    0.5022    2.0081 H   0  0  0  0  0  0  0  0  0  0  0  0 
    3.5785    1.6756    5.6972 H   0  0  0  0  0  0  0  0  0  0  0  0 
    2.0113    1.6470    4.8939 H   0  0  0  0  0  0  0  0  0  0  0  0 
    9.0999   -1.1605    1.1886 H   0  0  0  0  0  0  0  0  0  0  0  0 
    9.9720    2.5423    3.1922 H   0  0  0  0  0  0  0  0  0  0  0  0 
    2.8627    0.0635    3.1873 H   0  0  0  0  0  0  0  0  0  0  0  0 
    3.1707   -0.5966    4.7957 H   0  0  0  0  0  0  0  0  0  0  0  0 
    3.3622    3.6902    4.2789 H   0  0  0  0  0  0  0  0  0  0  0  0 
    2.9836    2.6992    2.8681 H   0  0  0  0  0  0  0  0  0  0  0  0 
    6.6913   -0.7774    1.5426 H   0  0  0  0  0  0  0  0  0  0  0  0 
    7.5770    2.9116    3.5621 H   0  0  0  0  0  0  0  0  0  0  0  0 
    5.1438   -0.8585    3.2915 H   0  0  0  0  0  0  0  0  0  0  0  0 
    5.5358    0.1510    4.6813 H   0  0  0  0  0  0  0  0  0  0  0  0 
    5.6178    2.7005    4.4199 H   0  0  0  0  0  0  0  0  0  0  0  0 
    5.3682    3.4283    2.8302 H   0  0  0  0  0  0  0  0  0  0  0  0 
    6.0447    2.2245    0.4431 H   0  0  0  0  0  0  0  0  0  0  0  0 
  1 19  1  0  0  0  0 
  1 17  1  0  0  0  0 
  2 17  1  0  0  0  0 
  2 22  1  0  0  0  0 
  2 23  1  0  0  0  0 
  3  6  2  0  0  0  0 
  4 26  1  0  0  0  0 
  4 25  1  0  0  0  0 
  5  9  2  0  0  0  0 
  5  3  1  0  0  0  0 
  6 10  1  0  0  0  0 
  6 28  1  0  0  0  0 
  7  4  1  0  0  0  0 
  7 30  1  0  0  0  0 
  8 31  1  0  0  0  0 
  8  4  1  0  0  0  0 
  9 14  1  0  0  0  0 
 10 34  1  0  0  0  0 
 11  7  1  0  0  0  0 
 11 36  1  0  0  0  0 
 12  8  1  0  0  0  0 
 12 37  1  0  0  0  0 
 13 16  2  0  0  0  0 
 14 15  1  0  0  0  0 
 14 10  2  0  0  0  0 
 15 12  1  0  0  0  0 
 15 11  1  0  0  0  0 
 16 15  1  0  0  0  0 
 17 13  1  0  0  0  0 
 18  1  1  0  0  0  0 
 20  1  1  0  0  0  0 
 21  2  1  0  0  0  0 
 24  3  1  0  0  0  0 
 27  5  1  0  0  0  0 
 29  7  1  0  0  0  0 
 32  8  1  0  0  0  0 
 33  9  1  0  0  0  0 
 35 11  1  0  0  0  0 
 38 12  1  0  0  0  0 
 39 13  1  0  0  0  0 
M  END 
>  <HBA> 
2 
 
>  <HBD> 
0 
 
>  <TPSA> 
15.6 
 
>  <cid> 
58302 
 
>  <dipole> 
2.47 
 
>  <excitation_energy_1> 
4.79 
 
>  <excitation_energy_2> 
4.901 
 
>  <excitation_energy_3> 
4.981 
 
>  <excitation_energy_4> 
5.316 
 
>  <homo_energy> 
-5.524 
 
>  <homo_lumo_gap> 
5.655 
 
>  <logP> 
3.436 
 
>  <lumo_energy> 
0.131 
 
>  <melting_point> 
51.86 
 
>  <molecular_refractivity> 
74.21 
 
>  <oscillator_strength_1> 
0.021 
 
>  <oscillator_strength_2> 
0.0103 
 
>  <oscillator_strength_3> 
0.0358 
 
>  <oscillator_strength_4> 
0.0149 
 
>  <open_babel_can_smiles> 
CN(/C=N/C1(CCCCC1)c1ccccc1)C 
 
>  <mulliken_charges> 
39 
1   -0.308774 
2   -0.307703 
3   -0.128698 
4   -0.258289 
5   -0.135 
6   -0.135283 
7   -0.256583 
8   -0.252052 
9   -0.173284 
10   -0.193407 
11   -0.259069 
12   -0.273114 
13   0.270588 
14   0.129619 
15   0.127061 
16   -0.47271 
17   -0.374972 
18   0.156667 
19   0.163968 
20   0.149568 
21   0.144639 
22   0.1471 
23   0.193352 
24   0.124151 
25   0.12061 
26   0.1244 
27   0.125048 
28   0.124165 
29   0.148111 
30   0.121169 
31   0.120441 
32   0.142283 
33   0.136075 
34   0.126639 
35   0.131097 
36   0.124595 
37   0.128814 
38   0.123931 
39   0.124846 
 
>  <lowdin_charges> 
39 
1   -0.346824 
2   -0.353811 
3   -0.161317 
4   -0.274414 
5   -0.15885 
6   -0.160974 
7   -0.28173 
8   -0.278249 
9   -0.162347 
10   -0.176794 
11   -0.275855 
12   -0.282427 
13   -0.03282 
14   -0.011393 
15   0.065314 
16   -0.257827 
17   -0.10131 
18   0.150874 
19   0.159474 
20   0.141545 
21   0.148275 
22   0.14394 
23   0.177684 
24   0.153544 
25   0.132544 
26   0.138759 
27   0.15549 
28   0.155965 
29   0.14915 
30   0.140635 
31   0.138691 
32   0.145999 
33   0.161777 
34   0.158497 
35   0.145242 
36   0.139239 
37   0.13996 
38   0.140488 
39   0.133856 
 
$$$$ 
 
