PCCDB-ID:  12320 
public computational chemistry database (PCCDB) project, http://pccdb.org 
 
 13 12  0  0  0  0  0  0  0  0999 V2000 
    1.3003    0.3643    1.6329 C   0  0  0  0  0  0  0  0  0  0  0  0 
    6.6129    1.2696    1.8722 C   0  0  0  0  0  0  0  0  0  0  0  0 
    2.5927    0.3684    1.2958 C   0  0  0  0  0  0  0  0  0  0  0  0 
    5.3472    0.7293    1.2094 C   0  0  0  0  0  0  0  0  0  0  0  0 
    3.8861    1.0869    2.2720 S   0  0  0  0  0  0  0  0  0  0  0  0 
    0.5644   -0.0973    0.9817 H   0  0  0  0  0  0  0  0  0  0  0  0 
    0.9343    0.8122    2.5528 H   0  0  0  0  0  0  0  0  0  0  0  0 
    7.4833    1.0588    1.2410 H   0  0  0  0  0  0  0  0  0  0  0  0 
    6.7809    0.8032    2.8485 H   0  0  0  0  0  0  0  0  0  0  0  0 
    6.5541    2.3534    2.0175 H   0  0  0  0  0  0  0  0  0  0  0  0 
    2.9256   -0.0896    0.3660 H   0  0  0  0  0  0  0  0  0  0  0  0 
    5.4206   -0.3535    1.0649 H   0  0  0  0  0  0  0  0  0  0  0  0 
    5.1946    1.1981    0.2318 H   0  0  0  0  0  0  0  0  0  0  0  0 
  1  7  1  0  0  0  0 
  2 10  1  0  0  0  0 
  2  9  1  0  0  0  0 
  3  1  2  0  0  0  0 
  3  5  1  0  0  0  0 
  4  2  1  0  0  0  0 
  4  5  1  0  0  0  0 
  6  1  1  0  0  0  0 
  8  2  1  0  0  0  0 
 11  3  1  0  0  0  0 
 12  4  1  0  0  0  0 
 13  4  1  0  0  0  0 
M  END 
>  <HBA> 
1 
 
>  <HBD> 
0 
 
>  <TPSA> 
25.3 
 
>  <cid> 
12320 
 
>  <dipole> 
1.79 
 
>  <excitation_energy_1> 
4.818 
 
>  <excitation_energy_2> 
5.197 
 
>  <excitation_energy_3> 
5.284 
 
>  <excitation_energy_4> 
5.726 
 
>  <homo_energy> 
-5.627 
 
>  <homo_lumo_gap> 
6.131 
 
>  <logP> 
1.883 
 
>  <lumo_energy> 
0.503 
 
>  <melting_point> 
-36.86 
 
>  <molecular_refractivity> 
28.46 
 
>  <oscillator_strength_1> 
0.0011 
 
>  <oscillator_strength_2> 
0.0024 
 
>  <oscillator_strength_3> 
0.2423 
 
>  <oscillator_strength_4> 
0.0045 
 
>  <open_babel_can_smiles> 
CCSC=C 
 
>  <mulliken_charges> 
13 
1   -0.337593 
2   -0.457474 
3   -0.236765 
4   -0.406343 
5   0.142217 
6   0.147228 
7   0.150155 
8   0.156698 
9   0.167196 
10   0.167191 
11   0.158218 
12   0.174577 
13   0.174695 
 
>  <lowdin_charges> 
13 
1   -0.35784 
2   -0.443369 
3   -0.270698 
4   -0.364956 
5   0.14976 
6   0.166286 
7   0.163417 
8   0.159241 
9   0.160014 
10   0.158515 
11   0.16607 
12   0.156009 
13   0.157551 
 
$$$$ 
 
