PCCDB-ID:  19476 
public computational chemistry database (PCCDB) project, http://pccdb.org 
 
 31 33  0  0  1  0  0  0  0  0999 V2000 
    2.2035   -0.7005   -1.2153 C   0  0  0  0  0  0  0  0  0  0  0  0 
    2.4640   -1.8395    4.0101 C   0  0  0  0  0  0  0  0  0  0  0  0 
    4.8712   -1.5865    3.3155 C   0  0  0  0  0  0  0  0  0  0  0  0 
    3.5206   -3.5430    2.4861 C   0  0  0  0  0  0  0  0  0  0  0  0 
    3.1346   -0.0147    2.4077 C   0  0  0  0  0  0  0  0  0  0  0  0 
    1.7797   -1.9622    1.5880 C   0  0  0  0  0  0  0  0  0  0  0  0 
    4.1859   -1.7099    0.8910 C   0  0  0  0  0  0  0  0  0  0  0  0 
    3.5693   -0.8273    3.6429 C   0  0  1  0  0  0  0  0  0  0  0  0 
    2.2179   -2.7862    2.8181 C   0  0  2  0  0  0  0  0  0  0  0  0 
    4.6271   -2.5308    2.1211 C   0  0  1  0  0  0  0  0  0  0  0  0 
    2.8805   -0.9385    1.1940 C   0  0  2  0  0  0  0  0  0  0  0  0 
    2.5287   -0.0666    0.0603 N   0  0  0  0  0  0  0  0  0  0  0  0 
    1.9020    0.0809   -1.9211 H   0  0  0  0  0  0  0  0  0  0  0  0 
    1.3956   -1.4526   -1.1816 H   0  0  0  0  0  0  0  0  0  0  0  0 
    3.0918   -1.1854   -1.6327 H   0  0  0  0  0  0  0  0  0  0  0  0 
    1.5368   -1.3096    4.2694 H   0  0  0  0  0  0  0  0  0  0  0  0 
    2.7597   -2.4173    4.8968 H   0  0  0  0  0  0  0  0  0  0  0  0 
    5.2047   -2.1616    4.1904 H   0  0  0  0  0  0  0  0  0  0  0  0 
    5.6732   -0.8748    3.0760 H   0  0  0  0  0  0  0  0  0  0  0  0 
    3.3518   -4.2368    1.6507 H   0  0  0  0  0  0  0  0  0  0  0  0 
    3.8330   -4.1502    3.3470 H   0  0  0  0  0  0  0  0  0  0  0  0 
    3.9015    0.7216    2.1357 H   0  0  0  0  0  0  0  0  0  0  0  0 
    2.2162    0.5487    2.6336 H   0  0  0  0  0  0  0  0  0  0  0  0 
    0.8452   -1.4241    1.8073 H   0  0  0  0  0  0  0  0  0  0  0  0 
    1.5691   -2.6371    0.7479 H   0  0  0  0  0  0  0  0  0  0  0  0 
    4.0380   -2.3850    0.0379 H   0  0  0  0  0  0  0  0  0  0  0  0 
    4.9638   -0.9914    0.6019 H   0  0  0  0  0  0  0  0  0  0  0  0 
    3.7411   -0.1442    4.4853 H   0  0  0  0  0  0  0  0  0  0  0  0 
    1.4289   -3.5058    3.0754 H   0  0  0  0  0  0  0  0  0  0  0  0 
    5.5541   -3.0684    1.8815 H   0  0  0  0  0  0  0  0  0  0  0  0 
    1.7425    0.5168    0.3441 H   0  0  0  0  0  0  0  0  0  0  0  0 
  1 14  1  0  0  0  0 
  1 12  1  0  0  0  0 
  2 16  1  0  0  0  0 
  2 17  1  0  0  0  0 
  3  8  1  0  0  0  0 
  3 18  1  0  0  0  0 
  4  9  1  0  0  0  0 
  4 21  1  0  0  0  0 
  5 23  1  0  0  0  0 
  5  8  1  0  0  0  0 
  6 24  1  0  0  0  0 
  6  9  1  0  0  0  0 
  7 11  1  0  0  0  0 
  7 10  1  0  0  0  0 
  8  2  1  0  0  0  0 
  8 28  1  1  0  0  0 
  9 29  1  1  0  0  0 
  9  2  1  0  0  0  0 
 10 30  1  6  0  0  0 
 10  4  1  0  0  0  0 
 10  3  1  0  0  0  0 
 11 12  1  6  0  0  0 
 11  6  1  0  0  0  0 
 11  5  1  0  0  0  0 
 12 31  1  0  0  0  0 
 13  1  1  0  0  0  0 
 15  1  1  0  0  0  0 
 19  3  1  0  0  0  0 
 20  4  1  0  0  0  0 
 22  5  1  0  0  0  0 
 25  6  1  0  0  0  0 
 26  7  1  0  0  0  0 
 27  7  1  0  0  0  0 
M  END 
>  <HBA> 
1 
 
>  <HBD> 
1 
 
>  <TPSA> 
12.03 
 
>  <cid> 
19476 
 
>  <dipole> 
0.85 
 
>  <excitation_energy_1> 
5.091 
 
>  <excitation_energy_2> 
5.483 
 
>  <excitation_energy_3> 
5.639 
 
>  <excitation_energy_4> 
5.828 
 
>  <homo_energy> 
-5.649 
 
>  <homo_lumo_gap> 
7.54 
 
>  <logP> 
2.566 
 
>  <lumo_energy> 
1.891 
 
>  <melting_point> 
76.05 
 
>  <molecular_refractivity> 
51.49 
 
>  <oscillator_strength_1> 
0.0006 
 
>  <oscillator_strength_2> 
0.0047 
 
>  <oscillator_strength_3> 
0.0064 
 
>  <oscillator_strength_4> 
0.0212 
 
>  <open_babel_can_smiles> 
CN[C@]12C[C@H]3C[C@@H](C2)C[C@@H](C1)C3 
 
>  <mulliken_charges> 
31 
1   -0.306512 
2   -0.26412 
3   -0.263412 
4   -0.265311 
5   -0.278292 
6   -0.2771 
7   -0.272988 
8   -0.091052 
9   -0.088717 
10   -0.093268 
11   0.211838 
12   -0.565183 
13   0.145222 
14   0.122722 
15   0.153676 
16   0.123571 
17   0.124483 
18   0.123607 
19   0.126899 
20   0.124458 
21   0.124632 
22   0.139383 
23   0.113844 
24   0.113871 
25   0.127122 
26   0.124789 
27   0.136621 
28   0.114952 
29   0.113609 
30   0.115043 
31   0.285616 
 
>  <lowdin_charges> 
31 
1   -0.365729 
2   -0.28217 
3   -0.282365 
4   -0.282462 
5   -0.282148 
6   -0.294872 
7   -0.283619 
8   -0.13186 
9   -0.131755 
10   -0.130827 
11   0.051103 
12   -0.359285 
13   0.151418 
14   0.12202 
15   0.149083 
16   0.13881 
17   0.139893 
18   0.139686 
19   0.141216 
20   0.139525 
21   0.140321 
22   0.148363 
23   0.134567 
24   0.134864 
25   0.141037 
26   0.140283 
27   0.147593 
28   0.13974 
29   0.138841 
30   0.139298 
31   0.24943 
 
$$$$ 
 
