PCCDB-ID:  10822 
public computational chemistry database (PCCDB) project, http://pccdb.org 
 
 17 17  0  0  0  0  0  0  0  0999 V2000 
    2.5190   -0.5668    1.4995 C   0  0  0  0  0  0  0  0  0  0  0  0 
    2.5239    0.0556    0.0910 C   0  0  0  0  0  0  0  0  0  0  0  0 
    4.4643    1.6875   -0.1030 C   0  0  0  0  0  0  0  0  0  0  0  0 
    2.2883    2.5806    0.2794 C   0  0  0  0  0  0  0  0  0  0  0  0 
    4.9487    2.9949   -0.0711 C   0  0  0  0  0  0  0  0  0  0  0  0 
    2.8692    3.8484    0.2944 C   0  0  0  0  0  0  0  0  0  0  0  0 
    3.0958    1.4555    0.0772 C   0  0  0  0  0  0  0  0  0  0  0  0 
    4.1783    4.0728    0.1235 N   0  0  0  0  0  0  0  0  0  0  0  0 
    2.0994   -1.5786    1.4748 H   0  0  0  0  0  0  0  0  0  0  0  0 
    1.9199    0.0339    2.1927 H   0  0  0  0  0  0  0  0  0  0  0  0 
    3.5348   -0.6287    1.9052 H   0  0  0  0  0  0  0  0  0  0  0  0 
    1.4989    0.0760   -0.2995 H   0  0  0  0  0  0  0  0  0  0  0  0 
    3.1058   -0.5834   -0.5847 H   0  0  0  0  0  0  0  0  0  0  0  0 
    5.1482    0.8588   -0.2712 H   0  0  0  0  0  0  0  0  0  0  0  0 
    1.2152    2.4731    0.4198 H   0  0  0  0  0  0  0  0  0  0  0  0 
    6.0112    3.1873   -0.2142 H   0  0  0  0  0  0  0  0  0  0  0  0 
    2.2497    4.7313    0.4469 H   0  0  0  0  0  0  0  0  0  0  0  0 
  1 11  1  0  0  0  0 
  1 10  1  0  0  0  0 
  2  1  1  0  0  0  0 
  3  5  2  0  0  0  0 
  3  7  1  0  0  0  0 
  4  6  1  0  0  0  0 
  4 15  1  0  0  0  0 
  5  8  1  0  0  0  0 
  6 17  1  0  0  0  0 
  7  2  1  0  0  0  0 
  7  4  2  0  0  0  0 
  8  6  2  0  0  0  0 
  9  1  1  0  0  0  0 
 12  2  1  0  0  0  0 
 13  2  1  0  0  0  0 
 14  3  1  0  0  0  0 
 16  5  1  0  0  0  0 
M  END 
>  <HBA> 
1 
 
>  <HBD> 
0 
 
>  <TPSA> 
12.89 
 
>  <cid> 
10822 
 
>  <dipole> 
2.67 
 
>  <excitation_energy_1> 
4.917 
 
>  <excitation_energy_2> 
5.152 
 
>  <excitation_energy_3> 
5.455 
 
>  <excitation_energy_4> 
6.137 
 
>  <homo_energy> 
-6.781 
 
>  <homo_lumo_gap> 
6.283 
 
>  <logP> 
1.644 
 
>  <lumo_energy> 
-0.498 
 
>  <melting_point> 
21.99 
 
>  <molecular_refractivity> 
34.01 
 
>  <oscillator_strength_1> 
0.005 
 
>  <oscillator_strength_2> 
0.0 
 
>  <oscillator_strength_3> 
0.0269 
 
>  <oscillator_strength_4> 
0.0084 
 
>  <open_babel_can_smiles> 
CCc1ccncc1 
 
>  <mulliken_charges> 
17 
1   -0.436343 
2   -0.339031 
3   -0.185818 
4   -0.185957 
5   0.038966 
6   0.039036 
7   0.190632 
8   -0.410842 
9   0.149519 
10   0.153427 
11   0.153372 
12   0.148892 
13   0.148968 
14   0.128668 
15   0.128672 
16   0.138916 
17   0.138924 
 
>  <lowdin_charges> 
17 
1   -0.438622 
2   -0.272233 
3   -0.189107 
4   -0.185001 
5   -0.086197 
6   -0.090008 
7   0.024647 
8   -0.155311 
9   0.152038 
10   0.154161 
11   0.152068 
12   0.151377 
13   0.153751 
14   0.16064 
15   0.157897 
16   0.153484 
17   0.156414 
 
$$$$ 
 
