PCCDB-ID:  13400 
public computational chemistry database (PCCDB) project, http://pccdb.org 
 
 22 22  0  0  1  0  0  0  0  0999 V2000 
    1.4473    0.7973   -0.1798 C   0  0  0  0  0  0  0  0  0  0  0  0 
    5.5302   -1.8711   -1.8355 C   0  0  0  0  0  0  0  0  0  0  0  0 
    4.8963   -3.2444   -1.5820 C   0  0  0  0  0  0  0  0  0  0  0  0 
    4.9742   -0.8169   -0.8711 C   0  0  0  0  0  0  0  0  0  0  0  0 
    3.3585   -3.1743   -1.6776 C   0  0  0  0  0  0  0  0  0  0  0  0 
    2.8762    0.3411    0.0237 C   0  0  0  0  0  0  0  0  0  0  0  0 
    3.4361   -0.6919   -0.9679 C   0  0  2  0  0  0  0  0  0  0  0  0 
    2.7757   -2.0739   -0.8016 C   0  0  0  0  0  0  0  0  0  0  0  0 
    3.5716    0.7732    0.9226 O   0  0  0  0  0  0  0  0  0  0  0  0 
    1.8585   -2.2808   -0.0296 O   0  0  0  0  0  0  0  0  0  0  0  0 
    1.2921    1.1558   -1.2052 H   0  0  0  0  0  0  0  0  0  0  0  0 
    1.2104    1.5927    0.5298 H   0  0  0  0  0  0  0  0  0  0  0  0 
    0.7772   -0.0548   -0.0223 H   0  0  0  0  0  0  0  0  0  0  0  0 
    5.3367   -1.5644   -2.8743 H   0  0  0  0  0  0  0  0  0  0  0  0 
    6.6198   -1.9338   -1.7272 H   0  0  0  0  0  0  0  0  0  0  0  0 
    5.1776   -3.5963   -0.5802 H   0  0  0  0  0  0  0  0  0  0  0  0 
    5.2742   -3.9877   -2.2938 H   0  0  0  0  0  0  0  0  0  0  0  0 
    5.4227    0.1640   -1.0607 H   0  0  0  0  0  0  0  0  0  0  0  0 
    5.2363   -1.0736    0.1619 H   0  0  0  0  0  0  0  0  0  0  0  0 
    2.8831   -4.1182   -1.3954 H   0  0  0  0  0  0  0  0  0  0  0  0 
    3.0744   -2.9541   -2.7183 H   0  0  0  0  0  0  0  0  0  0  0  0 
    3.1750   -0.3614   -1.9874 H   0  0  0  0  0  0  0  0  0  0  0  0 
  1 13  1  0  0  0  0 
  1  6  1  0  0  0  0 
  1 12  1  0  0  0  0 
  2 15  1  0  0  0  0 
  2  3  1  0  0  0  0 
  2  4  1  0  0  0  0 
  3 16  1  0  0  0  0 
  4 19  1  0  0  0  0 
  5  3  1  0  0  0  0 
  5 20  1  0  0  0  0 
  5  8  1  0  0  0  0 
  6  9  2  0  0  0  0 
  7 22  1  6  0  0  0 
  7  4  1  0  0  0  0 
  7  8  1  0  0  0  0 
  7  6  1  0  0  0  0 
  8 10  2  0  0  0  0 
 11  1  1  0  0  0  0 
 14  2  1  0  0  0  0 
 17  3  1  0  0  0  0 
 18  4  1  0  0  0  0 
 21  5  1  0  0  0  0 
M  END 
>  <HBA> 
2 
 
>  <HBD> 
0 
 
>  <TPSA> 
34.14 
 
>  <cid> 
13400 
 
>  <dipole> 
3.82 
 
>  <excitation_energy_1> 
4.198 
 
>  <excitation_energy_2> 
4.356 
 
>  <excitation_energy_3> 
5.025 
 
>  <excitation_energy_4> 
5.436 
 
>  <homo_energy> 
-6.577 
 
>  <homo_lumo_gap> 
5.821 
 
>  <logP> 
1.335 
 
>  <lumo_energy> 
-0.756 
 
>  <melting_point> 
37.47 
 
>  <molecular_refractivity> 
38.86 
 
>  <oscillator_strength_1> 
0.0002 
 
>  <oscillator_strength_2> 
0.0001 
 
>  <oscillator_strength_3> 
0.0019 
 
>  <oscillator_strength_4> 
0.0176 
 
>  <open_babel_can_smiles> 
O=C1CCCC[C@@H]1C(=O)C 
 
>  <mulliken_charges> 
22 
1   -0.540304 
2   -0.271882 
3   -0.269668 
4   -0.260883 
5   -0.340515 
6   0.477272 
7   -0.278633 
8   0.453382 
9   -0.435902 
10   -0.442928 
11   0.155912 
12   0.176343 
13   0.204043 
14   0.13099 
15   0.145985 
16   0.15046 
17   0.146131 
18   0.153644 
19   0.165659 
20   0.168897 
21   0.156125 
22   0.155873 
 
>  <lowdin_charges> 
22 
1   -0.479248 
2   -0.276506 
3   -0.27434 
4   -0.269072 
5   -0.303519 
6   0.178444 
7   -0.197103 
8   0.164774 
9   -0.228344 
10   -0.230235 
11   0.161918 
12   0.1727 
13   0.188135 
14   0.137506 
15   0.150516 
16   0.147619 
17   0.152606 
18   0.156901 
19   0.157346 
20   0.166784 
21   0.159781 
22   0.163336 
 
$$$$ 
 
