PCCDB-ID:  9432 
public computational chemistry database (PCCDB) project, http://pccdb.org 
 
 32 34  0  0  0  0  0  0  0  0999 V2000 
    1.2994   -0.3359    0.2943 C   0  0  0  0  0  0  0  0  0  0  0  0 
    1.1600    6.3972    1.6614 C   0  0  0  0  0  0  0  0  0  0  0  0 
    0.9315    6.9867    0.2652 C   0  0  0  0  0  0  0  0  0  0  0  0 
    4.4658    1.3454   -2.6824 C   0  0  0  0  0  0  0  0  0  0  0  0 
    1.0497    4.8672    1.6153 C   0  0  0  0  0  0  0  0  0  0  0  0 
    2.0257    6.5117   -0.6987 C   0  0  0  0  0  0  0  0  0  0  0  0 
    3.9944    0.4638   -1.6802 C   0  0  0  0  0  0  0  0  0  0  0  0 
    4.1096    2.6735   -2.6760 C   0  0  0  0  0  0  0  0  0  0  0  0 
    2.1433    2.8944    0.4835 C   0  0  0  0  0  0  0  0  0  0  0  0 
    1.8437    4.2410    0.4815 C   0  0  0  0  0  0  0  0  0  0  0  0 
    2.8569    2.3064   -0.5860 C   0  0  0  0  0  0  0  0  0  0  0  0 
    2.2920    5.0179   -0.6322 C   0  0  0  0  0  0  0  0  0  0  0  0 
    3.1895    0.9132   -0.6488 C   0  0  0  0  0  0  0  0  0  0  0  0 
    3.2989    3.1829   -1.6263 C   0  0  0  0  0  0  0  0  0  0  0  0 
    2.7200    0.0379    0.3678 N   0  0  0  0  0  0  0  0  0  0  0  0 
    2.9956    4.5103   -1.6299 N   0  0  0  0  0  0  0  0  0  0  0  0 
    1.0608   -0.9854    1.1426 H   0  0  0  0  0  0  0  0  0  0  0  0 
    1.0323   -0.8587   -0.6385 H   0  0  0  0  0  0  0  0  0  0  0  0 
    0.6746    0.5573    0.3669 H   0  0  0  0  0  0  0  0  0  0  0  0 
    0.4364    6.7980    2.3813 H   0  0  0  0  0  0  0  0  0  0  0  0 
    2.1579    6.6879    2.0194 H   0  0  0  0  0  0  0  0  0  0  0  0 
    0.9183    8.0826    0.3008 H   0  0  0  0  0  0  0  0  0  0  0  0 
   -0.0554    6.6723   -0.1039 H   0  0  0  0  0  0  0  0  0  0  0  0 
    5.0950    0.9523   -3.4767 H   0  0  0  0  0  0  0  0  0  0  0  0 
   -0.0105    4.5964    1.4945 H   0  0  0  0  0  0  0  0  0  0  0  0 
    1.3644    4.4281    2.5708 H   0  0  0  0  0  0  0  0  0  0  0  0 
    2.9671    7.0297   -0.4616 H   0  0  0  0  0  0  0  0  0  0  0  0 
    1.7941    6.7752   -1.7365 H   0  0  0  0  0  0  0  0  0  0  0  0 
    4.2551   -0.5915   -1.7310 H   0  0  0  0  0  0  0  0  0  0  0  0 
    4.4388    3.3646   -3.4449 H   0  0  0  0  0  0  0  0  0  0  0  0 
    1.8566    2.2738    1.3283 H   0  0  0  0  0  0  0  0  0  0  0  0 
    3.2841   -0.8080    0.3683 H   0  0  0  0  0  0  0  0  0  0  0  0 
  1 19  1  0  0  0  0 
  1 15  1  0  0  0  0 
  1 17  1  0  0  0  0 
  2 21  1  0  0  0  0 
  2 20  1  0  0  0  0 
  3 22  1  0  0  0  0 
  3  2  1  0  0  0  0 
  4  8  2  0  0  0  0 
  4  7  1  0  0  0  0 
  5  2  1  0  0  0  0 
  5 26  1  0  0  0  0 
  6 12  1  0  0  0  0 
  6 27  1  0  0  0  0 
  6  3  1  0  0  0  0 
  7 13  2  0  0  0  0 
  8 14  1  0  0  0  0 
  9 31  1  0  0  0  0 
 10  9  1  0  0  0  0 
 10  5  1  0  0  0  0 
 11  9  2  0  0  0  0 
 12 10  2  0  0  0  0 
 13 11  1  0  0  0  0 
 13 15  1  0  0  0  0 
 14 11  1  0  0  0  0 
 15 32  1  0  0  0  0 
 16 14  2  0  0  0  0 
 16 12  1  0  0  0  0 
 18  1  1  0  0  0  0 
 23  3  1  0  0  0  0 
 24  4  1  0  0  0  0 
 25  5  1  0  0  0  0 
 28  6  1  0  0  0  0 
 29  7  1  0  0  0  0 
 30  8  1  0  0  0  0 
M  END 
>  <HBA> 
2 
 
>  <HBD> 
1 
 
>  <TPSA> 
24.92 
 
>  <cid> 
9432 
 
>  <dipole> 
2.46 
 
>  <excitation_energy_1> 
3.725 
 
>  <excitation_energy_2> 
4.223 
 
>  <excitation_energy_3> 
4.255 
 
>  <excitation_energy_4> 
4.898 
 
>  <homo_energy> 
-5.459 
 
>  <homo_lumo_gap> 
4.34 
 
>  <logP> 
3.228 
 
>  <lumo_energy> 
-1.118 
 
>  <melting_point> 
129.64 
 
>  <molecular_refractivity> 
68.48 
 
>  <oscillator_strength_1> 
0.0627 
 
>  <oscillator_strength_2> 
0.005 
 
>  <oscillator_strength_3> 
0.0065 
 
>  <oscillator_strength_4> 
0.0322 
 
>  <open_babel_can_smiles> 
CNc1cccc2c1cc1CCCCc1n2 
 
>  <mulliken_charges> 
32 
1   -0.313312 
2   -0.267537 
3   -0.269505 
4   -0.143305 
5   -0.343794 
6   -0.321144 
7   -0.193507 
8   -0.143809 
9   -0.226473 
10   0.131122 
11   0.137771 
12   0.255525 
13   0.213946 
14   0.223033 
15   -0.618268 
16   -0.574278 
17   0.15332 
18   0.140099 
19   0.164394 
20   0.134289 
21   0.138807 
22   0.135769 
23   0.136026 
24   0.128916 
25   0.150972 
26   0.148405 
27   0.157138 
28   0.160195 
29   0.115101 
30   0.134458 
31   0.147438 
32   0.308207 
 
>  <lowdin_charges> 
32 
1   -0.356937 
2   -0.277398 
3   -0.275793 
4   -0.152096 
5   -0.275107 
6   -0.28052 
7   -0.198833 
8   -0.169587 
9   -0.140149 
10   -0.035263 
11   -0.031916 
12   0.04414 
13   0.042522 
14   0.044065 
15   -0.325937 
16   -0.161406 
17   0.153266 
18   0.13342 
19   0.156877 
20   0.147363 
21   0.141778 
22   0.144904 
23   0.140296 
24   0.159415 
25   0.150005 
26   0.153374 
27   0.157834 
28   0.162054 
29   0.150389 
30   0.167459 
31   0.1674 
32   0.264382 
 
$$$$ 
 
