PCCDB-ID:  60042 
public computational chemistry database (PCCDB) project, http://pccdb.org 
 
 25 24  0  0  0  0  0  0  0  0999 V2000 
    0.8934    0.1630   -0.5009 C   0  0  0  0  0  0  0  0  0  0  0  0 
    3.0562    1.1819   -0.4217 C   0  0  0  0  0  0  0  0  0  0  0  0 
    2.1014   -1.3149    1.6900 C   0  0  0  0  0  0  0  0  0  0  0  0 
    2.4460   -2.5095   -0.5168 C   0  0  0  0  0  0  0  0  0  0  0  0 
    4.3241   -1.2439    0.4972 C   0  0  0  0  0  0  0  0  0  0  0  0 
    2.7877   -1.2345    0.3061 C   0  0  0  0  0  0  0  0  0  0  0  0 
    2.3385   -0.0865   -0.5391 N   0  0  0  0  0  0  0  0  0  0  0  0 
    2.2547   -0.1417    2.4709 O   0  0  0  0  0  0  0  0  0  0  0  0 
    2.9719   -2.4149   -1.8246 O   0  0  0  0  0  0  0  0  0  0  0  0 
    4.8294   -0.3393    1.4932 O   0  0  0  0  0  0  0  0  0  0  0  0 
    0.6331    0.8423   -1.3201 H   0  0  0  0  0  0  0  0  0  0  0  0 
    0.5601    0.6175    0.4448 H   0  0  0  0  0  0  0  0  0  0  0  0 
    0.3374   -0.7650   -0.6571 H   0  0  0  0  0  0  0  0  0  0  0  0 
    2.6461    1.8778   -1.1619 H   0  0  0  0  0  0  0  0  0  0  0  0 
    4.1140    1.0591   -0.6781 H   0  0  0  0  0  0  0  0  0  0  0  0 
    2.9610    1.6539    0.5693 H   0  0  0  0  0  0  0  0  0  0  0  0 
    2.4888   -2.2041    2.2171 H   0  0  0  0  0  0  0  0  0  0  0  0 
    1.0241   -1.4659    1.5701 H   0  0  0  0  0  0  0  0  0  0  0  0 
    1.3535   -2.6601   -0.5340 H   0  0  0  0  0  0  0  0  0  0  0  0 
    2.8821   -3.3973   -0.0457 H   0  0  0  0  0  0  0  0  0  0  0  0 
    4.8307   -1.1004   -0.4634 H   0  0  0  0  0  0  0  0  0  0  0  0 
    4.6026   -2.2359    0.8634 H   0  0  0  0  0  0  0  0  0  0  0  0 
    3.2192   -0.0304    2.5639 H   0  0  0  0  0  0  0  0  0  0  0  0 
    2.7994   -1.4803   -2.0623 H   0  0  0  0  0  0  0  0  0  0  0  0 
    4.9239    0.5361    1.0906 H   0  0  0  0  0  0  0  0  0  0  0  0 
  1 12  1  0  0  0  0 
  2 16  1  0  0  0  0 
  3 17  1  0  0  0  0 
  3  8  1  0  0  0  0 
  4 20  1  0  0  0  0 
  4  6  1  0  0  0  0 
  5 22  1  0  0  0  0 
  5 10  1  0  0  0  0 
  6  5  1  0  0  0  0 
  6  3  1  0  0  0  0 
  7  1  1  0  0  0  0 
  7  2  1  0  0  0  0 
  7  6  1  0  0  0  0 
  8 23  1  0  0  0  0 
  9  4  1  0  0  0  0 
 11  1  1  0  0  0  0 
 13  1  1  0  0  0  0 
 14  2  1  0  0  0  0 
 15  2  1  0  0  0  0 
 18  3  1  0  0  0  0 
 19  4  1  0  0  0  0 
 21  5  1  0  0  0  0 
 24  9  1  0  0  0  0 
 25 10  1  0  0  0  0 
M  END 
>  <HBA> 
4 
 
>  <HBD> 
3 
 
>  <TPSA> 
63.93 
 
>  <cid> 
60042 
 
>  <dipole> 
1.77 
 
>  <excitation_energy_1> 
5.212 
 
>  <excitation_energy_2> 
5.691 
 
>  <excitation_energy_3> 
5.87 
 
>  <excitation_energy_4> 
6.02 
 
>  <homo_energy> 
-6.003 
 
>  <homo_lumo_gap> 
7.353 
 
>  <logP> 
-1.736 
 
>  <lumo_energy> 
1.35 
 
>  <melting_point> 
42.95 
 
>  <molecular_refractivity> 
37.38 
 
>  <oscillator_strength_1> 
0.0058 
 
>  <oscillator_strength_2> 
0.0031 
 
>  <oscillator_strength_3> 
0.0107 
 
>  <oscillator_strength_4> 
0.035 
 
>  <open_babel_can_smiles> 
OCC(N(C)C)(CO)CO 
 
>  <mulliken_charges> 
25 
1   -0.320581 
2   -0.317576 
3   -0.026757 
4   -0.019576 
5   -0.068307 
6   0.120858 
7   -0.421759 
8   -0.640134 
9   -0.631936 
10   -0.634597 
11   0.149918 
12   0.163334 
13   0.156768 
14   0.155881 
15   0.137384 
16   0.15082 
17   0.119 
18   0.140191 
19   0.119448 
20   0.13937 
21   0.159098 
22   0.158751 
23   0.410142 
24   0.395282 
25   0.404978 
 
>  <lowdin_charges> 
25 
1   -0.363777 
2   -0.363467 
3   -0.144808 
4   -0.140198 
5   -0.14581 
6   0.008179 
7   -0.18993 
8   -0.477905 
9   -0.472639 
10   -0.461559 
11   0.151681 
12   0.145794 
13   0.152666 
14   0.156314 
15   0.140329 
16   0.137458 
17   0.130797 
18   0.144269 
19   0.123213 
20   0.145688 
21   0.149361 
22   0.158109 
23   0.33822 
24   0.332454 
25   0.345562 
 
$$$$ 
 
