PCCDB-ID:  28431 
public computational chemistry database (PCCDB) project, http://pccdb.org 
 
 18 18  0  0  1  0  0  0  0  0999 V2000 
    0.5904   -0.3127    1.2575 C   0  0  0  0  0  0  0  0  0  0  0  0 
    5.2675    0.4736    1.8490 C   0  0  0  0  0  0  0  0  0  0  0  0 
    1.6899    0.0702    0.2569 C   0  0  0  0  0  0  0  0  0  0  0  0 
    2.7441    2.2220    1.2446 C   0  0  0  0  0  0  0  0  0  0  0  0 
    3.8604   -0.0620    1.6702 C   0  0  0  0  0  0  0  0  0  0  0  0 
    2.8709    0.7858    0.8922 C   0  0  1  0  0  0  0  0  0  0  0  0 
    3.5238   -1.1515    2.0991 O   0  0  0  0  0  0  0  0  0  0  0  0 
    3.4918    1.8280    0.1016 O   0  0  0  0  0  0  0  0  0  0  0  0 
   -0.2417   -0.8033    0.7406 H   0  0  0  0  0  0  0  0  0  0  0  0 
    0.1909    0.5726    1.7668 H   0  0  0  0  0  0  0  0  0  0  0  0 
    0.9798   -0.9998    2.0121 H   0  0  0  0  0  0  0  0  0  0  0  0 
    5.2708    1.4668    2.3118 H   0  0  0  0  0  0  0  0  0  0  0  0 
    5.7527    0.5836    0.8728 H   0  0  0  0  0  0  0  0  0  0  0  0 
    5.8340   -0.2223    2.4705 H   0  0  0  0  0  0  0  0  0  0  0  0 
    1.2892    0.7386   -0.5143 H   0  0  0  0  0  0  0  0  0  0  0  0 
    2.0527   -0.8297   -0.2534 H   0  0  0  0  0  0  0  0  0  0  0  0 
    3.3198    2.6487    2.0660 H   0  0  0  0  0  0  0  0  0  0  0  0 
    1.7937    2.7171    1.0414 H   0  0  0  0  0  0  0  0  0  0  0  0 
  1 10  1  0  0  0  0 
  1 11  1  0  0  0  0 
  2 12  1  0  0  0  0 
  2 14  1  0  0  0  0 
  3  6  1  0  0  0  0 
  3  1  1  0  0  0  0 
  4 17  1  0  0  0  0 
  5  2  1  0  0  0  0 
  5  7  2  0  0  0  0 
  6  4  1  0  0  0  0 
  6  5  1  1  0  0  0 
  8  6  1  0  0  0  0 
  8  4  1  0  0  0  0 
  9  1  1  0  0  0  0 
 13  2  1  0  0  0  0 
 15  3  1  0  0  0  0 
 16  3  1  0  0  0  0 
 18  4  1  0  0  0  0 
M  END 
>  <HBA> 
2 
 
>  <HBD> 
0 
 
>  <TPSA> 
29.6 
 
>  <cid> 
28431 
 
>  <dipole> 
1.89 
 
>  <excitation_energy_1> 
4.195 
 
>  <excitation_energy_2> 
5.897 
 
>  <excitation_energy_3> 
6.363 
 
>  <excitation_energy_4> 
6.66 
 
>  <homo_energy> 
-6.759 
 
>  <homo_lumo_gap> 
5.992 
 
>  <logP> 
0.754 
 
>  <lumo_energy> 
-0.767 
 
>  <melting_point> 
19.48 
 
>  <molecular_refractivity> 
30.16 
 
>  <oscillator_strength_1> 
0.0003 
 
>  <oscillator_strength_2> 
0.0089 
 
>  <oscillator_strength_3> 
0.0224 
 
>  <oscillator_strength_4> 
0.0311 
 
>  <open_babel_can_smiles> 
CC[C@@]1(CO1)C(=O)C 
 
>  <mulliken_charges> 
18 
1   -0.454601 
2   -0.528726 
3   -0.290885 
4   -0.122314 
5   0.427517 
6   0.245485 
7   -0.439024 
8   -0.463488 
9   0.147018 
10   0.135913 
11   0.182469 
12   0.167736 
13   0.192343 
14   0.177258 
15   0.148912 
16   0.156456 
17   0.155353 
18   0.162577 
 
>  <lowdin_charges> 
18 
1   -0.449963 
2   -0.471362 
3   -0.27201 
4   -0.157148 
5   0.157563 
6   0.072772 
7   -0.230487 
8   -0.271426 
9   0.153842 
10   0.14437 
11   0.167402 
12   0.169443 
13   0.183101 
14   0.173676 
15   0.156682 
16   0.158612 
17   0.155119 
18   0.159815 
 
$$$$ 
 
