PCCDB-ID:  6448 
public computational chemistry database (PCCDB) project, http://pccdb.org 
 
 34 35  0  0  1  0  0  0  0  0999 V2000 
    1.5235   -0.2294   -0.5517 C   0  0  0  0  0  0  0  0  0  0  0  0 
    4.1650   -4.2654   -0.0588 C   0  0  0  0  0  0  0  0  0  0  0  0 
    6.4732   -4.8971   -0.6587 C   0  0  0  0  0  0  0  0  0  0  0  0 
    5.4247   -2.3547   -2.4007 C   0  0  0  0  0  0  0  0  0  0  0  0 
    7.5246   -2.5740    0.8161 C   0  0  0  0  0  0  0  0  0  0  0  0 
    7.2905   -2.0596   -0.6381 C   0  0  0  0  0  0  0  0  0  0  0  0 
    5.2100   -1.8938    1.4039 C   0  0  0  0  0  0  0  0  0  0  0  0 
    2.9550   -0.1696   -0.0683 C   0  0  0  0  0  0  0  0  0  0  0  0 
    6.1314   -3.1203    1.2075 C   0  0  1  0  0  0  0  0  0  0  0  0 
    5.0275   -1.3560   -0.0426 C   0  0  1  0  0  0  0  0  0  0  0  0 
    5.6098   -3.7355   -0.1293 C   0  0  0  0  0  0  0  0  0  0  0  0 
    5.7915   -2.3829   -0.9225 C   0  0  1  0  0  0  0  0  0  0  0  0 
    3.4421    0.7416    0.5647 O   0  0  0  0  0  0  0  0  0  0  0  0 
    3.6302   -1.2855   -0.4333 O   0  0  0  0  0  0  0  0  0  0  0  0 
    1.4908   -0.4313   -1.6268 H   0  0  0  0  0  0  0  0  0  0  0  0 
    1.0261    0.7157   -0.3311 H   0  0  0  0  0  0  0  0  0  0  0  0 
    0.9949   -1.0473   -0.0497 H   0  0  0  0  0  0  0  0  0  0  0  0 
    4.1155   -5.1258    0.6208 H   0  0  0  0  0  0  0  0  0  0  0  0 
    3.8387   -4.6140   -1.0459 H   0  0  0  0  0  0  0  0  0  0  0  0 
    3.4385   -3.5257    0.2770 H   0  0  0  0  0  0  0  0  0  0  0  0 
    6.4073   -5.7538    0.0233 H   0  0  0  0  0  0  0  0  0  0  0  0 
    7.5314   -4.6519   -0.7734 H   0  0  0  0  0  0  0  0  0  0  0  0 
    6.1068   -5.2349   -1.6355 H   0  0  0  0  0  0  0  0  0  0  0  0 
    5.6362   -1.3700   -2.8364 H   0  0  0  0  0  0  0  0  0  0  0  0 
    4.3624   -2.5636   -2.5590 H   0  0  0  0  0  0  0  0  0  0  0  0 
    6.0082   -3.0935   -2.9622 H   0  0  0  0  0  0  0  0  0  0  0  0 
    7.8504   -1.7790    1.4955 H   0  0  0  0  0  0  0  0  0  0  0  0 
    8.2912   -3.3544    0.8495 H   0  0  0  0  0  0  0  0  0  0  0  0 
    7.9342   -2.5746   -1.3585 H   0  0  0  0  0  0  0  0  0  0  0  0 
    7.4947   -0.9885   -0.7468 H   0  0  0  0  0  0  0  0  0  0  0  0 
    5.6464   -1.1420    2.0687 H   0  0  0  0  0  0  0  0  0  0  0  0 
    4.2397   -2.1727    1.8242 H   0  0  0  0  0  0  0  0  0  0  0  0 
    6.1428   -3.8013    2.0651 H   0  0  0  0  0  0  0  0  0  0  0  0 
    5.4320   -0.3489   -0.1623 H   0  0  0  0  0  0  0  0  0  0  0  0 
  1 16  1  0  0  0  0 
  1  8  1  0  0  0  0 
  1 17  1  0  0  0  0 
  2 20  1  0  0  0  0 
  2 18  1  0  0  0  0 
  3 11  1  0  0  0  0 
  3 21  1  0  0  0  0 
  5 28  1  0  0  0  0 
  5  9  1  0  0  0  0 
  5 27  1  0  0  0  0 
  6  5  1  0  0  0  0 
  7 32  1  0  0  0  0 
  7 31  1  0  0  0  0 
  8 13  2  0  0  0  0 
  9  7  1  0  0  0  0 
  9 33  1  1  0  0  0 
 10 34  1  6  0  0  0 
 10  7  1  0  0  0  0 
 11  2  1  0  0  0  0 
 11  9  1  0  0  0  0 
 12  4  1  6  0  0  0 
 12  6  1  0  0  0  0 
 12 11  1  0  0  0  0 
 12 10  1  0  0  0  0 
 14  8  1  0  0  0  0 
 14 10  1  0  0  0  0 
 15  1  1  0  0  0  0 
 19  2  1  0  0  0  0 
 22  3  1  0  0  0  0 
 23  3  1  0  0  0  0 
 24  4  1  0  0  0  0 
 25  4  1  0  0  0  0 
 26  4  1  0  0  0  0 
 29  6  1  0  0  0  0 
 30  6  1  0  0  0  0 
M  END 
>  <HBA> 
2 
 
>  <HBD> 
0 
 
>  <TPSA> 
26.3 
 
>  <cid> 
6448 
 
>  <dipole> 
1.93 
 
>  <excitation_energy_1> 
5.777 
 
>  <excitation_energy_2> 
6.854 
 
>  <excitation_energy_3> 
7.095 
 
>  <excitation_energy_4> 
7.146 
 
>  <homo_energy> 
-7.219 
 
>  <homo_lumo_gap> 
7.657 
 
>  <logP> 
2.764 
 
>  <lumo_energy> 
0.438 
 
>  <melting_point> 
64.42 
 
>  <molecular_refractivity> 
56.34 
 
>  <oscillator_strength_1> 
0.001 
 
>  <oscillator_strength_2> 
0.0269 
 
>  <oscillator_strength_3> 
0.0052 
 
>  <oscillator_strength_4> 
0.0097 
 
>  <open_babel_can_smiles> 
CC(=O)O[C@H]1C[C@H]2C([C@]1(C)CC2)(C)C 
 
>  <mulliken_charges> 
34 
1   -0.526654 
2   -0.467754 
3   -0.467242 
4   -0.478191 
5   -0.279858 
6   -0.295827 
7   -0.299103 
8   0.604806 
9   -0.105243 
10   0.136222 
11   0.095901 
12   0.066636 
13   -0.469732 
14   -0.479245 
15   0.179347 
16   0.181769 
17   0.180389 
18   0.135111 
19   0.139999 
20   0.158805 
21   0.141709 
22   0.144637 
23   0.142984 
24   0.141667 
25   0.157389 
26   0.14178 
27   0.1354 
28   0.139196 
29   0.141384 
30   0.136531 
31   0.150216 
32   0.148785 
33   0.112765 
34   0.155422 
 
>  <lowdin_charges> 
34 
1   -0.465421 
2   -0.452609 
3   -0.445093 
4   -0.444831 
5   -0.28881 
6   -0.285764 
7   -0.292153 
8   0.199956 
9   -0.135239 
10   0.000744 
11   0.003443 
12   -0.00491 
13   -0.266214 
14   -0.196457 
15   0.174225 
16   0.175252 
17   0.177964 
18   0.146835 
19   0.148509 
20   0.156998 
21   0.150687 
22   0.149206 
23   0.149191 
24   0.151091 
25   0.154881 
26   0.151314 
27   0.145934 
28   0.145929 
29   0.148371 
30   0.143393 
31   0.155238 
32   0.154487 
33   0.14046 
34   0.153393 
 
$$$$ 
 
