PCCDB-ID:  56186 
public computational chemistry database (PCCDB) project, http://pccdb.org 
 
 26 27  0  0  0  0  0  0  0  0999 V2000 
    3.1765    0.1436    1.3464 C   0  0  0  0  0  0  0  0  0  0  0  0 
    2.5441    0.0813   -0.0571 C   0  0  0  0  0  0  0  0  0  0  0  0 
    4.2999   -4.8739   -3.0703 C   0  0  0  0  0  0  0  0  0  0  0  0 
    3.5315   -5.4483   -2.0415 C   0  0  0  0  0  0  0  0  0  0  0  0 
    4.4665   -3.4941   -3.1662 C   0  0  0  0  0  0  0  0  0  0  0  0 
    2.9080   -4.6543   -1.0784 C   0  0  0  0  0  0  0  0  0  0  0  0 
    4.4244   -0.1719   -2.7848 C   0  0  0  0  0  0  0  0  0  0  0  0 
    3.8464   -2.6748   -2.2104 C   0  0  0  0  0  0  0  0  0  0  0  0 
    3.7670   -1.2492   -1.9630 C   0  0  0  0  0  0  0  0  0  0  0  0 
    2.9901   -1.1022   -0.8485 C   0  0  0  0  0  0  0  0  0  0  0  0 
    3.0877   -3.2821   -1.1941 C   0  0  0  0  0  0  0  0  0  0  0  0 
    3.5032    0.9411   -3.0681 N   0  0  0  0  0  0  0  0  0  0  0  0 
    2.5643   -2.3280   -0.3665 O   0  0  0  0  0  0  0  0  0  0  0  0 
    2.8017    1.0143    1.8957 H   0  0  0  0  0  0  0  0  0  0  0  0 
    4.2673    0.2253    1.2832 H   0  0  0  0  0  0  0  0  0  0  0  0 
    2.9384   -0.7540    1.9262 H   0  0  0  0  0  0  0  0  0  0  0  0 
    2.7858    0.9759   -0.6371 H   0  0  0  0  0  0  0  0  0  0  0  0 
    1.4504    0.0465    0.0444 H   0  0  0  0  0  0  0  0  0  0  0  0 
    4.7745   -5.5216   -3.8025 H   0  0  0  0  0  0  0  0  0  0  0  0 
    3.4228   -6.5281   -1.9938 H   0  0  0  0  0  0  0  0  0  0  0  0 
    5.0664   -3.0663   -3.9652 H   0  0  0  0  0  0  0  0  0  0  0  0 
    2.3116   -5.0788   -0.2773 H   0  0  0  0  0  0  0  0  0  0  0  0 
    4.8412   -0.6409   -3.6930 H   0  0  0  0  0  0  0  0  0  0  0  0 
    5.2824    0.2501   -2.2436 H   0  0  0  0  0  0  0  0  0  0  0  0 
    2.7176    0.5943   -3.6171 H   0  0  0  0  0  0  0  0  0  0  0  0 
    3.9766    1.6360   -3.6444 H   0  0  0  0  0  0  0  0  0  0  0  0 
  1 14  1  0  0  0  0 
  1 16  1  0  0  0  0 
  2 18  1  0  0  0  0 
  2  1  1  0  0  0  0 
  3  4  1  0  0  0  0 
  4 20  1  0  0  0  0 
  4  6  2  0  0  0  0 
  5  3  2  0  0  0  0 
  5  8  1  0  0  0  0 
  6 22  1  0  0  0  0 
  7 24  1  0  0  0  0 
  7  9  1  0  0  0  0 
  8  9  1  0  0  0  0 
  8 11  2  0  0  0  0 
  9 10  2  0  0  0  0 
 10 13  1  0  0  0  0 
 10  2  1  0  0  0  0 
 11  6  1  0  0  0  0 
 11 13  1  0  0  0  0 
 12  7  1  0  0  0  0 
 15  1  1  0  0  0  0 
 17  2  1  0  0  0  0 
 19  3  1  0  0  0  0 
 21  5  1  0  0  0  0 
 23  7  1  0  0  0  0 
 25 12  1  0  0  0  0 
 26 12  1  0  0  0  0 
M  END 
>  <HBA> 
2 
 
>  <HBD> 
1 
 
>  <TPSA> 
39.16 
 
>  <cid> 
56186 
 
>  <dipole> 
1.82 
 
>  <excitation_energy_1> 
4.759 
 
>  <excitation_energy_2> 
4.919 
 
>  <excitation_energy_3> 
5.043 
 
>  <excitation_energy_4> 
5.429 
 
>  <homo_energy> 
-5.573 
 
>  <homo_lumo_gap> 
5.279 
 
>  <logP> 
3.154 
 
>  <lumo_energy> 
-0.294 
 
>  <melting_point> 
110.14 
 
>  <molecular_refractivity> 
53.66 
 
>  <oscillator_strength_1> 
0.1817 
 
>  <oscillator_strength_2> 
0.0469 
 
>  <oscillator_strength_3> 
0.0169 
 
>  <oscillator_strength_4> 
0.0055 
 
>  <open_babel_can_smiles> 
CCc1oc2c(c1CN)cccc2 
 
>  <mulliken_charges> 
26 
1   -0.444425 
2   -0.350866 
3   -0.138695 
4   -0.146629 
5   -0.212729 
6   -0.189605 
7   -0.214155 
8   0.085718 
9   0.033239 
10   0.300541 
11   0.315266 
12   -0.711889 
13   -0.521913 
14   0.145376 
15   0.148046 
16   0.159388 
17   0.191674 
18   0.152079 
19   0.123554 
20   0.127048 
21   0.1255 
22   0.139564 
23   0.128403 
24   0.156638 
25   0.300451 
26   0.298422 
 
>  <lowdin_charges> 
26 
1   -0.440258 
2   -0.281552 
3   -0.170512 
4   -0.161342 
5   -0.170305 
6   -0.177743 
7   -0.197029 
8   -0.035796 
9   -0.08481 
10   0.094234 
11   0.081989 
12   -0.555262 
13   -0.123518 
14   0.151825 
15   0.148248 
16   0.15524 
17   0.177417 
18   0.155299 
19   0.157218 
20   0.155833 
21   0.155892 
22   0.167946 
23   0.129787 
24   0.152733 
25   0.257629 
26   0.256838 
 
$$$$ 
 
