PCCDB-ID:  70336 
public computational chemistry database (PCCDB) project, http://pccdb.org 
 
 21 21  0  0  0  0  0  0  0  0999 V2000 
   -1.2574   -0.4711   -0.4525 C   0  0  0  0  0  0  0  0  0  0  0  0 
   -0.6678    0.6511   -1.0394 C   0  0  0  0  0  0  0  0  0  0  0  0 
   -0.4817   -1.3451    0.3128 C   0  0  0  0  0  0  0  0  0  0  0  0 
    0.6952    0.8883   -0.8811 C   0  0  0  0  0  0  0  0  0  0  0  0 
    0.8756   -1.0984    0.4977 C   0  0  0  0  0  0  0  0  0  0  0  0 
    3.2396    0.0422   -2.7531 C   0  0  0  0  0  0  0  0  0  0  0  0 
    1.4836    0.0170   -0.1055 C   0  0  0  0  0  0  0  0  0  0  0  0 
    3.4605   -1.4711   -2.9065 C   0  0  0  0  0  0  0  0  0  0  0  0 
    2.9179    0.2849    0.1301 C   0  0  0  0  0  0  0  0  0  0  0  0 
    2.7866   -2.1133   -3.6711 O   0  0  0  0  0  0  0  0  0  0  0  0 
    4.4556   -2.0312   -2.1941 O   0  0  0  0  0  0  0  0  0  0  0  0 
    3.6329    0.1978    1.6085 S   0  0  0  0  0  0  0  0  0  0  0  0 
    3.9396    0.8249   -1.2396 S   0  0  0  0  0  0  0  0  0  0  0  0 
   -2.3180   -0.6622   -0.5895 H   0  0  0  0  0  0  0  0  0  0  0  0 
   -1.2702    1.3437   -1.6203 H   0  0  0  0  0  0  0  0  0  0  0  0 
   -0.9353   -2.2202    0.7688 H   0  0  0  0  0  0  0  0  0  0  0  0 
    1.1463    1.7740   -1.3193 H   0  0  0  0  0  0  0  0  0  0  0  0 
    1.4813   -1.7684    1.0988 H   0  0  0  0  0  0  0  0  0  0  0  0 
    2.1739    0.2384   -2.8629 H   0  0  0  0  0  0  0  0  0  0  0  0 
    3.7577    0.5439   -3.5791 H   0  0  0  0  0  0  0  0  0  0  0  0 
    4.8708   -1.3594   -1.6178 H   0  0  0  0  0  0  0  0  0  0  0  0 
  1  3  2  0  0  0  0 
  2  4  2  0  0  0  0 
  2  1  1  0  0  0  0 
  3  5  1  0  0  0  0 
  3 16  1  0  0  0  0 
  4  7  1  0  0  0  0 
  5 18  1  0  0  0  0 
  6 13  1  0  0  0  0 
  7  9  1  0  0  0  0 
  7  5  2  0  0  0  0 
  8  6  1  0  0  0  0 
  8 11  1  0  0  0  0 
  9 12  2  0  0  0  0 
 10  8  2  0  0  0  0 
 11 21  1  0  0  0  0 
 13  9  1  0  0  0  0 
 14  1  1  0  0  0  0 
 15  2  1  0  0  0  0 
 17  4  1  0  0  0  0 
 19  6  1  0  0  0  0 
 20  6  1  0  0  0  0 
M  END 
>  <HBA> 
4 
 
>  <HBD> 
1 
 
>  <TPSA> 
94.69 
 
>  <cid> 
70336 
 
>  <dipole> 
3.23 
 
>  <excitation_energy_1> 
2.318 
 
>  <excitation_energy_2> 
3.821 
 
>  <excitation_energy_3> 
3.918 
 
>  <excitation_energy_4> 
3.961 
 
>  <homo_energy> 
-6.381 
 
>  <homo_lumo_gap> 
3.554 
 
>  <logP> 
2.18 
 
>  <lumo_energy> 
-2.827 
 
>  <melting_point> 
122.31 
 
>  <molecular_refractivity> 
58.18 
 
>  <oscillator_strength_1> 
0.0028 
 
>  <oscillator_strength_2> 
0.0777 
 
>  <oscillator_strength_3> 
0.015 
 
>  <oscillator_strength_4> 
0.1876 
 
>  <open_babel_can_smiles> 
S=C(c1ccccc1)SCC(=O)O 
 
>  <mulliken_charges> 
21 
1   -0.115293 
2   -0.127551 
3   -0.128842 
4   -0.182317 
5   -0.143838 
6   -0.557367 
7   0.157816 
8   0.5991 
9   -0.277767 
10   -0.427224 
11   -0.553659 
12   -0.070088 
13   0.172064 
14   0.147496 
15   0.146585 
16   0.149412 
17   0.158845 
18   0.165617 
19   0.230746 
20   0.223919 
21   0.432347 
 
>  <lowdin_charges> 
21 
1   -0.131754 
2   -0.152151 
3   -0.147209 
4   -0.153168 
5   -0.128714 
6   -0.434797 
7   -0.026814 
8   0.188238 
9   -0.20673 
10   -0.233202 
11   -0.344495 
12   -0.035184 
13   0.193783 
14   0.165006 
15   0.167746 
16   0.168508 
17   0.170456 
18   0.179212 
19   0.196111 
20   0.202535 
21   0.362621 
 
$$$$ 
 
