PCCDB-ID:  61098 
public computational chemistry database (PCCDB) project, http://pccdb.org 
 
 37 36  0  0  1  0  0  0  0  0999 V2000 
    3.2518   -1.9611    0.4999 C   0  0  0  0  0  0  0  0  0  0  0  0 
    1.8376   -0.0300    5.6804 C   0  0  0  0  0  0  0  0  0  0  0  0 
    6.3696    0.6886    8.8385 C   0  0  0  0  0  0  0  0  0  0  0  0 
    8.6052    1.6070    8.0666 C   0  0  0  0  0  0  0  0  0  0  0  0 
    3.2077    1.5434    3.5801 C   0  0  0  0  0  0  0  0  0  0  0  0 
    4.6695   -1.7030    1.0359 C   0  0  0  0  0  0  0  0  0  0  0  0 
    2.9749   -0.4591    5.1356 C   0  0  0  0  0  0  0  0  0  0  0  0 
    5.2642    1.4744    5.9980 C   0  0  0  0  0  0  0  0  0  0  0  0 
    6.6629    1.6677    6.5234 C   0  0  0  0  0  0  0  0  0  0  0  0 
    5.2517    0.5296    4.7782 C   0  0  0  0  0  0  0  0  0  0  0  0 
    7.1580    1.3374    7.7264 C   0  0  0  0  0  0  0  0  0  0  0  0 
    4.7348   -0.4988    1.9611 C   0  0  0  0  0  0  0  0  0  0  0  0 
    3.8575    0.2821    4.1508 C   0  0  2  0  0  0  0  0  0  0  0  0 
    5.3409    0.5230    1.7117 O   0  0  0  0  0  0  0  0  0  0  0  0 
    4.0110   -0.7310    3.0789 O   0  0  0  0  0  0  0  0  0  0  0  0 
    3.2511   -2.8246   -0.1737 H   0  0  0  0  0  0  0  0  0  0  0  0 
    2.8796   -1.0968   -0.0612 H   0  0  0  0  0  0  0  0  0  0  0  0 
    2.5565   -2.1624    1.3198 H   0  0  0  0  0  0  0  0  0  0  0  0 
    1.2946   -0.6434    6.3943 H   0  0  0  0  0  0  0  0  0  0  0  0 
    1.3991    0.9360    5.4470 H   0  0  0  0  0  0  0  0  0  0  0  0 
    6.8167   -0.2761    9.1171 H   0  0  0  0  0  0  0  0  0  0  0  0 
    5.3230    0.5100    8.5819 H   0  0  0  0  0  0  0  0  0  0  0  0 
    6.3919    1.3109    9.7441 H   0  0  0  0  0  0  0  0  0  0  0  0 
    9.1286    0.6771    8.3316 H   0  0  0  0  0  0  0  0  0  0  0  0 
    8.6902    2.2693    8.9398 H   0  0  0  0  0  0  0  0  0  0  0  0 
    9.1426    2.0728    7.2346 H   0  0  0  0  0  0  0  0  0  0  0  0 
    2.9624    2.2437    4.3835 H   0  0  0  0  0  0  0  0  0  0  0  0 
    2.2813    1.2844    3.0580 H   0  0  0  0  0  0  0  0  0  0  0  0 
    3.8824    2.0372    2.8802 H   0  0  0  0  0  0  0  0  0  0  0  0 
    5.3696   -1.5126    0.2182 H   0  0  0  0  0  0  0  0  0  0  0  0 
    5.0182   -2.5840    1.5882 H   0  0  0  0  0  0  0  0  0  0  0  0 
    3.3606   -1.4419    5.4068 H   0  0  0  0  0  0  0  0  0  0  0  0 
    4.8630    2.4534    5.6984 H   0  0  0  0  0  0  0  0  0  0  0  0 
    4.5938    1.0905    6.7726 H   0  0  0  0  0  0  0  0  0  0  0  0 
    7.3504    2.1272    5.8104 H   0  0  0  0  0  0  0  0  0  0  0  0 
    5.6597   -0.4433    5.0808 H   0  0  0  0  0  0  0  0  0  0  0  0 
    5.9093    0.9266    4.0002 H   0  0  0  0  0  0  0  0  0  0  0  0 
  1  6  1  0  0  0  0 
  1 18  1  0  0  0  0 
  2 19  1  0  0  0  0 
  3 21  1  0  0  0  0 
  3 23  1  0  0  0  0 
  4 24  1  0  0  0  0 
  4 25  1  0  0  0  0 
  5 13  1  0  0  0  0 
  5 27  1  0  0  0  0 
  6 31  1  0  0  0  0 
  6 12  1  0  0  0  0 
  7 32  1  0  0  0  0 
  7  2  2  0  0  0  0 
  8  9  1  0  0  0  0 
  8 34  1  0  0  0  0 
  9 11  2  0  0  0  0 
 10 36  1  0  0  0  0 
 10  8  1  0  0  0  0 
 11  4  1  0  0  0  0 
 11  3  1  0  0  0  0 
 12 15  1  0  0  0  0 
 13 15  1  6  0  0  0 
 13 10  1  0  0  0  0 
 13  7  1  0  0  0  0 
 14 12  2  0  0  0  0 
 16  1  1  0  0  0  0 
 17  1  1  0  0  0  0 
 20  2  1  0  0  0  0 
 22  3  1  0  0  0  0 
 26  4  1  0  0  0  0 
 28  5  1  0  0  0  0 
 29  5  1  0  0  0  0 
 30  6  1  0  0  0  0 
 33  8  1  0  0  0  0 
 35  9  1  0  0  0  0 
 37 10  1  0  0  0  0 
M  END 
>  <HBA> 
2 
 
>  <HBD> 
0 
 
>  <TPSA> 
26.3 
 
>  <cid> 
61098 
 
>  <dipole> 
1.99 
 
>  <excitation_energy_1> 
5.478 
 
>  <excitation_energy_2> 
5.53 
 
>  <excitation_energy_3> 
5.718 
 
>  <excitation_energy_4> 
5.84 
 
>  <homo_energy> 
-6.191 
 
>  <homo_lumo_gap> 
6.373 
 
>  <logP> 
3.631 
 
>  <lumo_energy> 
0.182 
 
>  <melting_point> 
-15.14 
 
>  <molecular_refractivity> 
64.98 
 
>  <oscillator_strength_1> 
0.0006 
 
>  <oscillator_strength_2> 
0.0015 
 
>  <oscillator_strength_3> 
0.0045 
 
>  <oscillator_strength_4> 
0.0219 
 
>  <open_babel_can_smiles> 
CCC(=O)O[C@](CCC=C(C)C)(C=C)C 
 
>  <mulliken_charges> 
37 
1   -0.453428 
2   -0.340183 
3   -0.513973 
4   -0.505698 
5   -0.496255 
6   -0.32643 
7   -0.06226 
8   -0.31485 
9   -0.162416 
10   -0.293954 
11   0.187301 
12   0.622096 
13   0.293997 
14   -0.482298 
15   -0.508172 
16   0.152142 
17   0.156757 
18   0.168015 
19   0.145302 
20   0.145709 
21   0.150969 
22   0.155105 
23   0.151479 
24   0.14817 
25   0.148456 
26   0.152159 
27   0.152945 
28   0.154841 
29   0.189703 
30   0.166669 
31   0.162118 
32   0.136394 
33   0.143541 
34   0.146274 
35   0.114622 
36   0.138649 
37   0.176501 
 
>  <lowdin_charges> 
37 
1   -0.441247 
2   -0.33473 
3   -0.443669 
4   -0.440731 
5   -0.461132 
6   -0.293581 
7   -0.147232 
8   -0.277807 
9   -0.190983 
10   -0.287674 
11   -0.010633 
12   0.201225 
13   0.14046 
14   -0.272723 
15   -0.201658 
16   0.15515 
17   0.1548 
18   0.160378 
19   0.164325 
20   0.160147 
21   0.154437 
22   0.15431 
23   0.154979 
24   0.152148 
25   0.152389 
26   0.155763 
27   0.158719 
28   0.158798 
29   0.176765 
30   0.165084 
31   0.164506 
32   0.157755 
33   0.148512 
34   0.15047 
35   0.147878 
36   0.14771 
37   0.167092 
 
$$$$ 
 
