PCCDB-ID:  8406 
public computational chemistry database (PCCDB) project, http://pccdb.org 
 
 17 17  0  0  0  0  0  0  0  0999 V2000 
   -1.3309   -0.0710    0.0404 C   0  0  0  0  0  0  0  0  0  0  0  0 
   -0.4385   -1.1390    0.0961 C   0  0  0  0  0  0  0  0  0  0  0  0 
   -0.8234    1.2203   -0.0332 C   0  0  0  0  0  0  0  0  0  0  0  0 
    0.9358   -0.9029    0.0778 C   0  0  0  0  0  0  0  0  0  0  0  0 
    0.8658    2.9233   -0.1341 C   0  0  0  0  0  0  0  0  0  0  0  0 
    0.5613    1.4815   -0.0536 C   0  0  0  0  0  0  0  0  0  0  0  0 
    1.4755    0.3862    0.0038 C   0  0  0  0  0  0  0  0  0  0  0  0 
    3.0112    0.3864   -0.0031 C   0  0  0  0  0  0  0  0  0  0  0  0 
    1.9603    3.4730   -0.1705 O   0  0  0  0  0  0  0  0  0  0  0  0 
    3.6021   -0.6732    0.0547 O   0  0  0  0  0  0  0  0  0  0  0  0 
    3.6814    1.5301   -0.0715 O   0  0  0  0  0  0  0  0  0  0  0  0 
   -2.4036   -0.2387    0.0545 H   0  0  0  0  0  0  0  0  0  0  0  0 
   -0.8063   -2.1596    0.1531 H   0  0  0  0  0  0  0  0  0  0  0  0 
   -1.5105    2.0617   -0.0773 H   0  0  0  0  0  0  0  0  0  0  0  0 
    1.6391   -1.7262    0.1211 H   0  0  0  0  0  0  0  0  0  0  0  0 
   -0.0364    3.5616   -0.1635 H   0  0  0  0  0  0  0  0  0  0  0  0 
    3.0920    2.3289   -0.1148 H   0  0  0  0  0  0  0  0  0  0  0  0 
  1 12  1  0  0  0  0 
  1  2  2  0  0  0  0 
  2 13  1  0  0  0  0 
  3  1  1  0  0  0  0 
  4  2  1  0  0  0  0 
  4 15  1  0  0  0  0 
  5  6  1  0  0  0  0 
  6  3  2  0  0  0  0 
  6  7  1  0  0  0  0 
  7  4  2  0  0  0  0 
  8  7  1  0  0  0  0 
  8 10  2  0  0  0  0 
  9  5  2  0  0  0  0 
 11  8  1  0  0  0  0 
 14  3  1  0  0  0  0 
 16  5  1  0  0  0  0 
 17 11  1  0  0  0  0 
M  END 
>  <HBA> 
3 
 
>  <HBD> 
1 
 
>  <TPSA> 
54.37 
 
>  <cid> 
8406 
 
>  <dipole> 
6.68 
 
>  <excitation_energy_1> 
3.589 
 
>  <excitation_energy_2> 
3.874 
 
>  <excitation_energy_3> 
4.241 
 
>  <excitation_energy_4> 
4.789 
 
>  <homo_energy> 
-7.271 
 
>  <homo_lumo_gap> 
4.484 
 
>  <logP> 
1.197 
 
>  <lumo_energy> 
-2.786 
 
>  <melting_point> 
129.42 
 
>  <molecular_refractivity> 
38.79 
 
>  <oscillator_strength_1> 
0.0001 
 
>  <oscillator_strength_2> 
0.0001 
 
>  <oscillator_strength_3> 
0.0573 
 
>  <oscillator_strength_4> 
0.1174 
 
>  <open_babel_can_smiles> 
O=Cc1ccccc1C(=O)O 
 
>  <mulliken_charges> 
17 
1   -0.120233 
2   -0.113872 
3   -0.187775 
4   -0.159407 
5   0.20462 
6   0.050894 
7   -0.003934 
8   0.580519 
9   -0.443184 
10   -0.461793 
11   -0.600894 
12   0.154056 
13   0.157695 
14   0.15384 
15   0.193621 
16   0.143925 
17   0.45192 
 
>  <lowdin_charges> 
17 
1   -0.141131 
2   -0.122178 
3   -0.134651 
4   -0.124816 
5   0.059926 
6   -0.057842 
7   -0.031137 
8   0.190313 
9   -0.233592 
10   -0.261739 
11   -0.352344 
12   0.16804 
13   0.170569 
14   0.167981 
15   0.19377 
16   0.144016 
17   0.364814 
 
$$$$ 
 
