PCCDB-ID:  67434 
public computational chemistry database (PCCDB) project, http://pccdb.org 
 
 21 22  0  0  0  0  0  0  0  0999 V2000 
    2.1926    0.8072    0.4332 C   0  0  0  0  0  0  0  0  0  0  0  0 
    2.2338   -0.7515    0.5149 C   0  0  0  0  0  0  0  0  0  0  0  0 
    0.9360    1.1585   -0.4031 C   0  0  0  0  0  0  0  0  0  0  0  0 
    1.1006   -1.2454   -0.4084 C   0  0  0  0  0  0  0  0  0  0  0  0 
   -1.8948    0.4186    0.8028 C   0  0  0  0  0  0  0  0  0  0  0  0 
   -2.5917   -0.1033   -0.4576 C   0  0  0  0  0  0  0  0  0  0  0  0 
    0.0698   -0.1140   -0.3548 C   0  0  0  0  0  0  0  0  0  0  0  0 
   -0.6325   -0.2231    0.8780 O   0  0  0  0  0  0  0  0  0  0  0  0 
   -1.2443   -0.1732   -1.7024 S   0  0  0  0  0  0  0  0  0  0  0  0 
    3.0972    1.2151   -0.0295 H   0  0  0  0  0  0  0  0  0  0  0  0 
    2.1258    1.2393    1.4362 H   0  0  0  0  0  0  0  0  0  0  0  0 
    2.0418   -1.0791    1.5413 H   0  0  0  0  0  0  0  0  0  0  0  0 
    3.2067   -1.1590    0.2220 H   0  0  0  0  0  0  0  0  0  0  0  0 
    1.2035    1.3647   -1.4455 H   0  0  0  0  0  0  0  0  0  0  0  0 
    0.3924    2.0332   -0.0329 H   0  0  0  0  0  0  0  0  0  0  0  0 
    0.6582   -2.1974   -0.1031 H   0  0  0  0  0  0  0  0  0  0  0  0 
    1.4550   -1.3519   -1.4402 H   0  0  0  0  0  0  0  0  0  0  0  0 
   -2.4360    0.1604    1.7179 H   0  0  0  0  0  0  0  0  0  0  0  0 
   -1.7851    1.5122    0.7517 H   0  0  0  0  0  0  0  0  0  0  0  0 
   -3.3820    0.5700   -0.8000 H   0  0  0  0  0  0  0  0  0  0  0  0 
   -3.0098   -1.1007   -0.2961 H   0  0  0  0  0  0  0  0  0  0  0  0 
  1  2  1  0  0  0  0 
  1 11  1  0  0  0  0 
  2 12  1  0  0  0  0 
  3  7  1  0  0  0  0 
  3 15  1  0  0  0  0 
  3  1  1  0  0  0  0 
  4  7  1  0  0  0  0 
  4 16  1  0  0  0  0 
  4  2  1  0  0  0  0 
  5  8  1  0  0  0  0 
  5 18  1  0  0  0  0 
  6 21  1  0  0  0  0 
  6  5  1  0  0  0  0 
  7  8  1  0  0  0  0 
  9  6  1  0  0  0  0 
  9  7  1  0  0  0  0 
 10  1  1  0  0  0  0 
 13  2  1  0  0  0  0 
 14  3  1  0  0  0  0 
 17  4  1  0  0  0  0 
 19  5  1  0  0  0  0 
 20  6  1  0  0  0  0 
M  END 
>  <HBA> 
2 
 
>  <HBD> 
0 
 
>  <TPSA> 
34.53 
 
>  <cid> 
67434 
 
>  <dipole> 
1.29 
 
>  <excitation_energy_1> 
4.826 
 
>  <excitation_energy_2> 
5.464 
 
>  <excitation_energy_3> 
5.875 
 
>  <excitation_energy_4> 
6.052 
 
>  <homo_energy> 
-5.908 
 
>  <homo_lumo_gap> 
6.495 
 
>  <logP> 
2.02 
 
>  <lumo_energy> 
0.588 
 
>  <melting_point> 
28.97 
 
>  <molecular_refractivity> 
40.25 
 
>  <oscillator_strength_1> 
0.0003 
 
>  <oscillator_strength_2> 
0.0119 
 
>  <oscillator_strength_3> 
0.0128 
 
>  <oscillator_strength_4> 
0.0157 
 
>  <open_babel_can_smiles> 
C1CCC2(C1)OCCS2 
 
>  <mulliken_charges> 
21 
1   -0.274354 
2   -0.275475 
3   -0.264105 
4   -0.268183 
5   -0.030001 
6   -0.425689 
7   0.130881 
8   -0.472345 
9   0.053158 
10   0.138591 
11   0.146232 
12   0.153054 
13   0.137483 
14   0.14911 
15   0.14457 
16   0.154637 
17   0.146897 
18   0.157518 
19   0.140838 
20   0.175302 
21   0.181881 
 
>  <lowdin_charges> 
21 
1   -0.286208 
2   -0.283826 
3   -0.293994 
4   -0.282802 
5   -0.13263 
6   -0.383586 
7   0.032822 
8   -0.254974 
9   0.054527 
10   0.147122 
11   0.149114 
12   0.150742 
13   0.146322 
14   0.152515 
15   0.153219 
16   0.158839 
17   0.151547 
18   0.15671 
19   0.133622 
20   0.169832 
21   0.161086 
 
$$$$ 
 
