PCCDB-ID:  12035 
public computational chemistry database (PCCDB) project, http://pccdb.org 
 
 19 18  0  0  1  0  0  0  0  0999 V2000 
    1.1979    0.8207   -0.0566 C   0  0  0  0  0  0  0  0  0  0  0  0 
    1.4725   -2.6977   -0.7825 C   0  0  0  0  0  0  0  0  0  0  0  0 
    2.5313    0.1704    0.2331 C   0  0  0  0  0  0  0  0  0  0  0  0 
    1.7534   -2.0625    0.6038 C   0  0  1  0  0  0  0  0  0  0  0  0 
    2.2611   -3.1509    1.5799 C   0  0  0  0  0  0  0  0  0  0  0  0 
    2.7871   -1.0446    0.5026 N   0  0  0  0  0  0  0  0  0  0  0  0 
    3.6005    1.0091    0.1951 O   0  0  0  0  0  0  0  0  0  0  0  0 
    1.5666   -4.0751    1.9447 O   0  0  0  0  0  0  0  0  0  0  0  0 
    3.5333   -3.0062    1.9618 O   0  0  0  0  0  0  0  0  0  0  0  0 
   -0.0701   -3.6926   -0.8704 S   0  0  0  0  0  0  0  0  0  0  0  0 
    0.3674    0.1171    0.0054 H   0  0  0  0  0  0  0  0  0  0  0  0 
    1.2027    1.2537   -1.0646 H   0  0  0  0  0  0  0  0  0  0  0  0 
    1.0133    1.6346    0.6556 H   0  0  0  0  0  0  0  0  0  0  0  0 
    2.3338   -3.2902   -1.1050 H   0  0  0  0  0  0  0  0  0  0  0  0 
    1.3354   -1.8970   -1.5149 H   0  0  0  0  0  0  0  0  0  0  0  0 
    0.8075   -1.6881    1.0147 H   0  0  0  0  0  0  0  0  0  0  0  0 
    3.3041    1.9086   -0.0142 H   0  0  0  0  0  0  0  0  0  0  0  0 
    3.8478   -2.1745    1.5261 H   0  0  0  0  0  0  0  0  0  0  0  0 
    0.1851   -4.4255    0.2351 H   0  0  0  0  0  0  0  0  0  0  0  0 
  1 11  1  0  0  0  0 
  1  3  1  0  0  0  0 
  1 13  1  0  0  0  0 
  2  4  1  0  0  0  0 
  3  6  2  0  0  0  0 
  4 16  1  1  0  0  0 
  4  5  1  0  0  0  0 
  5  8  2  0  0  0  0 
  5  9  1  0  0  0  0 
  6  4  1  0  0  0  0 
  7  3  1  0  0  0  0 
 10  2  1  0  0  0  0 
 10 19  1  0  0  0  0 
 12  1  1  0  0  0  0 
 14  2  1  0  0  0  0 
 15  2  1  0  0  0  0 
 17  7  1  0  0  0  0 
 18  9  1  0  0  0  0 
M  END 
>  <HBA> 
5 
 
>  <HBD> 
3 
 
>  <TPSA> 
105.2 
 
>  <cid> 
12035 
 
>  <dipole> 
7.42 
 
>  <excitation_energy_1> 
4.809 
 
>  <excitation_energy_2> 
5.197 
 
>  <excitation_energy_3> 
5.458 
 
>  <excitation_energy_4> 
5.605 
 
>  <homo_energy> 
-6.373 
 
>  <homo_lumo_gap> 
5.791 
 
>  <logP> 
-0.104 
 
>  <lumo_energy> 
-0.582 
 
>  <melting_point> 
120.09 
 
>  <molecular_refractivity> 
38.85 
 
>  <oscillator_strength_1> 
0.0067 
 
>  <oscillator_strength_2> 
0.0072 
 
>  <oscillator_strength_3> 
0.0009 
 
>  <oscillator_strength_4> 
0.0249 
 
>  <open_babel_can_smiles> 
SC[C@@H](C(=O)O)/N=C(/O)\C 
 
>  <mulliken_charges> 
19 
1   -0.567512 
2   -0.402716 
3   0.513748 
4   -0.086121 
5   0.60503 
6   -0.475997 
7   -0.565327 
8   -0.470377 
9   -0.568409 
10   -0.108198 
11   0.204056 
12   0.188944 
13   0.187228 
14   0.194146 
15   0.175229 
16   0.17724 
17   0.416448 
18   0.434712 
19   0.147877 
 
>  <lowdin_charges> 
19 
1   -0.482537 
2   -0.373126 
3   0.150402 
4   -0.108948 
5   0.185503 
6   -0.227385 
7   -0.34806 
8   -0.263876 
9   -0.342967 
10   -0.100288 
11   0.185344 
12   0.177495 
13   0.177825 
14   0.16978 
15   0.167002 
16   0.162309 
17   0.362049 
18   0.361687 
19   0.147791 
 
$$$$ 
 
