PCCDB-ID:  7825 
public computational chemistry database (PCCDB) project, http://pccdb.org 
 
 16 15  0  0  0  0  0  0  0  0999 V2000 
    5.6170    1.6023    0.7195 C   0  0  0  0  0  0  0  0  0  0  0  0 
    5.5047    0.5286   -0.0660 C   0  0  0  0  0  0  0  0  0  0  0  0 
    2.5715   -2.7172   -0.4496 C   0  0  0  0  0  0  0  0  0  0  0  0 
    1.4010   -3.4817   -0.8842 C   0  0  0  0  0  0  0  0  0  0  0  0 
    3.0777   -1.7835   -1.5641 C   0  0  0  0  0  0  0  0  0  0  0  0 
    4.1742   -0.0543   -0.3601 C   0  0  0  0  0  0  0  0  0  0  0  0 
    0.4773   -4.0794   -1.2535 N   0  0  0  0  0  0  0  0  0  0  0  0 
    3.1064    0.3585    0.0449 O   0  0  0  0  0  0  0  0  0  0  0  0 
    4.3001   -1.1455   -1.1659 O   0  0  0  0  0  0  0  0  0  0  0  0 
    6.5823    2.0448    0.9455 H   0  0  0  0  0  0  0  0  0  0  0  0 
    4.7338    2.0629    1.1529 H   0  0  0  0  0  0  0  0  0  0  0  0 
    6.3646    0.0431   -0.5172 H   0  0  0  0  0  0  0  0  0  0  0  0 
    3.3687   -3.4126   -0.1621 H   0  0  0  0  0  0  0  0  0  0  0  0 
    2.3086   -2.1210    0.4301 H   0  0  0  0  0  0  0  0  0  0  0  0 
    2.3241   -1.0285   -1.7985 H   0  0  0  0  0  0  0  0  0  0  0  0 
    3.3283   -2.3498   -2.4626 H   0  0  0  0  0  0  0  0  0  0  0  0 
  1 10  1  0  0  0  0 
  1 11  1  0  0  0  0 
  2  1  2  0  0  0  0 
  3 13  1  0  0  0  0 
  3 14  1  0  0  0  0 
  4  3  1  0  0  0  0 
  5  9  1  0  0  0  0 
  5  3  1  0  0  0  0 
  6  2  1  0  0  0  0 
  6  8  2  0  0  0  0 
  7  4  3  0  0  0  0 
  9  6  1  0  0  0  0 
 12  2  1  0  0  0  0 
 15  5  1  0  0  0  0 
 16  5  1  0  0  0  0 
M  END 
>  <HBA> 
3 
 
>  <HBD> 
0 
 
>  <TPSA> 
50.09 
 
>  <cid> 
7825 
 
>  <dipole> 
4.83 
 
>  <excitation_energy_1> 
4.796 
 
>  <excitation_energy_2> 
6.158 
 
>  <excitation_energy_3> 
6.243 
 
>  <excitation_energy_4> 
6.645 
 
>  <homo_energy> 
-7.929 
 
>  <homo_lumo_gap> 
6.275 
 
>  <logP> 
0.629 
 
>  <lumo_energy> 
-1.654 
 
>  <melting_point> 
-0.82 
 
>  <molecular_refractivity> 
31.52 
 
>  <oscillator_strength_1> 
0.0002 
 
>  <oscillator_strength_2> 
0.2004 
 
>  <oscillator_strength_3> 
0.2651 
 
>  <oscillator_strength_4> 
0.0009 
 
>  <open_babel_can_smiles> 
C=CC(=O)OCCC#N 
 
>  <mulliken_charges> 
16 
1   -0.29838 
2   -0.134971 
3   -0.361742 
4   0.344547 
5   -0.042366 
6   0.60672 
7   -0.462949 
8   -0.486017 
9   -0.473334 
10   0.164463 
11   0.185616 
12   0.160118 
13   0.203628 
14   0.225204 
15   0.190915 
16   0.178549 
 
>  <lowdin_charges> 
16 
1   -0.256517 
2   -0.189114 
3   -0.286916 
4   -0.016708 
5   -0.12561 
6   0.200375 
7   -0.118693 
8   -0.267335 
9   -0.191927 
10   0.172705 
11   0.182798 
12   0.174296 
13   0.187241 
14   0.197694 
15   0.170895 
16   0.166815 
 
$$$$ 
 
