PCCDB-ID:  11447 
public computational chemistry database (PCCDB) project, http://pccdb.org 
 
 26 25  0  0  1  0  0  0  0  0999 V2000 
    1.5453   -3.3164    2.7239 C   0  0  0  0  0  0  0  0  0  0  0  0 
    7.1395   -3.1341    0.5112 C   0  0  0  0  0  0  0  0  0  0  0  0 
    6.5160   -2.4547    2.8628 C   0  0  0  0  0  0  0  0  0  0  0  0 
    5.2732   -0.6213    0.6261 C   0  0  0  0  0  0  0  0  0  0  0  0 
    2.8993   -3.4289    2.0142 C   0  0  0  0  0  0  0  0  0  0  0  0 
    3.5567   -2.0620    1.7752 C   0  0  0  0  0  0  0  0  0  0  0  0 
    5.9827   -2.9482    1.5075 C   0  0  0  0  0  0  0  0  0  0  0  0 
    4.8421   -2.0695    0.9182 C   0  0  2  0  0  0  0  0  0  0  0  0 
    1.0933   -4.3021    2.8836 H   0  0  0  0  0  0  0  0  0  0  0  0 
    0.8388   -2.7161    2.1373 H   0  0  0  0  0  0  0  0  0  0  0  0 
    1.6503   -2.8359    3.7047 H   0  0  0  0  0  0  0  0  0  0  0  0 
    7.8592   -3.8715    0.8864 H   0  0  0  0  0  0  0  0  0  0  0  0 
    7.6892   -2.2005    0.3432 H   0  0  0  0  0  0  0  0  0  0  0  0 
    6.7764   -3.4877   -0.4617 H   0  0  0  0  0  0  0  0  0  0  0  0 
    7.2702   -3.1490    3.2519 H   0  0  0  0  0  0  0  0  0  0  0  0 
    5.7238   -2.3760    3.6158 H   0  0  0  0  0  0  0  0  0  0  0  0 
    6.9936   -1.4714    2.7764 H   0  0  0  0  0  0  0  0  0  0  0  0 
    4.4677   -0.0779    0.1182 H   0  0  0  0  0  0  0  0  0  0  0  0 
    6.1573   -0.5734   -0.0183 H   0  0  0  0  0  0  0  0  0  0  0  0 
    5.5022   -0.0746    1.5488 H   0  0  0  0  0  0  0  0  0  0  0  0 
    2.7644   -3.9403    1.0500 H   0  0  0  0  0  0  0  0  0  0  0  0 
    3.5618   -4.0698    2.6098 H   0  0  0  0  0  0  0  0  0  0  0  0 
    3.7590   -1.5829    2.7443 H   0  0  0  0  0  0  0  0  0  0  0  0 
    2.8247   -1.4117    1.2738 H   0  0  0  0  0  0  0  0  0  0  0  0 
    5.5531   -3.9462    1.6726 H   0  0  0  0  0  0  0  0  0  0  0  0 
    4.5760   -2.5291   -0.0474 H   0  0  0  0  0  0  0  0  0  0  0  0 
  1  9  1  0  0  0  0 
  1 11  1  0  0  0  0 
  2 12  1  0  0  0  0 
  2  7  1  0  0  0  0 
  3 15  1  0  0  0  0 
  3 16  1  0  0  0  0 
  4  8  1  0  0  0  0 
  4 20  1  0  0  0  0 
  5 22  1  0  0  0  0 
  5  1  1  0  0  0  0 
  6  5  1  0  0  0  0 
  6 23  1  0  0  0  0 
  7 25  1  0  0  0  0 
  7  3  1  0  0  0  0 
  8 26  1  6  0  0  0 
  8  7  1  0  0  0  0 
  8  6  1  0  0  0  0 
 10  1  1  0  0  0  0 
 13  2  1  0  0  0  0 
 14  2  1  0  0  0  0 
 17  3  1  0  0  0  0 
 18  4  1  0  0  0  0 
 19  4  1  0  0  0  0 
 21  5  1  0  0  0  0 
 24  6  1  0  0  0  0 
M  END 
>  <HBA> 
0 
 
>  <HBD> 
0 
 
>  <TPSA> 
0.0 
 
>  <cid> 
11447 
 
>  <dipole> 
0.11 
 
>  <excitation_energy_1> 
7.578 
 
>  <excitation_energy_2> 
7.676 
 
>  <excitation_energy_3> 
7.855 
 
>  <excitation_energy_4> 
7.959 
 
>  <homo_energy> 
-8.046 
 
>  <homo_lumo_gap> 
10.193 
 
>  <logP> 
3.079 
 
>  <lumo_energy> 
2.147 
 
>  <melting_point> 
-27.89 
 
>  <molecular_refractivity> 
40.57 
 
>  <oscillator_strength_1> 
0.0035 
 
>  <oscillator_strength_2> 
0.0051 
 
>  <oscillator_strength_3> 
0.0173 
 
>  <oscillator_strength_4> 
0.0144 
 
>  <open_babel_can_smiles> 
CCC[C@H](C(C)C)C 
 
>  <mulliken_charges> 
26 
1   -0.442219 
2   -0.449109 
3   -0.453079 
4   -0.458418 
5   -0.255521 
6   -0.251001 
7   -0.068865 
8   -0.064621 
9   0.140809 
10   0.140951 
11   0.14097 
12   0.138182 
13   0.141807 
14   0.137832 
15   0.138931 
16   0.143056 
17   0.142583 
18   0.139006 
19   0.143253 
20   0.142062 
21   0.129148 
22   0.136422 
23   0.126802 
24   0.123761 
25   0.124747 
26   0.11251 
 
>  <lowdin_charges> 
26 
1   -0.444515 
2   -0.446897 
3   -0.450489 
4   -0.450829 
5   -0.277152 
6   -0.279172 
7   -0.124321 
8   -0.125237 
9   0.148308 
10   0.147083 
11   0.145643 
12   0.148495 
13   0.145509 
14   0.14605 
15   0.149646 
16   0.148343 
17   0.146228 
18   0.149397 
19   0.148906 
20   0.146603 
21   0.13817 
22   0.141795 
23   0.137002 
24   0.140542 
25   0.137667 
26   0.133226 
 
$$$$ 
 
