PCCDB-ID:  61524 
public computational chemistry database (PCCDB) project, http://pccdb.org 
 
 34 33  0  0  0  0  0  0  0  0999 V2000 
    0.8285    0.0780    0.1200 C   0  0  0  0  0  0  0  0  0  0  0  0 
   11.3563    0.5026   -6.2694 C   0  0  0  0  0  0  0  0  0  0  0  0 
    2.3593    0.1000    0.0580 C   0  0  0  0  0  0  0  0  0  0  0  0 
    2.9517   -1.1128   -0.6716 C   0  0  0  0  0  0  0  0  0  0  0  0 
    4.4845   -1.1037   -0.7335 C   0  0  0  0  0  0  0  0  0  0  0  0 
    5.0724   -2.3106   -1.4764 C   0  0  0  0  0  0  0  0  0  0  0  0 
    6.6057   -2.3093   -1.5258 C   0  0  0  0  0  0  0  0  0  0  0  0 
    7.1798   -3.5075   -2.2898 C   0  0  0  0  0  0  0  0  0  0  0  0 
    8.7263   -3.5400   -2.3366 C   0  0  0  0  0  0  0  0  0  0  0  0 
    9.3079   -2.4143   -3.0657 C   0  0  0  0  0  0  0  0  0  0  0  0 
    9.7756   -1.4733   -3.6683 C   0  0  0  0  0  0  0  0  0  0  0  0 
   10.3197   -0.3049   -4.3207 C   0  0  0  0  0  0  0  0  0  0  0  0 
   10.3635    0.8040   -3.8280 O   0  0  0  0  0  0  0  0  0  0  0  0 
   10.7790   -0.6046   -5.5566 O   0  0  0  0  0  0  0  0  0  0  0  0 
    0.4356    0.9582    0.6419 H   0  0  0  0  0  0  0  0  0  0  0  0 
    0.4656   -0.8124    0.6483 H   0  0  0  0  0  0  0  0  0  0  0  0 
    0.3927    0.0652   -0.8866 H   0  0  0  0  0  0  0  0  0  0  0  0 
   11.6514    0.1000   -7.2385 H   0  0  0  0  0  0  0  0  0  0  0  0 
   12.2256    0.8917   -5.7322 H   0  0  0  0  0  0  0  0  0  0  0  0 
   10.6253    1.3065   -6.3897 H   0  0  0  0  0  0  0  0  0  0  0  0 
    2.7678    0.1434    1.0778 H   0  0  0  0  0  0  0  0  0  0  0  0 
    2.6921    1.0206   -0.4421 H   0  0  0  0  0  0  0  0  0  0  0  0 
    2.5469   -1.1523   -1.6941 H   0  0  0  0  0  0  0  0  0  0  0  0 
    2.6130   -2.0351   -0.1759 H   0  0  0  0  0  0  0  0  0  0  0  0 
    4.8896   -1.0736    0.2890 H   0  0  0  0  0  0  0  0  0  0  0  0 
    4.8231   -0.1778   -1.2211 H   0  0  0  0  0  0  0  0  0  0  0  0 
    4.6766   -2.3319   -2.5027 H   0  0  0  0  0  0  0  0  0  0  0  0 
    4.7232   -3.2377   -0.9975 H   0  0  0  0  0  0  0  0  0  0  0  0 
    7.0045   -2.3080   -0.5004 H   0  0  0  0  0  0  0  0  0  0  0  0 
    6.9575   -1.3789   -1.9913 H   0  0  0  0  0  0  0  0  0  0  0  0 
    6.7927   -3.5145   -3.3168 H   0  0  0  0  0  0  0  0  0  0  0  0 
    6.8449   -4.4427   -1.8215 H   0  0  0  0  0  0  0  0  0  0  0  0 
    9.0575   -4.4791   -2.7994 H   0  0  0  0  0  0  0  0  0  0  0  0 
    9.1210   -3.5404   -1.3107 H   0  0  0  0  0  0  0  0  0  0  0  0 
  1 15  1  0  0  0  0 
  1 16  1  0  0  0  0 
  2 19  1  0  0  0  0 
  2 14  1  0  0  0  0 
  3  1  1  0  0  0  0 
  3 21  1  0  0  0  0 
  4 24  1  0  0  0  0 
  4  3  1  0  0  0  0 
  5  4  1  0  0  0  0 
  5 25  1  0  0  0  0 
  6 28  1  0  0  0  0 
  6  5  1  0  0  0  0 
  7  6  1  0  0  0  0 
  7 29  1  0  0  0  0 
  8 32  1  0  0  0  0 
  8  7  1  0  0  0  0 
  9  8  1  0  0  0  0 
  9 34  1  0  0  0  0 
 10  9  1  0  0  0  0 
 11 10  3  0  0  0  0 
 12 13  2  0  0  0  0 
 12 11  1  0  0  0  0 
 14 12  1  0  0  0  0 
 17  1  1  0  0  0  0 
 18  2  1  0  0  0  0 
 20  2  1  0  0  0  0 
 22  3  1  0  0  0  0 
 23  4  1  0  0  0  0 
 26  5  1  0  0  0  0 
 27  6  1  0  0  0  0 
 30  7  1  0  0  0  0 
 31  8  1  0  0  0  0 
 33  9  1  0  0  0  0 
M  END 
>  <HBA> 
2 
 
>  <HBD> 
0 
 
>  <TPSA> 
26.3 
 
>  <cid> 
61524 
 
>  <dipole> 
2.08 
 
>  <excitation_energy_1> 
4.681 
 
>  <excitation_energy_2> 
5.525 
 
>  <excitation_energy_3> 
5.694 
 
>  <excitation_energy_4> 
6.684 
 
>  <homo_energy> 
-7.121 
 
>  <homo_lumo_gap> 
6.245 
 
>  <logP> 
2.913 
 
>  <lumo_energy> 
-0.876 
 
>  <melting_point> 
-0.76 
 
>  <molecular_refractivity> 
59.24 
 
>  <oscillator_strength_1> 
0.0001 
 
>  <oscillator_strength_2> 
0.001 
 
>  <oscillator_strength_3> 
0.181 
 
>  <oscillator_strength_4> 
0.016 
 
>  <open_babel_can_smiles> 
CCCCCCCCC#CC(=O)OC 
 
>  <mulliken_charges> 
34 
1   -0.441268 
2   -0.215418 
3   -0.247115 
4   -0.246138 
5   -0.25396 
6   -0.254809 
7   -0.256336 
8   -0.259398 
9   -0.406275 
10   -0.008707 
11   0.171973 
12   0.431902 
13   -0.465025 
14   -0.438325 
15   0.14182 
16   0.140512 
17   0.141091 
18   0.167719 
19   0.171354 
20   0.17239 
21   0.130189 
22   0.131643 
23   0.126588 
24   0.125404 
25   0.127883 
26   0.132438 
27   0.129614 
28   0.126455 
29   0.12901 
30   0.152668 
31   0.147999 
32   0.140468 
33   0.17608 
34   0.177572 
 
>  <lowdin_charges> 
34 
1   -0.445182 
2   -0.280565 
3   -0.271412 
4   -0.273854 
5   -0.273525 
6   -0.272635 
7   -0.277126 
8   -0.264065 
9   -0.263366 
10   -0.007582 
11   -0.103171 
12   0.204876 
13   -0.24756 
14   -0.180688 
15   0.149941 
16   0.146351 
17   0.145519 
18   0.161694 
19   0.160822 
20   0.161534 
21   0.137926 
22   0.139807 
23   0.136333 
24   0.13688 
25   0.137199 
26   0.140571 
27   0.137815 
28   0.13702 
29   0.138345 
30   0.151287 
31   0.148073 
32   0.146532 
33   0.171891 
34   0.170317 
 
$$$$ 
 
