PCCDB-ID:  9197 
public computational chemistry database (PCCDB) project, http://pccdb.org 
 
 26 29  0  0  0  0  0  0  0  0999 V2000 
   -4.3517   -0.5251   -0.0023 C   0  0  0  0  0  0  0  0  0  0  0  0 
    3.6718    1.6731   -0.0005 C   0  0  0  0  0  0  0  0  0  0  0  0 
   -4.3138    0.8788   -0.0007 C   0  0  0  0  0  0  0  0  0  0  0  0 
    4.4427    0.4994   -0.0002 C   0  0  0  0  0  0  0  0  0  0  0  0 
   -3.1717   -1.2718   -0.0030 C   0  0  0  0  0  0  0  0  0  0  0  0 
    2.2902    1.5939   -0.0002 C   0  0  0  0  0  0  0  0  0  0  0  0 
   -3.1020    1.5715    0.0006 C   0  0  0  0  0  0  0  0  0  0  0  0 
    3.8220   -0.7407    0.0000 C   0  0  0  0  0  0  0  0  0  0  0  0 
    0.0332   -2.2075   -0.0010 C   0  0  0  0  0  0  0  0  0  0  0  0 
   -1.9557   -0.5894   -0.0025 C   0  0  0  0  0  0  0  0  0  0  0  0 
    1.6303    0.3463    0.0003 C   0  0  0  0  0  0  0  0  0  0  0  0 
   -0.5567   -0.9893   -0.0021 C   0  0  0  0  0  0  0  0  0  0  0  0 
   -1.9190    0.8308   -0.0001 C   0  0  0  0  0  0  0  0  0  0  0  0 
    2.4188   -0.8272    0.0002 C   0  0  0  0  0  0  0  0  0  0  0  0 
    0.1804    0.2860    0.0002 C   0  0  0  0  0  0  0  0  0  0  0  0 
   -0.6103    1.3342    0.0017 N   0  0  0  0  0  0  0  0  0  0  0  0 
    1.7462   -2.4670    0.0006 S   0  0  0  0  0  0  0  0  0  0  0  0 
   -5.3106   -1.0356   -0.0031 H   0  0  0  0  0  0  0  0  0  0  0  0 
    4.1601    2.6434   -0.0013 H   0  0  0  0  0  0  0  0  0  0  0  0 
   -5.2475    1.4352   -0.0001 H   0  0  0  0  0  0  0  0  0  0  0  0 
    5.5274    0.5570    0.0002 H   0  0  0  0  0  0  0  0  0  0  0  0 
   -3.2100   -2.3588   -0.0031 H   0  0  0  0  0  0  0  0  0  0  0  0 
    1.6710    2.4848   -0.0004 H   0  0  0  0  0  0  0  0  0  0  0  0 
   -3.0669    2.6566    0.0018 H   0  0  0  0  0  0  0  0  0  0  0  0 
    4.4173   -1.6500   -0.0001 H   0  0  0  0  0  0  0  0  0  0  0  0 
   -0.5360   -3.1335   -0.0008 H   0  0  0  0  0  0  0  0  0  0  0  0 
  1  3  2  0  0  0  0 
  2  4  2  0  0  0  0 
  2  6  1  0  0  0  0 
  3 20  1  0  0  0  0 
  3  7  1  0  0  0  0 
  4  8  1  0  0  0  0 
  4 21  1  0  0  0  0 
  5 10  2  0  0  0  0 
  5  1  1  0  0  0  0 
  6 11  2  0  0  0  0 
  7 24  1  0  0  0  0 
  8 14  2  0  0  0  0 
  9 26  1  0  0  0  0 
  9 17  1  0  0  0  0 
 10 12  1  0  0  0  0 
 10 13  1  0  0  0  0 
 12  9  2  0  0  0  0 
 12 15  1  0  0  0  0 
 13  7  2  0  0  0  0 
 13 16  1  0  0  0  0 
 14 11  1  0  0  0  0 
 14 17  1  0  0  0  0 
 15 11  1  0  0  0  0 
 15 16  2  0  0  0  0 
 18  1  1  0  0  0  0 
 19  2  1  0  0  0  0 
 22  5  1  0  0  0  0 
 23  6  1  0  0  0  0 
 25  8  1  0  0  0  0 
M  END 
>  <HBA> 
2 
 
>  <HBD> 
0 
 
>  <TPSA> 
41.13 
 
>  <cid> 
9197 
 
>  <dipole> 
2.42 
 
>  <excitation_energy_1> 
3.032 
 
>  <excitation_energy_2> 
3.47 
 
>  <excitation_energy_3> 
4.019 
 
>  <excitation_energy_4> 
4.062 
 
>  <homo_energy> 
-5.649 
 
>  <homo_lumo_gap> 
3.665 
 
>  <logP> 
4.554 
 
>  <lumo_energy> 
-1.984 
 
>  <melting_point> 
145.23 
 
>  <molecular_refractivity> 
73.75 
 
>  <oscillator_strength_1> 
0.0918 
 
>  <oscillator_strength_2> 
0.0775 
 
>  <oscillator_strength_3> 
0.0009 
 
>  <oscillator_strength_4> 
0.1234 
 
>  <open_babel_can_smiles> 
c1ccc2c(c1)c1nc3c(c1cs2)cccc3 
 
>  <mulliken_charges> 
26 
1   -0.144284 
2   -0.138298 
3   -0.134036 
4   -0.113242 
5   -0.197408 
6   -0.146603 
7   -0.187075 
8   -0.167704 
9   -0.428584 
10   0.103848 
11   0.130915 
12   0.140995 
13   0.254497 
14   -0.16711 
15   0.187052 
16   -0.585792 
17   0.278615 
18   0.126229 
19   0.141613 
20   0.128233 
21   0.140993 
22   0.123612 
23   0.173499 
24   0.138167 
25   0.148129 
26   0.193739 
 
>  <lowdin_charges> 
26 
1   -0.16864 
2   -0.151663 
3   -0.152598 
4   -0.14243 
5   -0.151177 
6   -0.131037 
7   -0.161504 
8   -0.162071 
9   -0.266405 
10   -0.037845 
11   -0.013182 
12   -0.037932 
13   0.035211 
14   -0.129943 
15   0.040652 
16   -0.187282 
17   0.318356 
18   0.156909 
19   0.164012 
20   0.158262 
21   0.162444 
22   0.152216 
23   0.183177 
24   0.163897 
25   0.168525 
26   0.190047 
 
$$$$ 
 
