PCCDB-ID:  18391 
public computational chemistry database (PCCDB) project, http://pccdb.org 
 
 20 20  0  0  0  0  0  0  0  0999 V2000 
    0.9734    0.1754    0.0839 C   0  0  0  0  0  0  0  0  0  0  0  0 
    2.1024   -2.9455    1.8509 C   0  0  0  0  0  0  0  0  0  0  0  0 
    5.2822   -0.0279   -0.3279 C   0  0  0  0  0  0  0  0  0  0  0  0 
    4.5378   -1.1999   -0.2095 C   0  0  0  0  0  0  0  0  0  0  0  0 
    3.2300    1.2445   -0.1630 C   0  0  0  0  0  0  0  0  0  0  0  0 
    2.4748    0.0758   -0.0474 C   0  0  0  0  0  0  0  0  0  0  0  0 
    4.6212    1.2019   -0.3019 C   0  0  0  0  0  0  0  0  0  0  0  0 
    3.1465   -1.1693   -0.0621 C   0  0  0  0  0  0  0  0  0  0  0  0 
    5.2743    2.3972   -0.4106 O   0  0  0  0  0  0  0  0  0  0  0  0 
    2.2590   -2.7289    0.0339 S   0  0  0  0  0  0  0  0  0  0  0  0 
    0.6480    1.2190    0.0375 H   0  0  0  0  0  0  0  0  0  0  0  0 
    0.6202   -0.2445    1.0330 H   0  0  0  0  0  0  0  0  0  0  0  0 
    0.4676   -0.3817   -0.7116 H   0  0  0  0  0  0  0  0  0  0  0  0 
    1.5865   -3.8971    2.0087 H   0  0  0  0  0  0  0  0  0  0  0  0 
    1.5111   -2.1434    2.3008 H   0  0  0  0  0  0  0  0  0  0  0  0 
    3.0866   -2.9880    2.3243 H   0  0  0  0  0  0  0  0  0  0  0  0 
    6.3640   -0.0718   -0.4402 H   0  0  0  0  0  0  0  0  0  0  0  0 
    5.0432   -2.1607   -0.2336 H   0  0  0  0  0  0  0  0  0  0  0  0 
    2.7442    2.2158   -0.1539 H   0  0  0  0  0  0  0  0  0  0  0  0 
    6.2247    2.2291   -0.5062 H   0  0  0  0  0  0  0  0  0  0  0  0 
  1 12  1  0  0  0  0 
  2 14  1  0  0  0  0 
  2 15  1  0  0  0  0 
  2 16  1  0  0  0  0 
  3  7  2  0  0  0  0 
  3  4  1  0  0  0  0 
  4  8  2  0  0  0  0 
  5 19  1  0  0  0  0 
  5  6  2  0  0  0  0 
  6  1  1  0  0  0  0 
  7  5  1  0  0  0  0 
  8  6  1  0  0  0  0 
  8 10  1  0  0  0  0 
  9  7  1  0  0  0  0 
 10  2  1  0  0  0  0 
 11  1  1  0  0  0  0 
 13  1  1  0  0  0  0 
 17  3  1  0  0  0  0 
 18  4  1  0  0  0  0 
 20  9  1  0  0  0  0 
M  END 
>  <HBA> 
2 
 
>  <HBD> 
1 
 
>  <TPSA> 
45.53 
 
>  <cid> 
18391 
 
>  <dipole> 
1.95 
 
>  <excitation_energy_1> 
4.633 
 
>  <excitation_energy_2> 
4.844 
 
>  <excitation_energy_3> 
4.991 
 
>  <excitation_energy_4> 
5.202 
 
>  <homo_energy> 
-5.946 
 
>  <homo_lumo_gap> 
5.796 
 
>  <logP> 
2.422 
 
>  <lumo_energy> 
-0.15 
 
>  <melting_point> 
61.94 
 
>  <molecular_refractivity> 
45.15 
 
>  <oscillator_strength_1> 
0.0036 
 
>  <oscillator_strength_2> 
0.0049 
 
>  <oscillator_strength_3> 
0.0087 
 
>  <oscillator_strength_4> 
0.0018 
 
>  <open_babel_can_smiles> 
CSc1ccc(cc1C)O 
 
>  <mulliken_charges> 
20 
1   -0.52362 
2   -0.578489 
3   -0.188073 
4   -0.145057 
5   -0.209928 
6   0.163985 
7   0.356973 
8   -0.159971 
9   -0.640137 
10   0.075828 
11   0.15233 
12   0.16284 
13   0.181287 
14   0.178836 
15   0.178705 
16   0.180746 
17   0.120297 
18   0.148143 
19   0.136661 
20   0.408644 
 
>  <lowdin_charges> 
20 
1   -0.439365 
2   -0.544178 
3   -0.218796 
4   -0.140343 
5   -0.197423 
6   0.017387 
7   0.107539 
8   -0.162671 
9   -0.372066 
10   0.119781 
11   0.154227 
12   0.161318 
13   0.173033 
14   0.17267 
15   0.161531 
16   0.163538 
17   0.152799 
18   0.168129 
19   0.16604 
20   0.356849 
 
$$$$ 
 
