PCCDB-ID:  22922 
public computational chemistry database (PCCDB) project, http://pccdb.org 
 
 21 21  0  0  1  0  0  0  0  0999 V2000 
    1.0587   -0.1230    2.7928 C   0  0  0  0  0  0  0  0  0  0  0  0 
    5.5664    0.7489   -2.5783 C   0  0  0  0  0  0  0  0  0  0  0  0 
    2.4783    0.0220    2.3296 C   0  0  0  0  0  0  0  0  0  0  0  0 
    2.9273   -0.2756    1.1093 C   0  0  0  0  0  0  0  0  0  0  0  0 
    5.5581   -1.2500   -0.9334 C   0  0  0  0  0  0  0  0  0  0  0  0 
    5.6278    0.2680   -1.1406 C   0  0  2  0  0  0  0  0  0  0  0  0 
    4.3587   -0.1283    0.7031 C   0  0  1  0  0  0  0  0  0  0  0  0 
    4.9190   -1.3982    0.3313 O   0  0  0  0  0  0  0  0  0  0  0  0 
    4.4613    0.7042   -0.4371 O   0  0  0  0  0  0  0  0  0  0  0  0 
    0.9910   -0.8125    3.6451 H   0  0  0  0  0  0  0  0  0  0  0  0 
    0.4107   -0.5018    1.9958 H   0  0  0  0  0  0  0  0  0  0  0  0 
    0.6547    0.8392    3.1347 H   0  0  0  0  0  0  0  0  0  0  0  0 
    6.4447    0.4041   -3.1357 H   0  0  0  0  0  0  0  0  0  0  0  0 
    5.5435    1.8422   -2.6176 H   0  0  0  0  0  0  0  0  0  0  0  0 
    4.6660    0.3659   -3.0700 H   0  0  0  0  0  0  0  0  0  0  0  0 
    3.1878    0.4025    3.0668 H   0  0  0  0  0  0  0  0  0  0  0  0 
    2.2624   -0.6607    0.3375 H   0  0  0  0  0  0  0  0  0  0  0  0 
    6.5447   -1.7261   -0.9017 H   0  0  0  0  0  0  0  0  0  0  0  0 
    4.9582   -1.7280   -1.7221 H   0  0  0  0  0  0  0  0  0  0  0  0 
    6.5259    0.6683   -0.6404 H   0  0  0  0  0  0  0  0  0  0  0  0 
    4.9634    0.2818    1.5304 H   0  0  0  0  0  0  0  0  0  0  0  0 
  1 12  1  0  0  0  0 
  1 10  1  0  0  0  0 
  2  6  1  0  0  0  0 
  3  1  1  0  0  0  0 
  3 16  1  0  0  0  0 
  4  3  2  0  0  0  0 
  5 18  1  0  0  0  0 
  5  8  1  0  0  0  0 
  6  5  1  0  0  0  0 
  6 20  1  1  0  0  0 
  6  9  1  0  0  0  0 
  7  4  1  0  0  0  0 
  7 21  1  1  0  0  0 
  8  7  1  0  0  0  0 
  9  7  1  0  0  0  0 
 11  1  1  0  0  0  0 
 13  2  1  0  0  0  0 
 14  2  1  0  0  0  0 
 15  2  1  0  0  0  0 
 17  4  1  0  0  0  0 
 19  5  1  0  0  0  0 
M  END 
>  <HBA> 
2 
 
>  <HBD> 
0 
 
>  <TPSA> 
18.46 
 
>  <cid> 
22922 
 
>  <dipole> 
0.73 
 
>  <excitation_energy_1> 
6.11 
 
>  <excitation_energy_2> 
6.476 
 
>  <excitation_energy_3> 
6.615 
 
>  <excitation_energy_4> 
6.702 
 
>  <homo_energy> 
-6.659 
 
>  <homo_lumo_gap> 
7.1 
 
>  <logP> 
1.324 
 
>  <lumo_energy> 
0.441 
 
>  <melting_point> 
-12.76 
 
>  <molecular_refractivity> 
35.34 
 
>  <oscillator_strength_1> 
0.0307 
 
>  <oscillator_strength_2> 
0.0153 
 
>  <oscillator_strength_3> 
0.006 
 
>  <oscillator_strength_4> 
0.0387 
 
>  <open_babel_can_smiles> 
C/C=C/[C@H]1OC[C@H](O1)C 
 
>  <mulliken_charges> 
21 
1   -0.48986 
2   -0.463878 
3   -0.094893 
4   -0.081231 
5   -0.023127 
6   0.123337 
7   0.332904 
8   -0.508964 
9   -0.505973 
10   0.160328 
11   0.157769 
12   0.159408 
13   0.147726 
14   0.164943 
15   0.158362 
16   0.128415 
17   0.127556 
18   0.138189 
19   0.13112 
20   0.124951 
21   0.112918 
 
>  <lowdin_charges> 
21 
1   -0.43973 
2   -0.445954 
3   -0.144898 
4   -0.180733 
5   -0.145724 
6   -0.007597 
7   0.111559 
8   -0.283472 
9   -0.264749 
10   0.160726 
11   0.158466 
12   0.159905 
13   0.157046 
14   0.161302 
15   0.1587 
16   0.151743 
17   0.158211 
18   0.14505 
19   0.136463 
20   0.130351 
21   0.123336 
 
$$$$ 
 
