PCCDB-ID:  62758 
public computational chemistry database (PCCDB) project, http://pccdb.org 
 
 30 32  0  0  0  0  0  0  0  0999 V2000 
    1.0234   -0.0350   -0.0274 C   0  0  0  0  0  0  0  0  0  0  0  0 
    6.8832   -0.3952   -0.0386 C   0  0  0  0  0  0  0  0  0  0  0  0 
    6.6717    5.0366   -0.0327 C   0  0  0  0  0  0  0  0  0  0  0  0 
    7.4447    3.8655   -0.0331 C   0  0  0  0  0  0  0  0  0  0  0  0 
    5.2983    4.9192   -0.0329 C   0  0  0  0  0  0  0  0  0  0  0  0 
    6.8451    2.6173   -0.0336 C   0  0  0  0  0  0  0  0  0  0  0  0 
    3.2058   -1.2536   -0.0320 C   0  0  0  0  0  0  0  0  0  0  0  0 
    4.6034   -1.2868   -0.0348 C   0  0  0  0  0  0  0  0  0  0  0  0 
    3.2387    3.5978   -0.0333 C   0  0  0  0  0  0  0  0  0  0  0  0 
    2.5920    2.4065   -0.0317 C   0  0  0  0  0  0  0  0  0  0  0  0 
    2.5359   -0.0476   -0.0303 C   0  0  0  0  0  0  0  0  0  0  0  0 
    5.3885   -0.1406   -0.0357 C   0  0  0  0  0  0  0  0  0  0  0  0 
    4.6649    3.6546   -0.0337 C   0  0  0  0  0  0  0  0  0  0  0  0 
    3.2998    1.1578   -0.0317 C   0  0  0  0  0  0  0  0  0  0  0  0 
    5.4347    2.4442   -0.0339 C   0  0  0  0  0  0  0  0  0  0  0  0 
    4.7410    1.1445   -0.0337 C   0  0  0  0  0  0  0  0  0  0  0  0 
    0.6369   -1.0584   -0.0278 H   0  0  0  0  0  0  0  0  0  0  0  0 
    0.6117    0.4731   -0.9085 H   0  0  0  0  0  0  0  0  0  0  0  0 
    0.6152    0.4712    0.8564 H   0  0  0  0  0  0  0  0  0  0  0  0 
    7.0676   -1.4735   -0.0409 H   0  0  0  0  0  0  0  0  0  0  0  0 
    7.3838    0.0122    0.8472 H   0  0  0  0  0  0  0  0  0  0  0  0 
    7.3809    0.0156   -0.9246 H   0  0  0  0  0  0  0  0  0  0  0  0 
    7.1457    6.0143   -0.0316 H   0  0  0  0  0  0  0  0  0  0  0  0 
    8.5296    3.9296   -0.0332 H   0  0  0  0  0  0  0  0  0  0  0  0 
    4.6693    5.8065   -0.0321 H   0  0  0  0  0  0  0  0  0  0  0  0 
    7.5033    1.7680   -0.0331 H   0  0  0  0  0  0  0  0  0  0  0  0 
    2.6465   -2.1860   -0.0311 H   0  0  0  0  0  0  0  0  0  0  0  0 
    5.0999   -2.2538   -0.0365 H   0  0  0  0  0  0  0  0  0  0  0  0 
    2.6813    4.5314   -0.0343 H   0  0  0  0  0  0  0  0  0  0  0  0 
    1.5084    2.3906   -0.0303 H   0  0  0  0  0  0  0  0  0  0  0  0 
  1 19  1  0  0  0  0 
  2 12  1  0  0  0  0 
  2 21  1  0  0  0  0 
  3 23  1  0  0  0  0 
  4  3  1  0  0  0  0 
  5  3  2  0  0  0  0 
  5 25  1  0  0  0  0 
  6 26  1  0  0  0  0 
  6  4  2  0  0  0  0 
  7 27  1  0  0  0  0 
  7 11  2  0  0  0  0 
  8  7  1  0  0  0  0 
  9 10  1  0  0  0  0 
 10 30  1  0  0  0  0 
 11  1  1  0  0  0  0 
 12  8  2  0  0  0  0 
 12 16  1  0  0  0  0 
 13  9  2  0  0  0  0 
 13  5  1  0  0  0  0 
 14 10  2  0  0  0  0 
 14 11  1  0  0  0  0 
 15 16  2  0  0  0  0 
 15 13  1  0  0  0  0 
 15  6  1  0  0  0  0 
 16 14  1  0  0  0  0 
 17  1  1  0  0  0  0 
 18  1  1  0  0  0  0 
 20  2  1  0  0  0  0 
 22  2  1  0  0  0  0 
 24  4  1  0  0  0  0 
 28  8  1  0  0  0  0 
 29  9  1  0  0  0  0 
M  END 
>  <HBA> 
0 
 
>  <HBD> 
0 
 
>  <TPSA> 
0.0 
 
>  <cid> 
62758 
 
>  <dipole> 
0.25 
 
>  <excitation_energy_1> 
3.9 
 
>  <excitation_energy_2> 
4.068 
 
>  <excitation_energy_3> 
4.656 
 
>  <excitation_energy_4> 
4.924 
 
>  <homo_energy> 
-5.535 
 
>  <homo_lumo_gap> 
4.572 
 
>  <logP> 
4.61 
 
>  <lumo_energy> 
-0.963 
 
>  <melting_point> 
102.67 
 
>  <molecular_refractivity> 
71.39 
 
>  <oscillator_strength_1> 
0.007 
 
>  <oscillator_strength_2> 
0.1253 
 
>  <oscillator_strength_3> 
0.1703 
 
>  <oscillator_strength_4> 
0.533 
 
>  <open_babel_can_smiles> 
Cc1ccc(c2c1ccc1c2cccc1)C 
 
>  <mulliken_charges> 
30 
1   -0.538428 
2   -0.552087 
3   -0.131374 
4   -0.137732 
5   -0.20282 
6   -0.201495 
7   -0.191427 
8   -0.20074 
9   -0.193544 
10   -0.202033 
11   0.1264 
12   0.147549 
13   0.140445 
14   0.073249 
15   0.065912 
16   0.014201 
17   0.155956 
18   0.16306 
19   0.163079 
20   0.154809 
21   0.169346 
22   0.169308 
23   0.128829 
24   0.126175 
25   0.127511 
26   0.128904 
27   0.120889 
28   0.119461 
29   0.127644 
30   0.128951 
 
>  <lowdin_charges> 
30 
1   -0.445119 
2   -0.445837 
3   -0.157933 
4   -0.158041 
5   -0.159459 
6   -0.170512 
7   -0.169951 
8   -0.168811 
9   -0.157937 
10   -0.161966 
11   -0.003104 
12   -0.000782 
13   0.000355 
14   -0.007995 
15   -0.001771 
16   -0.009754 
17   0.157107 
18   0.160044 
19   0.16004 
20   0.154156 
21   0.161072 
22   0.161099 
23   0.15782 
24   0.154612 
25   0.156982 
26   0.170272 
27   0.154723 
28   0.153684 
29   0.157183 
30   0.159825 
 
$$$$ 
 
