PCCDB-ID:  68236 
public computational chemistry database (PCCDB) project, http://pccdb.org 
 
 19 20  0  0  0  0  0  0  0  0999 V2000 
    1.0337    0.0782    0.1363 C   0  0  0  0  0  0  0  0  0  0  0  0 
    7.3566    1.1510   -0.2064 C   0  0  0  0  0  0  0  0  0  0  0  0 
    6.6694    2.3762   -0.1880 C   0  0  0  0  0  0  0  0  0  0  0  0 
    6.6471   -0.0407   -0.1544 C   0  0  0  0  0  0  0  0  0  0  0  0 
    5.2826    2.4132   -0.1180 C   0  0  0  0  0  0  0  0  0  0  0  0 
    2.5241    0.1598    0.0551 C   0  0  0  0  0  0  0  0  0  0  0  0 
    5.2465   -0.0127   -0.0833 C   0  0  0  0  0  0  0  0  0  0  0  0 
    4.5517    1.2156   -0.0645 C   0  0  0  0  0  0  0  0  0  0  0  0 
    4.4843   -1.2598   -0.0233 C   0  0  0  0  0  0  0  0  0  0  0  0 
    3.1604    1.2707    0.0063 N   0  0  0  0  0  0  0  0  0  0  0  0 
    4.9128   -2.3861   -0.0248 O   0  0  0  0  0  0  0  0  0  0  0  0 
    3.0946   -1.0851    0.0425 O   0  0  0  0  0  0  0  0  0  0  0  0 
    0.6128    1.0840    0.1362 H   0  0  0  0  0  0  0  0  0  0  0  0 
    0.7319   -0.4492    1.0483 H   0  0  0  0  0  0  0  0  0  0  0  0 
    0.6374   -0.4899   -0.7128 H   0  0  0  0  0  0  0  0  0  0  0  0 
    8.4410    1.1373   -0.2616 H   0  0  0  0  0  0  0  0  0  0  0  0 
    7.2290    3.3067   -0.2287 H   0  0  0  0  0  0  0  0  0  0  0  0 
    7.1487   -1.0030   -0.1661 H   0  0  0  0  0  0  0  0  0  0  0  0 
    4.7372    3.3513   -0.1033 H   0  0  0  0  0  0  0  0  0  0  0  0 
  1 14  1  0  0  0  0 
  2  3  2  0  0  0  0 
  2  4  1  0  0  0  0 
  3  5  1  0  0  0  0 
  4  7  2  0  0  0  0 
  5 19  1  0  0  0  0 
  5  8  2  0  0  0  0 
  6  1  1  0  0  0  0 
  7  8  1  0  0  0  0 
  7  9  1  0  0  0  0 
  8 10  1  0  0  0  0 
  9 12  1  0  0  0  0 
 10  6  2  0  0  0  0 
 11  9  2  0  0  0  0 
 12  6  1  0  0  0  0 
 13  1  1  0  0  0  0 
 15  1  1  0  0  0  0 
 16  2  1  0  0  0  0 
 17  3  1  0  0  0  0 
 18  4  1  0  0  0  0 
M  END 
>  <HBA> 
3 
 
>  <HBD> 
0 
 
>  <TPSA> 
43.1 
 
>  <cid> 
68236 
 
>  <dipole> 
2.68 
 
>  <excitation_energy_1> 
4.401 
 
>  <excitation_energy_2> 
4.866 
 
>  <excitation_energy_3> 
4.913 
 
>  <excitation_energy_4> 
5.037 
 
>  <homo_energy> 
-6.667 
 
>  <homo_lumo_gap> 
5.094 
 
>  <logP> 
1.496 
 
>  <lumo_energy> 
-1.573 
 
>  <melting_point> 
102.67 
 
>  <molecular_refractivity> 
45.24 
 
>  <oscillator_strength_1> 
0.0755 
 
>  <oscillator_strength_2> 
0.0001 
 
>  <oscillator_strength_3> 
0.0808 
 
>  <oscillator_strength_4> 
0.0002 
 
>  <open_babel_can_smiles> 
Cc1nc2ccccc2c(=O)o1 
 
>  <mulliken_charges> 
19 
1   -0.514829 
2   -0.133657 
3   -0.125057 
4   -0.171831 
5   -0.158785 
6   0.50658 
7   0.0531 
8   0.238461 
9   0.568643 
10   -0.512619 
11   -0.450898 
12   -0.471089 
13   0.189558 
14   0.185958 
15   0.185803 
16   0.144131 
17   0.144819 
18   0.170292 
19   0.151422 
 
>  <lowdin_charges> 
19 
1   -0.444223 
2   -0.153478 
3   -0.131959 
4   -0.122158 
5   -0.156407 
6   0.159292 
7   -0.071891 
8   0.053601 
9   0.204362 
10   -0.181515 
11   -0.229325 
12   -0.146977 
13   0.179827 
14   0.178997 
15   0.179313 
16   0.16335 
17   0.165936 
18   0.179954 
19   0.1733 
 
$$$$ 
 
