PCCDB-ID:  69708 
public computational chemistry database (PCCDB) project, http://pccdb.org 
 
 30 30  0  0  1  0  0  0  0  0999 V2000 
    1.0148   -0.6244   -0.3390 C   0  0  0  0  0  0  0  0  0  0  0  0 
    3.0003    0.6515   -1.2029 C   0  0  0  0  0  0  0  0  0  0  0  0 
    1.9575    1.2860    3.5148 C   0  0  0  0  0  0  0  0  0  0  0  0 
    4.1420    1.6193    2.3330 C   0  0  0  0  0  0  0  0  0  0  0  0 
    3.2881   -0.9507    0.7690 C   0  0  0  0  0  0  0  0  0  0  0  0 
    3.0424   -0.7101    2.2620 C   0  0  1  0  0  0  0  0  0  0  0  0 
    4.0880   -1.2595    3.2208 C   0  0  0  0  0  0  0  0  0  0  0  0 
    2.3405    0.0527    0.0497 C   0  0  0  0  0  0  0  0  0  0  0  0 
    2.8102    0.8459    2.3189 C   0  0  0  0  0  0  0  0  0  0  0  0 
    5.2763   -1.6378    2.9858 N   0  0  0  0  0  0  0  0  0  0  0  0 
    2.0885    1.1273    1.0564 N   0  0  0  0  0  0  0  0  0  0  0  0 
    3.6801   -1.3117    4.5274 O   0  0  0  0  0  0  0  0  0  0  0  0 
    1.1656   -1.3632   -1.1342 H   0  0  0  0  0  0  0  0  0  0  0  0 
    0.2981    0.1191   -0.7099 H   0  0  0  0  0  0  0  0  0  0  0  0 
    0.5592   -1.1380    0.5168 H   0  0  0  0  0  0  0  0  0  0  0  0 
    3.2668   -0.1320   -1.9237 H   0  0  0  0  0  0  0  0  0  0  0  0 
    3.9093    1.1995   -0.9349 H   0  0  0  0  0  0  0  0  0  0  0  0 
    2.3214    1.3554   -1.6967 H   0  0  0  0  0  0  0  0  0  0  0  0 
    2.4978    1.1486    4.4572 H   0  0  0  0  0  0  0  0  0  0  0  0 
    1.0165    0.7207    3.5647 H   0  0  0  0  0  0  0  0  0  0  0  0 
    1.7069    2.3494    3.4317 H   0  0  0  0  0  0  0  0  0  0  0  0 
    4.7129    1.4239    3.2471 H   0  0  0  0  0  0  0  0  0  0  0  0 
    3.9353    2.6920    2.2670 H   0  0  0  0  0  0  0  0  0  0  0  0 
    4.7727    1.3551    1.4786 H   0  0  0  0  0  0  0  0  0  0  0  0 
    3.0980   -1.9875    0.4730 H   0  0  0  0  0  0  0  0  0  0  0  0 
    4.3306   -0.7299    0.5104 H   0  0  0  0  0  0  0  0  0  0  0  0 
    2.0813   -1.1810    2.5251 H   0  0  0  0  0  0  0  0  0  0  0  0 
    5.4871   -1.5482    1.9921 H   0  0  0  0  0  0  0  0  0  0  0  0 
    1.0903    1.1886    1.2431 H   0  0  0  0  0  0  0  0  0  0  0  0 
    2.7389   -1.0885    4.5772 H   0  0  0  0  0  0  0  0  0  0  0  0 
  1  8  1  0  0  0  0 
  1 15  1  0  0  0  0 
  2 17  1  0  0  0  0 
  2  8  1  0  0  0  0 
  3 20  1  0  0  0  0 
  3 19  1  0  0  0  0 
  4 22  1  0  0  0  0 
  5  6  1  0  0  0  0 
  6  9  1  0  0  0  0 
  6 27  1  1  0  0  0 
  6  7  1  0  0  0  0 
  7 12  1  0  0  0  0 
  8  5  1  0  0  0  0 
  8 11  1  0  0  0  0 
  9  4  1  0  0  0  0 
  9  3  1  0  0  0  0 
 10  7  2  0  0  0  0 
 11 29  1  0  0  0  0 
 11  9  1  0  0  0  0 
 12 30  1  0  0  0  0 
 13  1  1  0  0  0  0 
 14  1  1  0  0  0  0 
 16  2  1  0  0  0  0 
 18  2  1  0  0  0  0 
 21  3  1  0  0  0  0 
 23  4  1  0  0  0  0 
 24  4  1  0  0  0  0 
 25  5  1  0  0  0  0 
 26  5  1  0  0  0  0 
 28 10  1  0  0  0  0 
M  END 
>  <HBA> 
3 
 
>  <HBD> 
2 
 
>  <TPSA> 
55.12 
 
>  <cid> 
69708 
 
>  <dipole> 
4.42 
 
>  <excitation_energy_1> 
5.238 
 
>  <excitation_energy_2> 
5.668 
 
>  <excitation_energy_3> 
5.873 
 
>  <excitation_energy_4> 
6.051 
 
>  <homo_energy> 
-6.106 
 
>  <homo_lumo_gap> 
6.759 
 
>  <logP> 
1.667 
 
>  <lumo_energy> 
0.653 
 
>  <melting_point> 
118.89 
 
>  <molecular_refractivity> 
52.96 
 
>  <oscillator_strength_1> 
0.017 
 
>  <oscillator_strength_2> 
0.0326 
 
>  <oscillator_strength_3> 
0.0056 
 
>  <oscillator_strength_4> 
0.0004 
 
>  <open_babel_can_smiles> 
OC(=N)[C@@H]1CC(NC1(C)C)(C)C 
 
>  <mulliken_charges> 
30 
1   -0.478957 
2   -0.433016 
3   -0.503532 
4   -0.441766 
5   -0.322036 
6   -0.210417 
7   0.499247 
8   0.244589 
9   0.223988 
10   -0.598581 
11   -0.588173 
12   -0.585125 
13   0.151843 
14   0.149271 
15   0.139504 
16   0.132992 
17   0.148728 
18   0.144785 
19   0.160732 
20   0.13189 
21   0.166121 
22   0.159766 
23   0.152503 
24   0.144231 
25   0.153543 
26   0.142025 
27   0.124041 
28   0.289276 
29   0.29524 
30   0.407289 
 
>  <lowdin_charges> 
30 
1   -0.456164 
2   -0.446962 
3   -0.458549 
4   -0.450402 
5   -0.286468 
6   -0.177201 
7   0.124815 
8   0.07084 
9   0.069133 
10   -0.393352 
11   -0.358055 
12   -0.367684 
13   0.155675 
14   0.152526 
15   0.145778 
16   0.145207 
17   0.153001 
18   0.153373 
19   0.158671 
20   0.141321 
21   0.160863 
22   0.157996 
23   0.155999 
24   0.150931 
25   0.15517 
26   0.144935 
27   0.142659 
28   0.254311 
29   0.252003 
30   0.349628 
 
$$$$ 
 
