PCCDB-ID:  12576 
public computational chemistry database (PCCDB) project, http://pccdb.org 
 
 18 18  0  0  0  0  0  0  0  0999 V2000 
   -0.7504    1.1946    0.2437 C   0  0  0  0  0  0  0  0  0  0  0  0 
   -1.3868   -0.0448    0.1600 C   0  0  0  0  0  0  0  0  0  0  0  0 
    0.6296    1.2881    0.0785 C   0  0  0  0  0  0  0  0  0  0  0  0 
    0.7366   -1.1289   -0.2401 C   0  0  0  0  0  0  0  0  0  0  0  0 
   -0.6501   -1.2171   -0.0769 C   0  0  0  0  0  0  0  0  0  0  0  0 
    1.3471    0.1178   -0.1626 C   0  0  0  0  0  0  0  0  0  0  0  0 
   -1.3277   -2.5526   -0.1314 C   0  0  0  0  0  0  0  0  0  0  0  0 
   -0.8921   -3.6506    0.3343 N   0  0  0  0  0  0  0  0  0  0  0  0 
    2.8092    0.2037   -0.3456 N   0  0  0  0  0  0  0  0  0  0  0  0 
   -2.5617   -2.5588   -0.7135 O   0  0  0  0  0  0  0  0  0  0  0  0 
    3.3250    1.3176   -0.2767 O   0  0  0  0  0  0  0  0  0  0  0  0 
    3.4188   -0.8435   -0.5534 O   0  0  0  0  0  0  0  0  0  0  0  0 
   -1.3312    2.0900    0.4425 H   0  0  0  0  0  0  0  0  0  0  0  0 
   -2.4613   -0.1092    0.3084 H   0  0  0  0  0  0  0  0  0  0  0  0 
    1.1524    2.2349    0.1325 H   0  0  0  0  0  0  0  0  0  0  0  0 
    1.3383   -2.0074   -0.4410 H   0  0  0  0  0  0  0  0  0  0  0  0 
   -0.0031   -3.5066    0.8150 H   0  0  0  0  0  0  0  0  0  0  0  0 
   -2.6600   -1.7677   -1.2657 H   0  0  0  0  0  0  0  0  0  0  0  0 
  1 13  1  0  0  0  0 
  2  1  1  0  0  0  0 
  2 14  1  0  0  0  0 
  3 15  1  0  0  0  0 
  3  1  2  0  0  0  0 
  4  6  2  0  0  0  0 
  4  5  1  0  0  0  0 
  5  2  2  0  0  0  0 
  6  3  1  0  0  0  0 
  7  5  1  0  0  0  0 
  7  8  2  0  0  0  0 
  8 17  1  0  0  0  0 
  9 11  2  0  0  0  0 
  9  6  1  0  0  0  0 
 10  7  1  0  0  0  0 
 12  9  2  0  0  0  0 
 16  4  1  0  0  0  0 
 18 10  1  0  0  0  0 
M  END 
>  <HBA> 
2 
 
>  <HBD> 
1 
 
>  <TPSA> 
88.91 
 
>  <cid> 
12576 
 
>  <dipole> 
4.69 
 
>  <excitation_energy_1> 
3.729 
 
>  <excitation_energy_2> 
3.871 
 
>  <excitation_energy_3> 
4.129 
 
>  <excitation_energy_4> 
4.24 
 
>  <homo_energy> 
-7.44 
 
>  <homo_lumo_gap> 
4.577 
 
>  <logP> 
1.917 
 
>  <lumo_energy> 
-2.863 
 
>  <melting_point> 
132.92 
 
>  <molecular_refractivity> 
43.36 
 
>  <oscillator_strength_1> 
0.0 
 
>  <oscillator_strength_2> 
0.0147 
 
>  <oscillator_strength_3> 
0.0039 
 
>  <oscillator_strength_4> 
0.0004 
 
>  <open_babel_can_smiles> 
OC(=N)c1cccc(c1)N(=O)=O 
 
>  <mulliken_charges> 
18 
1   -0.138949 
2   -0.167724 
3   -0.141637 
4   -0.195602 
5   0.049866 
6   0.269792 
7   0.432298 
8   -0.566129 
9   0.386333 
10   -0.572303 
11   -0.387235 
12   -0.385996 
13   0.161144 
14   0.162629 
15   0.192588 
16   0.197279 
17   0.295037 
18   0.408609 
 
>  <lowdin_charges> 
18 
1   -0.141848 
2   -0.14134 
3   -0.130281 
4   -0.135827 
5   -0.041802 
6   0.009223 
7   0.124803 
8   -0.37079 
9   0.30894 
10   -0.359068 
11   -0.238002 
12   -0.237862 
13   0.174398 
14   0.170813 
15   0.192874 
16   0.194795 
17   0.263101 
18   0.357876 
 
$$$$ 
 
