PCCDB-ID:  47198 
public computational chemistry database (PCCDB) project, http://pccdb.org 
 
 24 24  0  0  0  0  0  0  0  0999 V2000 
   -0.1855    1.8876    0.4759 C   0  0  0  0  0  0  0  0  0  0  0  0 
    3.1996    3.5866   -0.0033 C   0  0  0  0  0  0  0  0  0  0  0  0 
    1.8292    3.3994    0.2061 C   0  0  0  0  0  0  0  0  0  0  0  0 
    4.0504    2.4977   -0.1418 C   0  0  0  0  0  0  0  0  0  0  0  0 
    2.1556    1.0080    0.1359 C   0  0  0  0  0  0  0  0  0  0  0  0 
    3.9782   -1.1620   -0.1308 C   0  0  0  0  0  0  0  0  0  0  0  0 
    1.2961    2.1108    0.2749 C   0  0  0  0  0  0  0  0  0  0  0  0 
    3.5232    1.2010   -0.0695 C   0  0  0  0  0  0  0  0  0  0  0  0 
    5.1733   -2.0996   -0.2471 C   0  0  0  0  0  0  0  0  0  0  0  0 
    5.1373   -3.2684   -0.7707 N   0  0  0  0  0  0  0  0  0  0  0  0 
    6.3070   -1.6344    0.3779 N   0  0  0  0  0  0  0  0  0  0  0  0 
    4.4336    0.1838   -0.2151 O   0  0  0  0  0  0  0  0  0  0  0  0 
   -0.6878    2.8078    0.7895 H   0  0  0  0  0  0  0  0  0  0  0  0 
   -0.3776    1.1225    1.2372 H   0  0  0  0  0  0  0  0  0  0  0  0 
   -0.6667    1.5481   -0.4508 H   0  0  0  0  0  0  0  0  0  0  0  0 
    3.6064    4.5930   -0.0555 H   0  0  0  0  0  0  0  0  0  0  0  0 
    1.1740    4.2595    0.3157 H   0  0  0  0  0  0  0  0  0  0  0  0 
    5.1163    2.6234   -0.3039 H   0  0  0  0  0  0  0  0  0  0  0  0 
    1.7387    0.0078    0.1893 H   0  0  0  0  0  0  0  0  0  0  0  0 
    3.4795   -1.3305    0.8352 H   0  0  0  0  0  0  0  0  0  0  0  0 
    3.2643   -1.3800   -0.9350 H   0  0  0  0  0  0  0  0  0  0  0  0 
    4.2048   -3.4687   -1.1378 H   0  0  0  0  0  0  0  0  0  0  0  0 
    6.4190   -0.6298    0.3989 H   0  0  0  0  0  0  0  0  0  0  0  0 
    7.1441   -2.1654    0.1726 H   0  0  0  0  0  0  0  0  0  0  0  0 
  1 13  1  0  0  0  0 
  1 14  1  0  0  0  0 
  2  3  2  0  0  0  0 
  3  7  1  0  0  0  0 
  3 17  1  0  0  0  0 
  4  8  2  0  0  0  0 
  4  2  1  0  0  0  0 
  5 19  1  0  0  0  0 
  5  7  2  0  0  0  0 
  6 20  1  0  0  0  0 
  7  1  1  0  0  0  0 
  8  5  1  0  0  0  0 
  9  6  1  0  0  0  0 
  9 11  2  0  0  0  0 
 10  9  1  0  0  0  0 
 11 23  1  0  0  0  0 
 12  6  1  0  0  0  0 
 12  8  1  0  0  0  0 
 15  1  1  0  0  0  0 
 16  2  1  0  0  0  0 
 18  4  1  0  0  0  0 
 21  6  1  0  0  0  0 
 22 10  1  0  0  0  0 
 24 11  1  0  0  0  0 
M  RAD  1  10   2 
M  END 
>  <HBA> 
3 
 
>  <HBD> 
2 
 
>  <TPSA> 
59.1 
 
>  <cid> 
47198 
 
>  <dipole> 
2.54 
 
>  <excitation_energy_1> 
5.017 
 
>  <excitation_energy_2> 
5.558 
 
>  <excitation_energy_3> 
5.667 
 
>  <excitation_energy_4> 
5.701 
 
>  <homo_energy> 
-6.095 
 
>  <homo_lumo_gap> 
5.954 
 
>  <logP> 
2.11 
 
>  <lumo_energy> 
-0.142 
 
>  <melting_point> 
98.14 
 
>  <molecular_refractivity> 
49.01 
 
>  <oscillator_strength_1> 
0.0344 
 
>  <oscillator_strength_2> 
0.0064 
 
>  <oscillator_strength_3> 
0.0262 
 
>  <oscillator_strength_4> 
0.0363 
 
>  <open_babel_can_smiles> 
[NH]C(=[NH2])COc1cccc(c1)C 
 
>  <mulliken_charges> 
24 
1   -0.529603 
2   -0.130014 
3   -0.185334 
4   -0.178879 
5   -0.245419 
6   -0.089276 
7   0.170702 
8   0.387606 
9   0.420742 
10   -0.621597 
11   -0.729125 
12   -0.5414 
13   0.158088 
14   0.159523 
15   0.165773 
16   0.132092 
17   0.121199 
18   0.132763 
19   0.128611 
20   0.170561 
21   0.152019 
22   0.274011 
23   0.34339 
24   0.333569 
 
>  <lowdin_charges> 
24 
1   -0.443184 
2   -0.142963 
3   -0.188403 
4   -0.186076 
5   -0.221461 
6   -0.147546 
7   0.013642 
8   0.10329 
9   0.081839 
10   -0.437098 
11   -0.469477 
12   -0.209362 
13   0.159076 
14   0.160003 
15   0.162512 
16   0.159089 
17   0.156002 
18   0.162363 
19   0.159275 
20   0.158127 
21   0.15129 
22   0.248185 
23   0.284508 
24   0.286371 
 
$$$$ 
 
