PCCDB-ID:  12323 
public computational chemistry database (PCCDB) project, http://pccdb.org 
 
 24 23  0  0  1  0  0  0  0  0999 V2000 
    1.0482   -0.0865   -0.0633 C   0  0  0  0  0  0  0  0  0  0  0  0 
    3.0257    0.1059   -1.6186 C   0  0  0  0  0  0  0  0  0  0  0  0 
    6.7380    1.9875    2.0722 C   0  0  0  0  0  0  0  0  0  0  0  0 
    3.1643    1.0114    0.7732 C   0  0  0  0  0  0  0  0  0  0  0  0 
    4.6906    0.9921    0.9242 C   0  0  0  0  0  0  0  0  0  0  0  0 
    2.5815   -0.0700   -0.1580 C   0  0  0  0  0  0  0  0  0  0  0  0 
    5.2225    2.0723    1.8782 C   0  0  2  0  0  0  0  0  0  0  0  0 
    4.8359    3.3849    1.4556 O   0  0  0  0  0  0  0  0  0  0  0  0 
    0.6179   -0.8697   -0.6988 H   0  0  0  0  0  0  0  0  0  0  0  0 
    0.6258    0.8739   -0.3870 H   0  0  0  0  0  0  0  0  0  0  0  0 
    0.7131   -0.2664    0.9652 H   0  0  0  0  0  0  0  0  0  0  0  0 
    2.5900   -0.6720   -2.2569 H   0  0  0  0  0  0  0  0  0  0  0  0 
    4.1140    0.0497   -1.7306 H   0  0  0  0  0  0  0  0  0  0  0  0 
    2.6983    1.0782   -2.0105 H   0  0  0  0  0  0  0  0  0  0  0  0 
    7.0347    1.0184    2.4904 H   0  0  0  0  0  0  0  0  0  0  0  0 
    7.0793    2.7775    2.7486 H   0  0  0  0  0  0  0  0  0  0  0  0 
    7.2603    2.1093    1.1131 H   0  0  0  0  0  0  0  0  0  0  0  0 
    2.8530    2.0046    0.4234 H   0  0  0  0  0  0  0  0  0  0  0  0 
    2.7173    0.8907    1.7710 H   0  0  0  0  0  0  0  0  0  0  0  0 
    5.1773    1.1282   -0.0537 H   0  0  0  0  0  0  0  0  0  0  0  0 
    5.0161    0.0073    1.2902 H   0  0  0  0  0  0  0  0  0  0  0  0 
    2.9491   -1.0482    0.1906 H   0  0  0  0  0  0  0  0  0  0  0  0 
    4.7313    1.9552    2.8527 H   0  0  0  0  0  0  0  0  0  0  0  0 
    5.2588    3.5434    0.5954 H   0  0  0  0  0  0  0  0  0  0  0  0 
  1 11  1  0  0  0  0 
  2  6  1  0  0  0  0 
  3 15  1  0  0  0  0 
  3 16  1  0  0  0  0 
  4  5  1  0  0  0  0 
  4 19  1  0  0  0  0 
  5 21  1  0  0  0  0 
  5  7  1  0  0  0  0 
  6  1  1  0  0  0  0 
  6 22  1  0  0  0  0 
  6  4  1  0  0  0  0 
  7  3  1  0  0  0  0 
  7 23  1  1  0  0  0 
  8  7  1  0  0  0  0 
  9  1  1  0  0  0  0 
 10  1  1  0  0  0  0 
 12  2  1  0  0  0  0 
 13  2  1  0  0  0  0 
 14  2  1  0  0  0  0 
 17  3  1  0  0  0  0 
 18  4  1  0  0  0  0 
 20  5  1  0  0  0  0 
 24  8  1  0  0  0  0 
M  END 
>  <HBA> 
1 
 
>  <HBD> 
1 
 
>  <TPSA> 
20.23 
 
>  <cid> 
12323 
 
>  <dipole> 
1.56 
 
>  <excitation_energy_1> 
6.575 
 
>  <excitation_energy_2> 
7.084 
 
>  <excitation_energy_3> 
7.265 
 
>  <excitation_energy_4> 
7.355 
 
>  <homo_energy> 
-7.072 
 
>  <homo_lumo_gap> 
9.042 
 
>  <logP> 
1.803 
 
>  <lumo_energy> 
1.97 
 
>  <melting_point> 
-8.61 
 
>  <molecular_refractivity> 
36.92 
 
>  <oscillator_strength_1> 
0.0171 
 
>  <oscillator_strength_2> 
0.0005 
 
>  <oscillator_strength_3> 
0.0235 
 
>  <oscillator_strength_4> 
0.0012 
 
>  <open_babel_can_smiles> 
CC(CC[C@H](O)C)C 
 
>  <mulliken_charges> 
24 
1   -0.441422 
2   -0.445373 
3   -0.456275 
4   -0.243059 
5   -0.274815 
6   -0.065392 
7   0.1374 
8   -0.618275 
9   0.13765 
10   0.139721 
11   0.139395 
12   0.139979 
13   0.140915 
14   0.137667 
15   0.142549 
16   0.157843 
17   0.130225 
18   0.14038 
19   0.124372 
20   0.118199 
21   0.127455 
22   0.116766 
23   0.134357 
24   0.379738 
 
>  <lowdin_charges> 
24 
1   -0.444364 
2   -0.446406 
3   -0.461222 
4   -0.275621 
5   -0.293372 
6   -0.119383 
7   0.003269 
8   -0.465302 
9   0.147716 
10   0.146016 
11   0.146273 
12   0.14937 
13   0.144296 
14   0.14468 
15   0.152511 
16   0.158967 
17   0.142482 
18   0.145386 
19   0.139369 
20   0.133981 
21   0.142669 
22   0.132105 
23   0.140679 
24   0.335901 
 
$$$$ 
 
