PCCDB-ID:  28673 
public computational chemistry database (PCCDB) project, http://pccdb.org 
 
 20 20  0  0  1  0  0  0  0  0999 V2000 
    0.8783    0.0441    0.1821 C   0  0  0  0  0  0  0  0  0  0  0  0 
    2.6682   -0.6736   -1.4741 C   0  0  0  0  0  0  0  0  0  0  0  0 
    4.9742    1.8612   -1.1672 C   0  0  0  0  0  0  0  0  0  0  0  0 
    4.1930    3.1648   -1.3091 C   0  0  0  0  0  0  0  0  0  0  0  0 
    2.3842   -0.0713   -0.0935 C   0  0  0  0  0  0  0  0  0  0  0  0 
    3.0903    1.2725    0.1625 C   0  0  1  0  0  0  0  0  0  0  0  0 
    4.4996    1.1972   -0.0011 O   0  0  0  0  0  0  0  0  0  0  0  0 
    2.4696    2.6716   -0.9281 S   0  0  0  0  0  0  0  0  0  0  0  0 
    0.4026   -0.9418    0.1377 H   0  0  0  0  0  0  0  0  0  0  0  0 
    0.3876    0.6823   -0.5628 H   0  0  0  0  0  0  0  0  0  0  0  0 
    0.6781    0.4670    1.1743 H   0  0  0  0  0  0  0  0  0  0  0  0 
    2.1918   -1.6569   -1.5615 H   0  0  0  0  0  0  0  0  0  0  0  0 
    3.7432   -0.8093   -1.6299 H   0  0  0  0  0  0  0  0  0  0  0  0 
    2.2776   -0.0363   -2.2748 H   0  0  0  0  0  0  0  0  0  0  0  0 
    6.0442    2.0323   -1.0114 H   0  0  0  0  0  0  0  0  0  0  0  0 
    4.8404    1.2394   -2.0630 H   0  0  0  0  0  0  0  0  0  0  0  0 
    4.2397    3.5671   -2.3245 H   0  0  0  0  0  0  0  0  0  0  0  0 
    4.5425    3.9225   -0.6015 H   0  0  0  0  0  0  0  0  0  0  0  0 
    2.8154   -0.7476    0.6602 H   0  0  0  0  0  0  0  0  0  0  0  0 
    2.9143    1.5630    1.2045 H   0  0  0  0  0  0  0  0  0  0  0  0 
  1 11  1  0  0  0  0 
  2  5  1  0  0  0  0 
  3 15  1  0  0  0  0 
  3  7  1  0  0  0  0 
  4  3  1  0  0  0  0 
  4  8  1  0  0  0  0 
  4 18  1  0  0  0  0 
  5  6  1  0  0  0  0 
  5  1  1  0  0  0  0 
  5 19  1  0  0  0  0 
  6 20  1  1  0  0  0 
  7  6  1  0  0  0  0 
  8  6  1  0  0  0  0 
  9  1  1  0  0  0  0 
 10  1  1  0  0  0  0 
 12  2  1  0  0  0  0 
 13  2  1  0  0  0  0 
 14  2  1  0  0  0  0 
 16  3  1  0  0  0  0 
 17  4  1  0  0  0  0 
M  END 
>  <HBA> 
2 
 
>  <HBD> 
0 
 
>  <TPSA> 
34.53 
 
>  <cid> 
28673 
 
>  <dipole> 
1.03 
 
>  <excitation_energy_1> 
5.026 
 
>  <excitation_energy_2> 
5.595 
 
>  <excitation_energy_3> 
5.908 
 
>  <excitation_energy_4> 
6.043 
 
>  <homo_energy> 
-6.046 
 
>  <homo_lumo_gap> 
6.705 
 
>  <logP> 
1.732 
 
>  <lumo_energy> 
0.659 
 
>  <melting_point> 
-3.96 
 
>  <molecular_refractivity> 
37.52 
 
>  <oscillator_strength_1> 
0.0004 
 
>  <oscillator_strength_2> 
0.0138 
 
>  <oscillator_strength_3> 
0.0074 
 
>  <oscillator_strength_4> 
0.0081 
 
>  <open_babel_can_smiles> 
CC([C@H]1OCCS1)C 
 
>  <mulliken_charges> 
20 
1   -0.46264 
2   -0.453831 
3   -0.025628 
4   -0.431703 
5   -0.075823 
6   -0.00415 
7   -0.469038 
8   0.049761 
9   0.147725 
10   0.164391 
11   0.144369 
12   0.141153 
13   0.152229 
14   0.160809 
15   0.155579 
16   0.14498 
17   0.178617 
18   0.182217 
19   0.140276 
20   0.160707 
 
>  <lowdin_charges> 
20 
1   -0.448518 
2   -0.449533 
3   -0.132705 
4   -0.383565 
5   -0.134756 
6   -0.084545 
7   -0.265269 
8   0.052815 
9   0.153305 
10   0.159202 
11   0.149461 
12   0.150126 
13   0.151814 
14   0.157316 
15   0.152862 
16   0.139328 
17   0.171505 
18   0.162472 
19   0.149088 
20   0.149597 
 
$$$$ 
 
