PCCDB-ID:  7199 
public computational chemistry database (PCCDB) project, http://pccdb.org 
 
 26 26  0  0  1  0  0  0  0  0999 V2000 
    1.2967   -0.8506   -0.5687 C   0  0  0  0  0  0  0  0  0  0  0  0 
    2.7534   -0.7137   -1.0226 C   0  0  0  0  0  0  0  0  0  0  0  0 
    7.0664    2.0333   -0.5681 C   0  0  0  0  0  0  0  0  0  0  0  0 
    7.9353    0.8454   -0.1341 C   0  0  0  0  0  0  0  0  0  0  0  0 
    3.5256    0.3462   -0.2245 C   0  0  0  0  0  0  0  0  0  0  0  0 
    5.6065    1.8508   -0.1312 C   0  0  0  0  0  0  0  0  0  0  0  0 
    7.3537   -0.4901   -0.6454 C   0  0  0  0  0  0  0  0  0  0  0  0 
    4.9845    0.5316   -0.6629 C   0  0  1  0  0  0  0  0  0  0  0  0 
    5.8896   -0.6339   -0.2481 C   0  0  0  0  0  0  0  0  0  0  0  0 
    5.4880   -1.5908    0.3893 O   0  0  0  0  0  0  0  0  0  0  0  0 
    0.7660   -1.6100   -1.1543 H   0  0  0  0  0  0  0  0  0  0  0  0 
    0.7527    0.0960   -0.6795 H   0  0  0  0  0  0  0  0  0  0  0  0 
    1.2384   -1.1443    0.4865 H   0  0  0  0  0  0  0  0  0  0  0  0 
    2.7790   -0.4520   -2.0908 H   0  0  0  0  0  0  0  0  0  0  0  0 
    3.2612   -1.6789   -0.9211 H   0  0  0  0  0  0  0  0  0  0  0  0 
    7.1089    2.1369   -1.6624 H   0  0  0  0  0  0  0  0  0  0  0  0 
    7.4684    2.9654   -0.1518 H   0  0  0  0  0  0  0  0  0  0  0  0 
    7.9887    0.8145    0.9630 H   0  0  0  0  0  0  0  0  0  0  0  0 
    8.9642    0.9638   -0.4945 H   0  0  0  0  0  0  0  0  0  0  0  0 
    3.5078    0.0813    0.8404 H   0  0  0  0  0  0  0  0  0  0  0  0 
    3.0092    1.3124   -0.3194 H   0  0  0  0  0  0  0  0  0  0  0  0 
    4.9964    2.6942   -0.4780 H   0  0  0  0  0  0  0  0  0  0  0  0 
    5.5468    1.8544    0.9670 H   0  0  0  0  0  0  0  0  0  0  0  0 
    7.9047   -1.3515   -0.2569 H   0  0  0  0  0  0  0  0  0  0  0  0 
    7.4177   -0.5120   -1.7437 H   0  0  0  0  0  0  0  0  0  0  0  0 
    5.0291    0.5824   -1.7642 H   0  0  0  0  0  0  0  0  0  0  0  0 
  1 13  1  0  0  0  0 
  2 15  1  0  0  0  0 
  2  1  1  0  0  0  0 
  2  5  1  0  0  0  0 
  3 17  1  0  0  0  0 
  3  4  1  0  0  0  0 
  3  6  1  0  0  0  0 
  4 18  1  0  0  0  0 
  5 20  1  0  0  0  0 
  6 23  1  0  0  0  0 
  7 24  1  0  0  0  0 
  7  9  1  0  0  0  0 
  7  4  1  0  0  0  0 
  8 26  1  6  0  0  0 
  8  9  1  0  0  0  0 
  8  5  1  0  0  0  0 
  8  6  1  0  0  0  0 
  9 10  2  0  0  0  0 
 11  1  1  0  0  0  0 
 12  1  1  0  0  0  0 
 14  2  1  0  0  0  0 
 16  3  1  0  0  0  0 
 19  4  1  0  0  0  0 
 21  5  1  0  0  0  0 
 22  6  1  0  0  0  0 
 25  7  1  0  0  0  0 
M  END 
>  <HBA> 
1 
 
>  <HBD> 
0 
 
>  <TPSA> 
17.07 
 
>  <cid> 
7199 
 
>  <dipole> 
2.84 
 
>  <excitation_energy_1> 
4.195 
 
>  <excitation_energy_2> 
6.056 
 
>  <excitation_energy_3> 
6.358 
 
>  <excitation_energy_4> 
6.418 
 
>  <homo_energy> 
-6.387 
 
>  <homo_lumo_gap> 
6.038 
 
>  <logP> 
2.546 
 
>  <lumo_energy> 
-0.348 
 
>  <melting_point> 
15.41 
 
>  <molecular_refractivity> 
43.46 
 
>  <oscillator_strength_1> 
0.0 
 
>  <oscillator_strength_2> 
0.0027 
 
>  <oscillator_strength_3> 
0.0023 
 
>  <oscillator_strength_4> 
0.0159 
 
>  <open_babel_can_smiles> 
CCC[C@H]1CCCCC1=O 
 
>  <mulliken_charges> 
26 
1   -0.442739 
2   -0.259289 
3   -0.265775 
4   -0.269737 
5   -0.243782 
6   -0.272834 
7   -0.338256 
8   -0.169184 
9   0.44958 
10   -0.451573 
11   0.140924 
12   0.136194 
13   0.146201 
14   0.120075 
15   0.159462 
16   0.13272 
17   0.140284 
18   0.145997 
19   0.143239 
20   0.145398 
21   0.121411 
22   0.141922 
23   0.141872 
24   0.161771 
25   0.150484 
26   0.135636 
 
>  <lowdin_charges> 
26 
1   -0.443593 
2   -0.274007 
3   -0.277828 
4   -0.270152 
5   -0.27054 
6   -0.272397 
7   -0.305164 
8   -0.159056 
9   0.160069 
10   -0.236972 
11   0.15028 
12   0.143146 
13   0.147311 
14   0.131442 
15   0.153073 
16   0.137683 
17   0.149687 
18   0.143615 
19   0.148658 
20   0.148736 
21   0.138264 
22   0.149671 
23   0.142266 
24   0.163712 
25   0.15495 
26   0.147148 
 
$$$$ 
 
