PCCDB-ID:  22586 
public computational chemistry database (PCCDB) project, http://pccdb.org 
 
 30 31  0  0  0  0  0  0  0  0999 V2000 
    0.8303    0.0697    0.2824 C   0  0  0  0  0  0  0  0  0  0  0  0 
    4.7605    3.2642    1.3470 C   0  0  0  0  0  0  0  0  0  0  0  0 
    6.2760    4.0143   -0.3685 C   0  0  0  0  0  0  0  0  0  0  0  0 
    5.0378   -0.6461   -0.3284 C   0  0  0  0  0  0  0  0  0  0  0  0 
    4.8239    4.5261    1.9402 C   0  0  0  0  0  0  0  0  0  0  0  0 
    6.3579    5.2633    0.2348 C   0  0  0  0  0  0  0  0  0  0  0  0 
    4.1552   -1.7166   -0.2176 C   0  0  0  0  0  0  0  0  0  0  0  0 
    3.1936    0.8774   -0.0871 C   0  0  0  0  0  0  0  0  0  0  0  0 
    2.3015   -0.1852    0.0613 C   0  0  0  0  0  0  0  0  0  0  0  0 
    5.4798    2.9885    0.1745 C   0  0  0  0  0  0  0  0  0  0  0  0 
    4.5713    0.6741   -0.2698 C   0  0  0  0  0  0  0  0  0  0  0  0 
    5.6218    5.5322    1.3930 C   0  0  0  0  0  0  0  0  0  0  0  0 
    2.7856   -1.5100   -0.0111 C   0  0  0  0  0  0  0  0  0  0  0  0 
    1.9129   -2.5975    0.1889 N   0  0  0  0  0  0  0  0  0  0  0  0 
    5.4671    1.7392   -0.4657 N   0  0  0  0  0  0  0  0  0  0  0  0 
    5.7232    6.7899    1.9367 O   0  0  0  0  0  0  0  0  0  0  0  0 
    0.6247    1.1397    0.3794 H   0  0  0  0  0  0  0  0  0  0  0  0 
    0.4713   -0.4302    1.1915 H   0  0  0  0  0  0  0  0  0  0  0  0 
    0.2156   -0.3033   -0.5510 H   0  0  0  0  0  0  0  0  0  0  0  0 
    4.1602    2.4886    1.8092 H   0  0  0  0  0  0  0  0  0  0  0  0 
    6.8360    3.8239   -1.2815 H   0  0  0  0  0  0  0  0  0  0  0  0 
    6.1000   -0.8369   -0.4660 H   0  0  0  0  0  0  0  0  0  0  0  0 
    4.2542    4.7172    2.8485 H   0  0  0  0  0  0  0  0  0  0  0  0 
    6.9778    6.0469   -0.1898 H   0  0  0  0  0  0  0  0  0  0  0  0 
    4.5392   -2.7334   -0.2741 H   0  0  0  0  0  0  0  0  0  0  0  0 
    2.8053    1.8913   -0.0716 H   0  0  0  0  0  0  0  0  0  0  0  0 
    2.2892   -3.4790   -0.1415 H   0  0  0  0  0  0  0  0  0  0  0  0 
    0.9816   -2.4567   -0.1860 H   0  0  0  0  0  0  0  0  0  0  0  0 
    6.3279    1.4924   -0.9330 H   0  0  0  0  0  0  0  0  0  0  0  0 
    5.1708    6.8287    2.7323 H   0  0  0  0  0  0  0  0  0  0  0  0 
  1 17  1  0  0  0  0 
  1 18  1  0  0  0  0 
  2 20  1  0  0  0  0 
  2  5  2  0  0  0  0 
  3 10  2  0  0  0  0 
  3  6  1  0  0  0  0 
  4 11  2  0  0  0  0 
  4  7  1  0  0  0  0 
  5 23  1  0  0  0  0 
  6 12  2  0  0  0  0 
  7 13  2  0  0  0  0 
  8 26  1  0  0  0  0 
  8  9  2  0  0  0  0 
  9  1  1  0  0  0  0 
 10  2  1  0  0  0  0 
 11  8  1  0  0  0  0 
 12 16  1  0  0  0  0 
 12  5  1  0  0  0  0 
 13  9  1  0  0  0  0 
 13 14  1  0  0  0  0 
 15 11  1  0  0  0  0 
 15 10  1  0  0  0  0 
 16 30  1  0  0  0  0 
 19  1  1  0  0  0  0 
 21  3  1  0  0  0  0 
 22  4  1  0  0  0  0 
 24  6  1  0  0  0  0 
 25  7  1  0  0  0  0 
 27 14  1  0  0  0  0 
 28 14  1  0  0  0  0 
 29 15  1  0  0  0  0 
M  END 
>  <HBA> 
2 
 
>  <HBD> 
3 
 
>  <TPSA> 
58.28 
 
>  <cid> 
22586 
 
>  <dipole> 
2.31 
 
>  <excitation_energy_1> 
3.711 
 
>  <excitation_energy_2> 
3.893 
 
>  <excitation_energy_3> 
3.979 
 
>  <excitation_energy_4> 
4.038 
 
>  <homo_energy> 
-4.425 
 
>  <homo_lumo_gap> 
4.517 
 
>  <logP> 
3.681 
 
>  <lumo_energy> 
0.093 
 
>  <melting_point> 
173.41 
 
>  <molecular_refractivity> 
67.38 
 
>  <oscillator_strength_1> 
0.0098 
 
>  <oscillator_strength_2> 
0.0774 
 
>  <oscillator_strength_3> 
0.0665 
 
>  <oscillator_strength_4> 
0.1134 
 
>  <open_babel_can_smiles> 
Oc1ccc(cc1)Nc1ccc(c(c1)C)N 
 
>  <mulliken_charges> 
30 
1   -0.551368 
2   -0.181318 
3   -0.194529 
4   -0.202734 
5   -0.206692 
6   -0.16297 
7   -0.175673 
8   -0.253774 
9   0.162268 
10   0.350832 
11   0.3674 
12   0.345913 
13   0.231831 
14   -0.790089 
15   -0.796224 
16   -0.652257 
17   0.159553 
18   0.169377 
19   0.147519 
20   0.144669 
21   0.120632 
22   0.115333 
23   0.115205 
24   0.136524 
25   0.114015 
26   0.134177 
27   0.313921 
28   0.317162 
29   0.317636 
30   0.403661 
 
>  <lowdin_charges> 
30 
1   -0.444197 
2   -0.188014 
3   -0.18148 
4   -0.18716 
5   -0.205386 
6   -0.178203 
7   -0.189947 
8   -0.18974 
9   -0.026609 
10   0.042279 
11   0.034455 
12   0.083014 
13   0.030823 
14   -0.496408 
15   -0.266493 
16   -0.390161 
17   0.158771 
18   0.161969 
19   0.150399 
20   0.168394 
21   0.154316 
22   0.150268 
23   0.151701 
24   0.167305 
25   0.150425 
26   0.16073 
27   0.270897 
28   0.271682 
29   0.280899 
30   0.355471 
 
$$$$ 
 
