PCCDB-ID:  71590 
public computational chemistry database (PCCDB) project, http://pccdb.org 
 
 20 19  0  0  0  0  0  0  0  0999 V2000 
    3.8773    2.0692    0.3160 C   0  0  0  0  0  0  0  0  0  0  0  0 
    4.3334    0.6059    0.4488 C   0  0  0  0  0  0  0  0  0  0  0  0 
    3.6026   -0.3196   -0.4860 C   0  0  0  0  0  0  0  0  0  0  0  0 
    4.1669   -1.0527   -1.4498 C   0  0  0  0  0  0  0  0  0  0  0  0 
    3.4295   -1.9686   -2.3883 C   0  0  0  0  0  0  0  0  0  0  0  0 
    3.8653   -3.4336   -2.2447 C   0  0  0  0  0  0  0  0  0  0  0  0 
    3.1745   -4.3788   -3.2008 C   0  0  0  0  0  0  0  0  0  0  0  0 
    2.3502   -4.0491   -4.0252 O   0  0  0  0  0  0  0  0  0  0  0  0 
    4.4050    2.7126    1.0293 H   0  0  0  0  0  0  0  0  0  0  0  0 
    2.8023    2.1676    0.5093 H   0  0  0  0  0  0  0  0  0  0  0  0 
    4.0689    2.4482   -0.6939 H   0  0  0  0  0  0  0  0  0  0  0  0 
    4.1704    0.2796    1.4871 H   0  0  0  0  0  0  0  0  0  0  0  0 
    5.4138    0.5363    0.2678 H   0  0  0  0  0  0  0  0  0  0  0  0 
    2.5179   -0.3634   -0.3601 H   0  0  0  0  0  0  0  0  0  0  0  0 
    5.2513   -1.0063   -1.5785 H   0  0  0  0  0  0  0  0  0  0  0  0 
    3.5971   -1.6612   -3.4297 H   0  0  0  0  0  0  0  0  0  0  0  0 
    2.3489   -1.8957   -2.2215 H   0  0  0  0  0  0  0  0  0  0  0  0 
    3.6865   -3.8025   -1.2228 H   0  0  0  0  0  0  0  0  0  0  0  0 
    4.9506   -3.5478   -2.3982 H   0  0  0  0  0  0  0  0  0  0  0  0 
    3.4776   -5.4468   -3.1012 H   0  0  0  0  0  0  0  0  0  0  0  0 
  1  2  1  0  0  0  0 
  1 10  1  0  0  0  0 
  1  9  1  0  0  0  0 
  2 12  1  0  0  0  0 
  3 14  1  0  0  0  0 
  3  2  1  0  0  0  0 
  4  3  2  0  0  0  0 
  5  6  1  0  0  0  0 
  5 17  1  0  0  0  0 
  5  4  1  0  0  0  0 
  6 18  1  0  0  0  0 
  7 20  1  0  0  0  0 
  7  6  1  0  0  0  0 
  8  7  2  0  0  0  0 
 11  1  1  0  0  0  0 
 13  2  1  0  0  0  0 
 15  4  1  0  0  0  0 
 16  5  1  0  0  0  0 
 19  6  1  0  0  0  0 
M  END 
>  <HBA> 
1 
 
>  <HBD> 
0 
 
>  <TPSA> 
17.07 
 
>  <cid> 
71590 
 
>  <dipole> 
2.57 
 
>  <excitation_energy_1> 
4.293 
 
>  <excitation_energy_2> 
5.266 
 
>  <excitation_energy_3> 
6.073 
 
>  <excitation_energy_4> 
6.333 
 
>  <homo_energy> 
-6.495 
 
>  <homo_lumo_gap> 
5.948 
 
>  <logP> 
1.932 
 
>  <lumo_energy> 
-0.547 
 
>  <melting_point> 
14.29 
 
>  <molecular_refractivity> 
35.49 
 
>  <oscillator_strength_1> 
0.0003 
 
>  <oscillator_strength_2> 
0.0009 
 
>  <oscillator_strength_3> 
0.0354 
 
>  <oscillator_strength_4> 
0.1277 
 
>  <open_babel_can_smiles> 
CC/C=C/CCC=O 
 
>  <mulliken_charges> 
20 
1   -0.439222 
2   -0.296277 
3   -0.087845 
4   -0.101395 
5   -0.297396 
6   -0.348794 
7   0.2532 
8   -0.381795 
9   0.143463 
10   0.14422 
11   0.151018 
12   0.141423 
13   0.137901 
14   0.116684 
15   0.114 
16   0.159786 
17   0.15549 
18   0.168577 
19   0.161637 
20   0.105326 
 
>  <lowdin_charges> 
20 
1   -0.441663 
2   -0.265576 
3   -0.163054 
4   -0.171645 
5   -0.263712 
6   -0.310446 
7   0.056672 
8   -0.217926 
9   0.151085 
10   0.146276 
11   0.150531 
12   0.146185 
13   0.143322 
14   0.143474 
15   0.141724 
16   0.157374 
17   0.15448 
18   0.166334 
19   0.162163 
20   0.114401 
 
$$$$ 
 
