PCCDB-ID:  39538 
public computational chemistry database (PCCDB) project, http://pccdb.org 
 
 16 16  0  0  0  0  0  0  0  0999 V2000 
    0.8673   -0.1340   -0.0598 C   0  0  0  0  0  0  0  0  0  0  0  0 
    2.7953    2.5051   -0.0528 C   0  0  0  0  0  0  0  0  0  0  0  0 
    3.2535   -1.2071   -0.0583 C   0  0  0  0  0  0  0  0  0  0  0  0 
    4.5459   -0.7343   -0.0557 C   0  0  0  0  0  0  0  0  0  0  0  0 
    2.3716   -0.0829   -0.0569 C   0  0  0  0  0  0  0  0  0  0  0  0 
    3.1628    1.0548   -0.0536 C   0  0  0  0  0  0  0  0  0  0  0  0 
    4.4794    0.6393   -0.0529 N   0  0  0  0  0  0  0  0  0  0  0  0 
    0.5195   -1.1723   -0.0559 H   0  0  0  0  0  0  0  0  0  0  0  0 
    0.4333    0.3481   -0.9458 H   0  0  0  0  0  0  0  0  0  0  0  0 
    0.4297    0.3560    0.8199 H   0  0  0  0  0  0  0  0  0  0  0  0 
    1.7072    2.6152   -0.0474 H   0  0  0  0  0  0  0  0  0  0  0  0 
    3.1718    3.0338   -0.9399 H   0  0  0  0  0  0  0  0  0  0  0  0 
    3.1807    3.0348    0.8299 H   0  0  0  0  0  0  0  0  0  0  0  0 
    2.9573   -2.2484   -0.0605 H   0  0  0  0  0  0  0  0  0  0  0  0 
    5.4955   -1.2498   -0.0562 H   0  0  0  0  0  0  0  0  0  0  0  0 
    5.2755    1.2585   -0.0513 H   0  0  0  0  0  0  0  0  0  0  0  0 
  1  5  1  0  0  0  0 
  1  8  1  0  0  0  0 
  1 10  1  0  0  0  0 
  2 11  1  0  0  0  0 
  2 13  1  0  0  0  0 
  3  5  1  0  0  0  0 
  3  4  2  0  0  0  0 
  4  7  1  0  0  0  0 
  5  6  2  0  0  0  0 
  6  7  1  0  0  0  0 
  6  2  1  0  0  0  0 
  7 16  1  0  0  0  0 
  9  1  1  0  0  0  0 
 12  2  1  0  0  0  0 
 14  3  1  0  0  0  0 
 15  4  1  0  0  0  0 
M  END 
>  <HBA> 
0 
 
>  <HBD> 
1 
 
>  <TPSA> 
15.79 
 
>  <cid> 
39538 
 
>  <dipole> 
1.8 
 
>  <excitation_energy_1> 
4.531 
 
>  <excitation_energy_2> 
5.048 
 
>  <excitation_energy_3> 
5.318 
 
>  <excitation_energy_4> 
5.486 
 
>  <homo_energy> 
-5.078 
 
>  <homo_lumo_gap> 
6.397 
 
>  <logP> 
1.631 
 
>  <lumo_energy> 
1.32 
 
>  <melting_point> 
59.26 
 
>  <molecular_refractivity> 
30.72 
 
>  <oscillator_strength_1> 
0.0066 
 
>  <oscillator_strength_2> 
0.0001 
 
>  <oscillator_strength_3> 
0.0042 
 
>  <oscillator_strength_4> 
0.0002 
 
>  <open_babel_can_smiles> 
Cc1[nH]ccc1C 
 
>  <mulliken_charges> 
16 
1   -0.530162 
2   -0.532297 
3   -0.213978 
4   0.026383 
5   0.083206 
6   0.281787 
7   -0.605576 
8   0.150493 
9   0.149714 
10   0.149604 
11   0.166806 
12   0.153857 
13   0.153607 
14   0.112092 
15   0.13434 
16   0.320124 
 
>  <lowdin_charges> 
16 
1   -0.440579 
2   -0.445248 
3   -0.223514 
4   -0.161198 
5   -0.063868 
6   -0.012968 
7   -0.186431 
8   0.155721 
9   0.152672 
10   0.152693 
11   0.16583 
12   0.154758 
13   0.154737 
14   0.153164 
15   0.158937 
16   0.285294 
 
$$$$ 
 
