PCCDB-ID:  34167 
public computational chemistry database (PCCDB) project, http://pccdb.org 
 
 27 27  0  0  0  0  0  0  0  0999 V2000 
    3.3025    0.6860   -3.4346 C   0  0  0  0  0  0  0  0  0  0  0  0 
    6.9640   -0.6336    3.0454 C   0  0  0  0  0  0  0  0  0  0  0  0 
    2.8284    0.3936   -2.0185 C   0  0  0  0  0  0  0  0  0  0  0  0 
    6.7010    2.1542    1.7760 C   0  0  0  0  0  0  0  0  0  0  0  0 
    5.6876    1.6405    0.7908 C   0  0  0  0  0  0  0  0  0  0  0  0 
    7.9437    1.2415    1.8251 C   0  0  0  0  0  0  0  0  0  0  0  0 
    6.8917   -0.5478    0.6084 C   0  0  0  0  0  0  0  0  0  0  0  0 
    5.7642    0.4118    0.2532 C   0  0  0  0  0  0  0  0  0  0  0  0 
    4.7881   -0.0840   -0.7500 C   0  0  0  0  0  0  0  0  0  0  0  0 
    7.6222   -0.1851    1.8226 N   0  0  0  0  0  0  0  0  0  0  0  0 
    4.8639   -1.1870   -1.2630 O   0  0  0  0  0  0  0  0  0  0  0  0 
    3.8073    0.8068   -1.0382 O   0  0  0  0  0  0  0  0  0  0  0  0 
    2.5123    0.4343   -4.1515 H   0  0  0  0  0  0  0  0  0  0  0  0 
    4.1864    0.0883   -3.6746 H   0  0  0  0  0  0  0  0  0  0  0  0 
    3.5489    1.7465   -3.5521 H   0  0  0  0  0  0  0  0  0  0  0  0 
    7.5844   -0.3610    3.9069 H   0  0  0  0  0  0  0  0  0  0  0  0 
    6.8760   -1.7252    3.0273 H   0  0  0  0  0  0  0  0  0  0  0  0 
    5.9526   -0.2184    3.2085 H   0  0  0  0  0  0  0  0  0  0  0  0 
    2.6218   -0.6708   -1.8839 H   0  0  0  0  0  0  0  0  0  0  0  0 
    1.9350    0.9718   -1.7685 H   0  0  0  0  0  0  0  0  0  0  0  0 
    6.2307    2.2313    2.7687 H   0  0  0  0  0  0  0  0  0  0  0  0 
    6.9914    3.1809    1.5122 H   0  0  0  0  0  0  0  0  0  0  0  0 
    4.8649    2.2947    0.5143 H   0  0  0  0  0  0  0  0  0  0  0  0 
    8.5532    1.4670    2.7078 H   0  0  0  0  0  0  0  0  0  0  0  0 
    8.5668    1.4396    0.9429 H   0  0  0  0  0  0  0  0  0  0  0  0 
    7.5996   -0.5955   -0.2327 H   0  0  0  0  0  0  0  0  0  0  0  0 
    6.4924   -1.5608    0.7164 H   0  0  0  0  0  0  0  0  0  0  0  0 
  1  3  1  0  0  0  0 
  2 18  1  0  0  0  0 
  2 16  1  0  0  0  0 
  3 19  1  0  0  0  0 
  3 20  1  0  0  0  0 
  3 12  1  0  0  0  0 
  4  6  1  0  0  0  0 
  4 21  1  0  0  0  0 
  5  4  1  0  0  0  0 
  6 24  1  0  0  0  0 
  7 27  1  0  0  0  0 
  7 10  1  0  0  0  0 
  8  7  1  0  0  0  0 
  8  5  2  0  0  0  0 
  9  8  1  0  0  0  0 
 10  6  1  0  0  0  0 
 10  2  1  0  0  0  0 
 11  9  2  0  0  0  0 
 12  9  1  0  0  0  0 
 13  1  1  0  0  0  0 
 14  1  1  0  0  0  0 
 15  1  1  0  0  0  0 
 17  2  1  0  0  0  0 
 22  4  1  0  0  0  0 
 23  5  1  0  0  0  0 
 25  6  1  0  0  0  0 
 26  7  1  0  0  0  0 
M  END 
>  <HBA> 
3 
 
>  <HBD> 
0 
 
>  <TPSA> 
29.54 
 
>  <cid> 
34167 
 
>  <dipole> 
2.59 
 
>  <excitation_energy_1> 
3.659 
 
>  <excitation_energy_2> 
4.909 
 
>  <excitation_energy_3> 
5.021 
 
>  <excitation_energy_4> 
5.605 
 
>  <homo_energy> 
-5.589 
 
>  <homo_lumo_gap> 
4.678 
 
>  <logP> 
0.749 
 
>  <lumo_energy> 
-0.912 
 
>  <melting_point> 
22.31 
 
>  <molecular_refractivity> 
50.88 
 
>  <oscillator_strength_1> 
0.0016 
 
>  <oscillator_strength_2> 
0.0003 
 
>  <oscillator_strength_3> 
0.0098 
 
>  <oscillator_strength_4> 
0.2062 
 
>  <open_babel_can_smiles> 
CCOC(=O)C1=CCCN(C1)C 
 
>  <mulliken_charges> 
27 
1   -0.461111 
2   -0.304065 
3   -0.04155 
4   -0.320239 
5   -0.139548 
6   -0.147636 
7   -0.20204 
8   0.051195 
9   0.602407 
10   -0.364021 
11   -0.49768 
12   -0.480222 
13   0.148743 
14   0.176653 
15   0.155148 
16   0.146277 
17   0.154138 
18   0.126326 
19   0.170134 
20   0.149369 
21   0.15779 
22   0.149868 
23   0.155757 
24   0.139981 
25   0.146071 
26   0.161194 
27   0.167062 
 
>  <lowdin_charges> 
27 
1   -0.455164 
2   -0.356636 
3   -0.12602 
4   -0.294193 
5   -0.132498 
6   -0.204136 
7   -0.201283 
8   -0.072419 
9   0.193339 
10   -0.182358 
11   -0.277875 
12   -0.196715 
13   0.158703 
14   0.166033 
15   0.153597 
16   0.149601 
17   0.150332 
18   0.123249 
19   0.157058 
20   0.150913 
21   0.155988 
22   0.156425 
23   0.169433 
24   0.147212 
25   0.14664 
26   0.156579 
27   0.164199 
 
$$$$ 
 
