PCCDB-ID:  37906 
public computational chemistry database (PCCDB) project, http://pccdb.org 
 
 38 41  0  0  1  0  0  0  0  0999 V2000 
    0.5668    1.3975    0.5273 C   0  0  0  0  0  0  0  0  0  0  0  0 
   -0.6104    1.1496   -0.4429 C   0  0  0  0  0  0  0  0  0  0  0  0 
   -1.4307   -3.3677   -3.2533 C   0  0  0  0  0  0  0  0  0  0  0  0 
    0.8149   -2.5951   -4.0939 C   0  0  0  0  0  0  0  0  0  0  0  0 
   -1.2593   -1.2734   -4.6412 C   0  0  0  0  0  0  0  0  0  0  0  0 
    0.2619   -2.4358   -1.6401 C   0  0  0  0  0  0  0  0  0  0  0  0 
   -1.8080   -1.1197   -2.1863 C   0  0  0  0  0  0  0  0  0  0  0  0 
    0.4348   -0.3448   -3.0251 C   0  0  0  0  0  0  0  0  0  0  0  0 
    0.0731   -3.2715   -2.9237 C   0  0  1  0  0  0  0  0  0  0  0  0 
   -2.0015   -1.9515   -3.4714 C   0  0  2  0  0  0  0  0  0  0  0  0 
    0.2444   -1.1793   -4.3115 C   0  0  1  0  0  0  0  0  0  0  0  0 
    1.1303    0.0219    0.0598 C   0  0  1  0  0  0  0  0  0  0  0  0 
    1.5090   -0.9451    1.1805 C   0  0  0  0  0  0  0  0  0  0  0  0 
   -0.3069   -1.0112   -1.8353 C   0  0  2  0  0  0  0  0  0  0  0  0 
   -0.1889   -0.2723   -0.5592 N   0  0  2  0  0  0  0  0  0  0  0  0 
    2.6230   -1.0376    1.6391 O   0  0  0  0  0  0  0  0  0  0  0  0 
    0.4545   -1.6424    1.6457 O   0  0  0  0  0  0  0  0  0  0  0  0 
    0.2747    1.4034    1.5802 H   0  0  0  0  0  0  0  0  0  0  0  0 
    1.1991    2.2629    0.3231 H   0  0  0  0  0  0  0  0  0  0  0  0 
   -0.5100    1.7184   -1.3765 H   0  0  0  0  0  0  0  0  0  0  0  0 
   -1.6259    1.2866   -0.0560 H   0  0  0  0  0  0  0  0  0  0  0  0 
   -1.9655   -3.8697   -2.4355 H   0  0  0  0  0  0  0  0  0  0  0  0 
   -1.5808   -3.9771   -4.1548 H   0  0  0  0  0  0  0  0  0  0  0  0 
    0.7010   -3.1920   -5.0089 H   0  0  0  0  0  0  0  0  0  0  0  0 
    1.8910   -2.5405   -3.8796 H   0  0  0  0  0  0  0  0  0  0  0  0 
   -1.6709   -0.2704   -4.8207 H   0  0  0  0  0  0  0  0  0  0  0  0 
   -1.4068   -1.8491   -5.5650 H   0  0  0  0  0  0  0  0  0  0  0  0 
    1.3291   -2.3825   -1.3847 H   0  0  0  0  0  0  0  0  0  0  0  0 
   -0.2433   -2.9205   -0.7954 H   0  0  0  0  0  0  0  0  0  0  0  0 
   -2.3405   -1.5818   -1.3445 H   0  0  0  0  0  0  0  0  0  0  0  0 
   -2.2320   -0.1151   -2.3224 H   0  0  0  0  0  0  0  0  0  0  0  0 
    0.0529    0.6713   -3.1899 H   0  0  0  0  0  0  0  0  0  0  0  0 
    1.5056   -0.2538   -2.7992 H   0  0  0  0  0  0  0  0  0  0  0  0 
    0.4808   -4.2767   -2.7577 H   0  0  0  0  0  0  0  0  0  0  0  0 
   -3.0733   -2.0152   -3.7001 H   0  0  0  0  0  0  0  0  0  0  0  0 
    0.7745   -0.6897   -5.1387 H   0  0  0  0  0  0  0  0  0  0  0  0 
    1.9748    0.1197   -0.6312 H   0  0  0  0  0  0  0  0  0  0  0  0 
   -0.2919   -1.3867    1.0466 H   0  0  0  0  0  0  0  0  0  0  0  0 
  1 18  1  0  0  0  0 
  2 21  1  0  0  0  0 
  2  1  1  0  0  0  0 
  3  9  1  0  0  0  0 
  3 22  1  0  0  0  0 
  4 25  1  0  0  0  0 
  4  9  1  0  0  0  0 
  5 11  1  0  0  0  0 
  5 10  1  0  0  0  0 
  6 28  1  0  0  0  0 
  6 29  1  0  0  0  0 
  7 14  1  0  0  0  0 
  7 30  1  0  0  0  0 
  8 33  1  0  0  0  0 
  9 34  1  1  0  0  0 
  9  6  1  0  0  0  0 
 10 35  1  6  0  0  0 
 10  3  1  0  0  0  0 
 10  7  1  0  0  0  0 
 11 36  1  6  0  0  0 
 11  4  1  0  0  0  0 
 11  8  1  0  0  0  0 
 12 37  1  6  0  0  0 
 12  1  1  0  0  0  0 
 12 13  1  0  0  0  0 
 13 16  2  0  0  0  0 
 13 17  1  0  0  0  0 
 14  8  1  6  0  0  0 
 14  6  1  0  0  0  0 
 14 15  1  0  0  0  0 
 15  2  1  6  0  0  0 
 15 12  1  0  0  0  0 
 19  1  1  0  0  0  0 
 20  2  1  0  0  0  0 
 23  3  1  0  0  0  0 
 24  4  1  0  0  0  0 
 26  5  1  0  0  0  0 
 27  5  1  0  0  0  0 
 31  7  1  0  0  0  0 
 32  8  1  0  0  0  0 
 38 17  1  0  0  0  0 
M  END 
>  <HBA> 
3 
 
>  <HBD> 
1 
 
>  <TPSA> 
40.54 
 
>  <cid> 
37906 
 
>  <dipole> 
5.53 
 
>  <excitation_energy_1> 
5.245 
 
>  <excitation_energy_2> 
5.633 
 
>  <excitation_energy_3> 
5.906 
 
>  <excitation_energy_4> 
6.074 
 
>  <homo_energy> 
-6.378 
 
>  <homo_lumo_gap> 
6.789 
 
>  <logP> 
2.052 
 
>  <lumo_energy> 
0.411 
 
>  <melting_point> 
149.25 
 
>  <molecular_refractivity> 
69.58 
 
>  <oscillator_strength_1> 
0.001 
 
>  <oscillator_strength_2> 
0.0021 
 
>  <oscillator_strength_3> 
0.0052 
 
>  <oscillator_strength_4> 
0.0073 
 
>  <open_babel_can_smiles> 
OC(=O)[C@@H]1CCN1[C@]12C[C@H]3C[C@@H](C2)C[C@@H](C1)C3 
 
>  <mulliken_charges> 
38 
1   -0.323569 
2   -0.111611 
3   -0.266637 
4   -0.267203 
5   -0.26635 
6   -0.298028 
7   -0.279306 
8   -0.291661 
9   -0.093388 
10   -0.092572 
11   -0.091972 
12   -0.046296 
13   0.606618 
14   0.227593 
15   -0.50779 
16   -0.465632 
17   -0.587154 
18   0.169207 
19   0.165715 
20   0.141924 
21   0.150864 
22   0.130609 
23   0.1297 
24   0.130045 
25   0.13119 
26   0.12645 
27   0.13054 
28   0.142323 
29   0.139567 
30   0.133495 
31   0.130444 
32   0.128357 
33   0.133208 
34   0.125836 
35   0.121037 
36   0.120781 
37   0.156079 
38   0.417587 
 
>  <lowdin_charges> 
38 
1   -0.275098 
2   -0.197134 
3   -0.282741 
4   -0.279718 
5   -0.280893 
6   -0.285387 
7   -0.281597 
8   -0.291362 
9   -0.128732 
10   -0.128259 
11   -0.13052 
12   -0.101455 
13   0.170976 
14   0.052648 
15   -0.196929 
16   -0.253687 
17   -0.362808 
18   0.16052 
19   0.161034 
20   0.13835 
21   0.144562 
22   0.143281 
23   0.142671 
24   0.142727 
25   0.140464 
26   0.139288 
27   0.142885 
28   0.146351 
29   0.148703 
30   0.14578 
31   0.141602 
32   0.139835 
33   0.140972 
34   0.143913 
35   0.140364 
36   0.142799 
37   0.156663 
38   0.349932 
 
$$$$ 
 
