PCCDB-ID:  47207 
public computational chemistry database (PCCDB) project, http://pccdb.org 
 
 29 29  0  0  0  0  0  0  0  0999 V2000 
    3.8309    0.9380    1.6919 C   0  0  0  0  0  0  0  0  0  0  0  0 
    3.1205   -0.4199    1.7566 C   0  0  0  0  0  0  0  0  0  0  0  0 
    4.4379   -3.8846    0.8714 C   0  0  0  0  0  0  0  0  0  0  0  0 
    3.0244   -3.5993    1.3990 C   0  0  0  0  0  0  0  0  0  0  0  0 
    5.2544   -2.5900    0.7495 C   0  0  0  0  0  0  0  0  0  0  0  0 
    2.2979   -2.5328    0.5588 C   0  0  0  0  0  0  0  0  0  0  0  0 
    4.5149   -1.5423   -0.0965 C   0  0  0  0  0  0  0  0  0  0  0  0 
    1.3060    0.0751   -0.6449 C   0  0  0  0  0  0  0  0  0  0  0  0 
    3.1044   -1.2239    0.4392 C   0  0  0  0  0  0  0  0  0  0  0  0 
    0.4430   -0.1059    0.2775 N   0  0  0  0  0  0  0  0  0  0  0  0 
    1.1568    0.7729   -1.8091 O   0  0  0  0  0  0  0  0  0  0  0  0 
    2.5532   -0.3937   -0.6479 O   0  0  0  0  0  0  0  0  0  0  0  0 
    3.7168    1.4655    2.6455 H   0  0  0  0  0  0  0  0  0  0  0  0 
    3.4110    1.5746    0.9065 H   0  0  0  0  0  0  0  0  0  0  0  0 
    4.9050    0.8377    1.5000 H   0  0  0  0  0  0  0  0  0  0  0  0 
    2.0837   -0.2756    2.0717 H   0  0  0  0  0  0  0  0  0  0  0  0 
    3.5989   -1.0406    2.5231 H   0  0  0  0  0  0  0  0  0  0  0  0 
    4.3640   -4.3569   -0.1193 H   0  0  0  0  0  0  0  0  0  0  0  0 
    4.9523   -4.6023    1.5232 H   0  0  0  0  0  0  0  0  0  0  0  0 
    3.0841   -3.2733    2.4465 H   0  0  0  0  0  0  0  0  0  0  0  0 
    2.4262   -4.5191    1.4013 H   0  0  0  0  0  0  0  0  0  0  0  0 
    6.2312   -2.7952    0.2939 H   0  0  0  0  0  0  0  0  0  0  0  0 
    5.4623   -2.1897    1.7514 H   0  0  0  0  0  0  0  0  0  0  0  0 
    1.3088   -2.3211    0.9712 H   0  0  0  0  0  0  0  0  0  0  0  0 
    2.1483   -2.9207   -0.4584 H   0  0  0  0  0  0  0  0  0  0  0  0 
    4.3950   -1.9230   -1.1190 H   0  0  0  0  0  0  0  0  0  0  0  0 
    5.0981   -0.6193   -0.1770 H   0  0  0  0  0  0  0  0  0  0  0  0 
   -0.4460    0.3460    0.0626 H   0  0  0  0  0  0  0  0  0  0  0  0 
    0.2546    1.1269   -1.8344 H   0  0  0  0  0  0  0  0  0  0  0  0 
  1  2  1  0  0  0  0 
  1 13  1  0  0  0  0 
  2 16  1  0  0  0  0 
  2 17  1  0  0  0  0 
  3  4  1  0  0  0  0 
  3 19  1  0  0  0  0 
  4 21  1  0  0  0  0 
  4 20  1  0  0  0  0 
  5  3  1  0  0  0  0 
  5 23  1  0  0  0  0 
  6 24  1  0  0  0  0 
  6  4  1  0  0  0  0 
  7  9  1  0  0  0  0 
  7  5  1  0  0  0  0 
  8 10  2  0  0  0  0 
  9  6  1  0  0  0  0 
  9  2  1  0  0  0  0 
 11  8  1  0  0  0  0 
 12  8  1  0  0  0  0 
 12  9  1  0  0  0  0 
 14  1  1  0  0  0  0 
 15  1  1  0  0  0  0 
 18  3  1  0  0  0  0 
 22  5  1  0  0  0  0 
 25  6  1  0  0  0  0 
 26  7  1  0  0  0  0 
 27  7  1  0  0  0  0 
 28 10  1  0  0  0  0 
 29 11  1  0  0  0  0 
M  END 
>  <HBA> 
3 
 
>  <HBD> 
1 
 
>  <TPSA> 
52.32 
 
>  <cid> 
47207 
 
>  <dipole> 
0.95 
 
>  <excitation_energy_1> 
5.777 
 
>  <excitation_energy_2> 
6.201 
 
>  <excitation_energy_3> 
6.77 
 
>  <excitation_energy_4> 
6.965 
 
>  <homo_energy> 
-6.86 
 
>  <homo_lumo_gap> 
8.193 
 
>  <logP> 
2.895 
 
>  <lumo_energy> 
1.333 
 
>  <melting_point> 
82.07 
 
>  <molecular_refractivity> 
47.68 
 
>  <oscillator_strength_1> 
0.0039 
 
>  <oscillator_strength_2> 
0.0531 
 
>  <oscillator_strength_3> 
0.0026 
 
>  <oscillator_strength_4> 
0.0038 
 
>  <open_babel_can_smiles> 
CCC1(CCCCC1)OC(=N)O 
 
>  <mulliken_charges> 
29 
1   -0.454308 
2   -0.290423 
3   -0.255275 
4   -0.272645 
5   -0.270567 
6   -0.292161 
7   -0.285406 
8   0.654777 
9   0.333757 
10   -0.629434 
11   -0.57132 
12   -0.498157 
13   0.141617 
14   0.157053 
15   0.142665 
16   0.18049 
17   0.135552 
18   0.129921 
19   0.130376 
20   0.135616 
21   0.135187 
22   0.135478 
23   0.134634 
24   0.175956 
25   0.132689 
26   0.143586 
27   0.145629 
28   0.271179 
29   0.403535 
 
>  <lowdin_charges> 
29 
1   -0.446083 
2   -0.294651 
3   -0.279407 
4   -0.277906 
5   -0.278503 
6   -0.290637 
7   -0.282595 
8   0.195139 
9   0.137302 
10   -0.476302 
11   -0.368755 
12   -0.179772 
13   0.151002 
14   0.154973 
15   0.143805 
16   0.167661 
17   0.147799 
18   0.138027 
19   0.145048 
20   0.138683 
21   0.147117 
22   0.146836 
23   0.139161 
24   0.166814 
25   0.144334 
26   0.149119 
27   0.151923 
28   0.253717 
29   0.35615 
 
$$$$ 
 
