PCCDB-ID:  42394 
public computational chemistry database (PCCDB) project, http://pccdb.org 
 
 27 27  0  0  0  0  0  0  0  0999 V2000 
    2.2081   -1.5456    0.0904 C   0  0  0  0  0  0  0  0  0  0  0  0 
    3.0074    1.8698   -0.9294 C   0  0  0  0  0  0  0  0  0  0  0  0 
    3.6634    2.5757   -1.9151 C   0  0  0  0  0  0  0  0  0  0  0  0 
    5.1616    4.0916   -3.9484 C   0  0  0  0  0  0  0  0  0  0  0  0 
    5.5491    4.5738   -5.3466 C   0  0  0  0  0  0  0  0  0  0  0  0 
    3.5921   -0.2086   -1.9812 C   0  0  0  0  0  0  0  0  0  0  0  0 
    2.9587    0.4614   -0.9510 C   0  0  0  0  0  0  0  0  0  0  0  0 
    4.3172    1.9317   -2.9997 C   0  0  0  0  0  0  0  0  0  0  0  0 
    4.2643    0.5087   -2.9911 C   0  0  0  0  0  0  0  0  0  0  0  0 
    4.9260    2.6558   -3.9908 N   0  0  0  0  0  0  0  0  0  0  0  0 
    4.9024   -0.2927   -4.0133 N   0  0  0  0  0  0  0  0  0  0  0  0 
    4.4956    4.4187   -6.2784 O   0  0  0  0  0  0  0  0  0  0  0  0 
    4.7909   -1.5198   -3.9612 O   0  0  0  0  0  0  0  0  0  0  0  0 
    5.5489    0.2771   -4.9178 O   0  0  0  0  0  0  0  0  0  0  0  0 
    2.2812   -0.1276    0.0765 O   0  0  0  0  0  0  0  0  0  0  0  0 
    1.6296   -1.8072    0.9779 H   0  0  0  0  0  0  0  0  0  0  0  0 
    3.2061   -1.9986    0.1586 H   0  0  0  0  0  0  0  0  0  0  0  0 
    1.6998   -1.9299   -0.8038 H   0  0  0  0  0  0  0  0  0  0  0  0 
    2.5172    2.3913   -0.1130 H   0  0  0  0  0  0  0  0  0  0  0  0 
    3.6853    3.6567   -1.8551 H   0  0  0  0  0  0  0  0  0  0  0  0 
    4.2413    4.6073   -3.6560 H   0  0  0  0  0  0  0  0  0  0  0  0 
    5.9461    4.3594   -3.2210 H   0  0  0  0  0  0  0  0  0  0  0  0 
    6.4648    4.0524   -5.6766 H   0  0  0  0  0  0  0  0  0  0  0  0 
    5.7782    5.6431   -5.3100 H   0  0  0  0  0  0  0  0  0  0  0  0 
    3.6010   -1.2863   -2.0552 H   0  0  0  0  0  0  0  0  0  0  0  0 
    5.5320    2.0948   -4.5818 H   0  0  0  0  0  0  0  0  0  0  0  0 
    4.2066    3.4926   -6.2273 H   0  0  0  0  0  0  0  0  0  0  0  0 
  1 17  1  0  0  0  0 
  1 16  1  0  0  0  0 
  2 19  1  0  0  0  0 
  3 20  1  0  0  0  0 
  3  2  2  0  0  0  0 
  4 21  1  0  0  0  0 
  4 22  1  0  0  0  0 
  5 24  1  0  0  0  0 
  5  4  1  0  0  0  0 
  6  7  2  0  0  0  0 
  7  2  1  0  0  0  0 
  7 15  1  0  0  0  0 
  8  9  2  0  0  0  0 
  8  3  1  0  0  0  0 
  9  6  1  0  0  0  0 
 10  4  1  0  0  0  0 
 10  8  1  0  0  0  0 
 11 13  2  0  0  0  0 
 11  9  1  0  0  0  0 
 12 27  1  0  0  0  0 
 12  5  1  0  0  0  0 
 14 11  2  0  0  0  0 
 15  1  1  0  0  0  0 
 18  1  1  0  0  0  0 
 23  5  1  0  0  0  0 
 25  6  1  0  0  0  0 
 26 10  1  0  0  0  0 
M  END 
>  <HBA> 
3 
 
>  <HBD> 
2 
 
>  <TPSA> 
87.31 
 
>  <cid> 
42394 
 
>  <dipole> 
3.84 
 
>  <excitation_energy_1> 
2.874 
 
>  <excitation_energy_2> 
3.764 
 
>  <excitation_energy_3> 
4.37 
 
>  <excitation_energy_4> 
4.567 
 
>  <homo_energy> 
-5.657 
 
>  <homo_lumo_gap> 
3.342 
 
>  <logP> 
1.604 
 
>  <lumo_energy> 
-2.316 
 
>  <melting_point> 
101.73 
 
>  <molecular_refractivity> 
57.03 
 
>  <oscillator_strength_1> 
0.1061 
 
>  <oscillator_strength_2> 
0.0001 
 
>  <oscillator_strength_3> 
0.0009 
 
>  <oscillator_strength_4> 
0.0965 
 
>  <open_babel_can_smiles> 
OCCNc1ccc(cc1N(=O)=O)OC 
 
>  <mulliken_charges> 
27 
1   -0.219001 
2   -0.155322 
3   -0.196735 
4   -0.127156 
5   -0.049782 
6   -0.255356 
7   0.382799 
8   0.363552 
9   0.244669 
10   -0.711336 
11   0.365854 
12   -0.610823 
13   -0.408484 
14   -0.452618 
15   -0.514935 
16   0.173592 
17   0.157529 
18   0.158213 
19   0.154264 
20   0.146695 
21   0.166493 
22   0.146044 
23   0.131579 
24   0.157203 
25   0.18469 
26   0.368514 
27   0.399857 
 
>  <lowdin_charges> 
27 
1   -0.276791 
2   -0.13801 
3   -0.188925 
4   -0.215324 
5   -0.134658 
6   -0.19339 
7   0.081003 
8   0.070375 
9   -0.037171 
10   -0.287634 
11   0.309931 
12   -0.460416 
13   -0.255775 
14   -0.295509 
15   -0.200074 
16   0.165731 
17   0.147884 
18   0.149317 
19   0.175972 
20   0.167579 
21   0.156803 
22   0.144075 
23   0.130359 
24   0.154143 
25   0.189563 
26   0.298153 
27   0.342787 
 
$$$$ 
 
