PCCDB-ID:  65249 
public computational chemistry database (PCCDB) project, http://pccdb.org 
 
 19 18  0  0  1  0  0  0  0  0999 V2000 
    0.8827    0.5605    0.2263 C   0  0  0  0  0  0  0  0  0  0  0  0 
    1.5779   -2.6477    1.7960 C   0  0  0  0  0  0  0  0  0  0  0  0 
    2.3244    0.2204    0.5229 C   0  0  0  0  0  0  0  0  0  0  0  0 
    2.0003   -1.2749    2.3688 C   0  0  1  0  0  0  0  0  0  0  0  0 
    2.8337   -1.5190    3.6463 C   0  0  0  0  0  0  0  0  0  0  0  0 
    2.8057   -0.5343    1.4233 N   0  0  0  0  0  0  0  0  0  0  0  0 
    0.6522   -2.5234    0.7233 O   0  0  0  0  0  0  0  0  0  0  0  0 
    3.2343    0.8088   -0.3013 O   0  0  0  0  0  0  0  0  0  0  0  0 
    2.3578   -2.0363    4.6311 O   0  0  0  0  0  0  0  0  0  0  0  0 
    4.1146   -1.1434    3.5534 O   0  0  0  0  0  0  0  0  0  0  0  0 
    0.2202    0.2740    1.0427 H   0  0  0  0  0  0  0  0  0  0  0  0 
    0.5528    0.0273   -0.6717 H   0  0  0  0  0  0  0  0  0  0  0  0 
    0.7750    1.6385    0.0543 H   0  0  0  0  0  0  0  0  0  0  0  0 
    1.1807   -3.2599    2.6139 H   0  0  0  0  0  0  0  0  0  0  0  0 
    2.4624   -3.1436    1.3852 H   0  0  0  0  0  0  0  0  0  0  0  0 
    1.0919   -0.7454    2.6935 H   0  0  0  0  0  0  0  0  0  0  0  0 
   -0.2333   -2.4390    1.1083 H   0  0  0  0  0  0  0  0  0  0  0  0 
    2.7745    1.3695   -0.9448 H   0  0  0  0  0  0  0  0  0  0  0  0 
    4.2099   -0.7619    2.6449 H   0  0  0  0  0  0  0  0  0  0  0  0 
  1  3  1  0  0  0  0 
  1 11  1  0  0  0  0 
  2  4  1  0  0  0  0 
  2 14  1  0  0  0  0 
  3  6  2  0  0  0  0 
  4 16  1  1  0  0  0 
  4  5  1  0  0  0  0 
  5  9  2  0  0  0  0 
  6  4  1  0  0  0  0 
  7 17  1  0  0  0  0 
  7  2  1  0  0  0  0 
  8  3  1  0  0  0  0 
 10  5  1  0  0  0  0 
 12  1  1  0  0  0  0 
 13  1  1  0  0  0  0 
 15  2  1  0  0  0  0 
 18  8  1  0  0  0  0 
 19 10  1  0  0  0  0 
M  END 
>  <HBA> 
5 
 
>  <HBD> 
3 
 
>  <TPSA> 
86.63 
 
>  <cid> 
65249 
 
>  <dipole> 
6.79 
 
>  <excitation_energy_1> 
5.549 
 
>  <excitation_energy_2> 
5.819 
 
>  <excitation_energy_3> 
5.884 
 
>  <excitation_energy_4> 
6.212 
 
>  <homo_energy> 
-6.784 
 
>  <homo_lumo_gap> 
6.661 
 
>  <logP> 
-1.041 
 
>  <lumo_energy> 
-0.122 
 
>  <melting_point> 
118.45 
 
>  <molecular_refractivity> 
32.08 
 
>  <oscillator_strength_1> 
0.0028 
 
>  <oscillator_strength_2> 
0.0145 
 
>  <oscillator_strength_3> 
0.0113 
 
>  <oscillator_strength_4> 
0.0489 
 
>  <open_babel_can_smiles> 
OC[C@@H](C(=O)O)/N=C(/O)\C 
 
>  <mulliken_charges> 
19 
1   -0.541386 
2   -0.044983 
3   0.520043 
4   -0.091036 
5   0.597361 
6   -0.472053 
7   -0.61354 
8   -0.568195 
9   -0.473504 
10   -0.575122 
11   0.175906 
12   0.204388 
13   0.161796 
14   0.164487 
15   0.167381 
16   0.148471 
17   0.394285 
18   0.413393 
19   0.432307 
 
>  <lowdin_charges> 
19 
1   -0.475851 
2   -0.143329 
3   0.157244 
4   -0.117495 
5   0.178775 
6   -0.226441 
7   -0.458776 
8   -0.354688 
9   -0.264228 
10   -0.346317 
11   0.173129 
12   0.186778 
13   0.16108 
14   0.154683 
15   0.158955 
16   0.149693 
17   0.345078 
18   0.361999 
19   0.359711 
 
$$$$ 
 
