PCCDB-ID:  53739 
public computational chemistry database (PCCDB) project, http://pccdb.org 
 
 31 32  0  0  0  0  0  0  0  0999 V2000 
    0.9033   -0.6079   -0.1614 C   0  0  0  0  0  0  0  0  0  0  0  0 
    2.9160   -2.7076    0.1122 C   0  0  0  0  0  0  0  0  0  0  0  0 
    4.0935    1.4607    0.0173 C   0  0  0  0  0  0  0  0  0  0  0  0 
    2.7538    1.0945   -0.0796 C   0  0  0  0  0  0  0  0  0  0  0  0 
    5.0615    0.4691    0.1505 C   0  0  0  0  0  0  0  0  0  0  0  0 
    6.3256   -6.0612    1.5397 C   0  0  0  0  0  0  0  0  0  0  0  0 
    6.1856   -5.7434    3.0532 C   0  0  0  0  0  0  0  0  0  0  0  0 
    5.8124   -1.9124    0.3427 C   0  0  0  0  0  0  0  0  0  0  0  0 
    2.3683   -0.2508   -0.0508 C   0  0  0  0  0  0  0  0  0  0  0  0 
    3.3495   -1.2578    0.0812 C   0  0  0  0  0  0  0  0  0  0  0  0 
    4.7063   -0.8846    0.1850 C   0  0  0  0  0  0  0  0  0  0  0  0 
    5.9959   -3.9054    1.7902 C   0  0  0  0  0  0  0  0  0  0  0  0 
    6.0663   -4.7883    0.8617 N   0  0  0  0  0  0  0  0  0  0  0  0 
    5.7785   -2.5740    1.6427 N   0  0  0  0  0  0  0  0  0  0  0  0 
    6.1242   -4.2986    3.0972 O   0  0  0  0  0  0  0  0  0  0  0  0 
    0.2854    0.2918   -0.2391 H   0  0  0  0  0  0  0  0  0  0  0  0 
    0.5552   -1.1782    0.7095 H   0  0  0  0  0  0  0  0  0  0  0  0 
    0.6992   -1.2285   -1.0436 H   0  0  0  0  0  0  0  0  0  0  0  0 
    2.2525   -2.9365   -0.7308 H   0  0  0  0  0  0  0  0  0  0  0  0 
    2.3464   -2.9282    1.0254 H   0  0  0  0  0  0  0  0  0  0  0  0 
    3.7513   -3.4084    0.0782 H   0  0  0  0  0  0  0  0  0  0  0  0 
    4.3800    2.5086   -0.0101 H   0  0  0  0  0  0  0  0  0  0  0  0 
    1.9892    1.8613   -0.1818 H   0  0  0  0  0  0  0  0  0  0  0  0 
    6.1117    0.7433    0.2263 H   0  0  0  0  0  0  0  0  0  0  0  0 
    5.6147   -6.8315    1.2180 H   0  0  0  0  0  0  0  0  0  0  0  0 
    7.3319   -6.4278    1.2923 H   0  0  0  0  0  0  0  0  0  0  0  0 
    7.0341   -6.0664    3.6620 H   0  0  0  0  0  0  0  0  0  0  0  0 
    5.2614   -6.1377    3.4907 H   0  0  0  0  0  0  0  0  0  0  0  0 
    6.7836   -1.4197    0.1931 H   0  0  0  0  0  0  0  0  0  0  0  0 
    5.7435   -2.7066   -0.4043 H   0  0  0  0  0  0  0  0  0  0  0  0 
    5.8086   -2.0113    2.4800 H   0  0  0  0  0  0  0  0  0  0  0  0 
  1  9  1  0  0  0  0 
  1 17  1  0  0  0  0 
  2 20  1  0  0  0  0 
  3  5  2  0  0  0  0 
  4  9  2  0  0  0  0 
  4  3  1  0  0  0  0 
  5 11  1  0  0  0  0 
  5 24  1  0  0  0  0 
  6  7  1  0  0  0  0 
  7 15  1  0  0  0  0 
  7 28  1  0  0  0  0 
  7 27  1  0  0  0  0 
  8 14  1  0  0  0  0 
  9 10  1  0  0  0  0 
 10  2  1  0  0  0  0 
 10 11  2  0  0  0  0 
 11  8  1  0  0  0  0 
 12 15  1  0  0  0  0 
 13  6  1  0  0  0  0 
 13 12  2  0  0  0  0 
 14 12  1  0  0  0  0 
 14 31  1  0  0  0  0 
 16  1  1  0  0  0  0 
 18  1  1  0  0  0  0 
 19  2  1  0  0  0  0 
 21  2  1  0  0  0  0 
 22  3  1  0  0  0  0 
 23  4  1  0  0  0  0 
 25  6  1  0  0  0  0 
 26  6  1  0  0  0  0 
 29  8  1  0  0  0  0 
 30  8  1  0  0  0  0 
M  END 
>  <HBA> 
3 
 
>  <HBD> 
1 
 
>  <TPSA> 
33.62 
 
>  <cid> 
53739 
 
>  <dipole> 
1.33 
 
>  <excitation_energy_1> 
5.002 
 
>  <excitation_energy_2> 
5.093 
 
>  <excitation_energy_3> 
5.319 
 
>  <excitation_energy_4> 
5.366 
 
>  <homo_energy> 
-5.698 
 
>  <homo_lumo_gap> 
5.747 
 
>  <logP> 
1.606 
 
>  <lumo_energy> 
0.049 
 
>  <melting_point> 
73.51 
 
>  <molecular_refractivity> 
64.54 
 
>  <oscillator_strength_1> 
0.0087 
 
>  <oscillator_strength_2> 
0.0105 
 
>  <oscillator_strength_3> 
0.0364 
 
>  <oscillator_strength_4> 
0.0008 
 
>  <open_babel_can_smiles> 
Cc1cccc(c1C)CNC1=NCCO1 
 
>  <mulliken_charges> 
31 
1   -0.531248 
2   -0.546064 
3   -0.124781 
4   -0.182591 
5   -0.194678 
6   -0.162418 
7   -0.057725 
8   -0.22823 
9   0.130252 
10   0.083588 
11   0.103912 
12   0.742195 
13   -0.51067 
14   -0.632445 
15   -0.509341 
16   0.152761 
17   0.159338 
18   0.161132 
19   0.152995 
20   0.157635 
21   0.188672 
22   0.125197 
23   0.119789 
24   0.119802 
25   0.145655 
26   0.144223 
27   0.153757 
28   0.151334 
29   0.149415 
30   0.203723 
31   0.334817 
 
>  <lowdin_charges> 
31 
1   -0.442945 
2   -0.451482 
3   -0.161135 
4   -0.168259 
5   -0.172607 
6   -0.207635 
7   -0.138904 
8   -0.189569 
9   -0.006721 
10   -0.005122 
11   -0.029225 
12   0.157074 
13   -0.302987 
14   -0.277885 
15   -0.232177 
16   0.15625 
17   0.159122 
18   0.159273 
19   0.157067 
20   0.159693 
21   0.173777 
22   0.154927 
23   0.154149 
24   0.1509 
25   0.147404 
26   0.140688 
27   0.152174 
28   0.14622 
29   0.145168 
30   0.18168 
31   0.291086 
 
$$$$ 
 
