PCCDB-ID:  41419 
public computational chemistry database (PCCDB) project, http://pccdb.org 
 
 34 36  0  0  0  0  0  0  0  0999 V2000 
   -0.4731    0.2061    3.3207 C   0  0  0  0  0  0  0  0  0  0  0  0 
    0.1213    1.4150    2.9037 C   0  0  0  0  0  0  0  0  0  0  0  0 
   -0.9643   -0.7075    2.3966 C   0  0  0  0  0  0  0  0  0  0  0  0 
    0.2353    1.7335    1.5553 C   0  0  0  0  0  0  0  0  0  0  0  0 
   -0.8826   -8.6417   -0.1838 C   0  0  0  0  0  0  0  0  0  0  0  0 
   -1.7988   -8.0149   -1.2074 C   0  0  0  0  0  0  0  0  0  0  0  0 
   -1.9242   -2.4552   -0.2652 C   0  0  0  0  0  0  0  0  0  0  0  0 
   -0.9571   -3.6252   -0.0144 C   0  0  0  0  0  0  0  0  0  0  0  0 
   -0.7999   -6.0537    0.2146 C   0  0  0  0  0  0  0  0  0  0  0  0 
   -0.9031   -0.2971   -1.2239 C   0  0  0  0  0  0  0  0  0  0  0  0 
   -1.5827   -7.3448    0.1320 C   0  0  0  0  0  0  0  0  0  0  0  0 
   -1.2667   -1.1077   -0.1781 C   0  0  0  0  0  0  0  0  0  0  0  0 
   -0.8652   -0.4154    1.0247 C   0  0  0  0  0  0  0  0  0  0  0  0 
   -0.2624    0.8110    0.6290 C   0  0  0  0  0  0  0  0  0  0  0  0 
   -1.6663   -4.9007   -0.0182 N   0  0  0  0  0  0  0  0  0  0  0  0 
   -0.2961    0.8530   -0.7496 N   0  0  0  0  0  0  0  0  0  0  0  0 
   -0.5463   -0.0112    4.3829 H   0  0  0  0  0  0  0  0  0  0  0  0 
    0.4977    2.1103    3.6492 H   0  0  0  0  0  0  0  0  0  0  0  0 
   -1.4225   -1.6351    2.7305 H   0  0  0  0  0  0  0  0  0  0  0  0 
    0.6927    2.6663    1.2347 H   0  0  0  0  0  0  0  0  0  0  0  0 
    0.1874   -8.6111   -0.3754 H   0  0  0  0  0  0  0  0  0  0  0  0 
   -1.2138   -9.5428    0.3252 H   0  0  0  0  0  0  0  0  0  0  0  0 
   -2.7577   -8.4866   -1.4040 H   0  0  0  0  0  0  0  0  0  0  0  0 
   -1.3390   -7.5636   -2.0843 H   0  0  0  0  0  0  0  0  0  0  0  0 
   -2.7435   -2.5313    0.4613 H   0  0  0  0  0  0  0  0  0  0  0  0 
   -2.3803   -2.5764   -1.2580 H   0  0  0  0  0  0  0  0  0  0  0  0 
   -0.4867   -3.5024    0.9699 H   0  0  0  0  0  0  0  0  0  0  0  0 
   -0.1349   -3.5803   -0.7561 H   0  0  0  0  0  0  0  0  0  0  0  0 
    0.0551   -6.1019   -0.4915 H   0  0  0  0  0  0  0  0  0  0  0  0 
   -0.3622   -5.9468    1.2174 H   0  0  0  0  0  0  0  0  0  0  0  0 
   -1.0312   -0.4487   -2.2876 H   0  0  0  0  0  0  0  0  0  0  0  0 
   -2.4142   -7.3982    0.8319 H   0  0  0  0  0  0  0  0  0  0  0  0 
   -2.1336   -5.0244   -0.9165 H   0  0  0  0  0  0  0  0  0  0  0  0 
    0.0345    1.6150   -1.3200 H   0  0  0  0  0  0  0  0  0  0  0  0 
  1 17  1  0  0  0  0 
  2  1  1  0  0  0  0 
  2 18  1  0  0  0  0 
  3 19  1  0  0  0  0 
  3  1  2  0  0  0  0 
  4  2  2  0  0  0  0 
  5 11  1  0  0  0  0 
  5 22  1  0  0  0  0 
  6  5  1  0  0  0  0 
  6 11  1  0  0  0  0 
  7 12  1  0  0  0  0 
  7  8  1  0  0  0  0 
  7 25  1  0  0  0  0 
  8 27  1  0  0  0  0 
  9 30  1  0  0  0  0 
 10 16  1  0  0  0  0 
 10 12  2  0  0  0  0 
 11  9  1  0  0  0  0 
 11 32  1  0  0  0  0 
 12 13  1  0  0  0  0 
 13  3  1  0  0  0  0 
 14 13  2  0  0  0  0 
 14  4  1  0  0  0  0 
 15  8  1  0  0  0  0 
 15  9  1  0  0  0  0 
 16 14  1  0  0  0  0 
 20  4  1  0  0  0  0 
 21  5  1  0  0  0  0 
 23  6  1  0  0  0  0 
 24  6  1  0  0  0  0 
 26  7  1  0  0  0  0 
 28  8  1  0  0  0  0 
 29  9  1  0  0  0  0 
 31 10  1  0  0  0  0 
 33 15  1  0  0  0  0 
 34 16  1  0  0  0  0 
M  END 
>  <HBA> 
1 
 
>  <HBD> 
2 
 
>  <TPSA> 
27.82 
 
>  <cid> 
41419 
 
>  <dipole> 
2.69 
 
>  <excitation_energy_1> 
4.554 
 
>  <excitation_energy_2> 
4.695 
 
>  <excitation_energy_3> 
4.822 
 
>  <excitation_energy_4> 
5.086 
 
>  <homo_energy> 
-5.279 
 
>  <homo_lumo_gap> 
5.227 
 
>  <logP> 
3.101 
 
>  <lumo_energy> 
-0.052 
 
>  <melting_point> 
146.2 
 
>  <molecular_refractivity> 
67.99 
 
>  <oscillator_strength_1> 
0.0691 
 
>  <oscillator_strength_2> 
0.0012 
 
>  <oscillator_strength_3> 
0.0257 
 
>  <oscillator_strength_4> 
0.0012 
 
>  <open_babel_can_smiles> 
N(CC1CC1)CCc1c[nH]c2c1cccc2 
 
>  <mulliken_charges> 
34 
1   -0.140732 
2   -0.15139 
3   -0.211364 
4   -0.163541 
5   -0.318328 
6   -0.315565 
7   -0.353819 
8   -0.106839 
9   -0.115661 
10   -0.006637 
11   -0.099992 
12   0.076549 
13   0.078088 
14   0.313007 
15   -0.55843 
16   -0.691163 
17   0.119052 
18   0.120896 
19   0.128516 
20   0.118522 
21   0.149041 
22   0.150381 
23   0.150019 
24   0.144558 
25   0.155851 
26   0.128172 
27   0.145202 
28   0.10877 
29   0.100878 
30   0.140647 
31   0.143077 
32   0.14817 
33   0.289283 
34   0.324781 
 
>  <lowdin_charges> 
34 
1   -0.175553 
2   -0.166514 
3   -0.163607 
4   -0.188538 
5   -0.314138 
6   -0.32359 
7   -0.271606 
8   -0.200835 
9   -0.191485 
10   -0.136149 
11   -0.154218 
12   -0.05939 
13   -0.035757 
14   0.032437 
15   -0.364532 
16   -0.205438 
17   0.152325 
18   0.156022 
19   0.157334 
20   0.154054 
21   0.154954 
22   0.15923 
23   0.158184 
24   0.154237 
25   0.156488 
26   0.142712 
27   0.143681 
28   0.11589 
29   0.1136 
30   0.142526 
31   0.160162 
32   0.157804 
33   0.248528 
34   0.291181 
 
$$$$ 
 
