PCCDB-ID:  68036 
public computational chemistry database (PCCDB) project, http://pccdb.org 
 
 15 15  0  0  0  0  0  0  0  0999 V2000 
   -1.4143   -0.0708    0.0035 C   0  0  0  0  0  0  0  0  0  0  0  0 
   -0.7518    1.1161   -0.0158 C   0  0  0  0  0  0  0  0  0  0  0  0 
    0.7373   -1.2164   -0.0318 C   0  0  0  0  0  0  0  0  0  0  0  0 
   -0.6356   -1.2846   -0.0029 C   0  0  0  0  0  0  0  0  0  0  0  0 
    1.4513    0.0419   -0.0421 C   0  0  0  0  0  0  0  0  0  0  0  0 
   -1.3155   -2.4923    0.0731 N   0  0  0  0  0  0  0  0  0  0  0  0 
    2.7200    0.2890   -0.0597 N   0  0  0  0  0  0  0  0  0  0  0  0 
    0.6052    1.1703   -0.0412 N   0  0  0  0  0  0  0  0  0  0  0  0 
   -2.4968   -0.1002    0.0440 H   0  0  0  0  0  0  0  0  0  0  0  0 
   -1.2642    2.0724   -0.0113 H   0  0  0  0  0  0  0  0  0  0  0  0 
    1.3320   -2.1259   -0.0398 H   0  0  0  0  0  0  0  0  0  0  0  0 
   -2.2516   -2.4963   -0.3109 H   0  0  0  0  0  0  0  0  0  0  0  0 
   -0.7862   -3.3132   -0.1918 H   0  0  0  0  0  0  0  0  0  0  0  0 
    3.2424   -0.5882   -0.0570 H   0  0  0  0  0  0  0  0  0  0  0  0 
    1.0936    2.0566   -0.0532 H   0  0  0  0  0  0  0  0  0  0  0  0 
  1  9  1  0  0  0  0 
  2 10  1  0  0  0  0 
  2  1  2  0  0  0  0 
  3  4  2  0  0  0  0 
  4  1  1  0  0  0  0 
  4  6  1  0  0  0  0 
  5  8  1  0  0  0  0 
  5  3  1  0  0  0  0 
  7 14  1  0  0  0  0 
  7  5  2  0  0  0  0 
  8  2  1  0  0  0  0 
 11  3  1  0  0  0  0 
 12  6  1  0  0  0  0 
 13  6  1  0  0  0  0 
 15  8  1  0  0  0  0 
M  END 
>  <HBA> 
3 
 
>  <HBD> 
2 
 
>  <TPSA> 
64.93 
 
>  <cid> 
68036 
 
>  <dipole> 
4.08 
 
>  <excitation_energy_1> 
3.79 
 
>  <excitation_energy_2> 
4.236 
 
>  <excitation_energy_3> 
4.556 
 
>  <excitation_energy_4> 
4.914 
 
>  <homo_energy> 
-4.808 
 
>  <homo_lumo_gap> 
4.52 
 
>  <logP> 
1.408 
 
>  <lumo_energy> 
-0.288 
 
>  <melting_point> 
118.13 
 
>  <molecular_refractivity> 
33.05 
 
>  <oscillator_strength_1> 
0.0356 
 
>  <oscillator_strength_2> 
0.0053 
 
>  <oscillator_strength_3> 
0.0017 
 
>  <oscillator_strength_4> 
0.0117 
 
>  <open_babel_can_smiles> 
Nc1cc[nH]c(=N)c1 
 
>  <mulliken_charges> 
15 
1   -0.232469 
2   0.108619 
3   -0.277405 
4   0.357452 
5   0.496891 
6   -0.786679 
7   -0.701009 
8   -0.620781 
9   0.12723 
10   0.159701 
11   0.111646 
12   0.324896 
13   0.326893 
14   0.26854 
15   0.336474 
 
>  <lowdin_charges> 
15 
1   -0.254119 
2   -0.064553 
3   -0.281745 
4   0.083981 
5   0.090816 
6   -0.473284 
7   -0.494917 
8   -0.192935 
9   0.160932 
10   0.16851 
11   0.15555 
12   0.278468 
13   0.280376 
14   0.246277 
15   0.296643 
 
$$$$ 
 
