PCCDB-ID:  62244 
public computational chemistry database (PCCDB) project, http://pccdb.org 
 
 26 28  0  0  1  0  0  0  0  0999 V2000 
    0.8327    0.0177    0.0025 C   0  0  0  0  0  0  0  0  0  0  0  0 
    6.7239   -4.2974    0.0239 C   0  0  0  0  0  0  0  0  0  0  0  0 
    7.9407   -3.5965    0.0401 C   0  0  0  0  0  0  0  0  0  0  0  0 
    5.5035   -3.6248    0.0168 C   0  0  0  0  0  0  0  0  0  0  0  0 
    7.9640   -2.2008    0.0495 C   0  0  0  0  0  0  0  0  0  0  0  0 
    3.0378   -1.1949    0.0111 C   0  0  0  0  0  0  0  0  0  0  0  0 
    2.3371   -0.0190    0.0123 C   0  0  0  0  0  0  0  0  0  0  0  0 
    5.4955   -2.2234    0.0266 C   0  0  2  0  0  0  0  0  0  0  0  0 
    4.4623   -1.2136    0.0216 C   0  0  0  0  0  0  0  0  0  0  0  0 
    6.7417   -1.5371    0.0426 C   0  0  0  0  0  0  0  0  0  0  0  0 
    3.0375    1.2727    0.0260 C   0  0  0  0  0  0  0  0  0  0  0  0 
    5.1164    0.0141    0.0348 C   0  0  0  0  0  0  0  0  0  0  0  0 
    2.5539    2.4697    0.0291 N   0  0  0  0  0  0  0  0  0  0  0  0 
    6.4755   -0.1622    0.0481 N   0  0  0  0  0  0  0  0  0  0  0  0 
    4.4474    1.1923    0.0380 N   0  0  0  0  0  0  0  0  0  0  0  0 
    0.4181   -0.9946    0.0006 H   0  0  0  0  0  0  0  0  0  0  0  0 
    0.4446    0.5406   -0.8828 H   0  0  0  0  0  0  0  0  0  0  0  0 
    0.4335    0.5421    0.8819 H   0  0  0  0  0  0  0  0  0  0  0  0 
    6.7346   -5.3838    0.0159 H   0  0  0  0  0  0  0  0  0  0  0  0 
    8.8785   -4.1445    0.0446 H   0  0  0  0  0  0  0  0  0  0  0  0 
    4.5703   -4.1815    0.0040 H   0  0  0  0  0  0  0  0  0  0  0  0 
    8.9044   -1.6558    0.0619 H   0  0  0  0  0  0  0  0  0  0  0  0 
    2.4920   -2.1360    0.0026 H   0  0  0  0  0  0  0  0  0  0  0  0 
    1.5352    2.4432    0.0193 H   0  0  0  0  0  0  0  0  0  0  0  0 
    7.1705    0.5682    0.0548 H   0  0  0  0  0  0  0  0  0  0  0  0 
    4.9163    2.0900    0.0470 H   0  0  0  0  0  0  0  0  0  0  0  0 
  1  7  1  0  0  0  0 
  1 18  1  0  0  0  0 
  2  3  1  0  0  0  0 
  3 20  1  0  0  0  0 
  3  5  1  0  0  0  0 
  4  2  2  0  0  0  0 
  5 22  1  0  0  0  0 
  6  7  2  0  0  0  0 
  6  9  1  0  0  0  0 
  7 11  1  0  0  0  0 
  8  4  1  6  0  0  0 
  8 10  1  0  0  0  0 
  9  8  1  0  0  0  0 
  9 12  2  0  0  0  0 
 10 14  1  0  0  0  0 
 10  5  2  0  0  0  0 
 11 13  2  0  0  0  0 
 11 15  1  0  0  0  0 
 12 15  1  0  0  0  0 
 12 14  1  0  0  0  0 
 14 25  1  0  0  0  0 
 15 26  1  0  0  0  0 
 16  1  1  0  0  0  0 
 17  1  1  0  0  0  0 
 19  2  1  0  0  0  0 
 21  4  1  0  0  0  0 
 23  6  1  0  0  0  0 
 24 13  1  0  0  0  0 
M  RAD  2   3   2   8   2 
M  END 
>  <HBA> 
2 
 
>  <HBD> 
2 
 
>  <TPSA> 
54.7 
 
>  <cid> 
62244 
 
>  <dipole> 
1.86 
 
>  <excitation_energy_1> 
3.688 
 
>  <excitation_energy_2> 
3.939 
 
>  <excitation_energy_3> 
4.042 
 
>  <excitation_energy_4> 
4.54 
 
>  <homo_energy> 
-4.729 
 
>  <homo_lumo_gap> 
4.21 
 
>  <logP> 
3.188 
 
>  <lumo_energy> 
-0.52 
 
>  <melting_point> 
210.77 
 
>  <molecular_refractivity> 
62.97 
 
>  <oscillator_strength_1> 
0.3332 
 
>  <oscillator_strength_2> 
0.0 
 
>  <oscillator_strength_3> 
0.0868 
 
>  <oscillator_strength_4> 
0.0017 
 
>  <open_babel_can_smiles> 
N=c1[nH]c2NC3=C[CH]C=C[C]3c2cc1C 
 
>  <mulliken_charges> 
26 
1   -0.548196 
2   -0.142333 
3   -0.147723 
4   -0.203285 
5   -0.183374 
6   -0.197669 
7   0.11172 
8   0.052126 
9   0.04207 
10   0.338493 
11   0.443827 
12   0.615095 
13   -0.684712 
14   -0.789557 
15   -0.757659 
16   0.156323 
17   0.161267 
18   0.16121 
19   0.123397 
20   0.124464 
21   0.126319 
22   0.123185 
23   0.1342 
24   0.283982 
25   0.327516 
26   0.329316 
 
>  <lowdin_charges> 
26 
1   -0.441711 
2   -0.166824 
3   -0.167858 
4   -0.166765 
5   -0.188727 
6   -0.134172 
7   -0.06397 
8   -0.021323 
9   -0.099574 
10   0.039696 
11   0.092368 
12   0.108418 
13   -0.472696 
14   -0.218813 
15   -0.203538 
16   0.158788 
17   0.157528 
18   0.157565 
19   0.154074 
20   0.157239 
21   0.157267 
22   0.156611 
23   0.16103 
24   0.252295 
25   0.296138 
26   0.296953 
 
$$$$ 
 
