PCCDB-ID:  16683 
public computational chemistry database (PCCDB) project, http://pccdb.org 
 
 26 27  0  0  1  0  0  0  0  0999 V2000 
    0.9179    0.0755   -0.1323 C   0  0  0  0  0  0  0  0  0  0  0  0 
    0.4782   -0.9517    0.9003 C   0  0  0  0  0  0  0  0  0  0  0  0 
    2.9241    1.0783   -0.9424 C   0  0  0  0  0  0  0  0  0  0  0  0 
   -1.4762   -1.8820    1.8459 C   0  0  0  0  0  0  0  0  0  0  0  0 
    2.8073    1.9131   -3.4012 C   0  0  0  0  0  0  0  0  0  0  0  0 
   -3.8137   -1.0664    2.6415 C   0  0  0  0  0  0  0  0  0  0  0  0 
    2.7791    0.8158   -2.4233 C   0  0  2  0  0  0  0  0  0  0  0  0 
   -2.9802   -1.8466    1.7191 C   0  0  2  0  0  0  0  0  0  0  0  0 
    2.3402    0.0738   -0.1342 O   0  0  0  0  0  0  0  0  0  0  0  0 
   -0.9369   -0.9517    0.9270 O   0  0  0  0  0  0  0  0  0  0  0  0 
    1.5727    1.2791   -3.0530 O   0  0  0  0  0  0  0  0  0  0  0  0 
   -3.6958   -2.4900    2.7793 O   0  0  0  0  0  0  0  0  0  0  0  0 
    0.5296    1.0695    0.1389 H   0  0  0  0  0  0  0  0  0  0  0  0 
    0.5093   -0.1828   -1.1177 H   0  0  0  0  0  0  0  0  0  0  0  0 
    0.8938   -0.6906    1.8869 H   0  0  0  0  0  0  0  0  0  0  0  0 
    0.8681   -1.9461    0.6284 H   0  0  0  0  0  0  0  0  0  0  0  0 
    2.4997    2.0688   -0.7099 H   0  0  0  0  0  0  0  0  0  0  0  0 
    3.9884    1.0860   -0.6780 H   0  0  0  0  0  0  0  0  0  0  0  0 
   -1.1098   -2.9003    1.6299 H   0  0  0  0  0  0  0  0  0  0  0  0 
   -1.1851   -1.6412    2.8815 H   0  0  0  0  0  0  0  0  0  0  0  0 
    3.1656    1.7235   -4.4131 H   0  0  0  0  0  0  0  0  0  0  0  0 
    2.9163    2.9427   -3.0577 H   0  0  0  0  0  0  0  0  0  0  0  0 
   -4.7910   -0.7090    2.3171 H   0  0  0  0  0  0  0  0  0  0  0  0 
   -3.3391   -0.4792    3.4283 H   0  0  0  0  0  0  0  0  0  0  0  0 
    3.0965   -0.1777   -2.7466 H   0  0  0  0  0  0  0  0  0  0  0  0 
   -3.3618   -2.0483    0.7167 H   0  0  0  0  0  0  0  0  0  0  0  0 
  1 13  1  0  0  0  0 
  1  2  1  0  0  0  0 
  2 10  1  0  0  0  0 
  2 15  1  0  0  0  0 
  3 17  1  0  0  0  0 
  3 18  1  0  0  0  0 
  3  9  1  0  0  0  0 
  4 20  1  0  0  0  0 
  5 22  1  0  0  0  0 
  5 11  1  0  0  0  0 
  5  7  1  0  0  0  0 
  6 12  1  0  0  0  0 
  6 24  1  0  0  0  0 
  7 25  1  6  0  0  0 
  7  3  1  0  0  0  0 
  8 26  1  6  0  0  0 
  8  4  1  0  0  0  0 
  8  6  1  0  0  0  0 
  8 12  1  0  0  0  0 
  9  1  1  0  0  0  0 
 10  4  1  0  0  0  0 
 11  7  1  0  0  0  0 
 14  1  1  0  0  0  0 
 16  2  1  0  0  0  0 
 19  4  1  0  0  0  0 
 21  5  1  0  0  0  0 
 23  6  1  0  0  0  0 
M  END 
>  <HBA> 
4 
 
>  <HBD> 
0 
 
>  <TPSA> 
43.52 
 
>  <cid> 
16683 
 
>  <dipole> 
3.15 
 
>  <excitation_energy_1> 
6.634 
 
>  <excitation_energy_2> 
6.741 
 
>  <excitation_energy_3> 
6.852 
 
>  <excitation_energy_4> 
6.959 
 
>  <homo_energy> 
-6.931 
 
>  <homo_lumo_gap> 
8.863 
 
>  <logP> 
-0.183 
 
>  <lumo_energy> 
1.932 
 
>  <melting_point> 
-18.53 
 
>  <molecular_refractivity> 
40.68 
 
>  <oscillator_strength_1> 
0.0109 
 
>  <oscillator_strength_2> 
0.0219 
 
>  <oscillator_strength_3> 
0.0042 
 
>  <oscillator_strength_4> 
0.0175 
 
>  <open_babel_can_smiles> 
O(C[C@H]1OC1)CCOC[C@H]1OC1 
 
>  <mulliken_charges> 
26 
1   -0.037998 
2   -0.02075 
3   -0.034629 
4   -0.026583 
5   -0.113564 
6   -0.103206 
7   0.075633 
8   0.091276 
9   -0.483707 
10   -0.485563 
11   -0.436254 
12   -0.447321 
13   0.134713 
14   0.160187 
15   0.131541 
16   0.13298 
17   0.131428 
18   0.150005 
19   0.133243 
20   0.12967 
21   0.155466 
22   0.151285 
23   0.153565 
24   0.151408 
25   0.153451 
26   0.153726 
 
>  <lowdin_charges> 
26 
1   -0.133043 
2   -0.131011 
3   -0.135156 
4   -0.12927 
5   -0.161612 
6   -0.162154 
7   -0.040505 
8   -0.024721 
9   -0.271892 
10   -0.271857 
11   -0.287481 
12   -0.284633 
13   0.135903 
14   0.146856 
15   0.13261 
16   0.133315 
17   0.137216 
18   0.153553 
19   0.134599 
20   0.13381 
21   0.156073 
22   0.151716 
23   0.155647 
24   0.154466 
25   0.153988 
26   0.153584 
 
$$$$ 
 
