PCCDB-ID:  7869 
public computational chemistry database (PCCDB) project, http://pccdb.org 
 
 24 23  0  0  0  0  0  0  0  0999 V2000 
    0.9408    1.4256   -0.4729 C   0  0  0  0  0  0  0  0  0  0  0  0 
    2.5546    3.1893    0.3456 C   0  0  0  0  0  0  0  0  0  0  0  0 
    5.3917    1.2628    0.8555 C   0  0  0  0  0  0  0  0  0  0  0  0 
    5.5106   -0.1438   -1.2062 C   0  0  0  0  0  0  0  0  0  0  0  0 
    5.3900    2.3411   -1.4400 C   0  0  0  0  0  0  0  0  0  0  0  0 
    3.3703    0.9959   -0.6693 C   0  0  0  0  0  0  0  0  0  0  0  0 
    2.3874    1.8274   -0.2865 C   0  0  0  0  0  0  0  0  0  0  0  0 
    4.8943    1.1385   -0.6036 C   0  0  0  0  0  0  0  0  0  0  0  0 
    0.4076    2.1477   -1.1079 H   0  0  0  0  0  0  0  0  0  0  0  0 
    0.4081    1.4076    0.4886 H   0  0  0  0  0  0  0  0  0  0  0  0 
    0.8450    0.4366   -0.9318 H   0  0  0  0  0  0  0  0  0  0  0  0 
    2.0476    3.2237    1.3202 H   0  0  0  0  0  0  0  0  0  0  0  0 
    2.0789    3.9616   -0.2753 H   0  0  0  0  0  0  0  0  0  0  0  0 
    3.5935    3.4804    0.5003 H   0  0  0  0  0  0  0  0  0  0  0  0 
    6.4886    1.2930    0.8851 H   0  0  0  0  0  0  0  0  0  0  0  0 
    5.0614    0.4049    1.4522 H   0  0  0  0  0  0  0  0  0  0  0  0 
    5.0218    2.1685    1.3450 H   0  0  0  0  0  0  0  0  0  0  0  0 
    6.6057   -0.0973   -1.1880 H   0  0  0  0  0  0  0  0  0  0  0  0 
    5.1961   -0.2809   -2.2480 H   0  0  0  0  0  0  0  0  0  0  0  0 
    5.2018   -1.0327   -0.6427 H   0  0  0  0  0  0  0  0  0  0  0  0 
    6.4867    2.3855   -1.4342 H   0  0  0  0  0  0  0  0  0  0  0  0 
    5.0171    3.2956   -1.0572 H   0  0  0  0  0  0  0  0  0  0  0  0 
    5.0613    2.2510   -2.4816 H   0  0  0  0  0  0  0  0  0  0  0  0 
    3.0399    0.0522   -1.1068 H   0  0  0  0  0  0  0  0  0  0  0  0 
  1  7  1  0  0  0  0 
  1 10  1  0  0  0  0 
  2 14  1  0  0  0  0 
  2 12  1  0  0  0  0 
  3 15  1  0  0  0  0 
  3 17  1  0  0  0  0 
  3 16  1  0  0  0  0 
  4 18  1  0  0  0  0 
  4 20  1  0  0  0  0 
  4  8  1  0  0  0  0 
  5 21  1  0  0  0  0 
  5 22  1  0  0  0  0 
  5  8  1  0  0  0  0 
  6  8  1  0  0  0  0 
  6  7  2  0  0  0  0 
  7  2  1  0  0  0  0 
  8  3  1  0  0  0  0 
  9  1  1  0  0  0  0 
 11  1  1  0  0  0  0 
 13  2  1  0  0  0  0 
 19  4  1  0  0  0  0 
 23  5  1  0  0  0  0 
 24  6  1  0  0  0  0 
M  END 
>  <HBA> 
0 
 
>  <HBD> 
0 
 
>  <TPSA> 
0.0 
 
>  <cid> 
7869 
 
>  <dipole> 
0.33 
 
>  <excitation_energy_1> 
5.696 
 
>  <excitation_energy_2> 
6.206 
 
>  <excitation_energy_3> 
6.252 
 
>  <excitation_energy_4> 
6.335 
 
>  <homo_energy> 
-6.169 
 
>  <homo_lumo_gap> 
7.002 
 
>  <logP> 
2.999 
 
>  <lumo_energy> 
0.833 
 
>  <melting_point> 
4.01 
 
>  <molecular_refractivity> 
39.84 
 
>  <oscillator_strength_1> 
0.0063 
 
>  <oscillator_strength_2> 
0.209 
 
>  <oscillator_strength_3> 
0.0151 
 
>  <oscillator_strength_4> 
0.0024 
 
>  <open_babel_can_smiles> 
CC(=CC(C)(C)C)C 
 
>  <mulliken_charges> 
24 
1   -0.504505 
2   -0.514694 
3   -0.439705 
4   -0.45417 
5   -0.439829 
6   -0.182759 
7   0.185354 
8   0.084213 
9   0.147441 
10   0.147443 
11   0.150801 
12   0.150616 
13   0.151041 
14   0.157828 
15   0.133758 
16   0.142027 
17   0.142682 
18   0.136749 
19   0.140216 
20   0.140151 
21   0.133714 
22   0.14263 
23   0.141969 
24   0.107028 
 
>  <lowdin_charges> 
24 
1   -0.439505 
2   -0.447108 
3   -0.439613 
4   -0.438838 
5   -0.436998 
6   -0.193753 
7   -0.006741 
8   0.017046 
9   0.152509 
10   0.151122 
11   0.153298 
12   0.154932 
13   0.156563 
14   0.155016 
15   0.142001 
16   0.150185 
17   0.148453 
18   0.143963 
19   0.145712 
20   0.147278 
21   0.141993 
22   0.148061 
23   0.148224 
24   0.146201 
 
$$$$ 
 
