PCCDB-ID:  69137 
public computational chemistry database (PCCDB) project, http://pccdb.org 
 
 20 20  0  0  0  0  0  0  0  0999 V2000 
    0.8737   -0.3348   -0.3105 C   0  0  0  0  0  0  0  0  0  0  0  0 
    1.3566    2.6547    0.8832 C   0  0  0  0  0  0  0  0  0  0  0  0 
    4.5804   -1.2010   -0.0019 C   0  0  0  0  0  0  0  0  0  0  0  0 
    5.1749    0.0601   -0.0225 C   0  0  0  0  0  0  0  0  0  0  0  0 
    3.1908   -1.3007   -0.0721 C   0  0  0  0  0  0  0  0  0  0  0  0 
    4.3739    1.1984   -0.0857 C   0  0  0  0  0  0  0  0  0  0  0  0 
    2.3670   -0.1726   -0.1581 C   0  0  0  0  0  0  0  0  0  0  0  0 
    2.9749    1.1040   -0.1484 C   0  0  0  0  0  0  0  0  0  0  0  0 
    2.1889    2.2819   -0.2659 N   0  0  0  0  0  0  0  0  0  0  0  0 
    0.6330   -1.3121   -0.7415 H   0  0  0  0  0  0  0  0  0  0  0  0 
    0.4640    0.4437   -0.9629 H   0  0  0  0  0  0  0  0  0  0  0  0 
    0.3446   -0.2695    0.6501 H   0  0  0  0  0  0  0  0  0  0  0  0 
    0.8572    3.6029    0.6596 H   0  0  0  0  0  0  0  0  0  0  0  0 
    1.9257    2.7686    1.8205 H   0  0  0  0  0  0  0  0  0  0  0  0 
    0.5809    1.9041    1.0482 H   0  0  0  0  0  0  0  0  0  0  0  0 
    5.1902   -2.0985    0.0537 H   0  0  0  0  0  0  0  0  0  0  0  0 
    6.2561    0.1616    0.0214 H   0  0  0  0  0  0  0  0  0  0  0  0 
    2.7254   -2.2842   -0.0866 H   0  0  0  0  0  0  0  0  0  0  0  0 
    4.8343    2.1851   -0.0839 H   0  0  0  0  0  0  0  0  0  0  0  0 
    2.7887    3.0647   -0.5105 H   0  0  0  0  0  0  0  0  0  0  0  0 
  1  7  1  0  0  0  0 
  1 12  1  0  0  0  0 
  2 15  1  0  0  0  0 
  2 14  1  0  0  0  0 
  3 16  1  0  0  0  0 
  4  3  1  0  0  0  0 
  4 17  1  0  0  0  0 
  5  3  2  0  0  0  0 
  6 19  1  0  0  0  0 
  6  4  2  0  0  0  0 
  7  8  2  0  0  0  0 
  7  5  1  0  0  0  0 
  8  6  1  0  0  0  0 
  9  8  1  0  0  0  0 
  9  2  1  0  0  0  0 
 10  1  1  0  0  0  0 
 11  1  1  0  0  0  0 
 13  2  1  0  0  0  0 
 18  5  1  0  0  0  0 
 20  9  1  0  0  0  0 
M  END 
>  <HBA> 
1 
 
>  <HBD> 
1 
 
>  <TPSA> 
12.03 
 
>  <cid> 
69137 
 
>  <dipole> 
1.15 
 
>  <excitation_energy_1> 
4.754 
 
>  <excitation_energy_2> 
4.956 
 
>  <excitation_energy_3> 
5.316 
 
>  <excitation_energy_4> 
5.571 
 
>  <homo_energy> 
-5.519 
 
>  <homo_lumo_gap> 
5.761 
 
>  <logP> 
2.11 
 
>  <lumo_energy> 
0.242 
 
>  <melting_point> 
42.71 
 
>  <molecular_refractivity> 
40.71 
 
>  <oscillator_strength_1> 
0.0314 
 
>  <oscillator_strength_2> 
0.0486 
 
>  <oscillator_strength_3> 
0.0752 
 
>  <oscillator_strength_4> 
0.0042 
 
>  <open_babel_can_smiles> 
CNc1ccccc1C 
 
>  <mulliken_charges> 
20 
1   -0.53951 
2   -0.313204 
3   -0.126427 
4   -0.139201 
5   -0.19839 
6   -0.180364 
7   0.168159 
8   0.228003 
9   -0.618903 
10   0.15149 
11   0.175502 
12   0.156004 
13   0.150934 
14   0.138095 
15   0.164874 
16   0.121913 
17   0.123931 
18   0.118484 
19   0.112666 
20   0.305943 
 
>  <lowdin_charges> 
20 
1   -0.445823 
2   -0.356045 
3   -0.173758 
4   -0.155032 
5   -0.161799 
6   -0.192796 
7   -0.017878 
8   0.035469 
9   -0.324173 
10   0.1558 
11   0.167878 
12   0.154092 
13   0.152048 
14   0.131786 
15   0.156567 
16   0.155638 
17   0.153387 
18   0.152402 
19   0.14904 
20   0.263195 
 
$$$$ 
 
