PCCDB-ID:  11610 
public computational chemistry database (PCCDB) project, http://pccdb.org 
 
 21 20  0  0  0  0  0  0  0  0999 V2000 
    1.4346   -0.0961   -0.9880 C   0  0  0  0  0  0  0  0  0  0  0  0 
    7.7142    3.3921    0.9438 C   0  0  0  0  0  0  0  0  0  0  0  0 
    2.3005    0.0396    0.0170 C   0  0  0  0  0  0  0  0  0  0  0  0 
    6.9230    2.1340    0.5715 C   0  0  0  0  0  0  0  0  0  0  0  0 
    3.0793    1.2871    0.3339 C   0  0  0  0  0  0  0  0  0  0  0  0 
    5.4033    2.3349    0.6352 C   0  0  0  0  0  0  0  0  0  0  0  0 
    4.6044    1.0793    0.2642 C   0  0  0  0  0  0  0  0  0  0  0  0 
    0.9070   -1.0289   -1.1696 H   0  0  0  0  0  0  0  0  0  0  0  0 
    1.2159    0.7253   -1.6680 H   0  0  0  0  0  0  0  0  0  0  0  0 
    8.7947    3.2169    0.8901 H   0  0  0  0  0  0  0  0  0  0  0  0 
    7.4799    3.7198    1.9642 H   0  0  0  0  0  0  0  0  0  0  0  0 
    7.4774    4.2235    0.2685 H   0  0  0  0  0  0  0  0  0  0  0  0 
    2.4891   -0.8145    0.6709 H   0  0  0  0  0  0  0  0  0  0  0  0 
    7.2074    1.3106    1.2421 H   0  0  0  0  0  0  0  0  0  0  0  0 
    7.2028    1.8110   -0.4412 H   0  0  0  0  0  0  0  0  0  0  0  0 
    2.8200    1.6314    1.3475 H   0  0  0  0  0  0  0  0  0  0  0  0 
    2.7838    2.0918   -0.3526 H   0  0  0  0  0  0  0  0  0  0  0  0 
    5.1186    3.1588   -0.0361 H   0  0  0  0  0  0  0  0  0  0  0  0 
    5.1224    2.6588    1.6486 H   0  0  0  0  0  0  0  0  0  0  0  0 
    4.8747    0.7549   -0.7501 H   0  0  0  0  0  0  0  0  0  0  0  0 
    4.8889    0.2549    0.9345 H   0  0  0  0  0  0  0  0  0  0  0  0 
  1  3  2  0  0  0  0 
  2 11  1  0  0  0  0 
  3  5  1  0  0  0  0 
  3 13  1  0  0  0  0 
  4  6  1  0  0  0  0 
  4  2  1  0  0  0  0 
  4 14  1  0  0  0  0 
  5 16  1  0  0  0  0 
  6 19  1  0  0  0  0 
  7  5  1  0  0  0  0 
  7  6  1  0  0  0  0 
  7 21  1  0  0  0  0 
  8  1  1  0  0  0  0 
  9  1  1  0  0  0  0 
 10  2  1  0  0  0  0 
 12  2  1  0  0  0  0 
 15  4  1  0  0  0  0 
 17  5  1  0  0  0  0 
 18  6  1  0  0  0  0 
 20  7  1  0  0  0  0 
M  END 
>  <HBA> 
0 
 
>  <HBD> 
0 
 
>  <TPSA> 
0.0 
 
>  <cid> 
11610 
 
>  <dipole> 
0.38 
 
>  <excitation_energy_1> 
6.492 
 
>  <excitation_energy_2> 
6.861 
 
>  <excitation_energy_3> 
6.943 
 
>  <excitation_energy_4> 
7.003 
 
>  <homo_energy> 
-6.754 
 
>  <homo_lumo_gap> 
7.486 
 
>  <logP> 
2.753 
 
>  <lumo_energy> 
0.732 
 
>  <melting_point> 
-47.83 
 
>  <molecular_refractivity> 
35.29 
 
>  <oscillator_strength_1> 
0.0399 
 
>  <oscillator_strength_2> 
0.03 
 
>  <oscillator_strength_3> 
0.23 
 
>  <oscillator_strength_4> 
0.0508 
 
>  <open_babel_can_smiles> 
CCCCCC=C 
 
>  <mulliken_charges> 
21 
1   -0.342093 
2   -0.44144 
3   -0.040562 
4   -0.247027 
5   -0.30087 
6   -0.245903 
7   -0.254431 
8   0.136285 
9   0.13282 
10   0.14191 
11   0.141169 
12   0.141431 
13   0.121702 
14   0.130252 
15   0.131298 
16   0.139249 
17   0.135718 
18   0.127784 
19   0.12668 
20   0.137343 
21   0.128686 
 
>  <lowdin_charges> 
21 
1   -0.346914 
2   -0.442325 
3   -0.144166 
4   -0.272068 
5   -0.271682 
6   -0.274942 
7   -0.27312 
8   0.157007 
9   0.153466 
10   0.147539 
11   0.145319 
12   0.146884 
13   0.148283 
14   0.139554 
15   0.13869 
16   0.146328 
17   0.145753 
18   0.13862 
19   0.136556 
20   0.142033 
21   0.139185 
 
$$$$ 
 
