PCCDB-ID:  43471 
public computational chemistry database (PCCDB) project, http://pccdb.org 
 
 23 23  0  0  0  0  0  0  0  0999 V2000 
    0.9754    0.0048   -0.0949 C   0  0  0  0  0  0  0  0  0  0  0  0 
    6.8416   -0.1852   -0.2692 C   0  0  0  0  0  0  0  0  0  0  0  0 
    3.2265    1.1615   -0.1453 C   0  0  0  0  0  0  0  0  0  0  0  0 
    3.1800   -1.2296   -0.0620 C   0  0  0  0  0  0  0  0  0  0  0  0 
    2.4860   -0.0207   -0.0927 C   0  0  0  0  0  0  0  0  0  0  0  0 
    5.3362   -0.0811   -0.2074 C   0  0  0  0  0  0  0  0  0  0  0  0 
    4.6314    1.1362   -0.2047 C   0  0  0  0  0  0  0  0  0  0  0  0 
    4.5809   -1.2760   -0.1175 C   0  0  0  0  0  0  0  0  0  0  0  0 
    5.3442    2.4581   -0.2934 C   0  0  0  0  0  0  0  0  0  0  0  0 
    5.2289   -2.5110   -0.1421 N   0  0  0  0  0  0  0  0  0  0  0  0 
    6.3096    2.6957   -0.9811 O   0  0  0  0  0  0  0  0  0  0  0  0 
    4.8038    3.4545    0.4664 O   0  0  0  0  0  0  0  0  0  0  0  0 
    0.5893    0.9403    0.3232 H   0  0  0  0  0  0  0  0  0  0  0  0 
    0.5588   -0.8238    0.4880 H   0  0  0  0  0  0  0  0  0  0  0  0 
    0.5797   -0.0848   -1.1151 H   0  0  0  0  0  0  0  0  0  0  0  0 
    7.3118    0.7867   -0.4018 H   0  0  0  0  0  0  0  0  0  0  0  0 
    7.1461   -0.8217   -1.1102 H   0  0  0  0  0  0  0  0  0  0  0  0 
    7.2482   -0.6437    0.6456 H   0  0  0  0  0  0  0  0  0  0  0  0 
    2.7010    2.1119   -0.2015 H   0  0  0  0  0  0  0  0  0  0  0  0 
    2.6254   -2.1649   -0.0031 H   0  0  0  0  0  0  0  0  0  0  0  0 
    4.6793   -3.2901    0.1971 H   0  0  0  0  0  0  0  0  0  0  0  0 
    6.1714   -2.5255    0.2240 H   0  0  0  0  0  0  0  0  0  0  0  0 
    4.1123    3.0773    1.0355 H   0  0  0  0  0  0  0  0  0  0  0  0 
  1  5  1  0  0  0  0 
  1 13  1  0  0  0  0 
  1 14  1  0  0  0  0 
  2  6  1  0  0  0  0 
  2 18  1  0  0  0  0 
  3  5  2  0  0  0  0 
  4 20  1  0  0  0  0 
  5  4  1  0  0  0  0 
  6  7  2  0  0  0  0 
  6  8  1  0  0  0  0 
  7  3  1  0  0  0  0 
  8  4  2  0  0  0  0 
  9  7  1  0  0  0  0 
  9 12  1  0  0  0  0 
 10  8  1  0  0  0  0 
 10 21  1  0  0  0  0 
 10 22  1  0  0  0  0 
 11  9  2  0  0  0  0 
 12 23  1  0  0  0  0 
 15  1  1  0  0  0  0 
 16  2  1  0  0  0  0 
 17  2  1  0  0  0  0 
 19  3  1  0  0  0  0 
M  END 
>  <HBA> 
3 
 
>  <HBD> 
2 
 
>  <TPSA> 
63.32 
 
>  <cid> 
43471 
 
>  <dipole> 
5.73 
 
>  <excitation_energy_1> 
4.146 
 
>  <excitation_energy_2> 
4.854 
 
>  <excitation_energy_3> 
4.917 
 
>  <excitation_energy_4> 
5.07 
 
>  <homo_energy> 
-5.772 
 
>  <homo_lumo_gap> 
4.874 
 
>  <logP> 
2.165 
 
>  <lumo_energy> 
-0.898 
 
>  <melting_point> 
154.48 
 
>  <molecular_refractivity> 
47.74 
 
>  <oscillator_strength_1> 
0.0628 
 
>  <oscillator_strength_2> 
0.0112 
 
>  <oscillator_strength_3> 
0.0098 
 
>  <oscillator_strength_4> 
0.0125 
 
>  <open_babel_can_smiles> 
Cc1cc(N)c(c(c1)C(=O)O)C 
 
>  <mulliken_charges> 
23 
1   -0.531611 
2   -0.571404 
3   -0.270378 
4   -0.218778 
5   0.179587 
6   0.133069 
7   -0.017818 
8   0.257469 
9   0.533942 
10   -0.793844 
11   -0.446379 
12   -0.567395 
13   0.156733 
14   0.157388 
15   0.172502 
16   0.208772 
17   0.171054 
18   0.14201 
19   0.129878 
20   0.115156 
21   0.322798 
22   0.329523 
23   0.407726 
 
>  <lowdin_charges> 
23 
1   -0.4415 
2   -0.457361 
3   -0.212205 
4   -0.198716 
5   0.010205 
6   -0.021547 
7   -0.055446 
8   0.058053 
9   0.196127 
10   -0.483154 
11   -0.242101 
12   -0.359182 
13   0.158404 
14   0.15949 
15   0.164968 
16   0.186876 
17   0.16526 
18   0.147912 
19   0.156098 
20   0.152424 
21   0.278068 
22   0.279565 
23   0.357761 
 
$$$$ 
 
