PCCDB-ID:  26579 
public computational chemistry database (PCCDB) project, http://pccdb.org 
 
 22 22  0  0  0  0  0  0  0  0999 V2000 
    8.2316   -1.8789    1.2126 C   0  0  0  0  0  0  0  0  0  0  0  0 
    6.1878    4.4802    4.1995 C   0  0  0  0  0  0  0  0  0  0  0  0 
    5.4147    4.1126    3.0968 C   0  0  0  0  0  0  0  0  0  0  0  0 
    7.0122    3.5396    4.8085 C   0  0  0  0  0  0  0  0  0  0  0  0 
    5.4791    2.8112    2.6036 C   0  0  0  0  0  0  0  0  0  0  0  0 
    7.0884    2.2192    4.3338 C   0  0  0  0  0  0  0  0  0  0  0  0 
    6.3119    1.8754    3.2102 C   0  0  0  0  0  0  0  0  0  0  0  0 
    7.9446    1.2211    5.0274 C   0  0  0  0  0  0  0  0  0  0  0  0 
    7.3742    0.0939    2.1024 C   0  0  0  0  0  0  0  0  0  0  0  0 
    8.0670    0.0478    4.7358 O   0  0  0  0  0  0  0  0  0  0  0  0 
    8.6053    1.7555    6.0886 O   0  0  0  0  0  0  0  0  0  0  0  0 
    8.3581    0.7264    1.8117 O   0  0  0  0  0  0  0  0  0  0  0  0 
    7.1396   -1.1937    1.8464 O   0  0  0  0  0  0  0  0  0  0  0  0 
    6.2564    0.5858    2.7079 O   0  0  0  0  0  0  0  0  0  0  0  0 
    9.1159   -1.8557    1.8541 H   0  0  0  0  0  0  0  0  0  0  0  0 
    8.4695   -1.4178    0.2504 H   0  0  0  0  0  0  0  0  0  0  0  0 
    7.8852   -2.9030    1.0730 H   0  0  0  0  0  0  0  0  0  0  0  0 
    6.1455    5.4938    4.5865 H   0  0  0  0  0  0  0  0  0  0  0  0 
    4.7647    4.8379    2.6156 H   0  0  0  0  0  0  0  0  0  0  0  0 
    7.6089    3.8149    5.6698 H   0  0  0  0  0  0  0  0  0  0  0  0 
    4.8916    2.4993    1.7465 H   0  0  0  0  0  0  0  0  0  0  0  0 
    9.1248    1.0205    6.4634 H   0  0  0  0  0  0  0  0  0  0  0  0 
  1 13  1  0  0  0  0 
  1 15  1  0  0  0  0 
  2 18  1  0  0  0  0 
  2  4  2  0  0  0  0 
  3  2  1  0  0  0  0 
  4 20  1  0  0  0  0 
  5  3  2  0  0  0  0 
  5  7  1  0  0  0  0 
  6  4  1  0  0  0  0 
  6  8  1  0  0  0  0 
  7  6  2  0  0  0  0 
  8 11  1  0  0  0  0 
  9 14  1  0  0  0  0 
 10  8  2  0  0  0  0 
 11 22  1  0  0  0  0 
 12  9  2  0  0  0  0 
 13  9  1  0  0  0  0 
 14  7  1  0  0  0  0 
 16  1  1  0  0  0  0 
 17  1  1  0  0  0  0 
 19  3  1  0  0  0  0 
 21  5  1  0  0  0  0 
M  END 
>  <HBA> 
5 
 
>  <HBD> 
1 
 
>  <TPSA> 
72.83 
 
>  <cid> 
26579 
 
>  <dipole> 
1.19 
 
>  <excitation_energy_1> 
4.656 
 
>  <excitation_energy_2> 
4.806 
 
>  <excitation_energy_3> 
5.371 
 
>  <excitation_energy_4> 
5.523 
 
>  <homo_energy> 
-6.977 
 
>  <homo_lumo_gap> 
5.497 
 
>  <logP> 
1.53 
 
>  <lumo_energy> 
-1.48 
 
>  <melting_point> 
122.86 
 
>  <molecular_refractivity> 
46.37 
 
>  <oscillator_strength_1> 
0.0317 
 
>  <oscillator_strength_2> 
0.0119 
 
>  <oscillator_strength_3> 
0.1568 
 
>  <oscillator_strength_4> 
0.0057 
 
>  <open_babel_can_smiles> 
COC(=O)Oc1ccccc1C(=O)O 
 
>  <mulliken_charges> 
22 
1   -0.217454 
2   -0.123301 
3   -0.129797 
4   -0.183087 
5   -0.155542 
6   0.079015 
7   0.308517 
8   0.563612 
9   0.822062 
10   -0.477963 
11   -0.58457 
12   -0.482426 
13   -0.443924 
14   -0.521935 
15   0.180047 
16   0.170664 
17   0.169404 
18   0.141642 
19   0.146244 
20   0.171524 
21   0.152656 
22   0.414611 
 
>  <lowdin_charges> 
22 
1   -0.269966 
2   -0.159713 
3   -0.130539 
4   -0.127983 
5   -0.165678 
6   -0.058638 
7   0.130388 
8   0.203427 
9   0.243844 
10   -0.262629 
11   -0.360004 
12   -0.274153 
13   -0.164449 
14   -0.14121 
15   0.164901 
16   0.159019 
17   0.16223 
18   0.163918 
19   0.167602 
20   0.179442 
21   0.174684 
22   0.365508 
 
$$$$ 
 
