PCCDB-ID:  26907 
public computational chemistry database (PCCDB) project, http://pccdb.org 
 
 28 28  0  0  1  0  0  0  0  0999 V2000 
    2.4996   -1.2957    2.8601 C   0  0  0  0  0  0  0  0  0  0  0  0 
    3.0262   -1.6271    1.6825 C   0  0  0  0  0  0  0  0  0  0  0  0 
    8.1641   -3.6658   -0.6316 C   0  0  0  0  0  0  0  0  0  0  0  0 
    6.9606   -5.5280    0.2892 C   0  0  0  0  0  0  0  0  0  0  0  0 
    7.1552   -2.8028   -0.2233 C   0  0  0  0  0  0  0  0  0  0  0  0 
    5.9354   -4.6758    0.7066 C   0  0  0  0  0  0  0  0  0  0  0  0 
    3.9052   -2.8213    1.4652 C   0  0  0  0  0  0  0  0  0  0  0  0 
    9.1970   -5.9829   -0.8229 C   0  0  0  0  0  0  0  0  0  0  0  0 
    8.0887   -5.0495   -0.3871 C   0  0  0  0  0  0  0  0  0  0  0  0 
    6.0290   -3.3021    0.4487 C   0  0  0  0  0  0  0  0  0  0  0  0 
   10.3217   -6.1424    0.1918 C   0  0  1  0  0  0  0  0  0  0  0  0 
   11.2925   -6.9698    0.0814 N   0  0  0  0  0  0  0  0  0  0  0  0 
   10.3340   -5.3573    1.2976 O   0  0  0  0  0  0  0  0  0  0  0  0 
   11.1591   -7.7021   -1.1350 O   0  0  0  0  0  0  0  0  0  0  0  0 
    5.0958   -2.3764    0.8066 O   0  0  0  0  0  0  0  0  0  0  0  0 
    1.8365   -0.4423    2.9688 H   0  0  0  0  0  0  0  0  0  0  0  0 
    2.7071   -1.8675    3.7622 H   0  0  0  0  0  0  0  0  0  0  0  0 
    2.8120   -1.0363    0.7931 H   0  0  0  0  0  0  0  0  0  0  0  0 
    9.0255   -3.2624   -1.1594 H   0  0  0  0  0  0  0  0  0  0  0  0 
    6.8732   -6.5927    0.4931 H   0  0  0  0  0  0  0  0  0  0  0  0 
    7.2128   -1.7365   -0.4180 H   0  0  0  0  0  0  0  0  0  0  0  0 
    5.0791   -5.0909    1.2252 H   0  0  0  0  0  0  0  0  0  0  0  0 
    3.3974   -3.5630    0.8288 H   0  0  0  0  0  0  0  0  0  0  0  0 
    4.1528   -3.3049    2.4202 H   0  0  0  0  0  0  0  0  0  0  0  0 
    9.6465   -5.6410   -1.7637 H   0  0  0  0  0  0  0  0  0  0  0  0 
    8.8072   -6.9837   -1.0387 H   0  0  0  0  0  0  0  0  0  0  0  0 
    9.5246   -4.8179    1.2855 H   0  0  0  0  0  0  0  0  0  0  0  0 
   11.9231   -8.2950   -1.0803 H   0  0  0  0  0  0  0  0  0  0  0  0 
  1 16  1  0  0  0  0 
  1 17  1  0  0  0  0 
  2  1  2  0  0  0  0 
  3  9  2  0  0  0  0 
  3  5  1  0  0  0  0 
  4 20  1  0  0  0  0 
  4  6  2  0  0  0  0 
  5 10  2  0  0  0  0 
  6 22  1  0  0  0  0 
  7  2  1  0  0  0  0 
  7 24  1  0  0  0  0 
  8  9  1  0  0  0  0 
  8 11  1  0  0  0  0 
  9  4  1  0  0  0  0 
 10  6  1  0  0  0  0 
 10 15  1  0  0  0  0 
 11 12  1  6  0  0  0 
 11 13  1  0  0  0  0 
 14 28  1  0  0  0  0 
 14 12  1  0  0  0  0 
 15  7  1  0  0  0  0 
 18  2  1  0  0  0  0 
 19  3  1  0  0  0  0 
 21  5  1  0  0  0  0 
 23  7  1  0  0  0  0 
 25  8  1  0  0  0  0 
 26  8  1  0  0  0  0 
 27 13  1  0  0  0  0 
M  RAD  2  11   2  12   2 
M  END 
>  <HBA> 
4 
 
>  <HBD> 
2 
 
>  <TPSA> 
58.56 
 
>  <cid> 
26907 
 
>  <dipole> 
4.17 
 
>  <excitation_energy_1> 
4.814 
 
>  <excitation_energy_2> 
4.901 
 
>  <excitation_energy_3> 
5.065 
 
>  <excitation_energy_4> 
5.321 
 
>  <homo_energy> 
-5.829 
 
>  <homo_lumo_gap> 
5.372 
 
>  <logP> 
1.69 
 
>  <lumo_energy> 
-0.457 
 
>  <melting_point> 
93.14 
 
>  <molecular_refractivity> 
55.58 
 
>  <oscillator_strength_1> 
0.0039 
 
>  <oscillator_strength_2> 
0.0253 
 
>  <oscillator_strength_3> 
0.001 
 
>  <oscillator_strength_4> 
0.0021 
 
>  <open_babel_can_smiles> 
C=CCOc1ccc(cc1)C[C]([N]O)O 
 
>  <mulliken_charges> 
28 
1   -0.331648 
2   -0.05389 
3   -0.180059 
4   -0.174859 
5   -0.171164 
6   -0.19298 
7   -0.085202 
8   -0.409449 
9   0.068441 
10   0.384332 
11   0.504471 
12   -0.250998 
13   -0.590619 
14   -0.532003 
15   -0.517557 
16   0.152722 
17   0.145516 
18   0.148481 
19   0.141732 
20   0.14021 
21   0.146554 
22   0.141008 
23   0.152192 
24   0.148848 
25   0.188991 
26   0.190624 
27   0.420011 
28   0.416298 
 
>  <lowdin_charges> 
28 
1   -0.319704 
2   -0.151542 
3   -0.160486 
4   -0.150362 
5   -0.177205 
6   -0.211086 
7   -0.123939 
8   -0.298827 
9   -0.048831 
10   0.104132 
11   0.096596 
12   -0.112532 
13   -0.362003 
14   -0.402263 
15   -0.197046 
16   0.16578 
17   0.159238 
18   0.163002 
19   0.163833 
20   0.160668 
21   0.169165 
22   0.16642 
23   0.148307 
24   0.14512 
25   0.178424 
26   0.179111 
27   0.360961 
28   0.355069 
 
$$$$ 
 
