PCCDB-ID:  16997 
public computational chemistry database (PCCDB) project, http://pccdb.org 
 
 16 16  0  0  1  0  0  0  0  0999 V2000 
    2.1497   -1.4033    0.3155 C   0  0  0  0  0  0  0  0  0  0  0  0 
    2.5331    0.0427   -0.0112 C   0  0  0  0  0  0  0  0  0  0  0  0 
    3.2738    2.2906    0.9561 C   0  0  0  0  0  0  0  0  0  0  0  0 
    2.4462    3.0862    1.6363 C   0  0  0  0  0  0  0  0  0  0  0  0 
    2.9267    0.8519    1.2304 C   0  0  1  0  0  0  0  0  0  0  0  0 
    1.5025    2.2405    2.4094 C   0  0  0  0  0  0  0  0  0  0  0  0 
    0.6027    2.5587    3.1443 O   0  0  0  0  0  0  0  0  0  0  0  0 
    1.8211    0.9242    2.1493 O   0  0  0  0  0  0  0  0  0  0  0  0 
    1.8644   -1.9428   -0.5937 H   0  0  0  0  0  0  0  0  0  0  0  0 
    1.3056   -1.4320    1.0106 H   0  0  0  0  0  0  0  0  0  0  0  0 
    2.9867   -1.9416    0.7765 H   0  0  0  0  0  0  0  0  0  0  0  0 
    1.6993    0.5578   -0.5040 H   0  0  0  0  0  0  0  0  0  0  0  0 
    3.3804    0.0641   -0.7100 H   0  0  0  0  0  0  0  0  0  0  0  0 
    4.0808    2.5832    0.2928 H   0  0  0  0  0  0  0  0  0  0  0  0 
    2.4076    4.1671    1.6642 H   0  0  0  0  0  0  0  0  0  0  0  0 
    3.7512    0.3432    1.7520 H   0  0  0  0  0  0  0  0  0  0  0  0 
  1 11  1  0  0  0  0 
  1 10  1  0  0  0  0 
  2  1  1  0  0  0  0 
  2  5  1  0  0  0  0 
  3  5  1  0  0  0  0 
  3  4  2  0  0  0  0 
  4 15  1  0  0  0  0 
  4  6  1  0  0  0  0 
  5 16  1  1  0  0  0 
  5  8  1  0  0  0  0 
  6  7  2  0  0  0  0 
  8  6  1  0  0  0  0 
  9  1  1  0  0  0  0 
 12  2  1  0  0  0  0 
 13  2  1  0  0  0  0 
 14  3  1  0  0  0  0 
M  END 
>  <HBA> 
2 
 
>  <HBD> 
0 
 
>  <TPSA> 
26.3 
 
>  <cid> 
16997 
 
>  <dipole> 
4.82 
 
>  <excitation_energy_1> 
4.695 
 
>  <excitation_energy_2> 
5.922 
 
>  <excitation_energy_3> 
6.524 
 
>  <excitation_energy_4> 
6.972 
 
>  <homo_energy> 
-7.306 
 
>  <homo_lumo_gap> 
6.074 
 
>  <logP> 
0.878 
 
>  <lumo_energy> 
-1.233 
 
>  <melting_point> 
18.25 
 
>  <molecular_refractivity> 
29.65 
 
>  <oscillator_strength_1> 
0.0001 
 
>  <oscillator_strength_2> 
0.1746 
 
>  <oscillator_strength_3> 
0.1171 
 
>  <oscillator_strength_4> 
0.0315 
 
>  <open_babel_can_smiles> 
CC[C@@H]1OC(=O)C=C1 
 
>  <mulliken_charges> 
16 
1   -0.45069 
2   -0.259032 
3   -0.123577 
4   -0.17697 
5   0.09698 
6   0.595615 
7   -0.464815 
8   -0.471572 
9   0.150816 
10   0.178271 
11   0.144821 
12   0.153647 
13   0.139279 
14   0.162194 
15   0.165169 
16   0.159864 
 
>  <lowdin_charges> 
16 
1   -0.447301 
2   -0.278088 
3   -0.134664 
4   -0.190007 
5   0.006529 
6   0.18987 
7   -0.236445 
8   -0.197962 
9   0.155777 
10   0.165504 
11   0.150032 
12   0.155474 
13   0.149374 
14   0.17406 
15   0.179802 
16   0.158044 
 
$$$$ 
 
