PCCDB-ID:  11613 
public computational chemistry database (PCCDB) project, http://pccdb.org 
 
 16 15  0  0  0  0  0  0  0  0999 V2000 
    1.4945   -0.6307    0.3310 C   0  0  0  0  0  0  0  0  0  0  0  0 
    2.8967   -0.1308   -0.0324 C   0  0  0  0  0  0  0  0  0  0  0  0 
    3.0333    0.2048   -1.5220 C   0  0  0  0  0  0  0  0  0  0  0  0 
    4.4164    0.7425   -1.9240 C   0  0  0  0  0  0  0  0  0  0  0  0 
    6.1595   -0.9834   -1.1811 C   0  0  0  0  0  0  0  0  0  0  0  0 
    5.4588   -0.2269   -1.7730 N   0  0  0  0  0  0  0  0  0  0  0  0 
    7.1493   -2.0229   -0.4801 S   0  0  0  0  0  0  0  0  0  0  0  0 
    1.4225   -0.8656    1.3984 H   0  0  0  0  0  0  0  0  0  0  0  0 
    1.2425   -1.5393   -0.2288 H   0  0  0  0  0  0  0  0  0  0  0  0 
    0.7306    0.1227    0.1027 H   0  0  0  0  0  0  0  0  0  0  0  0 
    3.6363   -0.8932    0.2428 H   0  0  0  0  0  0  0  0  0  0  0  0 
    3.1360    0.7619    0.5623 H   0  0  0  0  0  0  0  0  0  0  0  0 
    2.3002    0.9760   -1.7970 H   0  0  0  0  0  0  0  0  0  0  0  0 
    2.8052   -0.6781   -2.1324 H   0  0  0  0  0  0  0  0  0  0  0  0 
    4.6725    1.6232   -1.3195 H   0  0  0  0  0  0  0  0  0  0  0  0 
    4.4043    1.0607   -2.9721 H   0  0  0  0  0  0  0  0  0  0  0  0 
  1  8  1  0  0  0  0 
  2 11  1  0  0  0  0 
  2  1  1  0  0  0  0 
  2 12  1  0  0  0  0 
  3  2  1  0  0  0  0 
  4  6  1  0  0  0  0 
  4  3  1  0  0  0  0 
  4 15  1  0  0  0  0 
  5  7  2  0  0  0  0 
  6  5  2  0  0  0  0 
  9  1  1  0  0  0  0 
 10  1  1  0  0  0  0 
 13  3  1  0  0  0  0 
 14  3  1  0  0  0  0 
 16  4  1  0  0  0  0 
M  END 
>  <HBA> 
2 
 
>  <HBD> 
0 
 
>  <TPSA> 
44.45 
 
>  <cid> 
11613 
 
>  <dipole> 
4.01 
 
>  <excitation_energy_1> 
4.885 
 
>  <excitation_energy_2> 
5.228 
 
>  <excitation_energy_3> 
5.404 
 
>  <excitation_energy_4> 
5.937 
 
>  <homo_energy> 
-6.563 
 
>  <homo_lumo_gap> 
6.479 
 
>  <logP> 
1.889 
 
>  <lumo_energy> 
-0.084 
 
>  <melting_point> 
23.51 
 
>  <molecular_refractivity> 
35.31 
 
>  <oscillator_strength_1> 
0.0007 
 
>  <oscillator_strength_2> 
0.0014 
 
>  <oscillator_strength_3> 
0.0015 
 
>  <oscillator_strength_4> 
0.0527 
 
>  <open_babel_can_smiles> 
CCCCN=C=S 
 
>  <mulliken_charges> 
16 
1   -0.444106 
2   -0.257737 
3   -0.260679 
4   -0.161653 
5   0.205771 
6   -0.323149 
7   -0.145922 
8   0.151807 
9   0.148348 
10   0.143317 
11   0.15937 
12   0.135316 
13   0.143878 
14   0.154619 
15   0.174494 
16   0.176325 
 
>  <lowdin_charges> 
16 
1   -0.442436 
2   -0.277621 
3   -0.279039 
4   -0.172105 
5   -0.043985 
6   -0.095316 
7   -0.070096 
8   0.153484 
9   0.150456 
10   0.147872 
11   0.153991 
12   0.142264 
13   0.151817 
14   0.153359 
15   0.163091 
16   0.164263 
 
$$$$ 
 
