PCCDB-ID:  20904 
public computational chemistry database (PCCDB) project, http://pccdb.org 
 
 24 23  0  0  0  0  0  0  0  0999 V2000 
    1.1518   -0.4733   -2.5491 C   0  0  0  0  0  0  0  0  0  0  0  0 
    5.2580    2.8094   -2.7450 C   0  0  0  0  0  0  0  0  0  0  0  0 
    3.9160   -1.0705    1.0305 C   0  0  0  0  0  0  0  0  0  0  0  0 
    2.4655    0.2591   -2.7625 C   0  0  0  0  0  0  0  0  0  0  0  0 
    5.1517    2.3641   -1.2801 C   0  0  0  0  0  0  0  0  0  0  0  0 
    4.4391    0.3340    0.7018 C   0  0  0  0  0  0  0  0  0  0  0  0 
    5.3271   -0.3648   -1.8819 O   0  0  0  0  0  0  0  0  0  0  0  0 
    2.9522    0.7259   -1.4835 O   0  0  0  0  0  0  0  0  0  0  0  0 
    4.5442    0.6417   -1.0992 P   0  0  0  0  0  0  0  0  0  0  0  0 
    0.7381   -0.7904   -3.5135 H   0  0  0  0  0  0  0  0  0  0  0  0 
    0.4199    0.1748   -2.0559 H   0  0  0  0  0  0  0  0  0  0  0  0 
    1.3009   -1.3627   -1.9283 H   0  0  0  0  0  0  0  0  0  0  0  0 
    5.6829    3.8166   -2.8127 H   0  0  0  0  0  0  0  0  0  0  0  0 
    4.2732    2.8304   -3.2241 H   0  0  0  0  0  0  0  0  0  0  0  0 
    5.8972    2.1265   -3.3126 H   0  0  0  0  0  0  0  0  0  0  0  0 
    3.9064   -1.2343    2.1133 H   0  0  0  0  0  0  0  0  0  0  0  0 
    4.5478   -1.8366    0.5710 H   0  0  0  0  0  0  0  0  0  0  0  0 
    2.8956   -1.2023    0.6572 H   0  0  0  0  0  0  0  0  0  0  0  0 
    2.3238    1.1334   -3.4099 H   0  0  0  0  0  0  0  0  0  0  0  0 
    3.2165   -0.3927   -3.2188 H   0  0  0  0  0  0  0  0  0  0  0  0 
    4.4865    3.0281   -0.7144 H   0  0  0  0  0  0  0  0  0  0  0  0 
    6.1371    2.4053   -0.7984 H   0  0  0  0  0  0  0  0  0  0  0  0 
    5.4503    0.4726    1.1049 H   0  0  0  0  0  0  0  0  0  0  0  0 
    3.8025    1.1072    1.1490 H   0  0  0  0  0  0  0  0  0  0  0  0 
  1 11  1  0  0  0  0 
  1 12  1  0  0  0  0 
  2  5  1  0  0  0  0 
  3 16  1  0  0  0  0 
  4  1  1  0  0  0  0 
  4  8  1  0  0  0  0 
  5  9  1  0  0  0  0 
  5 22  1  0  0  0  0 
  5 21  1  0  0  0  0 
  6  3  1  0  0  0  0 
  6 23  1  0  0  0  0 
  6 24  1  0  0  0  0 
  7  9  2  0  0  0  0 
  8  9  1  0  0  0  0 
  9  6  1  0  0  0  0 
 10  1  1  0  0  0  0 
 13  2  1  0  0  0  0 
 14  2  1  0  0  0  0 
 15  2  1  0  0  0  0 
 17  3  1  0  0  0  0 
 18  3  1  0  0  0  0 
 19  4  1  0  0  0  0 
 20  4  1  0  0  0  0 
M  END 
>  <HBA> 
2 
 
>  <HBD> 
0 
 
>  <TPSA> 
36.11 
 
>  <cid> 
20904 
 
>  <dipole> 
2.74 
 
>  <excitation_energy_1> 
6.253 
 
>  <excitation_energy_2> 
6.77 
 
>  <excitation_energy_3> 
6.831 
 
>  <excitation_energy_4> 
6.91 
 
>  <homo_energy> 
-6.95 
 
>  <homo_lumo_gap> 
8.64 
 
>  <logP> 
2.341 
 
>  <lumo_energy> 
1.69 
 
>  <melting_point> 
-22.43 
 
>  <molecular_refractivity> 
40.7 
 
>  <oscillator_strength_1> 
0.0113 
 
>  <oscillator_strength_2> 
0.0255 
 
>  <oscillator_strength_3> 
0.0032 
 
>  <oscillator_strength_4> 
0.0016 
 
>  <open_babel_can_smiles> 
CCOP(=O)(CC)CC 
 
>  <mulliken_charges> 
24 
1   -0.451186 
2   -0.460986 
3   -0.456754 
4   -0.040233 
5   -0.463846 
6   -0.465116 
7   -0.583559 
8   -0.565237 
9   1.047801 
10   0.146924 
11   0.156963 
12   0.161506 
13   0.151613 
14   0.15616 
15   0.182669 
16   0.149017 
17   0.179833 
18   0.163785 
19   0.139667 
20   0.178009 
21   0.166132 
22   0.16853 
23   0.168711 
24   0.1696 
 
>  <lowdin_charges> 
24 
1   -0.45086 
2   -0.44031 
3   -0.437933 
4   -0.122589 
5   -0.459979 
6   -0.456019 
7   -0.621929 
8   -0.429833 
9   1.003579 
10   0.156396 
11   0.157286 
12   0.157943 
13   0.154077 
14   0.15362 
15   0.169773 
16   0.151865 
17   0.1684 
18   0.157475 
19   0.139255 
20   0.165372 
21   0.17033 
22   0.171158 
23   0.170537 
24   0.172386 
 
$$$$ 
 
