PCCDB-ID:  14270 
public computational chemistry database (PCCDB) project, http://pccdb.org 
 
 18 18  0  0  0  0  0  0  0  0999 V2000 
    0.9069   -0.0141    0.0847 C   0  0  0  0  0  0  0  0  0  0  0  0 
    2.7153    2.6154   -0.1712 C   0  0  0  0  0  0  0  0  0  0  0  0 
    3.2447   -1.1993   -0.0612 C   0  0  0  0  0  0  0  0  0  0  0  0 
    4.6944   -0.7057   -0.2085 C   0  0  0  0  0  0  0  0  0  0  0  0 
    2.4029    0.0622   -0.0424 C   0  0  0  0  0  0  0  0  0  0  0  0 
    3.1496    1.1827   -0.1506 C   0  0  0  0  0  0  0  0  0  0  0  0 
    4.5823    0.8243   -0.2561 C   0  0  0  0  0  0  0  0  0  0  0  0 
    5.5118    1.6060   -0.3629 O   0  0  0  0  0  0  0  0  0  0  0  0 
    0.5655   -1.0491    0.1865 H   0  0  0  0  0  0  0  0  0  0  0  0 
    0.4091    0.4166   -0.7933 H   0  0  0  0  0  0  0  0  0  0  0  0 
    0.5500    0.5444    0.9589 H   0  0  0  0  0  0  0  0  0  0  0  0 
    1.6278    2.7215   -0.1185 H   0  0  0  0  0  0  0  0  0  0  0  0 
    3.0704    3.1109   -1.0828 H   0  0  0  0  0  0  0  0  0  0  0  0 
    3.1591    3.1650    0.6680 H   0  0  0  0  0  0  0  0  0  0  0  0 
    3.0859   -1.7786    0.8593 H   0  0  0  0  0  0  0  0  0  0  0  0 
    2.9343   -1.8560   -0.8861 H   0  0  0  0  0  0  0  0  0  0  0  0 
    5.1806   -1.0639   -1.1225 H   0  0  0  0  0  0  0  0  0  0  0  0 
    5.3388   -1.0000    0.6269 H   0  0  0  0  0  0  0  0  0  0  0  0 
  1  9  1  0  0  0  0 
  1 11  1  0  0  0  0 
  2  6  1  0  0  0  0 
  2 12  1  0  0  0  0 
  2 14  1  0  0  0  0 
  3  5  1  0  0  0  0 
  3 15  1  0  0  0  0 
  4  3  1  0  0  0  0 
  4 18  1  0  0  0  0 
  5  1  1  0  0  0  0 
  6  5  2  0  0  0  0 
  7  4  1  0  0  0  0 
  7  6  1  0  0  0  0 
  8  7  2  0  0  0  0 
 10  1  1  0  0  0  0 
 13  2  1  0  0  0  0 
 16  3  1  0  0  0  0 
 17  4  1  0  0  0  0 
M  END 
>  <HBA> 
1 
 
>  <HBD> 
0 
 
>  <TPSA> 
17.07 
 
>  <cid> 
14270 
 
>  <dipole> 
3.83 
 
>  <excitation_energy_1> 
3.892 
 
>  <excitation_energy_2> 
5.585 
 
>  <excitation_energy_3> 
5.967 
 
>  <excitation_energy_4> 
6.163 
 
>  <homo_energy> 
-6.259 
 
>  <homo_lumo_gap> 
5.363 
 
>  <logP> 
1.686 
 
>  <lumo_energy> 
-0.895 
 
>  <melting_point> 
33.37 
 
>  <molecular_refractivity> 
33.38 
 
>  <oscillator_strength_1> 
0.0002 
 
>  <oscillator_strength_2> 
0.315 
 
>  <oscillator_strength_3> 
0.0119 
 
>  <oscillator_strength_4> 
0.0024 
 
>  <open_babel_can_smiles> 
CC1=C(C)CCC1=O 
 
>  <mulliken_charges> 
18 
1   -0.528084 
2   -0.517487 
3   -0.343893 
4   -0.367025 
5   0.098045 
6   0.08964 
7   0.388269 
8   -0.478614 
9   0.159653 
10   0.174312 
11   0.173947 
12   0.145408 
13   0.173278 
14   0.172397 
15   0.157137 
16   0.156965 
17   0.173102 
18   0.172949 
 
>  <lowdin_charges> 
18 
1   -0.449268 
2   -0.43832 
3   -0.279834 
4   -0.312516 
5   0.017234 
6   -0.065919 
7   0.142452 
8   -0.259875 
9   0.159288 
10   0.170625 
11   0.170242 
12   0.152703 
13   0.170077 
14   0.169978 
15   0.155737 
16   0.156219 
17   0.170461 
18   0.170715 
 
$$$$ 
 
