PCCDB-ID:  32277 
public computational chemistry database (PCCDB) project, http://pccdb.org 
 
 27 26  0  0  1  0  0  0  0  0999 V2000 
    4.3201   -0.3094   -3.9588 C   0  0  0  0  0  0  0  0  0  0  0  0 
    7.5183    2.8138    0.5537 C   0  0  0  0  0  0  0  0  0  0  0  0 
    7.2161    1.9443   -1.7982 C   0  0  0  0  0  0  0  0  0  0  0  0 
    4.2656   -1.0285   -2.6195 C   0  0  0  0  0  0  0  0  0  0  0  0 
    6.5034    2.3309   -0.4933 C   0  0  0  0  0  0  0  0  0  0  0  0 
    5.6399    1.1771    0.0862 C   0  0  2  0  0  0  0  0  0  0  0  0 
    4.6488    0.6294   -0.9491 C   0  0  0  0  0  0  0  0  0  0  0  0 
    4.1688    0.5754    1.8498 N   0  0  0  0  0  0  0  0  0  0  0  0 
    4.9159    1.6523    1.2632 N   0  0  0  0  0  0  0  0  0  0  0  0 
    3.5273    1.0786   -1.1007 O   0  0  0  0  0  0  0  0  0  0  0  0 
    5.1437   -0.4126   -1.6439 O   0  0  0  0  0  0  0  0  0  0  0  0 
    3.7064   -0.8453   -4.6922 H   0  0  0  0  0  0  0  0  0  0  0  0 
    5.3465   -0.2662   -4.3378 H   0  0  0  0  0  0  0  0  0  0  0  0 
    3.9315    0.7087   -3.8662 H   0  0  0  0  0  0  0  0  0  0  0  0 
    8.0624    3.6906    0.1833 H   0  0  0  0  0  0  0  0  0  0  0  0 
    8.2553    2.0285    0.7660 H   0  0  0  0  0  0  0  0  0  0  0  0 
    7.0259    3.0744    1.4932 H   0  0  0  0  0  0  0  0  0  0  0  0 
    7.8508    2.7713   -2.1360 H   0  0  0  0  0  0  0  0  0  0  0  0 
    6.5157    1.7118   -2.6060 H   0  0  0  0  0  0  0  0  0  0  0  0 
    7.8582    1.0674   -1.6520 H   0  0  0  0  0  0  0  0  0  0  0  0 
    4.6336   -2.0542   -2.7003 H   0  0  0  0  0  0  0  0  0  0  0  0 
    3.2499   -1.0375   -2.2168 H   0  0  0  0  0  0  0  0  0  0  0  0 
    5.8148    3.1604   -0.7181 H   0  0  0  0  0  0  0  0  0  0  0  0 
    6.2877    0.3545    0.4040 H   0  0  0  0  0  0  0  0  0  0  0  0 
    3.2446    0.5072    1.4178 H   0  0  0  0  0  0  0  0  0  0  0  0 
    4.0359    0.8070    2.8311 H   0  0  0  0  0  0  0  0  0  0  0  0 
    4.2798    2.3900    0.9494 H   0  0  0  0  0  0  0  0  0  0  0  0 
  1 14  1  0  0  0  0 
  1  4  1  0  0  0  0 
  2 16  1  0  0  0  0 
  2 17  1  0  0  0  0 
  3 20  1  0  0  0  0 
  3  5  1  0  0  0  0 
  4 22  1  0  0  0  0 
  4 11  1  0  0  0  0 
  5  6  1  0  0  0  0 
  5  2  1  0  0  0  0 
  6 24  1  1  0  0  0 
  6  9  1  0  0  0  0 
  7  6  1  0  0  0  0 
  8 26  1  0  0  0  0 
  9  8  1  0  0  0  0 
 10  7  2  0  0  0  0 
 11  7  1  0  0  0  0 
 12  1  1  0  0  0  0 
 13  1  1  0  0  0  0 
 15  2  1  0  0  0  0 
 18  3  1  0  0  0  0 
 19  3  1  0  0  0  0 
 21  4  1  0  0  0  0 
 23  5  1  0  0  0  0 
 25  8  1  0  0  0  0 
 27  9  1  0  0  0  0 
M  END 
>  <HBA> 
4 
 
>  <HBD> 
2 
 
>  <TPSA> 
64.35 
 
>  <cid> 
32277 
 
>  <dipole> 
1.07 
 
>  <excitation_energy_1> 
5.442 
 
>  <excitation_energy_2> 
5.959 
 
>  <excitation_energy_3> 
5.968 
 
>  <excitation_energy_4> 
6.002 
 
>  <homo_energy> 
-6.368 
 
>  <homo_lumo_gap> 
6.659 
 
>  <logP> 
1.129 
 
>  <lumo_energy> 
0.291 
 
>  <melting_point> 
66.64 
 
>  <molecular_refractivity> 
42.56 
 
>  <oscillator_strength_1> 
0.0098 
 
>  <oscillator_strength_2> 
0.0026 
 
>  <oscillator_strength_3> 
0.0013 
 
>  <oscillator_strength_4> 
0.0054 
 
>  <open_babel_can_smiles> 
CCOC(=O)[C@@H](C(C)C)NN 
 
>  <mulliken_charges> 
27 
1   -0.464416 
2   -0.440097 
3   -0.452461 
4   -0.045069 
5   -0.092042 
6   -0.007763 
7   0.613622 
8   -0.59973 
9   -0.452747 
10   -0.510557 
11   -0.454516 
12   0.151092 
13   0.159856 
14   0.175777 
15   0.136681 
16   0.139184 
17   0.169729 
18   0.143345 
19   0.150778 
20   0.148811 
21   0.155216 
22   0.169308 
23   0.127277 
24   0.162318 
25   0.303444 
26   0.3143 
27   0.298657 
 
>  <lowdin_charges> 
27 
1   -0.455791 
2   -0.446608 
3   -0.449239 
4   -0.125598 
5   -0.121216 
6   -0.096048 
7   0.186572 
8   -0.488084 
9   -0.291732 
10   -0.289447 
11   -0.183266 
12   0.160733 
13   0.155829 
14   0.163999 
15   0.147475 
16   0.147628 
17   0.162533 
18   0.151889 
19   0.152047 
20   0.151606 
21   0.152604 
22   0.157539 
23   0.139815 
24   0.164866 
25   0.246665 
26   0.258827 
27   0.246403 
 
$$$$ 
 
