PCCDB-ID:  69279 
public computational chemistry database (PCCDB) project, http://pccdb.org 
 
 23 22  0  0  0  0  0  0  0  0999 V2000 
    3.1168   -0.6638   -1.1782 C   0  0  0  0  0  0  0  0  0  0  0  0 
    2.3943    3.6815    1.4658 C   0  0  0  0  0  0  0  0  0  0  0  0 
    6.4215    2.3359   -0.1860 C   0  0  0  0  0  0  0  0  0  0  0  0 
    2.4632    0.0243    0.0237 C   0  0  0  0  0  0  0  0  0  0  0  0 
    2.1016    2.1839    1.3355 C   0  0  0  0  0  0  0  0  0  0  0  0 
    4.9584    2.3281   -0.5696 C   0  0  0  0  0  0  0  0  0  0  0  0 
    2.7973    1.5124    0.1493 C   0  0  0  0  0  0  0  0  0  0  0  0 
    4.4946    2.8696   -1.5492 O   0  0  0  0  0  0  0  0  0  0  0  0 
    4.2376    1.6332    0.3437 O   0  0  0  0  0  0  0  0  0  0  0  0 
    2.8136   -1.7149   -1.2372 H   0  0  0  0  0  0  0  0  0  0  0  0 
    4.2088   -0.6359   -1.1036 H   0  0  0  0  0  0  0  0  0  0  0  0 
    2.8323   -0.1781   -2.1188 H   0  0  0  0  0  0  0  0  0  0  0  0 
    1.8379    4.1153    2.3039 H   0  0  0  0  0  0  0  0  0  0  0  0 
    2.1110    4.2236    0.5562 H   0  0  0  0  0  0  0  0  0  0  0  0 
    3.4595    3.8614    1.6446 H   0  0  0  0  0  0  0  0  0  0  0  0 
    6.9971    2.8461   -0.9590 H   0  0  0  0  0  0  0  0  0  0  0  0 
    6.7870    1.3120   -0.0591 H   0  0  0  0  0  0  0  0  0  0  0  0 
    6.5538    2.8495    0.7723 H   0  0  0  0  0  0  0  0  0  0  0  0 
    2.7568   -0.4830    0.9525 H   0  0  0  0  0  0  0  0  0  0  0  0 
    1.3709   -0.0639   -0.0491 H   0  0  0  0  0  0  0  0  0  0  0  0 
    1.0211    2.0275    1.2159 H   0  0  0  0  0  0  0  0  0  0  0  0 
    2.3930    1.6626    2.2574 H   0  0  0  0  0  0  0  0  0  0  0  0 
    2.5502    2.0359   -0.7792 H   0  0  0  0  0  0  0  0  0  0  0  0 
  1 11  1  0  0  0  0 
  1  4  1  0  0  0  0 
  2 15  1  0  0  0  0 
  2 13  1  0  0  0  0 
  3 17  1  0  0  0  0 
  3 18  1  0  0  0  0 
  4  7  1  0  0  0  0 
  4 19  1  0  0  0  0 
  5  2  1  0  0  0  0 
  5 22  1  0  0  0  0 
  6  3  1  0  0  0  0 
  6  9  1  0  0  0  0 
  7  9  1  0  0  0  0 
  7  5  1  0  0  0  0 
  8  6  2  0  0  0  0 
 10  1  1  0  0  0  0 
 12  1  1  0  0  0  0 
 14  2  1  0  0  0  0 
 16  3  1  0  0  0  0 
 20  4  1  0  0  0  0 
 21  5  1  0  0  0  0 
 23  7  1  0  0  0  0 
M  END 
>  <HBA> 
2 
 
>  <HBD> 
0 
 
>  <TPSA> 
26.3 
 
>  <cid> 
69279 
 
>  <dipole> 
1.92 
 
>  <excitation_energy_1> 
5.827 
 
>  <excitation_energy_2> 
6.987 
 
>  <excitation_energy_3> 
7.418 
 
>  <excitation_energy_4> 
7.49 
 
>  <homo_energy> 
-7.246 
 
>  <homo_lumo_gap> 
7.731 
 
>  <logP> 
1.738 
 
>  <lumo_energy> 
0.484 
 
>  <melting_point> 
-14.79 
 
>  <molecular_refractivity> 
37.05 
 
>  <oscillator_strength_1> 
0.0007 
 
>  <oscillator_strength_2> 
0.0328 
 
>  <oscillator_strength_3> 
0.0587 
 
>  <oscillator_strength_4> 
0.0041 
 
>  <open_babel_can_smiles> 
CCC(OC(=O)C)CC 
 
>  <mulliken_charges> 
23 
1   -0.451314 
2   -0.451445 
3   -0.525914 
4   -0.258199 
5   -0.258143 
6   0.607845 
7   0.114965 
8   -0.467133 
9   -0.471451 
10   0.144972 
11   0.151033 
12   0.153631 
13   0.14487 
14   0.154531 
15   0.150544 
16   0.18118 
17   0.178947 
18   0.18037 
19   0.140344 
20   0.13708 
21   0.137052 
22   0.140167 
23   0.166068 
 
>  <lowdin_charges> 
23 
1   -0.443058 
2   -0.446165 
3   -0.465835 
4   -0.276863 
5   -0.277423 
6   0.1983 
7   0.002058 
8   -0.267502 
9   -0.202818 
10   0.150736 
11   0.149194 
12   0.153014 
13   0.152886 
14   0.153831 
15   0.149525 
16   0.175862 
17   0.174777 
18   0.176632 
19   0.146405 
20   0.146135 
21   0.146421 
22   0.146398 
23   0.157489 
 
$$$$ 
 
