PCCDB-ID:  29062 
public computational chemistry database (PCCDB) project, http://pccdb.org 
 
 12 11  0  0  0  0  0  0  0  0999 V2000 
    1.0655   -0.0195    0.0553 C   0  0  0  0  0  0  0  0  0  0  0  0 
    2.5898   -0.0956    0.0332 C   0  0  0  0  0  0  0  0  0  0  0  0 
    4.5179   -0.6535   -1.2538 N   0  0  0  0  0  0  0  0  0  0  0  0 
    3.0456   -0.7961   -1.1722 N   0  0  0  0  0  0  0  0  0  0  0  0 
    0.7158    0.4459    0.9828 H   0  0  0  0  0  0  0  0  0  0  0  0 
    0.6265   -1.0196   -0.0207 H   0  0  0  0  0  0  0  0  0  0  0  0 
    0.6864    0.5819   -0.7807 H   0  0  0  0  0  0  0  0  0  0  0  0 
    2.9408   -0.6709    0.9021 H   0  0  0  0  0  0  0  0  0  0  0  0 
    3.0340    0.9112    0.1178 H   0  0  0  0  0  0  0  0  0  0  0  0 
    4.7765   -1.2826   -2.0190 H   0  0  0  0  0  0  0  0  0  0  0  0 
    4.8534   -1.1573   -0.4274 H   0  0  0  0  0  0  0  0  0  0  0  0 
    2.7217   -0.2324   -1.9618 H   0  0  0  0  0  0  0  0  0  0  0  0 
  1  5  1  0  0  0  0 
  2  1  1  0  0  0  0 
  2  9  1  0  0  0  0 
  2  8  1  0  0  0  0 
  3  4  1  0  0  0  0 
  3 11  1  0  0  0  0 
  4  2  1  0  0  0  0 
  6  1  1  0  0  0  0 
  7  1  1  0  0  0  0 
 10  3  1  0  0  0  0 
 12  4  1  0  0  0  0 
M  END 
>  <HBA> 
2 
 
>  <HBD> 
2 
 
>  <TPSA> 
38.05 
 
>  <cid> 
29062 
 
>  <dipole> 
0.37 
 
>  <excitation_energy_1> 
4.85 
 
>  <excitation_energy_2> 
5.374 
 
>  <excitation_energy_3> 
5.648 
 
>  <excitation_energy_4> 
6.12 
 
>  <homo_energy> 
-5.263 
 
>  <homo_lumo_gap> 
7.549 
 
>  <logP> 
0.561 
 
>  <lumo_energy> 
2.286 
 
>  <melting_point> 
57.52 
 
>  <molecular_refractivity> 
17.24 
 
>  <oscillator_strength_1> 
0.0054 
 
>  <oscillator_strength_2> 
0.0136 
 
>  <oscillator_strength_3> 
0.0101 
 
>  <oscillator_strength_4> 
0.047 
 
>  <open_babel_can_smiles> 
CCNN 
 
>  <mulliken_charges> 
12 
1   -0.454635 
2   -0.10941 
3   -0.596629 
4   -0.461582 
5   0.148461 
6   0.160336 
7   0.141441 
8   0.133358 
9   0.130269 
10   0.303388 
11   0.301466 
12   0.303537 
 
>  <lowdin_charges> 
12 
1   -0.44873 
2   -0.206757 
3   -0.500068 
4   -0.324614 
5   0.155729 
6   0.156213 
7   0.147372 
8   0.136705 
9   0.125955 
10   0.254138 
11   0.252452 
12   0.251605 
 
$$$$ 
 
