PCCDB-ID:  12529 
public computational chemistry database (PCCDB) project, http://pccdb.org 
 
 20 19  0  0  0  0  0  0  0  0999 V2000 
    0.0375   -0.4328    0.5179 C   0  0  0  0  0  0  0  0  0  0  0  0 
    1.5121   -0.7343    0.8033 C   0  0  0  0  0  0  0  0  0  0  0  0 
    2.4719    0.0231   -0.1237 C   0  0  0  0  0  0  0  0  0  0  0  0 
    3.9493   -0.2746    0.1662 C   0  0  0  0  0  0  0  0  0  0  0  0 
    4.8804    0.4886   -0.7692 C   0  0  0  0  0  0  0  0  0  0  0  0 
    6.9195    0.8024    0.4119 C   0  0  0  0  0  0  0  0  0  0  0  0 
    6.4677    1.6796    1.1079 O   0  0  0  0  0  0  0  0  0  0  0  0 
    6.2694    0.1280   -0.5492 O   0  0  0  0  0  0  0  0  0  0  0  0 
   -0.6212   -0.9897    1.1937 H   0  0  0  0  0  0  0  0  0  0  0  0 
   -0.2320   -0.7056   -0.5099 H   0  0  0  0  0  0  0  0  0  0  0  0 
   -0.1804    0.6347    0.6448 H   0  0  0  0  0  0  0  0  0  0  0  0 
    1.6923   -1.8141    0.7055 H   0  0  0  0  0  0  0  0  0  0  0  0 
    1.7439   -0.4804    1.8470 H   0  0  0  0  0  0  0  0  0  0  0  0 
    2.2904    1.1035   -0.0267 H   0  0  0  0  0  0  0  0  0  0  0  0 
    2.2422   -0.2327   -1.1690 H   0  0  0  0  0  0  0  0  0  0  0  0 
    4.1438   -1.3501    0.0615 H   0  0  0  0  0  0  0  0  0  0  0  0 
    4.1880   -0.0013    1.2011 H   0  0  0  0  0  0  0  0  0  0  0  0 
    4.7728    1.5691   -0.6407 H   0  0  0  0  0  0  0  0  0  0  0  0 
    4.6961    0.2288   -1.8150 H   0  0  0  0  0  0  0  0  0  0  0  0 
    7.9540    0.4295    0.4675 H   0  0  0  0  0  0  0  0  0  0  0  0 
  1 11  1  0  0  0  0 
  1  2  1  0  0  0  0 
  1  9  1  0  0  0  0 
  2 13  1  0  0  0  0 
  3 14  1  0  0  0  0 
  3  4  1  0  0  0  0 
  3  2  1  0  0  0  0 
  4 17  1  0  0  0  0 
  5 18  1  0  0  0  0 
  5  8  1  0  0  0  0 
  5  4  1  0  0  0  0 
  6 20  1  0  0  0  0 
  6  7  2  0  0  0  0 
  8  6  1  0  0  0  0 
 10  1  1  0  0  0  0 
 12  2  1  0  0  0  0 
 15  3  1  0  0  0  0 
 16  4  1  0  0  0  0 
 19  5  1  0  0  0  0 
M  END 
>  <HBA> 
2 
 
>  <HBD> 
0 
 
>  <TPSA> 
26.3 
 
>  <cid> 
12529 
 
>  <dipole> 
1.93 
 
>  <excitation_energy_1> 
5.807 
 
>  <excitation_energy_2> 
7.44 
 
>  <excitation_energy_3> 
7.632 
 
>  <excitation_energy_4> 
7.852 
 
>  <homo_energy> 
-7.619 
 
>  <homo_lumo_gap> 
7.859 
 
>  <logP> 
1.986 
 
>  <lumo_energy> 
0.239 
 
>  <melting_point> 
-41.79 
 
>  <molecular_refractivity> 
32.63 
 
>  <oscillator_strength_1> 
0.0013 
 
>  <oscillator_strength_2> 
0.0617 
 
>  <oscillator_strength_3> 
0.0524 
 
>  <oscillator_strength_4> 
0.0196 
 
>  <open_babel_can_smiles> 
CCCCCOC=O 
 
>  <mulliken_charges> 
20 
1   -0.442934 
2   -0.247597 
3   -0.258121 
4   -0.278427 
5   -0.054179 
6   0.388794 
7   -0.422546 
8   -0.41766 
9   0.145045 
10   0.142155 
11   0.144161 
12   0.133191 
13   0.136994 
14   0.137321 
15   0.129783 
16   0.144275 
17   0.160937 
18   0.169582 
19   0.153352 
20   0.135875 
 
>  <lowdin_charges> 
20 
1   -0.443403 
2   -0.267419 
3   -0.270855 
4   -0.284063 
5   -0.128291 
6   0.089041 
7   -0.256146 
8   -0.18599 
9   0.152545 
10   0.145812 
11   0.146233 
12   0.138426 
13   0.140996 
14   0.14038 
15   0.13723 
16   0.145676 
17   0.154749 
18   0.15593 
19   0.151714 
20   0.137437 
 
$$$$ 
 
