PCCDB-ID:  14896 
public computational chemistry database (PCCDB) project, http://pccdb.org 
 
 26 27  0  0  1  0  0  0  0  0999 V2000 
    1.1296   -0.0810   -0.6838 C   0  0  0  0  0  0  0  0  0  0  0  0 
    4.5994   -0.3396   -1.8623 C   0  0  0  0  0  0  0  0  0  0  0  0 
    5.3289   -2.3944   -0.6686 C   0  0  0  0  0  0  0  0  0  0  0  0 
    2.8802    1.2008    0.5927 C   0  0  0  0  0  0  0  0  0  0  0  0 
    4.4277    1.1458    0.7543 C   0  0  0  0  0  0  0  0  0  0  0  0 
    3.8915   -1.1895    1.5385 C   0  0  0  0  0  0  0  0  0  0  0  0 
    2.2938   -0.0634   -0.0289 C   0  0  0  0  0  0  0  0  0  0  0  0 
    4.9328   -0.3074    0.7937 C   0  0  1  0  0  0  0  0  0  0  0  0 
    3.1464   -1.2915    0.1720 C   0  0  1  0  0  0  0  0  0  0  0  0 
    4.5523   -1.0764   -0.5216 C   0  0  0  0  0  0  0  0  0  0  0  0 
    0.5462    0.8231   -0.8441 H   0  0  0  0  0  0  0  0  0  0  0  0 
    0.7134   -1.0045   -1.0795 H   0  0  0  0  0  0  0  0  0  0  0  0 
    5.6364   -0.1049   -2.1362 H   0  0  0  0  0  0  0  0  0  0  0  0 
    4.0303    0.5931   -1.8657 H   0  0  0  0  0  0  0  0  0  0  0  0 
    4.1850   -0.9718   -2.6577 H   0  0  0  0  0  0  0  0  0  0  0  0 
    6.3711   -2.1927   -0.9476 H   0  0  0  0  0  0  0  0  0  0  0  0 
    4.8893   -3.0130   -1.4611 H   0  0  0  0  0  0  0  0  0  0  0  0 
    5.3445   -2.9928    0.2471 H   0  0  0  0  0  0  0  0  0  0  0  0 
    2.5724    2.0867    0.0265 H   0  0  0  0  0  0  0  0  0  0  0  0 
    2.4344    1.3158    1.5900 H   0  0  0  0  0  0  0  0  0  0  0  0 
    4.7131    1.6577    1.6818 H   0  0  0  0  0  0  0  0  0  0  0  0 
    4.9238    1.6864   -0.0604 H   0  0  0  0  0  0  0  0  0  0  0  0 
    3.3503   -0.7396    2.3774 H   0  0  0  0  0  0  0  0  0  0  0  0 
    4.2975   -2.1487    1.8654 H   0  0  0  0  0  0  0  0  0  0  0  0 
    5.9816   -0.3578    1.1117 H   0  0  0  0  0  0  0  0  0  0  0  0 
    2.6056   -2.2137   -0.0687 H   0  0  0  0  0  0  0  0  0  0  0  0 
  1  7  2  0  0  0  0 
  2 10  1  0  0  0  0 
  3 10  1  0  0  0  0 
  3 18  1  0  0  0  0 
  4  5  1  0  0  0  0 
  4 20  1  0  0  0  0 
  5  8  1  0  0  0  0 
  5 21  1  0  0  0  0 
  6 24  1  0  0  0  0 
  6 23  1  0  0  0  0 
  7  9  1  0  0  0  0 
  7  4  1  0  0  0  0 
  8 25  1  1  0  0  0 
  8  6  1  0  0  0  0 
  9 26  1  6  0  0  0 
  9  6  1  0  0  0  0 
 10  9  1  0  0  0  0 
 10  8  1  0  0  0  0 
 11  1  1  0  0  0  0 
 12  1  1  0  0  0  0 
 13  2  1  0  0  0  0 
 14  2  1  0  0  0  0 
 15  2  1  0  0  0  0 
 16  3  1  0  0  0  0 
 17  3  1  0  0  0  0 
 19  4  1  0  0  0  0 
 22  5  1  0  0  0  0 
M  END 
>  <HBA> 
0 
 
>  <HBD> 
0 
 
>  <TPSA> 
0.0 
 
>  <cid> 
14896 
 
>  <dipole> 
0.63 
 
>  <excitation_energy_1> 
5.827 
 
>  <excitation_energy_2> 
6.028 
 
>  <excitation_energy_3> 
6.251 
 
>  <excitation_energy_4> 
6.301 
 
>  <homo_energy> 
-6.229 
 
>  <homo_lumo_gap> 
7.026 
 
>  <logP> 
2.999 
 
>  <lumo_energy> 
0.797 
 
>  <melting_point> 
17.45 
 
>  <molecular_refractivity> 
45.22 
 
>  <oscillator_strength_1> 
0.0084 
 
>  <oscillator_strength_2> 
0.13 
 
>  <oscillator_strength_3> 
0.0182 
 
>  <oscillator_strength_4> 
0.0008 
 
>  <open_babel_can_smiles> 
C=C1CC[C@H]2C[C@@H]1C2(C)C 
 
>  <mulliken_charges> 
26 
1   -0.432239 
2   -0.463707 
3   -0.464771 
4   -0.353131 
5   -0.267475 
6   -0.287381 
7   0.261976 
8   -0.120215 
9   -0.19018 
10   0.129906 
11   0.126771 
12   0.130087 
13   0.136329 
14   0.150032 
15   0.141367 
16   0.14101 
17   0.141455 
18   0.14264 
19   0.145199 
20   0.157043 
21   0.13302 
22   0.141244 
23   0.132972 
24   0.141349 
25   0.113512 
26   0.113187 
 
>  <lowdin_charges> 
26 
1   -0.37648 
2   -0.449537 
3   -0.4415 
4   -0.2848 
5   -0.281519 
6   -0.29012 
7   0.008383 
8   -0.132642 
9   -0.131598 
10   0.00838 
11   0.152593 
12   0.153906 
13   0.146353 
14   0.15444 
15   0.152244 
16   0.147096 
17   0.14934 
18   0.149085 
19   0.154354 
20   0.156481 
21   0.145322 
22   0.14592 
23   0.141939 
24   0.149643 
25   0.133131 
26   0.139586 
 
$$$$ 
 
