PCCDB-ID:  21242 
public computational chemistry database (PCCDB) project, http://pccdb.org 
 
 20 19  0  0  0  0  0  0  0  0999 V2000 
    3.0777    0.9725    3.2799 C   0  0  0  0  0  0  0  0  0  0  0  0 
    4.3090    4.5717   -1.6874 C   0  0  0  0  0  0  0  0  0  0  0  0 
    3.1401    1.1555    1.9597 C   0  0  0  0  0  0  0  0  0  0  0  0 
    4.5298    3.2680   -1.5139 C   0  0  0  0  0  0  0  0  0  0  0  0 
    3.9592    2.2195    1.2795 C   0  0  0  0  0  0  0  0  0  0  0  0 
    5.5039    2.6871   -0.5265 C   0  0  0  0  0  0  0  0  0  0  0  0 
    5.9723    0.9880    1.0401 N   0  0  0  0  0  0  0  0  0  0  0  0 
    4.8773    1.6370    0.2927 N   0  0  0  0  0  0  0  0  0  0  0  0 
    2.4553    0.1999    3.7238 H   0  0  0  0  0  0  0  0  0  0  0  0 
    3.6398    1.6003    3.9687 H   0  0  0  0  0  0  0  0  0  0  0  0 
    3.6179    4.9403   -2.4408 H   0  0  0  0  0  0  0  0  0  0  0  0 
    4.8191    5.3222   -1.0868 H   0  0  0  0  0  0  0  0  0  0  0  0 
    2.5724    0.5077    1.2912 H   0  0  0  0  0  0  0  0  0  0  0  0 
    3.9976    2.5390   -2.1252 H   0  0  0  0  0  0  0  0  0  0  0  0 
    4.5051    2.8216    2.0298 H   0  0  0  0  0  0  0  0  0  0  0  0 
    3.2958    2.8963    0.7275 H   0  0  0  0  0  0  0  0  0  0  0  0 
    5.9639    3.4766    0.0933 H   0  0  0  0  0  0  0  0  0  0  0  0 
    6.3221    2.2027   -1.0779 H   0  0  0  0  0  0  0  0  0  0  0  0 
    6.3419    0.2951    0.3835 H   0  0  0  0  0  0  0  0  0  0  0  0 
    5.4944    0.4201    1.7446 H   0  0  0  0  0  0  0  0  0  0  0  0 
  1  9  1  0  0  0  0 
  1 10  1  0  0  0  0 
  2  4  2  0  0  0  0 
  2 12  1  0  0  0  0 
  3  1  2  0  0  0  0 
  4  6  1  0  0  0  0 
  5  3  1  0  0  0  0 
  5 15  1  0  0  0  0 
  6 17  1  0  0  0  0 
  6  8  1  0  0  0  0 
  7 20  1  0  0  0  0 
  8  7  1  0  0  0  0 
  8  5  1  0  0  0  0 
 11  2  1  0  0  0  0 
 13  3  1  0  0  0  0 
 14  4  1  0  0  0  0 
 16  5  1  0  0  0  0 
 18  6  1  0  0  0  0 
 19  7  1  0  0  0  0 
M  END 
>  <HBA> 
2 
 
>  <HBD> 
1 
 
>  <TPSA> 
29.26 
 
>  <cid> 
21242 
 
>  <dipole> 
0.79 
 
>  <excitation_energy_1> 
4.429 
 
>  <excitation_energy_2> 
4.738 
 
>  <excitation_energy_3> 
5.013 
 
>  <excitation_energy_4> 
5.493 
 
>  <homo_energy> 
-5.233 
 
>  <homo_lumo_gap> 
5.453 
 
>  <logP> 
1.234 
 
>  <lumo_energy> 
0.22 
 
>  <melting_point> 
-10.88 
 
>  <molecular_refractivity> 
35.61 
 
>  <oscillator_strength_1> 
0.0013 
 
>  <oscillator_strength_2> 
0.002 
 
>  <oscillator_strength_3> 
0.0048 
 
>  <oscillator_strength_4> 
0.0079 
 
>  <open_babel_can_smiles> 
C=CCN(CC=C)N 
 
>  <mulliken_charges> 
20 
1   -0.338139 
2   -0.337277 
3   -0.062507 
4   -0.055715 
5   -0.167548 
6   -0.132461 
7   -0.589532 
8   -0.338339 
9   0.143803 
10   0.144584 
11   0.142164 
12   0.140458 
13   0.137129 
14   0.135956 
15   0.128176 
16   0.164245 
17   0.129826 
18   0.144931 
19   0.302792 
20   0.307456 
 
>  <lowdin_charges> 
20 
1   -0.340043 
2   -0.338629 
3   -0.156211 
4   -0.153494 
5   -0.212917 
6   -0.201813 
7   -0.491417 
8   -0.153861 
9   0.161278 
10   0.159379 
11   0.16045 
12   0.157446 
13   0.157582 
14   0.157062 
15   0.130919 
16   0.16517 
17   0.13328 
18   0.153245 
19   0.254021 
20   0.258554 
 
$$$$ 
 
