PCCDB-ID:  73189 
public computational chemistry database (PCCDB) project, http://pccdb.org 
 
 14 13  0  0  1  0  0  0  0  0999 V2000 
    1.6495    0.2239    0.3174 C   0  0  0  0  0  0  0  0  0  0  0  0 
    0.3865    0.9310    0.8535 C   0  0  1  0  0  0  0  0  0  0  0  0 
    2.6746    0.8084    0.0163 O   0  0  0  0  0  0  0  0  0  0  0  0 
    1.5097   -1.0893    0.1822 O   0  0  0  0  0  0  0  0  0  0  0  0 
   -0.5053   -0.0248    1.4194 O   0  0  0  0  0  0  0  0  0  0  0  0 
    1.2481    1.3318    3.2729 O   0  0  0  0  0  0  0  0  0  0  0  0 
    2.0570    3.0095    1.4205 O   0  0  0  0  0  0  0  0  0  0  0  0 
   -0.3358    3.2206    2.4042 O   0  0  0  0  0  0  0  0  0  0  0  0 
    0.7671    2.3072    2.0423 P   0  0  0  0  0  0  0  0  0  0  0  0 
   -0.1221    1.3843   -0.0058 H   0  0  0  0  0  0  0  0  0  0  0  0 
    0.6130   -1.3074    0.5257 H   0  0  0  0  0  0  0  0  0  0  0  0 
   -0.2742   -0.1048    2.3638 H   0  0  0  0  0  0  0  0  0  0  0  0 
    1.1206    1.7741    4.1303 H   0  0  0  0  0  0  0  0  0  0  0  0 
    2.5702    2.3695    0.8588 H   0  0  0  0  0  0  0  0  0  0  0  0 
  1  2  1  0  0  0  0 
  2 10  1  6  0  0  0 
  2  5  1  0  0  0  0 
  2  9  1  0  0  0  0 
  3  1  2  0  0  0  0 
  4  1  1  0  0  0  0 
  4 11  1  0  0  0  0 
  5 12  1  0  0  0  0 
  6 13  1  0  0  0  0 
  7  9  1  0  0  0  0 
  9  8  2  0  0  0  0 
  9  6  1  0  0  0  0 
 14  7  1  0  0  0  0 
M  END 
>  <HBA> 
6 
 
>  <HBD> 
4 
 
>  <TPSA> 
124.87 
 
>  <cid> 
73189 
 
>  <dipole> 
3.31 
 
>  <excitation_energy_1> 
5.637 
 
>  <excitation_energy_2> 
6.576 
 
>  <excitation_energy_3> 
6.617 
 
>  <excitation_energy_4> 
6.673 
 
>  <homo_energy> 
-8.106 
 
>  <homo_lumo_gap> 
7.225 
 
>  <logP> 
-1.433 
 
>  <lumo_energy> 
-0.882 
 
>  <melting_point> 
158.2 
 
>  <molecular_refractivity> 
25.65 
 
>  <oscillator_strength_1> 
0.0042 
 
>  <oscillator_strength_2> 
0.0018 
 
>  <oscillator_strength_3> 
0.0086 
 
>  <oscillator_strength_4> 
0.0287 
 
>  <open_babel_can_smiles> 
OC(=O)[C@H](P(=O)(O)O)O 
 
>  <mulliken_charges> 
14 
1   0.601883 
2   -0.191605 
3   -0.47681 
4   -0.544096 
5   -0.633575 
6   -0.691426 
7   -0.647769 
8   -0.512141 
9   1.078499 
10   0.234444 
11   0.439874 
12   0.43073 
13   0.447487 
14   0.464505 
 
>  <lowdin_charges> 
14 
1   0.188777 
2   -0.215996 
3   -0.25973 
4   -0.311166 
5   -0.433976 
6   -0.591207 
7   -0.563578 
8   -0.563801 
9   1.03868 
10   0.205941 
11   0.370661 
12   0.36206 
13   0.388241 
14   0.385093 
 
$$$$ 
 
