PCCDB-ID:  54791 
public computational chemistry database (PCCDB) project, http://pccdb.org 
 
 21 22  0  0  0  0  0  0  0  0999 V2000 
    2.0973   -0.9054    0.0149 C   0  0  0  0  0  0  0  0  0  0  0  0 
    0.8671   -1.5312    0.1740 C   0  0  0  0  0  0  0  0  0  0  0  0 
   -1.5553    1.1561   -0.1802 C   0  0  0  0  0  0  0  0  0  0  0  0 
   -2.3784    0.0824    0.0325 C   0  0  0  0  0  0  0  0  0  0  0  0 
    1.0584    1.2676   -0.2960 C   0  0  0  0  0  0  0  0  0  0  0  0 
    3.5850    1.1156   -0.3347 C   0  0  0  0  0  0  0  0  0  0  0  0 
    2.2081    0.4861   -0.2130 C   0  0  0  0  0  0  0  0  0  0  0  0 
   -0.2033    0.6673   -0.1480 C   0  0  0  0  0  0  0  0  0  0  0  0 
   -0.2780   -0.7335    0.0909 C   0  0  0  0  0  0  0  0  0  0  0  0 
    3.5880    2.2470   -1.2705 N   0  0  0  0  0  0  0  0  0  0  0  0 
   -1.6156   -1.0606    0.1964 N   0  0  0  0  0  0  0  0  0  0  0  0 
    3.0046   -1.5034    0.0661 H   0  0  0  0  0  0  0  0  0  0  0  0 
    0.8022   -2.6027    0.3462 H   0  0  0  0  0  0  0  0  0  0  0  0 
   -1.8718    2.1781   -0.3374 H   0  0  0  0  0  0  0  0  0  0  0  0 
   -3.4572    0.0304    0.0841 H   0  0  0  0  0  0  0  0  0  0  0  0 
    1.1538    2.3329   -0.4834 H   0  0  0  0  0  0  0  0  0  0  0  0 
    4.3122    0.3225   -0.5869 H   0  0  0  0  0  0  0  0  0  0  0  0 
    3.8979    1.5118    0.6424 H   0  0  0  0  0  0  0  0  0  0  0  0 
    3.3859    1.9092   -2.2107 H   0  0  0  0  0  0  0  0  0  0  0  0 
    4.5176    2.6625   -1.3032 H   0  0  0  0  0  0  0  0  0  0  0  0 
   -1.9805   -1.9850    0.3629 H   0  0  0  0  0  0  0  0  0  0  0  0 
  1 12  1  0  0  0  0 
  1  2  2  0  0  0  0 
  2 13  1  0  0  0  0 
  3  8  1  0  0  0  0 
  3  4  2  0  0  0  0 
  4 15  1  0  0  0  0 
  4 11  1  0  0  0  0 
  5  7  2  0  0  0  0 
  5  8  1  0  0  0  0 
  6  7  1  0  0  0  0 
  6 18  1  0  0  0  0 
  7  1  1  0  0  0  0 
  8  9  2  0  0  0  0 
  9  2  1  0  0  0  0 
  9 11  1  0  0  0  0 
 10  6  1  0  0  0  0 
 11 21  1  0  0  0  0 
 14  3  1  0  0  0  0 
 16  5  1  0  0  0  0 
 17  6  1  0  0  0  0 
 19 10  1  0  0  0  0 
 20 10  1  0  0  0  0 
M  END 
>  <HBA> 
1 
 
>  <HBD> 
2 
 
>  <TPSA> 
41.81 
 
>  <cid> 
54791 
 
>  <dipole> 
2.03 
 
>  <excitation_energy_1> 
4.637 
 
>  <excitation_energy_2> 
4.744 
 
>  <excitation_energy_3> 
4.757 
 
>  <excitation_energy_4> 
5.12 
 
>  <homo_energy> 
-5.279 
 
>  <homo_lumo_gap> 
5.29 
 
>  <logP> 
2.327 
 
>  <lumo_energy> 
0.011 
 
>  <melting_point> 
154.01 
 
>  <molecular_refractivity> 
45.97 
 
>  <oscillator_strength_1> 
0.04 
 
>  <oscillator_strength_2> 
0.0286 
 
>  <oscillator_strength_3> 
0.0189 
 
>  <oscillator_strength_4> 
0.01 
 
>  <open_babel_can_smiles> 
NCc1ccc2c(c1)cc[nH]2 
 
>  <mulliken_charges> 
21 
1   -0.210454 
2   -0.163143 
3   -0.226314 
4   0.047104 
5   -0.256667 
6   -0.203219 
7   0.135609 
8   0.125991 
9   0.312118 
10   -0.715497 
11   -0.681379 
12   0.111979 
13   0.117037 
14   0.128394 
15   0.146712 
16   0.145925 
17   0.116148 
18   0.15267 
19   0.296569 
20   0.295417 
21   0.324999 
 
>  <lowdin_charges> 
21 
1   -0.177244 
2   -0.18651 
3   -0.223369 
4   -0.121275 
5   -0.162104 
6   -0.20134 
7   -0.033006 
8   -0.026591 
9   0.026694 
10   -0.552837 
11   -0.202192 
12   0.150989 
13   0.15154 
14   0.1624 
15   0.161532 
16   0.166716 
17   0.121999 
18   0.148634 
19   0.253437 
20   0.25339 
21   0.289137 
 
$$$$ 
 
