PCCDB-ID:  18645 
public computational chemistry database (PCCDB) project, http://pccdb.org 
 
 29 28  0  0  0  0  0  0  0  0999 V2000 
    0.0958   -0.5474    1.4557 C   0  0  0  0  0  0  0  0  0  0  0  0 
    0.1420   -4.0280   -0.2182 C   0  0  0  0  0  0  0  0  0  0  0  0 
    0.5951   -0.9393    0.0641 C   0  0  0  0  0  0  0  0  0  0  0  0 
    1.2067   -3.2765    0.5994 C   0  0  0  0  0  0  0  0  0  0  0  0 
    3.4135   -0.9294   -1.3208 C   0  0  0  0  0  0  0  0  0  0  0  0 
    2.3823   -2.0571   -1.1737 C   0  0  0  0  0  0  0  0  0  0  0  0 
    5.1885    0.0974    0.0841 C   0  0  0  0  0  0  0  0  0  0  0  0 
    5.3304    0.5534    1.2773 N   0  0  0  0  0  0  0  0  0  0  0  0 
    5.8424    0.5459   -1.0738 N   0  0  0  0  0  0  0  0  0  0  0  0 
    4.2879   -0.9356   -0.1512 N   0  0  0  0  0  0  0  0  0  0  0  0 
    1.6399   -1.9703    0.0864 N   0  0  0  0  0  0  0  0  0  0  0  0 
   -0.5920    0.3022    1.3789 H   0  0  0  0  0  0  0  0  0  0  0  0 
    0.9353   -0.2559    2.0955 H   0  0  0  0  0  0  0  0  0  0  0  0 
   -0.4458   -1.3605    1.9510 H   0  0  0  0  0  0  0  0  0  0  0  0 
   -0.0754   -4.9948    0.2507 H   0  0  0  0  0  0  0  0  0  0  0  0 
    0.4810   -4.2240   -1.2419 H   0  0  0  0  0  0  0  0  0  0  0  0 
   -0.7996   -3.4712   -0.2766 H   0  0  0  0  0  0  0  0  0  0  0  0 
    1.0274   -0.0499   -0.4060 H   0  0  0  0  0  0  0  0  0  0  0  0 
   -0.2608   -1.2341   -0.5719 H   0  0  0  0  0  0  0  0  0  0  0  0 
    2.1050   -3.9003    0.6825 H   0  0  0  0  0  0  0  0  0  0  0  0 
    0.8431   -3.1341    1.6227 H   0  0  0  0  0  0  0  0  0  0  0  0 
    2.9155    0.0430   -1.4610 H   0  0  0  0  0  0  0  0  0  0  0  0 
    3.9876   -1.1187   -2.2362 H   0  0  0  0  0  0  0  0  0  0  0  0 
    2.9255   -3.0089   -1.1741 H   0  0  0  0  0  0  0  0  0  0  0  0 
    1.7265   -2.0559   -2.0634 H   0  0  0  0  0  0  0  0  0  0  0  0 
    6.1074    1.2162    1.3251 H   0  0  0  0  0  0  0  0  0  0  0  0 
    6.6478    1.1292   -0.8814 H   0  0  0  0  0  0  0  0  0  0  0  0 
    6.0689   -0.1881   -1.7367 H   0  0  0  0  0  0  0  0  0  0  0  0 
    3.7507   -1.1289    0.6910 H   0  0  0  0  0  0  0  0  0  0  0  0 
  1 14  1  0  0  0  0 
  1 13  1  0  0  0  0 
  2 15  1  0  0  0  0 
  2  4  1  0  0  0  0 
  3 11  1  0  0  0  0 
  3  1  1  0  0  0  0 
  4 20  1  0  0  0  0 
  4 21  1  0  0  0  0 
  5  6  1  0  0  0  0 
  5 10  1  0  0  0  0 
  6 11  1  0  0  0  0 
  7  8  1  0  0  0  0 
  8 26  1  0  0  0  0 
  9 27  1  0  0  0  0 
  9  7  2  0  0  0  0 
 10  7  1  0  0  0  0 
 10 29  1  0  0  0  0 
 11  4  1  0  0  0  0 
 12  1  1  0  0  0  0 
 16  2  1  0  0  0  0 
 17  2  1  0  0  0  0 
 18  3  1  0  0  0  0 
 19  3  1  0  0  0  0 
 22  5  1  0  0  0  0 
 23  5  1  0  0  0  0 
 24  6  1  0  0  0  0 
 25  6  1  0  0  0  0 
 28  9  1  0  0  0  0 
M  RAD  1   8   2 
M  END 
>  <HBA> 
4 
 
>  <HBD> 
2 
 
>  <TPSA> 
67.64 
 
>  <cid> 
18645 
 
>  <dipole> 
2.92 
 
>  <excitation_energy_1> 
5.012 
 
>  <excitation_energy_2> 
5.19 
 
>  <excitation_energy_3> 
5.385 
 
>  <excitation_energy_4> 
5.54 
 
>  <homo_energy> 
-5.603 
 
>  <homo_lumo_gap> 
7.208 
 
>  <logP> 
1.002 
 
>  <lumo_energy> 
1.605 
 
>  <melting_point> 
101.77 
 
>  <molecular_refractivity> 
47.76 
 
>  <oscillator_strength_1> 
0.009 
 
>  <oscillator_strength_2> 
0.0158 
 
>  <oscillator_strength_3> 
0.0091 
 
>  <oscillator_strength_4> 
0.0152 
 
>  <open_babel_can_smiles> 
CCN(CCNC(=[NH2])[NH])CC 
 
>  <mulliken_charges> 
29 
1   -0.455384 
2   -0.459159 
3   -0.118759 
4   -0.136651 
5   -0.119326 
6   -0.140407 
7   0.555561 
8   -0.641839 
9   -0.741505 
10   -0.589118 
11   -0.387493 
12   0.144114 
13   0.166845 
14   0.146367 
15   0.145468 
16   0.147881 
17   0.150572 
18   0.145849 
19   0.11637 
20   0.143562 
21   0.14697 
22   0.145277 
23   0.13122 
24   0.146536 
25   0.122011 
26   0.256672 
27   0.317255 
28   0.321618 
29   0.339493 
 
>  <lowdin_charges> 
29 
1   -0.453058 
2   -0.464455 
3   -0.201364 
4   -0.203574 
5   -0.201519 
6   -0.205522 
7   0.120857 
8   -0.483489 
9   -0.50884 
10   -0.316747 
11   -0.190135 
12   0.154311 
13   0.16084 
14   0.148732 
15   0.154275 
16   0.148276 
17   0.150037 
18   0.148767 
19   0.120198 
20   0.146053 
21   0.145749 
22   0.134654 
23   0.141282 
24   0.150378 
25   0.128336 
26   0.241373 
27   0.274515 
28   0.277526 
29   0.282544 
 
$$$$ 
 
