PCCDB-ID:  66134 
public computational chemistry database (PCCDB) project, http://pccdb.org 
 
 33 35  0  0  1  0  0  0  0  0999 V2000 
   -0.3354    1.0512    1.0092 C   0  0  0  0  0  0  0  0  0  0  0  0 
    3.9523    2.8361    5.7213 C   0  0  0  0  0  0  0  0  0  0  0  0 
    2.1755    6.1339   -1.0442 C   0  0  0  0  0  0  0  0  0  0  0  0 
    1.5709    6.0730    0.2148 C   0  0  0  0  0  0  0  0  0  0  0  0 
    3.0876    5.1511   -1.4321 C   0  0  0  0  0  0  0  0  0  0  0  0 
    1.8765    5.0292    1.0867 C   0  0  0  0  0  0  0  0  0  0  0  0 
    3.3973    4.1043   -0.5619 C   0  0  0  0  0  0  0  0  0  0  0  0 
    1.6498    0.5839    2.6679 C   0  0  0  0  0  0  0  0  0  0  0  0 
    5.0358    3.7603    3.5120 C   0  0  0  0  0  0  0  0  0  0  0  0 
    1.1378    0.9422    1.3200 C   0  0  2  0  0  0  0  0  0  0  0  0 
    4.3900    2.6691    4.2863 C   0  0  2  0  0  0  0  0  0  0  0  0 
    2.7924    4.0392    0.7001 C   0  0  0  0  0  0  0  0  0  0  0  0 
    1.7029    1.9842    2.2017 N   0  0  0  0  0  0  0  0  0  0  0  0 
    3.6200    3.4182    3.2718 N   0  0  0  0  0  0  0  0  0  0  0  0 
    4.2391    1.7286    1.2163 O   0  0  0  0  0  0  0  0  0  0  0  0 
    3.2170    2.6604    1.7970 P   0  0  2  0  0  0  0  0  0  0  0  0 
   -0.7295    0.0866    0.6677 H   0  0  0  0  0  0  0  0  0  0  0  0 
   -0.5114    1.7896    0.2189 H   0  0  0  0  0  0  0  0  0  0  0  0 
   -0.8948    1.3631    1.8969 H   0  0  0  0  0  0  0  0  0  0  0  0 
    4.7633    2.5601    6.4061 H   0  0  0  0  0  0  0  0  0  0  0  0 
    3.0890    2.1982    5.9433 H   0  0  0  0  0  0  0  0  0  0  0  0 
    3.6658    3.8739    5.9177 H   0  0  0  0  0  0  0  0  0  0  0  0 
    1.9342    6.9496   -1.7212 H   0  0  0  0  0  0  0  0  0  0  0  0 
    0.8622    6.8403    0.5152 H   0  0  0  0  0  0  0  0  0  0  0  0 
    3.5583    5.1995   -2.4104 H   0  0  0  0  0  0  0  0  0  0  0  0 
    1.4127    4.9774    2.0667 H   0  0  0  0  0  0  0  0  0  0  0  0 
    4.1066    3.3331   -0.8475 H   0  0  0  0  0  0  0  0  0  0  0  0 
    2.5820    0.0245    2.7170 H   0  0  0  0  0  0  0  0  0  0  0  0 
    0.9528    0.4117    3.4857 H   0  0  0  0  0  0  0  0  0  0  0  0 
    5.7663    3.4770    2.7562 H   0  0  0  0  0  0  0  0  0  0  0  0 
    5.1887    4.7351    3.9708 H   0  0  0  0  0  0  0  0  0  0  0  0 
    1.7742    0.6233    0.4936 H   0  0  0  0  0  0  0  0  0  0  0  0 
    4.7024    1.6641    4.0001 H   0  0  0  0  0  0  0  0  0  0  0  0 
  1 10  1  0  0  0  0 
  1 19  1  0  0  0  0 
  2 22  1  0  0  0  0 
  2 21  1  0  0  0  0 
  2 20  1  0  0  0  0 
  3  4  1  0  0  0  0 
  4 24  1  0  0  0  0 
  4  6  2  0  0  0  0 
  5  3  2  0  0  0  0 
  5  7  1  0  0  0  0 
  6 26  1  0  0  0  0 
  7 12  2  0  0  0  0 
  8 28  1  0  0  0  0 
  8 29  1  0  0  0  0 
  9 31  1  0  0  0  0 
  9 11  1  0  0  0  0 
 10 32  1  6  0  0  0 
 10 13  1  0  0  0  0 
 10  8  1  0  0  0  0 
 11 33  1  6  0  0  0 
 11  2  1  0  0  0  0 
 12  6  1  0  0  0  0 
 12 16  1  0  0  0  0 
 13  8  1  0  0  0  0 
 14  9  1  0  0  0  0 
 14 11  1  0  0  0  0 
 16 15  2  6  0  0  0 
 16 13  1  0  0  0  0 
 16 14  1  0  0  0  0 
 17  1  1  0  0  0  0 
 18  1  1  0  0  0  0 
 23  3  1  0  0  0  0 
 25  5  1  0  0  0  0 
 27  7  1  0  0  0  0 
 30  9  1  0  0  0  0 
M  END 
>  <HBA> 
3 
 
>  <HBD> 
0 
 
>  <TPSA> 
32.9 
 
>  <cid> 
66134 
 
>  <dipole> 
1.65 
 
>  <excitation_energy_1> 
5.039 
 
>  <excitation_energy_2> 
5.247 
 
>  <excitation_energy_3> 
5.415 
 
>  <excitation_energy_4> 
5.585 
 
>  <homo_energy> 
-6.444 
 
>  <homo_lumo_gap> 
5.88 
 
>  <logP> 
1.789 
 
>  <lumo_energy> 
-0.563 
 
>  <melting_point> 
47.93 
 
>  <molecular_refractivity> 
74.03 
 
>  <oscillator_strength_1> 
0.005 
 
>  <oscillator_strength_2> 
0.0061 
 
>  <oscillator_strength_3> 
0.0043 
 
>  <oscillator_strength_4> 
0.0056 
 
>  <open_babel_can_smiles> 
C[C@@H]1CN1[P@](=O)(c1ccccc1)N1C[C@H]1C 
 
>  <mulliken_charges> 
33 
1   -0.448949 
2   -0.448195 
3   -0.125342 
4   -0.129504 
5   -0.125506 
6   -0.143128 
7   -0.168002 
8   -0.211929 
9   -0.209462 
10   -0.002835 
11   -0.003506 
12   -0.09842 
13   -0.502259 
14   -0.502345 
15   -0.600946 
16   1.031274 
17   0.149525 
18   0.161218 
19   0.156661 
20   0.14961 
21   0.15658 
22   0.158607 
23   0.134568 
24   0.134374 
25   0.135135 
26   0.162192 
27   0.169714 
28   0.177365 
29   0.158914 
30   0.181957 
31   0.160775 
32   0.17356 
33   0.168301 
 
>  <lowdin_charges> 
33 
1   -0.43975 
2   -0.438494 
3   -0.144794 
4   -0.159029 
5   -0.157606 
6   -0.130268 
7   -0.138772 
8   -0.230198 
9   -0.228405 
10   -0.074359 
11   -0.072415 
12   -0.180893 
13   -0.359154 
14   -0.358631 
15   -0.630579 
16   0.97085 
17   0.155461 
18   0.161153 
19   0.160055 
20   0.156241 
21   0.15863 
22   0.159604 
23   0.160276 
24   0.160558 
25   0.15973 
26   0.175052 
27   0.179855 
28   0.167879 
29   0.160941 
30   0.171412 
31   0.160362 
32   0.164976 
33   0.160313 
 
$$$$ 
 
