PCCDB-ID:  58848 
public computational chemistry database (PCCDB) project, http://pccdb.org 
 
 35 35  0  0  1  0  0  0  0  0999 V2000 
    1.3150   -0.1293   -0.6229 C   0  0  0  0  0  0  0  0  0  0  0  0 
    4.6460    3.4632   -1.0758 C   0  0  0  0  0  0  0  0  0  0  0  0 
    7.1132   -0.4869   -2.5828 C   0  0  0  0  0  0  0  0  0  0  0  0 
    2.7177   -0.2455   -1.1914 C   0  0  0  0  0  0  0  0  0  0  0  0 
    6.8975    2.2738   -0.9806 C   0  0  0  0  0  0  0  0  0  0  0  0 
    7.6351    1.0006   -0.5466 C   0  0  0  0  0  0  0  0  0  0  0  0 
    7.5113   -1.4641   -0.3622 C   0  0  0  0  0  0  0  0  0  0  0  0 
    5.4898   -2.5737    0.5946 C   0  0  0  0  0  0  0  0  0  0  0  0 
    7.7090   -3.4811    0.9308 C   0  0  0  0  0  0  0  0  0  0  0  0 
    5.4098    2.2256   -0.5944 C   0  0  2  0  0  0  0  0  0  0  0  0 
    6.9014   -2.4372    0.3532 C   0  0  0  0  0  0  0  0  0  0  0  0 
    4.7864    0.9363   -1.1343 C   0  0  2  0  0  0  0  0  0  0  0  0 
    6.9121   -0.2754   -1.0607 C   0  0  2  0  0  0  0  0  0  0  0  0 
    4.3782   -2.8095    0.8396 N   0  0  0  0  0  0  0  0  0  0  0  0 
    8.3700   -4.3186    1.3930 N   0  0  0  0  0  0  0  0  0  0  0  0 
    3.5080    0.8107   -0.6258 O   0  0  0  0  0  0  0  0  0  0  0  0 
    5.5365   -0.2221   -0.7140 O   0  0  0  0  0  0  0  0  0  0  0  0 
    0.6746   -0.9151   -1.0381 H   0  0  0  0  0  0  0  0  0  0  0  0 
    0.8744    0.8439   -0.8641 H   0  0  0  0  0  0  0  0  0  0  0  0 
    1.3352   -0.2418    0.4654 H   0  0  0  0  0  0  0  0  0  0  0  0 
    5.0913    4.3766   -0.6653 H   0  0  0  0  0  0  0  0  0  0  0  0 
    3.5994    3.4185   -0.7643 H   0  0  0  0  0  0  0  0  0  0  0  0 
    4.6722    3.5445   -2.1704 H   0  0  0  0  0  0  0  0  0  0  0  0 
    8.1657   -0.6780   -2.8173 H   0  0  0  0  0  0  0  0  0  0  0  0 
    6.8010    0.3935   -3.1509 H   0  0  0  0  0  0  0  0  0  0  0  0 
    6.5198   -1.3429   -2.9168 H   0  0  0  0  0  0  0  0  0  0  0  0 
    2.7092   -0.1411   -2.2887 H   0  0  0  0  0  0  0  0  0  0  0  0 
    3.1615   -1.2138   -0.9399 H   0  0  0  0  0  0  0  0  0  0  0  0 
    6.9927    2.4211   -2.0657 H   0  0  0  0  0  0  0  0  0  0  0  0 
    7.3720    3.1453   -0.5137 H   0  0  0  0  0  0  0  0  0  0  0  0 
    7.6618    0.9576    0.5492 H   0  0  0  0  0  0  0  0  0  0  0  0 
    8.6740    1.0079   -0.8982 H   0  0  0  0  0  0  0  0  0  0  0  0 
    8.5917   -1.5443   -0.4600 H   0  0  0  0  0  0  0  0  0  0  0  0 
    5.3320    2.1577    0.4994 H   0  0  0  0  0  0  0  0  0  0  0  0 
    4.7618    0.9491   -2.2404 H   0  0  0  0  0  0  0  0  0  0  0  0 
  1 20  1  0  0  0  0 
  2 22  1  0  0  0  0 
  2 21  1  0  0  0  0 
  2 10  1  0  0  0  0 
  3 13  1  0  0  0  0 
  4 28  1  0  0  0  0 
  4 16  1  0  0  0  0 
  4  1  1  0  0  0  0 
  5 10  1  0  0  0  0 
  5  6  1  0  0  0  0 
  5 30  1  0  0  0  0 
  6 31  1  0  0  0  0 
  7 11  2  0  0  0  0 
  8 14  3  0  0  0  0 
  9 15  3  0  0  0  0 
 10 34  1  1  0  0  0 
 11  8  1  0  0  0  0 
 11  9  1  0  0  0  0 
 12 35  1  6  0  0  0 
 12 17  1  0  0  0  0 
 12 16  1  0  0  0  0 
 12 10  1  0  0  0  0 
 13 17  1  0  0  0  0 
 13  6  1  0  0  0  0 
 13  7  1  1  0  0  0 
 18  1  1  0  0  0  0 
 19  1  1  0  0  0  0 
 23  2  1  0  0  0  0 
 24  3  1  0  0  0  0 
 25  3  1  0  0  0  0 
 26  3  1  0  0  0  0 
 27  4  1  0  0  0  0 
 29  5  1  0  0  0  0 
 32  6  1  0  0  0  0 
 33  7  1  0  0  0  0 
M  END 
>  <HBA> 
4 
 
>  <HBD> 
0 
 
>  <TPSA> 
66.04 
 
>  <cid> 
58848 
 
>  <dipole> 
6.74 
 
>  <excitation_energy_1> 
4.241 
 
>  <excitation_energy_2> 
4.558 
 
>  <excitation_energy_3> 
5.258 
 
>  <excitation_energy_4> 
5.452 
 
>  <homo_energy> 
-7.295 
 
>  <homo_lumo_gap> 
5.059 
 
>  <logP> 
2.528 
 
>  <lumo_energy> 
-2.237 
 
>  <melting_point> 
65.5 
 
>  <molecular_refractivity> 
63.72 
 
>  <oscillator_strength_1> 
0.0499 
 
>  <oscillator_strength_2> 
0.0023 
 
>  <oscillator_strength_3> 
0.0105 
 
>  <oscillator_strength_4> 
0.3285 
 
>  <open_babel_can_smiles> 
CCO[C@@H]1O[C@@](C)(CC[C@H]1C)C=C(C#N)C#N 
 
>  <mulliken_charges> 
35 
1   -0.455986 
2   -0.455545 
3   -0.475934 
4   -0.032767 
5   -0.290524 
6   -0.285406 
7   -0.128474 
8   0.349168 
9   0.295359 
10   -0.113551 
11   0.126957 
12   0.406879 
13   0.320049 
14   -0.489932 
15   -0.460721 
16   -0.484681 
17   -0.546851 
18   0.14778 
19   0.150089 
20   0.170029 
21   0.14515 
22   0.172818 
23   0.136714 
24   0.154596 
25   0.165157 
26   0.174883 
27   0.114681 
28   0.177857 
29   0.136774 
30   0.151072 
31   0.158654 
32   0.141032 
33   0.180503 
34   0.148545 
35   0.095623 
 
>  <lowdin_charges> 
35 
1   -0.445992 
2   -0.440953 
3   -0.454979 
4   -0.12519 
5   -0.278282 
6   -0.282182 
7   -0.071952 
8   0.007125 
9   -0.003262 
10   -0.140204 
11   -0.03256 
12   0.107183 
13   0.12276 
14   -0.100489 
15   -0.096603 
16   -0.24018 
17   -0.264741 
18   0.158154 
19   0.152172 
20   0.161249 
21   0.152449 
22   0.163636 
23   0.143173 
24   0.158331 
25   0.160671 
26   0.168519 
27   0.122719 
28   0.154829 
29   0.139653 
30   0.156459 
31   0.154516 
32   0.151006 
33   0.183173 
34   0.151107 
35   0.108687 
 
$$$$ 
 
