PCCDB-ID:  41645 
public computational chemistry database (PCCDB) project, http://pccdb.org 
 
 26 27  0  0  0  0  0  0  0  0999 V2000 
    4.6073    1.4513    1.1886 C   0  0  0  0  0  0  0  0  0  0  0  0 
   -2.1586    5.2780   -0.0592 C   0  0  0  0  0  0  0  0  0  0  0  0 
   -0.7563    5.4719   -0.0834 C   0  0  0  0  0  0  0  0  0  0  0  0 
   -2.6944    4.0461   -0.3562 C   0  0  0  0  0  0  0  0  0  0  0  0 
    0.0874    4.4332   -0.4072 C   0  0  0  0  0  0  0  0  0  0  0  0 
   -2.3502    1.6658   -1.0046 C   0  0  0  0  0  0  0  0  0  0  0  0 
   -1.4662    0.6664   -1.3274 C   0  0  0  0  0  0  0  0  0  0  0  0 
    1.8889    2.1307   -1.2245 C   0  0  0  0  0  0  0  0  0  0  0  0 
   -1.8499    2.9560   -0.6959 C   0  0  0  0  0  0  0  0  0  0  0  0 
   -0.4327    3.1510   -0.7299 C   0  0  0  0  0  0  0  0  0  0  0  0 
    0.3806    2.0301   -1.1001 C   0  0  0  0  0  0  0  0  0  0  0  0 
    2.6241    2.1241    0.1097 C   0  0  0  0  0  0  0  0  0  0  0  0 
   -0.1196    0.8410   -1.3861 N   0  0  0  0  0  0  0  0  0  0  0  0 
    2.2401    2.6429    1.1350 O   0  0  0  0  0  0  0  0  0  0  0  0 
    3.8063    1.4816   -0.0051 O   0  0  0  0  0  0  0  0  0  0  0  0 
    4.0700    0.9492    1.9971 H   0  0  0  0  0  0  0  0  0  0  0  0 
    4.8619    2.4658    1.5070 H   0  0  0  0  0  0  0  0  0  0  0  0 
    5.5067    0.8956    0.9218 H   0  0  0  0  0  0  0  0  0  0  0  0 
   -2.8111    6.1076    0.1998 H   0  0  0  0  0  0  0  0  0  0  0  0 
   -0.3448    6.4463    0.1644 H   0  0  0  0  0  0  0  0  0  0  0  0 
   -3.7699    3.8887   -0.3339 H   0  0  0  0  0  0  0  0  0  0  0  0 
    1.1598    4.5875   -0.3904 H   0  0  0  0  0  0  0  0  0  0  0  0 
   -3.4205    1.4779   -0.9860 H   0  0  0  0  0  0  0  0  0  0  0  0 
   -1.8173   -0.3351   -1.5665 H   0  0  0  0  0  0  0  0  0  0  0  0 
    2.1820    3.0521   -1.7457 H   0  0  0  0  0  0  0  0  0  0  0  0 
    2.2378    1.2896   -1.8253 H   0  0  0  0  0  0  0  0  0  0  0  0 
  1 17  1  0  0  0  0 
  1 16  1  0  0  0  0 
  2 19  1  0  0  0  0 
  3  2  1  0  0  0  0 
  3 20  1  0  0  0  0 
  4 21  1  0  0  0  0 
  4  2  2  0  0  0  0 
  5 22  1  0  0  0  0 
  5  3  2  0  0  0  0 
  6 23  1  0  0  0  0 
  6  9  2  0  0  0  0 
  7  6  1  0  0  0  0 
  8 11  1  0  0  0  0 
  8 12  1  0  0  0  0 
  9  4  1  0  0  0  0 
 10  9  1  0  0  0  0 
 10  5  1  0  0  0  0 
 11 10  2  0  0  0  0 
 12 14  2  0  0  0  0 
 13  7  2  0  0  0  0 
 13 11  1  0  0  0  0 
 15 12  1  0  0  0  0 
 15  1  1  0  0  0  0 
 18  1  1  0  0  0  0 
 24  7  1  0  0  0  0 
 25  8  1  0  0  0  0 
 26  8  1  0  0  0  0 
M  END 
>  <HBA> 
3 
 
>  <HBD> 
0 
 
>  <TPSA> 
39.19 
 
>  <cid> 
41645 
 
>  <dipole> 
1.3 
 
>  <excitation_energy_1> 
4.224 
 
>  <excitation_energy_2> 
4.378 
 
>  <excitation_energy_3> 
4.567 
 
>  <excitation_energy_4> 
5.172 
 
>  <homo_energy> 
-6.063 
 
>  <homo_lumo_gap> 
4.732 
 
>  <logP> 
1.95 
 
>  <lumo_energy> 
-1.331 
 
>  <melting_point> 
79.11 
 
>  <molecular_refractivity> 
57.61 
 
>  <oscillator_strength_1> 
0.0921 
 
>  <oscillator_strength_2> 
0.0039 
 
>  <oscillator_strength_3> 
0.0191 
 
>  <oscillator_strength_4> 
0.0013 
 
>  <open_babel_can_smiles> 
COC(=O)Cc1nccc2c1cccc2 
 
>  <mulliken_charges> 
26 
1   -0.218922 
2   -0.127135 
3   -0.137693 
4   -0.185342 
5   -0.168927 
6   -0.195548 
7   0.022402 
8   -0.445825 
9   0.151691 
10   0.10031 
11   0.25866 
12   0.630056 
13   -0.478342 
14   -0.472026 
15   -0.442974 
16   0.17473 
17   0.168503 
18   0.166077 
19   0.136021 
20   0.135452 
21   0.134279 
22   0.138877 
23   0.133487 
24   0.138964 
25   0.18305 
26   0.200177 
 
>  <lowdin_charges> 
26 
1   -0.279552 
2   -0.145857 
3   -0.156093 
4   -0.156606 
5   -0.137902 
6   -0.172549 
7   -0.099477 
8   -0.307302 
9   0.014698 
10   -0.020214 
11   0.060604 
12   0.199931 
13   -0.158954 
14   -0.26208 
15   -0.189426 
16   0.162998 
17   0.157894 
18   0.161805 
19   0.162362 
20   0.161138 
21   0.158309 
22   0.164224 
23   0.160968 
24   0.156509 
25   0.176548 
26   0.188022 
 
$$$$ 
 
