PCCDB-ID:  67064 
public computational chemistry database (PCCDB) project, http://pccdb.org 
 
 28 28  0  0  0  0  0  0  0  0999 V2000 
    3.0961   -1.7340    0.9922 C   0  0  0  0  0  0  0  0  0  0  0  0 
   10.4651    0.8395   -3.8162 C   0  0  0  0  0  0  0  0  0  0  0  0 
    2.6674   -1.3875   -0.4295 C   0  0  0  0  0  0  0  0  0  0  0  0 
    9.0546    1.1405   -3.3420 C   0  0  0  0  0  0  0  0  0  0  0  0 
    5.1184    0.9650   -1.8275 C   0  0  0  0  0  0  0  0  0  0  0  0 
    6.4017    1.0285   -2.3516 C   0  0  0  0  0  0  0  0  0  0  0  0 
    5.3431   -1.4056   -1.5148 C   0  0  0  0  0  0  0  0  0  0  0  0 
    4.5697   -0.2536   -1.4018 C   0  0  0  0  0  0  0  0  0  0  0  0 
    6.6305   -1.3416   -2.0590 C   0  0  0  0  0  0  0  0  0  0  0  0 
    7.1995   -0.1229   -2.4875 C   0  0  0  0  0  0  0  0  0  0  0  0 
    7.3511   -2.6174   -2.1545 N   0  0  0  0  0  0  0  0  0  0  0  0 
    8.2648   -2.7200   -2.9687 O   0  0  0  0  0  0  0  0  0  0  0  0 
    6.9746   -3.5332   -1.4144 O   0  0  0  0  0  0  0  0  0  0  0  0 
    3.2947   -0.1968   -0.9208 O   0  0  0  0  0  0  0  0  0  0  0  0 
    8.4646   -0.1065   -2.9609 O   0  0  0  0  0  0  0  0  0  0  0  0 
    2.5339   -2.6048    1.3485 H   0  0  0  0  0  0  0  0  0  0  0  0 
    2.8930   -0.8936    1.6636 H   0  0  0  0  0  0  0  0  0  0  0  0 
    4.1626   -1.9711    1.0522 H   0  0  0  0  0  0  0  0  0  0  0  0 
   10.9584    1.7651   -4.1318 H   0  0  0  0  0  0  0  0  0  0  0  0 
   10.4449    0.1460   -4.6619 H   0  0  0  0  0  0  0  0  0  0  0  0 
   11.0529    0.3856   -3.0129 H   0  0  0  0  0  0  0  0  0  0  0  0 
    1.5988   -1.1573   -0.4598 H   0  0  0  0  0  0  0  0  0  0  0  0 
    2.8452   -2.2201   -1.1221 H   0  0  0  0  0  0  0  0  0  0  0  0 
    8.4601    1.6021   -4.1425 H   0  0  0  0  0  0  0  0  0  0  0  0 
    9.0631    1.8257   -2.4827 H   0  0  0  0  0  0  0  0  0  0  0  0 
    4.5154    1.8633   -1.7401 H   0  0  0  0  0  0  0  0  0  0  0  0 
    6.7903    1.9908   -2.6603 H   0  0  0  0  0  0  0  0  0  0  0  0 
    4.9952   -2.3764   -1.1917 H   0  0  0  0  0  0  0  0  0  0  0  0 
  1 18  1  0  0  0  0 
  1 16  1  0  0  0  0 
  1 17  1  0  0  0  0 
  2  4  1  0  0  0  0 
  2 21  1  0  0  0  0 
  3  1  1  0  0  0  0 
  4 15  1  0  0  0  0 
  4 25  1  0  0  0  0 
  5 26  1  0  0  0  0 
  5  8  2  0  0  0  0 
  6  5  1  0  0  0  0 
  7  8  1  0  0  0  0 
  7 28  1  0  0  0  0 
  8 14  1  0  0  0  0 
  9  7  2  0  0  0  0 
 10  6  2  0  0  0  0 
 10  9  1  0  0  0  0 
 11  9  1  0  0  0  0 
 11 13  2  0  0  0  0 
 12 11  2  0  0  0  0 
 14  3  1  0  0  0  0 
 15 10  1  0  0  0  0 
 19  2  1  0  0  0  0 
 20  2  1  0  0  0  0 
 22  3  1  0  0  0  0 
 23  3  1  0  0  0  0 
 24  4  1  0  0  0  0 
 27  6  1  0  0  0  0 
M  END 
>  <HBA> 
2 
 
>  <HBD> 
0 
 
>  <TPSA> 
64.28 
 
>  <cid> 
67064 
 
>  <dipole> 
4.52 
 
>  <excitation_energy_1> 
3.205 
 
>  <excitation_energy_2> 
3.656 
 
>  <excitation_energy_3> 
4.254 
 
>  <excitation_energy_4> 
4.761 
 
>  <homo_energy> 
-5.899 
 
>  <homo_lumo_gap> 
3.886 
 
>  <logP> 
2.915 
 
>  <lumo_energy> 
-2.014 
 
>  <melting_point> 
53.0 
 
>  <molecular_refractivity> 
57.86 
 
>  <oscillator_strength_1> 
0.0721 
 
>  <oscillator_strength_2> 
0.0049 
 
>  <oscillator_strength_3> 
0.0045 
 
>  <oscillator_strength_4> 
0.0667 
 
>  <open_babel_can_smiles> 
CCOc1ccc(c(c1)N(=O)=O)OCC 
 
>  <mulliken_charges> 
28 
1   -0.465841 
2   -0.456378 
3   -0.041217 
4   -0.038941 
5   -0.160798 
6   -0.210654 
7   -0.238007 
8   0.385986 
9   0.229122 
10   0.374842 
11   0.359083 
12   -0.378101 
13   -0.405803 
14   -0.528461 
15   -0.493754 
16   0.154125 
17   0.164002 
18   0.170673 
19   0.14902 
20   0.175271 
21   0.170653 
22   0.160002 
23   0.148879 
24   0.146419 
25   0.14453 
26   0.151584 
27   0.149988 
28   0.183776 
 
>  <lowdin_charges> 
28 
1   -0.459139 
2   -0.44747 
3   -0.12575 
4   -0.12494 
5   -0.150813 
6   -0.198287 
7   -0.191358 
8   0.092174 
9   -0.017466 
10   0.103179 
11   0.309101 
12   -0.23302 
13   -0.268096 
14   -0.202897 
15   -0.174485 
16   0.161402 
17   0.16102 
18   0.160196 
19   0.158175 
20   0.166886 
21   0.165205 
22   0.154653 
23   0.143286 
24   0.142449 
25   0.140984 
26   0.174111 
27   0.171651 
28   0.18925 
 
$$$$ 
 
