PCCDB-ID:  8966 
public computational chemistry database (PCCDB) project, http://pccdb.org 
 
 35 37  0  0  0  0  0  0  0  0999 V2000 
    1.9038    2.2790    2.7526 C   0  0  0  0  0  0  0  0  0  0  0  0 
    2.6997    2.0705    1.7036 C   0  0  0  0  0  0  0  0  0  0  0  0 
    3.5799   -4.1984    0.7975 C   0  0  0  0  0  0  0  0  0  0  0  0 
    8.8648    0.2154    2.5743 C   0  0  0  0  0  0  0  0  0  0  0  0 
    4.5686   -4.6217    1.6863 C   0  0  0  0  0  0  0  0  0  0  0  0 
    9.1308   -1.1253    2.2952 C   0  0  0  0  0  0  0  0  0  0  0  0 
    3.6312   -2.9059    0.2740 C   0  0  0  0  0  0  0  0  0  0  0  0 
    7.5505    0.6814    2.5289 C   0  0  0  0  0  0  0  0  0  0  0  0 
    5.5964   -3.7517    2.0470 C   0  0  0  0  0  0  0  0  0  0  0  0 
    8.0847   -1.9848    1.9633 C   0  0  0  0  0  0  0  0  0  0  0  0 
    2.9824    0.7231    1.0920 C   0  0  0  0  0  0  0  0  0  0  0  0 
    4.7398   -0.6277    0.0270 C   0  0  0  0  0  0  0  0  0  0  0  0 
    5.0616    0.3295    2.2613 C   0  0  0  0  0  0  0  0  0  0  0  0 
    4.6572   -2.0227    0.6236 C   0  0  0  0  0  0  0  0  0  0  0  0 
    6.4896   -0.1700    2.2063 C   0  0  0  0  0  0  0  0  0  0  0  0 
    5.6560   -2.4484    1.5303 C   0  0  0  0  0  0  0  0  0  0  0  0 
    6.7594   -1.5266    1.9092 C   0  0  0  0  0  0  0  0  0  0  0  0 
    4.4214    0.4828    0.9425 N   0  0  0  0  0  0  0  0  0  0  0  0 
    1.7076    3.2776    3.1341 H   0  0  0  0  0  0  0  0  0  0  0  0 
    1.4106    1.4565    3.2671 H   0  0  0  0  0  0  0  0  0  0  0  0 
    3.1903    2.9116    1.2131 H   0  0  0  0  0  0  0  0  0  0  0  0 
    2.7746   -4.8701    0.5119 H   0  0  0  0  0  0  0  0  0  0  0  0 
    9.6743    0.8947    2.8275 H   0  0  0  0  0  0  0  0  0  0  0  0 
    4.5375   -5.6248    2.1034 H   0  0  0  0  0  0  0  0  0  0  0  0 
   10.1504   -1.5002    2.3256 H   0  0  0  0  0  0  0  0  0  0  0  0 
    2.8697   -2.5789   -0.4311 H   0  0  0  0  0  0  0  0  0  0  0  0 
    7.3382    1.7230    2.7580 H   0  0  0  0  0  0  0  0  0  0  0  0 
    6.3547   -4.0752    2.7551 H   0  0  0  0  0  0  0  0  0  0  0  0 
    8.2950   -3.0223    1.7177 H   0  0  0  0  0  0  0  0  0  0  0  0 
    2.5451    0.7004    0.0838 H   0  0  0  0  0  0  0  0  0  0  0  0 
    2.4758   -0.0654    1.6823 H   0  0  0  0  0  0  0  0  0  0  0  0 
    4.0709   -0.5479   -0.8360 H   0  0  0  0  0  0  0  0  0  0  0  0 
    5.7583   -0.4634   -0.3439 H   0  0  0  0  0  0  0  0  0  0  0  0 
    5.0296    1.3003    2.7656 H   0  0  0  0  0  0  0  0  0  0  0  0 
    4.4787   -0.3697    2.8918 H   0  0  0  0  0  0  0  0  0  0  0  0 
  1 19  1  0  0  0  0 
  1 20  1  0  0  0  0 
  2  1  2  0  0  0  0 
  3  5  2  0  0  0  0 
  4 23  1  0  0  0  0 
  5  9  1  0  0  0  0 
  5 24  1  0  0  0  0 
  6 25  1  0  0  0  0 
  6  4  2  0  0  0  0 
  7 14  2  0  0  0  0 
  7  3  1  0  0  0  0 
  8  4  1  0  0  0  0 
  8 27  1  0  0  0  0 
  9 28  1  0  0  0  0 
 10  6  1  0  0  0  0 
 11 31  1  0  0  0  0 
 11  2  1  0  0  0  0 
 12 14  1  0  0  0  0 
 12 18  1  0  0  0  0 
 13 34  1  0  0  0  0 
 13 35  1  0  0  0  0 
 14 16  1  0  0  0  0 
 15 13  1  0  0  0  0 
 15  8  2  0  0  0  0 
 16 17  1  0  0  0  0 
 16  9  2  0  0  0  0 
 17 10  2  0  0  0  0 
 17 15  1  0  0  0  0 
 18 11  1  0  0  0  0 
 18 13  1  0  0  0  0 
 21  2  1  0  0  0  0 
 22  3  1  0  0  0  0 
 26  7  1  0  0  0  0 
 29 10  1  0  0  0  0 
 30 11  1  0  0  0  0 
 32 12  1  0  0  0  0 
 33 12  1  0  0  0  0 
M  END 
>  <HBA> 
1 
 
>  <HBD> 
0 
 
>  <TPSA> 
3.24 
 
>  <cid> 
8966 
 
>  <dipole> 
0.56 
 
>  <excitation_energy_1> 
4.093 
 
>  <excitation_energy_2> 
4.589 
 
>  <excitation_energy_3> 
4.743 
 
>  <excitation_energy_4> 
4.884 
 
>  <homo_energy> 
-5.606 
 
>  <homo_lumo_gap> 
4.901 
 
>  <logP> 
3.793 
 
>  <lumo_energy> 
-0.705 
 
>  <melting_point> 
52.89 
 
>  <molecular_refractivity> 
80.45 
 
>  <oscillator_strength_1> 
0.0161 
 
>  <oscillator_strength_2> 
0.019 
 
>  <oscillator_strength_3> 
0.002 
 
>  <oscillator_strength_4> 
0.0467 
 
>  <open_babel_can_smiles> 
C=CCN1Cc2ccccc2c2c(C1)cccc2 
 
>  <mulliken_charges> 
35 
1   -0.33932 
2   -0.046774 
3   -0.122401 
4   -0.123737 
5   -0.136088 
6   -0.135059 
7   -0.198612 
8   -0.193283 
9   -0.173607 
10   -0.1748 
11   -0.165837 
12   -0.239274 
13   -0.209814 
14   0.135388 
15   0.117312 
16   0.034221 
17   0.037519 
18   -0.379394 
19   0.140971 
20   0.138711 
21   0.135369 
22   0.128844 
23   0.129167 
24   0.129629 
25   0.129424 
26   0.124906 
27   0.130196 
28   0.132809 
29   0.13246 
30   0.143739 
31   0.124498 
32   0.141985 
33   0.164305 
34   0.154401 
35   0.132147 
 
>  <lowdin_charges> 
35 
1   -0.339352 
2   -0.150847 
3   -0.157946 
4   -0.158838 
5   -0.156642 
6   -0.156087 
7   -0.16565 
8   -0.157081 
9   -0.159669 
10   -0.159201 
11   -0.198577 
12   -0.205791 
13   -0.202536 
14   -0.021695 
15   -0.010852 
16   -0.010959 
17   -0.010956 
18   -0.186396 
19   0.158798 
20   0.15653 
21   0.156603 
22   0.1587 
23   0.159154 
24   0.157208 
25   0.157093 
26   0.155431 
27   0.156604 
28   0.160262 
29   0.158057 
30   0.14979 
31   0.126685 
32   0.150604 
33   0.157866 
34   0.155261 
35   0.134428 
 
$$$$ 
 
