PCCDB-ID:  24006 
public computational chemistry database (PCCDB) project, http://pccdb.org 
 
 22 22  0  0  1  0  0  0  0  0999 V2000 
    0.9775    0.0294    0.1189 C   0  0  0  0  0  0  0  0  0  0  0  0 
    4.7026    1.2151    0.4270 C   0  0  0  0  0  0  0  0  0  0  0  0 
    5.1991    0.1384    1.4028 C   0  0  0  0  0  0  0  0  0  0  0  0 
    3.1687    1.2881    0.4147 C   0  0  0  0  0  0  0  0  0  0  0  0 
    4.5508   -1.2189    1.0950 C   0  0  0  0  0  0  0  0  0  0  0  0 
    2.5076   -0.0699    0.1086 C   0  0  1  0  0  0  0  0  0  0  0  0 
    3.0177   -1.1377    1.0877 C   0  0  1  0  0  0  0  0  0  0  0  0 
    2.4363   -2.3852    0.7019 O   0  0  0  0  0  0  0  0  0  0  0  0 
    0.6297    0.7710   -0.6104 H   0  0  0  0  0  0  0  0  0  0  0  0 
    0.6125    0.3393    1.1071 H   0  0  0  0  0  0  0  0  0  0  0  0 
    0.5213   -0.9344   -0.1219 H   0  0  0  0  0  0  0  0  0  0  0  0 
    5.0646    0.9818   -0.5849 H   0  0  0  0  0  0  0  0  0  0  0  0 
    5.1255    2.1925    0.6923 H   0  0  0  0  0  0  0  0  0  0  0  0 
    4.9497    0.4383    2.4313 H   0  0  0  0  0  0  0  0  0  0  0  0 
    6.2921    0.0531    1.3610 H   0  0  0  0  0  0  0  0  0  0  0  0 
    2.8294    2.0290   -0.3208 H   0  0  0  0  0  0  0  0  0  0  0  0 
    2.8147    1.6444    1.3943 H   0  0  0  0  0  0  0  0  0  0  0  0 
    4.8755   -1.9725    1.8279 H   0  0  0  0  0  0  0  0  0  0  0  0 
    4.8767   -1.5767    0.1085 H   0  0  0  0  0  0  0  0  0  0  0  0 
    2.8265   -0.3904   -0.8955 H   0  0  0  0  0  0  0  0  0  0  0  0 
    2.6729   -0.8639    2.1025 H   0  0  0  0  0  0  0  0  0  0  0  0 
    2.7495   -3.0583    1.3259 H   0  0  0  0  0  0  0  0  0  0  0  0 
  1 10  1  0  0  0  0 
  2 13  1  0  0  0  0 
  2  3  1  0  0  0  0 
  3 14  1  0  0  0  0 
  4  2  1  0  0  0  0 
  4 17  1  0  0  0  0 
  5  3  1  0  0  0  0 
  5 18  1  0  0  0  0 
  6 20  1  6  0  0  0 
  6  1  1  0  0  0  0 
  6  4  1  0  0  0  0 
  6  7  1  0  0  0  0 
  7  5  1  0  0  0  0 
  7 21  1  1  0  0  0 
  8  7  1  0  0  0  0 
  8 22  1  0  0  0  0 
  9  1  1  0  0  0  0 
 11  1  1  0  0  0  0 
 12  2  1  0  0  0  0 
 15  3  1  0  0  0  0 
 16  4  1  0  0  0  0 
 19  5  1  0  0  0  0 
M  END 
>  <HBA> 
1 
 
>  <HBD> 
1 
 
>  <TPSA> 
20.23 
 
>  <cid> 
24006 
 
>  <dipole> 
1.51 
 
>  <excitation_energy_1> 
6.33 
 
>  <excitation_energy_2> 
6.903 
 
>  <excitation_energy_3> 
7.157 
 
>  <excitation_energy_4> 
7.213 
 
>  <homo_energy> 
-6.993 
 
>  <homo_lumo_gap> 
9.1 
 
>  <logP> 
1.557 
 
>  <lumo_energy> 
2.106 
 
>  <melting_point> 
13.97 
 
>  <molecular_refractivity> 
34.81 
 
>  <oscillator_strength_1> 
0.0042 
 
>  <oscillator_strength_2> 
0.002 
 
>  <oscillator_strength_3> 
0.0237 
 
>  <oscillator_strength_4> 
0.0069 
 
>  <open_babel_can_smiles> 
C[C@H]1CCCC[C@@H]1O 
 
>  <mulliken_charges> 
22 
1   -0.449319 
2   -0.25871 
3   -0.263755 
4   -0.263526 
5   -0.285187 
6   -0.080832 
7   0.156144 
8   -0.635965 
9   0.134124 
10   0.131404 
11   0.168076 
12   0.130491 
13   0.130568 
14   0.12904 
15   0.133579 
16   0.131914 
17   0.124821 
18   0.116448 
19   0.139939 
20   0.12584 
21   0.09884 
22   0.386068 
 
>  <lowdin_charges> 
22 
1   -0.445344 
2   -0.277342 
3   -0.275059 
4   -0.278814 
5   -0.296364 
6   -0.131074 
7   -0.004168 
8   -0.467882 
9   0.146665 
10   0.142282 
11   0.162053 
12   0.138302 
13   0.14388 
14   0.136948 
15   0.143457 
16   0.145917 
17   0.136253 
18   0.137377 
19   0.144894 
20   0.139652 
21   0.116225 
22   0.342141 
 
$$$$ 
 
