PCCDB-ID:  61148 
public computational chemistry database (PCCDB) project, http://pccdb.org 
 
  9  8  0  0  0  0  0  0  0  0999 V2000 
    1.0664   -0.0363   -0.0301 C   0  0  0  0  0  0  0  0  0  0  0  0 
    0.5762    0.9572    0.8637 N   0  0  0  0  0  0  0  0  0  0  0  0 
    2.6087   -0.0769   -0.0853 N   0  0  0  0  0  0  0  0  0  0  0  0 
    3.1766   -0.7658    0.7588 O   0  0  0  0  0  0  0  0  0  0  0  0 
    3.1573    0.6455   -0.9138 O   0  0  0  0  0  0  0  0  0  0  0  0 
    0.7537    0.1661   -1.0545 H   0  0  0  0  0  0  0  0  0  0  0  0 
    0.7714   -1.0347    0.2934 H   0  0  0  0  0  0  0  0  0  0  0  0 
    0.8591    1.8929    0.5845 H   0  0  0  0  0  0  0  0  0  0  0  0 
    0.8765    0.7879    1.8201 H   0  0  0  0  0  0  0  0  0  0  0  0 
  1  7  1  0  0  0  0 
  1  2  1  0  0  0  0 
  2  9  1  0  0  0  0 
  3  1  1  0  0  0  0 
  3  4  2  0  0  0  0 
  5  3  2  0  0  0  0 
  6  1  1  0  0  0  0 
  8  2  1  0  0  0  0 
M  END 
>  <HBA> 
1 
 
>  <HBD> 
1 
 
>  <TPSA> 
71.84 
 
>  <cid> 
61148 
 
>  <dipole> 
2.58 
 
>  <excitation_energy_1> 
3.903 
 
>  <excitation_energy_2> 
4.123 
 
>  <excitation_energy_3> 
5.592 
 
>  <excitation_energy_4> 
6.482 
 
>  <homo_energy> 
-7.334 
 
>  <homo_lumo_gap> 
5.486 
 
>  <logP> 
0.403 
 
>  <lumo_energy> 
-1.848 
 
>  <melting_point> 
61.76 
 
>  <molecular_refractivity> 
17.73 
 
>  <oscillator_strength_1> 
0.007 
 
>  <oscillator_strength_2> 
0.0 
 
>  <oscillator_strength_3> 
0.0267 
 
>  <oscillator_strength_4> 
0.0031 
 
>  <open_babel_can_smiles> 
NCN(=O)=O 
 
>  <mulliken_charges> 
9 
1   -0.039329 
2   -0.68299 
3   0.438376 
4   -0.37999 
5   -0.379329 
6   0.192837 
7   0.192837 
8   0.328591 
9   0.328997 
 
>  <lowdin_charges> 
9 
1   -0.150933 
2   -0.50619 
3   0.268665 
4   -0.253766 
5   -0.252531 
6   0.172148 
7   0.17264 
8   0.275037 
9   0.274931 
 
$$$$ 
 
