PCCDB-ID:  13914 
public computational chemistry database (PCCDB) project, http://pccdb.org 
 
 36 36  0  0  0  0  0  0  0  0999 V2000 
    3.1073    0.4089   -4.3343 C   0  0  0  0  0  0  0  0  0  0  0  0 
    7.8818   -4.3541    0.4188 C   0  0  0  0  0  0  0  0  0  0  0  0 
    8.1244    2.4002   -3.7076 C   0  0  0  0  0  0  0  0  0  0  0  0 
    2.5992   -0.3771   -3.1216 C   0  0  0  0  0  0  0  0  0  0  0  0 
    7.2184   -2.9825    0.2677 C   0  0  0  0  0  0  0  0  0  0  0  0 
    7.4531    3.1148   -2.5306 C   0  0  0  0  0  0  0  0  0  0  0  0 
    3.0728    0.1967   -1.7693 C   0  0  0  0  0  0  0  0  0  0  0  0 
    7.0413   -2.5734   -1.2101 C   0  0  0  0  0  0  0  0  0  0  0  0 
    7.4463    2.2903   -1.2255 C   0  0  0  0  0  0  0  0  0  0  0  0 
    4.5634    0.0848   -1.5728 C   0  0  0  0  0  0  0  0  0  0  0  0 
    6.4066   -1.2149   -1.3364 C   0  0  0  0  0  0  0  0  0  0  0  0 
    6.6039    1.0440   -1.3206 C   0  0  0  0  0  0  0  0  0  0  0  0 
    5.0795   -1.1544   -1.4971 N   0  0  0  0  0  0  0  0  0  0  0  0 
    5.2808    1.2118   -1.4940 N   0  0  0  0  0  0  0  0  0  0  0  0 
    7.2152   -0.1443   -1.2399 N   0  0  0  0  0  0  0  0  0  0  0  0 
    2.7233   -0.0192   -5.2671 H   0  0  0  0  0  0  0  0  0  0  0  0 
    4.2020    0.3995   -4.3911 H   0  0  0  0  0  0  0  0  0  0  0  0 
    2.7888    1.4574   -4.2900 H   0  0  0  0  0  0  0  0  0  0  0  0 
    7.9911   -4.6248    1.4750 H   0  0  0  0  0  0  0  0  0  0  0  0 
    8.8808   -4.3632   -0.0337 H   0  0  0  0  0  0  0  0  0  0  0  0 
    7.2890   -5.1383   -0.0676 H   0  0  0  0  0  0  0  0  0  0  0  0 
    8.1193    3.0321   -4.6029 H   0  0  0  0  0  0  0  0  0  0  0  0 
    7.6103    1.4653   -3.9588 H   0  0  0  0  0  0  0  0  0  0  0  0 
    9.1675    2.1509   -3.4786 H   0  0  0  0  0  0  0  0  0  0  0  0 
    2.9235   -1.4224   -3.1875 H   0  0  0  0  0  0  0  0  0  0  0  0 
    1.5019   -0.3855   -3.1227 H   0  0  0  0  0  0  0  0  0  0  0  0 
    7.8196   -2.2175    0.7752 H   0  0  0  0  0  0  0  0  0  0  0  0 
    6.2351   -2.9874    0.7556 H   0  0  0  0  0  0  0  0  0  0  0  0 
    6.4176    3.3695   -2.7855 H   0  0  0  0  0  0  0  0  0  0  0  0 
    7.9720    4.0611   -2.3317 H   0  0  0  0  0  0  0  0  0  0  0  0 
    2.5832   -0.3598   -0.9601 H   0  0  0  0  0  0  0  0  0  0  0  0 
    2.7911    1.2504   -1.6782 H   0  0  0  0  0  0  0  0  0  0  0  0 
    6.4095   -3.3059   -1.7232 H   0  0  0  0  0  0  0  0  0  0  0  0 
    8.0224   -2.5494   -1.6977 H   0  0  0  0  0  0  0  0  0  0  0  0 
    7.0368    2.9126   -0.4197 H   0  0  0  0  0  0  0  0  0  0  0  0 
    8.4643    1.9987   -0.9489 H   0  0  0  0  0  0  0  0  0  0  0  0 
  1 18  1  0  0  0  0 
  1  4  1  0  0  0  0 
  2 19  1  0  0  0  0 
  3 24  1  0  0  0  0 
  3  6  1  0  0  0  0 
  4  7  1  0  0  0  0 
  5  2  1  0  0  0  0 
  5 28  1  0  0  0  0 
  5 27  1  0  0  0  0 
  6 30  1  0  0  0  0 
  6  9  1  0  0  0  0 
  7 32  1  0  0  0  0 
  7 10  1  0  0  0  0 
  7 31  1  0  0  0  0 
  8  5  1  0  0  0  0 
  9 36  1  0  0  0  0 
  9 35  1  0  0  0  0 
 10 13  2  0  0  0  0 
 10 14  1  0  0  0  0 
 11 15  1  0  0  0  0 
 11  8  1  0  0  0  0 
 12 15  1  0  0  0  0 
 12  9  1  0  0  0  0 
 13 11  2  0  0  0  0 
 14 12  2  0  0  0  0 
 16  1  1  0  0  0  0 
 17  1  1  0  0  0  0 
 20  2  1  0  0  0  0 
 21  2  1  0  0  0  0 
 22  3  1  0  0  0  0 
 23  3  1  0  0  0  0 
 25  4  1  0  0  0  0 
 26  4  1  0  0  0  0 
 29  6  1  0  0  0  0 
 33  8  1  0  0  0  0 
 34  8  1  0  0  0  0 
M  RAD  1  15   2 
M  END 
>  <HBA> 
3 
 
>  <HBD> 
0 
 
>  <TPSA> 
38.67 
 
>  <cid> 
13914 
 
>  <dipole> 
0.1 
 
>  <excitation_energy_1> 
4.543 
 
>  <excitation_energy_2> 
4.639 
 
>  <excitation_energy_3> 
4.661 
 
>  <excitation_energy_4> 
4.68 
 
>  <homo_energy> 
-6.928 
 
>  <homo_lumo_gap> 
5.951 
 
>  <logP> 
2.729 
 
>  <lumo_energy> 
-0.977 
 
>  <melting_point> 
59.36 
 
>  <molecular_refractivity> 
63.57 
 
>  <oscillator_strength_1> 
0.0 
 
>  <oscillator_strength_2> 
0.0042 
 
>  <oscillator_strength_3> 
0.0004 
 
>  <oscillator_strength_4> 
0.0091 
 
>  <open_babel_can_smiles> 
CCCC1=NC(=[N]=C([N]1)CCC)CCC 
 
>  <mulliken_charges> 
36 
1   -0.443416 
2   -0.441847 
3   -0.443239 
4   -0.258856 
5   -0.25955 
6   -0.258778 
7   -0.313009 
8   -0.301851 
9   -0.312886 
10   0.427348 
11   0.41426 
12   0.427237 
13   -0.459433 
14   -0.463124 
15   -0.461541 
16   0.144664 
17   0.148805 
18   0.145988 
19   0.146766 
20   0.14589 
21   0.145568 
22   0.144537 
23   0.148782 
24   0.146272 
25   0.158425 
26   0.137391 
27   0.151759 
28   0.146435 
29   0.158641 
30   0.137375 
31   0.158042 
32   0.156935 
33   0.155308 
34   0.155923 
35   0.158256 
36   0.156924 
 
>  <lowdin_charges> 
36 
1   -0.443269 
2   -0.442491 
3   -0.445516 
4   -0.26414 
5   -0.266767 
6   -0.26653 
7   -0.282041 
8   -0.281188 
9   -0.281969 
10   0.115029 
11   0.116531 
12   0.115411 
13   -0.190449 
14   -0.190303 
15   -0.190559 
16   0.151329 
17   0.147184 
18   0.147605 
19   0.151128 
20   0.148007 
21   0.149557 
22   0.151359 
23   0.149282 
24   0.14792 
25   0.151366 
26   0.142956 
27   0.150561 
28   0.146317 
29   0.151765 
30   0.145091 
31   0.165514 
32   0.157292 
33   0.160512 
34   0.159942 
35   0.165595 
36   0.157968 
 
$$$$ 
 
