PCCDB-ID:  34373 
public computational chemistry database (PCCDB) project, http://pccdb.org 
 
 44 45  0  0  1  0  0  0  0  0999 V2000 
    6.6950    3.0280   -3.5384 C   0  0  0  0  0  0  0  0  0  0  0  0 
    3.5836    1.5027    4.8689 C   0  0  0  0  0  0  0  0  0  0  0  0 
    4.0632    3.3610    6.4324 C   0  0  0  0  0  0  0  0  0  0  0  0 
    5.3981    0.5015    7.3408 C   0  0  0  0  0  0  0  0  0  0  0  0 
    6.1659    2.0876   -2.4506 C   0  0  0  0  0  0  0  0  0  0  0  0 
    6.5333    2.5429   -1.0329 C   0  0  0  0  0  0  0  0  0  0  0  0 
    6.8144    3.5479    5.4399 C   0  0  0  0  0  0  0  0  0  0  0  0 
    6.9164    2.4678    6.5623 C   0  0  0  0  0  0  0  0  0  0  0  0 
    6.0019    1.6123    0.0591 C   0  0  0  0  0  0  0  0  0  0  0  0 
    5.9164    1.2149    2.4690 C   0  0  0  0  0  0  0  0  0  0  0  0 
    6.4267    1.7163    3.8265 C   0  0  1  0  0  0  0  0  0  0  0  0 
    5.7467    2.9452    4.4944 C   0  0  1  0  0  0  0  0  0  0  0  0 
    6.3490    0.6851    4.9701 C   0  0  0  0  0  0  0  0  0  0  0  0 
    4.7216    2.3227    5.5075 C   0  0  0  0  0  0  0  0  0  0  0  0 
    5.8070    1.4226    6.2044 C   0  0  1  0  0  0  0  0  0  0  0  0 
    6.4202    2.0613    1.3866 N   0  0  0  0  0  0  0  0  0  0  0  0 
    6.6540   -0.4865    4.8980 O   0  0  0  0  0  0  0  0  0  0  0  0 
    6.4205    2.6761   -4.5393 H   0  0  0  0  0  0  0  0  0  0  0  0 
    7.7885    3.1032   -3.4993 H   0  0  0  0  0  0  0  0  0  0  0  0 
    6.2899    4.0405   -3.4185 H   0  0  0  0  0  0  0  0  0  0  0  0 
    3.0048    2.1172    4.1687 H   0  0  0  0  0  0  0  0  0  0  0  0 
    2.8912    1.1523    5.6429 H   0  0  0  0  0  0  0  0  0  0  0  0 
    3.9308    0.6174    4.3296 H   0  0  0  0  0  0  0  0  0  0  0  0 
    3.4311    4.0391    5.8448 H   0  0  0  0  0  0  0  0  0  0  0  0 
    4.7739    3.9747    6.9905 H   0  0  0  0  0  0  0  0  0  0  0  0 
    3.4139    2.8647    7.1627 H   0  0  0  0  0  0  0  0  0  0  0  0 
    6.2519   -0.1012    7.6689 H   0  0  0  0  0  0  0  0  0  0  0  0 
    4.6146   -0.1973    7.0291 H   0  0  0  0  0  0  0  0  0  0  0  0 
    5.0305    1.0706    8.2025 H   0  0  0  0  0  0  0  0  0  0  0  0 
    6.5606    1.0757   -2.6190 H   0  0  0  0  0  0  0  0  0  0  0  0 
    5.0731    2.0067   -2.5371 H   0  0  0  0  0  0  0  0  0  0  0  0 
    6.1402    3.5581   -0.8666 H   0  0  0  0  0  0  0  0  0  0  0  0 
    7.6241    2.6138   -0.9307 H   0  0  0  0  0  0  0  0  0  0  0  0 
    7.7659    3.7071    4.9229 H   0  0  0  0  0  0  0  0  0  0  0  0 
    6.5058    4.5178    5.8410 H   0  0  0  0  0  0  0  0  0  0  0  0 
    6.7183    2.8891    7.5535 H   0  0  0  0  0  0  0  0  0  0  0  0 
    7.9058    2.0001    6.6125 H   0  0  0  0  0  0  0  0  0  0  0  0 
    6.4061    0.6017   -0.0918 H   0  0  0  0  0  0  0  0  0  0  0  0 
    4.9007    1.5204   -0.0355 H   0  0  0  0  0  0  0  0  0  0  0  0 
    4.8157    1.1302    2.4604 H   0  0  0  0  0  0  0  0  0  0  0  0 
    6.3116    0.2022    2.3208 H   0  0  0  0  0  0  0  0  0  0  0  0 
    7.4928    1.9240    3.6584 H   0  0  0  0  0  0  0  0  0  0  0  0 
    5.3147    3.6645    3.7892 H   0  0  0  0  0  0  0  0  0  0  0  0 
    6.0810    3.0135    1.5268 H   0  0  0  0  0  0  0  0  0  0  0  0 
  1 19  1  0  0  0  0 
  1 20  1  0  0  0  0 
  1  5  1  0  0  0  0 
  2 14  1  0  0  0  0 
  2 22  1  0  0  0  0 
  3 25  1  0  0  0  0 
  3 26  1  0  0  0  0 
  4 27  1  0  0  0  0 
  4 29  1  0  0  0  0 
  5  6  1  0  0  0  0 
  6 33  1  0  0  0  0 
  6 32  1  0  0  0  0 
  6  9  1  0  0  0  0 
  7 35  1  0  0  0  0 
  7  8  1  0  0  0  0 
  8 37  1  0  0  0  0 
  8 36  1  0  0  0  0 
  9 16  1  0  0  0  0 
 10 11  1  0  0  0  0 
 11 42  1  6  0  0  0 
 11 12  1  0  0  0  0 
 11 13  1  0  0  0  0 
 12 43  1  6  0  0  0 
 12  7  1  0  0  0  0 
 12 14  1  0  0  0  0 
 13 15  1  0  0  0  0 
 14 15  1  0  0  0  0 
 14  3  1  0  0  0  0 
 15  8  1  0  0  0  0 
 15  4  1  1  0  0  0 
 16 44  1  0  0  0  0 
 16 10  1  0  0  0  0 
 17 13  2  0  0  0  0 
 18  1  1  0  0  0  0 
 21  2  1  0  0  0  0 
 23  2  1  0  0  0  0 
 24  3  1  0  0  0  0 
 28  4  1  0  0  0  0 
 30  5  1  0  0  0  0 
 31  5  1  0  0  0  0 
 34  7  1  0  0  0  0 
 38  9  1  0  0  0  0 
 39  9  1  0  0  0  0 
 40 10  1  0  0  0  0 
 41 10  1  0  0  0  0 
M  END 
>  <HBA> 
2 
 
>  <HBD> 
1 
 
>  <TPSA> 
29.1 
 
>  <cid> 
34373 
 
>  <dipole> 
3.23 
 
>  <excitation_energy_1> 
4.232 
 
>  <excitation_energy_2> 
4.904 
 
>  <excitation_energy_3> 
5.339 
 
>  <excitation_energy_4> 
5.797 
 
>  <homo_energy> 
-5.957 
 
>  <homo_lumo_gap> 
5.717 
 
>  <logP> 
3.408 
 
>  <lumo_energy> 
-0.239 
 
>  <melting_point> 
98.56 
 
>  <molecular_refractivity> 
72.47 
 
>  <oscillator_strength_1> 
0.0005 
 
>  <oscillator_strength_2> 
0.0028 
 
>  <oscillator_strength_3> 
0.0009 
 
>  <oscillator_strength_4> 
0.034 
 
>  <open_babel_can_smiles> 
CCCCNC[C@@H]1C(=O)[C@@]2(C([C@H]1CC2)(C)C)C 
 
>  <mulliken_charges> 
44 
1   -0.440615 
2   -0.475169 
3   -0.467164 
4   -0.475554 
5   -0.250362 
6   -0.258445 
7   -0.285624 
8   -0.301642 
9   -0.107216 
10   -0.126762 
11   -0.174937 
12   -0.127086 
13   0.434148 
14   0.09103 
15   0.025122 
16   -0.570457 
17   -0.474129 
18   0.142498 
19   0.143749 
20   0.140529 
21   0.143082 
22   0.148152 
23   0.161923 
24   0.144035 
25   0.147725 
26   0.147144 
27   0.16099 
28   0.153472 
29   0.138659 
30   0.134029 
31   0.130857 
32   0.1202 
33   0.145703 
34   0.142691 
35   0.141599 
36   0.148883 
37   0.151705 
38   0.139871 
39   0.105794 
40   0.119978 
41   0.162851 
42   0.170342 
43   0.109714 
44   0.288689 
 
>  <lowdin_charges> 
44 
1   -0.44003 
2   -0.452962 
3   -0.449636 
4   -0.442751 
5   -0.268798 
6   -0.275892 
7   -0.285262 
8   -0.280822 
9   -0.197405 
10   -0.198208 
11   -0.166206 
12   -0.140165 
13   0.150729 
14   0.005499 
15   -0.028891 
16   -0.363702 
17   -0.232196 
18   0.149026 
19   0.14551 
20   0.145031 
21   0.152006 
22   0.15406 
23   0.157436 
24   0.152988 
25   0.153783 
26   0.153187 
27   0.163159 
28   0.157817 
29   0.149779 
30   0.139864 
31   0.13678 
32   0.133073 
33   0.145628 
34   0.147638 
35   0.14581 
36   0.151066 
37   0.151695 
38   0.140686 
39   0.110863 
40   0.12123 
41   0.155638 
42   0.169557 
43   0.138001 
44   0.245385 
 
$$$$ 
 
