PCCDB-ID:  35348 
public computational chemistry database (PCCDB) project, http://pccdb.org 
 
 33 35  0  0  1  0  0  0  0  0999 V2000 
    0.9136   -0.1491   -0.6188 C   0  0  0  0  0  0  0  0  0  0  0  0 
    6.8606   -3.4729   -6.6726 C   0  0  0  0  0  0  0  0  0  0  0  0 
    5.8181   -4.1087   -5.9958 C   0  0  0  0  0  0  0  0  0  0  0  0 
    7.2420   -2.1862   -6.2880 C   0  0  0  0  0  0  0  0  0  0  0  0 
    5.1540   -3.4653   -4.9530 C   0  0  0  0  0  0  0  0  0  0  0  0 
    6.5982   -1.5417   -5.2330 C   0  0  0  0  0  0  0  0  0  0  0  0 
    3.0327    1.2347   -0.2106 C   0  0  0  0  0  0  0  0  0  0  0  0 
    3.3990    1.3772   -1.7022 C   0  0  0  0  0  0  0  0  0  0  0  0 
    3.1630   -1.2921   -0.2069 C   0  0  0  0  0  0  0  0  0  0  0  0 
    4.6353   -0.1615   -3.4118 C   0  0  0  0  0  0  0  0  0  0  0  0 
    4.3596   -2.1354   -2.3685 C   0  0  0  0  0  0  0  0  0  0  0  0 
    2.2661   -0.0694    0.1061 C   0  0  2  0  0  0  0  0  0  0  0  0 
    3.9632    0.0876   -2.2373 C   0  0  0  0  0  0  0  0  0  0  0  0 
    3.7970   -1.1683   -1.5677 C   0  0  0  0  0  0  0  0  0  0  0  0 
    5.5444   -2.1772   -4.5619 C   0  0  0  0  0  0  0  0  0  0  0  0 
    4.8796   -1.5231   -3.4984 N   0  0  0  0  0  0  0  0  0  0  0  0 
    0.3061    0.7431   -0.4229 H   0  0  0  0  0  0  0  0  0  0  0  0 
    0.3429   -1.0224   -0.2809 H   0  0  0  0  0  0  0  0  0  0  0  0 
    1.0389   -0.2395   -1.7036 H   0  0  0  0  0  0  0  0  0  0  0  0 
    7.3697   -3.9742   -7.4907 H   0  0  0  0  0  0  0  0  0  0  0  0 
    5.5048   -5.1065   -6.2909 H   0  0  0  0  0  0  0  0  0  0  0  0 
    8.0576   -1.6832   -6.8006 H   0  0  0  0  0  0  0  0  0  0  0  0 
    4.3176   -3.9458   -4.4557 H   0  0  0  0  0  0  0  0  0  0  0  0 
    6.9233   -0.5578   -4.9107 H   0  0  0  0  0  0  0  0  0  0  0  0 
    2.4396    2.1022    0.1064 H   0  0  0  0  0  0  0  0  0  0  0  0 
    3.9541    1.2489    0.3881 H   0  0  0  0  0  0  0  0  0  0  0  0 
    4.1077    2.2055   -1.8312 H   0  0  0  0  0  0  0  0  0  0  0  0 
    2.5013    1.6605   -2.2710 H   0  0  0  0  0  0  0  0  0  0  0  0 
    2.5806   -2.2196   -0.1247 H   0  0  0  0  0  0  0  0  0  0  0  0 
    3.9456   -1.3550    0.5645 H   0  0  0  0  0  0  0  0  0  0  0  0 
    4.9075    0.4960   -4.2245 H   0  0  0  0  0  0  0  0  0  0  0  0 
    4.4972   -3.1948   -2.2076 H   0  0  0  0  0  0  0  0  0  0  0  0 
    2.0637   -0.0764    1.1861 H   0  0  0  0  0  0  0  0  0  0  0  0 
  1 17  1  0  0  0  0 
  1 18  1  0  0  0  0 
  1 12  1  0  0  0  0 
  2  4  2  0  0  0  0 
  2  3  1  0  0  0  0 
  3  5  2  0  0  0  0 
  4  6  1  0  0  0  0 
  5 15  1  0  0  0  0 
  5 23  1  0  0  0  0 
  6 24  1  0  0  0  0 
  6 15  2  0  0  0  0 
  7 12  1  0  0  0  0 
  7 25  1  0  0  0  0 
  7 26  1  0  0  0  0 
  8  7  1  0  0  0  0 
  9 29  1  0  0  0  0 
  9 12  1  0  0  0  0 
  9 30  1  0  0  0  0 
 10 13  2  0  0  0  0 
 11 32  1  0  0  0  0 
 11 14  2  0  0  0  0 
 12 33  1  1  0  0  0 
 13  8  1  0  0  0  0 
 13 14  1  0  0  0  0 
 14  9  1  0  0  0  0 
 15 16  1  0  0  0  0 
 16 10  1  0  0  0  0 
 16 11  1  0  0  0  0 
 19  1  1  0  0  0  0 
 20  2  1  0  0  0  0 
 21  3  1  0  0  0  0 
 22  4  1  0  0  0  0 
 27  8  1  0  0  0  0 
 28  8  1  0  0  0  0 
 31 10  1  0  0  0  0 
M  END 
>  <HBA> 
1 
 
>  <HBD> 
0 
 
>  <TPSA> 
4.93 
 
>  <cid> 
35348 
 
>  <dipole> 
0.86 
 
>  <excitation_energy_1> 
4.346 
 
>  <excitation_energy_2> 
4.409 
 
>  <excitation_energy_3> 
4.561 
 
>  <excitation_energy_4> 
4.629 
 
>  <homo_energy> 
-5.399 
 
>  <homo_lumo_gap> 
5.121 
 
>  <logP> 
3.602 
 
>  <lumo_energy> 
-0.278 
 
>  <melting_point> 
67.99 
 
>  <molecular_refractivity> 
68.01 
 
>  <oscillator_strength_1> 
0.007 
 
>  <oscillator_strength_2> 
0.0022 
 
>  <oscillator_strength_3> 
0.0107 
 
>  <oscillator_strength_4> 
0.4435 
 
>  <open_babel_can_smiles> 
C[C@@H]1CCc2c(C1)cn(c2)c1ccccc1 
 
>  <mulliken_charges> 
33 
1   -0.448821 
2   -0.125651 
3   -0.140701 
4   -0.140282 
5   -0.16362 
6   -0.16411 
7   -0.26777 
8   -0.344046 
9   -0.337652 
10   -0.040331 
11   -0.042061 
12   -0.081282 
13   0.072554 
14   0.069686 
15   0.322039 
16   -0.508845 
17   0.136796 
18   0.138266 
19   0.155373 
20   0.13069 
21   0.134105 
22   0.134017 
23   0.142491 
24   0.142497 
25   0.12644 
26   0.132903 
27   0.139181 
28   0.146666 
29   0.13435 
30   0.141601 
31   0.144134 
32   0.144086 
33   0.117296 
 
>  <lowdin_charges> 
33 
1   -0.448303 
2   -0.167008 
3   -0.147023 
4   -0.148691 
5   -0.177119 
6   -0.176237 
7   -0.276753 
8   -0.275408 
9   -0.273616 
10   -0.173189 
11   -0.171484 
12   -0.120816 
13   -0.058403 
14   -0.057641 
15   0.054719 
16   0.020018 
17   0.146528 
18   0.148188 
19   0.151626 
20   0.160079 
21   0.159498 
22   0.161106 
23   0.166326 
24   0.165001 
25   0.142257 
26   0.141725 
27   0.150324 
28   0.148099 
29   0.146982 
30   0.14839 
31   0.163804 
32   0.161167 
33   0.135853 
 
$$$$ 
 
