PCCDB-ID:  39587 
public computational chemistry database (PCCDB) project, http://pccdb.org 
 
 27 26  0  0  0  0  0  0  0  0999 V2000 
   -0.7133    1.2090   -0.2485 C   0  0  0  0  0  0  0  0  0  0  0  0 
    1.5761    3.3239    2.8218 C   0  0  0  0  0  0  0  0  0  0  0  0 
    5.2680   -0.1266   -0.9731 C   0  0  0  0  0  0  0  0  0  0  0  0 
    0.2791    0.9774    0.8922 C   0  0  0  0  0  0  0  0  0  0  0  0 
    1.3461    3.1992    1.3135 C   0  0  0  0  0  0  0  0  0  0  0  0 
    4.2790   -0.5315    0.1221 C   0  0  0  0  0  0  0  0  0  0  0  0 
    2.7579    1.4074    0.5713 C   0  0  0  0  0  0  0  0  0  0  0  0 
    2.0679   -0.3247   -0.9451 N   0  0  0  0  0  0  0  0  0  0  0  0 
    1.4824    1.8201    0.8121 N   0  0  0  0  0  0  0  0  0  0  0  0 
    2.9603    0.1130   -0.0202 N   0  0  0  0  0  0  0  0  0  0  0  0 
    3.7496    2.0785    0.8356 O   0  0  0  0  0  0  0  0  0  0  0  0 
    2.4080   -1.3360   -1.5406 O   0  0  0  0  0  0  0  0  0  0  0  0 
   -1.6003    0.5824   -0.1001 H   0  0  0  0  0  0  0  0  0  0  0  0 
   -0.2576    0.9496   -1.2064 H   0  0  0  0  0  0  0  0  0  0  0  0 
   -1.0458    2.2523   -0.2876 H   0  0  0  0  0  0  0  0  0  0  0  0 
    1.4182    4.3605    3.1408 H   0  0  0  0  0  0  0  0  0  0  0  0 
    2.6013    3.0381    3.0705 H   0  0  0  0  0  0  0  0  0  0  0  0 
    0.8855    2.6902    3.3901 H   0  0  0  0  0  0  0  0  0  0  0  0 
    6.2185   -0.6493   -0.8184 H   0  0  0  0  0  0  0  0  0  0  0  0 
    5.4506    0.9500   -0.9353 H   0  0  0  0  0  0  0  0  0  0  0  0 
    4.8879   -0.3963   -1.9621 H   0  0  0  0  0  0  0  0  0  0  0  0 
    0.5813   -0.0692    0.9236 H   0  0  0  0  0  0  0  0  0  0  0  0 
   -0.2006    1.1972    1.8551 H   0  0  0  0  0  0  0  0  0  0  0  0 
    2.0621    3.8225    0.7744 H   0  0  0  0  0  0  0  0  0  0  0  0 
    0.3402    3.5386    1.0461 H   0  0  0  0  0  0  0  0  0  0  0  0 
    4.6526   -0.2480    1.1064 H   0  0  0  0  0  0  0  0  0  0  0  0 
    4.0937   -1.6079    0.1020 H   0  0  0  0  0  0  0  0  0  0  0  0 
  1 13  1  0  0  0  0 
  1  4  1  0  0  0  0 
  2 17  1  0  0  0  0 
  2 16  1  0  0  0  0 
  2 18  1  0  0  0  0 
  3 20  1  0  0  0  0 
  3 19  1  0  0  0  0 
  3  6  1  0  0  0  0 
  4 22  1  0  0  0  0 
  4 23  1  0  0  0  0 
  5  2  1  0  0  0  0 
  6 26  1  0  0  0  0 
  7  9  1  0  0  0  0 
  7 11  2  0  0  0  0 
  8 10  1  0  0  0  0 
  9  4  1  0  0  0  0 
  9  5  1  0  0  0  0 
 10  6  1  0  0  0  0 
 10  7  1  0  0  0  0 
 12  8  1  0  0  0  0 
 14  1  1  0  0  0  0 
 15  1  1  0  0  0  0 
 21  3  1  0  0  0  0 
 24  5  1  0  0  0  0 
 25  5  1  0  0  0  0 
 27  6  1  0  0  0  0 
M  RAD  2   8   2  12   2 
M  END 
>  <HBA> 
5 
 
>  <HBD> 
0 
 
>  <TPSA> 
52.98 
 
>  <cid> 
39587 
 
>  <dipole> 
2.57 
 
>  <excitation_energy_1> 
3.064 
 
>  <excitation_energy_2> 
4.327 
 
>  <excitation_energy_3> 
4.907 
 
>  <excitation_energy_4> 
5.646 
 
>  <homo_energy> 
-6.463 
 
>  <homo_lumo_gap> 
4.882 
 
>  <logP> 
1.452 
 
>  <lumo_energy> 
-1.581 
 
>  <melting_point> 
28.82 
 
>  <molecular_refractivity> 
46.88 
 
>  <oscillator_strength_1> 
0.0008 
 
>  <oscillator_strength_2> 
0.0142 
 
>  <oscillator_strength_3> 
0.0315 
 
>  <oscillator_strength_4> 
0.1165 
 
>  <open_babel_can_smiles> 
CCN(C(=O)N([N][O])CC)CC 
 
>  <mulliken_charges> 
27 
1   -0.44586 
2   -0.451163 
3   -0.454664 
4   -0.144869 
5   -0.14332 
6   -0.138795 
7   0.77563 
8   0.159818 
9   -0.413885 
10   -0.32586 
11   -0.521397 
12   -0.350045 
13   0.14808 
14   0.183871 
15   0.146724 
16   0.149644 
17   0.181159 
18   0.144652 
19   0.150107 
20   0.180934 
21   0.169516 
22   0.17021 
23   0.150029 
24   0.180776 
25   0.147396 
26   0.17606 
27   0.175249 
 
>  <lowdin_charges> 
27 
1   -0.453027 
2   -0.453502 
3   -0.448934 
4   -0.192857 
5   -0.190259 
6   -0.203078 
7   0.1865 
8   0.065532 
9   -0.096272 
10   -0.049276 
11   -0.312796 
12   -0.234727 
13   0.156098 
14   0.166815 
15   0.147716 
16   0.155374 
17   0.166204 
18   0.148847 
19   0.157301 
20   0.165444 
21   0.160726 
22   0.160272 
23   0.146105 
24   0.170292 
25   0.148062 
26   0.16933 
27   0.164108 
 
$$$$ 
 
