PCCDB-ID:  8819 
public computational chemistry database (PCCDB) project, http://pccdb.org 
 
 18 18  0  0  0  0  0  0  0  0999 V2000 
    0.7451    1.2990   -0.1539 C   0  0  0  0  0  0  0  0  0  0  0  0 
    1.5064   -0.0166    0.0858 C   0  0  0  0  0  0  0  0  0  0  0  0 
   -1.4227    0.0476   -0.1345 C   0  0  0  0  0  0  0  0  0  0  0  0 
   -0.6601   -1.2684    0.0906 C   0  0  0  0  0  0  0  0  0  0  0  0 
   -0.9984    2.0127    1.3199 N   0  0  0  0  0  0  0  0  0  0  0  0 
    1.2458   -1.8985   -1.3686 N   0  0  0  0  0  0  0  0  0  0  0  0 
   -0.6185    1.1740    0.3341 N   0  0  0  0  0  0  0  0  0  0  0  0 
    0.7120   -1.1359   -0.3926 N   0  0  0  0  0  0  0  0  0  0  0  0 
   -2.1248    1.8316    1.7626 O   0  0  0  0  0  0  0  0  0  0  0  0 
    0.5243   -2.7895   -1.7967 O   0  0  0  0  0  0  0  0  0  0  0  0 
    0.7293    1.5252   -1.2284 H   0  0  0  0  0  0  0  0  0  0  0  0 
    1.2084    2.1326    0.3797 H   0  0  0  0  0  0  0  0  0  0  0  0 
    1.7034   -0.1392    1.1592 H   0  0  0  0  0  0  0  0  0  0  0  0 
    2.4556   -0.0340   -0.4556 H   0  0  0  0  0  0  0  0  0  0  0  0 
   -2.3597    0.0711    0.4251 H   0  0  0  0  0  0  0  0  0  0  0  0 
   -1.6373    0.1830   -1.2017 H   0  0  0  0  0  0  0  0  0  0  0  0 
   -1.1128   -2.0963   -0.4583 H   0  0  0  0  0  0  0  0  0  0  0  0 
   -0.6388   -1.5141    1.1596 H   0  0  0  0  0  0  0  0  0  0  0  0 
  1  2  1  0  0  0  0 
  1  7  1  0  0  0  0 
  1 12  1  0  0  0  0 
  2 13  1  0  0  0  0 
  3  4  1  0  0  0  0 
  3  7  1  0  0  0  0 
  3 15  1  0  0  0  0 
  4 18  1  0  0  0  0 
  5  9  2  0  0  0  0 
  6  8  1  0  0  0  0 
  7  5  1  0  0  0  0 
  8  2  1  0  0  0  0 
  8  4  1  0  0  0  0 
 10  6  2  0  0  0  0 
 11  1  1  0  0  0  0 
 14  2  1  0  0  0  0 
 16  3  1  0  0  0  0 
 17  4  1  0  0  0  0 
M  END 
>  <HBA> 
6 
 
>  <HBD> 
0 
 
>  <TPSA> 
65.34 
 
>  <cid> 
8819 
 
>  <dipole> 
1.51 
 
>  <excitation_energy_1> 
3.361 
 
>  <excitation_energy_2> 
3.398 
 
>  <excitation_energy_3> 
4.635 
 
>  <excitation_energy_4> 
4.645 
 
>  <homo_energy> 
-6.436 
 
>  <homo_lumo_gap> 
5.048 
 
>  <logP> 
-0.157 
 
>  <lumo_energy> 
-1.388 
 
>  <melting_point> 
40.72 
 
>  <molecular_refractivity> 
42.33 
 
>  <oscillator_strength_1> 
0.0 
 
>  <oscillator_strength_2> 
0.0019 
 
>  <oscillator_strength_3> 
0.0014 
 
>  <oscillator_strength_4> 
0.0001 
 
>  <open_babel_can_smiles> 
O=NN1CCN(CC1)N=O 
 
>  <mulliken_charges> 
18 
1   -0.141423 
2   -0.141424 
3   -0.164479 
4   -0.164376 
5   0.158228 
6   0.158176 
7   -0.231764 
8   -0.231653 
9   -0.365814 
10   -0.366076 
11   0.170912 
12   0.188377 
13   0.170887 
14   0.188349 
15   0.208214 
16   0.177838 
17   0.208234 
18   0.177793 
 
>  <lowdin_charges> 
18 
1   -0.205033 
2   -0.204259 
3   -0.220366 
4   -0.220684 
5   0.057401 
6   0.05908 
7   -0.054214 
8   -0.054519 
9   -0.257815 
10   -0.259314 
11   0.155352 
12   0.177273 
13   0.155262 
14   0.176187 
15   0.185699 
16   0.161701 
17   0.18671 
18   0.161541 
 
$$$$ 
 
