PCCDB-ID:  36108 
public computational chemistry database (PCCDB) project, http://pccdb.org 
 
 36 35  0  0  0  0  0  0  0  0999 V2000 
    1.6147   -2.7835    2.3714 C   0  0  0  0  0  0  0  0  0  0  0  0 
    6.9226    6.0618    0.5939 C   0  0  0  0  0  0  0  0  0  0  0  0 
    1.2847   -1.6874    1.3490 C   0  0  0  0  0  0  0  0  0  0  0  0 
    7.9149    5.2691    1.4527 C   0  0  0  0  0  0  0  0  0  0  0  0 
    2.4241   -1.3015    0.3821 C   0  0  0  0  0  0  0  0  0  0  0  0 
    7.2643    4.4359    2.5699 C   0  0  0  0  0  0  0  0  0  0  0  0 
    3.4490   -0.2694    0.8875 C   0  0  0  0  0  0  0  0  0  0  0  0 
    6.3738    3.2885    2.0724 C   0  0  0  0  0  0  0  0  0  0  0  0 
    4.3984   -0.7367    1.9998 C   0  0  0  0  0  0  0  0  0  0  0  0 
    5.7869    2.4700    3.2274 C   0  0  0  0  0  0  0  0  0  0  0  0 
    5.4932    0.2787    2.3122 C   0  0  0  0  0  0  0  0  0  0  0  0 
    4.8822    1.4580    2.8126 O   0  0  0  0  0  0  0  0  0  0  0  0 
    0.7271   -3.0483    2.9582 H   0  0  0  0  0  0  0  0  0  0  0  0 
    2.3944   -2.4784    3.0761 H   0  0  0  0  0  0  0  0  0  0  0  0 
    1.9625   -3.6949    1.8690 H   0  0  0  0  0  0  0  0  0  0  0  0 
    7.4466    6.6690   -0.1531 H   0  0  0  0  0  0  0  0  0  0  0  0 
    6.3211    6.7408    1.2114 H   0  0  0  0  0  0  0  0  0  0  0  0 
    6.2313    5.4037    0.0560 H   0  0  0  0  0  0  0  0  0  0  0  0 
    0.9351   -0.7859    1.8724 H   0  0  0  0  0  0  0  0  0  0  0  0 
    0.4315   -2.0333    0.7497 H   0  0  0  0  0  0  0  0  0  0  0  0 
    8.6295    5.9675    1.9086 H   0  0  0  0  0  0  0  0  0  0  0  0 
    8.5084    4.6056    0.8074 H   0  0  0  0  0  0  0  0  0  0  0  0 
    1.9679   -0.8810   -0.5244 H   0  0  0  0  0  0  0  0  0  0  0  0 
    2.9480   -2.2132    0.0559 H   0  0  0  0  0  0  0  0  0  0  0  0 
    6.6730    5.1012    3.2172 H   0  0  0  0  0  0  0  0  0  0  0  0 
    8.0584    4.0202    3.2070 H   0  0  0  0  0  0  0  0  0  0  0  0 
    2.9229    0.6314    1.2271 H   0  0  0  0  0  0  0  0  0  0  0  0 
    4.0622    0.0448    0.0296 H   0  0  0  0  0  0  0  0  0  0  0  0 
    6.9600    2.6367    1.4102 H   0  0  0  0  0  0  0  0  0  0  0  0 
    5.5394    3.6754    1.4748 H   0  0  0  0  0  0  0  0  0  0  0  0 
    4.8801   -1.6812    1.7088 H   0  0  0  0  0  0  0  0  0  0  0  0 
    3.8461   -0.9315    2.9259 H   0  0  0  0  0  0  0  0  0  0  0  0 
    5.2077    3.1286    3.8859 H   0  0  0  0  0  0  0  0  0  0  0  0 
    6.5975    2.0296    3.8337 H   0  0  0  0  0  0  0  0  0  0  0  0 
    6.0792    0.4903    1.4022 H   0  0  0  0  0  0  0  0  0  0  0  0 
    6.1923   -0.1281    3.0636 H   0  0  0  0  0  0  0  0  0  0  0  0 
  1 13  1  0  0  0  0 
  1 14  1  0  0  0  0 
  2 17  1  0  0  0  0 
  2  4  1  0  0  0  0 
  3 19  1  0  0  0  0 
  3  1  1  0  0  0  0 
  4 21  1  0  0  0  0 
  4  6  1  0  0  0  0 
  5  7  1  0  0  0  0 
  5  3  1  0  0  0  0 
  6 26  1  0  0  0  0 
  6 25  1  0  0  0  0 
  7 27  1  0  0  0  0 
  7  9  1  0  0  0  0 
  8  6  1  0  0  0  0 
  8 10  1  0  0  0  0 
  9 11  1  0  0  0  0 
  9 32  1  0  0  0  0 
 10 34  1  0  0  0  0 
 10 33  1  0  0  0  0 
 11 12  1  0  0  0  0 
 11 36  1  0  0  0  0 
 12 10  1  0  0  0  0 
 15  1  1  0  0  0  0 
 16  2  1  0  0  0  0 
 18  2  1  0  0  0  0 
 20  3  1  0  0  0  0 
 22  4  1  0  0  0  0 
 23  5  1  0  0  0  0 
 24  5  1  0  0  0  0 
 28  7  1  0  0  0  0 
 29  8  1  0  0  0  0 
 30  8  1  0  0  0  0 
 31  9  1  0  0  0  0 
 35 11  1  0  0  0  0 
M  END 
>  <HBA> 
1 
 
>  <HBD> 
0 
 
>  <TPSA> 
9.23 
 
>  <cid> 
36108 
 
>  <dipole> 
1.14 
 
>  <excitation_energy_1> 
6.329 
 
>  <excitation_energy_2> 
6.595 
 
>  <excitation_energy_3> 
6.655 
 
>  <excitation_energy_4> 
6.734 
 
>  <homo_energy> 
-6.64 
 
>  <homo_lumo_gap> 
9.059 
 
>  <logP> 
3.773 
 
>  <lumo_energy> 
2.419 
 
>  <melting_point> 
-38.83 
 
>  <molecular_refractivity> 
56.08 
 
>  <oscillator_strength_1> 
0.0151 
 
>  <oscillator_strength_2> 
0.0121 
 
>  <oscillator_strength_3> 
0.0034 
 
>  <oscillator_strength_4> 
0.0073 
 
>  <open_babel_can_smiles> 
CCCCCOCCCCCC 
 
>  <mulliken_charges> 
36 
1   -0.445227 
2   -0.443467 
3   -0.246974 
4   -0.24747 
5   -0.254779 
6   -0.256847 
7   -0.250354 
8   -0.277429 
9   -0.273511 
10   -0.011007 
11   -0.016892 
12   -0.477174 
13   0.139645 
14   0.148941 
15   0.138831 
16   0.14262 
17   0.14145 
18   0.148048 
19   0.132883 
20   0.129568 
21   0.131525 
22   0.130219 
23   0.127656 
24   0.122543 
25   0.128757 
26   0.128635 
27   0.150461 
28   0.120773 
29   0.132966 
30   0.146975 
31   0.126137 
32   0.15034 
33   0.13819 
34   0.112805 
35   0.116768 
36   0.114391 
 
>  <lowdin_charges> 
36 
1   -0.449949 
2   -0.451135 
3   -0.275975 
4   -0.274632 
5   -0.278361 
6   -0.278271 
7   -0.27729 
8   -0.296216 
9   -0.28462 
10   -0.135777 
11   -0.130403 
12   -0.274928 
13   0.148567 
14   0.14857 
15   0.144895 
16   0.151355 
17   0.147702 
18   0.149588 
19   0.14114 
20   0.141881 
21   0.143392 
22   0.140354 
23   0.143181 
24   0.135931 
25   0.139635 
26   0.141215 
27   0.149642 
28   0.138442 
29   0.141798 
30   0.148837 
31   0.142842 
32   0.149159 
33   0.145565 
34   0.12485 
35   0.122984 
36   0.126031 
 
$$$$ 
 
