PCCDB-ID:  28783 
public computational chemistry database (PCCDB) project, http://pccdb.org 
 
 33 33  0  0  0  0  0  0  0  0999 V2000 
    7.2957    0.1338    3.7849 C   0  0  0  0  0  0  0  0  0  0  0  0 
   -1.3726    1.4370    2.1124 C   0  0  0  0  0  0  0  0  0  0  0  0 
    6.9964   -0.8986    2.6943 C   0  0  0  0  0  0  0  0  0  0  0  0 
    2.3143   -3.6339    3.3801 C   0  0  0  0  0  0  0  0  0  0  0  0 
    5.7686   -0.5105    1.8419 C   0  0  0  0  0  0  0  0  0  0  0  0 
    3.3684   -3.5451    2.4750 C   0  0  0  0  0  0  0  0  0  0  0  0 
    1.3622   -2.6160    3.4757 C   0  0  0  0  0  0  0  0  0  0  0  0 
    2.5244   -1.4066    1.7140 C   0  0  0  0  0  0  0  0  0  0  0  0 
    3.4949   -2.4180    1.6437 C   0  0  0  0  0  0  0  0  0  0  0  0 
    1.4878   -1.5139    2.6371 C   0  0  0  0  0  0  0  0  0  0  0  0 
    5.4744   -1.5305    0.7571 C   0  0  0  0  0  0  0  0  0  0  0  0 
    0.7422    0.7612    2.8947 C   0  0  0  0  0  0  0  0  0  0  0  0 
   -0.0622    1.7108    2.6787 N   0  0  0  0  0  0  0  0  0  0  0  0 
    4.5267   -2.3733    0.6957 N   0  0  0  0  0  0  0  0  0  0  0  0 
    6.3889   -1.5851   -0.2533 O   0  0  0  0  0  0  0  0  0  0  0  0 
    1.9758    0.9824    3.4121 O   0  0  0  0  0  0  0  0  0  0  0  0 
    0.4730   -0.5532    2.6873 O   0  0  0  0  0  0  0  0  0  0  0  0 
    8.1547   -0.1730    4.3914 H   0  0  0  0  0  0  0  0  0  0  0  0 
    6.4383    0.2570    4.4567 H   0  0  0  0  0  0  0  0  0  0  0  0 
    7.5251    1.1156    3.3528 H   0  0  0  0  0  0  0  0  0  0  0  0 
   -1.6298    2.2394    1.4126 H   0  0  0  0  0  0  0  0  0  0  0  0 
   -2.1330    1.4416    2.9047 H   0  0  0  0  0  0  0  0  0  0  0  0 
   -1.4357    0.4760    1.5866 H   0  0  0  0  0  0  0  0  0  0  0  0 
    6.8127   -1.8797    3.1491 H   0  0  0  0  0  0  0  0  0  0  0  0 
    7.8791   -1.0212    2.0515 H   0  0  0  0  0  0  0  0  0  0  0  0 
    2.2294   -4.5073    4.0209 H   0  0  0  0  0  0  0  0  0  0  0  0 
    5.9407    0.4703    1.3738 H   0  0  0  0  0  0  0  0  0  0  0  0 
    4.8920   -0.4030    2.4855 H   0  0  0  0  0  0  0  0  0  0  0  0 
    4.1030   -4.3400    2.3929 H   0  0  0  0  0  0  0  0  0  0  0  0 
    0.5324   -2.6692    4.1722 H   0  0  0  0  0  0  0  0  0  0  0  0 
    2.5811   -0.5511    1.0496 H   0  0  0  0  0  0  0  0  0  0  0  0 
    7.0605   -0.9004   -0.1123 H   0  0  0  0  0  0  0  0  0  0  0  0 
    2.0161    1.9481    3.5295 H   0  0  0  0  0  0  0  0  0  0  0  0 
  1 18  1  0  0  0  0 
  1 19  1  0  0  0  0 
  2 13  1  0  0  0  0 
  2 22  1  0  0  0  0 
  3 24  1  0  0  0  0 
  3  1  1  0  0  0  0 
  4  7  1  0  0  0  0 
  4 26  1  0  0  0  0 
  5 28  1  0  0  0  0 
  5  3  1  0  0  0  0 
  6  4  2  0  0  0  0 
  7 30  1  0  0  0  0 
  8 10  1  0  0  0  0 
  9  8  2  0  0  0  0 
  9  6  1  0  0  0  0 
 10 17  1  0  0  0  0 
 10  7  2  0  0  0  0 
 11  5  1  0  0  0  0 
 12 16  1  0  0  0  0 
 13 12  2  0  0  0  0 
 14 11  2  0  0  0  0 
 14  9  1  0  0  0  0 
 15 32  1  0  0  0  0 
 15 11  1  0  0  0  0 
 16 33  1  0  0  0  0 
 17 12  1  0  0  0  0 
 20  1  1  0  0  0  0 
 21  2  1  0  0  0  0 
 23  2  1  0  0  0  0 
 25  3  1  0  0  0  0 
 27  5  1  0  0  0  0 
 29  6  1  0  0  0  0 
 31  8  1  0  0  0  0 
M  END 
>  <HBA> 
5 
 
>  <HBD> 
2 
 
>  <TPSA> 
67.43 
 
>  <cid> 
28783 
 
>  <dipole> 
4.07 
 
>  <excitation_energy_1> 
4.729 
 
>  <excitation_energy_2> 
4.903 
 
>  <excitation_energy_3> 
5.167 
 
>  <excitation_energy_4> 
5.513 
 
>  <homo_energy> 
-5.87 
 
>  <homo_lumo_gap> 
5.744 
 
>  <logP> 
2.607 
 
>  <lumo_energy> 
-0.125 
 
>  <melting_point> 
121.62 
 
>  <molecular_refractivity> 
65.06 
 
>  <oscillator_strength_1> 
0.0365 
 
>  <oscillator_strength_2> 
0.0428 
 
>  <oscillator_strength_3> 
0.0474 
 
>  <oscillator_strength_4> 
0.0058 
 
>  <open_babel_can_smiles> 
CCC/C(=N\c1cccc(c1)O/C(=N\C)/O)/O 
 
>  <mulliken_charges> 
33 
1   -0.443755 
2   -0.323223 
3   -0.257514 
4   -0.148715 
5   -0.365472 
6   -0.147922 
7   -0.165652 
8   -0.178708 
9   0.231029 
10   0.353647 
11   0.485388 
12   0.703418 
13   -0.480698 
14   -0.475608 
15   -0.575155 
16   -0.595855 
17   -0.535243 
18   0.153771 
19   0.15699 
20   0.143887 
21   0.153036 
22   0.154156 
23   0.154401 
24   0.161396 
25   0.130244 
26   0.13475 
27   0.146619 
28   0.189849 
29   0.133402 
30   0.138315 
31   0.137951 
32   0.410288 
33   0.420982 
 
>  <lowdin_charges> 
33 
1   -0.444556 
2   -0.354442 
3   -0.269609 
4   -0.143712 
5   -0.314588 
6   -0.1848 
7   -0.189921 
8   -0.203747 
9   0.057221 
10   0.108098 
11   0.146891 
12   0.192275 
13   -0.263774 
14   -0.171674 
15   -0.357208 
16   -0.365989 
17   -0.158468 
18   0.156837 
19   0.155026 
20   0.147523 
21   0.152297 
22   0.151814 
23   0.144835 
24   0.154307 
25   0.137584 
26   0.16115 
27   0.1522 
28   0.177451 
29   0.16468 
30   0.168258 
31   0.168081 
32   0.357494 
33   0.368463 
 
$$$$ 
 
