PCCDB-ID:  68131 
public computational chemistry database (PCCDB) project, http://pccdb.org 
 
 20 20  0  0  0  0  0  0  0  0999 V2000 
    0.8512    0.1273    0.0180 C   0  0  0  0  0  0  0  0  0  0  0  0 
    4.4528   -1.2970   -0.1302 C   0  0  0  0  0  0  0  0  0  0  0  0 
    4.5316    1.1290   -0.0736 C   0  0  0  0  0  0  0  0  0  0  0  0 
    2.3525   -0.0030   -0.0120 C   0  0  0  0  0  0  0  0  0  0  0  0 
    5.1634   -0.1095   -0.1282 C   0  0  0  0  0  0  0  0  0  0  0  0 
    3.0631   -1.2134   -0.0563 C   0  0  0  0  0  0  0  0  0  0  0  0 
    3.1403    1.1739   -0.0211 C   0  0  0  0  0  0  0  0  0  0  0  0 
    6.6340   -0.1524   -0.1859 N   0  0  0  0  0  0  0  0  0  0  0  0 
    2.3536   -2.5097   -0.0160 N   0  0  0  0  0  0  0  0  0  0  0  0 
    2.4687    2.3582    0.0275 O   0  0  0  0  0  0  0  0  0  0  0  0 
    7.1698   -1.2568   -0.2281 O   0  0  0  0  0  0  0  0  0  0  0  0 
    7.2309    0.9240   -0.1885 O   0  0  0  0  0  0  0  0  0  0  0  0 
    2.9068   -3.4694   -0.5481 O   0  0  0  0  0  0  0  0  0  0  0  0 
    1.2704   -2.5561    0.5647 O   0  0  0  0  0  0  0  0  0  0  0  0 
    0.3648   -0.6517   -0.5705 H   0  0  0  0  0  0  0  0  0  0  0  0 
    0.5581    1.1082   -0.3587 H   0  0  0  0  0  0  0  0  0  0  0  0 
    0.4762    0.0277    1.0428 H   0  0  0  0  0  0  0  0  0  0  0  0 
    4.9531   -2.2534   -0.1836 H   0  0  0  0  0  0  0  0  0  0  0  0 
    5.1322    2.0322   -0.0753 H   0  0  0  0  0  0  0  0  0  0  0  0 
    3.1023    3.0919   -0.0102 H   0  0  0  0  0  0  0  0  0  0  0  0 
  1 17  1  0  0  0  0 
  2  5  2  0  0  0  0 
  2  6  1  0  0  0  0 
  3  7  2  0  0  0  0 
  4  1  1  0  0  0  0 
  5  3  1  0  0  0  0 
  6  9  1  0  0  0  0 
  6  4  2  0  0  0  0 
  7  4  1  0  0  0  0 
  7 10  1  0  0  0  0 
  8  5  1  0  0  0  0 
  9 14  2  0  0  0  0 
 11  8  2  0  0  0  0 
 12  8  2  0  0  0  0 
 13  9  2  0  0  0  0 
 15  1  1  0  0  0  0 
 16  1  1  0  0  0  0 
 18  2  1  0  0  0  0 
 19  3  1  0  0  0  0 
 20 10  1  0  0  0  0 
M  END 
>  <HBA> 
1 
 
>  <HBD> 
1 
 
>  <TPSA> 
111.87 
 
>  <cid> 
68131 
 
>  <dipole> 
5.07 
 
>  <excitation_energy_1> 
3.648 
 
>  <excitation_energy_2> 
3.722 
 
>  <excitation_energy_3> 
3.746 
 
>  <excitation_energy_4> 
3.912 
 
>  <homo_energy> 
-7.306 
 
>  <homo_lumo_gap> 
4.346 
 
>  <logP> 
2.563 
 
>  <lumo_energy> 
-2.961 
 
>  <melting_point> 
127.72 
 
>  <molecular_refractivity> 
51.08 
 
>  <oscillator_strength_1> 
0.0658 
 
>  <oscillator_strength_2> 
0.0052 
 
>  <oscillator_strength_3> 
0.0 
 
>  <oscillator_strength_4> 
0.011 
 
>  <open_babel_can_smiles> 
O=N(=O)c1cc(O)c(c(c1)N(=O)=O)C 
 
>  <mulliken_charges> 
20 
1   -0.505699 
2   -0.175219 
3   -0.21149 
4   0.139513 
5   0.270387 
6   0.193633 
7   0.310862 
8   0.382125 
9   0.361642 
10   -0.635414 
11   -0.38058 
12   -0.391951 
13   -0.369683 
14   -0.379026 
15   0.182147 
16   0.1841 
17   0.194834 
18   0.221449 
19   0.184559 
20   0.423812 
 
>  <lowdin_charges> 
20 
1   -0.441123 
2   -0.141999 
3   -0.181818 
4   0.014092 
5   0.012704 
6   0.010812 
7   0.104427 
8   0.310781 
9   0.306636 
10   -0.361034 
11   -0.230587 
12   -0.243651 
13   -0.232494 
14   -0.229843 
15   0.176827 
16   0.173826 
17   0.182382 
18   0.210725 
19   0.189969 
20   0.369369 
 
$$$$ 
 
