PCCDB-ID:  14502 
public computational chemistry database (PCCDB) project, http://pccdb.org 
 
 19 19  0  0  0  0  0  0  0  0999 V2000 
    1.0408   -0.1116   -0.0079 C   0  0  0  0  0  0  0  0  0  0  0  0 
    5.0318    0.0089    1.2798 C   0  0  0  0  0  0  0  0  0  0  0  0 
    4.1978   -1.2810    1.2871 C   0  0  0  0  0  0  0  0  0  0  0  0 
    4.1355    1.2560    1.2426 C   0  0  0  0  0  0  0  0  0  0  0  0 
    3.2263   -1.3284    0.0884 C   0  0  0  0  0  0  0  0  0  0  0  0 
    3.1640    1.2132    0.0439 C   0  0  0  0  0  0  0  0  0  0  0  0 
    2.3761   -0.0784    0.0229 C   0  0  0  0  0  0  0  0  0  0  0  0 
    0.4911   -1.0503   -0.0087 H   0  0  0  0  0  0  0  0  0  0  0  0 
    0.4462    0.7987   -0.0408 H   0  0  0  0  0  0  0  0  0  0  0  0 
    5.6892    0.0096    0.3973 H   0  0  0  0  0  0  0  0  0  0  0  0 
    5.6891    0.0402    2.1581 H   0  0  0  0  0  0  0  0  0  0  0  0 
    3.6170   -1.3333    2.2186 H   0  0  0  0  0  0  0  0  0  0  0  0 
    4.8534   -2.1609    1.2717 H   0  0  0  0  0  0  0  0  0  0  0  0 
    4.7471    2.1659    1.1955 H   0  0  0  0  0  0  0  0  0  0  0  0 
    3.5524    1.3124    2.1724 H   0  0  0  0  0  0  0  0  0  0  0  0 
    2.5940   -2.2224    0.1383 H   0  0  0  0  0  0  0  0  0  0  0  0 
    3.8213   -1.4088   -0.8357 H   0  0  0  0  0  0  0  0  0  0  0  0 
    3.7554    1.2899   -0.8828 H   0  0  0  0  0  0  0  0  0  0  0  0 
    2.4886    2.0764    0.0626 H   0  0  0  0  0  0  0  0  0  0  0  0 
  1  7  2  0  0  0  0 
  2  3  1  0  0  0  0 
  2 11  1  0  0  0  0 
  3 12  1  0  0  0  0 
  4  2  1  0  0  0  0 
  4 15  1  0  0  0  0 
  5 16  1  0  0  0  0 
  5  3  1  0  0  0  0 
  6 19  1  0  0  0  0 
  6  4  1  0  0  0  0 
  7  6  1  0  0  0  0 
  7  5  1  0  0  0  0 
  8  1  1  0  0  0  0 
  9  1  1  0  0  0  0 
 10  2  1  0  0  0  0 
 13  3  1  0  0  0  0 
 14  4  1  0  0  0  0 
 17  5  1  0  0  0  0 
 18  6  1  0  0  0  0 
M  END 
>  <HBA> 
0 
 
>  <HBD> 
0 
 
>  <TPSA> 
0.0 
 
>  <cid> 
14502 
 
>  <dipole> 
0.59 
 
>  <excitation_energy_1> 
6.031 
 
>  <excitation_energy_2> 
6.412 
 
>  <excitation_energy_3> 
6.577 
 
>  <excitation_energy_4> 
6.593 
 
>  <homo_energy> 
-6.446 
 
>  <homo_lumo_gap> 
7.203 
 
>  <logP> 
2.507 
 
>  <lumo_energy> 
0.756 
 
>  <melting_point> 
-21.83 
 
>  <molecular_refractivity> 
33.17 
 
>  <oscillator_strength_1> 
0.085 
 
>  <oscillator_strength_2> 
0.1416 
 
>  <oscillator_strength_3> 
0.0033 
 
>  <oscillator_strength_4> 
0.0092 
 
>  <open_babel_can_smiles> 
C=C1CCCCC1 
 
>  <mulliken_charges> 
19 
1   -0.417201 
2   -0.259096 
3   -0.257002 
4   -0.257108 
5   -0.324681 
6   -0.324548 
7   0.239692 
8   0.129121 
9   0.129123 
10   0.127726 
11   0.132925 
12   0.135621 
13   0.131239 
14   0.131264 
15   0.135638 
16   0.136594 
17   0.137082 
18   0.137072 
19   0.136541 
 
>  <lowdin_charges> 
19 
1   -0.368167 
2   -0.279726 
3   -0.276584 
4   -0.276437 
5   -0.275154 
6   -0.275258 
7   0.004171 
8   0.152659 
9   0.15287 
10   0.13736 
11   0.145281 
12   0.141516 
13   0.144098 
14   0.143939 
15   0.141544 
16   0.148766 
17   0.145127 
18   0.145102 
19   0.148894 
 
$$$$ 
 
