PCCDB-ID:  60983 
public computational chemistry database (PCCDB) project, http://pccdb.org 
 
 21 20  0  0  0  0  0  0  0  0999 V2000 
    1.0449   -0.4253   -0.1451 C   0  0  0  0  0  0  0  0  0  0  0  0 
    6.5556    3.6981   -3.6028 C   0  0  0  0  0  0  0  0  0  0  0  0 
    2.4961    0.0633   -0.0959 C   0  0  0  0  0  0  0  0  0  0  0  0 
    2.8689    0.9481   -1.2919 C   0  0  0  0  0  0  0  0  0  0  0  0 
    4.3195    1.4286   -1.2434 C   0  0  0  0  0  0  0  0  0  0  0  0 
    6.1706    2.8266   -2.4321 C   0  0  0  0  0  0  0  0  0  0  0  0 
    4.7116    2.3006   -2.4153 C   0  0  0  0  0  0  0  0  0  0  0  0 
    6.9280    2.5250   -1.5297 O   0  0  0  0  0  0  0  0  0  0  0  0 
    3.9614    2.6058   -3.3237 O   0  0  0  0  0  0  0  0  0  0  0  0 
    0.8069   -1.0562    0.7187 H   0  0  0  0  0  0  0  0  0  0  0  0 
    0.8558   -1.0141   -1.0509 H   0  0  0  0  0  0  0  0  0  0  0  0 
    0.3429    0.4173   -0.1467 H   0  0  0  0  0  0  0  0  0  0  0  0 
    5.9017    4.5759   -3.6528 H   0  0  0  0  0  0  0  0  0  0  0  0 
    6.4096    3.1544   -4.5430 H   0  0  0  0  0  0  0  0  0  0  0  0 
    7.5974    4.0072   -3.5024 H   0  0  0  0  0  0  0  0  0  0  0  0 
    3.1728   -0.8023   -0.0566 H   0  0  0  0  0  0  0  0  0  0  0  0 
    2.6632    0.6209    0.8367 H   0  0  0  0  0  0  0  0  0  0  0  0 
    2.2007    1.8180   -1.3330 H   0  0  0  0  0  0  0  0  0  0  0  0 
    2.7000    0.3993   -2.2273 H   0  0  0  0  0  0  0  0  0  0  0  0 
    5.0242    0.5851   -1.2039 H   0  0  0  0  0  0  0  0  0  0  0  0 
    4.5285    1.9928   -0.3227 H   0  0  0  0  0  0  0  0  0  0  0  0 
  1  3  1  0  0  0  0 
  1 10  1  0  0  0  0 
  2 15  1  0  0  0  0 
  2  6  1  0  0  0  0 
  3 16  1  0  0  0  0 
  3 17  1  0  0  0  0 
  4  5  1  0  0  0  0 
  4  3  1  0  0  0  0 
  5 20  1  0  0  0  0 
  5 21  1  0  0  0  0 
  6  7  1  0  0  0  0 
  6  8  2  0  0  0  0 
  7  5  1  0  0  0  0 
  9  7  2  0  0  0  0 
 11  1  1  0  0  0  0 
 12  1  1  0  0  0  0 
 13  2  1  0  0  0  0 
 14  2  1  0  0  0  0 
 18  4  1  0  0  0  0 
 19  4  1  0  0  0  0 
M  END 
>  <HBA> 
2 
 
>  <HBD> 
0 
 
>  <TPSA> 
34.14 
 
>  <cid> 
60983 
 
>  <dipole> 
0.24 
 
>  <excitation_energy_1> 
2.669 
 
>  <excitation_energy_2> 
4.465 
 
>  <excitation_energy_3> 
5.738 
 
>  <excitation_energy_4> 
5.854 
 
>  <homo_energy> 
-6.55 
 
>  <homo_lumo_gap> 
4.272 
 
>  <logP> 
1.335 
 
>  <lumo_energy> 
-2.278 
 
>  <melting_point> 
15.55 
 
>  <molecular_refractivity> 
36.16 
 
>  <oscillator_strength_1> 
0.0 
 
>  <oscillator_strength_2> 
0.0 
 
>  <oscillator_strength_3> 
0.0044 
 
>  <oscillator_strength_4> 
0.0 
 
>  <open_babel_can_smiles> 
CCCCC(=O)C(=O)C 
 
>  <mulliken_charges> 
21 
1   -0.442249 
2   -0.52266 
3   -0.250808 
4   -0.243603 
5   -0.356332 
6   0.392401 
7   0.3812 
8   -0.417992 
9   -0.431926 
10   0.143938 
11   0.144276 
12   0.144276 
13   0.186861 
14   0.186978 
15   0.177534 
16   0.132123 
17   0.132209 
18   0.145549 
19   0.14568 
20   0.176273 
21   0.176273 
 
>  <lowdin_charges> 
21 
1   -0.445391 
2   -0.468933 
3   -0.272882 
4   -0.271684 
5   -0.306896 
6   0.136867 
7   0.132787 
8   -0.206321 
9   -0.208276 
10   0.151229 
11   0.148241 
12   0.148469 
13   0.182989 
14   0.182759 
15   0.171901 
16   0.140064 
17   0.139741 
18   0.149217 
19   0.14889 
20   0.173769 
21   0.173458 
 
$$$$ 
 
