PCCDB-ID:  37514 
public computational chemistry database (PCCDB) project, http://pccdb.org 
 
 28 28  0  0  1  0  0  0  0  0999 V2000 
    1.3876   -0.0671    1.3884 C   0  0  0  0  0  0  0  0  0  0  0  0 
    3.9467   -4.5937    2.3505 C   0  0  0  0  0  0  0  0  0  0  0  0 
    2.4252    0.1137    0.2735 C   0  0  0  0  0  0  0  0  0  0  0  0 
    3.2854   -1.1318   -0.0089 C   0  0  0  0  0  0  0  0  0  0  0  0 
    4.2677   -1.4734    1.1235 C   0  0  0  0  0  0  0  0  0  0  0  0 
    5.9236   -2.8893   -0.3477 C   0  0  0  0  0  0  0  0  0  0  0  0 
    6.2762   -4.3809   -0.3415 C   0  0  0  0  0  0  0  0  0  0  0  0 
    4.3410   -4.0857    0.9704 C   0  0  1  0  0  0  0  0  0  0  0  0 
    5.1120   -2.7503    0.9521 C   0  0  2  0  0  0  0  0  0  0  0  0 
    5.2170   -5.0456    0.3562 O   0  0  0  0  0  0  0  0  0  0  0  0 
    0.7045   -0.8945    1.1586 H   0  0  0  0  0  0  0  0  0  0  0  0 
    1.8544   -0.2813    2.3563 H   0  0  0  0  0  0  0  0  0  0  0  0 
    0.7825    0.8384    1.5114 H   0  0  0  0  0  0  0  0  0  0  0  0 
    4.8278   -4.6740    2.9972 H   0  0  0  0  0  0  0  0  0  0  0  0 
    3.4878   -5.5849    2.2753 H   0  0  0  0  0  0  0  0  0  0  0  0 
    3.2235   -3.9190    2.8240 H   0  0  0  0  0  0  0  0  0  0  0  0 
    3.0832    0.9601    0.5179 H   0  0  0  0  0  0  0  0  0  0  0  0 
    1.9031    0.3929   -0.6514 H   0  0  0  0  0  0  0  0  0  0  0  0 
    2.6194   -1.9833   -0.2071 H   0  0  0  0  0  0  0  0  0  0  0  0 
    3.8467   -0.9610   -0.9365 H   0  0  0  0  0  0  0  0  0  0  0  0 
    3.7196   -1.5570    2.0717 H   0  0  0  0  0  0  0  0  0  0  0  0 
    4.9525   -0.6230    1.2540 H   0  0  0  0  0  0  0  0  0  0  0  0 
    5.3031   -2.6499   -1.2188 H   0  0  0  0  0  0  0  0  0  0  0  0 
    6.8081   -2.2438   -0.3776 H   0  0  0  0  0  0  0  0  0  0  0  0 
    7.2262   -4.5644    0.1829 H   0  0  0  0  0  0  0  0  0  0  0  0 
    6.3612   -4.8064   -1.3489 H   0  0  0  0  0  0  0  0  0  0  0  0 
    3.4341   -3.9989    0.3491 H   0  0  0  0  0  0  0  0  0  0  0  0 
    5.8231   -2.7837    1.7919 H   0  0  0  0  0  0  0  0  0  0  0  0 
  1 13  1  0  0  0  0 
  1 12  1  0  0  0  0 
  2 16  1  0  0  0  0 
  2 14  1  0  0  0  0 
  3 17  1  0  0  0  0 
  3  1  1  0  0  0  0 
  4  3  1  0  0  0  0 
  4  5  1  0  0  0  0 
  5 22  1  0  0  0  0 
  5 21  1  0  0  0  0 
  6  7  1  0  0  0  0 
  6  9  1  0  0  0  0 
  7 25  1  0  0  0  0 
  7 10  1  0  0  0  0 
  8 27  1  6  0  0  0 
  8  2  1  0  0  0  0 
  9  8  1  0  0  0  0 
  9  5  1  0  0  0  0 
  9 28  1  1  0  0  0 
 10  8  1  0  0  0  0 
 11  1  1  0  0  0  0 
 15  2  1  0  0  0  0 
 18  3  1  0  0  0  0 
 19  4  1  0  0  0  0 
 20  4  1  0  0  0  0 
 23  6  1  0  0  0  0 
 24  6  1  0  0  0  0 
 26  7  1  0  0  0  0 
M  END 
>  <HBA> 
1 
 
>  <HBD> 
0 
 
>  <TPSA> 
9.23 
 
>  <cid> 
37514 
 
>  <dipole> 
1.79 
 
>  <excitation_energy_1> 
6.054 
 
>  <excitation_energy_2> 
6.297 
 
>  <excitation_energy_3> 
6.362 
 
>  <excitation_energy_4> 
6.493 
 
>  <homo_energy> 
-6.378 
 
>  <homo_lumo_gap> 
8.569 
 
>  <logP> 
2.602 
 
>  <lumo_energy> 
2.191 
 
>  <melting_point> 
-14.93 
 
>  <molecular_refractivity> 
44.35 
 
>  <oscillator_strength_1> 
0.0056 
 
>  <oscillator_strength_2> 
0.0069 
 
>  <oscillator_strength_3> 
0.0065 
 
>  <oscillator_strength_4> 
0.0054 
 
>  <open_babel_can_smiles> 
CCCC[C@@H]1CCO[C@H]1C 
 
>  <mulliken_charges> 
28 
1   -0.44451 
2   -0.454345 
3   -0.249869 
4   -0.260202 
5   -0.269411 
6   -0.317491 
7   -0.004762 
8   0.179557 
9   -0.119476 
10   -0.512549 
11   0.142055 
12   0.145728 
13   0.143779 
14   0.145536 
15   0.157496 
16   0.137757 
17   0.130029 
18   0.132217 
19   0.134247 
20   0.133261 
21   0.1374 
22   0.130754 
23   0.146537 
24   0.139606 
25   0.125292 
26   0.133827 
27   0.11379 
28   0.123746 
 
>  <lowdin_charges> 
28 
1   -0.448156 
2   -0.451191 
3   -0.273299 
4   -0.281531 
5   -0.277679 
6   -0.299648 
7   -0.127644 
8   0.002096 
9   -0.141399 
10   -0.291641 
11   0.147056 
12   0.146218 
13   0.150941 
14   0.151435 
15   0.158734 
16   0.150537 
17   0.139456 
18   0.142939 
19   0.139624 
20   0.142234 
21   0.143528 
22   0.143445 
23   0.147522 
24   0.150875 
25   0.129914 
26   0.138769 
27   0.125105 
28   0.141758 
 
$$$$ 
 
