PCCDB-ID:  40795 
public computational chemistry database (PCCDB) project, http://pccdb.org 
 
 23 23  0  0  1  0  0  0  0  0999 V2000 
    0.9096    0.0538   -0.1915 C   0  0  0  0  0  0  0  0  0  0  0  0 
    4.3196   -2.4141   -2.0288 C   0  0  0  0  0  0  0  0  0  0  0  0 
    4.7459    0.0975   -3.3811 C   0  0  0  0  0  0  0  0  0  0  0  0 
    3.1859    1.2331   -0.1424 C   0  0  0  0  0  0  0  0  0  0  0  0 
    3.5064    1.2925   -1.6334 C   0  0  0  0  0  0  0  0  0  0  0  0 
    2.3979   -0.0490    0.1787 C   0  0  2  0  0  0  0  0  0  0  0  0 
    3.7574   -1.1311   -1.4534 C   0  0  0  0  0  0  0  0  0  0  0  0 
    2.9768   -1.2425   -0.4365 N   0  0  0  0  0  0  0  0  0  0  0  0 
    4.1721    0.0614   -2.0466 N   0  0  0  0  0  0  0  0  0  0  0  0 
    0.4145    0.8382    0.3945 H   0  0  0  0  0  0  0  0  0  0  0  0 
    0.4089   -0.8988    0.0079 H   0  0  0  0  0  0  0  0  0  0  0  0 
    0.7751    0.2832   -1.2554 H   0  0  0  0  0  0  0  0  0  0  0  0 
    3.9545   -3.2376   -1.4148 H   0  0  0  0  0  0  0  0  0  0  0  0 
    5.4165   -2.4191   -2.0147 H   0  0  0  0  0  0  0  0  0  0  0  0 
    4.0002   -2.5775   -3.0653 H   0  0  0  0  0  0  0  0  0  0  0  0 
    5.3216    1.0232   -3.4947 H   0  0  0  0  0  0  0  0  0  0  0  0 
    3.9822    0.0777   -4.1772 H   0  0  0  0  0  0  0  0  0  0  0  0 
    5.4287   -0.7381   -3.5393 H   0  0  0  0  0  0  0  0  0  0  0  0 
    2.6289    2.1290    0.1577 H   0  0  0  0  0  0  0  0  0  0  0  0 
    4.1292    1.2294    0.4174 H   0  0  0  0  0  0  0  0  0  0  0  0 
    4.1766    2.1335   -1.8517 H   0  0  0  0  0  0  0  0  0  0  0  0 
    2.5878    1.4570   -2.2233 H   0  0  0  0  0  0  0  0  0  0  0  0 
    2.4447   -0.2108    1.2650 H   0  0  0  0  0  0  0  0  0  0  0  0 
  1 11  1  0  0  0  0 
  1  6  1  0  0  0  0 
  1 10  1  0  0  0  0 
  2 14  1  0  0  0  0 
  2  7  1  0  0  0  0 
  2 13  1  0  0  0  0 
  3  9  1  0  0  0  0 
  4 19  1  0  0  0  0 
  4  6  1  0  0  0  0 
  4 20  1  0  0  0  0 
  5  4  1  0  0  0  0 
  6 23  1  1  0  0  0 
  7  8  2  0  0  0  0 
  8  6  1  0  0  0  0 
  9  5  1  0  0  0  0 
  9  7  1  0  0  0  0 
 12  1  1  0  0  0  0 
 15  2  1  0  0  0  0 
 16  3  1  0  0  0  0 
 17  3  1  0  0  0  0 
 18  3  1  0  0  0  0 
 21  5  1  0  0  0  0 
 22  5  1  0  0  0  0 
M  END 
>  <HBA> 
2 
 
>  <HBD> 
0 
 
>  <TPSA> 
15.6 
 
>  <cid> 
40795 
 
>  <dipole> 
2.69 
 
>  <excitation_energy_1> 
4.973 
 
>  <excitation_energy_2> 
5.384 
 
>  <excitation_energy_3> 
5.56 
 
>  <excitation_energy_4> 
5.631 
 
>  <homo_energy> 
-5.505 
 
>  <homo_lumo_gap> 
6.653 
 
>  <logP> 
0.502 
 
>  <lumo_energy> 
1.148 
 
>  <melting_point> 
15.85 
 
>  <molecular_refractivity> 
47.47 
 
>  <oscillator_strength_1> 
0.0147 
 
>  <oscillator_strength_2> 
0.0257 
 
>  <oscillator_strength_3> 
0.0071 
 
>  <oscillator_strength_4> 
0.012 
 
>  <open_babel_can_smiles> 
C[C@@H]1CCN(C(=N1)C)C 
 
>  <mulliken_charges> 
23 
1   -0.439155 
2   -0.52698 
3   -0.308126 
4   -0.291401 
5   -0.128208 
6   0.029868 
7   0.483633 
8   -0.468207 
9   -0.426036 
10   0.13142 
11   0.158511 
12   0.136225 
13   0.184889 
14   0.158225 
15   0.154666 
16   0.153507 
17   0.143865 
18   0.167053 
19   0.133388 
20   0.146675 
21   0.139397 
22   0.137027 
23   0.129764 
 
>  <lowdin_charges> 
23 
1   -0.448537 
2   -0.44921 
3   -0.351363 
4   -0.293858 
5   -0.195279 
6   -0.062052 
7   0.086168 
8   -0.256315 
9   -0.135258 
10   0.145187 
11   0.159041 
12   0.141522 
13   0.178309 
14   0.156138 
15   0.156106 
16   0.152502 
17   0.137477 
18   0.162768 
19   0.149552 
20   0.149863 
21   0.146375 
22   0.131291 
23   0.139574 
 
$$$$ 
 
