PCCDB-ID:  56136 
public computational chemistry database (PCCDB) project, http://pccdb.org 
 
 30 30  0  0  1  0  0  0  0  0999 V2000 
    0.9042    0.1342    0.3326 C   0  0  0  0  0  0  0  0  0  0  0  0 
    2.6507   -0.7500   -1.2666 C   0  0  0  0  0  0  0  0  0  0  0  0 
    1.9827   -0.3654   -2.5898 C   0  0  0  0  0  0  0  0  0  0  0  0 
    4.6021    3.1346   -1.0885 C   0  0  0  0  0  0  0  0  0  0  0  0 
    2.8168    3.9809    0.2597 C   0  0  0  0  0  0  0  0  0  0  0  0 
    4.2260    1.7080   -0.6886 C   0  0  0  0  0  0  0  0  0  0  0  0 
    2.4397    2.5550    0.6613 C   0  0  0  0  0  0  0  0  0  0  0  0 
    2.3837    0.2107   -0.0848 C   0  0  1  0  0  0  0  0  0  0  0  0 
    2.2382   -1.4071   -3.5970 N   0  0  0  0  0  0  0  0  0  0  0  0 
    4.2515    4.0504   -0.0063 N   0  0  0  0  0  0  0  0  0  0  0  0 
    2.7901    1.5996   -0.3983 N   0  0  0  0  0  0  0  0  0  0  0  0 
    0.5835   -0.9125    0.3587 H   0  0  0  0  0  0  0  0  0  0  0  0 
    0.2632    0.6688   -0.3768 H   0  0  0  0  0  0  0  0  0  0  0  0 
    0.7307    0.5493    1.3293 H   0  0  0  0  0  0  0  0  0  0  0  0 
    3.7309   -0.8591   -1.4315 H   0  0  0  0  0  0  0  0  0  0  0  0 
    2.3002   -1.7480   -0.9782 H   0  0  0  0  0  0  0  0  0  0  0  0 
    2.3144    0.6432   -2.8860 H   0  0  0  0  0  0  0  0  0  0  0  0 
    0.8966   -0.3062   -2.4516 H   0  0  0  0  0  0  0  0  0  0  0  0 
    4.0891    3.3760   -2.0396 H   0  0  0  0  0  0  0  0  0  0  0  0 
    5.6828    3.1863   -1.2661 H   0  0  0  0  0  0  0  0  0  0  0  0 
    2.5712    4.6634    1.0819 H   0  0  0  0  0  0  0  0  0  0  0  0 
    2.2030    4.2675   -0.6158 H   0  0  0  0  0  0  0  0  0  0  0  0 
    4.8381    1.4074    0.1847 H   0  0  0  0  0  0  0  0  0  0  0  0 
    4.4806    1.0432   -1.5177 H   0  0  0  0  0  0  0  0  0  0  0  0 
    1.3618    2.5243    0.8347 H   0  0  0  0  0  0  0  0  0  0  0  0 
    2.9450    2.3059    1.6158 H   0  0  0  0  0  0  0  0  0  0  0  0 
    2.9838   -0.1657    0.7701 H   0  0  0  0  0  0  0  0  0  0  0  0 
    3.2353   -1.4304   -3.8120 H   0  0  0  0  0  0  0  0  0  0  0  0 
    1.7755   -1.1566   -4.4699 H   0  0  0  0  0  0  0  0  0  0  0  0 
    4.5153    5.0018   -0.2540 H   0  0  0  0  0  0  0  0  0  0  0  0 
  1 12  1  0  0  0  0 
  1 14  1  0  0  0  0 
  2 16  1  0  0  0  0 
  2  8  1  0  0  0  0 
  3 18  1  0  0  0  0 
  3  2  1  0  0  0  0 
  4  6  1  0  0  0  0 
  4 10  1  0  0  0  0 
  5  7  1  0  0  0  0 
  5 21  1  0  0  0  0 
  6 11  1  0  0  0  0 
  6 23  1  0  0  0  0 
  7 25  1  0  0  0  0 
  7 26  1  0  0  0  0 
  8  1  1  0  0  0  0 
  8 27  1  1  0  0  0 
  9  3  1  0  0  0  0 
 10  5  1  0  0  0  0 
 11  8  1  0  0  0  0 
 11  7  1  0  0  0  0 
 13  1  1  0  0  0  0 
 15  2  1  0  0  0  0 
 17  3  1  0  0  0  0 
 19  4  1  0  0  0  0 
 20  4  1  0  0  0  0 
 22  5  1  0  0  0  0 
 24  6  1  0  0  0  0 
 28  9  1  0  0  0  0 
 29  9  1  0  0  0  0 
 30 10  1  0  0  0  0 
M  END 
>  <HBA> 
3 
 
>  <HBD> 
2 
 
>  <TPSA> 
41.29 
 
>  <cid> 
56136 
 
>  <dipole> 
1.73 
 
>  <excitation_energy_1> 
5.122 
 
>  <excitation_energy_2> 
5.34 
 
>  <excitation_energy_3> 
5.432 
 
>  <excitation_energy_4> 
5.506 
 
>  <homo_energy> 
-5.616 
 
>  <homo_lumo_gap> 
7.676 
 
>  <logP> 
0.596 
 
>  <lumo_energy> 
2.06 
 
>  <melting_point> 
78.75 
 
>  <molecular_refractivity> 
54.69 
 
>  <oscillator_strength_1> 
0.0035 
 
>  <oscillator_strength_2> 
0.0039 
 
>  <oscillator_strength_3> 
0.0049 
 
>  <oscillator_strength_4> 
0.0716 
 
>  <open_babel_can_smiles> 
NCC[C@@H](N1CCNCC1)C 
 
>  <mulliken_charges> 
30 
1   -0.476652 
2   -0.281202 
3   -0.136167 
4   -0.136508 
5   -0.135969 
6   -0.112904 
7   -0.113416 
8   0.087695 
9   -0.719309 
10   -0.54872 
11   -0.415542 
12   0.148089 
13   0.155178 
14   0.14935 
15   0.126672 
16   0.147507 
17   0.130609 
18   0.139421 
19   0.116601 
20   0.134131 
21   0.134417 
22   0.1172 
23   0.118913 
24   0.135971 
25   0.142325 
26   0.116302 
27   0.10035 
28   0.28734 
29   0.292887 
30   0.295433 
 
>  <lowdin_charges> 
30 
1   -0.454156 
2   -0.285823 
3   -0.20547 
4   -0.206371 
5   -0.210066 
6   -0.207641 
7   -0.203185 
8   -0.05437 
9   -0.559304 
10   -0.366448 
11   -0.198808 
12   0.154206 
13   0.154427 
14   0.150856 
15   0.135523 
16   0.152171 
17   0.124642 
18   0.139994 
19   0.119113 
20   0.143858 
21   0.146762 
22   0.120999 
23   0.123121 
24   0.147443 
25   0.148848 
26   0.120858 
27   0.116787 
28   0.246317 
29   0.252612 
30   0.253105 
 
$$$$ 
 
