PCCDB-ID:  42387 
public computational chemistry database (PCCDB) project, http://pccdb.org 
 
 24 25  0  0  0  0  0  0  0  0999 V2000 
    0.8519    2.5931    0.4777 C   0  0  0  0  0  0  0  0  0  0  0  0 
    4.7649    3.3264   -2.6264 C   0  0  0  0  0  0  0  0  0  0  0  0 
    3.8215    4.1875   -2.0759 C   0  0  0  0  0  0  0  0  0  0  0  0 
    4.7141    1.9634   -2.3210 C   0  0  0  0  0  0  0  0  0  0  0  0 
    2.8270    3.6966   -1.2225 C   0  0  0  0  0  0  0  0  0  0  0  0 
    3.7338    1.4531   -1.4641 C   0  0  0  0  0  0  0  0  0  0  0  0 
    2.7719    2.3355   -0.9141 C   0  0  0  0  0  0  0  0  0  0  0  0 
    5.2817   -2.6721    0.4157 C   0  0  0  0  0  0  0  0  0  0  0  0 
    4.5047   -0.5610   -0.5667 C   0  0  0  0  0  0  0  0  0  0  0  0 
    5.2642   -3.9080    0.7037 N   0  0  0  0  0  0  0  0  0  0  0  0 
    3.6137    0.0737   -1.2058 N   0  0  0  0  0  0  0  0  0  0  0  0 
    4.4023   -1.9270   -0.3566 N   0  0  0  0  0  0  0  0  0  0  0  0 
    1.8509    1.7616   -0.0893 O   0  0  0  0  0  0  0  0  0  0  0  0 
    6.6126   -1.6741    1.0894 S   0  0  0  0  0  0  0  0  0  0  0  0 
    6.0137    0.1380    0.1474 S   0  0  0  0  0  0  0  0  0  0  0  0 
    0.2229    1.9349    1.0798 H   0  0  0  0  0  0  0  0  0  0  0  0 
    0.2383    3.0737   -0.2959 H   0  0  0  0  0  0  0  0  0  0  0  0 
    1.2888    3.3668    1.1231 H   0  0  0  0  0  0  0  0  0  0  0  0 
    5.5325    3.7020   -3.2963 H   0  0  0  0  0  0  0  0  0  0  0  0 
    3.8460    5.2489   -2.3062 H   0  0  0  0  0  0  0  0  0  0  0  0 
    5.4240    1.2722   -2.7661 H   0  0  0  0  0  0  0  0  0  0  0  0 
    2.1002    4.3821   -0.8019 H   0  0  0  0  0  0  0  0  0  0  0  0 
    4.4654   -4.3995    0.2969 H   0  0  0  0  0  0  0  0  0  0  0  0 
    3.5696   -2.3673   -0.7313 H   0  0  0  0  0  0  0  0  0  0  0  0 
  1 16  1  0  0  0  0 
  1 18  1  0  0  0  0 
  2  4  2  0  0  0  0 
  2  3  1  0  0  0  0 
  3  5  2  0  0  0  0 
  4  6  1  0  0  0  0 
  5  7  1  0  0  0  0 
  5 22  1  0  0  0  0 
  6 11  1  0  0  0  0 
  6  7  2  0  0  0  0 
  7 13  1  0  0  0  0 
  8 10  2  0  0  0  0 
  8 14  1  0  0  0  0 
  9 12  1  0  0  0  0 
  9 15  1  0  0  0  0 
 11  9  2  0  0  0  0 
 12  8  1  0  0  0  0 
 13  1  1  0  0  0  0 
 15 14  1  0  0  0  0 
 17  1  1  0  0  0  0 
 19  2  1  0  0  0  0 
 20  3  1  0  0  0  0 
 21  4  1  0  0  0  0 
 23 10  1  0  0  0  0 
 24 12  1  0  0  0  0 
M  END 
>  <HBA> 
6 
 
>  <HBD> 
1 
 
>  <TPSA> 
116.98 
 
>  <cid> 
42387 
 
>  <dipole> 
3.24 
 
>  <excitation_energy_1> 
3.119 
 
>  <excitation_energy_2> 
3.442 
 
>  <excitation_energy_3> 
4.137 
 
>  <excitation_energy_4> 
4.366 
 
>  <homo_energy> 
-5.728 
 
>  <homo_lumo_gap> 
3.962 
 
>  <logP> 
2.609 
 
>  <lumo_energy> 
-1.766 
 
>  <melting_point> 
138.68 
 
>  <molecular_refractivity> 
62.55 
 
>  <oscillator_strength_1> 
0.0048 
 
>  <oscillator_strength_2> 
0.008 
 
>  <oscillator_strength_3> 
0.0023 
 
>  <oscillator_strength_4> 
0.1293 
 
>  <open_babel_can_smiles> 
COc1ccccc1/N=c/1\ssc(=N)[nH]1 
 
>  <mulliken_charges> 
24 
1   -0.216288 
2   -0.142005 
3   -0.132663 
4   -0.15272 
5   -0.206497 
6   0.168674 
7   0.366459 
8   0.303435 
9   0.320608 
10   -0.600501 
11   -0.50049 
12   -0.579278 
13   -0.501643 
14   0.118615 
15   0.09121 
16   0.170772 
17   0.152847 
18   0.153229 
19   0.130075 
20   0.129863 
21   0.142518 
22   0.134674 
23   0.290774 
24   0.358333 
 
>  <lowdin_charges> 
24 
1   -0.281275 
2   -0.172951 
3   -0.151947 
4   -0.170538 
5   -0.211389 
6   0.018072 
7   0.091458 
8   -0.01112 
9   0.006019 
10   -0.408424 
11   -0.183142 
12   -0.237753 
13   -0.188767 
14   0.129889 
15   0.090589 
16   0.165082 
17   0.147096 
18   0.146777 
19   0.160372 
20   0.157138 
21   0.167313 
22   0.16492 
23   0.264048 
24   0.308534 
 
$$$$ 
 
