PCCDB-ID:  37084 
public computational chemistry database (PCCDB) project, http://pccdb.org 
 
 41 40  0  0  0  0  0  0  0  0999 V2000 
    2.1190    2.2189   -2.6186 C   0  0  0  0  0  0  0  0  0  0  0  0 
    6.2119    7.8618    5.3846 C   0  0  0  0  0  0  0  0  0  0  0  0 
    7.7496    0.7198    1.9366 C   0  0  0  0  0  0  0  0  0  0  0  0 
    8.0010    1.3087   -0.4762 C   0  0  0  0  0  0  0  0  0  0  0  0 
    2.7276    2.6637   -1.5186 C   0  0  0  0  0  0  0  0  0  0  0  0 
    3.4856    1.8113   -0.5376 C   0  0  0  0  0  0  0  0  0  0  0  0 
    7.2284    5.1635    2.6858 C   0  0  0  0  0  0  0  0  0  0  0  0 
    4.9712    2.2081   -0.4187 C   0  0  0  0  0  0  0  0  0  0  0  0 
    6.8305    3.7057    2.4166 C   0  0  0  0  0  0  0  0  0  0  0  0 
    6.5315    5.7547    3.9122 C   0  0  0  0  0  0  0  0  0  0  0  0 
    5.7155    1.3690    0.6301 C   0  0  0  0  0  0  0  0  0  0  0  0 
    7.5224    3.1318    1.1712 C   0  0  0  0  0  0  0  0  0  0  0  0 
    6.9240    7.1971    4.2164 C   0  0  0  0  0  0  0  0  0  0  0  0 
    7.2317    1.6477    0.8177 C   0  0  0  0  0  0  0  0  0  0  0  0 
    7.7595    7.7900    3.5602 O   0  0  0  0  0  0  0  0  0  0  0  0 
    1.5921    2.8876   -3.2943 H   0  0  0  0  0  0  0  0  0  0  0  0 
    2.1222    1.1635   -2.8852 H   0  0  0  0  0  0  0  0  0  0  0  0 
    6.3025    7.2569    6.2951 H   0  0  0  0  0  0  0  0  0  0  0  0 
    5.1394    7.9548    5.1703 H   0  0  0  0  0  0  0  0  0  0  0  0 
    6.6319    8.8548    5.5575 H   0  0  0  0  0  0  0  0  0  0  0  0 
    7.6264   -0.3334    1.6552 H   0  0  0  0  0  0  0  0  0  0  0  0 
    7.2112    0.8712    2.8790 H   0  0  0  0  0  0  0  0  0  0  0  0 
    8.8163    0.8904    2.1282 H   0  0  0  0  0  0  0  0  0  0  0  0 
    7.8202    0.2706   -0.7820 H   0  0  0  0  0  0  0  0  0  0  0  0 
    9.0812    1.4289   -0.3281 H   0  0  0  0  0  0  0  0  0  0  0  0 
    7.7105    1.9592   -1.3087 H   0  0  0  0  0  0  0  0  0  0  0  0 
    2.6982    3.7319   -1.2935 H   0  0  0  0  0  0  0  0  0  0  0  0 
    3.4072    0.7551   -0.8279 H   0  0  0  0  0  0  0  0  0  0  0  0 
    3.0192    1.8976    0.4565 H   0  0  0  0  0  0  0  0  0  0  0  0 
    6.9992    5.7835    1.8098 H   0  0  0  0  0  0  0  0  0  0  0  0 
    8.3143    5.2370    2.8225 H   0  0  0  0  0  0  0  0  0  0  0  0 
    5.0332    3.2750   -0.1644 H   0  0  0  0  0  0  0  0  0  0  0  0 
    5.4407    2.1002   -1.4042 H   0  0  0  0  0  0  0  0  0  0  0  0 
    5.7390    3.6462    2.3017 H   0  0  0  0  0  0  0  0  0  0  0  0 
    7.0764    3.0985    3.2985 H   0  0  0  0  0  0  0  0  0  0  0  0 
    6.7460    5.1535    4.8098 H   0  0  0  0  0  0  0  0  0  0  0  0 
    5.4368    5.7139    3.8016 H   0  0  0  0  0  0  0  0  0  0  0  0 
    5.6005    0.3055    0.3722 H   0  0  0  0  0  0  0  0  0  0  0  0 
    5.2095    1.4921    1.5983 H   0  0  0  0  0  0  0  0  0  0  0  0 
    8.6101    3.2396    1.2955 H   0  0  0  0  0  0  0  0  0  0  0  0 
    7.2625    3.7601    0.3078 H   0  0  0  0  0  0  0  0  0  0  0  0 
  1  5  2  0  0  0  0 
  2 20  1  0  0  0  0 
  2 18  1  0  0  0  0 
  3 23  1  0  0  0  0 
  3 22  1  0  0  0  0 
  4 25  1  0  0  0  0 
  4 14  1  0  0  0  0 
  5 27  1  0  0  0  0 
  5  6  1  0  0  0  0 
  6  8  1  0  0  0  0 
  6 29  1  0  0  0  0 
  7 31  1  0  0  0  0 
  7 10  1  0  0  0  0 
  8 32  1  0  0  0  0 
  8 11  1  0  0  0  0 
  9  7  1  0  0  0  0 
  9 35  1  0  0  0  0 
 10 13  1  0  0  0  0 
 10 36  1  0  0  0  0 
 11 14  1  0  0  0  0 
 11 39  1  0  0  0  0 
 12 40  1  0  0  0  0 
 12  9  1  0  0  0  0 
 13  2  1  0  0  0  0 
 14 12  1  0  0  0  0 
 14  3  1  0  0  0  0 
 15 13  2  0  0  0  0 
 16  1  1  0  0  0  0 
 17  1  1  0  0  0  0 
 19  2  1  0  0  0  0 
 21  3  1  0  0  0  0 
 24  4  1  0  0  0  0 
 26  4  1  0  0  0  0 
 28  6  1  0  0  0  0 
 30  7  1  0  0  0  0 
 33  8  1  0  0  0  0 
 34  9  1  0  0  0  0 
 37 10  1  0  0  0  0 
 38 11  1  0  0  0  0 
 41 12  1  0  0  0  0 
M  END 
>  <HBA> 
1 
 
>  <HBD> 
0 
 
>  <TPSA> 
17.07 
 
>  <cid> 
37084 
 
>  <dipole> 
2.57 
 
>  <excitation_energy_1> 
4.425 
 
>  <excitation_energy_2> 
6.067 
 
>  <excitation_energy_3> 
6.11 
 
>  <excitation_energy_4> 
6.356 
 
>  <homo_energy> 
-6.61 
 
>  <homo_lumo_gap> 
6.338 
 
>  <logP> 
4.518 
 
>  <lumo_energy> 
-0.272 
 
>  <melting_point> 
-12.4 
 
>  <molecular_refractivity> 
68.88 
 
>  <oscillator_strength_1> 
0.0001 
 
>  <oscillator_strength_2> 
0.0002 
 
>  <oscillator_strength_3> 
0.0291 
 
>  <oscillator_strength_4> 
0.0236 
 
>  <open_babel_can_smiles> 
C=CCCCC(CCCCC(=O)C)(C)C 
 
>  <mulliken_charges> 
41 
1   -0.341769 
2   -0.528063 
3   -0.449863 
4   -0.45012 
5   -0.041088 
6   -0.301506 
7   -0.246672 
8   -0.268325 
9   -0.269933 
10   -0.358675 
11   -0.257304 
12   -0.25872 
13   0.454257 
14   0.099094 
15   -0.436204 
16   0.136977 
17   0.133318 
18   0.164383 
19   0.1685 
20   0.179413 
21   0.137738 
22   0.139774 
23   0.137055 
24   0.135855 
25   0.13841 
26   0.143423 
27   0.121364 
28   0.136635 
29   0.137586 
30   0.145453 
31   0.149516 
32   0.133547 
33   0.143406 
34   0.128875 
35   0.130199 
36   0.155093 
37   0.152085 
38   0.123742 
39   0.126022 
40   0.12589 
41   0.130633 
 
>  <lowdin_charges> 
41 
1   -0.345203 
2   -0.474856 
3   -0.440679 
4   -0.441518 
5   -0.142274 
6   -0.2687 
7   -0.268327 
8   -0.275758 
9   -0.278203 
10   -0.309899 
11   -0.275584 
12   -0.275493 
13   0.166743 
14   0.011477 
15   -0.235649 
16   0.158607 
17   0.151564 
18   0.167093 
19   0.168386 
20   0.172091 
21   0.14572 
22   0.1456 
23   0.144821 
24   0.144734 
25   0.1457 
26   0.148396 
27   0.145649 
28   0.143654 
29   0.14541 
30   0.14932 
31   0.148919 
32   0.138289 
33   0.145194 
34   0.135188 
35   0.139359 
36   0.15937 
37   0.155052 
38   0.137724 
39   0.137941 
40   0.13868 
41   0.141457 
 
$$$$ 
 
