PCCDB-ID:  69998 
public computational chemistry database (PCCDB) project, http://pccdb.org 
 
 17 17  0  0  0  0  0  0  0  0999 V2000 
   -1.4074   -0.0510    0.0326 C   0  0  0  0  0  0  0  0  0  0  0  0 
   -0.7383    1.1673    0.1913 C   0  0  0  0  0  0  0  0  0  0  0  0 
   -0.6758   -1.2170   -0.1899 C   0  0  0  0  0  0  0  0  0  0  0  0 
    0.6495    1.2207    0.1292 C   0  0  0  0  0  0  0  0  0  0  0  0 
    0.7167   -1.1710   -0.2532 C   0  0  0  0  0  0  0  0  0  0  0  0 
    3.5986   -1.1250   -0.4048 C   0  0  0  0  0  0  0  0  0  0  0  0 
    1.3923    0.0480   -0.0940 C   0  0  0  0  0  0  0  0  0  0  0  0 
    2.8703    0.0981   -0.1587 C   0  0  0  0  0  0  0  0  0  0  0  0 
    4.1515   -2.1276   -0.6041 N   0  0  0  0  0  0  0  0  0  0  0  0 
    3.4836    1.2253    0.0044 N   0  0  0  0  0  0  0  0  0  0  0  0 
    4.8567    1.0997   -0.0866 O   0  0  0  0  0  0  0  0  0  0  0  0 
   -2.4920   -0.0877    0.0822 H   0  0  0  0  0  0  0  0  0  0  0  0 
   -1.3024    2.0796    0.3646 H   0  0  0  0  0  0  0  0  0  0  0  0 
   -1.1859   -2.1679   -0.3140 H   0  0  0  0  0  0  0  0  0  0  0  0 
    1.1706    2.1637    0.2522 H   0  0  0  0  0  0  0  0  0  0  0  0 
    1.2794   -2.0833   -0.4265 H   0  0  0  0  0  0  0  0  0  0  0  0 
    5.1668    2.0091    0.0552 H   0  0  0  0  0  0  0  0  0  0  0  0 
  1 12  1  0  0  0  0 
  1  2  2  0  0  0  0 
  2 13  1  0  0  0  0 
  3  1  1  0  0  0  0 
  4  2  1  0  0  0  0 
  4 15  1  0  0  0  0 
  5  3  2  0  0  0  0 
  5  7  1  0  0  0  0 
  6  8  1  0  0  0  0 
  7  4  2  0  0  0  0 
  8  7  1  0  0  0  0 
  8 10  2  0  0  0  0 
  9  6  3  0  0  0  0 
 11 10  1  0  0  0  0 
 11 17  1  0  0  0  0 
 14  3  1  0  0  0  0 
 16  5  1  0  0  0  0 
M  END 
>  <HBA> 
3 
 
>  <HBD> 
1 
 
>  <TPSA> 
56.38 
 
>  <cid> 
69998 
 
>  <dipole> 
3.74 
 
>  <excitation_energy_1> 
4.225 
 
>  <excitation_energy_2> 
4.318 
 
>  <excitation_energy_3> 
4.988 
 
>  <excitation_energy_4> 
5.497 
 
>  <homo_energy> 
-6.659 
 
>  <homo_lumo_gap> 
4.544 
 
>  <logP> 
1.388 
 
>  <lumo_energy> 
-2.114 
 
>  <melting_point> 
112.16 
 
>  <molecular_refractivity> 
40.38 
 
>  <oscillator_strength_1> 
0.1475 
 
>  <oscillator_strength_2> 
0.1301 
 
>  <oscillator_strength_3> 
0.0024 
 
>  <oscillator_strength_4> 
0.0549 
 
>  <open_babel_can_smiles> 
O/N=C(/c1ccccc1)\C#N 
 
>  <mulliken_charges> 
17 
1   -0.119841 
2   -0.133102 
3   -0.13381 
4   -0.164434 
5   -0.198176 
6   0.329989 
7   0.145078 
8   0.281075 
9   -0.476038 
10   -0.231304 
11   -0.472937 
12   0.139139 
13   0.139612 
14   0.142387 
15   0.157726 
16   0.161939 
17   0.432698 
 
>  <lowdin_charges> 
17 
1   -0.141968 
2   -0.150727 
3   -0.150284 
4   -0.144118 
5   -0.15414 
6   -0.011424 
7   -0.007808 
8   0.009298 
9   -0.088324 
10   -0.031262 
11   -0.331187 
12   0.160646 
13   0.163216 
14   0.164273 
15   0.172752 
16   0.175403 
17   0.365655 
 
$$$$ 
 
