PCCDB-ID:  26482 
public computational chemistry database (PCCDB) project, http://pccdb.org 
 
 30 31  0  0  1  0  0  0  0  0999 V2000 
   -1.1505    0.8172   -1.1746 C   0  0  0  0  0  0  0  0  0  0  0  0 
    3.0574   -2.6898   -4.7573 C   0  0  0  0  0  0  0  0  0  0  0  0 
   -0.2354    1.0763   -2.1959 C   0  0  0  0  0  0  0  0  0  0  0  0 
   -0.6895    0.3666    0.0641 C   0  0  0  0  0  0  0  0  0  0  0  0 
    4.0685   -1.7759   -4.4496 C   0  0  0  0  0  0  0  0  0  0  0  0 
    2.2067   -3.1385   -3.7470 C   0  0  0  0  0  0  0  0  0  0  0  0 
    1.1302    0.8852   -1.9796 C   0  0  0  0  0  0  0  0  0  0  0  0 
    0.6766    0.1790    0.2755 C   0  0  0  0  0  0  0  0  0  0  0  0 
    4.2245   -1.3192   -3.1414 C   0  0  0  0  0  0  0  0  0  0  0  0 
    2.3675   -2.6761   -2.4392 C   0  0  0  0  0  0  0  0  0  0  0  0 
    3.0833    0.2055   -0.5004 C   0  0  0  0  0  0  0  0  0  0  0  0 
    1.6071    0.4330   -0.7425 C   0  0  0  0  0  0  0  0  0  0  0  0 
    3.3765   -1.7616   -2.1152 C   0  0  0  0  0  0  0  0  0  0  0  0 
    3.5444   -1.2638   -0.6802 C   0  0  1  0  0  0  0  0  0  0  0  0 
    4.9091   -1.3778   -0.1376 N   0  0  0  0  0  0  0  0  0  0  0  0 
   -2.2138    0.9694   -1.3403 H   0  0  0  0  0  0  0  0  0  0  0  0 
    2.9365   -3.0492   -5.7757 H   0  0  0  0  0  0  0  0  0  0  0  0 
   -0.5838    1.4296   -3.1631 H   0  0  0  0  0  0  0  0  0  0  0  0 
   -1.3931    0.1682    0.8686 H   0  0  0  0  0  0  0  0  0  0  0  0 
    4.7380   -1.4214   -5.2294 H   0  0  0  0  0  0  0  0  0  0  0  0 
    1.4172   -3.8499   -3.9751 H   0  0  0  0  0  0  0  0  0  0  0  0 
    1.8362    1.0854   -2.7819 H   0  0  0  0  0  0  0  0  0  0  0  0 
    1.0295   -0.1629    1.2465 H   0  0  0  0  0  0  0  0  0  0  0  0 
    5.0228   -0.6143   -2.9167 H   0  0  0  0  0  0  0  0  0  0  0  0 
    1.6974   -3.0268   -1.6574 H   0  0  0  0  0  0  0  0  0  0  0  0 
    3.3450    0.4901    0.5253 H   0  0  0  0  0  0  0  0  0  0  0  0 
    3.6745    0.8442   -1.1706 H   0  0  0  0  0  0  0  0  0  0  0  0 
    2.9060   -1.8851   -0.0390 H   0  0  0  0  0  0  0  0  0  0  0  0 
    5.5380   -0.7631   -0.6545 H   0  0  0  0  0  0  0  0  0  0  0  0 
    5.2560   -2.3236   -0.2951 H   0  0  0  0  0  0  0  0  0  0  0  0 
  1  4  2  0  0  0  0 
  2  5  2  0  0  0  0 
  2  6  1  0  0  0  0 
  3  7  2  0  0  0  0 
  3  1  1  0  0  0  0 
  4  8  1  0  0  0  0 
  4 19  1  0  0  0  0 
  5  9  1  0  0  0  0 
  6 10  2  0  0  0  0 
  7 12  1  0  0  0  0 
  8 23  1  0  0  0  0 
  9 24  1  0  0  0  0 
  9 13  2  0  0  0  0 
 10 13  1  0  0  0  0 
 10 25  1  0  0  0  0 
 11 26  1  0  0  0  0 
 12 11  1  0  0  0  0 
 12  8  2  0  0  0  0 
 13 14  1  0  0  0  0 
 14 11  1  0  0  0  0 
 14 15  1  0  0  0  0 
 14 28  1  1  0  0  0 
 16  1  1  0  0  0  0 
 17  2  1  0  0  0  0 
 18  3  1  0  0  0  0 
 20  5  1  0  0  0  0 
 21  6  1  0  0  0  0 
 22  7  1  0  0  0  0 
 27 11  1  0  0  0  0 
 29 15  1  0  0  0  0 
 30 15  1  0  0  0  0 
M  END 
>  <HBA> 
1 
 
>  <HBD> 
1 
 
>  <TPSA> 
26.02 
 
>  <cid> 
26482 
 
>  <dipole> 
1.29 
 
>  <excitation_energy_1> 
5.183 
 
>  <excitation_energy_2> 
5.281 
 
>  <excitation_energy_3> 
5.41 
 
>  <excitation_energy_4> 
5.559 
 
>  <homo_energy> 
-6.202 
 
>  <homo_lumo_gap> 
6.153 
 
>  <logP> 
3.629 
 
>  <lumo_energy> 
-0.049 
 
>  <melting_point> 
91.13 
 
>  <molecular_refractivity> 
63.41 
 
>  <oscillator_strength_1> 
0.0024 
 
>  <oscillator_strength_2> 
0.0004 
 
>  <oscillator_strength_3> 
0.0396 
 
>  <oscillator_strength_4> 
0.0035 
 
>  <open_babel_can_smiles> 
N[C@H](c1ccccc1)Cc1ccccc1 
 
>  <mulliken_charges> 
30 
1   -0.131376 
2   -0.131441 
3   -0.12904 
4   -0.128732 
5   -0.129641 
6   -0.125406 
7   -0.175506 
8   -0.185805 
9   -0.193116 
10   -0.18624 
11   -0.34922 
12   0.174582 
13   0.181624 
14   -0.071215 
15   -0.707745 
16   0.125852 
17   0.128062 
18   0.127016 
19   0.12648 
20   0.127708 
21   0.129459 
22   0.127939 
23   0.124939 
24   0.111366 
25   0.129923 
26   0.161964 
27   0.134477 
28   0.140334 
29   0.294138 
30   0.29862 
 
>  <lowdin_charges> 
30 
1   -0.159629 
2   -0.159945 
3   -0.155164 
4   -0.158605 
5   -0.157671 
6   -0.153193 
7   -0.163615 
8   -0.167652 
9   -0.171998 
10   -0.165058 
11   -0.275849 
12   -0.002074 
13   -0.019464 
14   -0.064455 
15   -0.546734 
16   0.154301 
17   0.156107 
18   0.156194 
19   0.156993 
20   0.15747 
21   0.158102 
22   0.158134 
23   0.154342 
24   0.147767 
25   0.158414 
26   0.160385 
27   0.147115 
28   0.147593 
29   0.25225 
30   0.255937 
 
$$$$ 
 
