PCCDB-ID:  14109 
public computational chemistry database (PCCDB) project, http://pccdb.org 
 
 30 30  0  0  0  0  0  0  0  0999 V2000 
    2.8360   -1.4116    0.9906 C   0  0  0  0  0  0  0  0  0  0  0  0 
    4.2138   -1.0188    0.4474 C   0  0  0  0  0  0  0  0  0  0  0  0 
    4.2541    0.4012   -0.1319 C   0  0  0  0  0  0  0  0  0  0  0  0 
    5.6274    0.7953   -0.6910 C   0  0  0  0  0  0  0  0  0  0  0  0 
    8.1853    0.4104   -5.3701 C   0  0  0  0  0  0  0  0  0  0  0  0 
    5.6635    2.2195   -1.2583 C   0  0  0  0  0  0  0  0  0  0  0  0 
    8.7766    0.1244   -4.1393 C   0  0  0  0  0  0  0  0  0  0  0  0 
    7.2302    1.4263   -5.4537 C   0  0  0  0  0  0  0  0  0  0  0  0 
    7.0343    2.6403   -1.8342 C   0  0  0  0  0  0  0  0  0  0  0  0 
    8.4127    0.8478   -3.0014 C   0  0  0  0  0  0  0  0  0  0  0  0 
    6.8710    2.1451   -4.3139 C   0  0  0  0  0  0  0  0  0  0  0  0 
    7.4524    1.8657   -3.0680 C   0  0  0  0  0  0  0  0  0  0  0  0 
    2.8406   -2.4288    1.3986 H   0  0  0  0  0  0  0  0  0  0  0  0 
    2.0735   -1.3718    0.2028 H   0  0  0  0  0  0  0  0  0  0  0  0 
    2.5173   -0.7328    1.7915 H   0  0  0  0  0  0  0  0  0  0  0  0 
    4.5187   -1.7347   -0.3292 H   0  0  0  0  0  0  0  0  0  0  0  0 
    4.9611   -1.1038    1.2492 H   0  0  0  0  0  0  0  0  0  0  0  0 
    3.9556    1.1186    0.6475 H   0  0  0  0  0  0  0  0  0  0  0  0 
    3.5002    0.4879   -0.9286 H   0  0  0  0  0  0  0  0  0  0  0  0 
    5.9194    0.0810   -1.4725 H   0  0  0  0  0  0  0  0  0  0  0  0 
    6.3831    0.7047    0.1041 H   0  0  0  0  0  0  0  0  0  0  0  0 
    8.4692   -0.1486   -6.2577 H   0  0  0  0  0  0  0  0  0  0  0  0 
    5.3877    2.9302   -0.4663 H   0  0  0  0  0  0  0  0  0  0  0  0 
    4.8996    2.3197   -2.0423 H   0  0  0  0  0  0  0  0  0  0  0  0 
    9.5255   -0.6600   -4.0629 H   0  0  0  0  0  0  0  0  0  0  0  0 
    6.7687    1.6628   -6.4092 H   0  0  0  0  0  0  0  0  0  0  0  0 
    7.7991    2.5276   -1.0545 H   0  0  0  0  0  0  0  0  0  0  0  0 
    6.9945    3.7106   -2.0766 H   0  0  0  0  0  0  0  0  0  0  0  0 
    8.8830    0.6215   -2.0469 H   0  0  0  0  0  0  0  0  0  0  0  0 
    6.1304    2.9389   -4.3905 H   0  0  0  0  0  0  0  0  0  0  0  0 
  1 13  1  0  0  0  0 
  1 15  1  0  0  0  0 
  2  1  1  0  0  0  0 
  2 17  1  0  0  0  0 
  3  2  1  0  0  0  0 
  3 18  1  0  0  0  0 
  4  3  1  0  0  0  0 
  4 21  1  0  0  0  0 
  5  7  1  0  0  0  0 
  6  4  1  0  0  0  0 
  6 23  1  0  0  0  0 
  7 25  1  0  0  0  0 
  7 10  2  0  0  0  0 
  8  5  2  0  0  0  0 
  8 11  1  0  0  0  0 
  9  6  1  0  0  0  0 
  9 27  1  0  0  0  0 
 10 29  1  0  0  0  0 
 11 12  2  0  0  0  0 
 12 10  1  0  0  0  0 
 12  9  1  0  0  0  0 
 14  1  1  0  0  0  0 
 16  2  1  0  0  0  0 
 19  3  1  0  0  0  0 
 20  4  1  0  0  0  0 
 22  5  1  0  0  0  0 
 24  6  1  0  0  0  0 
 26  8  1  0  0  0  0 
 28  9  1  0  0  0  0 
 30 11  1  0  0  0  0 
M  END 
>  <HBA> 
0 
 
>  <HBD> 
0 
 
>  <TPSA> 
0.0 
 
>  <cid> 
14109 
 
>  <dipole> 
0.21 
 
>  <excitation_energy_1> 
5.281 
 
>  <excitation_energy_2> 
5.813 
 
>  <excitation_energy_3> 
6.024 
 
>  <excitation_energy_4> 
6.2 
 
>  <homo_energy> 
-6.4 
 
>  <homo_lumo_gap> 
6.498 
 
>  <logP> 
3.809 
 
>  <lumo_energy> 
0.098 
 
>  <melting_point> 
3.83 
 
>  <molecular_refractivity> 
55.44 
 
>  <oscillator_strength_1> 
0.001 
 
>  <oscillator_strength_2> 
0.0499 
 
>  <oscillator_strength_3> 
0.003 
 
>  <oscillator_strength_4> 
0.0097 
 
>  <open_babel_can_smiles> 
CCCCCCc1ccccc1 
 
>  <mulliken_charges> 
30 
1   -0.441306 
2   -0.247155 
3   -0.245756 
4   -0.254288 
5   -0.132596 
6   -0.251086 
7   -0.127073 
8   -0.127628 
9   -0.350948 
10   -0.185767 
11   -0.180964 
12   0.178634 
13   0.140944 
14   0.141116 
15   0.140324 
16   0.131722 
17   0.128932 
18   0.124716 
19   0.127249 
20   0.142897 
21   0.122467 
22   0.126341 
23   0.129098 
24   0.133494 
25   0.126775 
26   0.126748 
27   0.137438 
28   0.141977 
29   0.122066 
30   0.121627 
 
>  <lowdin_charges> 
30 
1   -0.445111 
2   -0.27366 
3   -0.275558 
4   -0.280029 
5   -0.163803 
6   -0.272784 
7   -0.155619 
8   -0.155817 
9   -0.273676 
10   -0.170285 
11   -0.166903 
12   -0.000355 
13   0.148009 
14   0.14663 
15   0.14651 
16   0.140478 
17   0.138742 
18   0.136932 
19   0.138206 
20   0.146952 
21   0.136073 
22   0.156778 
23   0.14118 
24   0.141166 
25   0.156441 
26   0.15603 
27   0.146884 
28   0.149422 
29   0.153695 
30   0.153472 
 
$$$$ 
 
