PCCDB-ID:  34050 
public computational chemistry database (PCCDB) project, http://pccdb.org 
 
 27 27  0  0  0  0  0  0  0  0999 V2000 
    0.7274   -1.0241    2.5616 C   0  0  0  0  0  0  0  0  0  0  0  0 
    1.8312    0.0194    2.3919 C   0  0  0  0  0  0  0  0  0  0  0  0 
    8.6362    2.3804    0.5817 C   0  0  0  0  0  0  0  0  0  0  0  0 
    7.6966    1.4554    1.0266 C   0  0  0  0  0  0  0  0  0  0  0  0 
    9.7029    1.9265   -0.1972 C   0  0  0  0  0  0  0  0  0  0  0  0 
    4.9693   -1.4557    2.3448 C   0  0  0  0  0  0  0  0  0  0  0  0 
    3.8605   -1.6733    1.3188 C   0  0  0  0  0  0  0  0  0  0  0  0 
    8.9711   -0.2342   -0.1170 C   0  0  0  0  0  0  0  0  0  0  0  0 
    7.8643    0.1121    0.6714 C   0  0  0  0  0  0  0  0  0  0  0  0 
    6.9214   -0.9632    1.0829 C   0  0  0  0  0  0  0  0  0  0  0  0 
    9.8798    0.6449   -0.5474 N   0  0  0  0  0  0  0  0  0  0  0  0 
    7.0110   -2.1244    0.7342 O   0  0  0  0  0  0  0  0  0  0  0  0 
    5.9486   -0.4975    1.9021 O   0  0  0  0  0  0  0  0  0  0  0  0 
    2.8731   -0.1876    0.8891 S   0  0  0  0  0  0  0  0  0  0  0  0 
    0.1290   -0.8007    3.4539 H   0  0  0  0  0  0  0  0  0  0  0  0 
    1.1357   -2.0332    2.6844 H   0  0  0  0  0  0  0  0  0  0  0  0 
    0.0619   -1.0341    1.6931 H   0  0  0  0  0  0  0  0  0  0  0  0 
    2.4764    0.0620    3.2768 H   0  0  0  0  0  0  0  0  0  0  0  0 
    1.3977    1.0184    2.2751 H   0  0  0  0  0  0  0  0  0  0  0  0 
    8.5472    3.4337    0.8297 H   0  0  0  0  0  0  0  0  0  0  0  0 
    6.8475    1.7569    1.6299 H   0  0  0  0  0  0  0  0  0  0  0  0 
   10.4536    2.6264   -0.5608 H   0  0  0  0  0  0  0  0  0  0  0  0 
    5.4691   -2.4073    2.5495 H   0  0  0  0  0  0  0  0  0  0  0  0 
    4.5815   -1.0413    3.2782 H   0  0  0  0  0  0  0  0  0  0  0  0 
    3.1980   -2.4702    1.6754 H   0  0  0  0  0  0  0  0  0  0  0  0 
    4.2979   -2.0203    0.3787 H   0  0  0  0  0  0  0  0  0  0  0  0 
    9.1148   -1.2732   -0.4027 H   0  0  0  0  0  0  0  0  0  0  0  0 
  1 16  1  0  0  0  0 
  1 15  1  0  0  0  0 
  2  1  1  0  0  0  0 
  2 18  1  0  0  0  0 
  3 20  1  0  0  0  0 
  3  4  2  0  0  0  0 
  4 21  1  0  0  0  0 
  5  3  1  0  0  0  0 
  6 23  1  0  0  0  0 
  6 24  1  0  0  0  0 
  7 25  1  0  0  0  0 
  7  6  1  0  0  0  0 
  8  9  2  0  0  0  0 
  9  4  1  0  0  0  0 
  9 10  1  0  0  0  0 
 10 13  1  0  0  0  0 
 11  5  2  0  0  0  0 
 11  8  1  0  0  0  0 
 12 10  2  0  0  0  0 
 13  6  1  0  0  0  0 
 14  7  1  0  0  0  0 
 14  2  1  0  0  0  0 
 17  1  1  0  0  0  0 
 19  2  1  0  0  0  0 
 22  5  1  0  0  0  0 
 26  7  1  0  0  0  0 
 27  8  1  0  0  0  0 
M  END 
>  <HBA> 
4 
 
>  <HBD> 
0 
 
>  <TPSA> 
64.49 
 
>  <cid> 
34050 
 
>  <dipole> 
4.2 
 
>  <excitation_energy_1> 
3.843 
 
>  <excitation_energy_2> 
4.268 
 
>  <excitation_energy_3> 
4.706 
 
>  <excitation_energy_4> 
4.913 
 
>  <homo_energy> 
-6.125 
 
>  <homo_lumo_gap> 
4.585 
 
>  <logP> 
1.992 
 
>  <lumo_energy> 
-1.54 
 
>  <melting_point> 
51.74 
 
>  <molecular_refractivity> 
57.53 
 
>  <oscillator_strength_1> 
0.001 
 
>  <oscillator_strength_2> 
0.0006 
 
>  <oscillator_strength_3> 
0.0014 
 
>  <oscillator_strength_4> 
0.0017 
 
>  <open_babel_can_smiles> 
CCSCCOC(=O)c1cccnc1 
 
>  <mulliken_charges> 
27 
1   -0.43543 
2   -0.414722 
3   -0.147732 
4   -0.121101 
5   0.050915 
6   -0.040242 
7   -0.445361 
8   0.025933 
9   0.025461 
10   0.599979 
11   -0.413476 
12   -0.490083 
13   -0.468876 
14   0.095782 
15   0.150522 
16   0.150131 
17   0.167355 
18   0.166558 
19   0.179261 
20   0.145601 
21   0.175468 
22   0.150317 
23   0.177526 
24   0.159352 
25   0.174802 
26   0.205954 
27   0.176108 
 
>  <lowdin_charges> 
27 
1   -0.448143 
2   -0.375761 
3   -0.173585 
4   -0.109428 
5   -0.074347 
6   -0.135753 
7   -0.394292 
8   -0.062234 
9   -0.063652 
10   0.198603 
11   -0.144069 
12   -0.267559 
13   -0.182765 
14   0.093127 
15   0.154475 
16   0.14889 
17   0.161341 
18   0.153123 
19   0.169241 
20   0.166693 
21   0.180614 
22   0.162204 
23   0.164455 
24   0.155058 
25   0.165308 
26   0.184561 
27   0.173896 
 
$$$$ 
 
