PCCDB-ID:  33372 
public computational chemistry database (PCCDB) project, http://pccdb.org 
 
 34 34  0  0  0  0  0  0  0  0999 V2000 
    3.3146    1.1582   -0.4138 C   0  0  0  0  0  0  0  0  0  0  0  0 
    7.1997   -1.0177   -2.2830 C   0  0  0  0  0  0  0  0  0  0  0  0 
    3.6657    0.1822    0.7131 C   0  0  0  0  0  0  0  0  0  0  0  0 
    5.2480   -4.8076   -1.6268 C   0  0  0  0  0  0  0  0  0  0  0  0 
    6.8317   -5.9955   -3.1026 C   0  0  0  0  0  0  0  0  0  0  0  0 
    4.7655   -3.6618   -0.9960 C   0  0  0  0  0  0  0  0  0  0  0  0 
    7.9320   -6.1641   -3.8689 C   0  0  0  0  0  0  0  0  0  0  0  0 
    3.8805   -1.2486    0.2360 C   0  0  0  0  0  0  0  0  0  0  0  0 
    6.9828   -3.5096   -2.6690 C   0  0  0  0  0  0  0  0  0  0  0  0 
    6.5289   -2.3490   -2.0585 C   0  0  0  0  0  0  0  0  0  0  0  0 
    6.3652   -4.7636   -2.4723 C   0  0  0  0  0  0  0  0  0  0  0  0 
    5.4009   -2.4346   -1.2072 C   0  0  0  0  0  0  0  0  0  0  0  0 
    8.2896   -7.4354   -4.4867 C   0  0  0  0  0  0  0  0  0  0  0  0 
    9.4343   -7.7556   -4.9845 N   0  0  0  0  0  0  0  0  0  0  0  0 
    7.3499   -8.4309   -4.5583 O   0  0  0  0  0  0  0  0  0  0  0  0 
   10.3874   -6.7366   -4.7539 O   0  0  0  0  0  0  0  0  0  0  0  0 
    5.0101   -1.2592   -0.6392 O   0  0  0  0  0  0  0  0  0  0  0  0 
    3.1738    2.1719   -0.0237 H   0  0  0  0  0  0  0  0  0  0  0  0 
    2.3867    0.8622   -0.9187 H   0  0  0  0  0  0  0  0  0  0  0  0 
    4.1100    1.1899   -1.1643 H   0  0  0  0  0  0  0  0  0  0  0  0 
    8.0643   -1.1245   -2.9448 H   0  0  0  0  0  0  0  0  0  0  0  0 
    7.5399   -0.5784   -1.3380 H   0  0  0  0  0  0  0  0  0  0  0  0 
    6.5095   -0.2939   -2.7330 H   0  0  0  0  0  0  0  0  0  0  0  0 
    2.8628    0.1630    1.4619 H   0  0  0  0  0  0  0  0  0  0  0  0 
    4.5729    0.5149    1.2327 H   0  0  0  0  0  0  0  0  0  0  0  0 
    4.7472   -5.7572   -1.4523 H   0  0  0  0  0  0  0  0  0  0  0  0 
    6.2168   -6.8709   -2.8902 H   0  0  0  0  0  0  0  0  0  0  0  0 
    3.9001   -3.7349   -0.3481 H   0  0  0  0  0  0  0  0  0  0  0  0 
    8.6257   -5.3523   -4.0559 H   0  0  0  0  0  0  0  0  0  0  0  0 
    2.9938   -1.6170   -0.3010 H   0  0  0  0  0  0  0  0  0  0  0  0 
    4.0672   -1.9192    1.0865 H   0  0  0  0  0  0  0  0  0  0  0  0 
    7.8460   -3.4371   -3.3249 H   0  0  0  0  0  0  0  0  0  0  0  0 
    6.4842   -8.0078   -4.6738 H   0  0  0  0  0  0  0  0  0  0  0  0 
   11.1575   -7.0868   -5.2262 H   0  0  0  0  0  0  0  0  0  0  0  0 
  1 18  1  0  0  0  0 
  1  3  1  0  0  0  0 
  2 10  1  0  0  0  0 
  2 22  1  0  0  0  0 
  3 25  1  0  0  0  0 
  3 24  1  0  0  0  0 
  4 26  1  0  0  0  0 
  4  6  2  0  0  0  0 
  5 27  1  0  0  0  0 
  5 11  1  0  0  0  0 
  6 28  1  0  0  0  0 
  7  5  2  0  0  0  0 
  8  3  1  0  0  0  0 
  8 31  1  0  0  0  0 
  9 11  2  0  0  0  0 
  9 10  1  0  0  0  0 
 10 12  2  0  0  0  0 
 11  4  1  0  0  0  0 
 12  6  1  0  0  0  0 
 12 17  1  0  0  0  0 
 13  7  1  0  0  0  0 
 14 16  1  0  0  0  0 
 14 13  2  0  0  0  0 
 15 13  1  0  0  0  0 
 17  8  1  0  0  0  0 
 19  1  1  0  0  0  0 
 20  1  1  0  0  0  0 
 21  2  1  0  0  0  0 
 23  2  1  0  0  0  0 
 29  7  1  0  0  0  0 
 30  8  1  0  0  0  0 
 32  9  1  0  0  0  0 
 33 15  1  0  0  0  0 
 34 16  1  0  0  0  0 
M  END 
>  <HBA> 
4 
 
>  <HBD> 
2 
 
>  <TPSA> 
58.56 
 
>  <cid> 
33372 
 
>  <dipole> 
4.95 
 
>  <excitation_energy_1> 
3.852 
 
>  <excitation_energy_2> 
4.381 
 
>  <excitation_energy_3> 
4.49 
 
>  <excitation_energy_4> 
4.933 
 
>  <homo_energy> 
-5.431 
 
>  <homo_lumo_gap> 
4.049 
 
>  <logP> 
2.693 
 
>  <lumo_energy> 
-1.382 
 
>  <melting_point> 
138.27 
 
>  <molecular_refractivity> 
66.14 
 
>  <oscillator_strength_1> 
0.8048 
 
>  <oscillator_strength_2> 
0.0116 
 
>  <oscillator_strength_3> 
0.0804 
 
>  <oscillator_strength_4> 
0.0107 
 
>  <open_babel_can_smiles> 
CCCOc1ccc(cc1C)/C=C/C(=N\O)/O 
 
>  <mulliken_charges> 
34 
1   -0.445027 
2   -0.516187 
3   -0.272816 
4   -0.211816 
5   -0.20406 
6   -0.194758 
7   -0.161645 
8   -0.031785 
9   -0.252599 
10   0.131531 
11   0.190222 
12   0.334101 
13   0.487514 
14   -0.250567 
15   -0.603789 
16   -0.517708 
17   -0.517389 
18   0.148064 
19   0.142322 
20   0.166058 
21   0.152197 
22   0.167262 
23   0.166062 
24   0.140744 
25   0.152925 
26   0.13026 
27   0.128124 
28   0.137201 
29   0.167885 
30   0.139975 
31   0.143528 
32   0.130757 
33   0.404355 
34   0.419057 
 
>  <lowdin_charges> 
34 
1   -0.446367 
2   -0.43832 
3   -0.278634 
4   -0.150256 
5   -0.143396 
6   -0.211412 
7   -0.204513 
8   -0.128188 
9   -0.152884 
10   -0.020072 
11   -0.024705 
12   0.100079 
13   0.094639 
14   -0.093679 
15   -0.374711 
16   -0.388308 
17   -0.194568 
18   0.152418 
19   0.147718 
20   0.158481 
21   0.156805 
22   0.164411 
23   0.164051 
24   0.150693 
25   0.152739 
26   0.157599 
27   0.153936 
28   0.164426 
29   0.177361 
30   0.139011 
31   0.142353 
32   0.159585 
33   0.356156 
34   0.357551 
 
$$$$ 
 
