PCCDB-ID:  69402 
public computational chemistry database (PCCDB) project, http://pccdb.org 
 
 12 11  0  0  0  0  0  0  0  0999 V2000 
    0.9489   -0.0676   -0.0687 C   0  0  0  0  0  0  0  0  0  0  0  0 
    6.8678    1.0291   -0.9861 C   0  0  0  0  0  0  0  0  0  0  0  0 
    2.1562   -0.0772   -0.0612 C   0  0  0  0  0  0  0  0  0  0  0  0 
    5.6604    1.0423   -0.9900 C   0  0  0  0  0  0  0  0  0  0  0  0 
    3.6182   -0.0754   -0.0697 C   0  0  0  0  0  0  0  0  0  0  0  0 
    4.1985    1.0370   -0.9857 C   0  0  0  0  0  0  0  0  0  0  0  0 
   -0.1174   -0.0606   -0.0704 H   0  0  0  0  0  0  0  0  0  0  0  0 
    7.9340    1.0226   -0.9836 H   0  0  0  0  0  0  0  0  0  0  0  0 
    3.9943   -1.0487   -0.4084 H   0  0  0  0  0  0  0  0  0  0  0  0 
    4.0000    0.0671    0.9490 H   0  0  0  0  0  0  0  0  0  0  0  0 
    3.8206    0.8916   -2.0055 H   0  0  0  0  0  0  0  0  0  0  0  0 
    3.8183    2.0097   -0.6500 H   0  0  0  0  0  0  0  0  0  0  0  0 
  1  3  3  0  0  0  0 
  2  8  1  0  0  0  0 
  4  2  3  0  0  0  0 
  4  6  1  0  0  0  0 
  5  3  1  0  0  0  0 
  5 10  1  0  0  0  0 
  6 12  1  0  0  0  0 
  6  5  1  0  0  0  0 
  7  1  1  0  0  0  0 
  9  5  1  0  0  0  0 
 11  6  1  0  0  0  0 
M  END 
>  <HBA> 
0 
 
>  <HBD> 
0 
 
>  <TPSA> 
0.0 
 
>  <cid> 
69402 
 
>  <dipole> 
0.0 
 
>  <excitation_energy_1> 
6.432 
 
>  <excitation_energy_2> 
6.473 
 
>  <excitation_energy_3> 
6.582 
 
>  <excitation_energy_4> 
6.624 
 
>  <homo_energy> 
-7.08 
 
>  <homo_lumo_gap> 
8.185 
 
>  <logP> 
1.033 
 
>  <lumo_energy> 
1.105 
 
>  <melting_point> 
8.13 
 
>  <molecular_refractivity> 
27.28 
 
>  <oscillator_strength_1> 
0.0 
 
>  <oscillator_strength_2> 
0.0 
 
>  <oscillator_strength_3> 
0.0177 
 
>  <oscillator_strength_4> 
0.0 
 
>  <open_babel_can_smiles> 
C#CCCC#C 
 
>  <mulliken_charges> 
12 
1   -0.522798 
2   -0.522914 
3   0.374784 
4   0.374873 
5   -0.410061 
6   -0.410138 
7   0.190029 
8   0.190018 
9   0.184148 
10   0.183958 
11   0.184133 
12   0.183968 
 
>  <lowdin_charges> 
12 
1   -0.254607 
2   -0.254614 
3   -0.043791 
4   -0.043789 
5   -0.251929 
6   -0.251933 
7   0.203134 
8   0.203134 
9   0.173954 
10   0.17325 
11   0.173317 
12   0.173876 
 
$$$$ 
 
