PCCDB-ID:  31518 
public computational chemistry database (PCCDB) project, http://pccdb.org 
 
 26 27  0  0  1  0  0  0  0  0999 V2000 
    1.0066    0.2757   -0.3719 C   0  0  0  0  0  0  0  0  0  0  0  0 
    4.6544   -5.3463    1.1332 C   0  0  0  0  0  0  0  0  0  0  0  0 
    5.0440    0.5601    3.6946 C   0  0  0  0  0  0  0  0  0  0  0  0 
    4.2894    1.3924    2.8488 C   0  0  0  0  0  0  0  0  0  0  0  0 
    5.1024   -0.8185    3.4976 C   0  0  0  0  0  0  0  0  0  0  0  0 
    2.4876    0.3027   -0.0801 C   0  0  1  0  0  0  0  0  0  0  0  0 
    3.6190    0.7742    1.8100 C   0  0  0  0  0  0  0  0  0  0  0  0 
    4.4068   -1.4181    2.4379 C   0  0  0  0  0  0  0  0  0  0  0  0 
    3.6775   -0.5995    1.5937 C   0  0  0  0  0  0  0  0  0  0  0  0 
    3.4693   -3.6088    2.1977 C   0  0  0  0  0  0  0  0  0  0  0  0 
    3.4640   -4.7886    1.7514 N   0  0  0  0  0  0  0  0  0  0  0  0 
    2.3771   -3.0466    2.7609 O   0  0  0  0  0  0  0  0  0  0  0  0 
    2.8046    1.3454    0.8620 O   0  0  0  0  0  0  0  0  0  0  0  0 
    2.9117   -0.9445    0.5123 O   0  0  0  0  0  0  0  0  0  0  0  0 
    4.5541   -2.7811    2.2142 O   0  0  0  0  0  0  0  0  0  0  0  0 
    0.6967    1.2283   -0.8121 H   0  0  0  0  0  0  0  0  0  0  0  0 
    0.4498    0.1089    0.5545 H   0  0  0  0  0  0  0  0  0  0  0  0 
    0.7811   -0.5295   -1.0777 H   0  0  0  0  0  0  0  0  0  0  0  0 
    4.3759   -5.8099    0.1797 H   0  0  0  0  0  0  0  0  0  0  0  0 
    5.0613   -6.1420    1.7704 H   0  0  0  0  0  0  0  0  0  0  0  0 
    5.4485   -4.6126    0.9482 H   0  0  0  0  0  0  0  0  0  0  0  0 
    5.5947    1.0020    4.5192 H   0  0  0  0  0  0  0  0  0  0  0  0 
    4.2329    2.4648    2.9977 H   0  0  0  0  0  0  0  0  0  0  0  0 
    5.6889   -1.4552    4.1516 H   0  0  0  0  0  0  0  0  0  0  0  0 
    3.0883    0.4673   -0.9868 H   0  0  0  0  0  0  0  0  0  0  0  0 
    1.6797   -3.7203    2.6762 H   0  0  0  0  0  0  0  0  0  0  0  0 
  1  6  1  0  0  0  0 
  1 17  1  0  0  0  0 
  2 11  1  0  0  0  0 
  2 20  1  0  0  0  0 
  3 22  1  0  0  0  0 
  4 23  1  0  0  0  0 
  4  3  2  0  0  0  0 
  5  3  1  0  0  0  0 
  5 24  1  0  0  0  0 
  6 25  1  6  0  0  0 
  6 14  1  0  0  0  0 
  6 13  1  0  0  0  0 
  7  4  1  0  0  0  0 
  8  5  2  0  0  0  0 
  9  7  2  0  0  0  0 
  9  8  1  0  0  0  0 
 10 15  1  0  0  0  0 
 10 12  1  0  0  0  0 
 11 10  2  0  0  0  0 
 13  7  1  0  0  0  0 
 14  9  1  0  0  0  0 
 15  8  1  0  0  0  0 
 16  1  1  0  0  0  0 
 18  1  1  0  0  0  0 
 19  2  1  0  0  0  0 
 21  2  1  0  0  0  0 
 26 12  1  0  0  0  0 
M  END 
>  <HBA> 
5 
 
>  <HBD> 
1 
 
>  <TPSA> 
56.79 
 
>  <cid> 
31518 
 
>  <dipole> 
1.57 
 
>  <excitation_energy_1> 
4.862 
 
>  <excitation_energy_2> 
5.251 
 
>  <excitation_energy_3> 
5.33 
 
>  <excitation_energy_4> 
5.592 
 
>  <homo_energy> 
-5.687 
 
>  <homo_lumo_gap> 
5.736 
 
>  <logP> 
1.913 
 
>  <lumo_energy> 
0.049 
 
>  <melting_point> 
101.46 
 
>  <molecular_refractivity> 
52.0 
 
>  <oscillator_strength_1> 
0.0566 
 
>  <oscillator_strength_2> 
0.0117 
 
>  <oscillator_strength_3> 
0.0161 
 
>  <oscillator_strength_4> 
0.006 
 
>  <open_babel_can_smiles> 
C/N=C(\Oc1cccc2c1O[C@H](O2)C)/O 
 
>  <mulliken_charges> 
26 
1   -0.457099 
2   -0.324236 
3   -0.155103 
4   -0.180817 
5   -0.175675 
6   0.34945 
7   0.335991 
8   0.299368 
9   0.327418 
10   0.714639 
11   -0.48085 
12   -0.589638 
13   -0.541329 
14   -0.543914 
15   -0.539903 
16   0.166942 
17   0.172429 
18   0.167755 
19   0.15356 
20   0.153768 
21   0.154484 
22   0.136114 
23   0.144248 
24   0.142271 
25   0.146757 
26   0.42337 
 
>  <lowdin_charges> 
26 
1   -0.454006 
2   -0.354492 
3   -0.157451 
4   -0.188202 
5   -0.182147 
6   0.138606 
7   0.077798 
8   0.078205 
9   0.055509 
10   0.190913 
11   -0.258203 
12   -0.358553 
13   -0.205376 
14   -0.201683 
15   -0.155123 
16   0.16837 
17   0.169204 
18   0.16944 
19   0.151412 
20   0.152309 
21   0.14531 
22   0.16395 
23   0.169189 
24   0.172158 
25   0.139345 
26   0.373518 
 
$$$$ 
 
