PCCDB-ID:  16294 
public computational chemistry database (PCCDB) project, http://pccdb.org 
 
 27 27  0  0  0  0  0  0  0  0999 V2000 
    0.6399    2.7370   -1.4874 C   0  0  0  0  0  0  0  0  0  0  0  0 
    2.4294    3.1899    0.2331 C   0  0  0  0  0  0  0  0  0  0  0  0 
    6.1051    4.0882   -4.6053 C   0  0  0  0  0  0  0  0  0  0  0  0 
    5.4958    2.8907   -4.9877 C   0  0  0  0  0  0  0  0  0  0  0  0 
    6.1582    4.4295   -3.2538 C   0  0  0  0  0  0  0  0  0  0  0  0 
    4.9436    2.0471   -4.0246 C   0  0  0  0  0  0  0  0  0  0  0  0 
    5.6037    3.5800   -2.2938 C   0  0  0  0  0  0  0  0  0  0  0  0 
    2.8187    1.4696   -1.6191 C   0  0  0  0  0  0  0  0  0  0  0  0 
    4.3646    1.4592   -1.6279 C   0  0  0  0  0  0  0  0  0  0  0  0 
    2.1527    2.8038   -1.2279 C   0  0  0  0  0  0  0  0  0  0  0  0 
    4.9842    2.3786   -2.6617 C   0  0  0  0  0  0  0  0  0  0  0  0 
    0.1520    3.6877   -1.2413 H   0  0  0  0  0  0  0  0  0  0  0  0 
    0.1694    1.9553   -0.8762 H   0  0  0  0  0  0  0  0  0  0  0  0 
    0.4248    2.5116   -2.5388 H   0  0  0  0  0  0  0  0  0  0  0  0 
    1.9452    4.1410    0.4843 H   0  0  0  0  0  0  0  0  0  0  0  0 
    3.4998    3.3041    0.4366 H   0  0  0  0  0  0  0  0  0  0  0  0 
    2.0392    2.4272    0.9202 H   0  0  0  0  0  0  0  0  0  0  0  0 
    6.5382    4.7459   -5.3542 H   0  0  0  0  0  0  0  0  0  0  0  0 
    5.4565    2.6106   -6.0374 H   0  0  0  0  0  0  0  0  0  0  0  0 
    6.6338    5.3565   -2.9437 H   0  0  0  0  0  0  0  0  0  0  0  0 
    4.4771    1.1133   -4.3325 H   0  0  0  0  0  0  0  0  0  0  0  0 
    5.6567    3.8515   -1.2416 H   0  0  0  0  0  0  0  0  0  0  0  0 
    2.4687    0.6841   -0.9326 H   0  0  0  0  0  0  0  0  0  0  0  0 
    2.4662    1.1803   -2.6190 H   0  0  0  0  0  0  0  0  0  0  0  0 
    4.6932    0.4288   -1.8196 H   0  0  0  0  0  0  0  0  0  0  0  0 
    4.7451    1.7180   -0.6327 H   0  0  0  0  0  0  0  0  0  0  0  0 
    2.5699    3.5902   -1.8728 H   0  0  0  0  0  0  0  0  0  0  0  0 
  1 12  1  0  0  0  0 
  1 10  1  0  0  0  0 
  1 13  1  0  0  0  0 
  2 16  1  0  0  0  0 
  2 15  1  0  0  0  0 
  2 17  1  0  0  0  0 
  3  5  1  0  0  0  0 
  4  3  2  0  0  0  0 
  4  6  1  0  0  0  0 
  5 20  1  0  0  0  0 
  5  7  2  0  0  0  0 
  6 11  2  0  0  0  0 
  7 22  1  0  0  0  0 
  8 10  1  0  0  0  0 
  8 23  1  0  0  0  0 
  9  8  1  0  0  0  0 
  9 26  1  0  0  0  0 
 10  2  1  0  0  0  0 
 11  7  1  0  0  0  0 
 11  9  1  0  0  0  0 
 14  1  1  0  0  0  0 
 18  3  1  0  0  0  0 
 19  4  1  0  0  0  0 
 21  6  1  0  0  0  0 
 24  8  1  0  0  0  0 
 25  9  1  0  0  0  0 
 27 10  1  0  0  0  0 
M  END 
>  <HBA> 
0 
 
>  <HBD> 
0 
 
>  <TPSA> 
0.0 
 
>  <cid> 
16294 
 
>  <dipole> 
0.15 
 
>  <excitation_energy_1> 
5.282 
 
>  <excitation_energy_2> 
5.824 
 
>  <excitation_energy_3> 
5.992 
 
>  <excitation_energy_4> 
6.179 
 
>  <homo_energy> 
-6.408 
 
>  <homo_lumo_gap> 
6.49 
 
>  <logP> 
3.275 
 
>  <lumo_energy> 
0.082 
 
>  <melting_point> 
4.49 
 
>  <molecular_refractivity> 
50.64 
 
>  <oscillator_strength_1> 
0.0012 
 
>  <oscillator_strength_2> 
0.0433 
 
>  <oscillator_strength_3> 
0.0018 
 
>  <oscillator_strength_4> 
0.0056 
 
>  <open_babel_can_smiles> 
CC(CCc1ccccc1)C 
 
>  <mulliken_charges> 
27 
1   -0.442521 
2   -0.445874 
3   -0.13264 
4   -0.127276 
5   -0.126587 
6   -0.181536 
7   -0.188567 
8   -0.246534 
9   -0.356659 
10   -0.066158 
11   0.17963 
12   0.139104 
13   0.136438 
14   0.140167 
15   0.140722 
16   0.14049 
17   0.136581 
18   0.126522 
19   0.12689 
20   0.126986 
21   0.122151 
22   0.122791 
23   0.125266 
24   0.130778 
25   0.143047 
26   0.141222 
27   0.135568 
 
>  <lowdin_charges> 
27 
1   -0.443714 
2   -0.446335 
3   -0.164374 
4   -0.153853 
5   -0.15552 
6   -0.167048 
7   -0.169438 
8   -0.273046 
9   -0.275748 
10   -0.124949 
11   0.00017 
12   0.147511 
13   0.145003 
14   0.146173 
15   0.148848 
16   0.143804 
17   0.145278 
18   0.157649 
19   0.154768 
20   0.15633 
21   0.153309 
22   0.152 
23   0.140058 
24   0.140808 
25   0.151163 
26   0.147072 
27   0.144083 
 
$$$$ 
 
