PCCDB-ID:  36065 
public computational chemistry database (PCCDB) project, http://pccdb.org 
 
 17 17  0  0  0  0  0  0  0  0999 V2000 
    1.1598   -0.1348   -0.6111 C   0  0  0  0  0  0  0  0  0  0  0  0 
    2.7862   -2.7704    0.0765 C   0  0  0  0  0  0  0  0  0  0  0  0 
    4.8180   -2.7316    1.1209 C   0  0  0  0  0  0  0  0  0  0  0  0 
    2.5078   -0.1545    0.0761 C   0  0  0  0  0  0  0  0  0  0  0  0 
    3.8438   -3.5628    0.5765 C   0  0  0  0  0  0  0  0  0  0  0  0 
    3.1412   -1.4554    0.3286 C   0  0  0  0  0  0  0  0  0  0  0  0 
    4.3745   -1.4681    0.9607 N   0  0  0  0  0  0  0  0  0  0  0  0 
    3.9255   -4.9933    0.5422 N   0  0  0  0  0  0  0  0  0  0  0  0 
    3.0862    0.8690    0.4269 O   0  0  0  0  0  0  0  0  0  0  0  0 
    2.9843   -5.6032    0.0298 O   0  0  0  0  0  0  0  0  0  0  0  0 
    4.9323   -5.5180    1.0279 O   0  0  0  0  0  0  0  0  0  0  0  0 
    0.4185   -0.6920   -0.0261 H   0  0  0  0  0  0  0  0  0  0  0  0 
    1.2208   -0.6097   -1.5976 H   0  0  0  0  0  0  0  0  0  0  0  0 
    0.8318    0.8998   -0.7243 H   0  0  0  0  0  0  0  0  0  0  0  0 
    1.8906   -3.1356   -0.4024 H   0  0  0  0  0  0  0  0  0  0  0  0 
    5.7573   -2.9808    1.5891 H   0  0  0  0  0  0  0  0  0  0  0  0 
    4.8294   -0.6080    1.2419 H   0  0  0  0  0  0  0  0  0  0  0  0 
  1 12  1  0  0  0  0 
  1  4  1  0  0  0  0 
  2  6  2  0  0  0  0 
  2  5  1  0  0  0  0 
  3 16  1  0  0  0  0 
  4  6  1  0  0  0  0 
  4  9  2  0  0  0  0 
  5  3  2  0  0  0  0 
  6  7  1  0  0  0  0 
  7  3  1  0  0  0  0 
  7 17  1  0  0  0  0 
  8  5  1  0  0  0  0 
  8 11  2  0  0  0  0 
 10  8  2  0  0  0  0 
 13  1  1  0  0  0  0 
 14  1  1  0  0  0  0 
 15  2  1  0  0  0  0 
M  END 
>  <HBA> 
1 
 
>  <HBD> 
1 
 
>  <TPSA> 
78.68 
 
>  <cid> 
36065 
 
>  <dipole> 
3.21 
 
>  <excitation_energy_1> 
3.852 
 
>  <excitation_energy_2> 
4.011 
 
>  <excitation_energy_3> 
4.146 
 
>  <excitation_energy_4> 
4.33 
 
>  <homo_energy> 
-7.091 
 
>  <homo_lumo_gap> 
4.914 
 
>  <logP> 
1.649 
 
>  <lumo_energy> 
-2.177 
 
>  <melting_point> 
125.28 
 
>  <molecular_refractivity> 
39.81 
 
>  <oscillator_strength_1> 
0.0 
 
>  <oscillator_strength_2> 
0.0001 
 
>  <oscillator_strength_3> 
0.0954 
 
>  <oscillator_strength_4> 
0.0004 
 
>  <open_babel_can_smiles> 
CC(=O)c1[nH]cc(c1)N(=O)=O 
 
>  <mulliken_charges> 
17 
1   -0.539898 
2   -0.203399 
3   0.102788 
4   0.420384 
5   0.229118 
6   0.263362 
7   -0.612578 
8   0.341098 
9   -0.481035 
10   -0.402849 
11   -0.411098 
12   0.180631 
13   0.180505 
14   0.1887 
15   0.178318 
16   0.202898 
17   0.363056 
 
>  <lowdin_charges> 
17 
1   -0.46954 
2   -0.168662 
3   -0.089548 
4   0.159037 
5   -0.040332 
6   -0.032092 
7   -0.127233 
8   0.316581 
9   -0.260981 
10   -0.255282 
11   -0.262131 
12   0.177465 
13   0.175817 
14   0.178585 
15   0.19114 
16   0.195655 
17   0.311522 
 
$$$$ 
 
