PCCDB-ID:  14522 
public computational chemistry database (PCCDB) project, http://pccdb.org 
 
 27 28  0  0  1  0  0  0  0  0999 V2000 
    1.2552   -0.5591   -0.4771 C   0  0  0  0  0  0  0  0  0  0  0  0 
    3.2862    2.3955    2.3398 C   0  0  0  0  0  0  0  0  0  0  0  0 
    3.4312    3.1704    1.0009 C   0  0  0  0  0  0  0  0  0  0  0  0 
    0.8822    1.8843    1.7694 C   0  0  0  0  0  0  0  0  0  0  0  0 
    1.0426    2.6395    0.4140 C   0  0  0  0  0  0  0  0  0  0  0  0 
    2.6665    0.0421    1.4740 C   0  0  0  0  0  0  0  0  0  0  0  0 
    2.9430    1.2506   -0.6550 C   0  0  0  0  0  0  0  0  0  0  0  0 
    2.2090    1.2914    2.2851 C   0  0  1  0  0  0  0  0  0  0  0  0 
    2.4951    2.6384   -0.1030 C   0  0  2  0  0  0  0  0  0  0  0  0 
    2.4664    0.0602    0.0326 N   0  0  0  0  0  0  0  0  0  0  0  0 
    1.1482   -1.5575   -0.0363 H   0  0  0  0  0  0  0  0  0  0  0  0 
    1.3479   -0.6913   -1.5619 H   0  0  0  0  0  0  0  0  0  0  0  0 
    0.3110   -0.0153   -0.2922 H   0  0  0  0  0  0  0  0  0  0  0  0 
    3.0230    3.0955    3.1433 H   0  0  0  0  0  0  0  0  0  0  0  0 
    4.2441    1.9475    2.6324 H   0  0  0  0  0  0  0  0  0  0  0  0 
    4.4684    3.1355    0.6446 H   0  0  0  0  0  0  0  0  0  0  0  0 
    3.2033    4.2321    1.1626 H   0  0  0  0  0  0  0  0  0  0  0  0 
    0.1301    1.0914    1.6824 H   0  0  0  0  0  0  0  0  0  0  0  0 
    0.5003    2.5784    2.5289 H   0  0  0  0  0  0  0  0  0  0  0  0 
    0.7286    3.6833    0.5419 H   0  0  0  0  0  0  0  0  0  0  0  0 
    0.3752    2.2169   -0.3458 H   0  0  0  0  0  0  0  0  0  0  0  0 
    2.1418   -0.8401    1.8594 H   0  0  0  0  0  0  0  0  0  0  0  0 
    3.7374   -0.1203    1.6820 H   0  0  0  0  0  0  0  0  0  0  0  0 
    4.0457    1.2339   -0.6676 H   0  0  0  0  0  0  0  0  0  0  0  0 
    2.6234    1.1657   -1.7003 H   0  0  0  0  0  0  0  0  0  0  0  0 
    2.0526    0.9421    3.3162 H   0  0  0  0  0  0  0  0  0  0  0  0 
    2.5606    3.3383   -0.9489 H   0  0  0  0  0  0  0  0  0  0  0  0 
  1 13  1  0  0  0  0 
  1 11  1  0  0  0  0 
  1 10  1  0  0  0  0 
  2 15  1  0  0  0  0 
  2 14  1  0  0  0  0 
  3 17  1  0  0  0  0 
  3  2  1  0  0  0  0 
  4  8  1  0  0  0  0 
  4 19  1  0  0  0  0 
  5 20  1  0  0  0  0 
  5  4  1  0  0  0  0 
  6 23  1  0  0  0  0 
  6 22  1  0  0  0  0 
  6  8  1  0  0  0  0 
  7  9  1  0  0  0  0 
  7 10  1  0  0  0  0 
  8  2  1  0  0  0  0 
  8 26  1  1  0  0  0 
  9 27  1  6  0  0  0 
  9  5  1  0  0  0  0 
  9  3  1  0  0  0  0 
 10  6  1  0  0  0  0 
 12  1  1  0  0  0  0 
 16  3  1  0  0  0  0 
 18  4  1  0  0  0  0 
 21  5  1  0  0  0  0 
 24  7  1  0  0  0  0 
 25  7  1  0  0  0  0 
M  END 
>  <HBA> 
1 
 
>  <HBD> 
0 
 
>  <TPSA> 
3.24 
 
>  <cid> 
14522 
 
>  <dipole> 
0.59 
 
>  <excitation_energy_1> 
4.449 
 
>  <excitation_energy_2> 
4.998 
 
>  <excitation_energy_3> 
5.037 
 
>  <excitation_energy_4> 
5.169 
 
>  <homo_energy> 
-5.053 
 
>  <homo_lumo_gap> 
6.836 
 
>  <logP> 
1.676 
 
>  <lumo_energy> 
1.782 
 
>  <melting_point> 
19.24 
 
>  <molecular_refractivity> 
47.96 
 
>  <oscillator_strength_1> 
0.0101 
 
>  <oscillator_strength_2> 
0.0221 
 
>  <oscillator_strength_3> 
0.0008 
 
>  <oscillator_strength_4> 
0.0018 
 
>  <open_babel_can_smiles> 
CN1C[C@@H]2CC[C@H](C1)CC2 
 
>  <mulliken_charges> 
27 
1   -0.298092 
2   -0.269918 
3   -0.270117 
4   -0.267672 
5   -0.267919 
6   -0.134222 
7   -0.135171 
8   -0.090092 
9   -0.089309 
10   -0.367359 
11   0.143525 
12   0.14343 
13   0.124734 
14   0.129108 
15   0.13024 
16   0.130189 
17   0.128706 
18   0.132023 
19   0.129461 
20   0.129275 
21   0.132454 
22   0.129184 
23   0.125731 
24   0.126044 
25   0.129367 
26   0.113286 
27   0.113111 
 
>  <lowdin_charges> 
27 
1   -0.350468 
2   -0.287254 
3   -0.283502 
4   -0.285584 
5   -0.2844 
6   -0.203395 
7   -0.201143 
8   -0.145511 
9   -0.147201 
10   -0.187365 
11   0.145091 
12   0.143847 
13   0.120427 
14   0.142429 
15   0.141061 
16   0.139931 
17   0.139561 
18   0.14312 
19   0.143556 
20   0.141066 
21   0.143668 
22   0.144328 
23   0.132245 
24   0.131888 
25   0.142343 
26   0.139977 
27   0.141286 
 
$$$$ 
 
