PCCDB-ID:  34854 
public computational chemistry database (PCCDB) project, http://pccdb.org 
 
 25 26  0  0  0  0  0  0  0  0999 V2000 
   -1.3582   -3.2997    0.0592 C   0  0  0  0  0  0  0  0  0  0  0  0 
   -1.7263   -2.4533   -0.9865 C   0  0  0  0  0  0  0  0  0  0  0  0 
   -0.2768   -2.9648    0.8802 C   0  0  0  0  0  0  0  0  0  0  0  0 
   -1.0134   -1.2735   -1.2121 C   0  0  0  0  0  0  0  0  0  0  0  0 
    0.4289   -1.7842    0.6608 C   0  0  0  0  0  0  0  0  0  0  0  0 
    4.8508    2.0669    0.4195 C   0  0  0  0  0  0  0  0  0  0  0  0 
    0.8244    0.3492   -0.5988 C   0  0  0  0  0  0  0  0  0  0  0  0 
    0.0612   -0.9286   -0.3878 C   0  0  0  0  0  0  0  0  0  0  0  0 
    3.7627    1.0154    0.6758 C   0  0  0  0  0  0  0  0  0  0  0  0 
    3.7524    1.8051   -1.4568 C   0  0  0  0  0  0  0  0  0  0  0  0 
    4.7447    2.4633   -0.9925 N   0  0  0  0  0  0  0  0  0  0  0  0 
    3.0768    0.9958   -0.5418 N   0  0  0  0  0  0  0  0  0  0  0  0 
    3.5010    0.3576    1.6581 O   0  0  0  0  0  0  0  0  0  0  0  0 
    3.2749    1.8354   -2.7030 O   0  0  0  0  0  0  0  0  0  0  0  0 
    2.2084   -0.0127   -0.8908 O   0  0  0  0  0  0  0  0  0  0  0  0 
   -1.9101   -4.2194    0.2346 H   0  0  0  0  0  0  0  0  0  0  0  0 
   -2.5629   -2.7116   -1.6301 H   0  0  0  0  0  0  0  0  0  0  0  0 
    0.0134   -3.6241    1.6938 H   0  0  0  0  0  0  0  0  0  0  0  0 
   -1.2946   -0.6173   -2.0327 H   0  0  0  0  0  0  0  0  0  0  0  0 
    1.2752   -1.5179    1.2889 H   0  0  0  0  0  0  0  0  0  0  0  0 
    5.8403    1.6517    0.6431 H   0  0  0  0  0  0  0  0  0  0  0  0 
    4.7015    2.9276    1.0829 H   0  0  0  0  0  0  0  0  0  0  0  0 
    0.8236    0.9685    0.3038 H   0  0  0  0  0  0  0  0  0  0  0  0 
    0.4239    0.9344   -1.4347 H   0  0  0  0  0  0  0  0  0  0  0  0 
    3.8554    2.4409   -3.1988 H   0  0  0  0  0  0  0  0  0  0  0  0 
  1 16  1  0  0  0  0 
  1  3  2  0  0  0  0 
  2  1  1  0  0  0  0 
  3 18  1  0  0  0  0 
  4  2  2  0  0  0  0 
  4  8  1  0  0  0  0 
  5  3  1  0  0  0  0 
  5 20  1  0  0  0  0 
  6 21  1  0  0  0  0 
  6  9  1  0  0  0  0 
  6 22  1  0  0  0  0 
  7  8  1  0  0  0  0 
  7 23  1  0  0  0  0 
  8  5  2  0  0  0  0 
  9 13  2  0  0  0  0 
 10 11  2  0  0  0  0 
 10 12  1  0  0  0  0 
 11  6  1  0  0  0  0 
 12  9  1  0  0  0  0 
 14 10  1  0  0  0  0 
 15  7  1  0  0  0  0 
 15 12  1  0  0  0  0 
 17  2  1  0  0  0  0 
 19  4  1  0  0  0  0 
 24  7  1  0  0  0  0 
 25 14  1  0  0  0  0 
M  END 
>  <HBA> 
5 
 
>  <HBD> 
1 
 
>  <TPSA> 
58.64 
 
>  <cid> 
34854 
 
>  <dipole> 
2.4 
 
>  <excitation_energy_1> 
5.11 
 
>  <excitation_energy_2> 
5.255 
 
>  <excitation_energy_3> 
5.581 
 
>  <excitation_energy_4> 
5.713 
 
>  <homo_energy> 
-6.705 
 
>  <homo_lumo_gap> 
6.316 
 
>  <logP> 
0.937 
 
>  <lumo_energy> 
-0.389 
 
>  <melting_point> 
104.06 
 
>  <molecular_refractivity> 
59.12 
 
>  <oscillator_strength_1> 
0.0019 
 
>  <oscillator_strength_2> 
0.0023 
 
>  <oscillator_strength_3> 
0.0116 
 
>  <oscillator_strength_4> 
0.0265 
 
>  <open_babel_can_smiles> 
O=C1CN=C(N1OCc1ccccc1)O 
 
>  <mulliken_charges> 
25 
1   -0.12419 
2   -0.129624 
3   -0.133243 
4   -0.177957 
5   -0.164949 
6   -0.255342 
7   -0.101528 
8   0.130973 
9   0.58194 
10   0.710776 
11   -0.485513 
12   -0.252235 
13   -0.477483 
14   -0.589313 
15   -0.372776 
16   0.132366 
17   0.131897 
18   0.136095 
19   0.128622 
20   0.167551 
21   0.195971 
22   0.194026 
23   0.168157 
24   0.154984 
25   0.430794 
 
>  <lowdin_charges> 
25 
1   -0.150727 
2   -0.157002 
3   -0.153623 
4   -0.159748 
5   -0.146439 
6   -0.224386 
7   -0.123825 
8   -0.023213 
9   0.152718 
10   0.149918 
11   -0.272296 
12   0.009625 
13   -0.2555 
14   -0.333118 
15   -0.174054 
16   0.159113 
17   0.159463 
18   0.161392 
19   0.157555 
20   0.174683 
21   0.179754 
22   0.179902 
23   0.158825 
24   0.150117 
25   0.380867 
 
$$$$ 
 
