PCCDB-ID:  50985 
public computational chemistry database (PCCDB) project, http://pccdb.org 
 
 26 27  0  0  0  0  0  0  0  0999 V2000 
    0.3924    1.7231   -0.3031 C   0  0  0  0  0  0  0  0  0  0  0  0 
   -0.9702    1.9931   -0.5529 C   0  0  0  0  0  0  0  0  0  0  0  0 
    4.4234    0.5002    0.7337 C   0  0  0  0  0  0  0  0  0  0  0  0 
    3.1077    1.1186    0.2774 C   0  0  0  0  0  0  0  0  0  0  0  0 
   -0.1795   -0.4036    0.7652 C   0  0  0  0  0  0  0  0  0  0  0  0 
   -3.7367   -0.1257    0.3384 C   0  0  0  0  0  0  0  0  0  0  0  0 
    0.7786    0.5465    0.3444 C   0  0  0  0  0  0  0  0  0  0  0  0 
   -1.8930    1.0600   -0.1385 C   0  0  0  0  0  0  0  0  0  0  0  0 
   -1.4993   -0.1120    0.5061 C   0  0  0  0  0  0  0  0  0  0  0  0 
    6.7788    0.7919    0.8852 N   0  0  0  0  0  0  0  0  0  0  0  0 
    5.5261    1.3969    0.3775 N   0  0  0  0  0  0  0  0  0  0  0  0 
    2.0751    0.2064    0.6255 O   0  0  0  0  0  0  0  0  0  0  0  0 
   -3.2669    1.0841   -0.2613 O   0  0  0  0  0  0  0  0  0  0  0  0 
   -2.6043   -0.8666    0.8132 O   0  0  0  0  0  0  0  0  0  0  0  0 
    1.1325    2.4442   -0.6270 H   0  0  0  0  0  0  0  0  0  0  0  0 
   -1.2754    2.9048   -1.0548 H   0  0  0  0  0  0  0  0  0  0  0  0 
    4.5647   -0.4484    0.1999 H   0  0  0  0  0  0  0  0  0  0  0  0 
    4.3831    0.2658    1.8091 H   0  0  0  0  0  0  0  0  0  0  0  0 
    3.1283    1.2924   -0.8066 H   0  0  0  0  0  0  0  0  0  0  0  0 
    2.9388    2.0876    0.7730 H   0  0  0  0  0  0  0  0  0  0  0  0 
    0.1326   -1.3114    1.2675 H   0  0  0  0  0  0  0  0  0  0  0  0 
   -4.2724   -0.7231   -0.4096 H   0  0  0  0  0  0  0  0  0  0  0  0 
   -4.3932    0.1136    1.1843 H   0  0  0  0  0  0  0  0  0  0  0  0 
    7.5070    1.4141    0.5237 H   0  0  0  0  0  0  0  0  0  0  0  0 
    6.8918   -0.0452    0.3061 H   0  0  0  0  0  0  0  0  0  0  0  0 
    5.4229    2.2247    0.9689 H   0  0  0  0  0  0  0  0  0  0  0  0 
  1  7  1  0  0  0  0 
  2  1  2  0  0  0  0 
  2  8  1  0  0  0  0 
  3 18  1  0  0  0  0 
  4 12  1  0  0  0  0 
  4  3  1  0  0  0  0 
  4 20  1  0  0  0  0 
  5 21  1  0  0  0  0 
  6 14  1  0  0  0  0 
  6 23  1  0  0  0  0 
  7 12  1  0  0  0  0 
  7  5  2  0  0  0  0 
  8  9  2  0  0  0  0 
  9  5  1  0  0  0  0 
  9 14  1  0  0  0  0 
 11  3  1  0  0  0  0 
 11 10  1  0  0  0  0 
 11 26  1  0  0  0  0 
 13  8  1  0  0  0  0 
 13  6  1  0  0  0  0 
 15  1  1  0  0  0  0 
 16  2  1  0  0  0  0 
 17  3  1  0  0  0  0 
 19  4  1  0  0  0  0 
 22  6  1  0  0  0  0 
 24 10  1  0  0  0  0 
 25 10  1  0  0  0  0 
M  END 
>  <HBA> 
5 
 
>  <HBD> 
2 
 
>  <TPSA> 
65.74 
 
>  <cid> 
50985 
 
>  <dipole> 
1.17 
 
>  <excitation_energy_1> 
4.579 
 
>  <excitation_energy_2> 
4.824 
 
>  <excitation_energy_3> 
4.946 
 
>  <excitation_energy_4> 
5.108 
 
>  <homo_energy> 
-5.233 
 
>  <homo_lumo_gap> 
5.35 
 
>  <logP> 
1.349 
 
>  <lumo_energy> 
0.117 
 
>  <melting_point> 
124.64 
 
>  <molecular_refractivity> 
49.31 
 
>  <oscillator_strength_1> 
0.0989 
 
>  <oscillator_strength_2> 
0.0028 
 
>  <oscillator_strength_3> 
0.0004 
 
>  <oscillator_strength_4> 
0.0084 
 
>  <open_babel_can_smiles> 
NNCCOc1ccc2c(c1)OCO2 
 
>  <mulliken_charges> 
26 
1   -0.214534 
2   -0.193191 
3   -0.135087 
4   -0.034187 
5   -0.245349 
6   0.196449 
7   0.380071 
8   0.328715 
9   0.33959 
10   -0.590424 
11   -0.478994 
12   -0.531913 
13   -0.537278 
14   -0.535114 
15   0.135405 
16   0.143792 
17   0.150981 
18   0.148821 
19   0.153583 
20   0.133021 
21   0.150407 
22   0.157658 
23   0.15739 
24   0.306237 
25   0.306085 
26   0.307866 
 
>  <lowdin_charges> 
26 
1   -0.227494 
2   -0.175772 
3   -0.212906 
4   -0.127469 
5   -0.207613 
6   0.016594 
7   0.10297 
8   0.056065 
9   0.079674 
10   -0.494451 
11   -0.322152 
12   -0.203743 
13   -0.214086 
14   -0.205072 
15   0.166375 
16   0.169876 
17   0.147563 
18   0.136476 
19   0.142926 
20   0.133935 
21   0.178169 
22   0.148484 
23   0.147335 
24   0.25659 
25   0.254482 
26   0.253245 
 
$$$$ 
 
