PCCDB-ID:  12124 
public computational chemistry database (PCCDB) project, http://pccdb.org 
 
 20 20  0  0  0  0  0  0  0  0999 V2000 
    1.5683    1.5999   -0.4535 C   0  0  0  0  0  0  0  0  0  0  0  0 
    1.3569   -2.0843   -3.7682 C   0  0  0  0  0  0  0  0  0  0  0  0 
    2.0536   -1.7080   -2.6246 C   0  0  0  0  0  0  0  0  0  0  0  0 
    1.1024   -1.1693   -4.7928 C   0  0  0  0  0  0  0  0  0  0  0  0 
    2.2525    0.5412   -3.5102 C   0  0  0  0  0  0  0  0  0  0  0  0 
    2.8736    0.8359   -0.5100 C   0  0  0  0  0  0  0  0  0  0  0  0 
    2.4948   -0.3796   -2.4810 C   0  0  0  0  0  0  0  0  0  0  0  0 
    1.5605    0.1442   -4.6582 C   0  0  0  0  0  0  0  0  0  0  0  0 
    3.2504   -0.0348   -1.3510 N   0  0  0  0  0  0  0  0  0  0  0  0 
    3.7448    1.1123    0.5034 O   0  0  0  0  0  0  0  0  0  0  0  0 
    1.3588    1.0978   -5.6212 O   0  0  0  0  0  0  0  0  0  0  0  0 
    0.8922    1.2871   -1.2497 H   0  0  0  0  0  0  0  0  0  0  0  0 
    1.7464    2.6779   -0.5535 H   0  0  0  0  0  0  0  0  0  0  0  0 
    1.0779    1.4315    0.5140 H   0  0  0  0  0  0  0  0  0  0  0  0 
    1.0094   -3.1089   -3.8722 H   0  0  0  0  0  0  0  0  0  0  0  0 
    2.2657   -2.4211   -1.8349 H   0  0  0  0  0  0  0  0  0  0  0  0 
    0.5664   -1.4748   -5.6893 H   0  0  0  0  0  0  0  0  0  0  0  0 
    2.6207    1.5596   -3.4403 H   0  0  0  0  0  0  0  0  0  0  0  0 
    3.3425    1.7606    1.1015 H   0  0  0  0  0  0  0  0  0  0  0  0 
    0.8839    0.6935   -6.3637 H   0  0  0  0  0  0  0  0  0  0  0  0 
  1 14  1  0  0  0  0 
  2  3  2  0  0  0  0 
  3  7  1  0  0  0  0 
  3 16  1  0  0  0  0 
  4  8  2  0  0  0  0 
  4  2  1  0  0  0  0 
  5 18  1  0  0  0  0 
  5  7  2  0  0  0  0 
  6  1  1  0  0  0  0 
  6 10  1  0  0  0  0 
  7  9  1  0  0  0  0 
  8  5  1  0  0  0  0 
  9  6  2  0  0  0  0 
 10 19  1  0  0  0  0 
 11  8  1  0  0  0  0 
 12  1  1  0  0  0  0 
 13  1  1  0  0  0  0 
 15  2  1  0  0  0  0 
 17  4  1  0  0  0  0 
 20 11  1  0  0  0  0 
M  END 
>  <HBA> 
3 
 
>  <HBD> 
2 
 
>  <TPSA> 
49.33 
 
>  <cid> 
12124 
 
>  <dipole> 
3.56 
 
>  <excitation_energy_1> 
4.768 
 
>  <excitation_energy_2> 
4.84 
 
>  <excitation_energy_3> 
4.954 
 
>  <excitation_energy_4> 
5.096 
 
>  <homo_energy> 
-5.616 
 
>  <homo_lumo_gap> 
5.611 
 
>  <logP> 
1.424 
 
>  <lumo_energy> 
-0.005 
 
>  <melting_point> 
99.57 
 
>  <molecular_refractivity> 
42.78 
 
>  <oscillator_strength_1> 
0.1089 
 
>  <oscillator_strength_2> 
0.0015 
 
>  <oscillator_strength_3> 
0.0087 
 
>  <oscillator_strength_4> 
0.0005 
 
>  <open_babel_can_smiles> 
Oc1cccc(c1)/N=C(/O)\C 
 
>  <mulliken_charges> 
20 
1   -0.554588 
2   -0.14153 
3   -0.155674 
4   -0.200943 
5   -0.20026 
6   0.483223 
7   0.2364 
8   0.350564 
9   -0.464779 
10   -0.569547 
11   -0.64723 
12   0.200658 
13   0.176935 
14   0.169685 
15   0.129195 
16   0.1289 
17   0.112179 
18   0.132878 
19   0.407918 
20   0.406014 
 
>  <lowdin_charges> 
20 
1   -0.482298 
2   -0.13957 
3   -0.199195 
4   -0.233072 
5   -0.220036 
6   0.147175 
7   0.059681 
8   0.105371 
9   -0.168892 
10   -0.360998 
11   -0.382984 
12   0.186279 
13   0.169183 
14   0.167021 
15   0.157057 
16   0.163382 
17   0.151415 
18   0.164831 
19   0.357777 
20   0.357874 
 
$$$$ 
 
