PCCDB-ID:  31469 
public computational chemistry database (PCCDB) project, http://pccdb.org 
 
 39 39  0  0  1  0  0  0  0  0999 V2000 
    0.8800    0.0462    0.5579 C   0  0  0  0  0  0  0  0  0  0  0  0 
    5.2976   -2.1974    6.2110 C   0  0  0  0  0  0  0  0  0  0  0  0 
    5.3309    0.3410    6.1951 C   0  0  0  0  0  0  0  0  0  0  0  0 
    7.2542   -1.0371   -1.4172 C   0  0  0  0  0  0  0  0  0  0  0  0 
    2.4030    0.2242    0.5579 C   0  0  0  0  0  0  0  0  0  0  0  0 
    3.1198   -0.9817    1.1850 C   0  0  0  0  0  0  0  0  0  0  0  0 
    5.2492   -0.9737   -0.1802 C   0  0  0  0  0  0  0  0  0  0  0  0 
    5.1613   -2.1844    2.0300 C   0  0  0  0  0  0  0  0  0  0  0  0 
    5.1984    0.2772    2.0152 C   0  0  0  0  0  0  0  0  0  0  0  0 
    4.8363   -0.9264    5.4848 C   0  0  0  0  0  0  0  0  0  0  0  0 
    5.2836   -0.9412    4.0238 C   0  0  1  0  0  0  0  0  0  0  0  0 
    4.6691   -0.9489    1.2405 C   0  0  2  0  0  0  0  0  0  0  0  0 
    6.6659   -1.0235   -0.1344 O   0  0  0  0  0  0  0  0  0  0  0  0 
    4.7746   -2.1044    3.4014 O   0  0  0  0  0  0  0  0  0  0  0  0 
    4.8046    0.2261    3.3858 O   0  0  0  0  0  0  0  0  0  0  0  0 
    0.3768    0.9145    0.1177 H   0  0  0  0  0  0  0  0  0  0  0  0 
    0.4985   -0.0801    1.5782 H   0  0  0  0  0  0  0  0  0  0  0  0 
    0.5832   -0.8393   -0.0178 H   0  0  0  0  0  0  0  0  0  0  0  0 
    4.9407   -2.1949    7.2472 H   0  0  0  0  0  0  0  0  0  0  0  0 
    6.3936   -2.2587    6.2393 H   0  0  0  0  0  0  0  0  0  0  0  0 
    4.9210   -3.0962    5.7162 H   0  0  0  0  0  0  0  0  0  0  0  0 
    4.9759    0.3600    7.2318 H   0  0  0  0  0  0  0  0  0  0  0  0 
    4.9764    1.2431    5.6901 H   0  0  0  0  0  0  0  0  0  0  0  0 
    6.4282    0.3748    6.2210 H   0  0  0  0  0  0  0  0  0  0  0  0 
    8.3375   -1.0745   -1.2756 H   0  0  0  0  0  0  0  0  0  0  0  0 
    6.9987   -0.1321   -1.9918 H   0  0  0  0  0  0  0  0  0  0  0  0 
    6.9384   -1.9170   -2.0006 H   0  0  0  0  0  0  0  0  0  0  0  0 
    2.6532    1.1377    1.1119 H   0  0  0  0  0  0  0  0  0  0  0  0 
    2.7430    0.3847   -0.4742 H   0  0  0  0  0  0  0  0  0  0  0  0 
    2.8217   -1.8902    0.6392 H   0  0  0  0  0  0  0  0  0  0  0  0 
    2.7581   -1.1117    2.2102 H   0  0  0  0  0  0  0  0  0  0  0  0 
    4.9274   -0.0796   -0.7399 H   0  0  0  0  0  0  0  0  0  0  0  0 
    4.8575   -1.8527   -0.7236 H   0  0  0  0  0  0  0  0  0  0  0  0 
    6.2546   -2.2652    1.9527 H   0  0  0  0  0  0  0  0  0  0  0  0 
    4.7161   -3.1065    1.6409 H   0  0  0  0  0  0  0  0  0  0  0  0 
    4.8023    1.2157    1.6174 H   0  0  0  0  0  0  0  0  0  0  0  0 
    6.2951    0.3097    1.9404 H   0  0  0  0  0  0  0  0  0  0  0  0 
    3.7382   -0.9121    5.4625 H   0  0  0  0  0  0  0  0  0  0  0  0 
    6.3901   -0.9558    3.9483 H   0  0  0  0  0  0  0  0  0  0  0  0 
  1  5  1  0  0  0  0 
  1 17  1  0  0  0  0 
  2 20  1  0  0  0  0 
  2 19  1  0  0  0  0 
  3 24  1  0  0  0  0 
  3 22  1  0  0  0  0 
  4 25  1  0  0  0  0 
  4 13  1  0  0  0  0 
  5 28  1  0  0  0  0 
  5  6  1  0  0  0  0 
  6 12  1  0  0  0  0 
  6 31  1  0  0  0  0 
  7 13  1  0  0  0  0 
  8 14  1  0  0  0  0 
  9 15  1  0  0  0  0 
 10  3  1  0  0  0  0 
 10  2  1  0  0  0  0 
 11 39  1  6  0  0  0 
 11 10  1  0  0  0  0 
 12  7  1  6  0  0  0 
 12  9  1  0  0  0  0 
 12  8  1  0  0  0  0 
 14 11  1  0  0  0  0 
 15 11  1  0  0  0  0 
 16  1  1  0  0  0  0 
 18  1  1  0  0  0  0 
 21  2  1  0  0  0  0 
 23  3  1  0  0  0  0 
 26  4  1  0  0  0  0 
 27  4  1  0  0  0  0 
 29  5  1  0  0  0  0 
 30  6  1  0  0  0  0 
 32  7  1  0  0  0  0 
 33  7  1  0  0  0  0 
 34  8  1  0  0  0  0 
 35  8  1  0  0  0  0 
 36  9  1  0  0  0  0 
 37  9  1  0  0  0  0 
 38 10  1  0  0  0  0 
M  END 
>  <HBA> 
3 
 
>  <HBD> 
0 
 
>  <TPSA> 
27.69 
 
>  <cid> 
31469 
 
>  <dipole> 
2.55 
 
>  <excitation_energy_1> 
6.293 
 
>  <excitation_energy_2> 
6.595 
 
>  <excitation_energy_3> 
6.655 
 
>  <excitation_energy_4> 
6.679 
 
>  <homo_energy> 
-6.672 
 
>  <homo_lumo_gap> 
8.838 
 
>  <logP> 
2.448 
 
>  <lumo_energy> 
2.166 
 
>  <melting_point> 
-16.13 
 
>  <molecular_refractivity> 
60.68 
 
>  <oscillator_strength_1> 
0.0271 
 
>  <oscillator_strength_2> 
0.0028 
 
>  <oscillator_strength_3> 
0.0013 
 
>  <oscillator_strength_4> 
0.0058 
 
>  <open_babel_can_smiles> 
CCC[C@]1(COC)CO[C@@H](OC1)C(C)C 
 
>  <mulliken_charges> 
39 
1   -0.442164 
2   -0.449239 
3   -0.449182 
4   -0.191996 
5   -0.266379 
6   -0.259209 
7   -0.022283 
8   -0.047385 
9   -0.051055 
10   -0.112693 
11   0.389623 
12   0.010883 
13   -0.469891 
14   -0.492681 
15   -0.494071 
16   0.141655 
17   0.147859 
18   0.14057 
19   0.139133 
20   0.134308 
21   0.16567 
22   0.139143 
23   0.165283 
24   0.134333 
25   0.161038 
26   0.13215 
27   0.132433 
28   0.144091 
29   0.128726 
30   0.120549 
31   0.164017 
32   0.125225 
33   0.119077 
34   0.148777 
35   0.138432 
36   0.143466 
37   0.14638 
38   0.139956 
39   0.095453 
 
>  <lowdin_charges> 
39 
1   -0.443229 
2   -0.442497 
3   -0.442406 
4   -0.277656 
5   -0.277178 
6   -0.278383 
7   -0.132352 
8   -0.135768 
9   -0.137669 
10   -0.12777 
11   0.099772 
12   -0.034889 
13   -0.273517 
14   -0.264146 
15   -0.265413 
16   0.150031 
17   0.148852 
18   0.146176 
19   0.147476 
20   0.141806 
21   0.160715 
22   0.147465 
23   0.160489 
24   0.141791 
25   0.154564 
26   0.133357 
27   0.13378 
28   0.145066 
29   0.134671 
30   0.137583 
31   0.15819 
32   0.131776 
33   0.129369 
34   0.140349 
35   0.147839 
36   0.148746 
37   0.139294 
38   0.14665 
39   0.107067 
 
$$$$ 
 
