PCCDB-ID:  70549 
public computational chemistry database (PCCDB) project, http://pccdb.org 
 
 27 27  0  0  0  0  0  0  0  0999 V2000 
   -0.3521    1.1751   -0.8591 C   0  0  0  0  0  0  0  0  0  0  0  0 
   -0.6554   -2.7882    4.1057 C   0  0  0  0  0  0  0  0  0  0  0  0 
   -6.0141   -0.7027    1.3507 C   0  0  0  0  0  0  0  0  0  0  0  0 
   -1.2416   -0.2497    0.7924 C   0  0  0  0  0  0  0  0  0  0  0  0 
   -2.0926   -1.5830    2.6861 C   0  0  0  0  0  0  0  0  0  0  0  0 
   -3.6724   -0.5451    1.1025 C   0  0  0  0  0  0  0  0  0  0  0  0 
   -0.1995    0.2273    0.2159 N   0  0  0  0  0  0  0  0  0  0  0  0 
   -1.9667   -2.3246    3.7258 N   0  0  0  0  0  0  0  0  0  0  0  0 
   -4.8367   -0.3196    0.6144 N   0  0  0  0  0  0  0  0  0  0  0  0 
   -1.0729   -1.0636    1.9070 N   0  0  0  0  0  0  0  0  0  0  0  0 
   -2.5621   -0.0470    0.4315 N   0  0  0  0  0  0  0  0  0  0  0  0 
   -3.3722   -1.2386    2.2639 N   0  0  0  0  0  0  0  0  0  0  0  0 
   -1.3347    0.8490   -1.8601 O   0  0  0  0  0  0  0  0  0  0  0  0 
    0.3856   -1.7932    4.1219 O   0  0  0  0  0  0  0  0  0  0  0  0 
   -5.9926   -2.0067    1.9632 O   0  0  0  0  0  0  0  0  0  0  0  0 
    0.6268    1.3007   -1.3362 H   0  0  0  0  0  0  0  0  0  0  0  0 
   -0.6751    2.1535   -0.4783 H   0  0  0  0  0  0  0  0  0  0  0  0 
   -0.2852   -3.5488    3.4049 H   0  0  0  0  0  0  0  0  0  0  0  0 
   -0.7367   -3.2475    5.0976 H   0  0  0  0  0  0  0  0  0  0  0  0 
   -6.8710   -0.6354    0.6703 H   0  0  0  0  0  0  0  0  0  0  0  0 
   -6.1908   -0.0170    2.1901 H   0  0  0  0  0  0  0  0  0  0  0  0 
   -0.1363   -1.1214    2.2997 H   0  0  0  0  0  0  0  0  0  0  0  0 
   -2.7228    0.4101   -0.4622 H   0  0  0  0  0  0  0  0  0  0  0  0 
   -4.1452   -1.7466    2.6873 H   0  0  0  0  0  0  0  0  0  0  0  0 
   -1.0459    0.0227   -2.2817 H   0  0  0  0  0  0  0  0  0  0  0  0 
    0.1319   -1.1291    4.7841 H   0  0  0  0  0  0  0  0  0  0  0  0 
   -5.9459   -2.6586    1.2446 H   0  0  0  0  0  0  0  0  0  0  0  0 
  1 17  1  0  0  0  0 
  1  7  1  0  0  0  0 
  2 14  1  0  0  0  0 
  2 19  1  0  0  0  0 
  3 15  1  0  0  0  0 
  3 21  1  0  0  0  0 
  4 10  1  0  0  0  0 
  5  8  2  0  0  0  0 
  6 12  1  0  0  0  0 
  7  4  2  0  0  0  0 
  8  2  1  0  0  0  0 
  9  6  2  0  0  0  0 
  9  3  1  0  0  0  0 
 10 22  1  0  0  0  0 
 10  5  1  0  0  0  0 
 11  4  1  0  0  0  0 
 11  6  1  0  0  0  0 
 12  5  1  0  0  0  0 
 12 24  1  0  0  0  0 
 13  1  1  0  0  0  0 
 14 26  1  0  0  0  0 
 16  1  1  0  0  0  0 
 18  2  1  0  0  0  0 
 20  3  1  0  0  0  0 
 23 11  1  0  0  0  0 
 25 13  1  0  0  0  0 
 27 15  1  0  0  0  0 
M  END 
>  <HBA> 
9 
 
>  <HBD> 
6 
 
>  <TPSA> 
135.45 
 
>  <cid> 
70549 
 
>  <dipole> 
0.86 
 
>  <excitation_energy_1> 
5.193 
 
>  <excitation_energy_2> 
5.345 
 
>  <excitation_energy_3> 
5.556 
 
>  <excitation_energy_4> 
5.622 
 
>  <homo_energy> 
-6.144 
 
>  <homo_lumo_gap> 
6.144 
 
>  <logP> 
-1.824 
 
>  <lumo_energy> 
0.0 
 
>  <melting_point> 
211.35 
 
>  <molecular_refractivity> 
51.23 
 
>  <oscillator_strength_1> 
0.1395 
 
>  <oscillator_strength_2> 
0.1885 
 
>  <oscillator_strength_3> 
0.0041 
 
>  <oscillator_strength_4> 
0.0005 
 
>  <open_babel_can_smiles> 
OC/N=c/1\[nH]/c(=N/CO)/[nH]/c(=N/CO)/[nH]1 
 
>  <mulliken_charges> 
27 
1   0.033439 
2   0.034258 
3   0.033676 
4   0.738716 
5   0.732328 
6   0.736678 
7   -0.517789 
8   -0.518042 
9   -0.51867 
10   -0.7206 
11   -0.72105 
12   -0.717337 
13   -0.620256 
14   -0.620393 
15   -0.619818 
16   0.150187 
17   0.157872 
18   0.156399 
19   0.150351 
20   0.150146 
21   0.159963 
22   0.383457 
23   0.382865 
24   0.382952 
25   0.396621 
26   0.397216 
27   0.396832 
 
>  <lowdin_charges> 
27 
1   -0.083366 
2   -0.084411 
3   -0.083533 
4   0.146946 
5   0.143616 
6   0.145545 
7   -0.288249 
8   -0.289264 
9   -0.28828 
10   -0.248397 
11   -0.248145 
12   -0.250659 
13   -0.475467 
14   -0.476267 
15   -0.476462 
16   0.142883 
17   0.144577 
18   0.145297 
19   0.142708 
20   0.143866 
21   0.147242 
22   0.315479 
23   0.315811 
24   0.316346 
25   0.346746 
26   0.348064 
27   0.347376 
 
$$$$ 
 
