PCCDB-ID:  8588 
public computational chemistry database (PCCDB) project, http://pccdb.org 
 
 30 32  0  0  0  0  0  0  0  0999 V2000 
    1.0419    0.4473   -0.0095 C   0  0  0  0  0  0  0  0  0  0  0  0 
    2.5288    0.0754    0.0383 C   0  0  0  0  0  0  0  0  0  0  0  0 
    3.0115   -4.1297    3.1518 C   0  0  0  0  0  0  0  0  0  0  0  0 
    2.5778   -4.0706    1.8157 C   0  0  0  0  0  0  0  0  0  0  0  0 
    3.3989   -2.9719    3.8208 C   0  0  0  0  0  0  0  0  0  0  0  0 
    2.5217   -2.8636    1.1222 C   0  0  0  0  0  0  0  0  0  0  0  0 
    4.0832    2.3666    3.6090 C   0  0  0  0  0  0  0  0  0  0  0  0 
    3.6124    1.8010    2.4275 C   0  0  0  0  0  0  0  0  0  0  0  0 
    4.1466    0.2023    4.7040 C   0  0  0  0  0  0  0  0  0  0  0  0 
    4.3565    1.5839    4.7532 C   0  0  0  0  0  0  0  0  0  0  0  0 
    3.3536   -1.7451    3.1490 C   0  0  0  0  0  0  0  0  0  0  0  0 
    3.6689   -0.3835    3.5268 C   0  0  0  0  0  0  0  0  0  0  0  0 
    2.9165   -1.7023    1.7958 C   0  0  0  0  0  0  0  0  0  0  0  0 
    3.4097    0.4201    2.3882 C   0  0  0  0  0  0  0  0  0  0  0  0 
    4.7687    2.2108    5.9464 N   0  0  0  0  0  0  0  0  0  0  0  0 
    2.9701   -0.3922    1.3405 N   0  0  0  0  0  0  0  0  0  0  0  0 
    0.7678    0.7966   -1.0118 H   0  0  0  0  0  0  0  0  0  0  0  0 
    0.8168    1.2444    0.7066 H   0  0  0  0  0  0  0  0  0  0  0  0 
    0.4163   -0.4166    0.2373 H   0  0  0  0  0  0  0  0  0  0  0  0 
    3.1471    0.9377   -0.2352 H   0  0  0  0  0  0  0  0  0  0  0  0 
    2.7507   -0.7088   -0.6937 H   0  0  0  0  0  0  0  0  0  0  0  0 
    3.0410   -5.0867    3.6649 H   0  0  0  0  0  0  0  0  0  0  0  0 
    2.2750   -4.9845    1.3112 H   0  0  0  0  0  0  0  0  0  0  0  0 
    3.7321   -3.0194    4.8546 H   0  0  0  0  0  0  0  0  0  0  0  0 
    2.1784   -2.8347    0.0922 H   0  0  0  0  0  0  0  0  0  0  0  0 
    4.2351    3.4424    3.6594 H   0  0  0  0  0  0  0  0  0  0  0  0 
    3.4109    2.4327    1.5672 H   0  0  0  0  0  0  0  0  0  0  0  0 
    4.3487   -0.4089    5.5811 H   0  0  0  0  0  0  0  0  0  0  0  0 
    5.3014    3.0601    5.7954 H   0  0  0  0  0  0  0  0  0  0  0  0 
    5.2732    1.5937    6.5729 H   0  0  0  0  0  0  0  0  0  0  0  0 
  1  2  1  0  0  0  0 
  1 19  1  0  0  0  0 
  1 18  1  0  0  0  0 
  2 16  1  0  0  0  0 
  3 22  1  0  0  0  0 
  3  5  1  0  0  0  0 
  4  3  2  0  0  0  0 
  5 24  1  0  0  0  0 
  6 13  2  0  0  0  0 
  6  4  1  0  0  0  0 
  7 26  1  0  0  0  0 
  7 10  2  0  0  0  0 
  8  7  1  0  0  0  0 
  9 10  1  0  0  0  0 
  9 28  1  0  0  0  0 
 10 15  1  0  0  0  0 
 11 12  1  0  0  0  0 
 11  5  2  0  0  0  0 
 12  9  2  0  0  0  0 
 13 11  1  0  0  0  0 
 14  8  2  0  0  0  0 
 14 12  1  0  0  0  0 
 15 30  1  0  0  0  0 
 16 13  1  0  0  0  0 
 16 14  1  0  0  0  0 
 17  1  1  0  0  0  0 
 20  2  1  0  0  0  0 
 21  2  1  0  0  0  0 
 23  4  1  0  0  0  0 
 25  6  1  0  0  0  0 
 27  8  1  0  0  0  0 
 29 15  1  0  0  0  0 
M  END 
>  <HBA> 
2 
 
>  <HBD> 
1 
 
>  <TPSA> 
30.95 
 
>  <cid> 
8588 
 
>  <dipole> 
1.84 
 
>  <excitation_energy_1> 
3.494 
 
>  <excitation_energy_2> 
4.216 
 
>  <excitation_energy_3> 
4.265 
 
>  <excitation_energy_4> 
4.407 
 
>  <homo_energy> 
-4.724 
 
>  <homo_lumo_gap> 
4.172 
 
>  <logP> 
3.978 
 
>  <lumo_energy> 
-0.552 
 
>  <melting_point> 
145.65 
 
>  <molecular_refractivity> 
69.92 
 
>  <oscillator_strength_1> 
0.0442 
 
>  <oscillator_strength_2> 
0.03 
 
>  <oscillator_strength_3> 
0.0302 
 
>  <oscillator_strength_4> 
0.0193 
 
>  <open_babel_can_smiles> 
CCn1c2ccc(cc2c2c1cccc2)N 
 
>  <mulliken_charges> 
30 
1   -0.442836 
2   -0.157107 
3   -0.148348 
4   -0.140844 
5   -0.196747 
6   -0.184547 
7   -0.185844 
8   -0.18779 
9   -0.255617 
10   0.296915 
11   0.051352 
12   0.066691 
13   0.323985 
14   0.315065 
15   -0.788985 
16   -0.626826 
17   0.146159 
18   0.163128 
19   0.162909 
20   0.156908 
21   0.158212 
22   0.119732 
23   0.122214 
24   0.124986 
25   0.123848 
26   0.114569 
27   0.125492 
28   0.116928 
29   0.312614 
30   0.313783 
 
>  <lowdin_charges> 
30 
1   -0.453966 
2   -0.191253 
3   -0.182183 
4   -0.155813 
5   -0.1506 
6   -0.19718 
7   -0.18964 
8   -0.186407 
9   -0.200469 
10   0.044215 
11   -0.038312 
12   -0.023021 
13   0.043571 
14   0.02495 
15   -0.500752 
16   -0.049474 
17   0.153215 
18   0.159254 
19   0.159082 
20   0.154741 
21   0.155615 
22   0.154385 
23   0.155859 
24   0.154651 
25   0.154548 
26   0.150921 
27   0.157626 
28   0.153498 
29   0.270805 
30   0.272133 
 
$$$$ 
 
