PCCDB-ID:  7182 
public computational chemistry database (PCCDB) project, http://pccdb.org 
 
 26 26  0  0  0  0  0  0  0  0999 V2000 
    1.6003   -0.3075    0.0986 C   0  0  0  0  0  0  0  0  0  0  0  0 
    3.0892   -0.6363   -0.0450 C   0  0  0  0  0  0  0  0  0  0  0  0 
    2.2476   -3.1534    4.1690 C   0  0  0  0  0  0  0  0  0  0  0  0 
    3.6082   -4.9745    3.3131 C   0  0  0  0  0  0  0  0  0  0  0  0 
    1.7060   -4.0040    5.1281 C   0  0  0  0  0  0  0  0  0  0  0  0 
    3.0738   -5.8341    4.2663 C   0  0  0  0  0  0  0  0  0  0  0  0 
    3.8632   -0.5723    1.2681 C   0  0  0  0  0  0  0  0  0  0  0  0 
    3.1997   -3.6348    3.2592 C   0  0  0  0  0  0  0  0  0  0  0  0 
    2.1286   -5.3315    5.1592 C   0  0  0  0  0  0  0  0  0  0  0  0 
    3.8123   -2.7643    2.2063 C   0  0  0  0  0  0  0  0  0  0  0  0 
    1.5544   -6.2366    6.1728 N   0  0  0  0  0  0  0  0  0  0  0  0 
    4.6423   -3.1558    1.4099 O   0  0  0  0  0  0  0  0  0  0  0  0 
    0.7201   -5.7695    6.9468 O   0  0  0  0  0  0  0  0  0  0  0  0 
    1.9449   -7.4028    6.1816 O   0  0  0  0  0  0  0  0  0  0  0  0 
    3.3380   -1.5028    2.2508 O   0  0  0  0  0  0  0  0  0  0  0  0 
    1.0925   -0.3654   -0.8701 H   0  0  0  0  0  0  0  0  0  0  0  0 
    1.4518    0.7050    0.4936 H   0  0  0  0  0  0  0  0  0  0  0  0 
    1.1046   -1.0073    0.7794 H   0  0  0  0  0  0  0  0  0  0  0  0 
    3.5670    0.0735   -0.7341 H   0  0  0  0  0  0  0  0  0  0  0  0 
    3.2231   -1.6321   -0.4829 H   0  0  0  0  0  0  0  0  0  0  0  0 
    1.9372   -2.1163    4.1234 H   0  0  0  0  0  0  0  0  0  0  0  0 
    4.3466   -5.3234    2.5996 H   0  0  0  0  0  0  0  0  0  0  0  0 
    0.9696   -3.6604    5.8437 H   0  0  0  0  0  0  0  0  0  0  0  0 
    3.3716   -6.8732    4.3295 H   0  0  0  0  0  0  0  0  0  0  0  0 
    3.7563    0.4054    1.7463 H   0  0  0  0  0  0  0  0  0  0  0  0 
    4.9220   -0.7921    1.1134 H   0  0  0  0  0  0  0  0  0  0  0  0 
  1 17  1  0  0  0  0 
  1 18  1  0  0  0  0 
  2  1  1  0  0  0  0 
  2  7  1  0  0  0  0 
  3  5  2  0  0  0  0 
  4  6  1  0  0  0  0 
  5  9  1  0  0  0  0 
  5 23  1  0  0  0  0 
  6 24  1  0  0  0  0 
  6  9  2  0  0  0  0 
  7 25  1  0  0  0  0 
  7 15  1  0  0  0  0 
  8  4  2  0  0  0  0 
  8  3  1  0  0  0  0 
  9 11  1  0  0  0  0 
 10 15  1  0  0  0  0 
 10  8  1  0  0  0  0 
 11 14  2  0  0  0  0 
 11 13  2  0  0  0  0 
 12 10  2  0  0  0  0 
 16  1  1  0  0  0  0 
 19  2  1  0  0  0  0 
 20  2  1  0  0  0  0 
 21  3  1  0  0  0  0 
 22  4  1  0  0  0  0 
 26  7  1  0  0  0  0 
M  END 
>  <HBA> 
2 
 
>  <HBD> 
0 
 
>  <TPSA> 
72.12 
 
>  <cid> 
7182 
 
>  <dipole> 
4.6 
 
>  <excitation_energy_1> 
3.668 
 
>  <excitation_energy_2> 
4.138 
 
>  <excitation_energy_3> 
4.166 
 
>  <excitation_energy_4> 
4.208 
 
>  <homo_energy> 
-7.753 
 
>  <homo_lumo_gap> 
4.95 
 
>  <logP> 
2.685 
 
>  <lumo_energy> 
-2.803 
 
>  <melting_point> 
67.73 
 
>  <molecular_refractivity> 
56.16 
 
>  <oscillator_strength_1> 
0.0 
 
>  <oscillator_strength_2> 
0.0176 
 
>  <oscillator_strength_3> 
0.001 
 
>  <oscillator_strength_4> 
0.0009 
 
>  <open_babel_can_smiles> 
CCCOC(=O)c1ccc(cc1)N(=O)=O 
 
>  <mulliken_charges> 
26 
1   -0.44385 
2   -0.278159 
3   -0.172135 
4   -0.167434 
5   -0.156225 
6   -0.156821 
7   -0.048595 
8   0.065705 
9   0.284097 
10   0.607762 
11   0.382925 
12   -0.48295 
13   -0.390122 
14   -0.388579 
15   -0.478664 
16   0.152185 
17   0.143516 
18   0.155693 
19   0.145296 
20   0.167007 
21   0.173132 
22   0.180298 
23   0.188228 
24   0.189494 
25   0.153755 
26   0.174441 
 
>  <lowdin_charges> 
26 
1   -0.447345 
2   -0.285057 
3   -0.132435 
4   -0.124898 
5   -0.138307 
6   -0.135836 
7   -0.127872 
8   -0.024913 
9   0.012957 
10   0.197233 
11   0.307173 
12   -0.262796 
13   -0.24177 
14   -0.238678 
15   -0.188224 
16   0.155073 
17   0.147153 
18   0.154399 
19   0.154691 
20   0.157859 
21   0.179732 
22   0.186777 
23   0.190989 
24   0.189689 
25   0.1531 
26   0.161306 
 
$$$$ 
 
