PCCDB-ID:  52346 
public computational chemistry database (PCCDB) project, http://pccdb.org 
 
 16 15  0  0  1  0  0  0  0  0999 V2000 
    1.0771    0.0241   -0.2288 C   0  0  0  0  0  0  0  0  0  0  0  0 
    2.5967    0.0147   -0.0545 C   0  0  0  0  0  0  0  0  0  0  0  0 
    2.5836   -1.7528    1.7029 C   0  0  0  0  0  0  0  0  0  0  0  0 
    3.0558   -0.4016    1.3742 C   0  0  1  0  0  0  0  0  0  0  0  0 
    4.5935   -0.2990    1.4967 C   0  0  0  0  0  0  0  0  0  0  0  0 
    2.2728   -2.8504    1.9242 N   0  0  0  0  0  0  0  0  0  0  0  0 
    5.2313    0.7634    1.7608 N   0  0  0  0  0  0  0  0  0  0  0  0 
    5.2981   -1.4161    1.1995 O   0  0  0  0  0  0  0  0  0  0  0  0 
    0.8138    0.3505   -1.2401 H   0  0  0  0  0  0  0  0  0  0  0  0 
    0.5987    0.7111    0.4793 H   0  0  0  0  0  0  0  0  0  0  0  0 
    0.6488   -0.9721   -0.0756 H   0  0  0  0  0  0  0  0  0  0  0  0 
    3.0118    1.0115   -0.2395 H   0  0  0  0  0  0  0  0  0  0  0  0 
    3.0643   -0.6619   -0.7791 H   0  0  0  0  0  0  0  0  0  0  0  0 
    2.6179    0.2915    2.1025 H   0  0  0  0  0  0  0  0  0  0  0  0 
    4.5899    1.5374    1.9394 H   0  0  0  0  0  0  0  0  0  0  0  0 
    4.7165   -2.1949    1.1814 H   0  0  0  0  0  0  0  0  0  0  0  0 
  1 11  1  0  0  0  0 
  1  2  1  0  0  0  0 
  1 10  1  0  0  0  0 
  2  4  1  0  0  0  0 
  3  6  3  0  0  0  0 
  4  5  1  0  0  0  0 
  4  3  1  0  0  0  0 
  4 14  1  1  0  0  0 
  5  7  2  0  0  0  0 
  7 15  1  0  0  0  0 
  8  5  1  0  0  0  0 
  9  1  1  0  0  0  0 
 12  2  1  0  0  0  0 
 13  2  1  0  0  0  0 
 16  8  1  0  0  0  0 
M  END 
>  <HBA> 
3 
 
>  <HBD> 
1 
 
>  <TPSA> 
66.88 
 
>  <cid> 
52346 
 
>  <dipole> 
3.85 
 
>  <excitation_energy_1> 
6.031 
 
>  <excitation_energy_2> 
6.336 
 
>  <excitation_energy_3> 
6.454 
 
>  <excitation_energy_4> 
6.767 
 
>  <homo_energy> 
-7.595 
 
>  <homo_lumo_gap> 
7.448 
 
>  <logP> 
0.722 
 
>  <lumo_energy> 
-0.147 
 
>  <melting_point> 
83.64 
 
>  <molecular_refractivity> 
28.81 
 
>  <oscillator_strength_1> 
0.001 
 
>  <oscillator_strength_2> 
0.0061 
 
>  <oscillator_strength_3> 
0.0067 
 
>  <oscillator_strength_4> 
0.011 
 
>  <open_babel_can_smiles> 
CC[C@H](C(=N)O)C#N 
 
>  <mulliken_charges> 
16 
1   -0.459125 
2   -0.246943 
3   0.337165 
4   -0.256713 
5   0.5029 
6   -0.46674 
7   -0.57244 
8   -0.573614 
9   0.164699 
10   0.152368 
11   0.174797 
12   0.165255 
13   0.165861 
14   0.196808 
15   0.289287 
16   0.426433 
 
>  <lowdin_charges> 
16 
1   -0.448303 
2   -0.259827 
3   -0.029127 
4   -0.163933 
5   0.13329 
6   -0.114102 
7   -0.382274 
8   -0.349607 
9   0.162934 
10   0.154173 
11   0.162879 
12   0.159385 
13   0.160826 
14   0.186767 
15   0.260433 
16   0.366489 
 
$$$$ 
 
