PCCDB-ID:  38426 
public computational chemistry database (PCCDB) project, http://pccdb.org 
 
 33 33  0  0  0  0  0  0  0  0999 V2000 
    0.8780    0.0895    0.0166 C   0  0  0  0  0  0  0  0  0  0  0  0 
    0.4841    0.8267    1.2983 C   0  0  0  0  0  0  0  0  0  0  0  0 
    2.3838    0.1893   -0.2524 C   0  0  0  0  0  0  0  0  0  0  0  0 
    2.6732   -1.8001   -1.6423 C   0  0  0  0  0  0  0  0  0  0  0  0 
    4.1344    0.0753   -1.9230 C   0  0  0  0  0  0  0  0  0  0  0  0 
    3.0578   -2.2694   -3.0439 C   0  0  0  0  0  0  0  0  0  0  0  0 
    4.4800   -0.4373   -3.3192 C   0  0  0  0  0  0  0  0  0  0  0  0 
   -3.0209    1.0925    2.7747 C   0  0  0  0  0  0  0  0  0  0  0  0 
   -1.4968    1.1554    2.7160 C   0  0  0  0  0  0  0  0  0  0  0  0 
   -0.7484    1.5064    3.7011 N   0  0  0  0  0  0  0  0  0  0  0  0 
   -0.9483    0.7147    1.5381 N   0  0  0  0  0  0  0  0  0  0  0  0 
    2.7784   -0.3413   -1.5574 N   0  0  0  0  0  0  0  0  0  0  0  0 
    4.3707   -1.8524   -3.3911 O   0  0  0  0  0  0  0  0  0  0  0  0 
   -3.9152    1.8451    1.3427 S   0  0  0  0  0  0  0  0  0  0  0  0 
    0.3469    0.5148   -0.8463 H   0  0  0  0  0  0  0  0  0  0  0  0 
    0.5624   -0.9569    0.1042 H   0  0  0  0  0  0  0  0  0  0  0  0 
    0.7932    1.8833    1.2454 H   0  0  0  0  0  0  0  0  0  0  0  0 
    0.9970    0.4033    2.1673 H   0  0  0  0  0  0  0  0  0  0  0  0 
    2.9431   -0.2990    0.5715 H   0  0  0  0  0  0  0  0  0  0  0  0 
    2.6705    1.2488   -0.2351 H   0  0  0  0  0  0  0  0  0  0  0  0 
    3.3292   -2.2976   -0.8997 H   0  0  0  0  0  0  0  0  0  0  0  0 
    1.6426   -2.1071   -1.4347 H   0  0  0  0  0  0  0  0  0  0  0  0 
    4.1837    1.1713   -1.9123 H   0  0  0  0  0  0  0  0  0  0  0  0 
    4.8894   -0.3025   -1.2049 H   0  0  0  0  0  0  0  0  0  0  0  0 
    2.3301   -1.8758   -3.7729 H   0  0  0  0  0  0  0  0  0  0  0  0 
    3.0546   -3.3623   -3.0985 H   0  0  0  0  0  0  0  0  0  0  0  0 
    5.5150   -0.1923   -3.5763 H   0  0  0  0  0  0  0  0  0  0  0  0 
    3.8096    0.0323   -4.0580 H   0  0  0  0  0  0  0  0  0  0  0  0 
   -3.3717    1.5537    3.7002 H   0  0  0  0  0  0  0  0  0  0  0  0 
   -3.3496    0.0475    2.7723 H   0  0  0  0  0  0  0  0  0  0  0  0 
   -1.3190    1.7401    4.5152 H   0  0  0  0  0  0  0  0  0  0  0  0 
   -1.5479    0.7937    0.7251 H   0  0  0  0  0  0  0  0  0  0  0  0 
   -3.4600    3.1047    1.5205 H   0  0  0  0  0  0  0  0  0  0  0  0 
  1 16  1  0  0  0  0 
  1  2  1  0  0  0  0 
  2 11  1  0  0  0  0 
  2 18  1  0  0  0  0 
  3 20  1  0  0  0  0 
  3  1  1  0  0  0  0 
  3 19  1  0  0  0  0 
  4 12  1  0  0  0  0 
  4 22  1  0  0  0  0 
  4 21  1  0  0  0  0 
  5 23  1  0  0  0  0 
  5 12  1  0  0  0  0 
  5 24  1  0  0  0  0 
  6  4  1  0  0  0  0 
  7  5  1  0  0  0  0 
  8 29  1  0  0  0  0 
  9  8  1  0  0  0  0 
  9 10  2  0  0  0  0 
 10 31  1  0  0  0  0 
 11  9  1  0  0  0  0 
 12  3  1  0  0  0  0 
 13  7  1  0  0  0  0 
 13  6  1  0  0  0  0 
 14 33  1  0  0  0  0 
 14  8  1  0  0  0  0 
 15  1  1  0  0  0  0 
 17  2  1  0  0  0  0 
 25  6  1  0  0  0  0 
 26  6  1  0  0  0  0 
 27  7  1  0  0  0  0 
 28  7  1  0  0  0  0 
 30  8  1  0  0  0  0 
 32 11  1  0  0  0  0 
M  END 
>  <HBA> 
5 
 
>  <HBD> 
2 
 
>  <TPSA> 
89.65 
 
>  <cid> 
38426 
 
>  <dipole> 
1.64 
 
>  <excitation_energy_1> 
5.187 
 
>  <excitation_energy_2> 
5.337 
 
>  <excitation_energy_3> 
5.435 
 
>  <excitation_energy_4> 
5.485 
 
>  <homo_energy> 
-5.921 
 
>  <homo_lumo_gap> 
6.085 
 
>  <logP> 
0.634 
 
>  <lumo_energy> 
0.163 
 
>  <melting_point> 
80.08 
 
>  <molecular_refractivity> 
65.48 
 
>  <oscillator_strength_1> 
0.0023 
 
>  <oscillator_strength_2> 
0.001 
 
>  <oscillator_strength_3> 
0.0089 
 
>  <oscillator_strength_4> 
0.0001 
 
>  <open_babel_can_smiles> 
SCC(=N)NCCCN1CCOCC1 
 
>  <mulliken_charges> 
33 
1   -0.297699 
2   -0.094923 
3   -0.104512 
4   -0.137473 
5   -0.131186 
6   -0.03285 
7   -0.033631 
8   -0.493046 
9   0.47922 
10   -0.637266 
11   -0.59823 
12   -0.406363 
13   -0.467071 
14   -0.084447 
15   0.142769 
16   0.14936 
17   0.140567 
18   0.175262 
19   0.11639 
20   0.136416 
21   0.11919 
22   0.142254 
23   0.13797 
24   0.120092 
25   0.127583 
26   0.144231 
27   0.144154 
28   0.127639 
29   0.186915 
30   0.207807 
31   0.274224 
32   0.335195 
33   0.111461 
 
>  <lowdin_charges> 
33 
1   -0.287663 
2   -0.187187 
3   -0.196679 
4   -0.217793 
5   -0.2145 
6   -0.135739 
7   -0.136615 
8   -0.393944 
9   0.078856 
10   -0.445435 
11   -0.291463 
12   -0.192976 
13   -0.27442 
14   -0.074832 
15   0.146447 
16   0.145965 
17   0.136265 
18   0.164158 
19   0.121464 
20   0.142862 
21   0.123471 
22   0.149373 
23   0.14622 
24   0.123653 
25   0.13249 
26   0.14896 
27   0.15023 
28   0.132627 
29   0.170431 
30   0.18472 
31   0.250102 
32   0.280681 
33   0.120269 
 
$$$$ 
 
