PCCDB-ID:  12506 
public computational chemistry database (PCCDB) project, http://pccdb.org 
 
 22 22  0  0  1  0  0  0  0  0999 V2000 
    6.7605   -0.3265    1.2788 C   0  0  0  0  0  0  0  0  0  0  0  0 
    4.6386   -3.4836   -4.3420 C   0  0  0  0  0  0  0  0  0  0  0  0 
    4.1755   -2.1714   -3.6926 C   0  0  0  0  0  0  0  0  0  0  0  0 
    4.9378   -4.3398   -3.1092 C   0  0  0  0  0  0  0  0  0  0  0  0 
    4.3121   -1.4947   -1.2398 C   0  0  0  0  0  0  0  0  0  0  0  0 
    5.9308   -0.2892    0.0170 C   0  0  0  0  0  0  0  0  0  0  0  0 
    5.0539   -2.0958   -2.4271 C   0  0  1  0  0  0  0  0  0  0  0  0 
    5.9521    0.5947   -0.8129 O   0  0  0  0  0  0  0  0  0  0  0  0 
    5.4676   -3.4400   -2.1338 O   0  0  0  0  0  0  0  0  0  0  0  0 
    5.1477   -1.3904   -0.0703 O   0  0  0  0  0  0  0  0  0  0  0  0 
    7.3481    0.5889    1.3553 H   0  0  0  0  0  0  0  0  0  0  0  0 
    7.4267   -1.1954    1.2584 H   0  0  0  0  0  0  0  0  0  0  0  0 
    6.1135   -0.4330    2.1553 H   0  0  0  0  0  0  0  0  0  0  0  0 
    5.5542   -3.3214   -4.9226 H   0  0  0  0  0  0  0  0  0  0  0  0 
    3.8892   -3.9291   -5.0038 H   0  0  0  0  0  0  0  0  0  0  0  0 
    3.1138   -2.2392   -3.4187 H   0  0  0  0  0  0  0  0  0  0  0  0 
    4.2991   -1.2947   -4.3345 H   0  0  0  0  0  0  0  0  0  0  0  0 
    5.6801   -5.1253   -3.2860 H   0  0  0  0  0  0  0  0  0  0  0  0 
    4.0195   -4.8184   -2.7313 H   0  0  0  0  0  0  0  0  0  0  0  0 
    3.4904   -2.1500   -0.9396 H   0  0  0  0  0  0  0  0  0  0  0  0 
    3.9278   -0.5038   -1.4990 H   0  0  0  0  0  0  0  0  0  0  0  0 
    5.9556   -1.4990   -2.6149 H   0  0  0  0  0  0  0  0  0  0  0  0 
  1 11  1  0  0  0  0 
  1 13  1  0  0  0  0 
  2  3  1  0  0  0  0 
  2  4  1  0  0  0  0 
  3 16  1  0  0  0  0 
  3  7  1  0  0  0  0 
  4 19  1  0  0  0  0 
  4  9  1  0  0  0  0 
  5 20  1  0  0  0  0 
  5 10  1  0  0  0  0 
  6  1  1  0  0  0  0 
  7 22  1  6  0  0  0 
  7  9  1  0  0  0  0 
  7  5  1  0  0  0  0 
  8  6  2  0  0  0  0 
 10  6  1  0  0  0  0 
 12  1  1  0  0  0  0 
 14  2  1  0  0  0  0 
 15  2  1  0  0  0  0 
 17  3  1  0  0  0  0 
 18  4  1  0  0  0  0 
 21  5  1  0  0  0  0 
M  END 
>  <HBA> 
3 
 
>  <HBD> 
0 
 
>  <TPSA> 
35.53 
 
>  <cid> 
12506 
 
>  <dipole> 
1.86 
 
>  <excitation_energy_1> 
5.779 
 
>  <excitation_energy_2> 
6.163 
 
>  <excitation_energy_3> 
6.362 
 
>  <excitation_energy_4> 
6.626 
 
>  <homo_energy> 
-6.626 
 
>  <homo_lumo_gap> 
7.08 
 
>  <logP> 
0.729 
 
>  <lumo_energy> 
0.454 
 
>  <melting_point> 
-1.16 
 
>  <molecular_refractivity> 
36.02 
 
>  <oscillator_strength_1> 
0.0018 
 
>  <oscillator_strength_2> 
0.0001 
 
>  <oscillator_strength_3> 
0.0163 
 
>  <oscillator_strength_4> 
0.0039 
 
>  <open_babel_can_smiles> 
CC(=O)OC[C@@H]1CCCO1 
 
>  <mulliken_charges> 
22 
1   -0.523442 
2   -0.29999 
3   -0.323358 
4   -0.011716 
5   -0.050326 
6   0.601439 
7   0.148078 
8   -0.474148 
9   -0.498485 
10   -0.44571 
11   0.180171 
12   0.187009 
13   0.18041 
14   0.152002 
15   0.145104 
16   0.141964 
17   0.158498 
18   0.144495 
19   0.123656 
20   0.150458 
21   0.163131 
22   0.150757 
 
>  <lowdin_charges> 
22 
1   -0.46581 
2   -0.293739 
3   -0.291446 
4   -0.131441 
5   -0.145374 
6   0.202647 
7   -0.009867 
8   -0.272319 
9   -0.28652 
10   -0.189486 
11   0.174657 
12   0.181074 
13   0.177459 
14   0.151125 
15   0.154777 
16   0.144523 
17   0.160295 
18   0.148071 
19   0.127535 
20   0.156593 
21   0.158988 
22   0.14826 
 
$$$$ 
 
