PCCDB-ID:  68386 
public computational chemistry database (PCCDB) project, http://pccdb.org 
 
 18 18  0  0  0  0  0  0  0  0999 V2000 
   -0.7653    0.9822   -0.0789 C   0  0  0  0  0  0  0  0  0  0  0  0 
    1.4067   -0.0802   -0.1212 C   0  0  0  0  0  0  0  0  0  0  0  0 
   -1.3850   -0.2642   -0.0634 C   0  0  0  0  0  0  0  0  0  0  0  0 
    0.8037   -1.3348   -0.1058 C   0  0  0  0  0  0  0  0  0  0  0  0 
    1.2994    2.4540   -0.1297 C   0  0  0  0  0  0  0  0  0  0  0  0 
    1.5147    2.9504   -1.4963 C   0  0  0  0  0  0  0  0  0  0  0  0 
    0.6309    1.0854   -0.1067 C   0  0  0  0  0  0  0  0  0  0  0  0 
   -0.5869   -1.4055   -0.0760 C   0  0  0  0  0  0  0  0  0  0  0  0 
    1.6803    3.3339   -2.5790 N   0  0  0  0  0  0  0  0  0  0  0  0 
   -1.2337   -2.7291   -0.0529 N   0  0  0  0  0  0  0  0  0  0  0  0 
   -2.4630   -2.7618   -0.0248 O   0  0  0  0  0  0  0  0  0  0  0  0 
   -0.5043   -3.7195   -0.0622 O   0  0  0  0  0  0  0  0  0  0  0  0 
   -1.3746    1.8818   -0.0704 H   0  0  0  0  0  0  0  0  0  0  0  0 
    2.4906   -0.0088   -0.1457 H   0  0  0  0  0  0  0  0  0  0  0  0 
   -2.4630   -0.3644   -0.0395 H   0  0  0  0  0  0  0  0  0  0  0  0 
    1.3866   -2.2473   -0.1141 H   0  0  0  0  0  0  0  0  0  0  0  0 
    0.6887    3.1869    0.4106 H   0  0  0  0  0  0  0  0  0  0  0  0 
    2.2697    2.4145    0.3792 H   0  0  0  0  0  0  0  0  0  0  0  0 
  1 13  1  0  0  0  0 
  1  3  2  0  0  0  0 
  2  7  2  0  0  0  0 
  2  4  1  0  0  0  0 
  3 15  1  0  0  0  0 
  4  8  2  0  0  0  0 
  5  7  1  0  0  0  0 
  5 18  1  0  0  0  0 
  5 17  1  0  0  0  0 
  6  5  1  0  0  0  0 
  7  1  1  0  0  0  0 
  8  3  1  0  0  0  0 
  8 10  1  0  0  0  0 
  9  6  3  0  0  0  0 
 10 11  2  0  0  0  0 
 12 10  2  0  0  0  0 
 14  2  1  0  0  0  0 
 16  4  1  0  0  0  0 
M  END 
>  <HBA> 
1 
 
>  <HBD> 
0 
 
>  <TPSA> 
69.61 
 
>  <cid> 
68386 
 
>  <dipole> 
4.28 
 
>  <excitation_energy_1> 
3.732 
 
>  <excitation_energy_2> 
4.241 
 
>  <excitation_energy_3> 
4.351 
 
>  <excitation_energy_4> 
4.657 
 
>  <homo_energy> 
-7.946 
 
>  <homo_lumo_gap> 
5.23 
 
>  <logP> 
2.184 
 
>  <lumo_energy> 
-2.716 
 
>  <melting_point> 
80.19 
 
>  <molecular_refractivity> 
44.79 
 
>  <oscillator_strength_1> 
0.0 
 
>  <oscillator_strength_2> 
0.0003 
 
>  <oscillator_strength_3> 
0.015 
 
>  <oscillator_strength_4> 
0.2731 
 
>  <open_babel_can_smiles> 
N#CCc1ccc(cc1)N(=O)=O 
 
>  <mulliken_charges> 
18 
1   -0.178669 
2   -0.178647 
3   -0.144053 
4   -0.144243 
5   -0.442138 
6   0.368585 
7   0.178752 
8   0.274737 
9   -0.452452 
10   0.383108 
11   -0.389824 
12   -0.389861 
13   0.155329 
14   0.155236 
15   0.191126 
16   0.19119 
17   0.210919 
18   0.210904 
 
>  <lowdin_charges> 
18 
1   -0.150915 
2   -0.147742 
3   -0.128035 
4   -0.130605 
5   -0.268299 
6   -0.01792 
7   0.018415 
8   0.00672 
9   -0.112159 
10   0.306383 
11   -0.239097 
12   -0.241686 
13   0.170929 
14   0.168378 
15   0.190104 
16   0.192387 
17   0.192371 
18   0.190773 
 
$$$$ 
 
