PCCDB-ID:  37477 
public computational chemistry database (PCCDB) project, http://pccdb.org 
 
 25 27  0  0  1  0  0  0  0  0999 V2000 
    0.9271    0.0361    0.0735 C   0  0  0  0  0  0  0  0  0  0  0  0 
    5.2680    0.4890   -3.8498 C   0  0  0  0  0  0  0  0  0  0  0  0 
    3.5572   -3.3910   -1.4869 C   0  0  0  0  0  0  0  0  0  0  0  0 
    5.2202   -0.8919   -3.7861 C   0  0  0  0  0  0  0  0  0  0  0  0 
    4.3214   -2.9308   -2.5439 C   0  0  0  0  0  0  0  0  0  0  0  0 
    4.5903    1.3191   -2.9131 C   0  0  0  0  0  0  0  0  0  0  0  0 
    2.8995   -2.5101   -0.5827 C   0  0  0  0  0  0  0  0  0  0  0  0 
    3.0361    1.2923   -0.7645 C   0  0  0  0  0  0  0  0  0  0  0  0 
    2.4619    0.0402   -0.0016 C   0  0  2  0  0  0  0  0  0  0  0  0 
    4.4748   -1.5335   -2.7590 C   0  0  0  0  0  0  0  0  0  0  0  0 
    3.8605    0.7261   -1.9067 C   0  0  0  0  0  0  0  0  0  0  0  0 
    3.0279   -1.1508   -0.7668 C   0  0  0  0  0  0  0  0  0  0  0  0 
    3.8110   -0.6834   -1.8439 C   0  0  0  0  0  0  0  0  0  0  0  0 
    0.5600    0.9113    0.6225 H   0  0  0  0  0  0  0  0  0  0  0  0 
    0.5577   -0.8605    0.5842 H   0  0  0  0  0  0  0  0  0  0  0  0 
    0.4880    0.0543   -0.9309 H   0  0  0  0  0  0  0  0  0  0  0  0 
    5.8432    0.9622   -4.6418 H   0  0  0  0  0  0  0  0  0  0  0  0 
    3.4527   -4.4628   -1.3368 H   0  0  0  0  0  0  0  0  0  0  0  0 
    5.7532   -1.4912   -4.5205 H   0  0  0  0  0  0  0  0  0  0  0  0 
    4.8091   -3.6360   -3.2127 H   0  0  0  0  0  0  0  0  0  0  0  0 
    4.6603    2.4002   -3.0067 H   0  0  0  0  0  0  0  0  0  0  0  0 
    2.3096   -2.9231    0.2321 H   0  0  0  0  0  0  0  0  0  0  0  0 
    3.6440    1.9189   -0.1000 H   0  0  0  0  0  0  0  0  0  0  0  0 
    2.2237    1.9326   -1.1328 H   0  0  0  0  0  0  0  0  0  0  0  0 
    2.8498    0.0323    1.0263 H   0  0  0  0  0  0  0  0  0  0  0  0 
  1 15  1  0  0  0  0 
  1 14  1  0  0  0  0 
  2  4  2  0  0  0  0 
  2  6  1  0  0  0  0 
  3 18  1  0  0  0  0 
  3  7  2  0  0  0  0 
  4 10  1  0  0  0  0 
  5  3  1  0  0  0  0 
  6 11  2  0  0  0  0 
  7 22  1  0  0  0  0 
  8 23  1  0  0  0  0 
  8  9  1  0  0  0  0 
  9  1  1  0  0  0  0 
  9 25  1  1  0  0  0 
 10  5  2  0  0  0  0 
 10 13  1  0  0  0  0 
 11 13  1  0  0  0  0 
 11  8  1  0  0  0  0 
 12  7  1  0  0  0  0 
 12  9  1  0  0  0  0 
 13 12  2  0  0  0  0 
 16  1  1  0  0  0  0 
 17  2  1  0  0  0  0 
 19  4  1  0  0  0  0 
 20  5  1  0  0  0  0 
 21  6  1  0  0  0  0 
 24  8  1  0  0  0  0 
M  END 
>  <HBA> 
0 
 
>  <HBD> 
0 
 
>  <TPSA> 
0.0 
 
>  <cid> 
37477 
 
>  <dipole> 
0.8 
 
>  <excitation_energy_1> 
4.222 
 
>  <excitation_energy_2> 
4.363 
 
>  <excitation_energy_3> 
5.15 
 
>  <excitation_energy_4> 
5.348 
 
>  <homo_energy> 
-5.478 
 
>  <homo_lumo_gap> 
4.713 
 
>  <logP> 
3.499 
 
>  <lumo_energy> 
-0.765 
 
>  <melting_point> 
79.24 
 
>  <molecular_refractivity> 
56.57 
 
>  <oscillator_strength_1> 
0.1006 
 
>  <oscillator_strength_2> 
0.0072 
 
>  <oscillator_strength_3> 
0.0049 
 
>  <oscillator_strength_4> 
0.0111 
 
>  <open_babel_can_smiles> 
C[C@@H]1Cc2c3c1cccc3ccc2 
 
>  <mulliken_charges> 
25 
1   -0.444358 
2   -0.127136 
3   -0.127607 
4   -0.213038 
5   -0.212007 
6   -0.226151 
7   -0.228962 
8   -0.370663 
9   -0.167112 
10   0.196369 
11   0.139415 
12   0.141683 
13   -0.008878 
14   0.144184 
15   0.146865 
16   0.151915 
17   0.125492 
18   0.125552 
19   0.125517 
20   0.125766 
21   0.122258 
22   0.122038 
23   0.156534 
24   0.156347 
25   0.145976 
 
>  <lowdin_charges> 
25 
1   -0.440996 
2   -0.153207 
3   -0.150895 
4   -0.170005 
5   -0.169357 
6   -0.177262 
7   -0.179422 
8   -0.279991 
9   -0.118384 
10   0.000798 
11   0.000432 
12   -0.001533 
13   -0.015741 
14   0.149912 
15   0.151319 
16   0.15147 
17   0.15768 
18   0.154864 
19   0.157499 
20   0.157673 
21   0.153232 
22   0.155516 
23   0.159134 
24   0.157635 
25   0.14963 
 
$$$$ 
 
