PCCDB-ID:  14322 
public computational chemistry database (PCCDB) project, http://pccdb.org 
 
 23 23  0  0  0  0  0  0  0  0999 V2000 
    0.9976    1.0946    0.4176 C   0  0  0  0  0  0  0  0  0  0  0  0 
    6.6960   -3.6198   -0.0817 C   0  0  0  0  0  0  0  0  0  0  0  0 
    4.4018    2.1808   -0.9360 C   0  0  0  0  0  0  0  0  0  0  0  0 
    3.0619    2.2095   -0.5453 C   0  0  0  0  0  0  0  0  0  0  0  0 
    5.1692    1.0304   -0.7619 C   0  0  0  0  0  0  0  0  0  0  0  0 
    3.2331   -0.0684    0.2106 C   0  0  0  0  0  0  0  0  0  0  0  0 
    2.4575    1.0832    0.0269 C   0  0  0  0  0  0  0  0  0  0  0  0 
    4.5687   -0.0832   -0.1781 C   0  0  0  0  0  0  0  0  0  0  0  0 
    6.3969   -1.4187    0.6640 C   0  0  0  0  0  0  0  0  0  0  0  0 
    7.1037   -2.4652    0.7058 N   0  0  0  0  0  0  0  0  0  0  0  0 
    6.7162   -0.3090    1.3676 O   0  0  0  0  0  0  0  0  0  0  0  0 
    5.2491   -1.2976   -0.0517 O   0  0  0  0  0  0  0  0  0  0  0  0 
    0.6564    2.1071    0.6570 H   0  0  0  0  0  0  0  0  0  0  0  0 
    0.8099    0.4585    1.2890 H   0  0  0  0  0  0  0  0  0  0  0  0 
    0.3656    0.7215   -0.3993 H   0  0  0  0  0  0  0  0  0  0  0  0 
    6.8467   -3.4495   -1.1568 H   0  0  0  0  0  0  0  0  0  0  0  0 
    5.6388   -3.8800    0.0635 H   0  0  0  0  0  0  0  0  0  0  0  0 
    7.3068   -4.4783    0.2114 H   0  0  0  0  0  0  0  0  0  0  0  0 
    4.8541    3.0627   -1.3813 H   0  0  0  0  0  0  0  0  0  0  0  0 
    2.4781    3.1156   -0.6878 H   0  0  0  0  0  0  0  0  0  0  0  0 
    6.2099    0.9948   -1.0642 H   0  0  0  0  0  0  0  0  0  0  0  0 
    2.8067   -0.9640    0.6532 H   0  0  0  0  0  0  0  0  0  0  0  0 
    7.5348   -0.5456    1.8388 H   0  0  0  0  0  0  0  0  0  0  0  0 
  1 13  1  0  0  0  0 
  1 14  1  0  0  0  0 
  2 17  1  0  0  0  0 
  2 18  1  0  0  0  0 
  2 10  1  0  0  0  0 
  3  5  2  0  0  0  0 
  3  4  1  0  0  0  0 
  4  7  2  0  0  0  0 
  5  8  1  0  0  0  0 
  6 22  1  0  0  0  0 
  7  6  1  0  0  0  0 
  7  1  1  0  0  0  0 
  8 12  1  0  0  0  0 
  8  6  2  0  0  0  0 
  9 10  2  0  0  0  0 
  9 11  1  0  0  0  0 
 11 23  1  0  0  0  0 
 12  9  1  0  0  0  0 
 15  1  1  0  0  0  0 
 16  2  1  0  0  0  0 
 19  3  1  0  0  0  0 
 20  4  1  0  0  0  0 
 21  5  1  0  0  0  0 
M  END 
>  <HBA> 
3 
 
>  <HBD> 
1 
 
>  <TPSA> 
38.33 
 
>  <cid> 
14322 
 
>  <dipole> 
1.58 
 
>  <excitation_energy_1> 
5.165 
 
>  <excitation_energy_2> 
5.623 
 
>  <excitation_energy_3> 
5.822 
 
>  <excitation_energy_4> 
5.882 
 
>  <homo_energy> 
-6.335 
 
>  <homo_lumo_gap> 
6.231 
 
>  <logP> 
2.104 
 
>  <lumo_energy> 
-0.103 
 
>  <melting_point> 
71.5 
 
>  <molecular_refractivity> 
46.1 
 
>  <oscillator_strength_1> 
0.0057 
 
>  <oscillator_strength_2> 
0.0959 
 
>  <oscillator_strength_3> 
0.0184 
 
>  <oscillator_strength_4> 
0.0025 
 
>  <open_babel_can_smiles> 
C/N=C(\Oc1cccc(c1)C)/O 
 
>  <mulliken_charges> 
23 
1   -0.529253 
2   -0.315719 
3   -0.141272 
4   -0.172589 
5   -0.14107 
6   -0.213071 
7   0.166822 
8   0.354292 
9   0.710313 
10   -0.486563 
11   -0.59345 
12   -0.535735 
13   0.158713 
14   0.160522 
15   0.168671 
16   0.149407 
17   0.149023 
18   0.152477 
19   0.134887 
20   0.123833 
21   0.141501 
22   0.134506 
23   0.423754 
 
>  <lowdin_charges> 
23 
1   -0.442262 
2   -0.349833 
3   -0.14721 
4   -0.17453 
5   -0.172797 
6   -0.182104 
7   0.009798 
8   0.105653 
9   0.191091 
10   -0.268127 
11   -0.35943 
12   -0.158815 
13   0.158657 
14   0.16044 
15   0.164653 
16   0.144975 
17   0.143275 
18   0.152008 
19   0.161394 
20   0.156791 
21   0.16692 
22   0.166201 
23   0.373251 
 
$$$$ 
 
