PCCDB-ID:  37734 
public computational chemistry database (PCCDB) project, http://pccdb.org 
 
 21 21  0  0  0  0  0  0  0  0999 V2000 
    1.9395   -3.8205    4.5397 C   0  0  0  0  0  0  0  0  0  0  0  0 
    1.7337   -2.7374    3.7842 C   0  0  0  0  0  0  0  0  0  0  0  0 
   -2.4107   -0.6082    1.1567 C   0  0  0  0  0  0  0  0  0  0  0  0 
   -1.5989    0.2763    1.8671 C   0  0  0  0  0  0  0  0  0  0  0  0 
   -1.8494   -1.7525    0.5845 C   0  0  0  0  0  0  0  0  0  0  0  0 
   -0.2336    0.0173    2.0047 C   0  0  0  0  0  0  0  0  0  0  0  0 
   -0.4861   -2.0091    0.7225 C   0  0  0  0  0  0  0  0  0  0  0  0 
    1.8228   -1.4222    1.5755 C   0  0  0  0  0  0  0  0  0  0  0  0 
    0.3396   -1.1244    1.4322 C   0  0  0  0  0  0  0  0  0  0  0  0 
    2.0588   -2.7350    2.3269 C   0  0  0  0  0  0  0  0  0  0  0  0 
    2.4735   -3.7276    1.7497 O   0  0  0  0  0  0  0  0  0  0  0  0 
    1.7166   -3.8331    5.6025 H   0  0  0  0  0  0  0  0  0  0  0  0 
    2.3416   -4.7265    4.0942 H   0  0  0  0  0  0  0  0  0  0  0  0 
    1.3279   -1.8220    4.2093 H   0  0  0  0  0  0  0  0  0  0  0  0 
   -3.4732   -0.4079    1.0479 H   0  0  0  0  0  0  0  0  0  0  0  0 
   -2.0257    1.1705    2.3138 H   0  0  0  0  0  0  0  0  0  0  0  0 
   -2.4745   -2.4465    0.0287 H   0  0  0  0  0  0  0  0  0  0  0  0 
    0.3949    0.7145    2.5548 H   0  0  0  0  0  0  0  0  0  0  0  0 
   -0.0526   -2.9025    0.2796 H   0  0  0  0  0  0  0  0  0  0  0  0 
    2.3141   -0.6017    2.1136 H   0  0  0  0  0  0  0  0  0  0  0  0 
    2.2991   -1.5224    0.5952 H   0  0  0  0  0  0  0  0  0  0  0  0 
  1 12  1  0  0  0  0 
  2 14  1  0  0  0  0 
  2  1  2  0  0  0  0 
  3  4  2  0  0  0  0 
  4  6  1  0  0  0  0 
  4 16  1  0  0  0  0 
  5  7  2  0  0  0  0 
  5  3  1  0  0  0  0 
  6 18  1  0  0  0  0 
  7  9  1  0  0  0  0 
  8 20  1  0  0  0  0 
  8 10  1  0  0  0  0 
  9  8  1  0  0  0  0 
  9  6  2  0  0  0  0 
 10  2  1  0  0  0  0 
 11 10  2  0  0  0  0 
 13  1  1  0  0  0  0 
 15  3  1  0  0  0  0 
 17  5  1  0  0  0  0 
 19  7  1  0  0  0  0 
 21  8  1  0  0  0  0 
M  END 
>  <HBA> 
1 
 
>  <HBD> 
0 
 
>  <TPSA> 
17.07 
 
>  <cid> 
37734 
 
>  <dipole> 
2.58 
 
>  <excitation_energy_1> 
3.494 
 
>  <excitation_energy_2> 
4.454 
 
>  <excitation_energy_3> 
4.542 
 
>  <excitation_energy_4> 
5.285 
 
>  <homo_energy> 
-6.43 
 
>  <homo_lumo_gap> 
4.868 
 
>  <logP> 
1.984 
 
>  <lumo_energy> 
-1.562 
 
>  <melting_point> 
5.95 
 
>  <molecular_refractivity> 
45.55 
 
>  <oscillator_strength_1> 
0.0088 
 
>  <oscillator_strength_2> 
0.048 
 
>  <oscillator_strength_3> 
0.007 
 
>  <oscillator_strength_4> 
0.0109 
 
>  <open_babel_can_smiles> 
C=CC(=O)Cc1ccccc1 
 
>  <mulliken_charges> 
21 
1   -0.301927 
2   -0.12423 
3   -0.129594 
4   -0.126259 
5   -0.126666 
6   -0.189916 
7   -0.174367 
8   -0.431972 
9   0.156874 
10   0.437339 
11   -0.464865 
12   0.15555 
13   0.179846 
14   0.139077 
15   0.131511 
16   0.131297 
17   0.13402 
18   0.124082 
19   0.147986 
20   0.155271 
21   0.176944 
 
>  <lowdin_charges> 
21 
1   -0.258648 
2   -0.196503 
3   -0.155497 
4   -0.154063 
5   -0.152272 
6   -0.172144 
7   -0.160655 
8   -0.302269 
9   -0.003583 
10   0.160486 
11   -0.244013 
12   0.165789 
13   0.178643 
14   0.161142 
15   0.157098 
16   0.15896 
17   0.161211 
18   0.155702 
19   0.166246 
20   0.162176 
21   0.172195 
 
$$$$ 
 
