PCCDB-ID:  45099 
public computational chemistry database (PCCDB) project, http://pccdb.org 
 
 20 20  0  0  0  0  0  0  0  0999 V2000 
    0.8126    0.2526    0.3481 C   0  0  0  0  0  0  0  0  0  0  0  0 
    3.1528    0.8321    1.1011 C   0  0  0  0  0  0  0  0  0  0  0  0 
    3.8035   -3.3737   -0.5778 C   0  0  0  0  0  0  0  0  0  0  0  0 
    3.6240   -1.9796   -0.8371 C   0  0  0  0  0  0  0  0  0  0  0  0 
    3.0339   -3.8248    0.4563 C   0  0  0  0  0  0  0  0  0  0  0  0 
    2.7169   -1.3779   -0.0045 C   0  0  0  0  0  0  0  0  0  0  0  0 
    2.3179    0.0908    0.0352 C   0  0  0  0  0  0  0  0  0  0  0  0 
    2.6779    0.6671   -1.2768 N   0  0  0  0  0  0  0  0  0  0  0  0 
    2.0672   -2.5479    1.1280 S   0  0  0  0  0  0  0  0  0  0  0  0 
    0.5453   -0.1495    1.3328 H   0  0  0  0  0  0  0  0  0  0  0  0 
    0.2015   -0.2636   -0.4010 H   0  0  0  0  0  0  0  0  0  0  0  0 
    0.5436    1.3159    0.3414 H   0  0  0  0  0  0  0  0  0  0  0  0 
    2.9778    0.4132    2.0969 H   0  0  0  0  0  0  0  0  0  0  0  0 
    2.8818    1.8959    1.1286 H   0  0  0  0  0  0  0  0  0  0  0  0 
    4.2176    0.7498    0.8672 H   0  0  0  0  0  0  0  0  0  0  0  0 
    4.4777   -4.0094   -1.1424 H   0  0  0  0  0  0  0  0  0  0  0  0 
    4.1476   -1.4266   -1.6075 H   0  0  0  0  0  0  0  0  0  0  0  0 
    2.9642   -4.8255    0.8613 H   0  0  0  0  0  0  0  0  0  0  0  0 
    2.4701    1.6658   -1.2640 H   0  0  0  0  0  0  0  0  0  0  0  0 
    2.0817    0.2594   -1.9974 H   0  0  0  0  0  0  0  0  0  0  0  0 
  1 10  1  0  0  0  0 
  2 14  1  0  0  0  0 
  2 13  1  0  0  0  0 
  3  5  2  0  0  0  0 
  4  3  1  0  0  0  0 
  4  6  2  0  0  0  0 
  5 18  1  0  0  0  0 
  5  9  1  0  0  0  0 
  6  7  1  0  0  0  0 
  6  9  1  0  0  0  0 
  7  1  1  0  0  0  0 
  7  2  1  0  0  0  0 
  8 19  1  0  0  0  0 
  8  7  1  0  0  0  0 
 11  1  1  0  0  0  0 
 12  1  1  0  0  0  0 
 15  2  1  0  0  0  0 
 16  3  1  0  0  0  0 
 17  4  1  0  0  0  0 
 20  8  1  0  0  0  0 
M  END 
>  <HBA> 
2 
 
>  <HBD> 
1 
 
>  <TPSA> 
54.26 
 
>  <cid> 
45099 
 
>  <dipole> 
1.21 
 
>  <excitation_energy_1> 
5.351 
 
>  <excitation_energy_2> 
5.475 
 
>  <excitation_energy_3> 
5.566 
 
>  <excitation_energy_4> 
5.656 
 
>  <homo_energy> 
-5.957 
 
>  <homo_lumo_gap> 
5.894 
 
>  <logP> 
2.642 
 
>  <lumo_energy> 
-0.063 
 
>  <melting_point> 
66.25 
 
>  <molecular_refractivity> 
41.49 
 
>  <oscillator_strength_1> 
0.111 
 
>  <oscillator_strength_2> 
0.0273 
 
>  <oscillator_strength_3> 
0.0002 
 
>  <oscillator_strength_4> 
0.034 
 
>  <open_babel_can_smiles> 
CC(c1cccs1)(N)C 
 
>  <mulliken_charges> 
20 
1   -0.462978 
2   -0.428646 
3   -0.099252 
4   -0.125584 
5   -0.348842 
6   -0.141642 
7   0.153817 
8   -0.712856 
9   0.224275 
10   0.155579 
11   0.149985 
12   0.135513 
13   0.151936 
14   0.131697 
15   0.166212 
16   0.13655 
17   0.155236 
18   0.16749 
19   0.294561 
20   0.296949 
 
>  <lowdin_charges> 
20 
1   -0.458281 
2   -0.437296 
3   -0.183762 
4   -0.195497 
5   -0.324038 
6   -0.162385 
7   0.072405 
8   -0.539116 
9   0.286925 
10   0.155655 
11   0.153794 
12   0.145205 
13   0.155618 
14   0.142184 
15   0.161236 
16   0.164516 
17   0.175281 
18   0.179321 
19   0.252346 
20   0.255888 
 
$$$$ 
 
