PCCDB-ID:  10423 
public computational chemistry database (PCCDB) project, http://pccdb.org 
 
 10 10  0  0  0  0  0  0  0  0999 V2000 
    0.3564    1.0871   -0.0394 C   0  0  0  0  0  0  0  0  0  0  0  0 
   -0.9887    0.3451    0.1033 C   0  0  0  0  0  0  0  0  0  0  0  0 
    0.9783   -0.3063    0.1891 C   0  0  0  0  0  0  0  0  0  0  0  0 
   -0.3242   -0.9224    0.3103 O   0  0  0  0  0  0  0  0  0  0  0  0 
    0.5679    1.8280    0.7357 H   0  0  0  0  0  0  0  0  0  0  0  0 
    0.5460    1.5302   -1.0202 H   0  0  0  0  0  0  0  0  0  0  0  0 
   -1.6238    0.3316   -0.7922 H   0  0  0  0  0  0  0  0  0  0  0  0 
   -1.6022    0.6306    0.9680 H   0  0  0  0  0  0  0  0  0  0  0  0 
    1.5709   -0.4202    1.1064 H   0  0  0  0  0  0  0  0  0  0  0  0 
    1.5483   -0.7187   -0.6538 H   0  0  0  0  0  0  0  0  0  0  0  0 
  1  2  1  0  0  0  0 
  1  3  1  0  0  0  0 
  1  5  1  0  0  0  0 
  2  4  1  0  0  0  0 
  2  8  1  0  0  0  0 
  3  4  1  0  0  0  0 
  3  9  1  0  0  0  0 
  6  1  1  0  0  0  0 
  7  2  1  0  0  0  0 
 10  3  1  0  0  0  0 
M  END 
>  <HBA> 
1 
 
>  <HBD> 
0 
 
>  <TPSA> 
9.23 
 
>  <cid> 
10423 
 
>  <dipole> 
1.98 
 
>  <excitation_energy_1> 
6.32 
 
>  <excitation_energy_2> 
6.352 
 
>  <excitation_energy_3> 
6.544 
 
>  <excitation_energy_4> 
6.959 
 
>  <homo_energy> 
-6.577 
 
>  <homo_lumo_gap> 
8.974 
 
>  <logP> 
0.407 
 
>  <lumo_energy> 
2.397 
 
>  <melting_point> 
-10.94 
 
>  <molecular_refractivity> 
15.51 
 
>  <oscillator_strength_1> 
0.0125 
 
>  <oscillator_strength_2> 
0.0 
 
>  <oscillator_strength_3> 
0.0 
 
>  <oscillator_strength_4> 
0.0013 
 
>  <open_babel_can_smiles> 
C1CCO1 
 
>  <mulliken_charges> 
10 
1   -0.356748 
2   0.0 
3   0.000134 
4   -0.495398 
5   0.153324 
6   0.153346 
7   0.136349 
8   0.136357 
9   0.136334 
10   0.136302 
 
>  <lowdin_charges> 
10 
1   -0.308703 
2   -0.119975 
3   -0.118957 
4   -0.311667 
5   0.154105 
6   0.153049 
7   0.137688 
8   0.138283 
9   0.137782 
10   0.138395 
 
$$$$ 
 
