PCCDB-ID:  28688 
public computational chemistry database (PCCDB) project, http://pccdb.org 
 
 30 32  0  0  1  0  0  0  0  0999 V2000 
    1.1441   -0.6128   -0.9845 C   0  0  0  0  0  0  0  0  0  0  0  0 
    7.0519   -0.0134    0.8800 C   0  0  0  0  0  0  0  0  0  0  0  0 
    7.2766   -1.3085    0.3811 C   0  0  0  0  0  0  0  0  0  0  0  0 
    5.7989    0.5796    0.7881 C   0  0  0  0  0  0  0  0  0  0  0  0 
    6.2476   -2.0267   -0.2197 C   0  0  0  0  0  0  0  0  0  0  0  0 
    4.3704    4.7192   -0.8331 C   0  0  0  0  0  0  0  0  0  0  0  0 
    4.2054    3.9085   -2.1477 C   0  0  0  0  0  0  0  0  0  0  0  0 
    2.8428    1.6290    0.4559 C   0  0  0  0  0  0  0  0  0  0  0  0 
    2.6067   -0.6629   -0.6315 C   0  0  0  0  0  0  0  0  0  0  0  0 
    4.7397   -0.1284    0.1879 C   0  0  0  0  0  0  0  0  0  0  0  0 
    3.3641    0.2864   -0.0054 C   0  0  0  0  0  0  0  0  0  0  0  0 
    4.9871   -1.4298   -0.3104 C   0  0  0  0  0  0  0  0  0  0  0  0 
    3.4285    2.7941   -0.3045 C   0  0  3  0  0  0  0  0  0  0  0  0 
    3.9991    3.7971    0.2569 N   0  0  0  0  0  0  0  0  0  0  0  0 
    3.3040    2.8365   -1.6950 N   0  0  0  0  0  0  0  0  0  0  0  0 
    3.5319   -2.1156   -1.0137 S   0  0  0  0  0  0  0  0  0  0  0  0 
    0.9199    0.2227   -1.6584 H   0  0  0  0  0  0  0  0  0  0  0  0 
    0.5235   -0.4888   -0.0886 H   0  0  0  0  0  0  0  0  0  0  0  0 
    0.8208   -1.5323   -1.4808 H   0  0  0  0  0  0  0  0  0  0  0  0 
    7.8701    0.5311    1.3431 H   0  0  0  0  0  0  0  0  0  0  0  0 
    8.2634   -1.7554    0.4647 H   0  0  0  0  0  0  0  0  0  0  0  0 
    5.6354    1.5869    1.1603 H   0  0  0  0  0  0  0  0  0  0  0  0 
    6.4197   -3.0275   -0.6056 H   0  0  0  0  0  0  0  0  0  0  0  0 
    3.6925    5.5838   -0.8135 H   0  0  0  0  0  0  0  0  0  0  0  0 
    5.3872    5.0991   -0.6912 H   0  0  0  0  0  0  0  0  0  0  0  0 
    5.1663    3.5021   -2.4963 H   0  0  0  0  0  0  0  0  0  0  0  0 
    3.7607    4.4895   -2.9612 H   0  0  0  0  0  0  0  0  0  0  0  0 
    3.0693    1.7914    1.5146 H   0  0  0  0  0  0  0  0  0  0  0  0 
    1.7521    1.6588    0.3488 H   0  0  0  0  0  0  0  0  0  0  0  0 
    3.3621    1.9446   -2.1746 H   0  0  0  0  0  0  0  0  0  0  0  0 
  1  9  1  0  0  0  0 
  1 18  1  0  0  0  0 
  2 20  1  0  0  0  0 
  3 21  1  0  0  0  0 
  3  2  2  0  0  0  0 
  4  2  1  0  0  0  0 
  4 22  1  0  0  0  0 
  5  3  1  0  0  0  0 
  6 24  1  0  0  0  0 
  6 25  1  0  0  0  0 
  6 14  1  0  0  0  0 
  7 15  1  0  0  0  0 
  7  6  1  0  0  0  0 
  8 28  1  0  0  0  0 
  9 11  2  0  0  0  0 
 10  4  2  0  0  0  0 
 11 10  1  0  0  0  0 
 11  8  1  0  0  0  0 
 12  5  2  0  0  0  0 
 12 10  1  0  0  0  0 
 13 14  1  0  0  0  0 
 13  8  1  0  0  0  0 
 15 13  1  0  0  0  0 
 16  9  1  0  0  0  0 
 16 12  1  0  0  0  0 
 17  1  1  0  0  0  0 
 19  1  1  0  0  0  0 
 23  5  1  0  0  0  0 
 26  7  1  0  0  0  0 
 27  7  1  0  0  0  0 
 29  8  1  0  0  0  0 
 30 15  1  0  0  0  0 
M  RAD  2  13   2  14   2 
M  END 
>  <HBA> 
3 
 
>  <HBD> 
1 
 
>  <TPSA> 
52.63 
 
>  <cid> 
28688 
 
>  <dipole> 
2.04 
 
>  <excitation_energy_1> 
4.547 
 
>  <excitation_energy_2> 
4.654 
 
>  <excitation_energy_3> 
4.746 
 
>  <excitation_energy_4> 
4.891 
 
>  <homo_energy> 
-5.766 
 
>  <homo_lumo_gap> 
5.124 
 
>  <logP> 
2.518 
 
>  <lumo_energy> 
-0.642 
 
>  <melting_point> 
122.19 
 
>  <molecular_refractivity> 
77.79 
 
>  <oscillator_strength_1> 
0.0627 
 
>  <oscillator_strength_2> 
0.0088 
 
>  <oscillator_strength_3> 
0.0325 
 
>  <oscillator_strength_4> 
0.0009 
 
>  <open_babel_can_smiles> 
Cc1sc2c(c1C[C]1[N]CCN1)cccc2 
 
>  <mulliken_charges> 
30 
1   -0.507108 
2   -0.147812 
3   -0.119198 
4   -0.187389 
5   -0.176273 
6   -0.161765 
7   -0.149523 
8   -0.414021 
9   -0.197243 
10   0.112447 
11   0.111904 
12   -0.143765 
13   0.497831 
14   -0.474996 
15   -0.604274 
16   0.210041 
17   0.175282 
18   0.178667 
19   0.169509 
20   0.131763 
21   0.130101 
22   0.16145 
23   0.139021 
24   0.150498 
25   0.148419 
26   0.144166 
27   0.15004 
28   0.183932 
29   0.166143 
30   0.322153 
 
>  <lowdin_charges> 
30 
1   -0.442181 
2   -0.16226 
3   -0.159188 
4   -0.162699 
5   -0.161162 
6   -0.208661 
7   -0.212202 
8   -0.272719 
9   -0.151566 
10   -0.02438 
11   -0.053499 
12   -0.137541 
13   0.085679 
14   -0.247199 
15   -0.321103 
16   0.264973 
17   0.167691 
18   0.169528 
19   0.169197 
20   0.160393 
21   0.158834 
22   0.171983 
23   0.162699 
24   0.147006 
25   0.148979 
26   0.137784 
27   0.150794 
28   0.176975 
29   0.167842 
30   0.276003 
 
$$$$ 
 
