PCCDB-ID:  7720 
public computational chemistry database (PCCDB) project, http://pccdb.org 
 
 27 26  0  0  1  0  0  0  0  0999 V2000 
    3.0842    2.0839    2.2318 C   0  0  0  0  0  0  0  0  0  0  0  0 
    6.7228    5.0003   -1.4594 C   0  0  0  0  0  0  0  0  0  0  0  0 
    4.2624    1.7238    1.3210 C   0  0  0  0  0  0  0  0  0  0  0  0 
    5.5184    4.4024   -2.1986 C   0  0  0  0  0  0  0  0  0  0  0  0 
    4.2815    2.5224    0.0108 C   0  0  0  0  0  0  0  0  0  0  0  0 
    5.4604    2.1538   -0.9003 C   0  0  0  0  0  0  0  0  0  0  0  0 
    6.6000    2.2886   -3.1351 C   0  0  0  0  0  0  0  0  0  0  0  0 
    5.4701    2.8589   -2.2719 C   0  0  2  0  0  0  0  0  0  0  0  0 
    6.5188    2.8623   -4.4378 O   0  0  0  0  0  0  0  0  0  0  0  0 
    3.1018    1.5003    3.1594 H   0  0  0  0  0  0  0  0  0  0  0  0 
    2.1253    1.8907    1.7352 H   0  0  0  0  0  0  0  0  0  0  0  0 
    3.1052    3.1459    2.5060 H   0  0  0  0  0  0  0  0  0  0  0  0 
    6.6828    6.0952   -1.4892 H   0  0  0  0  0  0  0  0  0  0  0  0 
    7.6729    4.6995   -1.9159 H   0  0  0  0  0  0  0  0  0  0  0  0 
    6.7512    4.7039   -0.4042 H   0  0  0  0  0  0  0  0  0  0  0  0 
    4.2314    0.6493    1.0902 H   0  0  0  0  0  0  0  0  0  0  0  0 
    5.2058    1.8911    1.8602 H   0  0  0  0  0  0  0  0  0  0  0  0 
    5.5043    4.7825   -3.2255 H   0  0  0  0  0  0  0  0  0  0  0  0 
    4.5955    4.7609   -1.7252 H   0  0  0  0  0  0  0  0  0  0  0  0 
    4.3096    3.5946    0.2482 H   0  0  0  0  0  0  0  0  0  0  0  0 
    3.3378    2.3545   -0.5297 H   0  0  0  0  0  0  0  0  0  0  0  0 
    5.4407    1.0670   -1.0703 H   0  0  0  0  0  0  0  0  0  0  0  0 
    6.4027    2.3548   -0.3698 H   0  0  0  0  0  0  0  0  0  0  0  0 
    6.4973    1.1919   -3.1846 H   0  0  0  0  0  0  0  0  0  0  0  0 
    7.5772    2.5014   -2.6712 H   0  0  0  0  0  0  0  0  0  0  0  0 
    4.5332    2.5977   -2.7872 H   0  0  0  0  0  0  0  0  0  0  0  0 
    7.2731    2.5393   -4.9526 H   0  0  0  0  0  0  0  0  0  0  0  0 
  1 12  1  0  0  0  0 
  1 10  1  0  0  0  0 
  2 15  1  0  0  0  0 
  3 17  1  0  0  0  0 
  3  1  1  0  0  0  0 
  4 19  1  0  0  0  0 
  4  2  1  0  0  0  0 
  5 20  1  0  0  0  0 
  5  3  1  0  0  0  0 
  6 23  1  0  0  0  0 
  6  5  1  0  0  0  0 
  7 25  1  0  0  0  0 
  7  8  1  0  0  0  0 
  8 26  1  6  0  0  0 
  8  4  1  0  0  0  0 
  8  6  1  0  0  0  0 
  9  7  1  0  0  0  0 
 11  1  1  0  0  0  0 
 13  2  1  0  0  0  0 
 14  2  1  0  0  0  0 
 16  3  1  0  0  0  0 
 18  4  1  0  0  0  0 
 21  5  1  0  0  0  0 
 22  6  1  0  0  0  0 
 24  7  1  0  0  0  0 
 27  9  1  0  0  0  0 
M  END 
>  <HBA> 
1 
 
>  <HBD> 
1 
 
>  <TPSA> 
20.23 
 
>  <cid> 
7720 
 
>  <dipole> 
1.42 
 
>  <excitation_energy_1> 
6.268 
 
>  <excitation_energy_2> 
7.234 
 
>  <excitation_energy_3> 
7.326 
 
>  <excitation_energy_4> 
7.396 
 
>  <homo_energy> 
-7.105 
 
>  <homo_lumo_gap> 
9.056 
 
>  <logP> 
2.195 
 
>  <lumo_energy> 
1.951 
 
>  <melting_point> 
-9.27 
 
>  <molecular_refractivity> 
41.73 
 
>  <oscillator_strength_1> 
0.0006 
 
>  <oscillator_strength_2> 
0.0103 
 
>  <oscillator_strength_3> 
0.007 
 
>  <oscillator_strength_4> 
0.0036 
 
>  <open_babel_can_smiles> 
CCCC[C@H](CO)CC 
 
>  <mulliken_charges> 
27 
1   -0.441583 
2   -0.454063 
3   -0.247203 
4   -0.260097 
5   -0.251387 
6   -0.265887 
7   -0.031845 
8   -0.088956 
9   -0.622814 
10   0.141153 
11   0.141526 
12   0.14125 
13   0.142044 
14   0.144181 
15   0.140971 
16   0.129383 
17   0.129366 
18   0.158831 
19   0.129692 
20   0.134928 
21   0.127722 
22   0.124091 
23   0.128633 
24   0.115047 
25   0.115281 
26   0.128721 
27   0.391016 
 
>  <lowdin_charges> 
27 
1   -0.442828 
2   -0.445967 
3   -0.269911 
4   -0.27992 
5   -0.273658 
6   -0.275771 
7   -0.133936 
8   -0.134672 
9   -0.475515 
10   0.148973 
11   0.146133 
12   0.144697 
13   0.148658 
14   0.146231 
15   0.142679 
16   0.136293 
17   0.138316 
18   0.155208 
19   0.140779 
20   0.138763 
21   0.138195 
22   0.136521 
23   0.137842 
24   0.122386 
25   0.122267 
26   0.143041 
27   0.345196 
 
$$$$ 
 
