PCCDB-ID:  12980 
public computational chemistry database (PCCDB) project, http://pccdb.org 
 
 16 15  0  0  0  0  0  0  0  0999 V2000 
    2.7163    0.1460    1.5048 C   0  0  0  0  0  0  0  0  0  0  0  0 
    1.5159   -5.2863   -4.5955 C   0  0  0  0  0  0  0  0  0  0  0  0 
    2.3684   -1.5794   -1.6712 C   0  0  0  0  0  0  0  0  0  0  0  0 
    1.9732   -2.3313   -2.5342 C   0  0  0  0  0  0  0  0  0  0  0  0 
    2.9086   -0.6501   -0.6975 C   0  0  0  0  0  0  0  0  0  0  0  0 
    1.4150   -3.1732   -3.5749 C   0  0  0  0  0  0  0  0  0  0  0  0 
    3.8257    0.1078   -0.9272 O   0  0  0  0  0  0  0  0  0  0  0  0 
    0.5273   -2.8184   -4.3197 O   0  0  0  0  0  0  0  0  0  0  0  0 
    2.2546   -0.7479    0.4729 O   0  0  0  0  0  0  0  0  0  0  0  0 
    2.0098   -4.3784   -3.5910 O   0  0  0  0  0  0  0  0  0  0  0  0 
    2.0814   -0.0592    2.3662 H   0  0  0  0  0  0  0  0  0  0  0  0 
    2.6102    1.1851    1.1836 H   0  0  0  0  0  0  0  0  0  0  0  0 
    3.7647   -0.0531    1.7406 H   0  0  0  0  0  0  0  0  0  0  0  0 
    2.0860   -6.2044   -4.4560 H   0  0  0  0  0  0  0  0  0  0  0  0 
    1.6827   -4.8751   -5.5942 H   0  0  0  0  0  0  0  0  0  0  0  0 
    0.4477   -5.4669   -4.4538 H   0  0  0  0  0  0  0  0  0  0  0  0 
  1 13  1  0  0  0  0 
  1 11  1  0  0  0  0 
  2 14  1  0  0  0  0 
  2 16  1  0  0  0  0 
  2 10  1  0  0  0  0 
  3  5  1  0  0  0  0 
  4  3  3  0  0  0  0 
  5  9  1  0  0  0  0 
  6  4  1  0  0  0  0 
  7  5  2  0  0  0  0 
  8  6  2  0  0  0  0 
  9  1  1  0  0  0  0 
 10  6  1  0  0  0  0 
 12  1  1  0  0  0  0 
 15  2  1  0  0  0  0 
M  END 
>  <HBA> 
4 
 
>  <HBD> 
0 
 
>  <TPSA> 
52.6 
 
>  <cid> 
12980 
 
>  <dipole> 
2.52 
 
>  <excitation_energy_1> 
4.832 
 
>  <excitation_energy_2> 
4.881 
 
>  <excitation_energy_3> 
5.299 
 
>  <excitation_energy_4> 
5.706 
 
>  <homo_energy> 
-7.861 
 
>  <homo_lumo_gap> 
6.389 
 
>  <logP> 
-0.664 
 
>  <lumo_energy> 
-1.472 
 
>  <melting_point> 
15.67 
 
>  <molecular_refractivity> 
31.69 
 
>  <oscillator_strength_1> 
0.0001 
 
>  <oscillator_strength_2> 
0.0001 
 
>  <oscillator_strength_3> 
0.0 
 
>  <oscillator_strength_4> 
0.0 
 
>  <open_babel_can_smiles> 
COC(=O)C#CC(=O)OC 
 
>  <mulliken_charges> 
16 
1   -0.220412 
2   -0.220629 
3   0.11556 
4   0.11115 
5   0.452573 
6   0.453388 
7   -0.447425 
8   -0.447375 
9   -0.432983 
10   -0.432821 
11   0.176669 
12   0.179396 
13   0.178266 
14   0.17671 
15   0.179101 
16   0.178833 
 
>  <lowdin_charges> 
16 
1   -0.274845 
2   -0.274787 
3   -0.024485 
4   -0.02486 
5   0.202747 
6   0.20382 
7   -0.228527 
8   -0.228961 
9   -0.169078 
10   -0.16912 
11   0.167611 
12   0.163531 
13   0.162907 
14   0.167197 
15   0.163926 
16   0.162923 
 
$$$$ 
 
