PCCDB-ID:  19057 
public computational chemistry database (PCCDB) project, http://pccdb.org 
 
 22 22  0  0  0  0  0  0  0  0999 V2000 
   -1.4723   -1.1923   -0.0096 C   0  0  0  0  0  0  0  0  0  0  0  0 
   -0.5078   -2.0462   -0.5544 C   0  0  0  0  0  0  0  0  0  0  0  0 
   -1.0791    0.0275    0.5426 C   0  0  0  0  0  0  0  0  0  0  0  0 
    0.8360   -1.6871   -0.5452 C   0  0  0  0  0  0  0  0  0  0  0  0 
    0.2670    0.3872    0.5513 C   0  0  0  0  0  0  0  0  0  0  0  0 
    2.6524   -0.0391    0.0605 C   0  0  0  0  0  0  0  0  0  0  0  0 
    3.7430   -0.7811   -0.2311 C   0  0  0  0  0  0  0  0  0  0  0  0 
    1.2516   -0.4635    0.0158 C   0  0  0  0  0  0  0  0  0  0  0  0 
    5.1084   -0.2579   -0.2355 C   0  0  0  0  0  0  0  0  0  0  0  0 
    6.0234   -2.3206    0.0859 N   0  0  0  0  0  0  0  0  0  0  0  0 
    6.1874   -0.9474   -0.1437 N   0  0  0  0  0  0  0  0  0  0  0  0 
    5.2818    1.1008   -0.3447 O   0  0  0  0  0  0  0  0  0  0  0  0 
   -2.5212   -1.4752   -0.0215 H   0  0  0  0  0  0  0  0  0  0  0  0 
   -0.8077   -2.9933   -0.9948 H   0  0  0  0  0  0  0  0  0  0  0  0 
   -1.8202    0.7003    0.9655 H   0  0  0  0  0  0  0  0  0  0  0  0 
    1.5689   -2.3553   -0.9878 H   0  0  0  0  0  0  0  0  0  0  0  0 
    0.5688    1.3385    0.9838 H   0  0  0  0  0  0  0  0  0  0  0  0 
    2.8101    0.9846    0.4014 H   0  0  0  0  0  0  0  0  0  0  0  0 
    3.6538   -1.8291   -0.5069 H   0  0  0  0  0  0  0  0  0  0  0  0 
    6.9426   -2.6884    0.3105 H   0  0  0  0  0  0  0  0  0  0  0  0 
    5.4089   -2.5101    0.8786 H   0  0  0  0  0  0  0  0  0  0  0  0 
    4.5505    1.4485   -0.8802 H   0  0  0  0  0  0  0  0  0  0  0  0 
  1  3  2  0  0  0  0 
  2  4  2  0  0  0  0 
  2  1  1  0  0  0  0 
  3  5  1  0  0  0  0 
  3 15  1  0  0  0  0 
  4  8  1  0  0  0  0 
  5 17  1  0  0  0  0 
  6 18  1  0  0  0  0 
  7  6  2  0  0  0  0 
  8  6  1  0  0  0  0 
  8  5  2  0  0  0  0 
  9  7  1  0  0  0  0 
  9 11  2  0  0  0  0 
 10 20  1  0  0  0  0 
 10 21  1  0  0  0  0 
 11 10  1  0  0  0  0 
 12  9  1  0  0  0  0 
 13  1  1  0  0  0  0 
 14  2  1  0  0  0  0 
 16  4  1  0  0  0  0 
 19  7  1  0  0  0  0 
 22 12  1  0  0  0  0 
M  END 
>  <HBA> 
3 
 
>  <HBD> 
2 
 
>  <TPSA> 
55.12 
 
>  <cid> 
19057 
 
>  <dipole> 
3.54 
 
>  <excitation_energy_1> 
3.406 
 
>  <excitation_energy_2> 
4.408 
 
>  <excitation_energy_3> 
4.455 
 
>  <excitation_energy_4> 
4.807 
 
>  <homo_energy> 
-5.467 
 
>  <homo_lumo_gap> 
3.801 
 
>  <logP> 
1.781 
 
>  <lumo_energy> 
-1.665 
 
>  <melting_point> 
128.99 
 
>  <molecular_refractivity> 
47.05 
 
>  <oscillator_strength_1> 
0.2816 
 
>  <oscillator_strength_2> 
0.2132 
 
>  <oscillator_strength_3> 
0.1569 
 
>  <oscillator_strength_4> 
0.0326 
 
>  <open_babel_can_smiles> 
N/N=C(\C=C\c1ccccc1)/O 
 
>  <mulliken_charges> 
22 
1   -0.126203 
2   -0.130714 
3   -0.130685 
4   -0.179477 
5   -0.191276 
6   -0.199769 
7   -0.199121 
8   0.171779 
9   0.473624 
10   -0.575117 
11   -0.326911 
12   -0.601927 
13   0.135382 
14   0.136098 
15   0.135696 
16   0.136722 
17   0.132962 
18   0.137062 
19   0.162871 
20   0.331258 
21   0.307961 
22   0.399787 
 
>  <lowdin_charges> 
22 
1   -0.14984 
2   -0.151069 
3   -0.155216 
4   -0.154203 
5   -0.155411 
6   -0.147858 
7   -0.204241 
8   -0.006273 
9   0.086444 
10   -0.448665 
11   -0.138235 
12   -0.3836 
13   0.159417 
14   0.160582 
15   0.162149 
16   0.162205 
17   0.158208 
18   0.156339 
19   0.169034 
20   0.271603 
21   0.254752 
22   0.353876 
 
$$$$ 
 
