PCCDB-ID:  8878 
public computational chemistry database (PCCDB) project, http://pccdb.org 
 
 30 29  0  0  0  0  0  0  0  0999 V2000 
    1.9589   -0.8262   -1.5096 C   0  0  0  0  0  0  0  0  0  0  0  0 
    7.1221    0.0155    7.5061 C   0  0  0  0  0  0  0  0  0  0  0  0 
    3.3347   -0.7668   -0.8385 C   0  0  0  0  0  0  0  0  0  0  0  0 
    7.2650   -0.1028    6.1863 C   0  0  0  0  0  0  0  0  0  0  0  0 
    3.5263    0.4772    0.0383 C   0  0  0  0  0  0  0  0  0  0  0  0 
    4.8999    0.5421    0.7172 C   0  0  0  0  0  0  0  0  0  0  0  0 
    5.0710    1.7783    1.6092 C   0  0  0  0  0  0  0  0  0  0  0  0 
    6.4556    1.8776    2.2825 C   0  0  0  0  0  0  0  0  0  0  0  0 
    6.1247   -0.3499    5.2447 C   0  0  0  0  0  0  0  0  0  0  0  0 
    6.7492    0.7059    3.1971 C   0  0  0  0  0  0  0  0  0  0  0  0 
    7.5599   -0.1704    2.9805 O   0  0  0  0  0  0  0  0  0  0  0  0 
    5.9634    0.7446    4.3018 O   0  0  0  0  0  0  0  0  0  0  0  0 
    1.8505   -1.7278   -2.1230 H   0  0  0  0  0  0  0  0  0  0  0  0 
    1.7974    0.0410   -2.1619 H   0  0  0  0  0  0  0  0  0  0  0  0 
    1.1547   -0.8316   -0.7633 H   0  0  0  0  0  0  0  0  0  0  0  0 
    7.9742    0.1692    8.1625 H   0  0  0  0  0  0  0  0  0  0  0  0 
    6.1461   -0.0466    7.9836 H   0  0  0  0  0  0  0  0  0  0  0  0 
    4.1195   -0.7915   -1.6079 H   0  0  0  0  0  0  0  0  0  0  0  0 
    3.4833   -1.6674   -0.2261 H   0  0  0  0  0  0  0  0  0  0  0  0 
    8.2489   -0.0384    5.7256 H   0  0  0  0  0  0  0  0  0  0  0  0 
    2.7401    0.5055    0.8078 H   0  0  0  0  0  0  0  0  0  0  0  0 
    3.3786    1.3777   -0.5768 H   0  0  0  0  0  0  0  0  0  0  0  0 
    5.6880    0.5356   -0.0500 H   0  0  0  0  0  0  0  0  0  0  0  0 
    5.0541   -0.3694    1.3119 H   0  0  0  0  0  0  0  0  0  0  0  0 
    4.2967    1.7883    2.3869 H   0  0  0  0  0  0  0  0  0  0  0  0 
    4.9190    2.6841    1.0072 H   0  0  0  0  0  0  0  0  0  0  0  0 
    6.5087    2.7998    2.8725 H   0  0  0  0  0  0  0  0  0  0  0  0 
    7.2479    1.9029    1.5284 H   0  0  0  0  0  0  0  0  0  0  0  0 
    5.1723   -0.4016    5.7772 H   0  0  0  0  0  0  0  0  0  0  0  0 
    6.2819   -1.2704    4.6743 H   0  0  0  0  0  0  0  0  0  0  0  0 
  1  3  1  0  0  0  0 
  1 15  1  0  0  0  0 
  2 17  1  0  0  0  0 
  2 16  1  0  0  0  0 
  3 19  1  0  0  0  0 
  3  5  1  0  0  0  0 
  4  2  2  0  0  0  0 
  5  6  1  0  0  0  0 
  5 21  1  0  0  0  0 
  6 24  1  0  0  0  0 
  6  7  1  0  0  0  0 
  7  8  1  0  0  0  0 
  7 25  1  0  0  0  0 
  8 27  1  0  0  0  0 
  8 10  1  0  0  0  0 
  9 29  1  0  0  0  0 
  9  4  1  0  0  0  0 
 10 12  1  0  0  0  0 
 11 10  2  0  0  0  0 
 12  9  1  0  0  0  0 
 13  1  1  0  0  0  0 
 14  1  1  0  0  0  0 
 18  3  1  0  0  0  0 
 20  4  1  0  0  0  0 
 22  5  1  0  0  0  0 
 23  6  1  0  0  0  0 
 26  7  1  0  0  0  0 
 28  8  1  0  0  0  0 
 30  9  1  0  0  0  0 
M  END 
>  <HBA> 
2 
 
>  <HBD> 
0 
 
>  <TPSA> 
26.3 
 
>  <cid> 
8878 
 
>  <dipole> 
1.66 
 
>  <excitation_energy_1> 
5.676 
 
>  <excitation_energy_2> 
6.393 
 
>  <excitation_energy_3> 
6.637 
 
>  <excitation_energy_4> 
6.922 
 
>  <homo_energy> 
-7.148 
 
>  <homo_lumo_gap> 
7.26 
 
>  <logP> 
2.686 
 
>  <lumo_energy> 
0.112 
 
>  <melting_point> 
-37.38 
 
>  <molecular_refractivity> 
50.99 
 
>  <oscillator_strength_1> 
0.0018 
 
>  <oscillator_strength_2> 
0.0189 
 
>  <oscillator_strength_3> 
0.0427 
 
>  <oscillator_strength_4> 
0.1076 
 
>  <open_babel_can_smiles> 
CCCCCCC(=O)OCC=C 
 
>  <mulliken_charges> 
30 
1   -0.441827 
2   -0.331568 
3   -0.247706 
4   -0.059554 
5   -0.247222 
6   -0.257945 
7   -0.269571 
8   -0.336607 
9   -0.095551 
10   0.609282 
11   -0.482202 
12   -0.454904 
13   0.142626 
14   0.141111 
15   0.141062 
16   0.149299 
17   0.141757 
18   0.132196 
19   0.132396 
20   0.157165 
21   0.127438 
22   0.126867 
23   0.134825 
24   0.14162 
25   0.150933 
26   0.138984 
27   0.162991 
28   0.164555 
29   0.154119 
30   0.175431 
 
>  <lowdin_charges> 
30 
1   -0.445695 
2   -0.322831 
3   -0.272777 
4   -0.157479 
5   -0.275063 
6   -0.278579 
7   -0.270402 
8   -0.297414 
9   -0.128482 
10   0.197286 
11   -0.270699 
12   -0.199158 
13   0.15001 
14   0.146546 
15   0.146614 
16   0.16431 
17   0.156644 
18   0.140454 
19   0.140133 
20   0.165697 
21   0.138189 
22   0.137466 
23   0.142633 
24   0.144268 
25   0.149573 
26   0.146157 
27   0.167325 
28   0.164643 
29   0.15616 
30   0.164467 
 
$$$$ 
 
