PCCDB-ID:  10553 
public computational chemistry database (PCCDB) project, http://pccdb.org 
 
 15 14  0  0  0  0  0  0  0  0999 V2000 
    0.9853   -0.0159   -0.1061 C   0  0  0  0  0  0  0  0  0  0  0  0 
    2.4760   -1.8548    1.7092 C   0  0  0  0  0  0  0  0  0  0  0  0 
    4.7063   -0.8933    0.7608 C   0  0  0  0  0  0  0  0  0  0  0  0 
    2.4906   -0.0854   -0.0381 C   0  0  0  0  0  0  0  0  0  0  0  0 
    3.1857   -0.9012    0.7675 C   0  0  0  0  0  0  0  0  0  0  0  0 
    0.6533    0.7263   -0.8385 H   0  0  0  0  0  0  0  0  0  0  0  0 
    0.5420    0.2573    0.8620 H   0  0  0  0  0  0  0  0  0  0  0  0 
    0.5415   -0.9802   -0.3915 H   0  0  0  0  0  0  0  0  0  0  0  0 
    3.1818   -2.4528    2.2933 H   0  0  0  0  0  0  0  0  0  0  0  0 
    1.8245   -2.5520    1.1649 H   0  0  0  0  0  0  0  0  0  0  0  0 
    1.8318   -1.3184    2.4194 H   0  0  0  0  0  0  0  0  0  0  0  0 
    5.1189   -1.6206    1.4671 H   0  0  0  0  0  0  0  0  0  0  0  0 
    5.1077    0.0904    1.0348 H   0  0  0  0  0  0  0  0  0  0  0  0 
    5.1085   -1.1373   -0.2304 H   0  0  0  0  0  0  0  0  0  0  0  0 
    3.0413    0.5841   -0.6993 H   0  0  0  0  0  0  0  0  0  0  0  0 
  1  4  1  0  0  0  0 
  1  7  1  0  0  0  0 
  2  9  1  0  0  0  0 
  2 11  1  0  0  0  0 
  3  5  1  0  0  0  0 
  3 13  1  0  0  0  0 
  3 12  1  0  0  0  0 
  4  5  2  0  0  0  0 
  5  2  1  0  0  0  0 
  6  1  1  0  0  0  0 
  8  1  1  0  0  0  0 
 10  2  1  0  0  0  0 
 14  3  1  0  0  0  0 
 15  4  1  0  0  0  0 
M  END 
>  <HBA> 
0 
 
>  <HBD> 
0 
 
>  <TPSA> 
0.0 
 
>  <cid> 
10553 
 
>  <dipole> 
0.21 
 
>  <excitation_energy_1> 
5.609 
 
>  <excitation_energy_2> 
6.082 
 
>  <excitation_energy_3> 
6.169 
 
>  <excitation_energy_4> 
6.205 
 
>  <homo_energy> 
-5.984 
 
>  <homo_lumo_gap> 
6.702 
 
>  <logP> 
1.972 
 
>  <lumo_energy> 
0.718 
 
>  <melting_point> 
-12.69 
 
>  <molecular_refractivity> 
25.68 
 
>  <oscillator_strength_1> 
0.0003 
 
>  <oscillator_strength_2> 
0.0012 
 
>  <oscillator_strength_3> 
0.215 
 
>  <oscillator_strength_4> 
0.008 
 
>  <open_babel_can_smiles> 
CC=C(C)C 
 
>  <mulliken_charges> 
15 
1   -0.483775 
2   -0.513643 
3   -0.510862 
4   -0.150847 
5   0.167413 
6   0.146698 
7   0.153621 
8   0.153639 
9   0.144994 
10   0.157797 
11   0.157809 
12   0.143985 
13   0.159536 
14   0.15948 
15   0.114156 
 
>  <lowdin_charges> 
15 
1   -0.445552 
2   -0.450171 
3   -0.447172 
4   -0.193208 
5   -0.014552 
6   0.155413 
7   0.154243 
8   0.154296 
9   0.153582 
10   0.158886 
11   0.158855 
12   0.152056 
13   0.158398 
14   0.158325 
15   0.1466 
 
$$$$ 
 
