PCCDB-ID:  70312 
public computational chemistry database (PCCDB) project, http://pccdb.org 
 
 22 22  0  0  0  0  0  0  0  0999 V2000 
    5.1904    1.1085   -0.1227 C   0  0  0  0  0  0  0  0  0  0  0  0 
    4.2153    2.0236    0.6157 C   0  0  0  0  0  0  0  0  0  0  0  0 
    0.0776    3.0745    3.8172 C   0  0  0  0  0  0  0  0  0  0  0  0 
    0.9587    3.9058    3.1316 C   0  0  0  0  0  0  0  0  0  0  0  0 
    1.2233    1.1579    2.9205 C   0  0  0  0  0  0  0  0  0  0  0  0 
    0.2084    1.6862    3.7118 C   0  0  0  0  0  0  0  0  0  0  0  0 
    2.1232    1.9762    2.2217 C   0  0  0  0  0  0  0  0  0  0  0  0 
    3.1694    1.2524    1.4071 C   0  0  0  0  0  0  0  0  0  0  0  0 
    1.9796    3.3765    2.3362 C   0  0  0  0  0  0  0  0  0  0  0  0 
   -0.6223    0.8075    4.3571 O   0  0  0  0  0  0  0  0  0  0  0  0 
    3.1676    0.0292    1.3919 O   0  0  0  0  0  0  0  0  0  0  0  0 
    2.8384    4.2084    1.6637 O   0  0  0  0  0  0  0  0  0  0  0  0 
    5.9364    1.7044   -0.6597 H   0  0  0  0  0  0  0  0  0  0  0  0 
    4.6684    0.4746   -0.8457 H   0  0  0  0  0  0  0  0  0  0  0  0 
    5.7124    0.4444    0.5725 H   0  0  0  0  0  0  0  0  0  0  0  0 
    3.6959    2.6965   -0.0787 H   0  0  0  0  0  0  0  0  0  0  0  0 
    4.7423    2.6986    1.3021 H   0  0  0  0  0  0  0  0  0  0  0  0 
   -0.7086    3.5105    4.4309 H   0  0  0  0  0  0  0  0  0  0  0  0 
    0.8519    4.9860    3.2158 H   0  0  0  0  0  0  0  0  0  0  0  0 
    1.3368    0.0837    2.8300 H   0  0  0  0  0  0  0  0  0  0  0  0 
   -1.2751    1.3074    4.8704 H   0  0  0  0  0  0  0  0  0  0  0  0 
    2.5925    5.1263    1.8577 H   0  0  0  0  0  0  0  0  0  0  0  0 
  1 15  1  0  0  0  0 
  1  2  1  0  0  0  0 
  2 17  1  0  0  0  0 
  2  8  1  0  0  0  0 
  3 18  1  0  0  0  0 
  4 19  1  0  0  0  0 
  4  3  2  0  0  0  0 
  5  6  2  0  0  0  0 
  6  3  1  0  0  0  0 
  6 10  1  0  0  0  0 
  7  9  2  0  0  0  0 
  7  5  1  0  0  0  0 
  8  7  1  0  0  0  0 
  9  4  1  0  0  0  0 
 10 21  1  0  0  0  0 
 11  8  2  0  0  0  0 
 12 22  1  0  0  0  0 
 12  9  1  0  0  0  0 
 13  1  1  0  0  0  0 
 14  1  1  0  0  0  0 
 16  2  1  0  0  0  0 
 20  5  1  0  0  0  0 
M  END 
>  <HBA> 
3 
 
>  <HBD> 
2 
 
>  <TPSA> 
57.53 
 
>  <cid> 
70312 
 
>  <dipole> 
5.62 
 
>  <excitation_energy_1> 
3.783 
 
>  <excitation_energy_2> 
3.895 
 
>  <excitation_energy_3> 
4.866 
 
>  <excitation_energy_4> 
5.027 
 
>  <homo_energy> 
-5.782 
 
>  <homo_lumo_gap> 
4.484 
 
>  <logP> 
1.69 
 
>  <lumo_energy> 
-1.298 
 
>  <melting_point> 
119.5 
 
>  <molecular_refractivity> 
45.49 
 
>  <oscillator_strength_1> 
0.0 
 
>  <oscillator_strength_2> 
0.0824 
 
>  <oscillator_strength_3> 
0.0 
 
>  <oscillator_strength_4> 
0.0001 
 
>  <open_babel_can_smiles> 
CCC(=O)c1cc(O)ccc1O 
 
>  <mulliken_charges> 
22 
1   -0.433806 
2   -0.34031 
3   -0.187926 
4   -0.196816 
5   -0.217263 
6   0.359378 
7   0.055136 
8   0.40813 
9   0.282696 
10   -0.645343 
11   -0.464647 
12   -0.64895 
13   0.133621 
14   0.156877 
15   0.157445 
16   0.168194 
17   0.167546 
18   0.127201 
19   0.123581 
20   0.178133 
21   0.405831 
22   0.411292 
 
>  <lowdin_charges> 
22 
1   -0.444931 
2   -0.307954 
3   -0.187562 
4   -0.202491 
5   -0.145405 
6   0.085034 
7   -0.069272 
8   0.163954 
9   0.092399 
10   -0.381243 
11   -0.247264 
12   -0.372564 
13   0.148164 
14   0.15804 
15   0.158427 
16   0.168162 
17   0.167626 
18   0.158709 
19   0.153874 
20   0.187459 
21   0.358504 
22   0.358334 
 
$$$$ 
 
