PCCDB-ID:  54378 
public computational chemistry database (PCCDB) project, http://pccdb.org 
 
 24 25  0  0  1  0  0  0  0  0999 V2000 
   -1.7650   -0.1903    0.5522 C   0  0  0  0  0  0  0  0  0  0  0  0 
   -1.5898    1.2841    0.1380 C   0  0  0  0  0  0  0  0  0  0  0  0 
   -1.1917   -1.2180   -0.4346 C   0  0  0  0  0  0  0  0  0  0  0  0 
   -0.2520    1.6521   -0.5286 C   0  0  0  0  0  0  0  0  0  0  0  0 
    1.1121   -1.4538    0.8703 C   0  0  0  0  0  0  0  0  0  0  0  0 
    0.3231   -1.4054   -0.4155 C   0  0  2  0  0  0  0  0  0  0  0  0 
    1.3473   -0.3251   -0.1047 C   0  0  1  0  0  0  0  0  0  0  0  0 
    1.0358    1.1596    0.1753 C   0  0  2  0  0  0  0  0  0  0  0  0 
    1.1365    1.4836    1.6095 N   0  0  0  0  0  0  0  0  0  0  0  0 
   -2.8363   -0.3868    0.6870 H   0  0  0  0  0  0  0  0  0  0  0  0 
   -1.3205   -0.3593    1.5418 H   0  0  0  0  0  0  0  0  0  0  0  0 
   -1.7422    1.9147    1.0245 H   0  0  0  0  0  0  0  0  0  0  0  0 
   -2.3920    1.5585   -0.5601 H   0  0  0  0  0  0  0  0  0  0  0  0 
   -1.5089   -0.9543   -1.4543 H   0  0  0  0  0  0  0  0  0  0  0  0 
   -1.6469   -2.1967   -0.2260 H   0  0  0  0  0  0  0  0  0  0  0  0 
   -0.2093    2.7482   -0.6098 H   0  0  0  0  0  0  0  0  0  0  0  0 
   -0.2370    1.2759   -1.5604 H   0  0  0  0  0  0  0  0  0  0  0  0 
    1.8903   -2.2038    0.9873 H   0  0  0  0  0  0  0  0  0  0  0  0 
    0.5968   -1.2301    1.8003 H   0  0  0  0  0  0  0  0  0  0  0  0 
    0.6476   -2.1143   -1.1778 H   0  0  0  0  0  0  0  0  0  0  0  0 
    2.2673   -0.4386   -0.6750 H   0  0  0  0  0  0  0  0  0  0  0  0 
    1.8583    1.7151   -0.2934 H   0  0  0  0  0  0  0  0  0  0  0  0 
    0.3796    1.0360    2.1240 H   0  0  0  0  0  0  0  0  0  0  0  0 
    0.9957    2.4869    1.7323 H   0  0  0  0  0  0  0  0  0  0  0  0 
  1 10  1  0  0  0  0 
  1 11  1  0  0  0  0 
  2  1  1  0  0  0  0 
  2 12  1  0  0  0  0 
  3  6  1  0  0  0  0 
  3 15  1  0  0  0  0 
  3  1  1  0  0  0  0 
  4  2  1  0  0  0  0 
  4  8  1  0  0  0  0 
  5 18  1  0  0  0  0 
  5 19  1  0  0  0  0 
  6 20  1  6  0  0  0 
  6  7  1  0  0  0  0 
  6  5  1  0  0  0  0 
  7 21  1  6  0  0  0 
  7  8  1  0  0  0  0 
  7  5  1  0  0  0  0 
  8 22  1  6  0  0  0 
  8  9  1  0  0  0  0 
  9 24  1  0  0  0  0 
  9 23  1  0  0  0  0 
 13  2  1  0  0  0  0 
 14  3  1  0  0  0  0 
 16  4  1  0  0  0  0 
 17  4  1  0  0  0  0 
M  END 
>  <HBA> 
1 
 
>  <HBD> 
1 
 
>  <TPSA> 
26.02 
 
>  <cid> 
54378 
 
>  <dipole> 
1.43 
 
>  <excitation_energy_1> 
5.437 
 
>  <excitation_energy_2> 
5.91 
 
>  <excitation_energy_3> 
6.183 
 
>  <excitation_energy_4> 
6.363 
 
>  <homo_energy> 
-6.106 
 
>  <homo_lumo_gap> 
7.783 
 
>  <logP> 
2.224 
 
>  <lumo_energy> 
1.676 
 
>  <melting_point> 
71.51 
 
>  <molecular_refractivity> 
39.05 
 
>  <oscillator_strength_1> 
0.0197 
 
>  <oscillator_strength_2> 
0.0051 
 
>  <oscillator_strength_3> 
0.0079 
 
>  <oscillator_strength_4> 
0.0047 
 
>  <open_babel_can_smiles> 
N[C@@H]1CCCC[C@H]2[C@@H]1C2 
 
>  <mulliken_charges> 
24 
1   -0.277236 
2   -0.260012 
3   -0.257744 
4   -0.268812 
5   -0.318583 
6   -0.110323 
7   -0.107914 
8   0.009589 
9   -0.70953 
10   0.134721 
11   0.126827 
12   0.121808 
13   0.133451 
14   0.131599 
15   0.134006 
16   0.119385 
17   0.134308 
18   0.145253 
19   0.143434 
20   0.12839 
21   0.136158 
22   0.129653 
23   0.292528 
24   0.289045 
 
>  <lowdin_charges> 
24 
1   -0.282369 
2   -0.285158 
3   -0.268953 
4   -0.294502 
5   -0.317644 
6   -0.159559 
7   -0.1626 
8   -0.067134 
9   -0.548602 
10   0.145729 
11   0.134629 
12   0.137007 
13   0.145368 
14   0.140568 
15   0.146014 
16   0.135653 
17   0.143352 
18   0.15741 
19   0.152981 
20   0.149797 
21   0.154021 
22   0.146418 
23   0.248729 
24   0.248846 
 
$$$$ 
 
