PCCDB-ID:  11378 
public computational chemistry database (PCCDB) project, http://pccdb.org 
 
 18 19  0  0  0  0  0  0  0  0999 V2000 
   -2.4471   -0.7189   -0.0036 C   0  0  0  0  0  0  0  0  0  0  0  0 
   -1.2102   -1.4125    0.0036 C   0  0  0  0  0  0  0  0  0  0  0  0 
    1.2759   -1.4007    0.0061 C   0  0  0  0  0  0  0  0  0  0  0  0 
    2.4315   -0.6926    0.0012 C   0  0  0  0  0  0  0  0  0  0  0  0 
   -2.4250    0.6504   -0.0157 C   0  0  0  0  0  0  0  0  0  0  0  0 
    1.1713    1.4398   -0.0197 C   0  0  0  0  0  0  0  0  0  0  0  0 
   -0.0042   -0.7420   -0.0010 C   0  0  0  0  0  0  0  0  0  0  0  0 
    2.4680    0.7868   -0.0129 C   0  0  0  0  0  0  0  0  0  0  0  0 
    0.0100    0.7142   -0.0137 C   0  0  0  0  0  0  0  0  0  0  0  0 
   -1.2444    1.3236   -0.0203 N   0  0  0  0  0  0  0  0  0  0  0  0 
    3.5429    1.4020   -0.0196 O   0  0  0  0  0  0  0  0  0  0  0  0 
   -3.3920   -1.2479    0.0002 H   0  0  0  0  0  0  0  0  0  0  0  0 
   -1.2071   -2.4998    0.0120 H   0  0  0  0  0  0  0  0  0  0  0  0 
    1.2852   -2.4888    0.0152 H   0  0  0  0  0  0  0  0  0  0  0  0 
    3.3984   -1.1880    0.0064 H   0  0  0  0  0  0  0  0  0  0  0  0 
   -3.3190    1.2635   -0.0215 H   0  0  0  0  0  0  0  0  0  0  0  0 
    1.1598    2.5268   -0.0309 H   0  0  0  0  0  0  0  0  0  0  0  0 
   -1.2596    2.3357   -0.0309 H   0  0  0  0  0  0  0  0  0  0  0  0 
  1 12  1  0  0  0  0 
  1  2  1  0  0  0  0 
  2 13  1  0  0  0  0 
  3 14  1  0  0  0  0 
  4  3  2  0  0  0  0 
  4 15  1  0  0  0  0 
  5  1  2  0  0  0  0 
  6  9  2  0  0  0  0 
  6  8  1  0  0  0  0 
  7  2  2  0  0  0  0 
  7  3  1  0  0  0  0 
  8  4  1  0  0  0  0 
  9  7  1  0  0  0  0 
 10  5  1  0  0  0  0 
 10  9  1  0  0  0  0 
 11  8  2  0  0  0  0 
 16  5  1  0  0  0  0 
 17  6  1  0  0  0  0 
 18 10  1  0  0  0  0 
M  END 
>  <HBA> 
1 
 
>  <HBD> 
1 
 
>  <TPSA> 
32.86 
 
>  <cid> 
11378 
 
>  <dipole> 
7.58 
 
>  <excitation_energy_1> 
2.826 
 
>  <excitation_energy_2> 
2.897 
 
>  <excitation_energy_3> 
4.138 
 
>  <excitation_energy_4> 
4.144 
 
>  <homo_energy> 
-5.178 
 
>  <homo_lumo_gap> 
3.244 
 
>  <logP> 
1.528 
 
>  <lumo_energy> 
-1.935 
 
>  <melting_point> 
130.37 
 
>  <molecular_refractivity> 
44.57 
 
>  <oscillator_strength_1> 
0.1094 
 
>  <oscillator_strength_2> 
0.0 
 
>  <oscillator_strength_3> 
0.0027 
 
>  <oscillator_strength_4> 
0.0087 
 
>  <open_babel_can_smiles> 
O=c1ccc2c(c1)[nH]ccc2 
 
>  <mulliken_charges> 
18 
1   -0.194391 
2   -0.155942 
3   -0.186469 
4   -0.1844 
5   0.10777 
6   -0.300624 
7   0.128092 
8   0.439554 
9   0.378455 
10   -0.691428 
11   -0.558334 
12   0.14957 
13   0.151394 
14   0.135427 
15   0.141817 
16   0.174236 
17   0.118489 
18   0.346783 
 
>  <lowdin_charges> 
18 
1   -0.213713 
2   -0.117986 
3   -0.153969 
4   -0.164848 
5   -0.072678 
6   -0.268764 
7   -0.014413 
8   0.121956 
9   0.060272 
10   -0.154065 
11   -0.320113 
12   0.173139 
13   0.166628 
14   0.158081 
15   0.169346 
16   0.175808 
17   0.157386 
18   0.297933 
 
$$$$ 
 
