PCCDB-ID:  32268 
public computational chemistry database (PCCDB) project, http://pccdb.org 
 
 28 28  0  0  1  0  0  0  0  0999 V2000 
    0.9250   -0.0190   -0.1721 C   0  0  0  0  0  0  0  0  0  0  0  0 
    2.8719   -1.2167    3.1381 C   0  0  0  0  0  0  0  0  0  0  0  0 
    5.3889   -1.2351    3.0526 C   0  0  0  0  0  0  0  0  0  0  0  0 
    3.4281    2.4413    0.8159 C   0  0  0  0  0  0  0  0  0  0  0  0 
    5.6777    1.3623    0.5440 C   0  0  0  0  0  0  0  0  0  0  0  0 
    2.1257    0.0071   -0.0372 C   0  0  0  0  0  0  0  0  0  0  0  0 
    4.0559   -1.2820    0.8649 C   0  0  0  0  0  0  0  0  0  0  0  0 
    4.1079   -0.7960    2.3342 C   0  0  0  0  0  0  0  0  0  0  0  0 
    4.2013    1.1272    0.9083 C   0  0  0  0  0  0  0  0  0  0  0  0 
    3.5943   -0.0423    0.0550 C   0  0  2  0  0  0  0  0  0  0  0  0 
    4.1520    0.0162   -1.2608 O   0  0  0  0  0  0  0  0  0  0  0  0 
    4.0825    0.6530    2.2560 O   0  0  0  0  0  0  0  0  0  0  0  0 
   -0.1367   -0.0228   -0.2749 H   0  0  0  0  0  0  0  0  0  0  0  0 
    2.8548   -2.3023    3.2926 H   0  0  0  0  0  0  0  0  0  0  0  0 
    1.9545   -0.9241    2.6194 H   0  0  0  0  0  0  0  0  0  0  0  0 
    2.8835   -0.7294    4.1189 H   0  0  0  0  0  0  0  0  0  0  0  0 
    5.4355   -2.3279    3.1356 H   0  0  0  0  0  0  0  0  0  0  0  0 
    5.4193   -0.8136    4.0631 H   0  0  0  0  0  0  0  0  0  0  0  0 
    6.2788   -0.8935    2.5148 H   0  0  0  0  0  0  0  0  0  0  0  0 
    3.4047    2.7953   -0.2203 H   0  0  0  0  0  0  0  0  0  0  0  0 
    3.9161    3.2039    1.4315 H   0  0  0  0  0  0  0  0  0  0  0  0 
    2.4025    2.3131    1.1687 H   0  0  0  0  0  0  0  0  0  0  0  0 
    5.7702    1.8379   -0.4362 H   0  0  0  0  0  0  0  0  0  0  0  0 
    6.2560    0.4347    0.5166 H   0  0  0  0  0  0  0  0  0  0  0  0 
    6.1176    2.0186    1.3018 H   0  0  0  0  0  0  0  0  0  0  0  0 
    3.3916   -2.1399    0.7292 H   0  0  0  0  0  0  0  0  0  0  0  0 
    5.0490   -1.5604    0.4988 H   0  0  0  0  0  0  0  0  0  0  0  0 
    3.6267   -0.5727   -1.8251 H   0  0  0  0  0  0  0  0  0  0  0  0 
  1  6  3  0  0  0  0 
  2 14  1  0  0  0  0 
  2 16  1  0  0  0  0 
  3 17  1  0  0  0  0 
  3 18  1  0  0  0  0 
  4  9  1  0  0  0  0 
  4 22  1  0  0  0  0 
  4 21  1  0  0  0  0 
  5  9  1  0  0  0  0 
  5 25  1  0  0  0  0 
  7  8  1  0  0  0  0 
  8  3  1  0  0  0  0 
  8  2  1  0  0  0  0 
  9 12  1  0  0  0  0 
 10  6  1  6  0  0  0 
 10  7  1  0  0  0  0 
 10  9  1  0  0  0  0 
 11 10  1  0  0  0  0 
 12  8  1  0  0  0  0 
 13  1  1  0  0  0  0 
 15  2  1  0  0  0  0 
 19  3  1  0  0  0  0 
 20  4  1  0  0  0  0 
 23  5  1  0  0  0  0 
 24  5  1  0  0  0  0 
 26  7  1  0  0  0  0 
 27  7  1  0  0  0  0 
 28 11  1  0  0  0  0 
M  END 
>  <HBA> 
2 
 
>  <HBD> 
1 
 
>  <TPSA> 
29.46 
 
>  <cid> 
32268 
 
>  <dipole> 
2.03 
 
>  <excitation_energy_1> 
5.872 
 
>  <excitation_energy_2> 
6.174 
 
>  <excitation_energy_3> 
6.311 
 
>  <excitation_energy_4> 
6.374 
 
>  <homo_energy> 
-6.512 
 
>  <homo_lumo_gap> 
7.238 
 
>  <logP> 
1.328 
 
>  <lumo_energy> 
0.727 
 
>  <melting_point> 
53.44 
 
>  <molecular_refractivity> 
48.59 
 
>  <oscillator_strength_1> 
0.0086 
 
>  <oscillator_strength_2> 
0.0111 
 
>  <oscillator_strength_3> 
0.0081 
 
>  <oscillator_strength_4> 
0.0241 
 
>  <open_babel_can_smiles> 
C#C[C@]1(O)CC(OC1(C)C)(C)C 
 
>  <mulliken_charges> 
28 
1   -0.537729 
2   -0.456239 
3   -0.455699 
4   -0.46072 
5   -0.447633 
6   0.370932 
7   -0.355163 
8   0.354214 
9   0.313831 
10   0.160104 
11   -0.640808 
12   -0.538526 
13   0.197493 
14   0.132619 
15   0.157744 
16   0.151146 
17   0.136831 
18   0.152617 
19   0.147473 
20   0.150642 
21   0.149242 
22   0.160666 
23   0.158657 
24   0.143257 
25   0.149313 
26   0.151754 
27   0.157011 
28   0.396971 
 
>  <lowdin_charges> 
28 
1   -0.249423 
2   -0.450001 
3   -0.448273 
4   -0.445963 
5   -0.455143 
6   -0.048764 
7   -0.300065 
8   0.135214 
9   0.127114 
10   0.118393 
11   -0.440922 
12   -0.276664 
13   0.20657 
14   0.144652 
15   0.159901 
16   0.15542 
17   0.146945 
18   0.155461 
19   0.152689 
20   0.156415 
21   0.157541 
22   0.161404 
23   0.160992 
24   0.150555 
25   0.157438 
26   0.158731 
27   0.157888 
28   0.351894 
 
$$$$ 
 
