PCCDB-ID:  21442 
public computational chemistry database (PCCDB) project, http://pccdb.org 
 
 22 21  0  0  0  0  0  0  0  0999 V2000 
    2.6751    2.6185   -0.6937 C   0  0  0  0  0  0  0  0  0  0  0  0 
    3.7296    1.5508   -1.0018 C   0  0  0  0  0  0  0  0  0  0  0  0 
    3.2888    0.1423   -0.5786 C   0  0  0  0  0  0  0  0  0  0  0  0 
    4.3472   -0.9055   -0.9025 C   0  0  0  0  0  0  0  0  0  0  0  0 
    2.9632   -4.3368   -0.5875 C   0  0  0  0  0  0  0  0  0  0  0  0 
    5.5634   -4.9605    0.0284 C   0  0  0  0  0  0  0  0  0  0  0  0 
    3.2028   -2.9731   -1.2158 C   0  0  0  0  0  0  0  0  0  0  0  0 
    6.4547   -4.6241    0.7007 N   0  0  0  0  0  0  0  0  0  0  0  0 
    2.7750   -2.6442   -2.2994 O   0  0  0  0  0  0  0  0  0  0  0  0 
    3.9648   -2.2182   -0.4099 O   0  0  0  0  0  0  0  0  0  0  0  0 
    4.3209   -5.5369   -0.9819 S   0  0  0  0  0  0  0  0  0  0  0  0 
    3.0147    3.6123   -1.0053 H   0  0  0  0  0  0  0  0  0  0  0  0 
    2.4565    2.6616    0.3801 H   0  0  0  0  0  0  0  0  0  0  0  0 
    1.7344    2.4076   -1.2162 H   0  0  0  0  0  0  0  0  0  0  0  0 
    4.6703    1.8073   -0.4944 H   0  0  0  0  0  0  0  0  0  0  0  0 
    3.9509    1.5551   -2.0781 H   0  0  0  0  0  0  0  0  0  0  0  0 
    2.3565   -0.1245   -1.0910 H   0  0  0  0  0  0  0  0  0  0  0  0 
    3.0852    0.1221    0.5001 H   0  0  0  0  0  0  0  0  0  0  0  0 
    5.2905   -0.6959   -0.3927 H   0  0  0  0  0  0  0  0  0  0  0  0 
    4.5218   -0.9753   -1.9793 H   0  0  0  0  0  0  0  0  0  0  0  0 
    2.0767   -4.7860   -1.0390 H   0  0  0  0  0  0  0  0  0  0  0  0 
    2.8494   -4.2759    0.4958 H   0  0  0  0  0  0  0  0  0  0  0  0 
  1 13  1  0  0  0  0 
  2  1  1  0  0  0  0 
  2  3  1  0  0  0  0 
  2 15  1  0  0  0  0 
  3 18  1  0  0  0  0 
  4  3  1  0  0  0  0 
  4 10  1  0  0  0  0 
  4 19  1  0  0  0  0 
  5 22  1  0  0  0  0 
  6  8  3  0  0  0  0 
  7  5  1  0  0  0  0 
  7 10  1  0  0  0  0 
  9  7  2  0  0  0  0 
 11  5  1  0  0  0  0 
 11  6  1  0  0  0  0 
 12  1  1  0  0  0  0 
 14  1  1  0  0  0  0 
 16  2  1  0  0  0  0 
 17  3  1  0  0  0  0 
 20  4  1  0  0  0  0 
 21  5  1  0  0  0  0 
M  END 
>  <HBA> 
4 
 
>  <HBD> 
0 
 
>  <TPSA> 
75.39 
 
>  <cid> 
21442 
 
>  <dipole> 
2.86 
 
>  <excitation_energy_1> 
4.589 
 
>  <excitation_energy_2> 
5.307 
 
>  <excitation_energy_3> 
5.86 
 
>  <excitation_energy_4> 
6.315 
 
>  <homo_energy> 
-7.32 
 
>  <homo_lumo_gap> 
5.916 
 
>  <logP> 
1.544 
 
>  <lumo_energy> 
-1.404 
 
>  <melting_point> 
28.09 
 
>  <molecular_refractivity> 
44.39 
 
>  <oscillator_strength_1> 
0.0037 
 
>  <oscillator_strength_2> 
0.0074 
 
>  <oscillator_strength_3> 
0.0023 
 
>  <oscillator_strength_4> 
0.0274 
 
>  <open_babel_can_smiles> 
CCCCOC(=O)CSC#N 
 
>  <mulliken_charges> 
22 
1   -0.441893 
2   -0.260085 
3   -0.275456 
4   -0.051606 
5   -0.525748 
6   0.131174 
7   0.629473 
8   -0.376934 
9   -0.457229 
10   -0.441224 
11   0.25334 
12   0.148184 
13   0.14562 
14   0.147911 
15   0.137479 
16   0.142255 
17   0.159151 
18   0.145742 
19   0.166307 
20   0.172487 
21   0.223444 
22   0.227607 
 
>  <lowdin_charges> 
22 
1   -0.440072 
2   -0.269531 
3   -0.285964 
4   -0.126052 
5   -0.383855 
6   -0.167658 
7   0.184402 
8   -0.108342 
9   -0.252131 
10   -0.176736 
11   0.282911 
12   0.152464 
13   0.147034 
14   0.149805 
15   0.142141 
16   0.142716 
17   0.154856 
18   0.146241 
19   0.160077 
20   0.158395 
21   0.197614 
22   0.191685 
 
$$$$ 
 
