PCCDB-ID:  37977 
public computational chemistry database (PCCDB) project, http://pccdb.org 
 
 26 26  0  0  0  0  0  0  0  0999 V2000 
    2.7591    0.6679   -0.3650 C   0  0  0  0  0  0  0  0  0  0  0  0 
    1.0378   -0.6552   -1.5701 C   0  0  0  0  0  0  0  0  0  0  0  0 
    9.6905   -1.4888   -1.2777 C   0  0  0  0  0  0  0  0  0  0  0  0 
    9.4111   -2.2536    0.0264 C   0  0  0  0  0  0  0  0  0  0  0  0 
    6.0493   -2.3403   -1.6507 C   0  0  0  0  0  0  0  0  0  0  0  0 
    8.3579   -1.4511   -2.0203 C   0  0  0  0  0  0  0  0  0  0  0  0 
    7.9421   -2.6601   -0.0477 C   0  0  0  0  0  0  0  0  0  0  0  0 
    3.3859   -1.3935   -1.5733 C   0  0  0  0  0  0  0  0  0  0  0  0 
    2.4445   -0.4919   -1.2020 N   0  0  0  0  0  0  0  0  0  0  0  0 
    7.4178   -2.1399   -1.2401 N   0  0  0  0  0  0  0  0  0  0  0  0 
    8.1191   -0.9447   -3.0931 O   0  0  0  0  0  0  0  0  0  0  0  0 
    7.3105   -3.3138    0.7510 O   0  0  0  0  0  0  0  0  0  0  0  0 
    3.0996   -2.7810   -2.4670 S   0  0  0  0  0  0  0  0  0  0  0  0 
    5.0289   -0.9412   -0.9984 S   0  0  0  0  0  0  0  0  0  0  0  0 
    3.4438    1.3545   -0.8767 H   0  0  0  0  0  0  0  0  0  0  0  0 
    3.2118    0.3609    0.5844 H   0  0  0  0  0  0  0  0  0  0  0  0 
    1.8314    1.1994   -0.1487 H   0  0  0  0  0  0  0  0  0  0  0  0 
    0.6512    0.2986   -1.9436 H   0  0  0  0  0  0  0  0  0  0  0  0 
    0.4469   -0.9645   -0.6987 H   0  0  0  0  0  0  0  0  0  0  0  0 
    0.9529   -1.4146   -2.3447 H   0  0  0  0  0  0  0  0  0  0  0  0 
   10.4300   -1.9801   -1.9179 H   0  0  0  0  0  0  0  0  0  0  0  0 
   10.0365   -0.4628   -1.1201 H   0  0  0  0  0  0  0  0  0  0  0  0 
    9.5579   -1.6460    0.9251 H   0  0  0  0  0  0  0  0  0  0  0  0 
   10.0212   -3.1536    0.1468 H   0  0  0  0  0  0  0  0  0  0  0  0 
    5.6761   -3.2742   -1.2332 H   0  0  0  0  0  0  0  0  0  0  0  0 
    5.9926   -2.3442   -2.7381 H   0  0  0  0  0  0  0  0  0  0  0  0 
  1 17  1  0  0  0  0 
  1 16  1  0  0  0  0 
  2  9  1  0  0  0  0 
  2 19  1  0  0  0  0 
  3 22  1  0  0  0  0 
  3  4  1  0  0  0  0 
  4 24  1  0  0  0  0 
  4 23  1  0  0  0  0 
  5 10  1  0  0  0  0 
  5 25  1  0  0  0  0 
  5 14  1  0  0  0  0 
  6  3  1  0  0  0  0 
  6 10  1  0  0  0  0 
  7  4  1  0  0  0  0 
  7 12  2  0  0  0  0 
  8  9  1  0  0  0  0 
  8 14  1  0  0  0  0 
  9  1  1  0  0  0  0 
 10  7  1  0  0  0  0 
 11  6  2  0  0  0  0 
 13  8  2  0  0  0  0 
 15  1  1  0  0  0  0 
 18  2  1  0  0  0  0 
 20  2  1  0  0  0  0 
 21  3  1  0  0  0  0 
 26  5  1  0  0  0  0 
M  END 
>  <HBA> 
6 
 
>  <HBD> 
0 
 
>  <TPSA> 
98.01 
 
>  <cid> 
37977 
 
>  <dipole> 
4.23 
 
>  <excitation_energy_1> 
3.694 
 
>  <excitation_energy_2> 
4.343 
 
>  <excitation_energy_3> 
4.589 
 
>  <excitation_energy_4> 
4.636 
 
>  <homo_energy> 
-5.739 
 
>  <homo_lumo_gap> 
5.01 
 
>  <logP> 
0.611 
 
>  <lumo_energy> 
-0.729 
 
>  <melting_point> 
82.07 
 
>  <molecular_refractivity> 
63.95 
 
>  <oscillator_strength_1> 
0.0001 
 
>  <oscillator_strength_2> 
0.0007 
 
>  <oscillator_strength_3> 
0.016 
 
>  <oscillator_strength_4> 
0.0025 
 
>  <open_babel_can_smiles> 
CN(C(=S)SCN1C(=O)CCC1=O)C 
 
>  <mulliken_charges> 
26 
1   -0.347483 
2   -0.324237 
3   -0.385663 
4   -0.385484 
5   -0.296526 
6   0.59806 
7   0.598286 
8   -0.016919 
9   -0.332968 
10   -0.477322 
11   -0.464273 
12   -0.464172 
13   -0.248374 
14   0.172984 
15   0.195925 
16   0.197797 
17   0.174805 
18   0.162629 
19   0.170226 
20   0.217992 
21   0.195779 
22   0.194568 
23   0.195201 
24   0.195055 
25   0.237375 
26   0.236739 
 
>  <lowdin_charges> 
26 
1   -0.361147 
2   -0.354993 
3   -0.305463 
4   -0.306781 
5   -0.281626 
6   0.167253 
7   0.171805 
8   -0.15763 
9   -0.06895 
10   -0.085577 
11   -0.244225 
12   -0.245659 
13   -0.230077 
14   0.158027 
15   0.172866 
16   0.172775 
17   0.16948 
18   0.15708 
19   0.159552 
20   0.192384 
21   0.182755 
22   0.179998 
23   0.181549 
24   0.181388 
25   0.199055 
26   0.19616 
 
$$$$ 
 
