PCCDB-ID:  12050 
public computational chemistry database (PCCDB) project, http://pccdb.org 
 
 17 16  0  0  0  0  0  0  0  0999 V2000 
    1.9106   -1.2117   -0.8163 C   0  0  0  0  0  0  0  0  0  0  0  0 
    1.6590    3.1889   -0.6737 C   0  0  0  0  0  0  0  0  0  0  0  0 
    2.4401    0.0049   -0.0570 C   0  0  0  0  0  0  0  0  0  0  0  0 
    2.0152    2.0025   -1.5726 C   0  0  0  0  0  0  0  0  0  0  0  0 
    4.2349    1.4226   -0.8500 C   0  0  0  0  0  0  0  0  0  0  0  0 
    5.3589    1.7405   -0.7830 N   0  0  0  0  0  0  0  0  0  0  0  0 
    2.9584    1.0506   -0.9594 N   0  0  0  0  0  0  0  0  0  0  0  0 
    1.5182   -1.9537   -0.1114 H   0  0  0  0  0  0  0  0  0  0  0  0 
    2.7079   -1.6774   -1.4039 H   0  0  0  0  0  0  0  0  0  0  0  0 
    1.0985   -0.9387   -1.4991 H   0  0  0  0  0  0  0  0  0  0  0  0 
    0.9507    3.8514   -1.1841 H   0  0  0  0  0  0  0  0  0  0  0  0 
    2.5541    3.7693   -0.4272 H   0  0  0  0  0  0  0  0  0  0  0  0 
    1.1957    2.8585    0.2627 H   0  0  0  0  0  0  0  0  0  0  0  0 
    3.2562   -0.2902    0.6077 H   0  0  0  0  0  0  0  0  0  0  0  0 
    1.6536    0.4371    0.5769 H   0  0  0  0  0  0  0  0  0  0  0  0 
    2.4596    2.3531   -2.5096 H   0  0  0  0  0  0  0  0  0  0  0  0 
    1.1184    1.4334   -1.8391 H   0  0  0  0  0  0  0  0  0  0  0  0 
  1  8  1  0  0  0  0 
  1  3  1  0  0  0  0 
  2 12  1  0  0  0  0 
  2 13  1  0  0  0  0 
  3 15  1  0  0  0  0 
  3 14  1  0  0  0  0 
  4  7  1  0  0  0  0 
  4  2  1  0  0  0  0 
  5  6  3  0  0  0  0 
  7  5  1  0  0  0  0 
  7  3  1  0  0  0  0 
  9  1  1  0  0  0  0 
 10  1  1  0  0  0  0 
 11  2  1  0  0  0  0 
 16  4  1  0  0  0  0 
 17  4  1  0  0  0  0 
M  END 
>  <HBA> 
2 
 
>  <HBD> 
0 
 
>  <TPSA> 
27.03 
 
>  <cid> 
12050 
 
>  <dipole> 
4.94 
 
>  <excitation_energy_1> 
5.611 
 
>  <excitation_energy_2> 
5.719 
 
>  <excitation_energy_3> 
6.233 
 
>  <excitation_energy_4> 
6.271 
 
>  <homo_energy> 
-6.327 
 
>  <homo_lumo_gap> 
7.527 
 
>  <logP> 
0.809 
 
>  <lumo_energy> 
1.2 
 
>  <melting_point> 
10.64 
 
>  <molecular_refractivity> 
28.79 
 
>  <oscillator_strength_1> 
0.0172 
 
>  <oscillator_strength_2> 
0.0064 
 
>  <oscillator_strength_3> 
0.0073 
 
>  <oscillator_strength_4> 
0.0051 
 
>  <open_babel_can_smiles> 
CCN(C#N)CC 
 
>  <mulliken_charges> 
17 
1   -0.438578 
2   -0.450617 
3   -0.147597 
4   -0.149594 
5   0.488403 
6   -0.479024 
7   -0.43964 
8   0.152816 
9   0.167842 
10   0.152207 
11   0.154142 
12   0.176479 
13   0.152955 
14   0.176347 
15   0.153441 
16   0.174124 
17   0.156294 
 
>  <lowdin_charges> 
17 
1   -0.453229 
2   -0.457712 
3   -0.182543 
4   -0.184667 
5   -0.008 
6   -0.190403 
7   -0.106852 
8   0.158656 
9   0.162542 
10   0.1528 
11   0.160051 
12   0.16545 
13   0.15277 
14   0.168121 
15   0.146892 
16   0.162761 
17   0.153361 
 
$$$$ 
 
