PCCDB-ID:  14286 
public computational chemistry database (PCCDB) project, http://pccdb.org 
 
 16 16  0  0  0  0  0  0  0  0999 V2000 
    3.0865   -1.4031    0.3499 C   0  0  0  0  0  0  0  0  0  0  0  0 
    5.2022    2.1394    1.8094 C   0  0  0  0  0  0  0  0  0  0  0  0 
    4.6151    3.3879    1.6301 C   0  0  0  0  0  0  0  0  0  0  0  0 
    4.5267    1.0104    1.3449 C   0  0  0  0  0  0  0  0  0  0  0  0 
    3.3709    3.4472    0.9910 C   0  0  0  0  0  0  0  0  0  0  0  0 
    2.4940   -0.0103    0.1870 C   0  0  0  0  0  0  0  0  0  0  0  0 
    3.2841    1.1717    0.7173 C   0  0  0  0  0  0  0  0  0  0  0  0 
    2.7155    2.3778    0.5440 N   0  0  0  0  0  0  0  0  0  0  0  0 
    1.4178    0.1521   -0.3524 O   0  0  0  0  0  0  0  0  0  0  0  0 
    4.0564   -1.4843   -0.1559 H   0  0  0  0  0  0  0  0  0  0  0  0 
    2.3938   -2.1262   -0.0835 H   0  0  0  0  0  0  0  0  0  0  0  0 
    3.2477   -1.6458    1.4073 H   0  0  0  0  0  0  0  0  0  0  0  0 
    6.1661    2.0413    2.3012 H   0  0  0  0  0  0  0  0  0  0  0  0 
    5.1010    4.2967    1.9725 H   0  0  0  0  0  0  0  0  0  0  0  0 
    4.9627    0.0254    1.4709 H   0  0  0  0  0  0  0  0  0  0  0  0 
    2.8816    4.4074    0.8332 H   0  0  0  0  0  0  0  0  0  0  0  0 
  1 12  1  0  0  0  0 
  2 13  1  0  0  0  0 
  3  2  1  0  0  0  0 
  3 14  1  0  0  0  0 
  4 15  1  0  0  0  0 
  4  2  2  0  0  0  0 
  5  3  2  0  0  0  0 
  6  1  1  0  0  0  0 
  6  7  1  0  0  0  0 
  7  4  1  0  0  0  0 
  8  7  2  0  0  0  0 
  8  5  1  0  0  0  0 
  9  6  2  0  0  0  0 
 10  1  1  0  0  0  0 
 11  1  1  0  0  0  0 
 16  5  1  0  0  0  0 
M  END 
>  <HBA> 
2 
 
>  <HBD> 
0 
 
>  <TPSA> 
29.96 
 
>  <cid> 
14286 
 
>  <dipole> 
4.85 
 
>  <excitation_energy_1> 
3.487 
 
>  <excitation_energy_2> 
4.042 
 
>  <excitation_energy_3> 
4.85 
 
>  <excitation_energy_4> 
4.996 
 
>  <homo_energy> 
-6.675 
 
>  <homo_lumo_gap> 
4.947 
 
>  <logP> 
1.284 
 
>  <lumo_energy> 
-1.728 
 
>  <melting_point> 
53.72 
 
>  <molecular_refractivity> 
34.43 
 
>  <oscillator_strength_1> 
0.0 
 
>  <oscillator_strength_2> 
0.0012 
 
>  <oscillator_strength_3> 
0.002 
 
>  <oscillator_strength_4> 
0.0001 
 
>  <open_babel_can_smiles> 
CC(=O)c1ccccn1 
 
>  <mulliken_charges> 
16 
1   -0.547228 
2   -0.103001 
3   -0.133899 
4   -0.166165 
5   0.042167 
6   0.430314 
7   0.212712 
8   -0.429812 
9   -0.419544 
10   0.169026 
11   0.185101 
12   0.169048 
13   0.14953 
14   0.146746 
15   0.145045 
16   0.14996 
 
>  <lowdin_charges> 
16 
1   -0.47778 
2   -0.126589 
3   -0.163004 
4   -0.168186 
5   -0.081832 
6   0.150356 
7   0.007351 
8   -0.113379 
9   -0.203357 
10   0.16814 
11   0.178158 
12   0.167196 
13   0.165799 
14   0.168742 
15   0.167819 
16   0.160567 
 
$$$$ 
 
