PCCDB-ID:  68438 
public computational chemistry database (PCCDB) project, http://pccdb.org 
 
 20 21  0  0  0  0  0  0  0  0999 V2000 
    2.4196    0.7359   -0.0407 C   0  0  0  0  0  0  0  0  0  0  0  0 
   -2.4345    0.6657    0.0084 C   0  0  0  0  0  0  0  0  0  0  0  0 
    1.2142    1.3951   -0.0417 C   0  0  0  0  0  0  0  0  0  0  0  0 
   -1.2490    1.3595   -0.0162 C   0  0  0  0  0  0  0  0  0  0  0  0 
    2.4590   -0.6721   -0.0114 C   0  0  0  0  0  0  0  0  0  0  0  0 
   -2.4327   -0.7429    0.0367 C   0  0  0  0  0  0  0  0  0  0  0  0 
   -0.0070    0.6695   -0.0145 C   0  0  0  0  0  0  0  0  0  0  0  0 
    1.2924   -1.4169    0.0144 C   0  0  0  0  0  0  0  0  0  0  0  0 
   -1.2448   -1.4536    0.0414 C   0  0  0  0  0  0  0  0  0  0  0  0 
    0.0140   -0.7694    0.0145 C   0  0  0  0  0  0  0  0  0  0  0  0 
    1.3339   -2.7799    0.0382 O   0  0  0  0  0  0  0  0  0  0  0  0 
   -1.2463   -2.8172    0.0703 O   0  0  0  0  0  0  0  0  0  0  0  0 
    3.3522    1.2931   -0.0625 H   0  0  0  0  0  0  0  0  0  0  0  0 
   -3.3831    1.1957    0.0056 H   0  0  0  0  0  0  0  0  0  0  0  0 
    1.1741    2.4805   -0.0644 H   0  0  0  0  0  0  0  0  0  0  0  0 
   -1.2408    2.4456   -0.0381 H   0  0  0  0  0  0  0  0  0  0  0  0 
    3.4175   -1.1885   -0.0119 H   0  0  0  0  0  0  0  0  0  0  0  0 
   -3.3758   -1.2866    0.0564 H   0  0  0  0  0  0  0  0  0  0  0  0 
    2.2663   -3.0491    0.0396 H   0  0  0  0  0  0  0  0  0  0  0  0 
   -2.1704   -3.1132    0.0869 H   0  0  0  0  0  0  0  0  0  0  0  0 
  1  5  1  0  0  0  0 
  2  6  2  0  0  0  0 
  3  1  2  0  0  0  0 
  3  7  1  0  0  0  0 
  4  7  2  0  0  0  0 
  4  2  1  0  0  0  0 
  5  8  2  0  0  0  0 
  6  9  1  0  0  0  0 
  6 18  1  0  0  0  0 
  7 10  1  0  0  0  0 
  8 10  1  0  0  0  0 
  8 11  1  0  0  0  0 
  9 12  1  0  0  0  0 
 10  9  2  0  0  0  0 
 11 19  1  0  0  0  0 
 12 20  1  0  0  0  0 
 13  1  1  0  0  0  0 
 14  2  1  0  0  0  0 
 15  3  1  0  0  0  0 
 16  4  1  0  0  0  0 
 17  5  1  0  0  0  0 
M  END 
>  <HBA> 
2 
 
>  <HBD> 
2 
 
>  <TPSA> 
40.46 
 
>  <cid> 
68438 
 
>  <dipole> 
0.39 
 
>  <excitation_energy_1> 
4.075 
 
>  <excitation_energy_2> 
4.161 
 
>  <excitation_energy_3> 
4.527 
 
>  <excitation_energy_4> 
4.742 
 
>  <homo_energy> 
-5.089 
 
>  <homo_lumo_gap> 
4.555 
 
>  <logP> 
2.251 
 
>  <lumo_energy> 
-0.533 
 
>  <melting_point> 
129.6 
 
>  <molecular_refractivity> 
47.99 
 
>  <oscillator_strength_1> 
0.0942 
 
>  <oscillator_strength_2> 
0.0929 
 
>  <oscillator_strength_3> 
0.0 
 
>  <oscillator_strength_4> 
0.0006 
 
>  <open_babel_can_smiles> 
Oc1cccc2c1c(O)ccc2 
 
>  <mulliken_charges> 
20 
1   -0.13339 
2   -0.133309 
3   -0.202847 
4   -0.202871 
5   -0.207018 
6   -0.207077 
7   0.118503 
8   0.300442 
9   0.300391 
10   0.065735 
11   -0.619821 
12   -0.61978 
13   0.128937 
14   0.128898 
15   0.124389 
16   0.124394 
17   0.111827 
18   0.111839 
19   0.405385 
20   0.405372 
 
>  <lowdin_charges> 
20 
1   -0.146065 
2   -0.145858 
3   -0.181439 
4   -0.18143 
5   -0.231179 
6   -0.231374 
7   0.017203 
8   0.114597 
9   0.114652 
10   -0.051013 
11   -0.357933 
12   -0.358132 
13   0.158927 
14   0.158756 
15   0.154734 
16   0.154717 
17   0.151525 
18   0.151687 
19   0.353737 
20   0.353888 
 
$$$$ 
 
