PCCDB-ID:  66173 
public computational chemistry database (PCCDB) project, http://pccdb.org 
 
 15 15  0  0  0  0  0  0  0  0999 V2000 
    0.7685    1.2806   -0.1600 C   0  0  0  0  0  0  0  0  0  0  0  0 
   -1.4820   -0.0198   -0.1613 C   0  0  0  0  0  0  0  0  0  0  0  0 
    1.5644    0.0527    0.3175 C   0  0  0  0  0  0  0  0  0  0  0  0 
   -0.8161   -1.3222    0.3168 C   0  0  0  0  0  0  0  0  0  0  0  0 
   -0.7051    1.2329    0.2329 C   0  0  0  0  0  0  0  0  0  0  0  0 
   -1.2384    2.1552    0.8192 O   0  0  0  0  0  0  0  0  0  0  0  0 
    0.8898   -1.5268   -0.3256 S   0  0  0  0  0  0  0  0  0  0  0  0 
    0.8303    1.3371   -1.2553 H   0  0  0  0  0  0  0  0  0  0  0  0 
    1.1941    2.1997    0.2568 H   0  0  0  0  0  0  0  0  0  0  0  0 
   -2.4910    0.0706    0.2551 H   0  0  0  0  0  0  0  0  0  0  0  0 
   -1.5618   -0.0449   -1.2567 H   0  0  0  0  0  0  0  0  0  0  0  0 
    1.5912    0.0139    1.4128 H   0  0  0  0  0  0  0  0  0  0  0  0 
    2.5987    0.1083   -0.0342 H   0  0  0  0  0  0  0  0  0  0  0  0 
   -1.3808   -2.1909   -0.0345 H   0  0  0  0  0  0  0  0  0  0  0  0 
   -0.7958   -1.3642    1.4120 H   0  0  0  0  0  0  0  0  0  0  0  0 
  1  5  1  0  0  0  0 
  1  9  1  0  0  0  0 
  1  3  1  0  0  0  0 
  2  5  1  0  0  0  0 
  2 10  1  0  0  0  0 
  2  4  1  0  0  0  0 
  3 12  1  0  0  0  0 
  4 15  1  0  0  0  0 
  5  6  2  0  0  0  0 
  7  4  1  0  0  0  0 
  7  3  1  0  0  0  0 
  8  1  1  0  0  0  0 
 11  2  1  0  0  0  0 
 13  3  1  0  0  0  0 
 14  4  1  0  0  0  0 
M  END 
>  <HBA> 
2 
 
>  <HBD> 
0 
 
>  <TPSA> 
42.37 
 
>  <cid> 
66173 
 
>  <dipole> 
1.17 
 
>  <excitation_energy_1> 
4.223 
 
>  <excitation_energy_2> 
4.582 
 
>  <excitation_energy_3> 
5.29 
 
>  <excitation_energy_4> 
5.842 
 
>  <homo_energy> 
-6.324 
 
>  <homo_lumo_gap> 
5.693 
 
>  <logP> 
1.083 
 
>  <lumo_energy> 
-0.631 
 
>  <melting_point> 
27.04 
 
>  <molecular_refractivity> 
31.83 
 
>  <oscillator_strength_1> 
0.0001 
 
>  <oscillator_strength_2> 
0.006 
 
>  <oscillator_strength_3> 
0.0007 
 
>  <oscillator_strength_4> 
0.0348 
 
>  <open_babel_can_smiles> 
O=C1CCSCC1 
 
>  <mulliken_charges> 
15 
1   -0.339114 
2   -0.339493 
3   -0.427791 
4   -0.427705 
5   0.453041 
6   -0.435684 
7   0.095119 
8   0.173474 
9   0.171506 
10   0.171569 
11   0.173591 
12   0.180513 
13   0.18523 
14   0.185251 
15   0.180494 
 
>  <lowdin_charges> 
15 
1   -0.309289 
2   -0.307858 
3   -0.371743 
4   -0.37365 
5   0.158541 
6   -0.228012 
7   0.098248 
8   0.167992 
9   0.168002 
10   0.166894 
11   0.168018 
12   0.157393 
13   0.173174 
14   0.17487 
15   0.157421 
 
$$$$ 
 
