PCCDB-ID:  34714 
public computational chemistry database (PCCDB) project, http://pccdb.org 
 
 23 23  0  0  1  0  0  0  0  0999 V2000 
    1.1433   -0.1815   -0.4815 C   0  0  0  0  0  0  0  0  0  0  0  0 
    4.5299   -1.4415   -2.5778 C   0  0  0  0  0  0  0  0  0  0  0  0 
    5.7931   -0.3017   -0.7176 C   0  0  0  0  0  0  0  0  0  0  0  0 
    3.9005    0.9479   -1.8870 C   0  0  0  0  0  0  0  0  0  0  0  0 
    2.5762    0.1274   -0.0502 C   0  0  2  0  0  0  0  0  0  0  0  0 
    3.1444    1.4458   -0.6468 C   0  0  2  0  0  0  0  0  0  0  0  0 
    4.4432   -0.4211   -1.4423 C   0  0  0  0  0  0  0  0  0  0  0  0 
    2.1938    2.4706   -0.8789 O   0  0  0  0  0  0  0  0  0  0  0  0 
    3.4546   -0.9123   -0.4987 O   0  0  0  0  0  0  0  0  0  0  0  0 
    0.4446    0.5582   -0.0755 H   0  0  0  0  0  0  0  0  0  0  0  0 
    0.8543   -1.1699   -0.1116 H   0  0  0  0  0  0  0  0  0  0  0  0 
    1.0455   -0.2013   -1.5748 H   0  0  0  0  0  0  0  0  0  0  0  0 
    5.2580   -1.1251   -3.3336 H   0  0  0  0  0  0  0  0  0  0  0  0 
    3.5545   -1.5617   -3.0605 H   0  0  0  0  0  0  0  0  0  0  0  0 
    4.8404   -2.4176   -2.1896 H   0  0  0  0  0  0  0  0  0  0  0  0 
    6.5892   -0.0052   -1.4109 H   0  0  0  0  0  0  0  0  0  0  0  0 
    6.0617   -1.2662   -0.2745 H   0  0  0  0  0  0  0  0  0  0  0  0 
    5.7501    0.4384    0.0889 H   0  0  0  0  0  0  0  0  0  0  0  0 
    4.6832    1.6398   -2.2118 H   0  0  0  0  0  0  0  0  0  0  0  0 
    3.1953    0.8254   -2.7211 H   0  0  0  0  0  0  0  0  0  0  0  0 
    2.6139    0.1568    1.0470 H   0  0  0  0  0  0  0  0  0  0  0  0 
    3.8489    1.8879    0.0642 H   0  0  0  0  0  0  0  0  0  0  0  0 
    1.5707    2.1485   -1.5494 H   0  0  0  0  0  0  0  0  0  0  0  0 
  1 11  1  0  0  0  0 
  1 10  1  0  0  0  0 
  1  5  1  0  0  0  0 
  2 15  1  0  0  0  0 
  2  7  1  0  0  0  0 
  3 17  1  0  0  0  0 
  3 18  1  0  0  0  0 
  4  7  1  0  0  0  0 
  4  6  1  0  0  0  0 
  5 21  1  1  0  0  0 
  6  5  1  0  0  0  0 
  6 22  1  1  0  0  0 
  7  3  1  0  0  0  0 
  7  9  1  0  0  0  0 
  8  6  1  0  0  0  0 
  9  5  1  0  0  0  0 
 12  1  1  0  0  0  0 
 13  2  1  0  0  0  0 
 14  2  1  0  0  0  0 
 16  3  1  0  0  0  0 
 19  4  1  0  0  0  0 
 20  4  1  0  0  0  0 
 23  8  1  0  0  0  0 
M  END 
>  <HBA> 
2 
 
>  <HBD> 
1 
 
>  <TPSA> 
29.46 
 
>  <cid> 
34714 
 
>  <dipole> 
1.22 
 
>  <excitation_energy_1> 
6.135 
 
>  <excitation_energy_2> 
6.386 
 
>  <excitation_energy_3> 
6.432 
 
>  <excitation_energy_4> 
6.585 
 
>  <homo_energy> 
-6.61 
 
>  <homo_lumo_gap> 
8.406 
 
>  <logP> 
0.935 
 
>  <lumo_energy> 
1.796 
 
>  <melting_point> 
16.04 
 
>  <molecular_refractivity> 
35.93 
 
>  <oscillator_strength_1> 
0.0305 
 
>  <oscillator_strength_2> 
0.0015 
 
>  <oscillator_strength_3> 
0.0058 
 
>  <oscillator_strength_4> 
0.0223 
 
>  <open_babel_can_smiles> 
O[C@@H]1CC(O[C@@H]1C)(C)C 
 
>  <mulliken_charges> 
23 
1   -0.476074 
2   -0.450123 
3   -0.452475 
4   -0.327853 
5   0.157112 
6   0.101135 
7   0.337929 
8   -0.624647 
9   -0.528902 
10   0.150766 
11   0.164324 
12   0.131775 
13   0.138589 
14   0.144288 
15   0.153638 
16   0.137752 
17   0.155268 
18   0.144257 
19   0.151993 
20   0.127685 
21   0.128751 
22   0.144697 
23   0.390115 
 
>  <lowdin_charges> 
23 
1   -0.462905 
2   -0.446587 
3   -0.454824 
4   -0.308071 
5   -0.010777 
6   -0.022384 
7   0.131688 
8   -0.448668 
9   -0.284359 
10   0.156164 
11   0.163735 
12   0.139739 
13   0.151237 
14   0.151538 
15   0.15666 
16   0.149939 
17   0.157911 
18   0.150501 
19   0.158699 
20   0.143293 
21   0.135758 
22   0.149535 
23   0.342179 
 
$$$$ 
 
