PCCDB-ID:  12681 
public computational chemistry database (PCCDB) project, http://pccdb.org 
 
 23 22  0  0  0  0  0  0  0  0999 V2000 
    0.8919    1.4677    0.2083 C   0  0  0  0  0  0  0  0  0  0  0  0 
    2.7953    1.4006    1.8439 C   0  0  0  0  0  0  0  0  0  0  0  0 
    4.2642   -0.5168   -0.1507 C   0  0  0  0  0  0  0  0  0  0  0  0 
    2.7731   -0.1680   -0.1720 C   0  0  0  0  0  0  0  0  0  0  0  0 
    4.5341   -1.8996   -0.7338 C   0  0  0  0  0  0  0  0  0  0  0  0 
    3.1967    2.2936   -0.4590 C   0  0  0  0  0  0  0  0  0  0  0  0 
    2.4149    1.2484    0.3618 C   0  0  0  0  0  0  0  0  0  0  0  0 
    3.6833   -2.6515   -1.1379 O   0  0  0  0  0  0  0  0  0  0  0  0 
    5.8438   -2.2661   -0.7755 O   0  0  0  0  0  0  0  0  0  0  0  0 
    4.1016    2.9638   -0.0253 O   0  0  0  0  0  0  0  0  0  0  0  0 
    2.8523    2.4125   -1.7716 O   0  0  0  0  0  0  0  0  0  0  0  0 
    0.3512    0.7688    0.8553 H   0  0  0  0  0  0  0  0  0  0  0  0 
    0.5323    1.2903   -0.8137 H   0  0  0  0  0  0  0  0  0  0  0  0 
    0.6052    2.4850    0.4952 H   0  0  0  0  0  0  0  0  0  0  0  0 
    2.3139    0.6142    2.4363 H   0  0  0  0  0  0  0  0  0  0  0  0 
    2.4674    2.3710    2.2292 H   0  0  0  0  0  0  0  0  0  0  0  0 
    3.8756    1.3467    1.9936 H   0  0  0  0  0  0  0  0  0  0  0  0 
    4.6600   -0.4944    0.8735 H   0  0  0  0  0  0  0  0  0  0  0  0 
    4.8500    0.2214   -0.7167 H   0  0  0  0  0  0  0  0  0  0  0  0 
    2.2230   -0.9088    0.4193 H   0  0  0  0  0  0  0  0  0  0  0  0 
    2.4082   -0.2888   -1.1995 H   0  0  0  0  0  0  0  0  0  0  0  0 
    6.4037   -1.5523   -0.4266 H   0  0  0  0  0  0  0  0  0  0  0  0 
    2.1064    1.8267   -1.9802 H   0  0  0  0  0  0  0  0  0  0  0  0 
  1  7  1  0  0  0  0 
  1 14  1  0  0  0  0 
  1 12  1  0  0  0  0 
  2 17  1  0  0  0  0 
  2 16  1  0  0  0  0 
  2 15  1  0  0  0  0 
  3 18  1  0  0  0  0 
  4  3  1  0  0  0  0 
  4  7  1  0  0  0  0 
  4 20  1  0  0  0  0 
  5  3  1  0  0  0  0 
  6 10  2  0  0  0  0 
  6  7  1  0  0  0  0 
  7  2  1  0  0  0  0 
  8  5  2  0  0  0  0 
  9  5  1  0  0  0  0 
  9 22  1  0  0  0  0 
 11  6  1  0  0  0  0 
 13  1  1  0  0  0  0 
 19  3  1  0  0  0  0 
 21  4  1  0  0  0  0 
 23 11  1  0  0  0  0 
M  END 
>  <HBA> 
4 
 
>  <HBD> 
2 
 
>  <TPSA> 
74.6 
 
>  <cid> 
12681 
 
>  <dipole> 
2.29 
 
>  <excitation_energy_1> 
5.589 
 
>  <excitation_energy_2> 
5.76 
 
>  <excitation_energy_3> 
6.541 
 
>  <excitation_energy_4> 
6.607 
 
>  <homo_energy> 
-7.442 
 
>  <homo_lumo_gap> 
7.407 
 
>  <logP> 
0.962 
 
>  <lumo_energy> 
-0.035 
 
>  <melting_point> 
145.78 
 
>  <molecular_refractivity> 
39.05 
 
>  <oscillator_strength_1> 
0.0023 
 
>  <oscillator_strength_2> 
0.0002 
 
>  <oscillator_strength_3> 
0.0082 
 
>  <oscillator_strength_4> 
0.0168 
 
>  <open_babel_can_smiles> 
OC(=O)CCC(C(=O)O)(C)C 
 
>  <mulliken_charges> 
23 
1   -0.463988 
2   -0.445213 
3   -0.422762 
4   -0.259335 
5   0.612759 
6   0.615829 
7   -0.04442 
8   -0.43895 
9   -0.566329 
10   -0.45325 
11   -0.577343 
12   0.166278 
13   0.132905 
14   0.16927 
15   0.141127 
16   0.161053 
17   0.167029 
18   0.178472 
19   0.187489 
20   0.167943 
21   0.14543 
22   0.412771 
23   0.413234 
 
>  <lowdin_charges> 
23 
1   -0.44257 
2   -0.437738 
3   -0.330532 
4   -0.268222 
5   0.200849 
6   0.191196 
7   -0.030723 
8   -0.239478 
9   -0.358199 
10   -0.240404 
11   -0.358225 
12   0.164398 
13   0.141786 
14   0.161598 
15   0.151085 
16   0.161568 
17   0.160149 
18   0.168185 
19   0.173227 
20   0.164168 
21   0.148813 
22   0.361746 
23   0.357322 
 
$$$$ 
 
