PCCDB-ID:  62014 
public computational chemistry database (PCCDB) project, http://pccdb.org 
 
 21 20  0  0  0  0  0  0  0  0999 V2000 
    0.9211    2.0407    0.9227 C   0  0  0  0  0  0  0  0  0  0  0  0 
    3.2377    2.1209    1.8899 C   0  0  0  0  0  0  0  0  0  0  0  0 
    1.4929    0.5393    2.8108 C   0  0  0  0  0  0  0  0  0  0  0  0 
    3.5252   -0.7162    0.6953 C   0  0  0  0  0  0  0  0  0  0  0  0 
    2.0602    1.1992    1.5304 C   0  0  0  0  0  0  0  0  0  0  0  0 
    2.4706    0.2535    0.4741 N   0  0  0  0  0  0  0  0  0  0  0  0 
    2.5379   -0.0978    3.5624 O   0  0  0  0  0  0  0  0  0  0  0  0 
    3.2030   -1.8281    1.5165 O   0  0  0  0  0  0  0  0  0  0  0  0 
    0.5992    2.8309    1.6096 H   0  0  0  0  0  0  0  0  0  0  0  0 
    0.0468    1.4184    0.6892 H   0  0  0  0  0  0  0  0  0  0  0  0 
    1.2626    2.5017   -0.0084 H   0  0  0  0  0  0  0  0  0  0  0  0 
    2.9099    2.9069    2.5799 H   0  0  0  0  0  0  0  0  0  0  0  0 
    3.6275    2.5923    0.9825 H   0  0  0  0  0  0  0  0  0  0  0  0 
    4.0492    1.5763    2.3787 H   0  0  0  0  0  0  0  0  0  0  0  0 
    0.7240   -0.1948    2.5272 H   0  0  0  0  0  0  0  0  0  0  0  0 
    1.0194    1.3097    3.4361 H   0  0  0  0  0  0  0  0  0  0  0  0 
    4.4069   -0.1836    1.0744 H   0  0  0  0  0  0  0  0  0  0  0  0 
    3.7820   -1.1426   -0.2794 H   0  0  0  0  0  0  0  0  0  0  0  0 
    1.6504   -0.2350    0.1179 H   0  0  0  0  0  0  0  0  0  0  0  0 
    2.1488   -0.4505    4.3770 H   0  0  0  0  0  0  0  0  0  0  0  0 
    3.0840   -1.4620    2.4147 H   0  0  0  0  0  0  0  0  0  0  0  0 
  1  5  1  0  0  0  0 
  1  9  1  0  0  0  0 
  2 14  1  0  0  0  0 
  2 12  1  0  0  0  0 
  3 16  1  0  0  0  0 
  3  7  1  0  0  0  0 
  4 17  1  0  0  0  0 
  4  8  1  0  0  0  0 
  5  2  1  0  0  0  0 
  5  3  1  0  0  0  0 
  6  4  1  0  0  0  0 
  6  5  1  0  0  0  0 
  7 20  1  0  0  0  0 
  8 21  1  0  0  0  0 
 10  1  1  0  0  0  0 
 11  1  1  0  0  0  0 
 13  2  1  0  0  0  0 
 15  3  1  0  0  0  0 
 18  4  1  0  0  0  0 
 19  6  1  0  0  0  0 
M  END 
>  <HBA> 
3 
 
>  <HBD> 
3 
 
>  <TPSA> 
52.49 
 
>  <cid> 
62014 
 
>  <dipole> 
3.34 
 
>  <excitation_energy_1> 
5.221 
 
>  <excitation_energy_2> 
5.719 
 
>  <excitation_energy_3> 
6.15 
 
>  <excitation_energy_4> 
6.184 
 
>  <homo_energy> 
-5.878 
 
>  <homo_lumo_gap> 
7.293 
 
>  <logP> 
-0.312 
 
>  <lumo_energy> 
1.415 
 
>  <melting_point> 
49.54 
 
>  <molecular_refractivity> 
31.31 
 
>  <oscillator_strength_1> 
0.0096 
 
>  <oscillator_strength_2> 
0.0105 
 
>  <oscillator_strength_3> 
0.0031 
 
>  <oscillator_strength_4> 
0.0155 
 
>  <open_babel_can_smiles> 
OCNC(CO)(C)C 
 
>  <mulliken_charges> 
21 
1   -0.456535 
2   -0.445693 
3   -0.036059 
4   0.056456 
5   0.182152 
6   -0.549462 
7   -0.6288 
8   -0.648165 
9   0.141651 
10   0.135739 
11   0.166019 
12   0.134002 
13   0.154448 
14   0.165919 
15   0.128668 
16   0.127554 
17   0.128425 
18   0.142349 
19   0.288076 
20   0.406642 
21   0.406615 
 
>  <lowdin_charges> 
21 
1   -0.446246 
2   -0.449801 
3   -0.157488 
4   -0.096084 
5   0.058739 
6   -0.359827 
7   -0.461675 
8   -0.504005 
9   0.150382 
10   0.145848 
11   0.163129 
12   0.149552 
13   0.157947 
14   0.160345 
15   0.135139 
16   0.137256 
17   0.13121 
18   0.144174 
19   0.253016 
20   0.354266 
21   0.334125 
 
$$$$ 
 
