PCCDB-ID:  48878 
public computational chemistry database (PCCDB) project, http://pccdb.org 
 
 31 31  0  0  0  0  0  0  0  0999 V2000 
    2.9522    3.1754    2.5694 C   0  0  0  0  0  0  0  0  0  0  0  0 
    3.4171    4.6087    0.5455 C   0  0  0  0  0  0  0  0  0  0  0  0 
    5.2243    4.2357    2.2390 C   0  0  0  0  0  0  0  0  0  0  0  0 
    3.1607   -0.8876   -2.7103 C   0  0  0  0  0  0  0  0  0  0  0  0 
    4.0982   -0.6919   -1.7012 C   0  0  0  0  0  0  0  0  0  0  0  0 
    1.8395   -0.4921   -2.4908 C   0  0  0  0  0  0  0  0  0  0  0  0 
    2.3288    0.2370   -0.3773 C   0  0  0  0  0  0  0  0  0  0  0  0 
    3.6928   -0.1019   -0.4937 C   0  0  0  0  0  0  0  0  0  0  0  0 
    4.8218    1.1863    1.1375 C   0  0  0  0  0  0  0  0  0  0  0  0 
    4.0137    3.5943    1.5357 C   0  0  0  0  0  0  0  0  0  0  0  0 
    1.4240    0.0575   -1.3432 N   0  0  0  0  0  0  0  0  0  0  0  0 
    4.6034    0.0494    0.5570 N   0  0  0  0  0  0  0  0  0  0  0  0 
    4.4362    2.4328    0.6938 N   0  0  0  0  0  0  0  0  0  0  0  0 
    5.5936    1.1591    2.3048 N   0  0  0  0  0  0  0  0  0  0  0  0 
    6.0928   -0.1282    2.6143 O   0  0  0  0  0  0  0  0  0  0  0  0 
    2.6458    4.0376    3.1728 H   0  0  0  0  0  0  0  0  0  0  0  0 
    3.3478    2.4106    3.2440 H   0  0  0  0  0  0  0  0  0  0  0  0 
    2.0597    2.7774    2.0734 H   0  0  0  0  0  0  0  0  0  0  0  0 
    4.1626    4.9194   -0.1950 H   0  0  0  0  0  0  0  0  0  0  0  0 
    3.0718    5.4990    1.0796 H   0  0  0  0  0  0  0  0  0  0  0  0 
    2.5554    4.1848    0.0148 H   0  0  0  0  0  0  0  0  0  0  0  0 
    6.0341    4.4224    1.5250 H   0  0  0  0  0  0  0  0  0  0  0  0 
    5.5990    3.6086    3.0527 H   0  0  0  0  0  0  0  0  0  0  0  0 
    4.9310    5.1950    2.6793 H   0  0  0  0  0  0  0  0  0  0  0  0 
    3.4479   -1.3404   -3.6551 H   0  0  0  0  0  0  0  0  0  0  0  0 
    5.1363   -0.9871   -1.8246 H   0  0  0  0  0  0  0  0  0  0  0  0 
    1.0831   -0.6285   -3.2615 H   0  0  0  0  0  0  0  0  0  0  0  0 
    1.9612    0.6517    0.5608 H   0  0  0  0  0  0  0  0  0  0  0  0 
    3.8838    2.3527   -0.1527 H   0  0  0  0  0  0  0  0  0  0  0  0 
    6.3908    1.7890    2.2499 H   0  0  0  0  0  0  0  0  0  0  0  0 
    5.7846   -0.6574    1.8370 H   0  0  0  0  0  0  0  0  0  0  0  0 
  1 16  1  0  0  0  0 
  1 17  1  0  0  0  0 
  2 20  1  0  0  0  0 
  2 10  1  0  0  0  0 
  3 24  1  0  0  0  0 
  3 23  1  0  0  0  0 
  4  6  2  0  0  0  0 
  4  5  1  0  0  0  0 
  5  8  2  0  0  0  0 
  6 11  1  0  0  0  0 
  7 28  1  0  0  0  0 
  8  7  1  0  0  0  0 
  8 12  1  0  0  0  0 
  9 14  1  0  0  0  0 
 10  3  1  0  0  0  0 
 10  1  1  0  0  0  0 
 11  7  2  0  0  0  0 
 12  9  2  0  0  0  0 
 13  9  1  0  0  0  0 
 13 10  1  0  0  0  0 
 14 15  1  0  0  0  0 
 18  1  1  0  0  0  0 
 19  2  1  0  0  0  0 
 21  2  1  0  0  0  0 
 22  3  1  0  0  0  0 
 25  4  1  0  0  0  0 
 26  5  1  0  0  0  0 
 27  6  1  0  0  0  0 
 29 13  1  0  0  0  0 
 30 14  1  0  0  0  0 
 31 15  1  0  0  0  0 
M  END 
>  <HBA> 
5 
 
>  <HBD> 
3 
 
>  <TPSA> 
69.54 
 
>  <cid> 
48878 
 
>  <dipole> 
3.74 
 
>  <excitation_energy_1> 
4.586 
 
>  <excitation_energy_2> 
4.816 
 
>  <excitation_energy_3> 
4.895 
 
>  <excitation_energy_4> 
5.1 
 
>  <homo_energy> 
-5.978 
 
>  <homo_lumo_gap> 
5.404 
 
>  <logP> 
2.091 
 
>  <lumo_energy> 
-0.574 
 
>  <melting_point> 
160.69 
 
>  <molecular_refractivity> 
60.02 
 
>  <oscillator_strength_1> 
0.0472 
 
>  <oscillator_strength_2> 
0.0388 
 
>  <oscillator_strength_3> 
0.1378 
 
>  <oscillator_strength_4> 
0.1183 
 
>  <open_babel_can_smiles> 
ON/C(=N/c1cccnc1)/NC(C)(C)C 
 
>  <mulliken_charges> 
31 
1   -0.454717 
2   -0.474415 
3   -0.462481 
4   -0.1471 
5   -0.119648 
6   0.031776 
7   -0.007391 
8   0.226863 
9   0.667002 
10   0.222341 
11   -0.412346 
12   -0.628102 
13   -0.640338 
14   -0.34796 
15   -0.53321 
16   0.145959 
17   0.178682 
18   0.15081 
19   0.158519 
20   0.158828 
21   0.154375 
22   0.151599 
23   0.163943 
24   0.151475 
25   0.136481 
26   0.14275 
27   0.138293 
28   0.145141 
29   0.335481 
30   0.343411 
31   0.423978 
 
>  <lowdin_charges> 
31 
1   -0.458283 
2   -0.449318 
3   -0.456975 
4   -0.170094 
5   -0.148138 
6   -0.108613 
7   -0.131369 
8   0.024975 
9   0.130346 
10   0.084365 
11   -0.146034 
12   -0.26409 
13   -0.299162 
14   -0.174092 
15   -0.411242 
16   0.1553 
17   0.167728 
18   0.152883 
19   0.157785 
20   0.161104 
21   0.154671 
22   0.155002 
23   0.15925 
24   0.157134 
25   0.163683 
26   0.165164 
27   0.156465 
28   0.155219 
29   0.285473 
30   0.283382 
31   0.347482 
 
$$$$ 
 
