PCCDB-ID:  25274 
public computational chemistry database (PCCDB) project, http://pccdb.org 
 
 19 19  0  0  0  0  0  0  0  0999 V2000 
    0.7602    0.0215   -0.4734 C   0  0  0  0  0  0  0  0  0  0  0  0 
    2.2629   -0.2504   -0.3578 C   0  0  0  0  0  0  0  0  0  0  0  0 
    2.9824    0.7882    0.5034 C   0  0  0  0  0  0  0  0  0  0  0  0 
    6.4857    1.9271    1.0107 C   0  0  0  0  0  0  0  0  0  0  0  0 
    6.2927    1.0706    2.1898 C   0  0  0  0  0  0  0  0  0  0  0  0 
    4.4758    0.5747    0.6149 C   0  0  0  0  0  0  0  0  0  0  0  0 
    5.1041    1.5748    1.4458 N   0  0  0  0  0  0  0  0  0  0  0  0 
    5.0747   -0.3303    0.0696 O   0  0  0  0  0  0  0  0  0  0  0  0 
    0.2681   -0.7386   -1.0903 H   0  0  0  0  0  0  0  0  0  0  0  0 
    0.5646    0.9990   -0.9316 H   0  0  0  0  0  0  0  0  0  0  0  0 
    0.2751    0.0158    0.5107 H   0  0  0  0  0  0  0  0  0  0  0  0 
    2.7209   -0.2683   -1.3539 H   0  0  0  0  0  0  0  0  0  0  0  0 
    2.4333   -1.2473    0.0662 H   0  0  0  0  0  0  0  0  0  0  0  0 
    2.5805    0.8152    1.5268 H   0  0  0  0  0  0  0  0  0  0  0  0 
    2.8283    1.8078    0.1201 H   0  0  0  0  0  0  0  0  0  0  0  0 
    6.8431    1.4459    0.1037 H   0  0  0  0  0  0  0  0  0  0  0  0 
    6.7223    2.9818    1.1223 H   0  0  0  0  0  0  0  0  0  0  0  0 
    6.3834    1.4782    3.1931 H   0  0  0  0  0  0  0  0  0  0  0  0 
    6.5207    0.0137    2.0758 H   0  0  0  0  0  0  0  0  0  0  0  0 
  1  2  1  0  0  0  0 
  1 11  1  0  0  0  0 
  2 13  1  0  0  0  0 
  2  3  1  0  0  0  0 
  3  6  1  0  0  0  0 
  3 14  1  0  0  0  0 
  4 17  1  0  0  0  0 
  4  7  1  0  0  0  0 
  4  5  1  0  0  0  0 
  5 18  1  0  0  0  0 
  6  7  1  0  0  0  0 
  7  5  1  0  0  0  0 
  8  6  2  0  0  0  0 
  9  1  1  0  0  0  0 
 10  1  1  0  0  0  0 
 12  2  1  0  0  0  0 
 15  3  1  0  0  0  0 
 16  4  1  0  0  0  0 
 19  5  1  0  0  0  0 
M  END 
>  <HBA> 
2 
 
>  <HBD> 
0 
 
>  <TPSA> 
20.08 
 
>  <cid> 
25274 
 
>  <dipole> 
1.24 
 
>  <excitation_energy_1> 
4.685 
 
>  <excitation_energy_2> 
5.555 
 
>  <excitation_energy_3> 
6.497 
 
>  <excitation_energy_4> 
6.714 
 
>  <homo_energy> 
-6.721 
 
>  <homo_lumo_gap> 
6.378 
 
>  <logP> 
0.567 
 
>  <lumo_energy> 
-0.343 
 
>  <melting_point> 
6.12 
 
>  <molecular_refractivity> 
35.85 
 
>  <oscillator_strength_1> 
0.0002 
 
>  <oscillator_strength_2> 
0.0006 
 
>  <oscillator_strength_3> 
0.0028 
 
>  <oscillator_strength_4> 
0.0117 
 
>  <open_babel_can_smiles> 
CCCC(=O)N1CC1 
 
>  <mulliken_charges> 
19 
1   -0.44664 
2   -0.243978 
3   -0.334376 
4   -0.191584 
5   -0.190709 
6   0.537927 
7   -0.438213 
8   -0.453826 
9   0.147028 
10   0.141854 
11   0.141774 
12   0.149674 
13   0.148289 
14   0.169504 
15   0.16911 
16   0.180413 
17   0.166554 
18   0.166412 
19   0.180788 
 
>  <lowdin_charges> 
19 
1   -0.445259 
2   -0.269613 
3   -0.29837 
4   -0.220809 
5   -0.220633 
6   0.184794 
7   -0.224063 
8   -0.247982 
9   0.153474 
10   0.146154 
11   0.146105 
12   0.150245 
13   0.149498 
14   0.168031 
15   0.167941 
16   0.16784 
17   0.162888 
18   0.163574 
19   0.166185 
 
$$$$ 
 
