PCCDB-ID:  22198 
public computational chemistry database (PCCDB) project, http://pccdb.org 
 
 22 22  0  0  0  0  0  0  0  0999 V2000 
   -1.5375    0.7517    0.0490 C   0  0  0  0  0  0  0  0  0  0  0  0 
   -0.2792    1.4658   -0.4740 C   0  0  0  0  0  0  0  0  0  0  0  0 
   -1.5122   -0.7812   -0.0315 C   0  0  0  0  0  0  0  0  0  0  0  0 
    0.9574    1.2157    0.4086 C   0  0  0  0  0  0  0  0  0  0  0  0 
   -0.2632   -1.4678    0.5416 C   0  0  0  0  0  0  0  0  0  0  0  0 
    1.7474   -0.0713    0.1154 C   0  0  0  0  0  0  0  0  0  0  0  0 
    1.8049   -2.3351   -0.4260 N   0  0  0  0  0  0  0  0  0  0  0  0 
    0.9274   -1.2154   -0.2881 N   0  0  0  0  0  0  0  0  0  0  0  0 
   -2.4158    1.1106   -0.5044 H   0  0  0  0  0  0  0  0  0  0  0  0 
   -1.6933    1.0563    1.0948 H   0  0  0  0  0  0  0  0  0  0  0  0 
   -0.4845    2.5440   -0.4937 H   0  0  0  0  0  0  0  0  0  0  0  0 
   -0.0730    1.1662   -1.5098 H   0  0  0  0  0  0  0  0  0  0  0  0 
   -1.5943   -1.0926   -1.0809 H   0  0  0  0  0  0  0  0  0  0  0  0 
   -2.3971   -1.1754    0.4878 H   0  0  0  0  0  0  0  0  0  0  0  0 
    0.6395    1.2302    1.4601 H   0  0  0  0  0  0  0  0  0  0  0  0 
    1.6639    2.0488    0.3041 H   0  0  0  0  0  0  0  0  0  0  0  0 
   -0.4365   -2.5498    0.5260 H   0  0  0  0  0  0  0  0  0  0  0  0 
   -0.1043   -1.1939    1.6023 H   0  0  0  0  0  0  0  0  0  0  0  0 
    2.3580   -0.3159    1.0080 H   0  0  0  0  0  0  0  0  0  0  0  0 
    2.4534    0.0967   -0.7043 H   0  0  0  0  0  0  0  0  0  0  0  0 
    1.3368   -3.0175   -1.0199 H   0  0  0  0  0  0  0  0  0  0  0  0 
    1.9554   -2.7867    0.4863 H   0  0  0  0  0  0  0  0  0  0  0  0 
  1 10  1  0  0  0  0 
  2  1  1  0  0  0  0 
  2  4  1  0  0  0  0 
  3  1  1  0  0  0  0 
  3 14  1  0  0  0  0 
  3  5  1  0  0  0  0 
  4 15  1  0  0  0  0 
  5 18  1  0  0  0  0 
  6  4  1  0  0  0  0 
  6 19  1  0  0  0  0 
  7  8  1  0  0  0  0 
  7 22  1  0  0  0  0 
  8  6  1  0  0  0  0 
  8  5  1  0  0  0  0 
  9  1  1  0  0  0  0 
 11  2  1  0  0  0  0 
 12  2  1  0  0  0  0 
 13  3  1  0  0  0  0 
 16  4  1  0  0  0  0 
 17  5  1  0  0  0  0 
 20  6  1  0  0  0  0 
 21  7  1  0  0  0  0 
M  END 
>  <HBA> 
2 
 
>  <HBD> 
1 
 
>  <TPSA> 
29.26 
 
>  <cid> 
22198 
 
>  <dipole> 
1.56 
 
>  <excitation_energy_1> 
5.225 
 
>  <excitation_energy_2> 
5.531 
 
>  <excitation_energy_3> 
5.709 
 
>  <excitation_energy_4> 
5.832 
 
>  <homo_energy> 
-5.622 
 
>  <homo_lumo_gap> 
7.774 
 
>  <logP> 
1.374 
 
>  <lumo_energy> 
2.152 
 
>  <melting_point> 
52.9 
 
>  <molecular_refractivity> 
38.36 
 
>  <oscillator_strength_1> 
0.0444 
 
>  <oscillator_strength_2> 
0.0116 
 
>  <oscillator_strength_3> 
0.0499 
 
>  <oscillator_strength_4> 
0.0192 
 
>  <open_babel_can_smiles> 
NN1CCCCCC1 
 
>  <mulliken_charges> 
22 
1   -0.260168 
2   -0.247684 
3   -0.238801 
4   -0.291333 
5   -0.137076 
6   -0.080991 
7   -0.571385 
8   -0.306227 
9   0.12927 
10   0.124934 
11   0.126975 
12   0.145145 
13   0.137955 
14   0.123133 
15   0.131434 
16   0.137993 
17   0.124459 
18   0.11608 
19   0.101848 
20   0.150996 
21   0.307776 
22   0.275665 
 
>  <lowdin_charges> 
22 
1   -0.27616 
2   -0.275597 
3   -0.2802 
4   -0.288579 
5   -0.213465 
6   -0.202098 
7   -0.470073 
8   -0.147539 
9   0.143612 
10   0.133791 
11   0.140775 
12   0.146793 
13   0.143546 
14   0.141904 
15   0.136408 
16   0.151254 
17   0.139584 
18   0.121262 
19   0.116052 
20   0.150937 
21   0.256648 
22   0.231146 
 
$$$$ 
 
