PCCDB-ID:  6476 
public computational chemistry database (PCCDB) project, http://pccdb.org 
 
 28 29  0  0  1  0  0  0  0  0999 V2000 
    0.8592   -0.2529   -0.0465 C   0  0  0  0  0  0  0  0  0  0  0  0 
    3.3173    1.7532    3.3550 C   0  0  0  0  0  0  0  0  0  0  0  0 
    4.0695    0.4932   -3.8628 C   0  0  0  0  0  0  0  0  0  0  0  0 
    3.7041    1.6170   -3.1229 C   0  0  0  0  0  0  0  0  0  0  0  0 
    3.8950   -0.7749   -3.3076 C   0  0  0  0  0  0  0  0  0  0  0  0 
    3.1728    1.4817   -1.8381 C   0  0  0  0  0  0  0  0  0  0  0  0 
    3.3719   -0.9102   -2.0218 C   0  0  0  0  0  0  0  0  0  0  0  0 
    3.0576   -1.1221    0.9458 C   0  0  0  0  0  0  0  0  0  0  0  0 
    3.0105    0.2139   -1.2622 C   0  0  0  0  0  0  0  0  0  0  0  0 
    3.4185   -0.5175    2.2938 C   0  0  0  0  0  0  0  0  0  0  0  0 
    2.5137    1.2345    1.0505 C   0  0  0  0  0  0  0  0  0  0  0  0 
    2.3790    0.0063    0.1238 C   0  0  1  0  0  0  0  0  0  0  0  0 
    3.1072    0.8401    2.2426 N   0  0  0  0  0  0  0  0  0  0  0  0 
    3.9023   -1.0802    3.2534 O   0  0  0  0  0  0  0  0  0  0  0  0 
    2.1197    2.3666    0.8426 O   0  0  0  0  0  0  0  0  0  0  0  0 
    0.6980   -1.1230   -0.6909 H   0  0  0  0  0  0  0  0  0  0  0  0 
    0.3787    0.6160   -0.5042 H   0  0  0  0  0  0  0  0  0  0  0  0 
    0.3798   -0.4431    0.9217 H   0  0  0  0  0  0  0  0  0  0  0  0 
    3.9945    1.2685    4.0593 H   0  0  0  0  0  0  0  0  0  0  0  0 
    2.3692    1.9789    3.8533 H   0  0  0  0  0  0  0  0  0  0  0  0 
    3.7482    2.6851    2.9827 H   0  0  0  0  0  0  0  0  0  0  0  0 
    4.4817    0.6025   -4.8624 H   0  0  0  0  0  0  0  0  0  0  0  0 
    3.8320    2.6111   -3.5434 H   0  0  0  0  0  0  0  0  0  0  0  0 
    4.1654   -1.6625   -3.8737 H   0  0  0  0  0  0  0  0  0  0  0  0 
    2.8783    2.3643   -1.2830 H   0  0  0  0  0  0  0  0  0  0  0  0 
    3.2345   -1.9086   -1.6139 H   0  0  0  0  0  0  0  0  0  0  0  0 
    2.4142   -1.9933    1.1056 H   0  0  0  0  0  0  0  0  0  0  0  0 
    3.9815   -1.4851    0.4859 H   0  0  0  0  0  0  0  0  0  0  0  0 
  1 18  1  0  0  0  0 
  2 20  1  0  0  0  0 
  2 19  1  0  0  0  0 
  3  5  2  0  0  0  0 
  3  4  1  0  0  0  0 
  4  6  2  0  0  0  0 
  5  7  1  0  0  0  0 
  6 25  1  0  0  0  0 
  6  9  1  0  0  0  0 
  7 26  1  0  0  0  0 
  7  9  2  0  0  0  0 
  8 27  1  0  0  0  0 
  8 10  1  0  0  0  0 
  9 12  1  0  0  0  0 
 10 14  2  0  0  0  0 
 11 13  1  0  0  0  0 
 12  1  1  6  0  0  0 
 12  8  1  0  0  0  0 
 12 11  1  0  0  0  0 
 13 10  1  0  0  0  0 
 13  2  1  0  0  0  0 
 15 11  2  0  0  0  0 
 16  1  1  0  0  0  0 
 17  1  1  0  0  0  0 
 21  2  1  0  0  0  0 
 22  3  1  0  0  0  0 
 23  4  1  0  0  0  0 
 24  5  1  0  0  0  0 
 28  8  1  0  0  0  0 
M  END 
>  <HBA> 
3 
 
>  <HBD> 
0 
 
>  <TPSA> 
37.38 
 
>  <cid> 
6476 
 
>  <dipole> 
1.47 
 
>  <excitation_energy_1> 
4.832 
 
>  <excitation_energy_2> 
5.275 
 
>  <excitation_energy_3> 
5.406 
 
>  <excitation_energy_4> 
5.448 
 
>  <homo_energy> 
-6.667 
 
>  <homo_lumo_gap> 
6.057 
 
>  <logP> 
1.271 
 
>  <lumo_energy> 
-0.61 
 
>  <melting_point> 
78.77 
 
>  <molecular_refractivity> 
60.42 
 
>  <oscillator_strength_1> 
0.0058 
 
>  <oscillator_strength_2> 
0.0027 
 
>  <oscillator_strength_3> 
0.0042 
 
>  <oscillator_strength_4> 
0.0016 
 
>  <open_babel_can_smiles> 
CN1C(=O)C[C@](C1=O)(C)c1ccccc1 
 
>  <mulliken_charges> 
28 
1   -0.443295 
2   -0.326261 
3   -0.124835 
4   -0.135699 
5   -0.132541 
6   -0.180678 
7   -0.178892 
8   -0.410499 
9   0.124672 
10   0.594235 
11   0.618744 
12   -0.085146 
13   -0.467059 
14   -0.480512 
15   -0.501845 
16   0.159104 
17   0.180248 
18   0.148576 
19   0.195512 
20   0.179948 
21   0.186208 
22   0.131238 
23   0.133894 
24   0.131542 
25   0.172016 
26   0.128596 
27   0.185271 
28   0.197459 
 
>  <lowdin_charges> 
28 
1   -0.431181 
2   -0.352364 
3   -0.154943 
4   -0.151979 
5   -0.155772 
6   -0.169499 
7   -0.171603 
8   -0.307234 
9   -0.004249 
10   0.168855 
11   0.168876 
12   -0.012589 
13   -0.072071 
14   -0.261576 
15   -0.266418 
16   0.158877 
17   0.16999 
18   0.151165 
19   0.182118 
20   0.166653 
21   0.173704 
22   0.157783 
23   0.159056 
24   0.159285 
25   0.179131 
26   0.15506 
27   0.176929 
28   0.183996 
 
$$$$ 
 
