PCCDB-ID:  30999 
public computational chemistry database (PCCDB) project, http://pccdb.org 
 
 27 28  0  0  1  0  0  0  0  0999 V2000 
    5.1695    0.7712   -0.4346 C   0  0  0  0  0  0  0  0  0  0  0  0 
    2.2675    2.4390   -1.6215 C   0  0  0  0  0  0  0  0  0  0  0  0 
    2.0135    3.5437   -2.4229 C   0  0  0  0  0  0  0  0  0  0  0  0 
    1.8674    6.1631   -2.3537 C   0  0  0  0  0  0  0  0  0  0  0  0 
    2.0597    7.0169   -1.3004 C   0  0  0  0  0  0  0  0  0  0  0  0 
    2.8873    1.3345    0.5883 C   0  0  0  0  0  0  0  0  0  0  0  0 
    2.6424    3.8306    0.3302 C   0  0  0  0  0  0  0  0  0  0  0  0 
    4.3982    1.0742    0.8510 C   0  0  1  0  0  0  0  0  0  0  0  0 
    2.5849    2.5612   -0.2468 C   0  0  0  0  0  0  0  0  0  0  0  0 
    2.0716    4.8292   -1.8588 C   0  0  0  0  0  0  0  0  0  0  0  0 
    2.3898    4.9437   -0.4765 C   0  0  0  0  0  0  0  0  0  0  0  0 
    4.6433   -0.0104    1.8132 N   0  0  0  0  0  0  0  0  0  0  0  0 
    2.3741    6.2889   -0.1659 N   0  0  0  0  0  0  0  0  0  0  0  0 
    5.0747    1.5865   -1.1578 H   0  0  0  0  0  0  0  0  0  0  0  0 
    4.7851   -0.1426   -0.9093 H   0  0  0  0  0  0  0  0  0  0  0  0 
    6.2290    0.6145   -0.2107 H   0  0  0  0  0  0  0  0  0  0  0  0 
    2.2176    1.4436   -2.0564 H   0  0  0  0  0  0  0  0  0  0  0  0 
    1.7671    3.4142   -3.4738 H   0  0  0  0  0  0  0  0  0  0  0  0 
    1.6089    6.4497   -3.3638 H   0  0  0  0  0  0  0  0  0  0  0  0 
    2.0018    8.0957   -1.2580 H   0  0  0  0  0  0  0  0  0  0  0  0 
    2.3918    1.4251    1.5657 H   0  0  0  0  0  0  0  0  0  0  0  0 
    2.4628    0.4420    0.1071 H   0  0  0  0  0  0  0  0  0  0  0  0 
    2.8728    3.9473    1.3875 H   0  0  0  0  0  0  0  0  0  0  0  0 
    4.8179    1.9876    1.2955 H   0  0  0  0  0  0  0  0  0  0  0  0 
    4.2776   -0.8845    1.4323 H   0  0  0  0  0  0  0  0  0  0  0  0 
    4.1117    0.1615    2.6671 H   0  0  0  0  0  0  0  0  0  0  0  0 
    2.5648    6.6806    0.7428 H   0  0  0  0  0  0  0  0  0  0  0  0 
  1 16  1  0  0  0  0 
  1  8  1  0  0  0  0 
  2  9  2  0  0  0  0 
  3 10  2  0  0  0  0 
  3  2  1  0  0  0  0 
  4 10  1  0  0  0  0 
  4  5  2  0  0  0  0 
  5 20  1  0  0  0  0 
  5 13  1  0  0  0  0 
  6  8  1  0  0  0  0 
  6 21  1  0  0  0  0 
  7 23  1  0  0  0  0 
  8 24  1  1  0  0  0 
  8 12  1  0  0  0  0 
  9  7  1  0  0  0  0 
  9  6  1  0  0  0  0 
 10 11  1  0  0  0  0 
 11 13  1  0  0  0  0 
 11  7  2  0  0  0  0 
 12 26  1  0  0  0  0 
 13 27  1  0  0  0  0 
 14  1  1  0  0  0  0 
 15  1  1  0  0  0  0 
 17  2  1  0  0  0  0 
 18  3  1  0  0  0  0 
 19  4  1  0  0  0  0 
 22  6  1  0  0  0  0 
 25 12  1  0  0  0  0 
M  END 
>  <HBA> 
1 
 
>  <HBD> 
2 
 
>  <TPSA> 
41.81 
 
>  <cid> 
30999 
 
>  <dipole> 
2.31 
 
>  <excitation_energy_1> 
4.587 
 
>  <excitation_energy_2> 
4.711 
 
>  <excitation_energy_3> 
4.75 
 
>  <excitation_energy_4> 
5.126 
 
>  <homo_energy> 
-5.32 
 
>  <homo_lumo_gap> 
5.178 
 
>  <logP> 
2.758 
 
>  <lumo_energy> 
-0.142 
 
>  <melting_point> 
152.68 
 
>  <molecular_refractivity> 
55.59 
 
>  <oscillator_strength_1> 
0.1177 
 
>  <oscillator_strength_2> 
0.0075 
 
>  <oscillator_strength_3> 
0.036 
 
>  <oscillator_strength_4> 
0.0239 
 
>  <open_babel_can_smiles> 
C[C@@H](Cc1ccc2c(c1)[nH]cc2)N 
 
>  <mulliken_charges> 
27 
1   -0.442177 
2   -0.194542 
3   -0.205491 
4   -0.228165 
5   0.049259 
6   -0.355958 
7   -0.224531 
8   0.033203 
9   0.159443 
10   0.121696 
11   0.316166 
12   -0.703056 
13   -0.682717 
14   0.158956 
15   0.126823 
16   0.157209 
17   0.1143 
18   0.123805 
19   0.128658 
20   0.148535 
21   0.127204 
22   0.127049 
23   0.112402 
24   0.130954 
25   0.286286 
26   0.288493 
27   0.326197 
 
>  <lowdin_charges> 
27 
1   -0.449353 
2   -0.18655 
3   -0.158131 
4   -0.223544 
5   -0.120254 
6   -0.292567 
7   -0.197493 
8   -0.062821 
9   -0.008984 
10   -0.030013 
11   0.031423 
12   -0.549395 
13   -0.201641 
14   0.160139 
15   0.140823 
16   0.156633 
17   0.151272 
18   0.154621 
19   0.162529 
20   0.162514 
21   0.141998 
22   0.14269 
23   0.149435 
24   0.138063 
25   0.249146 
26   0.249378 
27   0.290084 
 
$$$$ 
 
