PCCDB-ID:  19166 
public computational chemistry database (PCCDB) project, http://pccdb.org 
 
 15 14  0  0  0  0  0  0  0  0999 V2000 
    3.3509    0.9111   -0.7191 C   0  0  0  0  0  0  0  0  0  0  0  0 
    1.7302   -2.0998   -0.7812 C   0  0  0  0  0  0  0  0  0  0  0  0 
    3.2271   -0.3321    0.1813 C   0  0  0  0  0  0  0  0  0  0  0  0 
    2.9613   -1.6017   -0.5986 C   0  0  0  0  0  0  0  0  0  0  0  0 
    4.1606   -2.2306   -1.2557 C   0  0  0  0  0  0  0  0  0  0  0  0 
    5.1617   -1.6106   -1.5305 O   0  0  0  0  0  0  0  0  0  0  0  0 
    4.0863   -3.5589   -1.5411 O   0  0  0  0  0  0  0  0  0  0  0  0 
    3.5483    1.8007   -0.1106 H   0  0  0  0  0  0  0  0  0  0  0  0 
    2.4252    1.0806   -1.2803 H   0  0  0  0  0  0  0  0  0  0  0  0 
    4.1718    0.7889   -1.4296 H   0  0  0  0  0  0  0  0  0  0  0  0 
    0.8593   -1.6272   -0.3347 H   0  0  0  0  0  0  0  0  0  0  0  0 
    1.5264   -2.9603   -1.4147 H   0  0  0  0  0  0  0  0  0  0  0  0 
    2.4127   -0.1873    0.9010 H   0  0  0  0  0  0  0  0  0  0  0  0 
    4.1528   -0.4482    0.7563 H   0  0  0  0  0  0  0  0  0  0  0  0 
    3.2974   -3.9368   -1.1196 H   0  0  0  0  0  0  0  0  0  0  0  0 
  1  8  1  0  0  0  0 
  1  3  1  0  0  0  0 
  2  4  2  0  0  0  0 
  2 11  1  0  0  0  0 
  3 14  1  0  0  0  0 
  3 13  1  0  0  0  0 
  4  3  1  0  0  0  0 
  5  4  1  0  0  0  0 
  6  5  2  0  0  0  0 
  7  5  1  0  0  0  0 
  7 15  1  0  0  0  0 
  9  1  1  0  0  0  0 
 10  1  1  0  0  0  0 
 12  2  1  0  0  0  0 
M  END 
>  <HBA> 
2 
 
>  <HBD> 
1 
 
>  <TPSA> 
37.3 
 
>  <cid> 
19166 
 
>  <dipole> 
4.09 
 
>  <excitation_energy_1> 
4.627 
 
>  <excitation_energy_2> 
5.98 
 
>  <excitation_energy_3> 
6.51 
 
>  <excitation_energy_4> 
6.717 
 
>  <homo_energy> 
-7.383 
 
>  <homo_lumo_gap> 
6.06 
 
>  <logP> 
1.037 
 
>  <lumo_energy> 
-1.322 
 
>  <melting_point> 
34.08 
 
>  <molecular_refractivity> 
27.45 
 
>  <oscillator_strength_1> 
0.0026 
 
>  <oscillator_strength_2> 
0.2157 
 
>  <oscillator_strength_3> 
0.0087 
 
>  <oscillator_strength_4> 
0.0294 
 
>  <open_babel_can_smiles> 
CCC(=C)C(=O)O 
 
>  <mulliken_charges> 
15 
1   -0.445793 
2   -0.404943 
3   -0.317613 
4   0.124102 
5   0.552577 
6   -0.439322 
7   -0.569184 
8   0.146715 
9   0.143271 
10   0.185676 
11   0.163249 
12   0.149962 
13   0.141685 
14   0.161706 
15   0.407913 
 
>  <lowdin_charges> 
15 
1   -0.443277 
2   -0.330155 
3   -0.266572 
4   -0.031198 
5   0.194678 
6   -0.237176 
7   -0.35721 
8   0.152801 
9   0.148004 
10   0.168898 
11   0.17085 
12   0.160207 
13   0.150671 
14   0.160771 
15   0.358708 
 
$$$$ 
 
