PCCDB-ID:  28965 
public computational chemistry database (PCCDB) project, http://pccdb.org 
 
 25 24  0  0  1  0  0  0  0  0999 V2000 
    2.9230    0.5796   -1.3456 C   0  0  0  0  0  0  0  0  0  0  0  0 
    2.0445   -1.2901    1.9952 C   0  0  0  0  0  0  0  0  0  0  0  0 
    7.0475   -3.3181    0.5508 C   0  0  0  0  0  0  0  0  0  0  0  0 
    2.3146   -0.4370   -0.3727 C   0  0  0  0  0  0  0  0  0  0  0  0 
    4.3561   -0.5137    1.2239 C   0  0  0  0  0  0  0  0  0  0  0  0 
    4.9140   -1.8681    0.7777 C   0  0  0  0  0  0  0  0  0  0  0  0 
    2.8279   -0.3354    1.0793 C   0  0  2  0  0  0  0  0  0  0  0  0 
    6.4241   -1.9921    0.9604 C   0  0  0  0  0  0  0  0  0  0  0  0 
    7.0995   -1.0842    1.4075 O   0  0  0  0  0  0  0  0  0  0  0  0 
    2.4472    0.5121   -2.3306 H   0  0  0  0  0  0  0  0  0  0  0  0 
    3.9978    0.4213   -1.4895 H   0  0  0  0  0  0  0  0  0  0  0  0 
    2.7871    1.6054   -0.9811 H   0  0  0  0  0  0  0  0  0  0  0  0 
    0.9737   -1.0546    1.9816 H   0  0  0  0  0  0  0  0  0  0  0  0 
    2.3890   -1.2185    3.0340 H   0  0  0  0  0  0  0  0  0  0  0  0 
    2.1497   -2.3359    1.6802 H   0  0  0  0  0  0  0  0  0  0  0  0 
    6.8584   -3.5200   -0.5111 H   0  0  0  0  0  0  0  0  0  0  0  0 
    6.6011   -4.1455    1.1164 H   0  0  0  0  0  0  0  0  0  0  0  0 
    8.1241   -3.2921    0.7307 H   0  0  0  0  0  0  0  0  0  0  0  0 
    2.4804   -1.4552   -0.7539 H   0  0  0  0  0  0  0  0  0  0  0  0 
    1.2240   -0.3036   -0.3562 H   0  0  0  0  0  0  0  0  0  0  0  0 
    4.8764    0.2751    0.6693 H   0  0  0  0  0  0  0  0  0  0  0  0 
    4.6302   -0.3553    2.2741 H   0  0  0  0  0  0  0  0  0  0  0  0 
    4.6927   -2.0668   -0.2817 H   0  0  0  0  0  0  0  0  0  0  0  0 
    4.4440   -2.6989    1.3240 H   0  0  0  0  0  0  0  0  0  0  0  0 
    2.6137    0.6894    1.4211 H   0  0  0  0  0  0  0  0  0  0  0  0 
  1 12  1  0  0  0  0 
  1  4  1  0  0  0  0 
  2 14  1  0  0  0  0 
  3 18  1  0  0  0  0 
  3  8  1  0  0  0  0 
  3 17  1  0  0  0  0 
  4 20  1  0  0  0  0 
  4  7  1  0  0  0  0 
  5 22  1  0  0  0  0 
  6  8  1  0  0  0  0 
  6  5  1  0  0  0  0 
  6 24  1  0  0  0  0 
  7  5  1  0  0  0  0 
  7 25  1  1  0  0  0 
  7  2  1  0  0  0  0 
  8  9  2  0  0  0  0 
 10  1  1  0  0  0  0 
 11  1  1  0  0  0  0 
 13  2  1  0  0  0  0 
 15  2  1  0  0  0  0 
 16  3  1  0  0  0  0 
 19  4  1  0  0  0  0 
 21  5  1  0  0  0  0 
 23  6  1  0  0  0  0 
M  END 
>  <HBA> 
1 
 
>  <HBD> 
0 
 
>  <TPSA> 
17.07 
 
>  <cid> 
28965 
 
>  <dipole> 
2.61 
 
>  <excitation_energy_1> 
4.435 
 
>  <excitation_energy_2> 
6.056 
 
>  <excitation_energy_3> 
6.649 
 
>  <excitation_energy_4> 
6.778 
 
>  <homo_energy> 
-6.596 
 
>  <homo_lumo_gap> 
6.348 
 
>  <logP> 
2.402 
 
>  <lumo_energy> 
-0.248 
 
>  <melting_point> 
-6.5 
 
>  <molecular_refractivity> 
40.77 
 
>  <oscillator_strength_1> 
0.0001 
 
>  <oscillator_strength_2> 
0.0289 
 
>  <oscillator_strength_3> 
0.0 
 
>  <oscillator_strength_4> 
0.0023 
 
>  <open_babel_can_smiles> 
CC[C@H](CCC(=O)C)C 
 
>  <mulliken_charges> 
25 
1   -0.449684 
2   -0.452013 
3   -0.527722 
4   -0.249622 
5   -0.255652 
6   -0.363113 
7   -0.069805 
8   0.452119 
9   -0.435884 
10   0.142211 
11   0.1461 
12   0.144381 
13   0.141893 
14   0.141456 
15   0.137603 
16   0.166195 
17   0.166115 
18   0.179036 
19   0.125495 
20   0.130252 
21   0.150353 
22   0.144558 
23   0.157452 
24   0.156978 
25   0.121297 
 
>  <lowdin_charges> 
25 
1   -0.444195 
2   -0.443241 
3   -0.47466 
4   -0.274054 
5   -0.275996 
6   -0.315189 
7   -0.123581 
8   0.168232 
9   -0.236707 
10   0.149775 
11   0.145572 
12   0.147101 
13   0.147518 
14   0.147244 
15   0.141815 
16   0.166943 
17   0.168982 
18   0.170642 
19   0.134463 
20   0.139761 
21   0.153761 
22   0.150049 
23   0.158074 
24   0.160524 
25   0.137164 
 
$$$$ 
 
