PCCDB-ID:  17516 
public computational chemistry database (PCCDB) project, http://pccdb.org 
 
 32 32  0  0  0  0  0  0  0  0999 V2000 
    0.7532    0.1060    0.3397 C   0  0  0  0  0  0  0  0  0  0  0  0 
    3.0220   -0.4154    1.3565 C   0  0  0  0  0  0  0  0  0  0  0  0 
    2.6223   -3.9914   -2.7711 C   0  0  0  0  0  0  0  0  0  0  0  0 
    6.0174    2.0588   -5.7597 C   0  0  0  0  0  0  0  0  0  0  0  0 
    2.4858   -1.8819   -1.3732 C   0  0  0  0  0  0  0  0  0  0  0  0 
    3.4898   -1.7537   -3.5581 C   0  0  0  0  0  0  0  0  0  0  0  0 
    3.3257    0.2302   -2.1670 C   0  0  0  0  0  0  0  0  0  0  0  0 
    2.2793    0.1640    0.1380 C   0  0  0  0  0  0  0  0  0  0  0  0 
    2.8717   -2.5161   -2.5568 C   0  0  0  0  0  0  0  0  0  0  0  0 
    2.7032   -0.5112   -1.1607 C   0  0  0  0  0  0  0  0  0  0  0  0 
    3.7029   -0.3979   -3.3534 C   0  0  0  0  0  0  0  0  0  0  0  0 
    3.9108    1.4151   -4.9261 C   0  0  0  0  0  0  0  0  0  0  0  0 
    4.5844    2.2412   -5.6041 N   0  0  0  0  0  0  0  0  0  0  0  0 
    2.5770    1.5600   -4.7484 O   0  0  0  0  0  0  0  0  0  0  0  0 
    4.4074    0.2915   -4.3450 O   0  0  0  0  0  0  0  0  0  0  0  0 
    0.4617    0.6622    1.2385 H   0  0  0  0  0  0  0  0  0  0  0  0 
    0.4070   -0.9273    0.4608 H   0  0  0  0  0  0  0  0  0  0  0  0 
    0.2240    0.5374   -0.5167 H   0  0  0  0  0  0  0  0  0  0  0  0 
    2.7464    0.1266    2.2690 H   0  0  0  0  0  0  0  0  0  0  0  0 
    4.1077   -0.3424    1.2306 H   0  0  0  0  0  0  0  0  0  0  0  0 
    2.7741   -1.4724    1.5101 H   0  0  0  0  0  0  0  0  0  0  0  0 
    2.2264   -4.4647   -1.8673 H   0  0  0  0  0  0  0  0  0  0  0  0 
    3.5435   -4.5166   -3.0505 H   0  0  0  0  0  0  0  0  0  0  0  0 
    1.8990   -4.1598   -3.5791 H   0  0  0  0  0  0  0  0  0  0  0  0 
    6.5114    3.0320   -5.6615 H   0  0  0  0  0  0  0  0  0  0  0  0 
    6.2389    1.6854   -6.7682 H   0  0  0  0  0  0  0  0  0  0  0  0 
    6.4594    1.3645   -5.0340 H   0  0  0  0  0  0  0  0  0  0  0  0 
    2.0056   -2.4732   -0.5971 H   0  0  0  0  0  0  0  0  0  0  0  0 
    3.8081   -2.2045   -4.4936 H   0  0  0  0  0  0  0  0  0  0  0  0 
    3.5163    1.2910   -2.0346 H   0  0  0  0  0  0  0  0  0  0  0  0 
    2.5594    1.2230    0.0565 H   0  0  0  0  0  0  0  0  0  0  0  0 
    2.3550    2.3823   -5.2200 H   0  0  0  0  0  0  0  0  0  0  0  0 
  1 17  1  0  0  0  0 
  1 16  1  0  0  0  0 
  2 21  1  0  0  0  0 
  2 19  1  0  0  0  0 
  3  9  1  0  0  0  0 
  3 22  1  0  0  0  0 
  4 25  1  0  0  0  0 
  4 13  1  0  0  0  0 
  4 27  1  0  0  0  0 
  5 10  1  0  0  0  0 
  5 28  1  0  0  0  0 
  6 11  2  0  0  0  0 
  6  9  1  0  0  0  0 
  7 30  1  0  0  0  0 
  7 10  2  0  0  0  0 
  8  1  1  0  0  0  0 
  8  2  1  0  0  0  0 
  9  5  2  0  0  0  0 
 10  8  1  0  0  0  0 
 11  7  1  0  0  0  0 
 12 14  1  0  0  0  0 
 12 15  1  0  0  0  0 
 13 12  2  0  0  0  0 
 15 11  1  0  0  0  0 
 18  1  1  0  0  0  0 
 20  2  1  0  0  0  0 
 23  3  1  0  0  0  0 
 24  3  1  0  0  0  0 
 26  4  1  0  0  0  0 
 29  6  1  0  0  0  0 
 31  8  1  0  0  0  0 
 32 14  1  0  0  0  0 
M  END 
>  <HBA> 
3 
 
>  <HBD> 
1 
 
>  <TPSA> 
38.33 
 
>  <cid> 
17516 
 
>  <dipole> 
1.6 
 
>  <excitation_energy_1> 
5.12 
 
>  <excitation_energy_2> 
5.632 
 
>  <excitation_energy_3> 
5.822 
 
>  <excitation_energy_4> 
5.896 
 
>  <homo_energy> 
-6.27 
 
>  <homo_lumo_gap> 
6.231 
 
>  <logP> 
3.228 
 
>  <lumo_energy> 
-0.038 
 
>  <melting_point> 
75.01 
 
>  <molecular_refractivity> 
60.68 
 
>  <oscillator_strength_1> 
0.0038 
 
>  <oscillator_strength_2> 
0.0463 
 
>  <oscillator_strength_3> 
0.0004 
 
>  <oscillator_strength_4> 
0.0141 
 
>  <open_babel_can_smiles> 
C/N=C(\Oc1cc(C)cc(c1)C(C)C)/O 
 
>  <mulliken_charges> 
32 
1   -0.439176 
2   -0.438844 
3   -0.530003 
4   -0.323207 
5   -0.237935 
6   -0.217333 
7   -0.220054 
8   -0.162075 
9   0.17095 
10   0.183725 
11   0.366549 
12   0.701418 
13   -0.480244 
14   -0.590466 
15   -0.538307 
16   0.14185 
17   0.143672 
18   0.152491 
19   0.142262 
20   0.150546 
21   0.143852 
22   0.155528 
23   0.163014 
24   0.166136 
25   0.152323 
26   0.153575 
27   0.152575 
28   0.118135 
29   0.132867 
30   0.133397 
31   0.130837 
32   0.421943 
 
>  <lowdin_charges> 
32 
1   -0.441971 
2   -0.438541 
3   -0.442938 
4   -0.353441 
5   -0.185992 
6   -0.186074 
7   -0.188114 
8   -0.115676 
9   0.010837 
10   0.010351 
11   0.107306 
12   0.191443 
13   -0.265207 
14   -0.363111 
15   -0.159543 
16   0.149279 
17   0.146665 
18   0.155095 
19   0.149291 
20   0.151366 
21   0.14628 
22   0.157608 
23   0.161622 
24   0.163197 
25   0.150765 
26   0.150216 
27   0.145009 
28   0.153969 
29   0.165515 
30   0.162043 
31   0.141177 
32   0.371578 
 
$$$$ 
 
