PCCDB-ID:  6454 
public computational chemistry database (PCCDB) project, http://pccdb.org 
 
 31 32  0  0  1  0  0  0  0  0999 V2000 
    2.4850    2.2875   -2.8404 C   0  0  0  0  0  0  0  0  0  0  0  0 
    3.1464    1.1657   -2.5574 C   0  0  0  0  0  0  0  0  0  0  0  0 
    5.4616   -1.7807    1.7794 C   0  0  0  0  0  0  0  0  0  0  0  0 
    6.8950   -1.3210    1.7416 C   0  0  0  0  0  0  0  0  0  0  0  0 
    4.6252   -0.9251    1.1787 C   0  0  0  0  0  0  0  0  0  0  0  0 
    6.8507   -0.0015    0.9190 C   0  0  0  0  0  0  0  0  0  0  0  0 
    3.5087    0.7222   -1.1650 C   0  0  0  0  0  0  0  0  0  0  0  0 
    5.3439    0.2877    0.6143 C   0  0  1  0  0  0  0  0  0  0  0  0 
    5.7204    1.9407   -1.2689 C   0  0  0  0  0  0  0  0  0  0  0  0 
    5.6462   -0.4559   -1.8186 C   0  0  0  0  0  0  0  0  0  0  0  0 
    6.9081    1.0574   -3.0571 C   0  0  0  0  0  0  0  0  0  0  0  0 
    5.0533    0.6152   -0.9025 C   0  0  2  0  0  0  0  0  0  0  0  0 
    6.5581    2.1371   -2.2053 N   0  0  0  0  0  0  0  0  0  0  0  0 
    6.4530   -0.2588   -2.7851 N   0  0  0  0  0  0  0  0  0  0  0  0 
    5.3843    3.0186   -0.5219 O   0  0  0  0  0  0  0  0  0  0  0  0 
    5.2369   -1.7246   -1.6119 O   0  0  0  0  0  0  0  0  0  0  0  0 
    7.6145    1.2595   -4.0190 O   0  0  0  0  0  0  0  0  0  0  0  0 
    2.2462    2.5632   -3.8633 H   0  0  0  0  0  0  0  0  0  0  0  0 
    2.1571    2.9759   -2.0638 H   0  0  0  0  0  0  0  0  0  0  0  0 
    3.4595    0.5074   -3.3670 H   0  0  0  0  0  0  0  0  0  0  0  0 
    5.1527   -2.6942    2.2809 H   0  0  0  0  0  0  0  0  0  0  0  0 
    7.5562   -2.0729    1.2930 H   0  0  0  0  0  0  0  0  0  0  0  0 
    7.2676   -1.1572    2.7618 H   0  0  0  0  0  0  0  0  0  0  0  0 
    3.5437   -1.0315    1.1607 H   0  0  0  0  0  0  0  0  0  0  0  0 
    7.4191   -0.1095   -0.0092 H   0  0  0  0  0  0  0  0  0  0  0  0 
    7.3032    0.8309    1.4636 H   0  0  0  0  0  0  0  0  0  0  0  0 
    3.0691   -0.2634   -0.9700 H   0  0  0  0  0  0  0  0  0  0  0  0 
    3.0657    1.4076   -0.4294 H   0  0  0  0  0  0  0  0  0  0  0  0 
    5.0099    1.1658    1.1871 H   0  0  0  0  0  0  0  0  0  0  0  0 
    4.6976    2.7820    0.1203 H   0  0  0  0  0  0  0  0  0  0  0  0 
    4.8541   -1.8138   -0.7171 H   0  0  0  0  0  0  0  0  0  0  0  0 
  1  2  2  0  0  0  0 
  1 19  1  0  0  0  0 
  2  7  1  0  0  0  0 
  3 21  1  0  0  0  0 
  4  3  1  0  0  0  0 
  4 23  1  0  0  0  0 
  5  3  2  0  0  0  0 
  6 26  1  0  0  0  0 
  6  4  1  0  0  0  0 
  7 27  1  0  0  0  0 
  7 28  1  0  0  0  0 
  8  6  1  0  0  0  0 
  8  5  1  0  0  0  0 
  8 29  1  1  0  0  0 
  9 12  1  0  0  0  0 
  9 15  1  0  0  0  0 
 10 16  1  0  0  0  0 
 10 12  1  0  0  0  0 
 11 14  1  0  0  0  0 
 11 13  2  0  0  0  0 
 12  7  1  6  0  0  0 
 12  8  1  0  0  0  0 
 13  9  2  0  0  0  0 
 14 10  2  0  0  0  0 
 15 30  1  0  0  0  0 
 16 31  1  0  0  0  0 
 17 11  2  0  0  0  0 
 18  1  1  0  0  0  0 
 20  2  1  0  0  0  0 
 22  4  1  0  0  0  0 
 24  5  1  0  0  0  0 
 25  6  1  0  0  0  0 
M  END 
>  <HBA> 
5 
 
>  <HBD> 
2 
 
>  <TPSA> 
75.27 
 
>  <cid> 
6454 
 
>  <dipole> 
10.36 
 
>  <excitation_energy_1> 
3.968 
 
>  <excitation_energy_2> 
4.133 
 
>  <excitation_energy_3> 
5.108 
 
>  <excitation_energy_4> 
5.198 
 
>  <homo_energy> 
-6.757 
 
>  <homo_lumo_gap> 
5.309 
 
>  <logP> 
1.539 
 
>  <lumo_energy> 
-1.448 
 
>  <melting_point> 
151.35 
 
>  <molecular_refractivity> 
68.78 
 
>  <oscillator_strength_1> 
0.0001 
 
>  <oscillator_strength_2> 
0.0001 
 
>  <oscillator_strength_3> 
0.0033 
 
>  <oscillator_strength_4> 
0.0191 
 
>  <open_babel_can_smiles> 
C=CC[C@@]1([C@@H]2CCC=C2)C(=N[C](=[N]=C1O)=O)O 
 
>  <mulliken_charges> 
31 
1   -0.325955 
2   -0.05612 
3   -0.083925 
4   -0.313947 
5   -0.199522 
6   -0.310505 
7   -0.322397 
8   -0.12827 
9   0.565239 
10   0.524466 
11   0.617768 
12   -0.146607 
13   -0.473065 
14   -0.469483 
15   -0.578234 
16   -0.589488 
17   -0.434679 
18   0.161305 
19   0.139477 
20   0.164453 
21   0.1551 
22   0.174793 
23   0.166561 
24   0.153705 
25   0.181169 
26   0.167772 
27   0.162342 
28   0.134427 
29   0.132454 
30   0.413722 
31   0.417442 
 
>  <lowdin_charges> 
31 
1   -0.315946 
2   -0.160855 
3   -0.13303 
4   -0.277167 
5   -0.215779 
6   -0.28692 
7   -0.269795 
8   -0.127207 
9   0.149126 
10   0.143268 
11   0.168096 
12   -0.062429 
13   -0.181494 
14   -0.187438 
15   -0.331025 
16   -0.340309 
17   -0.211762 
18   0.169673 
19   0.156599 
20   0.169743 
21   0.16751 
22   0.165826 
23   0.160745 
24   0.162639 
25   0.166819 
26   0.164499 
27   0.159265 
28   0.146192 
29   0.144275 
30   0.354584 
31   0.352295 
 
$$$$ 
 
