PCCDB-ID:  65432 
public computational chemistry database (PCCDB) project, http://pccdb.org 
 
 12 12  0  0  0  0  0  0  0  0999 V2000 
    0.6869    1.1724   -0.0992 C   0  0  0  0  0  0  0  0  0  0  0  0 
   -0.7374   -1.0317    0.4483 C   0  0  0  0  0  0  0  0  0  0  0  0 
    1.4351   -0.1495   -0.0007 C   0  0  0  0  0  0  0  0  0  0  0  0 
   -1.3824    0.0295   -0.4317 C   0  0  0  0  0  0  0  0  0  0  0  0 
    2.6332   -0.2355   -0.0611 O   0  0  0  0  0  0  0  0  0  0  0  0 
   -2.5230   -0.0302   -0.8084 O   0  0  0  0  0  0  0  0  0  0  0  0 
   -0.5824    1.0708   -0.7651 O   0  0  0  0  0  0  0  0  0  0  0  0 
    0.6565   -1.2447    0.1718 O   0  0  0  0  0  0  0  0  0  0  0  0 
    1.2869    1.8702   -0.6818 H   0  0  0  0  0  0  0  0  0  0  0  0 
    0.5467    1.5906    0.9073 H   0  0  0  0  0  0  0  0  0  0  0  0 
   -1.2368   -1.9830    0.2697 H   0  0  0  0  0  0  0  0  0  0  0  0 
   -0.8705   -0.7627    1.5055 H   0  0  0  0  0  0  0  0  0  0  0  0 
  1  3  1  0  0  0  0 
  1 10  1  0  0  0  0 
  2 12  1  0  0  0  0 
  3  8  1  0  0  0  0 
  4  2  1  0  0  0  0 
  5  3  2  0  0  0  0 
  6  4  2  0  0  0  0 
  7  4  1  0  0  0  0 
  7  1  1  0  0  0  0 
  8  2  1  0  0  0  0 
  9  1  1  0  0  0  0 
 11  2  1  0  0  0  0 
M  END 
>  <HBA> 
4 
 
>  <HBD> 
0 
 
>  <TPSA> 
52.6 
 
>  <cid> 
65432 
 
>  <dipole> 
2.39 
 
>  <excitation_energy_1> 
5.459 
 
>  <excitation_energy_2> 
5.463 
 
>  <excitation_energy_3> 
6.343 
 
>  <excitation_energy_4> 
6.382 
 
>  <homo_energy> 
-7.932 
 
>  <homo_lumo_gap> 
7.266 
 
>  <logP> 
-0.914 
 
>  <lumo_energy> 
-0.667 
 
>  <melting_point> 
22.23 
 
>  <molecular_refractivity> 
21.8 
 
>  <oscillator_strength_1> 
0.0016 
 
>  <oscillator_strength_2> 
0.0006 
 
>  <oscillator_strength_3> 
0.0213 
 
>  <oscillator_strength_4> 
0.0003 
 
>  <open_babel_can_smiles> 
O=C1OCC(=O)OC1 
 
>  <mulliken_charges> 
12 
1   -0.158977 
2   -0.159028 
3   0.593612 
4   0.593589 
5   -0.423743 
6   -0.42376 
7   -0.422822 
8   -0.422834 
9   0.218782 
10   0.19315 
11   0.218826 
12   0.193207 
 
>  <lowdin_charges> 
12 
1   -0.161408 
2   -0.160057 
3   0.175146 
4   0.177311 
5   -0.211897 
6   -0.211968 
7   -0.171071 
8   -0.170926 
9   0.196318 
10   0.172036 
11   0.194949 
12   0.171567 
 
$$$$ 
 
