PCCDB-ID:  19871 
public computational chemistry database (PCCDB) project, http://pccdb.org 
 
 24 23  0  0  1  0  0  0  0  0999 V2000 
    2.7870   -0.8155   -2.4997 C   0  0  0  0  0  0  0  0  0  0  0  0 
    3.0085    3.1748    0.6029 C   0  0  0  0  0  0  0  0  0  0  0  0 
    3.2417    3.5773   -1.8586 C   0  0  0  0  0  0  0  0  0  0  0  0 
    0.9790    3.0857   -0.8729 C   0  0  0  0  0  0  0  0  0  0  0  0 
    2.3741    0.6532   -2.3475 C   0  0  0  0  0  0  0  0  0  0  0  0 
    2.7548    1.2385   -0.9775 C   0  0  1  0  0  0  0  0  0  0  0  0 
    2.4847    2.7658   -0.7885 C   0  0  0  0  0  0  0  0  0  0  0  0 
    2.1559    0.4665    0.0725 O   0  0  0  0  0  0  0  0  0  0  0  0 
    2.4661   -1.2170   -3.4674 H   0  0  0  0  0  0  0  0  0  0  0  0 
    2.3488   -1.4296   -1.7075 H   0  0  0  0  0  0  0  0  0  0  0  0 
    3.8766   -0.9255   -2.4366 H   0  0  0  0  0  0  0  0  0  0  0  0 
    2.8102    4.2362    0.7948 H   0  0  0  0  0  0  0  0  0  0  0  0 
    4.0923    3.0190    0.6757 H   0  0  0  0  0  0  0  0  0  0  0  0 
    2.5335    2.5826    1.3895 H   0  0  0  0  0  0  0  0  0  0  0  0 
    3.1869    4.6487   -1.6315 H   0  0  0  0  0  0  0  0  0  0  0  0 
    2.8271    3.4347   -2.8623 H   0  0  0  0  0  0  0  0  0  0  0  0 
    4.3038    3.3018   -1.8893 H   0  0  0  0  0  0  0  0  0  0  0  0 
    0.8037    4.1524   -0.6907 H   0  0  0  0  0  0  0  0  0  0  0  0 
    0.4073    2.5354   -0.1150 H   0  0  0  0  0  0  0  0  0  0  0  0 
    0.5597    2.8495   -1.8581 H   0  0  0  0  0  0  0  0  0  0  0  0 
    1.2871    0.7451   -2.4916 H   0  0  0  0  0  0  0  0  0  0  0  0 
    2.8380    1.2463   -3.1440 H   0  0  0  0  0  0  0  0  0  0  0  0 
    3.8329    1.0852   -0.8309 H   0  0  0  0  0  0  0  0  0  0  0  0 
    1.1979    0.4617   -0.0840 H   0  0  0  0  0  0  0  0  0  0  0  0 
  1 11  1  0  0  0  0 
  1  5  1  0  0  0  0 
  1 10  1  0  0  0  0 
  2 13  1  0  0  0  0 
  2 12  1  0  0  0  0 
  2 14  1  0  0  0  0 
  3 15  1  0  0  0  0 
  3  7  1  0  0  0  0 
  4  7  1  0  0  0  0 
  4 18  1  0  0  0  0 
  4 19  1  0  0  0  0 
  5  6  1  0  0  0  0 
  6 23  1  1  0  0  0 
  6  7  1  0  0  0  0 
  6  8  1  0  0  0  0 
  7  2  1  0  0  0  0 
  9  1  1  0  0  0  0 
 16  3  1  0  0  0  0 
 17  3  1  0  0  0  0 
 20  4  1  0  0  0  0 
 21  5  1  0  0  0  0 
 22  5  1  0  0  0  0 
 24  8  1  0  0  0  0 
M  END 
>  <HBA> 
1 
 
>  <HBD> 
1 
 
>  <TPSA> 
20.23 
 
>  <cid> 
19871 
 
>  <dipole> 
1.56 
 
>  <excitation_energy_1> 
6.414 
 
>  <excitation_energy_2> 
6.962 
 
>  <excitation_energy_3> 
7.222 
 
>  <excitation_energy_4> 
7.242 
 
>  <homo_energy> 
-7.021 
 
>  <homo_lumo_gap> 
8.836 
 
>  <logP> 
1.803 
 
>  <lumo_energy> 
1.815 
 
>  <melting_point> 
10.08 
 
>  <molecular_refractivity> 
36.66 
 
>  <oscillator_strength_1> 
0.0007 
 
>  <oscillator_strength_2> 
0.0165 
 
>  <oscillator_strength_3> 
0.0013 
 
>  <oscillator_strength_4> 
0.0111 
 
>  <open_babel_can_smiles> 
CC[C@@H](C(C)(C)C)O 
 
>  <mulliken_charges> 
24 
1   -0.438902 
2   -0.443271 
3   -0.454832 
4   -0.468248 
5   -0.286604 
6   0.14924 
7   0.092278 
8   -0.630531 
9   0.138418 
10   0.156658 
11   0.142281 
12   0.131494 
13   0.134745 
14   0.159854 
15   0.141671 
16   0.14239 
17   0.139567 
18   0.14641 
19   0.131041 
20   0.142665 
21   0.122853 
22   0.139674 
23   0.125062 
24   0.386088 
 
>  <lowdin_charges> 
24 
1   -0.444137 
2   -0.441915 
3   -0.440887 
4   -0.450531 
5   -0.293109 
6   -0.001968 
7   -0.001714 
8   -0.458373 
9   0.14773 
10   0.15539 
11   0.145725 
12   0.142259 
13   0.144008 
14   0.158633 
15   0.148453 
16   0.146192 
17   0.145864 
18   0.151517 
19   0.143487 
20   0.146223 
21   0.134164 
22   0.149949 
23   0.137691 
24   0.335348 
 
$$$$ 
 
