PCCDB-ID:  41838 
public computational chemistry database (PCCDB) project, http://pccdb.org 
 
 47 46  0  0  1  0  0  0  0  0999 V2000 
   14.2687    4.2040   -4.2150 C   0  0  0  0  0  0  0  0  0  0  0  0 
    4.4406   -3.7516   -5.6563 C   0  0  0  0  0  0  0  0  0  0  0  0 
    6.4173   -5.3002   -5.4103 C   0  0  0  0  0  0  0  0  0  0  0  0 
    6.8753   -1.6697   -1.2419 C   0  0  0  0  0  0  0  0  0  0  0  0 
   14.8485    3.1057   -3.3157 C   0  0  0  0  0  0  0  0  0  0  0  0 
   13.8135    2.3929   -2.4298 C   0  0  0  0  0  0  0  0  0  0  0  0 
   12.7778    1.5591   -3.1977 C   0  0  0  0  0  0  0  0  0  0  0  0 
   11.8122    0.7962   -2.2810 C   0  0  0  0  0  0  0  0  0  0  0  0 
   10.7861   -0.0517   -3.0440 C   0  0  0  0  0  0  0  0  0  0  0  0 
    9.8237   -0.8242   -2.1316 C   0  0  0  0  0  0  0  0  0  0  0  0 
    8.8205   -1.6886   -2.9090 C   0  0  0  0  0  0  0  0  0  0  0  0 
    6.2480   -3.1833   -3.9772 C   0  0  0  0  0  0  0  0  0  0  0  0 
    7.1722   -3.6488   -2.8408 C   0  0  0  0  0  0  0  0  0  0  0  0 
    5.4817   -4.3230   -4.6819 C   0  0  0  0  0  0  0  0  0  0  0  0 
    7.8749   -2.5339   -2.0293 C   0  0  2  0  0  0  0  0  0  0  0  0 
   15.0613    4.7103   -4.7780 H   0  0  0  0  0  0  0  0  0  0  0  0 
   13.7455    4.9647   -3.6215 H   0  0  0  0  0  0  0  0  0  0  0  0 
   13.5543    3.8027   -4.9425 H   0  0  0  0  0  0  0  0  0  0  0  0 
    4.9253   -3.1680   -6.4499 H   0  0  0  0  0  0  0  0  0  0  0  0 
    3.7320   -3.0900   -5.1434 H   0  0  0  0  0  0  0  0  0  0  0  0 
    3.8650   -4.5511   -6.1381 H   0  0  0  0  0  0  0  0  0  0  0  0 
    5.8465   -6.0917   -5.9107 H   0  0  0  0  0  0  0  0  0  0  0  0 
    7.1217   -5.7851   -4.7260 H   0  0  0  0  0  0  0  0  0  0  0  0 
    7.0028   -4.7780   -6.1789 H   0  0  0  0  0  0  0  0  0  0  0  0 
    7.3882   -0.9844   -0.5582 H   0  0  0  0  0  0  0  0  0  0  0  0 
    6.2057   -2.2953   -0.6391 H   0  0  0  0  0  0  0  0  0  0  0  0 
    6.2514   -1.0607   -1.9073 H   0  0  0  0  0  0  0  0  0  0  0  0 
   15.6185    3.5468   -2.6682 H   0  0  0  0  0  0  0  0  0  0  0  0 
   15.3660    2.3602   -3.9368 H   0  0  0  0  0  0  0  0  0  0  0  0 
   13.2929    3.1382   -1.8097 H   0  0  0  0  0  0  0  0  0  0  0  0 
   14.3458    1.7345   -1.7281 H   0  0  0  0  0  0  0  0  0  0  0  0 
   13.3035    0.8413   -3.8458 H   0  0  0  0  0  0  0  0  0  0  0  0 
   12.1967    2.2063   -3.8689 H   0  0  0  0  0  0  0  0  0  0  0  0 
   11.2836    1.5103   -1.6318 H   0  0  0  0  0  0  0  0  0  0  0  0 
   12.3913    0.1473   -1.6073 H   0  0  0  0  0  0  0  0  0  0  0  0 
   11.3174   -0.7633   -3.6937 H   0  0  0  0  0  0  0  0  0  0  0  0 
   10.2059    0.5973   -3.7167 H   0  0  0  0  0  0  0  0  0  0  0  0 
    9.2889   -0.1115   -1.4887 H   0  0  0  0  0  0  0  0  0  0  0  0 
   10.4067   -1.4665   -1.4546 H   0  0  0  0  0  0  0  0  0  0  0  0 
    9.3843   -2.3648   -3.5690 H   0  0  0  0  0  0  0  0  0  0  0  0 
    8.2278   -1.0423   -3.5723 H   0  0  0  0  0  0  0  0  0  0  0  0 
    6.8266   -2.6305   -4.7318 H   0  0  0  0  0  0  0  0  0  0  0  0 
    5.5113   -2.4727   -3.5788 H   0  0  0  0  0  0  0  0  0  0  0  0 
    7.9489   -4.3087   -3.2504 H   0  0  0  0  0  0  0  0  0  0  0  0 
    6.5861   -4.2657   -2.1428 H   0  0  0  0  0  0  0  0  0  0  0  0 
    4.9404   -4.8875   -3.9065 H   0  0  0  0  0  0  0  0  0  0  0  0 
    8.5042   -3.0531   -1.2891 H   0  0  0  0  0  0  0  0  0  0  0  0 
  1 17  1  0  0  0  0 
  1  5  1  0  0  0  0 
  2 20  1  0  0  0  0 
  2 14  1  0  0  0  0 
  3 23  1  0  0  0  0 
  3 14  1  0  0  0  0 
  4 26  1  0  0  0  0 
  4 25  1  0  0  0  0 
  5 28  1  0  0  0  0 
  5  6  1  0  0  0  0 
  6 30  1  0  0  0  0 
  6 31  1  0  0  0  0 
  7  6  1  0  0  0  0 
  7  8  1  0  0  0  0 
  8 34  1  0  0  0  0 
  8 35  1  0  0  0  0 
  9  8  1  0  0  0  0 
  9 10  1  0  0  0  0 
 10 38  1  0  0  0  0 
 10 39  1  0  0  0  0 
 11 10  1  0  0  0  0 
 11 15  1  0  0  0  0 
 12 43  1  0  0  0  0 
 12 13  1  0  0  0  0 
 13 45  1  0  0  0  0 
 13 15  1  0  0  0  0 
 14 12  1  0  0  0  0 
 14 46  1  0  0  0  0 
 15 47  1  1  0  0  0 
 15  4  1  0  0  0  0 
 16  1  1  0  0  0  0 
 18  1  1  0  0  0  0 
 19  2  1  0  0  0  0 
 21  2  1  0  0  0  0 
 22  3  1  0  0  0  0 
 24  3  1  0  0  0  0 
 27  4  1  0  0  0  0 
 29  5  1  0  0  0  0 
 32  7  1  0  0  0  0 
 33  7  1  0  0  0  0 
 36  9  1  0  0  0  0 
 37  9  1  0  0  0  0 
 40 11  1  0  0  0  0 
 41 11  1  0  0  0  0 
 42 12  1  0  0  0  0 
 44 13  1  0  0  0  0 
M  END 
>  <HBA> 
0 
 
>  <HBD> 
0 
 
>  <TPSA> 
0.0 
 
>  <cid> 
41838 
 
>  <dipole> 
0.13 
 
>  <excitation_energy_1> 
7.398 
 
>  <excitation_energy_2> 
7.598 
 
>  <excitation_energy_3> 
7.609 
 
>  <excitation_energy_4> 
7.645 
 
>  <homo_energy> 
-7.753 
 
>  <homo_lumo_gap> 
10.006 
 
>  <logP> 
5.809 
 
>  <lumo_energy> 
2.253 
 
>  <melting_point> 
-32.54 
 
>  <molecular_refractivity> 
74.22 
 
>  <oscillator_strength_1> 
0.0082 
 
>  <oscillator_strength_2> 
0.0175 
 
>  <oscillator_strength_3> 
0.0019 
 
>  <oscillator_strength_4> 
0.0029 
 
>  <open_babel_can_smiles> 
CCCCCCCC[C@H](CCC(C)C)C 
 
>  <mulliken_charges> 
47 
1   -0.442844 
2   -0.442206 
3   -0.444803 
4   -0.453825 
5   -0.248013 
6   -0.248526 
7   -0.252302 
8   -0.252445 
9   -0.252916 
10   -0.259418 
11   -0.254897 
12   -0.253289 
13   -0.266943 
14   -0.064723 
15   -0.067182 
16   0.141091 
17   0.139842 
18   0.146059 
19   0.1374 
20   0.138226 
21   0.138032 
22   0.1385 
23   0.144838 
24   0.136682 
25   0.144227 
26   0.138193 
27   0.142099 
28   0.129451 
29   0.128709 
30   0.12514 
31   0.126033 
32   0.125014 
33   0.131035 
34   0.126244 
35   0.125906 
36   0.125846 
37   0.126291 
38   0.130903 
39   0.125648 
40   0.123621 
41   0.128439 
42   0.128028 
43   0.128301 
44   0.128899 
45   0.121669 
46   0.118589 
47   0.115379 
 
>  <lowdin_charges> 
47 
1   -0.450651 
2   -0.447751 
3   -0.450443 
4   -0.453354 
5   -0.275582 
6   -0.278329 
7   -0.279241 
8   -0.276746 
9   -0.276705 
10   -0.278781 
11   -0.280031 
12   -0.282506 
13   -0.280858 
14   -0.12118 
15   -0.124923 
16   0.150367 
17   0.146617 
18   0.148145 
19   0.145769 
20   0.147589 
21   0.147933 
22   0.148601 
23   0.149699 
24   0.145623 
25   0.150184 
26   0.148709 
27   0.146892 
28   0.142215 
29   0.139527 
30   0.138016 
31   0.140682 
32   0.137937 
33   0.140337 
34   0.138501 
35   0.138264 
36   0.138131 
37   0.138608 
38   0.140141 
39   0.138162 
40   0.139432 
41   0.139622 
42   0.139594 
43   0.141338 
44   0.140533 
45   0.138497 
46   0.134831 
47   0.136587 
 
$$$$ 
 
