PCCDB-ID:  19562 
public computational chemistry database (PCCDB) project, http://pccdb.org 
 
 23 23  0  0  0  0  0  0  0  0999 V2000 
    1.0068   -0.0211    0.0461 C   0  0  0  0  0  0  0  0  0  0  0  0 
    5.3829    2.4924    0.0271 C   0  0  0  0  0  0  0  0  0  0  0  0 
    2.6342   -2.6024    0.0364 C   0  0  0  0  0  0  0  0  0  0  0  0 
    6.7922   -0.2138    0.0203 C   0  0  0  0  0  0  0  0  0  0  0  0 
    3.2404    1.1560    0.0375 C   0  0  0  0  0  0  0  0  0  0  0  0 
    2.5184   -0.0392    0.0393 C   0  0  0  0  0  0  0  0  0  0  0  0 
    4.6365    1.1779    0.0297 C   0  0  0  0  0  0  0  0  0  0  0  0 
    3.2694   -1.2299    0.0343 C   0  0  0  0  0  0  0  0  0  0  0  0 
    5.2866   -0.0709    0.0257 C   0  0  0  0  0  0  0  0  0  0  0  0 
    4.6094   -1.2271    0.0280 N   0  0  0  0  0  0  0  0  0  0  0  0 
    0.6330    1.0078    0.0475 H   0  0  0  0  0  0  0  0  0  0  0  0 
    0.5936   -0.5229    0.9297 H   0  0  0  0  0  0  0  0  0  0  0  0 
    0.5859   -0.5232   -0.8338 H   0  0  0  0  0  0  0  0  0  0  0  0 
    4.6832    3.3344    0.0272 H   0  0  0  0  0  0  0  0  0  0  0  0 
    6.0253    2.5985   -0.8558 H   0  0  0  0  0  0  0  0  0  0  0  0 
    6.0281    2.6005    0.9077 H   0  0  0  0  0  0  0  0  0  0  0  0 
    1.5426   -2.5670    0.0457 H   0  0  0  0  0  0  0  0  0  0  0  0 
    2.9690   -3.1706    0.9119 H   0  0  0  0  0  0  0  0  0  0  0  0 
    2.9541   -3.1669   -0.8470 H   0  0  0  0  0  0  0  0  0  0  0  0 
    7.3121    0.7467    0.0079 H   0  0  0  0  0  0  0  0  0  0  0  0 
    7.1121   -0.7915   -0.8544 H   0  0  0  0  0  0  0  0  0  0  0  0 
    7.1204   -0.7724    0.9044 H   0  0  0  0  0  0  0  0  0  0  0  0 
    2.6975    2.1002    0.0429 H   0  0  0  0  0  0  0  0  0  0  0  0 
  1 11  1  0  0  0  0 
  1 12  1  0  0  0  0 
  2 14  1  0  0  0  0 
  2  7  1  0  0  0  0 
  2 16  1  0  0  0  0 
  3 17  1  0  0  0  0 
  3 18  1  0  0  0  0 
  4  9  1  0  0  0  0 
  4 22  1  0  0  0  0 
  5  6  1  0  0  0  0 
  5 23  1  0  0  0  0 
  6  1  1  0  0  0  0 
  7  5  2  0  0  0  0 
  8  3  1  0  0  0  0 
  8  6  2  0  0  0  0 
  9 10  2  0  0  0  0 
  9  7  1  0  0  0  0 
 10  8  1  0  0  0  0 
 13  1  1  0  0  0  0 
 15  2  1  0  0  0  0 
 19  3  1  0  0  0  0 
 20  4  1  0  0  0  0 
 21  4  1  0  0  0  0 
M  END 
>  <HBA> 
1 
 
>  <HBD> 
0 
 
>  <TPSA> 
12.89 
 
>  <cid> 
19562 
 
>  <dipole> 
1.63 
 
>  <excitation_energy_1> 
4.83 
 
>  <excitation_energy_2> 
5.034 
 
>  <excitation_energy_3> 
5.253 
 
>  <excitation_energy_4> 
5.76 
 
>  <homo_energy> 
-6.125 
 
>  <homo_lumo_gap> 
5.889 
 
>  <logP> 
2.315 
 
>  <lumo_energy> 
-0.237 
 
>  <melting_point> 
37.17 
 
>  <molecular_refractivity> 
44.1 
 
>  <oscillator_strength_1> 
0.0046 
 
>  <oscillator_strength_2> 
0.0875 
 
>  <oscillator_strength_3> 
0.0 
 
>  <oscillator_strength_4> 
0.0 
 
>  <open_babel_can_smiles> 
Cc1nc(C)c(cc1C)C 
 
>  <mulliken_charges> 
23 
1   -0.540694 
2   -0.540585 
3   -0.501587 
4   -0.501527 
5   -0.211575 
6   0.144807 
7   0.145058 
8   0.241715 
9   0.241846 
10   -0.520925 
11   0.15398 
12   0.163412 
13   0.163438 
14   0.153933 
15   0.163417 
16   0.163392 
17   0.144616 
18   0.168369 
19   0.168277 
20   0.14456 
21   0.168377 
22   0.168236 
23   0.119459 
 
>  <lowdin_charges> 
23 
1   -0.443464 
2   -0.443684 
3   -0.447415 
4   -0.450114 
5   -0.152764 
6   -0.031658 
7   -0.033101 
8   0.042542 
9   0.044212 
10   -0.166861 
11   0.155452 
12   0.16075 
13   0.160812 
14   0.156757 
15   0.160489 
16   0.160501 
17   0.1513 
18   0.167771 
19   0.167646 
20   0.153124 
21   0.167797 
22   0.167641 
23   0.152267 
 
$$$$ 
 
