PCCDB-ID:  66962 
public computational chemistry database (PCCDB) project, http://pccdb.org 
 
 11 11  0  0  0  0  0  0  0  0999 V2000 
   -0.4008    1.2087    0.1118 C   0  0  0  0  0  0  0  0  0  0  0  0 
    0.9692    0.5686    0.0252 C   0  0  0  0  0  0  0  0  0  0  0  0 
   -1.2786   -0.0371   -0.1161 C   0  0  0  0  0  0  0  0  0  0  0  0 
    0.9505   -0.7097    0.1248 N   0  0  0  0  0  0  0  0  0  0  0  0 
   -0.3728   -1.1225    0.3250 N   0  0  0  0  0  0  0  0  0  0  0  0 
   -0.5680    2.0014   -0.6238 H   0  0  0  0  0  0  0  0  0  0  0  0 
   -0.5598    1.6424    1.1101 H   0  0  0  0  0  0  0  0  0  0  0  0 
    1.9139    1.0980   -0.0420 H   0  0  0  0  0  0  0  0  0  0  0  0 
   -1.5393   -0.1338   -1.1822 H   0  0  0  0  0  0  0  0  0  0  0  0 
   -2.1999   -0.0403    0.4721 H   0  0  0  0  0  0  0  0  0  0  0  0 
   -0.5164   -2.0157   -0.1358 H   0  0  0  0  0  0  0  0  0  0  0  0 
  1  7  1  0  0  0  0 
  2  1  1  0  0  0  0 
  2  4  1  0  0  0  0 
  3  1  1  0  0  0  0 
  3  5  1  0  0  0  0 
  3 10  1  0  0  0  0 
  4  5  1  0  0  0  0 
  6  1  1  0  0  0  0 
  8  2  1  0  0  0  0 
  9  3  1  0  0  0  0 
 11  5  1  0  0  0  0 
M  RAD  2   2   2   4   2 
M  END 
>  <HBA> 
2 
 
>  <HBD> 
1 
 
>  <TPSA> 
24.39 
 
>  <cid> 
66962 
 
>  <dipole> 
2.33 
 
>  <excitation_energy_1> 
5.257 
 
>  <excitation_energy_2> 
5.496 
 
>  <excitation_energy_3> 
5.868 
 
>  <excitation_energy_4> 
6.051 
 
>  <homo_energy> 
-5.782 
 
>  <homo_lumo_gap> 
6.177 
 
>  <logP> 
-0.27 
 
>  <lumo_energy> 
0.395 
 
>  <melting_point> 
43.05 
 
>  <molecular_refractivity> 
28.15 
 
>  <oscillator_strength_1> 
0.0028 
 
>  <oscillator_strength_2> 
0.115 
 
>  <oscillator_strength_3> 
0.0029 
 
>  <oscillator_strength_4> 
0.0015 
 
>  <open_babel_can_smiles> 
C1[CH][N]NC1 
 
>  <mulliken_charges> 
11 
1   -0.335916 
2   0.045108 
3   -0.139905 
4   -0.226953 
5   -0.424461 
6   0.156156 
7   0.163962 
8   0.146248 
9   0.138509 
10   0.156406 
11   0.320846 
 
>  <lowdin_charges> 
11 
1   -0.297638 
2   -0.15124 
3   -0.209899 
4   -0.098242 
5   -0.279359 
6   0.159728 
7   0.158213 
8   0.163972 
9   0.132928 
10   0.154816 
11   0.266721 
 
$$$$ 
 
