PCCDB-ID:  28782 
public computational chemistry database (PCCDB) project, http://pccdb.org 
 
 26 25  0  0  1  0  0  0  0  0999 V2000 
    1.6938   -0.6476   -0.2406 C   0  0  0  0  0  0  0  0  0  0  0  0 
    0.6801   -1.7557    0.1409 C   0  0  0  0  0  0  0  0  0  0  0  0 
    2.3145    0.0501    0.9873 C   0  0  0  0  0  0  0  0  0  0  0  0 
   -0.7839   -1.4869   -0.2592 C   0  0  2  0  0  0  0  0  0  0  0  0 
   -1.4281   -0.2947    0.4900 C   0  0  0  0  0  0  0  0  0  0  0  0 
    2.7774    2.3653    0.1233 C   0  0  0  0  0  0  0  0  0  0  0  0 
   -1.6817   -2.6513   -0.1071 N   0  0  0  0  0  0  0  0  0  0  0  0 
    3.6396    3.0348   -0.5627 N   0  0  0  0  0  0  0  0  0  0  0  0 
    1.4861    2.7627    0.4550 N   0  0  0  0  0  0  0  0  0  0  0  0 
    3.1973    1.1618    0.6881 N   0  0  0  0  0  0  0  0  0  0  0  0 
   -0.8396    0.7280    0.7739 O   0  0  0  0  0  0  0  0  0  0  0  0 
   -2.7209   -0.4728    0.7675 O   0  0  0  0  0  0  0  0  0  0  0  0 
    1.2086    0.1108   -0.8632 H   0  0  0  0  0  0  0  0  0  0  0  0 
    2.5011   -1.0749   -0.8481 H   0  0  0  0  0  0  0  0  0  0  0  0 
    0.7160   -1.9430    1.2244 H   0  0  0  0  0  0  0  0  0  0  0  0 
    0.9639   -2.7005   -0.3387 H   0  0  0  0  0  0  0  0  0  0  0  0 
    2.8964   -0.6791    1.5648 H   0  0  0  0  0  0  0  0  0  0  0  0 
    1.5159    0.3946    1.6513 H   0  0  0  0  0  0  0  0  0  0  0  0 
   -0.8106   -1.2039   -1.3204 H   0  0  0  0  0  0  0  0  0  0  0  0 
   -1.4099   -3.2039    0.7057 H   0  0  0  0  0  0  0  0  0  0  0  0 
   -1.6294   -3.2664   -0.9151 H   0  0  0  0  0  0  0  0  0  0  0  0 
    3.2528    3.9373   -0.8447 H   0  0  0  0  0  0  0  0  0  0  0  0 
    1.1280    3.5116   -0.1213 H   0  0  0  0  0  0  0  0  0  0  0  0 
    0.7831    2.0569    0.6484 H   0  0  0  0  0  0  0  0  0  0  0  0 
    4.1102    0.9177    0.3239 H   0  0  0  0  0  0  0  0  0  0  0  0 
   -2.9194   -1.3956    0.4558 H   0  0  0  0  0  0  0  0  0  0  0  0 
  1  2  1  0  0  0  0 
  1  3  1  0  0  0  0 
  2 15  1  0  0  0  0 
  3 17  1  0  0  0  0 
  3 18  1  0  0  0  0 
  4 19  1  6  0  0  0 
  4  7  1  0  0  0  0 
  4  2  1  0  0  0  0 
  4  5  1  0  0  0  0 
  5 12  1  0  0  0  0 
  5 11  2  0  0  0  0 
  6  9  2  0  0  0  0 
  6 10  1  0  0  0  0 
  7 20  1  0  0  0  0 
  8  6  1  0  0  0  0 
  9 24  1  0  0  0  0 
 10  3  1  0  0  0  0 
 13  1  1  0  0  0  0 
 14  1  1  0  0  0  0 
 16  2  1  0  0  0  0 
 21  7  1  0  0  0  0 
 22  8  1  0  0  0  0 
 23  9  1  0  0  0  0 
 25 10  1  0  0  0  0 
 26 12  1  0  0  0  0 
M  RAD  1   8   2 
M  END 
>  <HBA> 
5 
 
>  <HBD> 
4 
 
>  <TPSA> 
132.16 
 
>  <cid> 
28782 
 
>  <dipole> 
7.91 
 
>  <excitation_energy_1> 
4.193 
 
>  <excitation_energy_2> 
4.878 
 
>  <excitation_energy_3> 
4.992 
 
>  <excitation_energy_4> 
5.114 
 
>  <homo_energy> 
-5.257 
 
>  <homo_lumo_gap> 
5.089 
 
>  <logP> 
-2.701 
 
>  <lumo_energy> 
-0.169 
 
>  <melting_point> 
211.12 
 
>  <molecular_refractivity> 
43.26 
 
>  <oscillator_strength_1> 
0.0001 
 
>  <oscillator_strength_2> 
0.0018 
 
>  <oscillator_strength_3> 
0.001 
 
>  <oscillator_strength_4> 
0.0012 
 
>  <open_babel_can_smiles> 
[NH]C(=[NH2])NCCC[C@H](C(=O)O)N 
 
>  <mulliken_charges> 
26 
1   -0.255147 
2   -0.273401 
3   -0.169898 
4   -0.095944 
5   0.614907 
6   0.578301 
7   -0.774012 
8   -0.67281 
9   -0.787539 
10   -0.564782 
11   -0.471657 
12   -0.568025 
13   0.153814 
14   0.136925 
15   0.145287 
16   0.139268 
17   0.141649 
18   0.173282 
19   0.183 
20   0.32658 
21   0.329788 
22   0.255586 
23   0.31477 
24   0.380432 
25   0.321956 
26   0.437669 
 
>  <lowdin_charges> 
26 
1   -0.297507 
2   -0.281415 
3   -0.212732 
4   -0.107757 
5   0.186425 
6   0.132197 
7   -0.545071 
8   -0.510813 
9   -0.514436 
10   -0.301714 
11   -0.269488 
12   -0.342015 
13   0.153673 
14   0.146448 
15   0.145901 
16   0.147743 
17   0.148246 
18   0.157503 
19   0.167582 
20   0.271247 
21   0.276227 
22   0.240185 
23   0.277371 
24   0.290184 
25   0.280564 
26   0.36145 
 
$$$$ 
 
