PCCDB-ID:  10365 
public computational chemistry database (PCCDB) project, http://pccdb.org 
 
 17 17  0  0  0  0  0  0  0  0999 V2000 
   -1.3037   -0.0005    0.1636 C   0  0  0  0  0  0  0  0  0  0  0  0 
   -0.6594    1.2341    0.2459 C   0  0  0  0  0  0  0  0  0  0  0  0 
    0.8405   -0.9904   -0.2352 C   0  0  0  0  0  0  0  0  0  0  0  0 
   -0.5400   -1.1427   -0.0957 C   0  0  0  0  0  0  0  0  0  0  0  0 
    1.3878    0.2926   -0.1258 C   0  0  0  0  0  0  0  0  0  0  0  0 
   -1.2514   -2.4687   -0.1736 C   0  0  0  0  0  0  0  0  0  0  0  0 
    2.8759    0.4232   -0.2781 C   0  0  0  0  0  0  0  0  0  0  0  0 
    0.6608    1.3916    0.1044 N   0  0  0  0  0  0  0  0  0  0  0  0 
   -2.3642   -2.6323    0.2638 O   0  0  0  0  0  0  0  0  0  0  0  0 
   -0.5855   -3.4918   -0.7607 O   0  0  0  0  0  0  0  0  0  0  0  0 
    3.3224    1.6834   -0.1463 O   0  0  0  0  0  0  0  0  0  0  0  0 
    3.6034   -0.5250   -0.5018 O   0  0  0  0  0  0  0  0  0  0  0  0 
   -2.3762   -0.0916    0.2955 H   0  0  0  0  0  0  0  0  0  0  0  0 
   -1.2303    2.1401    0.4374 H   0  0  0  0  0  0  0  0  0  0  0  0 
    1.5238   -1.8190   -0.3946 H   0  0  0  0  0  0  0  0  0  0  0  0 
    0.2424   -3.1824   -1.1634 H   0  0  0  0  0  0  0  0  0  0  0  0 
    4.2897    1.6356   -0.2660 H   0  0  0  0  0  0  0  0  0  0  0  0 
  1  2  1  0  0  0  0 
  1 13  1  0  0  0  0 
  2 14  1  0  0  0  0 
  3  5  2  0  0  0  0 
  3  4  1  0  0  0  0 
  4  1  2  0  0  0  0 
  5  8  1  0  0  0  0 
  6  4  1  0  0  0  0 
  6  9  2  0  0  0  0 
  7 11  1  0  0  0  0 
  7  5  1  0  0  0  0 
  8  2  2  0  0  0  0 
 10  6  1  0  0  0  0 
 12  7  2  0  0  0  0 
 15  3  1  0  0  0  0 
 16 10  1  0  0  0  0 
 17 11  1  0  0  0  0 
M  END 
>  <HBA> 
5 
 
>  <HBD> 
2 
 
>  <TPSA> 
87.49 
 
>  <cid> 
10365 
 
>  <dipole> 
2.61 
 
>  <excitation_energy_1> 
3.99 
 
>  <excitation_energy_2> 
4.441 
 
>  <excitation_energy_3> 
4.587 
 
>  <excitation_energy_4> 
4.805 
 
>  <homo_energy> 
-7.6 
 
>  <homo_lumo_gap> 
5.189 
 
>  <logP> 
0.478 
 
>  <lumo_energy> 
-2.411 
 
>  <melting_point> 
202.48 
 
>  <molecular_refractivity> 
38.16 
 
>  <oscillator_strength_1> 
0.0016 
 
>  <oscillator_strength_2> 
0.0015 
 
>  <oscillator_strength_3> 
0.0008 
 
>  <oscillator_strength_4> 
0.0001 
 
>  <open_babel_can_smiles> 
OC(=O)c1ccnc(c1)C(=O)O 
 
>  <mulliken_charges> 
17 
1   -0.153575 
2   0.037968 
3   -0.211615 
4   0.071094 
5   0.225521 
6   0.569392 
7   0.565976 
8   -0.44363 
9   -0.434643 
10   -0.566929 
11   -0.54898 
12   -0.472396 
13   0.185715 
14   0.163499 
15   0.173843 
16   0.421912 
17   0.416846 
 
>  <lowdin_charges> 
17 
1   -0.128632 
2   -0.079689 
3   -0.158102 
4   -0.031047 
5   0.013149 
6   0.191884 
7   0.19091 
8   -0.110019 
9   -0.224659 
10   -0.340254 
11   -0.321043 
12   -0.271355 
13   0.188386 
14   0.169655 
15   0.182073 
16   0.363319 
17   0.365425 
 
$$$$ 
 
