PCCDB-ID:  23235 
public computational chemistry database (PCCDB) project, http://pccdb.org 
 
 33 33  0  0  0  0  0  0  0  0999 V2000 
    0.3714   -0.6439   -1.1143 C   0  0  0  0  0  0  0  0  0  0  0  0 
    1.5855   -0.1387   -1.9003 C   0  0  0  0  0  0  0  0  0  0  0  0 
    2.5527    0.6953   -1.0506 C   0  0  0  0  0  0  0  0  0  0  0  0 
    3.7707    1.2024   -1.8330 C   0  0  0  0  0  0  0  0  0  0  0  0 
    4.2422    7.0366   -6.0198 C   0  0  0  0  0  0  0  0  0  0  0  0 
    4.4480    5.6624   -6.1639 C   0  0  0  0  0  0  0  0  0  0  0  0 
    4.4081    7.6423   -4.7714 C   0  0  0  0  0  0  0  0  0  0  0  0 
    4.7237    2.0515   -0.9826 C   0  0  0  0  0  0  0  0  0  0  0  0 
    4.8195    4.8912   -5.0638 C   0  0  0  0  0  0  0  0  0  0  0  0 
    4.7784    6.8754   -3.6697 C   0  0  0  0  0  0  0  0  0  0  0  0 
    5.9412    2.5689   -1.7435 C   0  0  0  0  0  0  0  0  0  0  0  0 
    4.9862    5.4964   -3.8102 C   0  0  0  0  0  0  0  0  0  0  0  0 
    5.3812    4.7257   -2.5959 C   0  0  0  0  0  0  0  0  0  0  0  0 
    5.5297    5.2179   -1.4935 O   0  0  0  0  0  0  0  0  0  0  0  0 
    5.5618    3.4097   -2.8594 O   0  0  0  0  0  0  0  0  0  0  0  0 
   -0.2999   -1.2334   -1.7491 H   0  0  0  0  0  0  0  0  0  0  0  0 
   -0.2086    0.1906   -0.7012 H   0  0  0  0  0  0  0  0  0  0  0  0 
    0.6785   -1.2794   -0.2745 H   0  0  0  0  0  0  0  0  0  0  0  0 
    1.2442    0.4636   -2.7542 H   0  0  0  0  0  0  0  0  0  0  0  0 
    2.1261   -0.9947   -2.3291 H   0  0  0  0  0  0  0  0  0  0  0  0 
    2.8928    0.0947   -0.1935 H   0  0  0  0  0  0  0  0  0  0  0  0 
    2.0124    1.5534   -0.6238 H   0  0  0  0  0  0  0  0  0  0  0  0 
    3.4321    1.7938   -2.6938 H   0  0  0  0  0  0  0  0  0  0  0  0 
    4.3204    0.3441   -2.2480 H   0  0  0  0  0  0  0  0  0  0  0  0 
    3.9530    7.6350   -6.8798 H   0  0  0  0  0  0  0  0  0  0  0  0 
    4.3191    5.1914   -7.1346 H   0  0  0  0  0  0  0  0  0  0  0  0 
    4.2486    8.7111   -4.6585 H   0  0  0  0  0  0  0  0  0  0  0  0 
    5.0954    1.4589   -0.1341 H   0  0  0  0  0  0  0  0  0  0  0  0 
    4.1901    2.9080   -0.5525 H   0  0  0  0  0  0  0  0  0  0  0  0 
    4.9818    3.8244   -5.1684 H   0  0  0  0  0  0  0  0  0  0  0  0 
    4.9132    7.3231   -2.6906 H   0  0  0  0  0  0  0  0  0  0  0  0 
    6.4997    1.7485   -2.2038 H   0  0  0  0  0  0  0  0  0  0  0  0 
    6.6015    3.1384   -1.0854 H   0  0  0  0  0  0  0  0  0  0  0  0 
  1 17  1  0  0  0  0 
  1 18  1  0  0  0  0 
  2  1  1  0  0  0  0 
  2  3  1  0  0  0  0 
  3 22  1  0  0  0  0 
  3 21  1  0  0  0  0 
  4  3  1  0  0  0  0 
  4  8  1  0  0  0  0 
  5  7  1  0  0  0  0 
  6  5  2  0  0  0  0 
  6  9  1  0  0  0  0 
  7 27  1  0  0  0  0 
  7 10  2  0  0  0  0 
  8 29  1  0  0  0  0 
  8 28  1  0  0  0  0 
  9 12  2  0  0  0  0 
 10 31  1  0  0  0  0 
 11 33  1  0  0  0  0 
 11  8  1  0  0  0  0 
 12 10  1  0  0  0  0 
 12 13  1  0  0  0  0 
 13 14  2  0  0  0  0 
 15 13  1  0  0  0  0 
 15 11  1  0  0  0  0 
 16  1  1  0  0  0  0 
 19  2  1  0  0  0  0 
 20  2  1  0  0  0  0 
 23  4  1  0  0  0  0 
 24  4  1  0  0  0  0 
 25  5  1  0  0  0  0 
 26  6  1  0  0  0  0 
 30  9  1  0  0  0  0 
 32 11  1  0  0  0  0 
M  END 
>  <HBA> 
2 
 
>  <HBD> 
0 
 
>  <TPSA> 
26.3 
 
>  <cid> 
23235 
 
>  <dipole> 
1.87 
 
>  <excitation_energy_1> 
4.85 
 
>  <excitation_energy_2> 
4.922 
 
>  <excitation_energy_3> 
5.386 
 
>  <excitation_energy_4> 
6.09 
 
>  <homo_energy> 
-6.977 
 
>  <homo_lumo_gap> 
5.812 
 
>  <logP> 
3.424 
 
>  <lumo_energy> 
-1.165 
 
>  <melting_point> 
25.94 
 
>  <molecular_refractivity> 
61.76 
 
>  <oscillator_strength_1> 
0.0005 
 
>  <oscillator_strength_2> 
0.0172 
 
>  <oscillator_strength_3> 
0.2756 
 
>  <oscillator_strength_4> 
0.0146 
 
>  <open_babel_can_smiles> 
CCCCCCOC(=O)c1ccccc1 
 
>  <mulliken_charges> 
33 
1   -0.441556 
2   -0.24715 
3   -0.246529 
4   -0.253294 
5   -0.117151 
6   -0.136973 
7   -0.138532 
8   -0.28249 
9   -0.158943 
10   -0.152198 
11   -0.049957 
12   0.04762 
13   0.596084 
14   -0.493672 
15   -0.481048 
16   0.141781 
17   0.14233 
18   0.141131 
19   0.131475 
20   0.129516 
21   0.126168 
22   0.130507 
23   0.14323 
24   0.124707 
25   0.136444 
26   0.135814 
27   0.137478 
28   0.136238 
29   0.161547 
30   0.156325 
31   0.16312 
32   0.147228 
33   0.170751 
 
>  <lowdin_charges> 
33 
1   -0.447357 
2   -0.273624 
3   -0.275755 
4   -0.278821 
5   -0.141812 
6   -0.157475 
7   -0.153989 
8   -0.288027 
9   -0.137662 
10   -0.130553 
11   -0.133587 
12   -0.045758 
13   0.199013 
14   -0.274644 
15   -0.195261 
16   0.150715 
17   0.147705 
18   0.146804 
19   0.140179 
20   0.139346 
21   0.13755 
22   0.140235 
23   0.14561 
24   0.137638 
25   0.161739 
26   0.160421 
27   0.159657 
28   0.149654 
29   0.156964 
30   0.170206 
31   0.176575 
32   0.151313 
33   0.163001 
 
$$$$ 
 
