PCCDB-ID:  8080 
public computational chemistry database (PCCDB) project, http://pccdb.org 
 
 14 14  0  0  0  0  0  0  0  0999 V2000 
   -1.0441    1.0719   -0.2162 C   0  0  0  0  0  0  0  0  0  0  0  0 
   -1.3321   -0.3966   -0.0271 C   0  0  0  0  0  0  0  0  0  0  0  0 
    0.3911    1.3784    0.2432 C   0  0  0  0  0  0  0  0  0  0  0  0 
   -0.3607   -1.2829    0.2208 C   0  0  0  0  0  0  0  0  0  0  0  0 
    1.3366    0.2826   -0.2459 C   0  0  0  0  0  0  0  0  0  0  0  0 
    0.9764   -1.0081    0.2653 O   0  0  0  0  0  0  0  0  0  0  0  0 
   -1.7592    1.6770    0.3571 H   0  0  0  0  0  0  0  0  0  0  0  0 
   -1.1789    1.3660   -1.2684 H   0  0  0  0  0  0  0  0  0  0  0  0 
   -2.3585   -0.7503   -0.0528 H   0  0  0  0  0  0  0  0  0  0  0  0 
    0.4328    1.4131    1.3388 H   0  0  0  0  0  0  0  0  0  0  0  0 
    0.7331    2.3513   -0.1293 H   0  0  0  0  0  0  0  0  0  0  0  0 
   -0.5436   -2.3341    0.4238 H   0  0  0  0  0  0  0  0  0  0  0  0 
    2.3655    0.4494    0.0841 H   0  0  0  0  0  0  0  0  0  0  0  0 
    1.3260    0.2352   -1.3451 H   0  0  0  0  0  0  0  0  0  0  0  0 
  1  2  1  0  0  0  0 
  1  3  1  0  0  0  0 
  1  7  1  0  0  0  0 
  2  4  2  0  0  0  0 
  3 10  1  0  0  0  0 
  4  6  1  0  0  0  0 
  4 12  1  0  0  0  0 
  5 13  1  0  0  0  0 
  5  3  1  0  0  0  0 
  5  6  1  0  0  0  0 
  8  1  1  0  0  0  0 
  9  2  1  0  0  0  0 
 11  3  1  0  0  0  0 
 14  5  1  0  0  0  0 
M  END 
>  <HBA> 
1 
 
>  <HBD> 
0 
 
>  <TPSA> 
9.23 
 
>  <cid> 
8080 
 
>  <dipole> 
1.25 
 
>  <excitation_energy_1> 
5.316 
 
>  <excitation_energy_2> 
5.837 
 
>  <excitation_energy_3> 
6.006 
 
>  <excitation_energy_4> 
6.063 
 
>  <homo_energy> 
-5.717 
 
>  <homo_lumo_gap> 
6.931 
 
>  <logP> 
1.31 
 
>  <lumo_energy> 
1.214 
 
>  <melting_point> 
-2.48 
 
>  <molecular_refractivity> 
24.65 
 
>  <oscillator_strength_1> 
0.0121 
 
>  <oscillator_strength_2> 
0.0158 
 
>  <oscillator_strength_3> 
0.0265 
 
>  <oscillator_strength_4> 
0.0049 
 
>  <open_babel_can_smiles> 
C1COC=CC1 
 
>  <mulliken_charges> 
14 
1   -0.288724 
2   -0.172121 
3   -0.294847 
4   0.116856 
5   -0.033083 
6   -0.459005 
7   0.14465 
8   0.143689 
9   0.123873 
10   0.154443 
11   0.13795 
12   0.137295 
13   0.148954 
14   0.140071 
 
>  <lowdin_charges> 
14 
1   -0.271716 
2   -0.249049 
3   -0.287961 
4   -0.054255 
5   -0.122575 
6   -0.214821 
7   0.152926 
8   0.144367 
9   0.158607 
10   0.149966 
11   0.15089 
12   0.156303 
13   0.151105 
14   0.136213 
 
$$$$ 
 
