PCCDB-ID:  18923 
public computational chemistry database (PCCDB) project, http://pccdb.org 
 
 20 21  0  0  0  0  0  0  0  0999 V2000 
   -1.4378   -0.0057    0.0813 C   0  0  0  0  0  0  0  0  0  0  0  0 
   -0.7339    1.1966    0.1822 C   0  0  0  0  0  0  0  0  0  0  0  0 
   -0.7398   -1.2012   -0.0994 C   0  0  0  0  0  0  0  0  0  0  0  0 
    0.6560    1.2049    0.1004 C   0  0  0  0  0  0  0  0  0  0  0  0 
    0.6510   -1.1941   -0.1856 C   0  0  0  0  0  0  0  0  0  0  0  0 
    3.6203   -1.0260   -0.6558 C   0  0  0  0  0  0  0  0  0  0  0  0 
    5.0004   -0.8636   -0.6851 C   0  0  0  0  0  0  0  0  0  0  0  0 
    4.7876    1.2320    0.1204 C   0  0  0  0  0  0  0  0  0  0  0  0 
    1.3690    0.0095   -0.0914 C   0  0  0  0  0  0  0  0  0  0  0  0 
    2.8503    0.0489   -0.1841 C   0  0  0  0  0  0  0  0  0  0  0  0 
    5.6110    0.2634   -0.2960 N   0  0  0  0  0  0  0  0  0  0  0  0 
    3.4584    1.1901    0.1993 N   0  0  0  0  0  0  0  0  0  0  0  0 
   -2.5224   -0.0120    0.1472 H   0  0  0  0  0  0  0  0  0  0  0  0 
   -1.2697    2.1310    0.3257 H   0  0  0  0  0  0  0  0  0  0  0  0 
   -1.2780   -2.1426   -0.1684 H   0  0  0  0  0  0  0  0  0  0  0  0 
    1.2131    2.1312    0.1826 H   0  0  0  0  0  0  0  0  0  0  0  0 
    1.1746   -2.1375   -0.3057 H   0  0  0  0  0  0  0  0  0  0  0  0 
    3.1708   -1.9486   -1.0044 H   0  0  0  0  0  0  0  0  0  0  0  0 
    5.6458   -1.6662   -1.0391 H   0  0  0  0  0  0  0  0  0  0  0  0 
    5.2577    2.1631    0.4328 H   0  0  0  0  0  0  0  0  0  0  0  0 
  1 13  1  0  0  0  0 
  1  2  2  0  0  0  0 
  2 14  1  0  0  0  0 
  3  1  1  0  0  0  0 
  4  2  1  0  0  0  0 
  4 16  1  0  0  0  0 
  5  3  2  0  0  0  0 
  5  9  1  0  0  0  0 
  6 10  1  0  0  0  0 
  7  6  2  0  0  0  0 
  7 11  1  0  0  0  0 
  8 12  1  0  0  0  0 
  8 20  1  0  0  0  0 
  9  4  2  0  0  0  0 
 10  9  1  0  0  0  0 
 10 12  2  0  0  0  0 
 11  8  2  0  0  0  0 
 15  3  1  0  0  0  0 
 17  5  1  0  0  0  0 
 18  6  1  0  0  0  0 
 19  7  1  0  0  0  0 
M  END 
>  <HBA> 
2 
 
>  <HBD> 
0 
 
>  <TPSA> 
25.78 
 
>  <cid> 
18923 
 
>  <dipole> 
2.65 
 
>  <excitation_energy_1> 
4.044 
 
>  <excitation_energy_2> 
4.584 
 
>  <excitation_energy_3> 
4.591 
 
>  <excitation_energy_4> 
4.641 
 
>  <homo_energy> 
-6.653 
 
>  <homo_lumo_gap> 
5.04 
 
>  <logP> 
2.144 
 
>  <lumo_energy> 
-1.614 
 
>  <melting_point> 
71.6 
 
>  <molecular_refractivity> 
47.47 
 
>  <oscillator_strength_1> 
0.0034 
 
>  <oscillator_strength_2> 
0.1637 
 
>  <oscillator_strength_3> 
0.2779 
 
>  <oscillator_strength_4> 
0.0078 
 
>  <open_babel_can_smiles> 
c1ccc(cc1)c1ccncn1 
 
>  <mulliken_charges> 
20 
1   -0.119883 
2   -0.133321 
3   -0.136634 
4   -0.158017 
5   -0.177972 
6   -0.162309 
7   0.04809 
8   0.173495 
9   0.098462 
10   0.259626 
11   -0.389135 
12   -0.460177 
13   0.135459 
14   0.136687 
15   0.134688 
16   0.164614 
17   0.13231 
18   0.147815 
19   0.152404 
20   0.153799 
 
>  <lowdin_charges> 
20 
1   -0.142849 
2   -0.154043 
3   -0.155821 
4   -0.13823 
5   -0.154264 
6   -0.19825 
7   -0.063343 
8   -0.036572 
9   -0.01816 
10   0.079103 
11   -0.162698 
12   -0.164706 
13   0.158598 
14   0.161329 
15   0.160355 
16   0.177376 
17   0.158329 
18   0.169508 
19   0.163358 
20   0.16098 
 
$$$$ 
 
