PCCDB-ID:  15124 
public computational chemistry database (PCCDB) project, http://pccdb.org 
 
 31 32  0  0  0  0  0  0  0  0999 V2000 
    6.6004   -1.1760    1.2723 C   0  0  0  0  0  0  0  0  0  0  0  0 
    4.4347   -0.3311    1.8520 C   0  0  0  0  0  0  0  0  0  0  0  0 
    6.9841    1.6230   -4.7686 C   0  0  0  0  0  0  0  0  0  0  0  0 
    6.2867    1.3346   -3.6024 C   0  0  0  0  0  0  0  0  0  0  0  0 
    4.5639    1.2963   -0.7505 C   0  0  0  0  0  0  0  0  0  0  0  0 
    5.7287    0.7336    0.0890 C   0  0  0  0  0  0  0  0  0  0  0  0 
    6.6349    4.0234   -4.4724 C   0  0  0  0  0  0  0  0  0  0  0  0 
    4.7441    3.7813   -1.3884 C   0  0  0  0  0  0  0  0  0  0  0  0 
    4.9826    2.4511   -1.6154 C   0  0  0  0  0  0  0  0  0  0  0  0 
    7.1577    2.9573   -5.1975 C   0  0  0  0  0  0  0  0  0  0  0  0 
    5.7495    2.3834   -2.8400 C   0  0  0  0  0  0  0  0  0  0  0  0 
    5.9376    3.7168   -3.3005 C   0  0  0  0  0  0  0  0  0  0  0  0 
    5.3142    4.5472   -2.3959 N   0  0  0  0  0  0  0  0  0  0  0  0 
    5.4003   -0.5153    0.7767 N   0  0  0  0  0  0  0  0  0  0  0  0 
    7.8452    3.2584   -6.3476 O   0  0  0  0  0  0  0  0  0  0  0  0 
    6.3329   -2.1412    1.7170 H   0  0  0  0  0  0  0  0  0  0  0  0 
    7.1426   -0.5873    2.0397 H   0  0  0  0  0  0  0  0  0  0  0  0 
    7.2901   -1.3641    0.4423 H   0  0  0  0  0  0  0  0  0  0  0  0 
    4.2093   -1.3004    2.3100 H   0  0  0  0  0  0  0  0  0  0  0  0 
    3.4974    0.0759    1.4621 H   0  0  0  0  0  0  0  0  0  0  0  0 
    4.7988    0.3474    2.6505 H   0  0  0  0  0  0  0  0  0  0  0  0 
    7.4047    0.8150   -5.3648 H   0  0  0  0  0  0  0  0  0  0  0  0 
    6.1594    0.3011   -3.2909 H   0  0  0  0  0  0  0  0  0  0  0  0 
    3.7451    1.6153   -0.0952 H   0  0  0  0  0  0  0  0  0  0  0  0 
    4.1696    0.4782   -1.3678 H   0  0  0  0  0  0  0  0  0  0  0  0 
    6.0791    1.5152    0.7941 H   0  0  0  0  0  0  0  0  0  0  0  0 
    6.5680    0.5267   -0.5849 H   0  0  0  0  0  0  0  0  0  0  0  0 
    6.7774    5.0401   -4.8247 H   0  0  0  0  0  0  0  0  0  0  0  0 
    4.2029    4.2567   -0.5814 H   0  0  0  0  0  0  0  0  0  0  0  0 
    5.2743    5.5521   -2.4573 H   0  0  0  0  0  0  0  0  0  0  0  0 
    8.1453    2.4308   -6.7531 H   0  0  0  0  0  0  0  0  0  0  0  0 
  1 16  1  0  0  0  0 
  1 17  1  0  0  0  0 
  2 19  1  0  0  0  0 
  2 21  1  0  0  0  0 
  3  4  1  0  0  0  0 
  4 23  1  0  0  0  0 
  4 11  2  0  0  0  0 
  5 24  1  0  0  0  0 
  5  6  1  0  0  0  0 
  6 14  1  0  0  0  0 
  6 26  1  0  0  0  0 
  7 12  2  0  0  0  0 
  8 29  1  0  0  0  0 
  9  8  2  0  0  0  0 
  9  5  1  0  0  0  0 
 10  3  2  0  0  0  0 
 10  7  1  0  0  0  0 
 11  9  1  0  0  0  0 
 12 11  1  0  0  0  0 
 12 13  1  0  0  0  0 
 13  8  1  0  0  0  0 
 14  1  1  0  0  0  0 
 14  2  1  0  0  0  0 
 15 10  1  0  0  0  0 
 18  1  1  0  0  0  0 
 20  2  1  0  0  0  0 
 22  3  1  0  0  0  0 
 25  5  1  0  0  0  0 
 27  6  1  0  0  0  0 
 28  7  1  0  0  0  0 
 30 13  1  0  0  0  0 
 31 15  1  0  0  0  0 
M  END 
>  <HBA> 
2 
 
>  <HBD> 
2 
 
>  <TPSA> 
39.26 
 
>  <cid> 
15124 
 
>  <dipole> 
1.09 
 
>  <excitation_energy_1> 
4.366 
 
>  <excitation_energy_2> 
4.503 
 
>  <excitation_energy_3> 
4.648 
 
>  <excitation_energy_4> 
4.767 
 
>  <homo_energy> 
-5.012 
 
>  <homo_lumo_gap> 
5.012 
 
>  <logP> 
1.978 
 
>  <lumo_energy> 
0.0 
 
>  <melting_point> 
141.38 
 
>  <molecular_refractivity> 
62.6 
 
>  <oscillator_strength_1> 
0.0788 
 
>  <oscillator_strength_2> 
0.0018 
 
>  <oscillator_strength_3> 
0.0005 
 
>  <oscillator_strength_4> 
0.0214 
 
>  <open_babel_can_smiles> 
CN(CCc1c[nH]c2c1ccc(c2)O)C 
 
>  <mulliken_charges> 
31 
1   -0.292779 
2   -0.299934 
3   -0.209557 
4   -0.216877 
5   -0.351385 
6   -0.10858 
7   -0.216038 
8   -0.009333 
9   0.073593 
10   0.347604 
11   0.079033 
12   0.321693 
13   -0.699995 
14   -0.366388 
15   -0.654311 
16   0.14512 
17   0.115815 
18   0.147618 
19   0.146636 
20   0.15319 
21   0.113877 
22   0.109117 
23   0.13166 
24   0.137483 
25   0.151487 
26   0.108074 
27   0.142279 
28   0.128613 
29   0.142306 
30   0.324993 
31   0.404986 
 
>  <lowdin_charges> 
31 
1   -0.357548 
2   -0.359357 
3   -0.231432 
4   -0.151699 
5   -0.275009 
6   -0.201863 
7   -0.223368 
8   -0.146699 
9   -0.057086 
10   0.102145 
11   -0.05045 
12   0.041547 
13   -0.199231 
14   -0.185092 
15   -0.388958 
16   0.147597 
17   0.12032 
18   0.149737 
19   0.149533 
20   0.150268 
21   0.118964 
22   0.151043 
23   0.158006 
24   0.1483 
25   0.155119 
26   0.117449 
27   0.147564 
28   0.163582 
29   0.16292 
30   0.288118 
31   0.35558 
 
$$$$ 
 
