PCCDB-ID:  49205 
public computational chemistry database (PCCDB) project, http://pccdb.org 
 
 35 35  0  0  1  0  0  0  0  0999 V2000 
    0.9348   -1.8393    0.9101 C   0  0  0  0  0  0  0  0  0  0  0  0 
    7.9227    0.5006   -2.7100 C   0  0  0  0  0  0  0  0  0  0  0  0 
    7.3771   -2.4261   -3.3663 C   0  0  0  0  0  0  0  0  0  0  0  0 
    2.1923   -1.1674    0.3499 C   0  0  0  0  0  0  0  0  0  0  0  0 
    6.7291   -0.2874   -2.2208 C   0  0  0  0  0  0  0  0  0  0  0  0 
    3.0363   -2.1161   -0.5134 C   0  0  0  0  0  0  0  0  0  0  0  0 
    4.2905   -1.4242   -1.0666 C   0  0  0  0  0  0  0  0  0  0  0  0 
    6.4695   -1.5791   -2.4987 C   0  0  0  0  0  0  0  0  0  0  0  0 
    4.4111   -2.8491   -3.1368 C   0  0  0  0  0  0  0  0  0  0  0  0 
    5.6732   -3.5250   -1.1431 C   0  0  0  0  0  0  0  0  0  0  0  0 
    4.2108   -4.9667   -2.2173 C   0  0  0  0  0  0  0  0  0  0  0  0 
    5.2233   -2.3114   -1.9579 C   0  0  2  0  0  0  0  0  0  0  0  0 
    3.9523   -4.0292   -3.2553 N   0  0  0  0  0  0  0  0  0  0  0  0 
    5.2210   -4.7089   -1.2495 N   0  0  0  0  0  0  0  0  0  0  0  0 
    4.1373   -1.9570   -4.1118 O   0  0  0  0  0  0  0  0  0  0  0  0 
    6.6123   -3.2823   -0.2048 O   0  0  0  0  0  0  0  0  0  0  0  0 
    3.5895   -6.0035   -2.1756 O   0  0  0  0  0  0  0  0  0  0  0  0 
    0.3519   -1.1410    1.5207 H   0  0  0  0  0  0  0  0  0  0  0  0 
    1.1918   -2.6998    1.5389 H   0  0  0  0  0  0  0  0  0  0  0  0 
    0.2861   -2.2007    0.1036 H   0  0  0  0  0  0  0  0  0  0  0  0 
    7.8937    1.5229   -2.3237 H   0  0  0  0  0  0  0  0  0  0  0  0 
    7.9526    0.5629   -3.8046 H   0  0  0  0  0  0  0  0  0  0  0  0 
    8.8709    0.0534   -2.3883 H   0  0  0  0  0  0  0  0  0  0  0  0 
    8.2452   -1.8651   -3.7175 H   0  0  0  0  0  0  0  0  0  0  0  0 
    6.8432   -2.8041   -4.2467 H   0  0  0  0  0  0  0  0  0  0  0  0 
    7.7425   -3.3039   -2.8196 H   0  0  0  0  0  0  0  0  0  0  0  0 
    2.8054   -0.7866    1.1792 H   0  0  0  0  0  0  0  0  0  0  0  0 
    1.9047   -0.2898   -0.2467 H   0  0  0  0  0  0  0  0  0  0  0  0 
    6.0355    0.2648   -1.5927 H   0  0  0  0  0  0  0  0  0  0  0  0 
    2.4214   -2.4952   -1.3393 H   0  0  0  0  0  0  0  0  0  0  0  0 
    3.3226   -2.9898    0.0853 H   0  0  0  0  0  0  0  0  0  0  0  0 
    4.8845   -1.0397   -0.2281 H   0  0  0  0  0  0  0  0  0  0  0  0 
    3.9844   -0.5509   -1.6563 H   0  0  0  0  0  0  0  0  0  0  0  0 
    4.6279   -1.1350   -3.9309 H   0  0  0  0  0  0  0  0  0  0  0  0 
    6.9269   -2.3660   -0.3071 H   0  0  0  0  0  0  0  0  0  0  0  0 
  1 18  1  0  0  0  0 
  1 19  1  0  0  0  0 
  2 23  1  0  0  0  0 
  2 21  1  0  0  0  0 
  2  5  1  0  0  0  0 
  3 26  1  0  0  0  0 
  3  8  1  0  0  0  0 
  4  1  1  0  0  0  0 
  4 27  1  0  0  0  0 
  5 29  1  0  0  0  0 
  6 31  1  0  0  0  0 
  6  4  1  0  0  0  0 
  7  6  1  0  0  0  0 
  7 32  1  0  0  0  0 
  8  5  2  0  0  0  0 
  9 12  1  0  0  0  0 
 10 16  1  0  0  0  0 
 11 17  2  0  0  0  0 
 11 14  1  0  0  0  0 
 12  8  1  6  0  0  0 
 12 10  1  0  0  0  0 
 12  7  1  0  0  0  0 
 13  9  2  0  0  0  0 
 13 11  2  0  0  0  0 
 14 10  2  0  0  0  0 
 15 34  1  0  0  0  0 
 15  9  1  0  0  0  0 
 20  1  1  0  0  0  0 
 22  2  1  0  0  0  0 
 24  3  1  0  0  0  0 
 25  3  1  0  0  0  0 
 28  4  1  0  0  0  0 
 30  6  1  0  0  0  0 
 33  7  1  0  0  0  0 
 35 16  1  0  0  0  0 
M  END 
>  <HBA> 
5 
 
>  <HBD> 
2 
 
>  <TPSA> 
75.27 
 
>  <cid> 
49205 
 
>  <dipole> 
10.16 
 
>  <excitation_energy_1> 
4.012 
 
>  <excitation_energy_2> 
4.227 
 
>  <excitation_energy_3> 
5.106 
 
>  <excitation_energy_4> 
5.46 
 
>  <homo_energy> 
-6.781 
 
>  <homo_lumo_gap> 
5.369 
 
>  <logP> 
2.153 
 
>  <lumo_energy> 
-1.412 
 
>  <melting_point> 
152.79 
 
>  <molecular_refractivity> 
71.37 
 
>  <oscillator_strength_1> 
0.0003 
 
>  <oscillator_strength_2> 
0.0003 
 
>  <oscillator_strength_3> 
0.0383 
 
>  <oscillator_strength_4> 
0.0004 
 
>  <open_babel_can_smiles> 
CCCC[C@@]1(/C(=C/C)/C)C(=N[C](=[N]=C1O)=O)O 
 
>  <mulliken_charges> 
35 
1   -0.444861 
2   -0.494208 
3   -0.535596 
4   -0.25266 
5   -0.187202 
6   -0.28252 
7   -0.27665 
8   0.08262 
9   0.543898 
10   0.543868 
11   0.617272 
12   -0.169171 
13   -0.471872 
14   -0.47197 
15   -0.580071 
16   -0.579981 
17   -0.431643 
18   0.145834 
19   0.153128 
20   0.152962 
21   0.165492 
22   0.175631 
23   0.175516 
24   0.168958 
25   0.189491 
26   0.189502 
27   0.132424 
28   0.132329 
29   0.152068 
30   0.167192 
31   0.167328 
32   0.146169 
33   0.145979 
34   0.415431 
35   0.415313 
 
>  <lowdin_charges> 
35 
1   -0.44626 
2   -0.446788 
3   -0.457421 
4   -0.271801 
5   -0.185879 
6   -0.288193 
7   -0.271111 
8   -0.045904 
9   0.143286 
10   0.143628 
11   0.172978 
12   -0.060572 
13   -0.185283 
14   -0.185025 
15   -0.330872 
16   -0.329881 
17   -0.210484 
18   0.15347 
19   0.153202 
20   0.153562 
21   0.163911 
22   0.166094 
23   0.167875 
24   0.168002 
25   0.175771 
26   0.175719 
27   0.140168 
28   0.139627 
29   0.163787 
30   0.15859 
31   0.158235 
32   0.149207 
33   0.148646 
34   0.360754 
35   0.358963 
 
$$$$ 
 
