PCCDB-ID:  40893 
public computational chemistry database (PCCDB) project, http://pccdb.org 
 
 19 19  0  0  1  0  0  0  0  0999 V2000 
    0.8185   -0.0638    0.0156 C   0  0  0  0  0  0  0  0  0  0  0  0 
    3.9643   -2.1709   -0.0311 C   0  0  0  0  0  0  0  0  0  0  0  0 
    2.4264    1.7194    1.9339 C   0  0  0  0  0  0  0  0  0  0  0  0 
    2.3420   -0.0981   -0.0109 C   0  0  2  0  0  0  0  0  0  0  0  0 
    3.0435   -1.2505    0.7490 C   0  0  2  0  0  0  0  0  0  0  0  0 
    3.1527    0.8296    0.9404 C   0  0  2  0  0  0  0  0  0  0  0  0 
    3.7755   -0.3142    1.5838 O   0  0  0  0  0  0  0  0  0  0  0  0 
    0.4076   -0.8865   -0.5824 H   0  0  0  0  0  0  0  0  0  0  0  0 
    0.4298    0.8727   -0.4019 H   0  0  0  0  0  0  0  0  0  0  0  0 
    0.4242   -0.1672    1.0323 H   0  0  0  0  0  0  0  0  0  0  0  0 
    3.3824   -2.8473   -0.6699 H   0  0  0  0  0  0  0  0  0  0  0  0 
    4.5668   -2.7804    0.6517 H   0  0  0  0  0  0  0  0  0  0  0  0 
    4.6460   -1.5917   -0.6638 H   0  0  0  0  0  0  0  0  0  0  0  0 
    1.9414    2.5613    1.4245 H   0  0  0  0  0  0  0  0  0  0  0  0 
    3.1441    2.1265    2.6547 H   0  0  0  0  0  0  0  0  0  0  0  0 
    1.6675    1.1630    2.4924 H   0  0  0  0  0  0  0  0  0  0  0  0 
    2.6910   -0.0188   -1.0474 H   0  0  0  0  0  0  0  0  0  0  0  0 
    2.3508   -1.8461    1.3638 H   0  0  0  0  0  0  0  0  0  0  0  0 
    3.9118    1.4231    0.4105 H   0  0  0  0  0  0  0  0  0  0  0  0 
  1 10  1  0  0  0  0 
  2 12  1  0  0  0  0 
  2  5  1  0  0  0  0 
  3 16  1  0  0  0  0 
  3 15  1  0  0  0  0 
  4 17  1  6  0  0  0 
  4  1  1  0  0  0  0 
  4  5  1  0  0  0  0 
  4  6  1  0  0  0  0 
  5 18  1  1  0  0  0 
  5  7  1  0  0  0  0 
  6 19  1  6  0  0  0 
  6  7  1  0  0  0  0 
  6  3  1  0  0  0  0 
  8  1  1  0  0  0  0 
  9  1  1  0  0  0  0 
 11  2  1  0  0  0  0 
 13  2  1  0  0  0  0 
 14  3  1  0  0  0  0 
M  END 
>  <HBA> 
1 
 
>  <HBD> 
0 
 
>  <TPSA> 
9.23 
 
>  <cid> 
40893 
 
>  <dipole> 
1.81 
 
>  <excitation_energy_1> 
6.114 
 
>  <excitation_energy_2> 
6.542 
 
>  <excitation_energy_3> 
6.608 
 
>  <excitation_energy_4> 
6.806 
 
>  <homo_energy> 
-6.471 
 
>  <homo_lumo_gap> 
8.844 
 
>  <logP> 
1.43 
 
>  <lumo_energy> 
2.373 
 
>  <melting_point> 
-12.93 
 
>  <molecular_refractivity> 
29.93 
 
>  <oscillator_strength_1> 
0.0276 
 
>  <oscillator_strength_2> 
0.0018 
 
>  <oscillator_strength_3> 
0.0069 
 
>  <oscillator_strength_4> 
0.0067 
 
>  <open_babel_can_smiles> 
C[C@@H]1[C@@H](C)O[C@@H]1C 
 
>  <mulliken_charges> 
19 
1   -0.459423 
2   -0.454975 
3   -0.454426 
4   -0.174317 
5   0.188568 
6   0.183282 
7   -0.530494 
8   0.147615 
9   0.147583 
10   0.15018 
11   0.139379 
12   0.157397 
13   0.146736 
14   0.139706 
15   0.158126 
16   0.148697 
17   0.130183 
18   0.116834 
19   0.11935 
 
>  <lowdin_charges> 
19 
1   -0.446143 
2   -0.456742 
3   -0.457286 
4   -0.151171 
5   0.012429 
6   0.011106 
7   -0.310116 
8   0.154214 
9   0.152548 
10   0.149961 
11   0.153035 
12   0.160472 
13   0.153069 
14   0.152879 
15   0.16201 
16   0.1537 
17   0.142674 
18   0.130858 
19   0.132504 
 
$$$$ 
 
