PCCDB-ID:  24256 
public computational chemistry database (PCCDB) project, http://pccdb.org 
 
 30 29  0  0  1  0  0  0  0  0999 V2000 
    0.1525   -0.7767   -1.1741 C   0  0  0  0  0  0  0  0  0  0  0  0 
   10.1272   -2.8222   -4.8713 C   0  0  0  0  0  0  0  0  0  0  0  0 
    7.0033   -1.6855   -0.4084 C   0  0  0  0  0  0  0  0  0  0  0  0 
    1.6025   -0.4222   -0.8317 C   0  0  0  0  0  0  0  0  0  0  0  0 
    9.5276   -2.2422   -3.9989 C   0  0  0  0  0  0  0  0  0  0  0  0 
    2.6308   -1.2130   -1.6503 C   0  0  0  0  0  0  0  0  0  0  0  0 
    4.0846   -0.8710   -1.2991 C   0  0  0  0  0  0  0  0  0  0  0  0 
    5.1063   -1.6688   -2.1201 C   0  0  0  0  0  0  0  0  0  0  0  0 
    8.8048   -1.5637   -2.9188 C   0  0  0  0  0  0  0  0  0  0  0  0 
    6.5818   -1.3250   -1.8446 C   0  0  2  0  0  0  0  0  0  0  0  0 
    7.3945   -1.9604   -2.8946 N   0  0  0  0  0  0  0  0  0  0  0  0 
   -0.5552   -0.1926   -0.5746 H   0  0  0  0  0  0  0  0  0  0  0  0 
   -0.0520   -1.8384   -0.9878 H   0  0  0  0  0  0  0  0  0  0  0  0 
   -0.0659   -0.5797   -2.2310 H   0  0  0  0  0  0  0  0  0  0  0  0 
   10.6564   -3.3349   -5.6420 H   0  0  0  0  0  0  0  0  0  0  0  0 
    6.4106   -1.1397    0.3337 H   0  0  0  0  0  0  0  0  0  0  0  0 
    8.0551   -1.4475   -0.2158 H   0  0  0  0  0  0  0  0  0  0  0  0 
    6.8622   -2.7592   -0.2240 H   0  0  0  0  0  0  0  0  0  0  0  0 
    1.7800   -0.5986    0.2390 H   0  0  0  0  0  0  0  0  0  0  0  0 
    1.7642    0.6537   -0.9908 H   0  0  0  0  0  0  0  0  0  0  0  0 
    2.4601   -1.0307   -2.7217 H   0  0  0  0  0  0  0  0  0  0  0  0 
    2.4634   -2.2900   -1.4977 H   0  0  0  0  0  0  0  0  0  0  0  0 
    4.2387   -1.0475   -0.2257 H   0  0  0  0  0  0  0  0  0  0  0  0 
    4.2526    0.2051   -1.4572 H   0  0  0  0  0  0  0  0  0  0  0  0 
    4.9259   -1.5075   -3.1902 H   0  0  0  0  0  0  0  0  0  0  0  0 
    4.9530   -2.7450   -1.9408 H   0  0  0  0  0  0  0  0  0  0  0  0 
    8.8434   -0.4774   -3.0833 H   0  0  0  0  0  0  0  0  0  0  0  0 
    9.3471   -1.7480   -1.9727 H   0  0  0  0  0  0  0  0  0  0  0  0 
    6.7077   -0.2398   -1.9798 H   0  0  0  0  0  0  0  0  0  0  0  0 
    7.3348   -2.9748   -2.8094 H   0  0  0  0  0  0  0  0  0  0  0  0 
  1 13  1  0  0  0  0 
  1  4  1  0  0  0  0 
  1 12  1  0  0  0  0 
  2  5  3  0  0  0  0 
  3 18  1  0  0  0  0 
  3 17  1  0  0  0  0 
  3 16  1  0  0  0  0 
  4 19  1  0  0  0  0 
  5  9  1  0  0  0  0 
  6 22  1  0  0  0  0 
  6  7  1  0  0  0  0 
  6  4  1  0  0  0  0 
  7 23  1  0  0  0  0 
  8 26  1  0  0  0  0 
  8 10  1  0  0  0  0 
  8  7  1  0  0  0  0 
  9 11  1  0  0  0  0 
  9 28  1  0  0  0  0 
 10 29  1  6  0  0  0 
 10  3  1  0  0  0  0 
 11 30  1  0  0  0  0 
 11 10  1  0  0  0  0 
 14  1  1  0  0  0  0 
 15  2  1  0  0  0  0 
 20  4  1  0  0  0  0 
 21  6  1  0  0  0  0 
 24  7  1  0  0  0  0 
 25  8  1  0  0  0  0 
 27  9  1  0  0  0  0 
M  END 
>  <HBA> 
1 
 
>  <HBD> 
1 
 
>  <TPSA> 
12.03 
 
>  <cid> 
24256 
 
>  <dipole> 
1.23 
 
>  <excitation_energy_1> 
5.525 
 
>  <excitation_energy_2> 
5.837 
 
>  <excitation_energy_3> 
5.995 
 
>  <excitation_energy_4> 
6.172 
 
>  <homo_energy> 
-6.0 
 
>  <homo_lumo_gap> 
7.304 
 
>  <logP> 
2.569 
 
>  <lumo_energy> 
1.303 
 
>  <melting_point> 
15.31 
 
>  <molecular_refractivity> 
51.15 
 
>  <oscillator_strength_1> 
0.0054 
 
>  <oscillator_strength_2> 
0.0066 
 
>  <oscillator_strength_3> 
0.0123 
 
>  <oscillator_strength_4> 
0.0035 
 
>  <open_babel_can_smiles> 
CCCCC[C@H](NCC#C)C 
 
>  <mulliken_charges> 
30 
1   -0.44157 
2   -0.524274 
3   -0.462965 
4   -0.247549 
5   0.359529 
6   -0.245792 
7   -0.261708 
8   -0.258201 
9   -0.24378 
10   0.05529 
11   -0.557193 
12   0.141504 
13   0.141202 
14   0.142094 
15   0.188321 
16   0.149853 
17   0.146657 
18   0.136671 
19   0.129214 
20   0.130363 
21   0.129667 
22   0.126838 
23   0.130895 
24   0.128261 
25   0.14932 
26   0.119408 
27   0.170477 
28   0.147757 
29   0.125106 
30   0.294606 
 
>  <lowdin_charges> 
30 
1   -0.443048 
2   -0.255186 
3   -0.463805 
4   -0.268532 
5   -0.039182 
6   -0.269952 
7   -0.272541 
8   -0.275633 
9   -0.184816 
10   -0.059643 
11   -0.351185 
12   0.150462 
13   0.14471 
14   0.14526 
15   0.204823 
16   0.154883 
17   0.148118 
18   0.143701 
19   0.136337 
20   0.136932 
21   0.136973 
22   0.135549 
23   0.136599 
24   0.136248 
25   0.150381 
26   0.133104 
27   0.161862 
28   0.141025 
29   0.134207 
30   0.25235 
 
$$$$ 
 
