PCCDB-ID:  22467 
public computational chemistry database (PCCDB) project, http://pccdb.org 
 
 20 19  0  0  0  0  0  0  0  0999 V2000 
    1.6364    0.9368   -1.4279 C   0  0  0  0  0  0  0  0  0  0  0  0 
    1.4259   -1.3799   -0.3993 C   0  0  0  0  0  0  0  0  0  0  0  0 
    3.0716    0.2920    0.5594 C   0  0  0  0  0  0  0  0  0  0  0  0 
    1.7263    0.1041   -0.1403 C   0  0  0  0  0  0  0  0  0  0  0  0 
    5.3762   -0.1474    0.0600 C   0  0  0  0  0  0  0  0  0  0  0  0 
    6.3816   -0.5413   -0.6285 N   0  0  0  0  0  0  0  0  0  0  0  0 
    5.5912    0.3712    1.2951 O   0  0  0  0  0  0  0  0  0  0  0  0 
    5.9703   -1.0534   -1.8914 O   0  0  0  0  0  0  0  0  0  0  0  0 
    4.1031   -0.1988   -0.3273 O   0  0  0  0  0  0  0  0  0  0  0  0 
    0.6461    0.8359   -1.8861 H   0  0  0  0  0  0  0  0  0  0  0  0 
    2.3840    0.6066   -2.1563 H   0  0  0  0  0  0  0  0  0  0  0  0 
    1.8068    2.0015   -1.2270 H   0  0  0  0  0  0  0  0  0  0  0  0 
    0.4339   -1.5014   -0.8482 H   0  0  0  0  0  0  0  0  0  0  0  0 
    1.4471   -1.9590    0.5319 H   0  0  0  0  0  0  0  0  0  0  0  0 
    2.1645   -1.8118   -1.0823 H   0  0  0  0  0  0  0  0  0  0  0  0 
    3.1102   -0.2687    1.4999 H   0  0  0  0  0  0  0  0  0  0  0  0 
    3.2602    1.3488    0.7787 H   0  0  0  0  0  0  0  0  0  0  0  0 
    0.9796    0.4880    0.5717 H   0  0  0  0  0  0  0  0  0  0  0  0 
    6.5549    0.3423    1.4298 H   0  0  0  0  0  0  0  0  0  0  0  0 
    6.8250   -1.2999   -2.2757 H   0  0  0  0  0  0  0  0  0  0  0  0 
  1 12  1  0  0  0  0 
  1  4  1  0  0  0  0 
  2  4  1  0  0  0  0 
  2 14  1  0  0  0  0 
  3 17  1  0  0  0  0 
  3 16  1  0  0  0  0 
  4  3  1  0  0  0  0 
  4 18  1  0  0  0  0 
  5  7  1  0  0  0  0 
  6  5  2  0  0  0  0 
  7 19  1  0  0  0  0 
  8  6  1  0  0  0  0 
  9  5  1  0  0  0  0 
  9  3  1  0  0  0  0 
 10  1  1  0  0  0  0 
 11  1  1  0  0  0  0 
 13  2  1  0  0  0  0 
 15  2  1  0  0  0  0 
 20  8  1  0  0  0  0 
M  END 
>  <HBA> 
4 
 
>  <HBD> 
2 
 
>  <TPSA> 
58.56 
 
>  <cid> 
22467 
 
>  <dipole> 
1.43 
 
>  <excitation_energy_1> 
5.164 
 
>  <excitation_energy_2> 
5.453 
 
>  <excitation_energy_3> 
5.777 
 
>  <excitation_energy_4> 
6.357 
 
>  <homo_energy> 
-5.676 
 
>  <homo_lumo_gap> 
7.276 
 
>  <logP> 
1.149 
 
>  <lumo_energy> 
1.6 
 
>  <melting_point> 
77.96 
 
>  <molecular_refractivity> 
31.35 
 
>  <oscillator_strength_1> 
0.0015 
 
>  <oscillator_strength_2> 
0.0006 
 
>  <oscillator_strength_3> 
0.0 
 
>  <oscillator_strength_4> 
0.0139 
 
>  <open_babel_can_smiles> 
CC(CO/C(=N\O)/O)C 
 
>  <mulliken_charges> 
20 
1   -0.447596 
2   -0.447665 
3   -0.027444 
4   -0.100558 
5   0.783046 
6   -0.353313 
7   -0.60841 
8   -0.514752 
9   -0.463814 
10   0.142611 
11   0.173522 
12   0.13734 
13   0.142627 
14   0.137348 
15   0.173557 
16   0.153402 
17   0.153057 
18   0.130099 
19   0.425737 
20   0.411206 
 
>  <lowdin_charges> 
20 
1   -0.446353 
2   -0.448386 
3   -0.118889 
4   -0.128467 
5   0.172677 
6   -0.179844 
7   -0.366339 
8   -0.392503 
9   -0.175205 
10   0.149719 
11   0.163152 
12   0.145569 
13   0.149698 
14   0.147217 
15   0.163404 
16   0.149016 
17   0.147405 
18   0.145101 
19   0.371013 
20   0.352014 
 
$$$$ 
 
