PCCDB-ID:  29661 
public computational chemistry database (PCCDB) project, http://pccdb.org 
 
 22 22  0  0  0  0  0  0  0  0999 V2000 
    0.8602   -0.2119    0.0072 C   0  0  0  0  0  0  0  0  0  0  0  0 
    0.5751   -1.5929   -0.0811 C   0  0  0  0  0  0  0  0  0  0  0  0 
   -3.0790    1.9313    0.1636 C   0  0  0  0  0  0  0  0  0  0  0  0 
   -3.7223    2.2652    1.5010 C   0  0  0  0  0  0  0  0  0  0  0  0 
   -0.5895    1.8622    0.0407 C   0  0  0  0  0  0  0  0  0  0  0  0 
   -0.3576    0.4555   -0.0153 C   0  0  0  0  0  0  0  0  0  0  0  0 
   -0.7895   -1.6812   -0.1558 C   0  0  0  0  0  0  0  0  0  0  0  0 
   -1.7212    2.5480    0.0962 N   0  0  0  0  0  0  0  0  0  0  0  0 
   -1.6508   -2.8034   -0.2685 N   0  0  0  0  0  0  0  0  0  0  0  0 
   -2.9880    1.5830    2.5066 O   0  0  0  0  0  0  0  0  0  0  0  0 
   -1.7235    3.8165    0.1266 O   0  0  0  0  0  0  0  0  0  0  0  0 
   -1.0978   -3.9100   -0.2986 O   0  0  0  0  0  0  0  0  0  0  0  0 
   -2.8657   -2.5980   -0.3291 O   0  0  0  0  0  0  0  0  0  0  0  0 
   -1.3694   -0.4533   -0.1211 O   0  0  0  0  0  0  0  0  0  0  0  0 
    1.8330    0.2525    0.0845 H   0  0  0  0  0  0  0  0  0  0  0  0 
    1.2628   -2.4246   -0.0910 H   0  0  0  0  0  0  0  0  0  0  0  0 
   -3.6425    2.3887   -0.6529 H   0  0  0  0  0  0  0  0  0  0  0  0 
   -3.0175    0.8555    0.0237 H   0  0  0  0  0  0  0  0  0  0  0  0 
   -4.7716    1.9331    1.4621 H   0  0  0  0  0  0  0  0  0  0  0  0 
   -3.7024    3.3532    1.6405 H   0  0  0  0  0  0  0  0  0  0  0  0 
    0.2898    2.4949    0.0401 H   0  0  0  0  0  0  0  0  0  0  0  0 
   -3.2598    1.9309    3.3686 H   0  0  0  0  0  0  0  0  0  0  0  0 
  1 15  1  0  0  0  0 
  2  1  1  0  0  0  0 
  3  4  1  0  0  0  0 
  4 20  1  0  0  0  0 
  4 10  1  0  0  0  0 
  5  8  1  0  0  0  0 
  6  1  2  0  0  0  0 
  6  5  1  0  0  0  0 
  7 14  1  0  0  0  0 
  7  2  2  0  0  0  0 
  8 11  1  0  0  0  0 
  8  3  1  0  0  0  0 
  9  7  1  0  0  0  0 
 10 22  1  0  0  0  0 
 12  9  2  0  0  0  0 
 13  9  2  0  0  0  0 
 14  6  1  0  0  0  0 
 16  2  1  0  0  0  0 
 17  3  1  0  0  0  0 
 18  3  1  0  0  0  0 
 19  4  1  0  0  0  0 
 21  5  1  0  0  0  0 
M  RAD  2   5   2  11   2 
M  END 
>  <HBA> 
3 
 
>  <HBD> 
1 
 
>  <TPSA> 
107.94 
 
>  <cid> 
29661 
 
>  <dipole> 
3.19 
 
>  <excitation_energy_1> 
3.142 
 
>  <excitation_energy_2> 
3.379 
 
>  <excitation_energy_3> 
3.657 
 
>  <excitation_energy_4> 
4.177 
 
>  <homo_energy> 
-5.968 
 
>  <homo_lumo_gap> 
3.184 
 
>  <logP> 
1.156 
 
>  <lumo_energy> 
-2.784 
 
>  <melting_point> 
93.04 
 
>  <molecular_refractivity> 
50.32 
 
>  <oscillator_strength_1> 
0.4163 
 
>  <oscillator_strength_2> 
0.0001 
 
>  <oscillator_strength_3> 
0.0 
 
>  <oscillator_strength_4> 
0.0003 
 
>  <open_babel_can_smiles> 
OCCN([CH]c1ccc(o1)N(=O)=O)[O] 
 
>  <mulliken_charges> 
22 
1   -0.210476 
2   -0.142961 
3   -0.189473 
4   -0.039476 
5   -0.016647 
6   0.38936 
7   0.537495 
8   0.047752 
9   0.32593 
10   -0.616573 
11   -0.460142 
12   -0.409858 
13   -0.401507 
14   -0.476752 
15   0.169048 
16   0.19212 
17   0.187542 
18   0.220362 
19   0.140755 
20   0.164654 
21   0.185801 
22   0.403047 
 
>  <lowdin_charges> 
22 
1   -0.195397 
2   -0.147123 
3   -0.22261 
4   -0.132186 
5   -0.162048 
6   0.097921 
7   0.06904 
8   0.213639 
9   0.299069 
10   -0.469552 
11   -0.34376 
12   -0.261374 
13   -0.248664 
14   -0.072672 
15   0.182032 
16   0.197976 
17   0.179108 
18   0.184504 
19   0.138724 
20   0.148091 
21   0.192686 
22   0.352594 
 
$$$$ 
 
