PCCDB-ID:  11732 
public computational chemistry database (PCCDB) project, http://pccdb.org 
 
 18 17  0  0  1  0  0  0  0  0999 V2000 
    1.0685   -0.0411   -0.0969 C   0  0  0  0  0  0  0  0  0  0  0  0 
    3.0802    1.4732    0.1124 C   0  0  0  0  0  0  0  0  0  0  0  0 
    4.5928   -1.0548    1.2711 C   0  0  0  0  0  0  0  0  0  0  0  0 
    2.5979    0.0162    0.0245 C   0  0  0  0  0  0  0  0  0  0  0  0 
    3.0767   -0.8505    1.2163 C   0  0  2  0  0  0  0  0  0  0  0  0 
    2.5828   -0.3592    2.4676 O   0  0  0  0  0  0  0  0  0  0  0  0 
    0.7132    0.5690   -0.9355 H   0  0  0  0  0  0  0  0  0  0  0  0 
    0.5996    0.3281    0.8214 H   0  0  0  0  0  0  0  0  0  0  0  0 
    0.7213   -1.0688   -0.2583 H   0  0  0  0  0  0  0  0  0  0  0  0 
    2.7454    2.0424   -0.7618 H   0  0  0  0  0  0  0  0  0  0  0  0 
    4.1725    1.5523    0.1551 H   0  0  0  0  0  0  0  0  0  0  0  0 
    2.6651    1.9727    0.9974 H   0  0  0  0  0  0  0  0  0  0  0  0 
    4.9685   -1.4991    0.3419 H   0  0  0  0  0  0  0  0  0  0  0  0 
    4.8506   -1.7194    2.1018 H   0  0  0  0  0  0  0  0  0  0  0  0 
    5.1224   -0.1056    1.4232 H   0  0  0  0  0  0  0  0  0  0  0  0 
    3.0346   -0.4307   -0.8816 H   0  0  0  0  0  0  0  0  0  0  0  0 
    2.6015   -1.8345    1.1163 H   0  0  0  0  0  0  0  0  0  0  0  0 
    3.0677    0.4567    2.6697 H   0  0  0  0  0  0  0  0  0  0  0  0 
  1  4  1  0  0  0  0 
  1  8  1  0  0  0  0 
  2 11  1  0  0  0  0 
  2 12  1  0  0  0  0 
  3 15  1  0  0  0  0 
  3 14  1  0  0  0  0 
  4  2  1  0  0  0  0 
  4  5  1  0  0  0  0 
  5 17  1  6  0  0  0 
  5  3  1  0  0  0  0 
  5  6  1  0  0  0  0 
  6 18  1  0  0  0  0 
  7  1  1  0  0  0  0 
  9  1  1  0  0  0  0 
 10  2  1  0  0  0  0 
 13  3  1  0  0  0  0 
 16  4  1  0  0  0  0 
M  END 
>  <HBA> 
1 
 
>  <HBD> 
1 
 
>  <TPSA> 
20.23 
 
>  <cid> 
11732 
 
>  <dipole> 
1.61 
 
>  <excitation_energy_1> 
6.485 
 
>  <excitation_energy_2> 
7.058 
 
>  <excitation_energy_3> 
7.363 
 
>  <excitation_energy_4> 
7.52 
 
>  <homo_energy> 
-7.067 
 
>  <homo_lumo_gap> 
8.917 
 
>  <logP> 
1.023 
 
>  <lumo_energy> 
1.85 
 
>  <melting_point> 
-7.28 
 
>  <molecular_refractivity> 
27.31 
 
>  <oscillator_strength_1> 
0.0082 
 
>  <oscillator_strength_2> 
0.0026 
 
>  <oscillator_strength_3> 
0.021 
 
>  <oscillator_strength_4> 
0.0246 
 
>  <open_babel_can_smiles> 
C[C@H](C(C)C)O 
 
>  <mulliken_charges> 
18 
1   -0.445526 
2   -0.468982 
3   -0.468554 
4   -0.068179 
5   0.141793 
6   -0.625781 
7   0.135329 
8   0.159523 
9   0.13766 
10   0.1493 
11   0.142967 
12   0.136802 
13   0.143817 
14   0.158129 
15   0.135513 
16   0.117934 
17   0.131992 
18   0.386262 
 
>  <lowdin_charges> 
18 
1   -0.446587 
2   -0.453485 
3   -0.464269 
4   -0.138507 
5   0.000771 
6   -0.466063 
7   0.146719 
8   0.156394 
9   0.146105 
10   0.155085 
11   0.145005 
12   0.143998 
13   0.153603 
14   0.159116 
15   0.14419 
16   0.138293 
17   0.141622 
18   0.338011 
 
$$$$ 
 
