PCCDB-ID:  70143 
public computational chemistry database (PCCDB) project, http://pccdb.org 
 
 25 25  0  0  0  0  0  0  0  0999 V2000 
    1.5850   -0.4732    0.0089 C   0  0  0  0  0  0  0  0  0  0  0  0 
    0.3841    6.9705    1.0423 C   0  0  0  0  0  0  0  0  0  0  0  0 
    0.9720    6.6616   -0.1854 C   0  0  0  0  0  0  0  0  0  0  0  0 
    0.7100    6.2151    2.1704 C   0  0  0  0  0  0  0  0  0  0  0  0 
    1.8772    5.6036   -0.2820 C   0  0  0  0  0  0  0  0  0  0  0  0 
    1.6158    5.1587    2.0675 C   0  0  0  0  0  0  0  0  0  0  0  0 
    3.1575    3.6589    0.7253 C   0  0  0  0  0  0  0  0  0  0  0  0 
    2.4203    2.3343    0.4551 C   0  0  0  0  0  0  0  0  0  0  0  0 
    2.9943    0.0572    0.1784 C   0  0  0  0  0  0  0  0  0  0  0  0 
    2.2133    4.8349    0.8410 C   0  0  0  0  0  0  0  0  0  0  0  0 
    3.3825    1.2450    0.3706 N   0  0  0  0  0  0  0  0  0  0  0  0 
    3.9704   -0.9037    0.1154 O   0  0  0  0  0  0  0  0  0  0  0  0 
    0.8434    0.3266    0.0300 H   0  0  0  0  0  0  0  0  0  0  0  0 
    1.3443   -1.1835    0.8104 H   0  0  0  0  0  0  0  0  0  0  0  0 
    1.4871   -1.0044   -0.9466 H   0  0  0  0  0  0  0  0  0  0  0  0 
   -0.3177    7.7967    1.1209 H   0  0  0  0  0  0  0  0  0  0  0  0 
    0.7303    7.2480   -1.0684 H   0  0  0  0  0  0  0  0  0  0  0  0 
    0.2632    6.4520    3.1327 H   0  0  0  0  0  0  0  0  0  0  0  0 
    2.3364    5.3730   -1.2412 H   0  0  0  0  0  0  0  0  0  0  0  0 
    1.8708    4.5792    2.9526 H   0  0  0  0  0  0  0  0  0  0  0  0 
    3.8773    3.8211   -0.0854 H   0  0  0  0  0  0  0  0  0  0  0  0 
    3.7426    3.5419    1.6451 H   0  0  0  0  0  0  0  0  0  0  0  0 
    1.8437    2.4362   -0.4778 H   0  0  0  0  0  0  0  0  0  0  0  0 
    1.6867    2.1681    1.2598 H   0  0  0  0  0  0  0  0  0  0  0  0 
    3.5567   -1.7673   -0.0345 H   0  0  0  0  0  0  0  0  0  0  0  0 
  1 13  1  0  0  0  0 
  1  9  1  0  0  0  0 
  1 14  1  0  0  0  0 
  2 16  1  0  0  0  0 
  2  4  2  0  0  0  0 
  3  2  1  0  0  0  0 
  4 18  1  0  0  0  0 
  5  3  2  0  0  0  0 
  5 10  1  0  0  0  0 
  6  4  1  0  0  0  0 
  6 20  1  0  0  0  0 
  7 10  1  0  0  0  0 
  7 22  1  0  0  0  0 
  8  7  1  0  0  0  0 
  8 24  1  0  0  0  0 
  9 11  2  0  0  0  0 
 10  6  2  0  0  0  0 
 11  8  1  0  0  0  0 
 12  9  1  0  0  0  0 
 15  1  1  0  0  0  0 
 17  3  1  0  0  0  0 
 19  5  1  0  0  0  0 
 21  7  1  0  0  0  0 
 23  8  1  0  0  0  0 
 25 12  1  0  0  0  0 
M  END 
>  <HBA> 
2 
 
>  <HBD> 
1 
 
>  <TPSA> 
29.1 
 
>  <cid> 
70143 
 
>  <dipole> 
3.7 
 
>  <excitation_energy_1> 
5.301 
 
>  <excitation_energy_2> 
5.607 
 
>  <excitation_energy_3> 
5.782 
 
>  <excitation_energy_4> 
5.847 
 
>  <homo_energy> 
-6.37 
 
>  <homo_lumo_gap> 
6.517 
 
>  <logP> 
1.756 
 
>  <lumo_energy> 
0.147 
 
>  <melting_point> 
53.73 
 
>  <molecular_refractivity> 
48.83 
 
>  <oscillator_strength_1> 
0.0009 
 
>  <oscillator_strength_2> 
0.0001 
 
>  <oscillator_strength_3> 
0.0024 
 
>  <oscillator_strength_4> 
0.0032 
 
>  <open_babel_can_smiles> 
C/C(=N\CCc1ccccc1)/O 
 
>  <mulliken_charges> 
25 
1   -0.564849 
2   -0.132005 
3   -0.128027 
4   -0.128223 
5   -0.182219 
6   -0.181345 
7   -0.348206 
8   -0.138373 
9   0.498427 
10   0.164674 
11   -0.414901 
12   -0.579726 
13   0.186377 
14   0.175038 
15   0.17214 
16   0.125683 
17   0.126258 
18   0.126137 
19   0.122969 
20   0.122646 
21   0.151958 
22   0.152692 
23   0.135764 
24   0.134417 
25   0.402695 
 
>  <lowdin_charges> 
25 
1   -0.486006 
2   -0.161991 
3   -0.157535 
4   -0.156696 
5   -0.168606 
6   -0.16943 
7   -0.276684 
8   -0.199282 
9   0.128532 
10   -0.000511 
11   -0.209999 
12   -0.370232 
13   0.176499 
14   0.170234 
15   0.16799 
16   0.156031 
17   0.156465 
18   0.155672 
19   0.154001 
20   0.154494 
21   0.155762 
22   0.155695 
23   0.136735 
24   0.136137 
25   0.352724 
 
$$$$ 
 
