PCCDB-ID:  59028 
public computational chemistry database (PCCDB) project, http://pccdb.org 
 
 36 37  0  0  0  0  0  0  0  0999 V2000 
    4.8906   -1.1088   -2.4231 C   0  0  0  0  0  0  0  0  0  0  0  0 
    2.6730   -2.2847    0.4472 C   0  0  0  0  0  0  0  0  0  0  0  0 
    5.0675   -2.6236    0.0230 C   0  0  0  0  0  0  0  0  0  0  0  0 
   -0.4472   -0.4399   -5.7802 C   0  0  0  0  0  0  0  0  0  0  0  0 
   -0.6958   -1.1155   -4.4282 C   0  0  0  0  0  0  0  0  0  0  0  0 
    2.7711    2.5959   -3.5225 C   0  0  0  0  0  0  0  0  0  0  0  0 
   -0.0283    1.0188   -5.5654 C   0  0  0  0  0  0  0  0  0  0  0  0 
    1.7851    2.3902   -4.4819 C   0  0  0  0  0  0  0  0  0  0  0  0 
    0.5905   -1.1441   -3.5939 C   0  0  0  0  0  0  0  0  0  0  0  0 
    3.0580    1.5956   -2.5952 C   0  0  0  0  0  0  0  0  0  0  0  0 
    3.6866   -1.2423   -1.5069 C   0  0  0  0  0  0  0  0  0  0  0  0 
    1.0641    1.1877   -4.5205 C   0  0  0  0  0  0  0  0  0  0  0  0 
    1.3399    0.1756   -3.5863 C   0  0  0  0  0  0  0  0  0  0  0  0 
    2.3603    0.3777   -2.6231 C   0  0  0  0  0  0  0  0  0  0  0  0 
    2.5771   -0.6008   -1.6431 N   0  0  0  0  0  0  0  0  0  0  0  0 
    3.7809   -2.1843   -0.4946 N   0  0  0  0  0  0  0  0  0  0  0  0 
    5.2113   -2.0901   -2.7893 H   0  0  0  0  0  0  0  0  0  0  0  0 
    5.7445   -0.6496   -1.9117 H   0  0  0  0  0  0  0  0  0  0  0  0 
    4.6354   -0.4826   -3.2781 H   0  0  0  0  0  0  0  0  0  0  0  0 
    2.7490   -3.2383    0.9789 H   0  0  0  0  0  0  0  0  0  0  0  0 
    1.7294   -2.2398   -0.0956 H   0  0  0  0  0  0  0  0  0  0  0  0 
    2.6773   -1.4661    1.1830 H   0  0  0  0  0  0  0  0  0  0  0  0 
    4.9461   -3.6037    0.4958 H   0  0  0  0  0  0  0  0  0  0  0  0 
    5.4785   -1.9337    0.7793 H   0  0  0  0  0  0  0  0  0  0  0  0 
    5.8010   -2.7305   -0.7764 H   0  0  0  0  0  0  0  0  0  0  0  0 
   -1.3425   -0.4831   -6.4127 H   0  0  0  0  0  0  0  0  0  0  0  0 
    0.3462   -0.9802   -6.3165 H   0  0  0  0  0  0  0  0  0  0  0  0 
   -1.0731   -2.1367   -4.5638 H   0  0  0  0  0  0  0  0  0  0  0  0 
   -1.4764   -0.5606   -3.8881 H   0  0  0  0  0  0  0  0  0  0  0  0 
    3.3203    3.5339   -3.4943 H   0  0  0  0  0  0  0  0  0  0  0  0 
   -0.9113    1.5973   -5.2518 H   0  0  0  0  0  0  0  0  0  0  0  0 
    0.3001    1.4674   -6.5120 H   0  0  0  0  0  0  0  0  0  0  0  0 
    1.5616    3.1673   -5.2098 H   0  0  0  0  0  0  0  0  0  0  0  0 
    1.2535   -1.9333   -3.9826 H   0  0  0  0  0  0  0  0  0  0  0  0 
    0.3769   -1.4356   -2.5586 H   0  0  0  0  0  0  0  0  0  0  0  0 
    3.8100    1.7524   -1.8264 H   0  0  0  0  0  0  0  0  0  0  0  0 
  1 18  1  0  0  0  0 
  1 11  1  0  0  0  0 
  2 20  1  0  0  0  0 
  2 22  1  0  0  0  0 
  3 23  1  0  0  0  0 
  3 24  1  0  0  0  0 
  4  7  1  0  0  0  0 
  4  5  1  0  0  0  0 
  5 29  1  0  0  0  0 
  5  9  1  0  0  0  0 
  6 30  1  0  0  0  0 
  6 10  2  0  0  0  0 
  7 31  1  0  0  0  0 
  7 12  1  0  0  0  0 
  8  6  1  0  0  0  0 
  9 13  1  0  0  0  0 
  9 35  1  0  0  0  0 
 10 36  1  0  0  0  0 
 11 16  1  0  0  0  0 
 12  8  2  0  0  0  0 
 12 13  1  0  0  0  0 
 13 14  2  0  0  0  0 
 14 10  1  0  0  0  0 
 14 15  1  0  0  0  0 
 15 11  2  0  0  0  0 
 16  3  1  0  0  0  0 
 16  2  1  0  0  0  0 
 17  1  1  0  0  0  0 
 19  1  1  0  0  0  0 
 21  2  1  0  0  0  0 
 25  3  1  0  0  0  0 
 26  4  1  0  0  0  0 
 27  4  1  0  0  0  0 
 28  5  1  0  0  0  0 
 32  7  1  0  0  0  0 
 33  8  1  0  0  0  0 
 34  9  1  0  0  0  0 
M  END 
>  <HBA> 
2 
 
>  <HBD> 
0 
 
>  <TPSA> 
15.6 
 
>  <cid> 
59028 
 
>  <dipole> 
3.01 
 
>  <excitation_energy_1> 
4.527 
 
>  <excitation_energy_2> 
4.723 
 
>  <excitation_energy_3> 
4.831 
 
>  <excitation_energy_4> 
5.142 
 
>  <homo_energy> 
-5.173 
 
>  <homo_lumo_gap> 
5.464 
 
>  <logP> 
3.177 
 
>  <lumo_energy> 
0.291 
 
>  <melting_point> 
60.13 
 
>  <molecular_refractivity> 
70.4 
 
>  <oscillator_strength_1> 
0.1598 
 
>  <oscillator_strength_2> 
0.0273 
 
>  <oscillator_strength_3> 
0.0632 
 
>  <oscillator_strength_4> 
0.0337 
 
>  <open_babel_can_smiles> 
C/C(=N\c1cccc2c1CCCC2)/N(C)C 
 
>  <mulliken_charges> 
36 
1   -0.541409 
2   -0.298387 
3   -0.31182 
4   -0.262649 
5   -0.26517 
6   -0.138436 
7   -0.340184 
8   -0.190779 
9   -0.333299 
10   -0.158197 
11   0.500832 
12   0.105222 
13   0.086026 
14   0.191806 
15   -0.553431 
16   -0.411478 
17   0.169 
18   0.167782 
19   0.191667 
20   0.140228 
21   0.190891 
22   0.148303 
23   0.159267 
24   0.14829 
25   0.165825 
26   0.127592 
27   0.132273 
28   0.126756 
29   0.133612 
30   0.117493 
31   0.147078 
32   0.13942 
33   0.108838 
34   0.13727 
35   0.15853 
36   0.111235 
 
>  <lowdin_charges> 
36 
1   -0.470224 
2   -0.352628 
3   -0.35344 
4   -0.27794 
5   -0.276873 
6   -0.159832 
7   -0.277113 
8   -0.187155 
9   -0.276523 
10   -0.19554 
11   0.109983 
12   -0.012481 
13   -0.037533 
14   0.040023 
15   -0.217262 
16   -0.113541 
17   0.165092 
18   0.166417 
19   0.180836 
20   0.14752 
21   0.174325 
22   0.144416 
23   0.154821 
24   0.140522 
25   0.162547 
26   0.14265 
27   0.140432 
28   0.141396 
29   0.141078 
30   0.152266 
31   0.149834 
32   0.148988 
33   0.149953 
34   0.146087 
35   0.157104 
36   0.151797 
 
$$$$ 
 
