PCCDB-ID:  29715 
public computational chemistry database (PCCDB) project, http://pccdb.org 
 
 30 31  0  0  0  0  0  0  0  0999 V2000 
    2.1054   -2.6494   -0.2558 C   0  0  0  0  0  0  0  0  0  0  0  0 
    6.5230   -2.3999   -0.4186 C   0  0  0  0  0  0  0  0  0  0  0  0 
    7.8622   -2.0355   -0.3750 C   0  0  0  0  0  0  0  0  0  0  0  0 
    7.3050    2.7227   -1.9719 C   0  0  0  0  0  0  0  0  0  0  0  0 
    6.9181    2.6708   -3.4603 C   0  0  0  0  0  0  0  0  0  0  0  0 
    5.8742   -0.1730   -1.1990 C   0  0  0  0  0  0  0  0  0  0  0  0 
    9.2448    1.2049   -1.2246 C   0  0  0  0  0  0  0  0  0  0  0  0 
    3.5334   -2.3439    0.1313 C   0  0  0  0  0  0  0  0  0  0  0  0 
    7.9154    1.4465   -1.4678 C   0  0  0  0  0  0  0  0  0  0  0  0 
    5.5510   -1.4657   -0.8230 C   0  0  0  0  0  0  0  0  0  0  0  0 
    7.2251    0.2147   -1.1675 C   0  0  0  0  0  0  0  0  0  0  0  0 
    8.2009   -0.7311   -0.7491 C   0  0  0  0  0  0  0  0  0  0  0  0 
    6.2439    3.9131   -3.8539 N   0  0  0  0  0  0  0  0  0  0  0  0 
    9.4262   -0.0991   -0.8003 N   0  0  0  0  0  0  0  0  0  0  0  0 
    4.0206   -2.5119    1.2222 O   0  0  0  0  0  0  0  0  0  0  0  0 
    4.2042   -1.8422   -0.9501 O   0  0  0  0  0  0  0  0  0  0  0  0 
    1.5789   -3.0665    0.6032 H   0  0  0  0  0  0  0  0  0  0  0  0 
    2.0841   -3.3595   -1.0889 H   0  0  0  0  0  0  0  0  0  0  0  0 
    1.6038   -1.7363   -0.5929 H   0  0  0  0  0  0  0  0  0  0  0  0 
    6.2172   -3.3991   -0.1329 H   0  0  0  0  0  0  0  0  0  0  0  0 
    8.6181   -2.7492   -0.0587 H   0  0  0  0  0  0  0  0  0  0  0  0 
    6.4037    2.9750   -1.3987 H   0  0  0  0  0  0  0  0  0  0  0  0 
    8.0099    3.5519   -1.8180 H   0  0  0  0  0  0  0  0  0  0  0  0 
    6.2168    1.8435   -3.6216 H   0  0  0  0  0  0  0  0  0  0  0  0 
    7.8211    2.4340   -4.0518 H   0  0  0  0  0  0  0  0  0  0  0  0 
    5.0882    0.5086   -1.5090 H   0  0  0  0  0  0  0  0  0  0  0  0 
   10.0921    1.8707   -1.3216 H   0  0  0  0  0  0  0  0  0  0  0  0 
    6.9089    4.6858   -3.8238 H   0  0  0  0  0  0  0  0  0  0  0  0 
    5.9379    3.8469   -4.8235 H   0  0  0  0  0  0  0  0  0  0  0  0 
   10.3061   -0.5055   -0.5248 H   0  0  0  0  0  0  0  0  0  0  0  0 
  1  8  1  0  0  0  0 
  1 17  1  0  0  0  0 
  2  3  1  0  0  0  0 
  2 20  1  0  0  0  0 
  3 21  1  0  0  0  0 
  4 23  1  0  0  0  0 
  4  9  1  0  0  0  0 
  4 22  1  0  0  0  0 
  5  4  1  0  0  0  0 
  6 11  2  0  0  0  0 
  6 10  1  0  0  0  0 
  7 14  1  0  0  0  0 
  8 15  2  0  0  0  0 
  9  7  2  0  0  0  0 
  9 11  1  0  0  0  0 
 10  2  2  0  0  0  0 
 11 12  1  0  0  0  0 
 12  3  2  0  0  0  0 
 13 28  1  0  0  0  0 
 13  5  1  0  0  0  0 
 14 12  1  0  0  0  0 
 14 30  1  0  0  0  0 
 16 10  1  0  0  0  0 
 16  8  1  0  0  0  0 
 18  1  1  0  0  0  0 
 19  1  1  0  0  0  0 
 24  5  1  0  0  0  0 
 25  5  1  0  0  0  0 
 26  6  1  0  0  0  0 
 27  7  1  0  0  0  0 
 29 13  1  0  0  0  0 
M  END 
>  <HBA> 
3 
 
>  <HBD> 
2 
 
>  <TPSA> 
68.11 
 
>  <cid> 
29715 
 
>  <dipole> 
3.71 
 
>  <excitation_energy_1> 
4.507 
 
>  <excitation_energy_2> 
4.671 
 
>  <excitation_energy_3> 
4.768 
 
>  <excitation_energy_4> 
5.091 
 
>  <homo_energy> 
-5.412 
 
>  <homo_lumo_gap> 
5.181 
 
>  <logP> 
2.295 
 
>  <lumo_energy> 
-0.231 
 
>  <melting_point> 
180.18 
 
>  <molecular_refractivity> 
62.28 
 
>  <oscillator_strength_1> 
0.0519 
 
>  <oscillator_strength_2> 
0.016 
 
>  <oscillator_strength_3> 
0.0012 
 
>  <oscillator_strength_4> 
0.1646 
 
>  <open_babel_can_smiles> 
NCCc1c[nH]c2c1cc(cc2)OC(=O)C 
 
>  <mulliken_charges> 
30 
1   -0.524815 
2   -0.161448 
3   -0.174123 
4   -0.33502 
5   -0.132767 
6   -0.258492 
7   -0.004588 
8   0.590603 
9   0.07501 
10   0.3501 
11   0.071401 
12   0.324432 
13   -0.715112 
14   -0.695509 
15   -0.448751 
16   -0.522231 
17   0.181779 
18   0.181719 
19   0.183367 
20   0.1413 
21   0.127445 
22   0.158408 
23   0.128486 
24   0.147086 
25   0.113863 
26   0.139435 
27   0.145386 
28   0.290366 
29   0.295822 
30   0.326846 
 
>  <lowdin_charges> 
30 
1   -0.466404 
2   -0.170428 
3   -0.180745 
4   -0.273011 
5   -0.20643 
6   -0.180324 
7   -0.137144 
8   0.205256 
9   -0.058909 
10   0.088916 
11   -0.029085 
12   0.028877 
13   -0.558446 
14   -0.201371 
15   -0.245689 
16   -0.172122 
17   0.175953 
18   0.178241 
19   0.179067 
20   0.169151 
21   0.159847 
22   0.158029 
23   0.144307 
24   0.145737 
25   0.118471 
26   0.168903 
27   0.163921 
28   0.250613 
29   0.253197 
30   0.291621 
 
$$$$ 
 
