PCCDB-ID:  11182 
public computational chemistry database (PCCDB) project, http://pccdb.org 
 
 15 14  0  0  0  0  0  0  0  0999 V2000 
    0.8584    0.0952    0.0793 C   0  0  0  0  0  0  0  0  0  0  0  0 
    4.9415   -0.8882   -2.4298 C   0  0  0  0  0  0  0  0  0  0  0  0 
    2.3892    0.0579    0.0449 C   0  0  0  0  0  0  0  0  0  0  0  0 
    2.9318   -0.4420   -1.2882 C   0  0  0  0  0  0  0  0  0  0  0  0 
    4.3464   -0.4449   -1.2313 O   0  0  0  0  0  0  0  0  0  0  0  0 
    0.4957    0.4579    1.0470 H   0  0  0  0  0  0  0  0  0  0  0  0 
    0.4297   -0.9014   -0.0830 H   0  0  0  0  0  0  0  0  0  0  0  0 
    0.4561    0.7594   -0.6955 H   0  0  0  0  0  0  0  0  0  0  0  0 
    6.0249   -0.8563   -2.2855 H   0  0  0  0  0  0  0  0  0  0  0  0 
    4.6764   -0.2420   -3.2831 H   0  0  0  0  0  0  0  0  0  0  0  0 
    4.6454   -1.9212   -2.6777 H   0  0  0  0  0  0  0  0  0  0  0  0 
    2.7721   -0.5927    0.8409 H   0  0  0  0  0  0  0  0  0  0  0  0 
    2.7989    1.0581    0.2331 H   0  0  0  0  0  0  0  0  0  0  0  0 
    2.5834    0.2065   -2.1125 H   0  0  0  0  0  0  0  0  0  0  0  0 
    2.5550   -1.4593   -1.4990 H   0  0  0  0  0  0  0  0  0  0  0  0 
  1  6  1  0  0  0  0 
  2  9  1  0  0  0  0 
  2  5  1  0  0  0  0 
  3  1  1  0  0  0  0 
  3 13  1  0  0  0  0 
  3 12  1  0  0  0  0 
  4  5  1  0  0  0  0 
  4  3  1  0  0  0  0 
  7  1  1  0  0  0  0 
  8  1  1  0  0  0  0 
 10  2  1  0  0  0  0 
 11  2  1  0  0  0  0 
 14  4  1  0  0  0  0 
 15  4  1  0  0  0  0 
M  END 
>  <HBA> 
1 
 
>  <HBD> 
0 
 
>  <TPSA> 
9.23 
 
>  <cid> 
11182 
 
>  <dipole> 
1.08 
 
>  <excitation_energy_1> 
6.54 
 
>  <excitation_energy_2> 
6.909 
 
>  <excitation_energy_3> 
7.102 
 
>  <excitation_energy_4> 
7.286 
 
>  <homo_energy> 
-6.789 
 
>  <homo_lumo_gap> 
9.342 
 
>  <logP> 
1.043 
 
>  <lumo_energy> 
2.552 
 
>  <melting_point> 
-34.18 
 
>  <molecular_refractivity> 
22.43 
 
>  <oscillator_strength_1> 
0.0279 
 
>  <oscillator_strength_2> 
0.0005 
 
>  <oscillator_strength_3> 
0.0092 
 
>  <oscillator_strength_4> 
0.0259 
 
>  <open_babel_can_smiles> 
CCCOC 
 
>  <mulliken_charges> 
15 
1   -0.451853 
2   -0.189964 
3   -0.263947 
4   0.001402 
5   -0.461809 
6   0.149433 
7   0.143861 
8   0.143863 
9   0.156306 
10   0.127105 
11   0.127041 
12   0.146784 
13   0.1467 
14   0.112486 
15   0.11259 
 
>  <lowdin_charges> 
15 
1   -0.44558 
2   -0.2769 
3   -0.278195 
4   -0.128418 
5   -0.272777 
6   0.153823 
7   0.146863 
8   0.148343 
9   0.151818 
10   0.130343 
11   0.12854 
12   0.149943 
13   0.148332 
14   0.122704 
15   0.121161 
 
$$$$ 
 
